data_PCOD9567747
_publ_section_title
;
Structure prediction by ZEFSAII (Michael W. Deem and Ramdas Pophale) SiO2 
 PCOD9567747
Probable space group: P 42/N B C
;
_chemical_formula_sum "Si O2"
_cell_formula_units_Z 64
_cell_length_a 15.718040
_cell_length_b 15.718040
_cell_length_c 11.452596
_cell_angle_alpha 90.000000
_cell_angle_beta 90.000000
_cell_angle_gamma 90.000000
_cell_volume 2829.441507
_symmetry_space_group_name_H-M "P 42/N B C"
_symmetry_group_IT_number 133
_space_group.IT_coordinate_system_code '2'
_symmetry_cell_setting 'tetragonal'
loop_
_space_group_symop_operation_xyz
x,y,z
1/2-y,x,1/2+z
1/2-x,1/2-y,z
y,1/2-x,1/2+z
x,1/2-y,-z
1/2-x,y,-z
y,x,1/2-z
1/2-y,1/2-x,1/2-z
-x,-y,-z
1/2+y,-x,1/2-z
1/2+x,1/2+y,-z
-y,1/2+x,1/2-z
-x,1/2+y,z
1/2+x,-y,z
-y,-x,1/2+z
1/2+y,1/2+x,1/2+z
loop_
_atom_site_type_symbol
_atom_site_label
_atom_site_fract_x
_atom_site_fract_y
_atom_site_fract_z
Si Si1 0.015492 0.830419 0.940905
Si Si2 0.852289 0.445064 0.831971
Si Si3 0.333626 0.541572 0.179595
Si Si4 0.900893 0.843614 0.479196
O O1 0.928594 0.847408 0.008621
O O2 0.083406 0.905961 0.928250
O O3 0.995673 0.815359 0.804168
O O4 0.058675 0.750000 0.000000
O O5 0.895090 0.411033 0.712654
O O6 0.755910 0.412109 0.846381
O O7 0.846131 0.544579 0.859875
O O8 0.350230 0.471151 0.083206
O O9 0.861174 0.750000 0.500000
#
# Coordination Sequence:
#
# PCOD9567747 Si02
#       4
#    16  16  16  16
#     4  10  22  37  60  89 120 156 210 247 313 371
#     4   9  21  36  60  85 122 155 207 246 312 367
#     4   9  21  37  58  89 118 156 201 253 309 367
#     4  10  20  40  60  88 120 161 201 260 310 368
#
# _framework density 22.619305000000001
#
# number of rings (size 3 to 8) (size 9 to 14) (size 15 to 20)
#    1.500    1.000    0.000    1.500    3.500    1.000 
#    4.500    3.750    0.000    6.000    0.000    0.000 
#    0.000    0.000    0.000    0.000    0.000    0.000 
#
# Total GULP energy -356417.130767 kJ/mol
# GULP energy per Si atom -5569.017668 kJ/mol
# Density = 2.256782 g / cm^3
# Si number density = 22.619305 Si / 1000 Ang^3
#
#
#
# Elastic Constant Matrix: (Units=GPa)
#
#
# Indices 1 2 3 4 5 6 
#
# 1 59.1948 31.7590 -1.4233 0.0000 0.0000 0.0000
# 2 31.7590 59.1948 -1.4233 0.0000 0.0000 0.0000
# 3 -1.4233 -1.4233 53.8565 0.0000 0.0000 0.0000
# 4 0.0000 0.0000 0.0000 22.6614 0.0000 0.0000
# 5 0.0000 0.0000 0.0000 0.0000 22.6614 0.0000
# 6 0.0000 0.0000 0.0000 0.0000 0.0000 -107.1323
#
#
#
# Elastic Compliance Matrix: (Units=1/GPa)
#
#
# Indices 1 2 3 4 5 6 
#
# 1 0.023726 -0.012723 0.000291 0.000000 0.000000 0.000000
# 2 -0.012723 0.023726 0.000291 0.000000 0.000000 0.000000
# 3 0.000291 0.000291 0.018583 0.000000 0.000000 0.000000
# 4 0.000000 0.000000 0.000000 0.044128 0.000000 0.000000
# 5 0.000000 0.000000 0.000000 0.000000 0.044128 0.000000
# 6 0.000000 0.000000 0.000000 0.000000 0.000000 -0.009334
#
#
# Mechanical properties :
#
#
# Convention : Reuss Voigt Hill
#
# Bulk Modulus (GPa) = 23.94989 25.56343 24.75666
# Shear Modulus (GPa) = 27.29897 -2.80634 12.24632
#
# Velocity S-wave (km/s) = 3.47780 -1.11507 2.32935
# Velocity P-wave (km/s) = 5.17088 3.10939 4.26652
#
# Compressibility (1/GPa) = 0.04175384
#
# Stress axis : x y z
#
# Youngs Moduli (GPa) = 42.14744 42.14744 53.81191
#
# Poissons Ratio (x) = 0.53622 -0.01565
# Poissons Ratio (y) = 0.53622 -0.01565
# Poissons Ratio (z) = -0.01226 -0.01226
#
# Static dielectric constant tensor:
#      x y z
#    x 1.899050 0.000000 0.000000 
#    y 0.000000 1.899050 0.000000 
#    z 0.000000 0.000000 1.948230 
# 
# From -- ./inp_files/2970.got.cif
#   From: 2010.05.17/outbox.cif.g08.bks.cpg/sg133_2_cif.got.tgz:2970.got - 2010.05.20 12:37:36.
