data_PCOD9567147
_publ_section_title
;
Structure prediction by ZEFSAII (Michael W. Deem and Ramdas Pophale) SiO2 
 PCOD9567147
Probable space group: P 42/M C M
;
_chemical_formula_sum "Si O2"
_cell_formula_units_Z 64
_cell_length_a 14.196628
_cell_length_b 14.196628
_cell_length_c 13.927714
_cell_angle_alpha 90.000000
_cell_angle_beta 90.000000
_cell_angle_gamma 90.000000
_cell_volume 2807.050625
_symmetry_space_group_name_H-M "P 42/M C M"
_symmetry_group_IT_number 132
_symmetry_cell_setting 'tetragonal'
loop_
_space_group_symop_operation_xyz
x,y,z
-y,x,1/2+z
-x,-y,z
y,-x,1/2+z
x,-y,1/2-z
-x,y,1/2-z
y,x,-z
-y,-x,-z
-x,-y,-z
y,-x,1/2-z
x,y,-z
-y,x,1/2-z
-x,y,1/2+z
x,-y,1/2+z
-y,-x,z
y,x,z
loop_
_atom_site_type_symbol
_atom_site_label
_atom_site_fract_x
_atom_site_fract_y
_atom_site_fract_z
Si Si1 0.697443 0.062888 0.390995
Si Si2 0.863462 0.286644 0.185745
Si Si3 0.858156 0.495192 0.887363
Si Si4 0.503633 0.647683 0.615560
O O1 0.717100 0.095480 0.500000
O O2 0.732401 0.119442 0.298473
O O3 0.582657 0.070357 0.379884
O O4 0.736634 0.957826 0.374462
O O5 0.772813 0.227188 0.153471
O O6 0.862775 0.399237 0.171745
O O7 0.752458 0.528470 0.861511
O O8 0.860001 0.467142 0.000000
O O9 0.503587 0.644908 0.500000
O O10 0.426763 0.573238 0.649451
O O11 0.606177 0.606177 0.644048
#
# Coordination Sequence:
#
# PCOD9567147 Si02
#       4
#    16  16  16  16
#     4  10  23  42  62  88 126 166 202 250 315 380
#     4  11  23  39  63  94 124 157 205 262 316 376
#     4  10  19  33  57  88 125 169 211 252 304 366
#     4   8  14  25  43  73 116 162 205 249 298 357
#
# _framework density 22.79973
#
# number of rings (size 3 to 8) (size 9 to 14) (size 15 to 20)
#    0.000    2.250    0.000    3.750    0.000    8.500 
#    0.000    2.500    0.000    6.000    0.000   10.500 
#    0.000    0.000    0.000    0.000    0.000    0.000 
#
# Total GULP energy -356847.392977 kJ/mol
# GULP energy per Si atom -5575.740515 kJ/mol
# Density = 2.274784 g / cm^3
# Si number density = 22.799730 Si / 1000 Ang^3
#
#
#
# Elastic Constant Matrix: (Units=GPa)
#
#
# Indices 1 2 3 4 5 6 
#
# 1 67.9072 52.0202 20.6042 0.0000 0.0000 0.0000
# 2 52.0202 67.9072 20.6042 0.0000 0.0000 0.0000
# 3 20.6042 20.6042 141.4951 0.0000 0.0000 0.0000
# 4 0.0000 0.0000 0.0000 10.0117 0.0000 0.0000
# 5 0.0000 0.0000 0.0000 0.0000 10.0117 0.0000
# 6 0.0000 0.0000 0.0000 0.0000 0.0000 39.3892
#
#
#
# Elastic Compliance Matrix: (Units=1/GPa)
#
#
# Indices 1 2 3 4 5 6 
#
# 1 0.035861 -0.027083 -0.001278 0.000000 0.000000 0.000000
# 2 -0.027083 0.035861 -0.001278 0.000000 0.000000 0.000000
# 3 -0.001278 -0.001278 0.007440 0.000000 0.000000 0.000000
# 4 0.000000 0.000000 0.000000 0.099883 0.000000 0.000000
# 5 0.000000 0.000000 0.000000 0.000000 0.099883 0.000000
# 6 0.000000 0.000000 0.000000 0.000000 0.000000 0.025388
#
#
# Mechanical properties :
#
#
# Convention : Reuss Voigt Hill
#
# Bulk Modulus (GPa) = 50.29653 51.52964 50.91309
# Shear Modulus (GPa) = 13.50541 24.15459 18.83000
#
# Velocity S-wave (km/s) = 2.43646 3.25841 2.87694
# Velocity P-wave (km/s) = 5.47934 6.06683 5.78055
#
# Compressibility (1/GPa) = 0.01988209
#
# Stress axis : x y z
#
# Youngs Moduli (GPa) = 27.88539 27.88539 134.41524
#
# Poissons Ratio (x) = 0.75523 0.17181
# Poissons Ratio (y) = 0.75523 0.17181
# Poissons Ratio (z) = 0.03564 0.03564
#
# Static dielectric constant tensor:
#      x y z
#    x 1.878740 0.000000 0.000000 
#    y 0.000000 1.878740 0.000000 
#    z 0.000000 0.000000 1.898340 
# 
# From -- ./inp_files/4412.got.cif
#   From: 2010.05.17/outbox.cif.g08.bks.cpg/sg132_3_cif.got.tgz:4412.got - 2010.05.20 12:30:18.
