data_PCOD9567348
_publ_section_title
;
Structure prediction by ZEFSAII (Michael W. Deem and Ramdas Pophale) SiO2 
 PCOD9567348
Probable space group: P 42/M C M
;
_chemical_formula_sum "Si O2"
_cell_formula_units_Z 72
_cell_length_a 13.851429
_cell_length_b 13.851429
_cell_length_c 19.198057
_cell_angle_alpha 90.000000
_cell_angle_beta 90.000000
_cell_angle_gamma 90.000000
_cell_volume 3683.379251
_symmetry_space_group_name_H-M "P 42/M C M"
_symmetry_group_IT_number 132
_symmetry_cell_setting 'tetragonal'
loop_
_space_group_symop_operation_xyz
x,y,z
-y,x,1/2+z
-x,-y,z
y,-x,1/2+z
x,-y,1/2-z
-x,y,1/2-z
y,x,-z
-y,-x,-z
-x,-y,-z
y,-x,1/2-z
x,y,-z
-y,x,1/2-z
-x,y,1/2+z
x,-y,1/2+z
-y,-x,z
y,x,z
loop_
_atom_site_type_symbol
_atom_site_label
_atom_site_fract_x
_atom_site_fract_y
_atom_site_fract_z
Si Si1 0.725543 0.434931 0.856956
Si Si2 0.027677 0.271057 0.172109
Si Si3 0.370735 0.779020 0.298098
Si Si4 0.924668 0.588852 0.578131
Si Si5 0.082646 0.082646 0.083703
O O1 0.631188 0.368813 0.872692
O O2 0.717501 0.548300 0.838754
O O3 0.767466 0.395209 0.783247
O O4 0.811514 0.434073 0.912985
O O5 0.111409 0.352768 0.180294
O O6 0.053175 0.181494 0.122753
O O7 0.000000 0.238789 0.250000
O O8 0.943609 0.328537 0.133963
O O9 0.268427 0.731574 0.311345
O O10 0.943905 0.624000 0.500000
O O11 0.000000 0.500000 0.588999
O O12 0.095678 0.095678 0.000000
O O13 0.000000 0.000000 0.093137
#
# Coordination Sequence:
#
# PCOD9567348 Si02
#       5
#    16  16  16  16   8
#     4  10  21  37  61  91 128 163 206 263 329 386
#     4  12  23  38  70  95 123 166 219 274 327 393
#     4  10  20  37  61  95 123 159 210 265 322 386
#     4  11  23  38  60  93 129 168 214 265 329 397
#     4  11  28  48  64  92 135 175 213 271 337 402
#
# _framework density 19.547267999999999
#
# number of rings (size 3 to 8) (size 9 to 14) (size 15 to 20)
#    0.000    1.222    5.556    0.667    1.556    2.222 
#    0.000    2.222    0.000    0.000    0.000    1.556 
#    0.000    0.000    0.000    0.000    0.000    0.000 
#
# Total GULP energy -400893.435082 kJ/mol
# GULP energy per Si atom -5567.964376 kJ/mol
# Density = 1.950278 g / cm^3
# Si number density = 19.547268 Si / 1000 Ang^3
#
#
#
# Elastic Constant Matrix: (Units=GPa)
#
#
# Indices 1 2 3 4 5 6 
#
# 1 52.4422 1.9009 26.1002 0.0000 0.0000 0.0000
# 2 1.9009 52.4422 26.1002 0.0000 0.0000 0.0000
# 3 26.1002 26.1002 111.5601 0.0000 0.0000 0.0000
# 4 0.0000 0.0000 0.0000 12.7761 0.0000 0.0000
# 5 0.0000 0.0000 0.0000 0.0000 12.7761 0.0000
# 6 0.0000 0.0000 0.0000 0.0000 0.0000 33.3879
#
#
#
# Elastic Compliance Matrix: (Units=1/GPa)
#
#
# Indices 1 2 3 4 5 6 
#
# 1 0.021761 0.001975 -0.005553 0.000000 0.000000 0.000000
# 2 0.001975 0.021761 -0.005553 0.000000 0.000000 0.000000
# 3 -0.005553 -0.005553 0.011562 0.000000 0.000000 0.000000
# 4 0.000000 0.000000 0.000000 0.078271 0.000000 0.000000
# 5 0.000000 0.000000 0.000000 0.000000 0.078271 0.000000
# 6 0.000000 0.000000 0.000000 0.000000 0.000000 0.029951
#
#
# Mechanical properties :
#
#
# Convention : Reuss Voigt Hill
#
# Bulk Modulus (GPa) = 27.15827 36.07189 31.61508
# Shear Modulus (GPa) = 18.37474 22.61092 20.49283
#
# Velocity S-wave (km/s) = 3.06929 3.40476 3.24137
# Velocity P-wave (km/s) = 5.14631 5.82669 5.49704
#
# Compressibility (1/GPa) = 0.03682120
#
# Stress axis : x y z
#
# Youngs Moduli (GPa) = 45.95423 45.95423 86.48909
#
# Poissons Ratio (x) = -0.09076 0.48029
# Poissons Ratio (y) = -0.09076 0.48029
# Poissons Ratio (z) = 0.25519 0.25519
#
# Static dielectric constant tensor:
#      x y z
#    x 1.687580 0.000000 0.000000 
#    y 0.000000 1.687580 0.000000 
#    z 0.000000 0.000000 1.671210 
# 
# From -- ./inp_files/6110.got.cif
#   From: 2010.05.17/outbox.cif.g08.bks.cpg/sg132_4_cif.got.tgz:6110.got - 2010.05.20 12:30:18.
