data_PCOD9567535
_publ_section_title
;
Structure prediction by ZEFSAII (Michael W. Deem and Ramdas Pophale) SiO2 
 PCOD9567535
Probable space group: P 42/M C M
;
_chemical_formula_sum "Si O2"
_cell_formula_units_Z 42
_cell_length_a 14.693801
_cell_length_b 14.693801
_cell_length_c 9.506404
_cell_angle_alpha 90.000000
_cell_angle_beta 90.000000
_cell_angle_gamma 90.000000
_cell_volume 2052.506658
_symmetry_space_group_name_H-M "P 42/M C M"
_symmetry_group_IT_number 132
_symmetry_cell_setting 'tetragonal'
loop_
_space_group_symop_operation_xyz
x,y,z
-y,x,1/2+z
-x,-y,z
y,-x,1/2+z
x,-y,1/2-z
-x,y,1/2-z
y,x,-z
-y,-x,-z
-x,-y,-z
y,-x,1/2-z
x,y,-z
-y,x,1/2-z
-x,y,1/2+z
x,-y,1/2+z
-y,-x,z
y,x,z
loop_
_atom_site_type_symbol
_atom_site_label
_atom_site_fract_x
_atom_site_fract_y
_atom_site_fract_z
Si Si1 0.852363 0.002475 0.000000
Si Si2 0.719782 0.000000 0.250000
Si Si3 0.500000 0.500000 0.250000
Si Si4 0.591078 0.167411 0.830188
Si Si5 0.648412 0.351589 0.333598
O O1 0.788510 0.977844 0.872522
O O2 0.894930 0.105071 0.000000
O O3 0.936532 0.936532 0.000000
O O4 0.661829 0.086691 0.200314
O O5 0.570042 0.429959 0.326461
O O6 0.500000 0.137378 0.750000
O O7 0.617162 0.261476 0.751266
O O8 0.580792 0.180109 0.000000
O O9 0.666223 0.333778 0.500000
#
# Coordination Sequence:
#
# PCOD9567535 Si02
#       5
#     8   8   2  16   8
#     4  11  26  48  73 108 144 190 243 304 368 439
#     4  12  27  45  78 104 150 190 246 303 371 442
#     4  12  26  52  80 114 150 192 258 312 366 428
#     4  12  28  47  72 109 151 197 247 309 373 447
#     4  12  28  47  80 111 150 197 252 311 379 444
#
# _framework density 20.462783000000002
#
# number of rings (size 3 to 8) (size 9 to 14) (size 15 to 20)
#    0.000    0.190    3.810    3.714   10.667    4.571 
#    0.000    0.000    0.000    0.000    0.000    0.000 
#    0.000    0.000    0.000    0.000    0.000    0.000 
#
# Total GULP energy -234454.966302 kJ/mol
# GULP energy per Si atom -5582.261102 kJ/mol
# Density = 2.041621 g / cm^3
# Si number density = 20.462783 Si / 1000 Ang^3
#
#
#
# Elastic Constant Matrix: (Units=GPa)
#
#
# Indices 1 2 3 4 5 6 
#
# 1 106.8566 57.5208 59.0479 0.0000 0.0000 0.0000
# 2 57.5208 106.8566 59.0481 0.0000 0.0000 0.0000
# 3 59.0479 59.0481 233.9230 0.0000 0.0000 0.0000
# 4 0.0000 0.0000 0.0000 77.6563 0.0000 0.0000
# 5 0.0000 0.0000 0.0000 0.0000 77.6812 0.0000
# 6 0.0000 0.0000 0.0000 0.0000 0.0000 39.7046
#
#
#
# Elastic Compliance Matrix: (Units=1/GPa)
#
#
# Indices 1 2 3 4 5 6 
#
# 1 0.013850 -0.006419 -0.001876 0.000000 0.000000 0.000000
# 2 -0.006419 0.013850 -0.001876 0.000000 0.000000 0.000000
# 3 -0.001876 -0.001876 0.005222 0.000000 0.000000 0.000000
# 4 0.000000 0.000000 0.000000 0.012877 0.000000 0.000000
# 5 0.000000 0.000000 0.000000 0.000000 0.012873 0.000000
# 6 0.000000 0.000000 0.000000 0.000000 0.000000 0.025186
#
#
# Mechanical properties :
#
#
# Convention : Reuss Voigt Hill
#
# Bulk Modulus (GPa) = 79.48445 88.76334 84.12389
# Shear Modulus (GPa) = 46.12809 57.14304 51.63556
#
# Velocity S-wave (km/s) = 4.75304 5.29018 5.02878
# Velocity P-wave (km/s) = 8.30961 8.98814 8.65553
#
# Compressibility (1/GPa) = 0.01258108
#
# Stress axis : x y z
#
# Youngs Moduli (GPa) = 72.20090 72.20084 191.50028
#
# Poissons Ratio (x) = 0.46346 0.35922
# Poissons Ratio (y) = 0.46346 0.35922
# Poissons Ratio (z) = 0.13544 0.13544
#
# Static dielectric constant tensor:
#      x y z
#    x 1.764420 0.000000 0.000000 
#    y 0.000000 1.764420 0.000000 
#    z 0.000000 0.000000 1.686320 
# 
# From -- ./inp_files/596.got.cif
#   From: 2010.05.17/outbox.cif.g08.bks.cpg/sg132_1_cif.got.tgz:596.got - 2010.05.20 12:30:18.
