data_PCOD9567165
_publ_section_title
;
Structure prediction by ZEFSAII (Michael W. Deem and Ramdas Pophale) SiO2 
 PCOD9567165
Probable space group: P 42/M C M
;
_chemical_formula_sum "Si O2"
_cell_formula_units_Z 72
_cell_length_a 11.945624
_cell_length_b 11.945624
_cell_length_c 27.393861
_cell_angle_alpha 90.000000
_cell_angle_beta 90.000000
_cell_angle_gamma 90.000000
_cell_volume 3909.047335
_symmetry_space_group_name_H-M "P 42/M C M"
_symmetry_group_IT_number 132
_symmetry_cell_setting 'tetragonal'
loop_
_space_group_symop_operation_xyz
x,y,z
-y,x,1/2+z
-x,-y,z
y,-x,1/2+z
x,-y,1/2-z
-x,y,1/2-z
y,x,-z
-y,-x,-z
-x,-y,-z
y,-x,1/2-z
x,y,-z
-y,x,1/2-z
-x,y,1/2+z
x,-y,1/2+z
-y,-x,z
y,x,z
loop_
_atom_site_type_symbol
_atom_site_label
_atom_site_fract_x
_atom_site_fract_y
_atom_site_fract_z
Si Si1 0.934912 0.750978 0.796106
Si Si2 0.910993 0.089008 0.859678
Si Si3 0.788123 0.211878 0.945964
Si Si4 0.527732 0.866290 0.444427
Si Si5 0.224948 0.586165 0.651806
Si Si6 0.500000 0.312045 0.750000
O O1 0.834801 0.834801 0.779363
O O2 0.878979 0.661874 0.831375
O O3 0.000000 0.701782 0.750000
O O4 0.021518 0.825285 0.826114
O O5 0.850141 0.149860 0.902983
O O6 0.000000 0.000000 0.879538
O O7 0.824778 0.342637 0.942388
O O8 0.825004 0.174997 0.000000
O O9 0.488859 0.838627 0.500000
O O10 0.469758 0.802914 0.399507
O O11 0.500000 0.000000 0.438496
O O12 0.332819 0.667182 0.646867
O O13 0.246184 0.506927 0.698905
O O14 0.391547 0.391547 0.748243
#
# Coordination Sequence:
#
# PCOD9567165 Si02
#       6
#    16   8   8  16  16   8
#     4  10  19  34  54  82 118 154 192 232 289 354
#     4  10  20  33  58  83 115 158 186 233 293 342
#     4  10  22  39  59  86 112 151 201 238 301 366
#     4  10  22  41  61  84 119 153 192 250 302 350
#     4  10  22  37  57  86 113 148 201 239 286 358
#     4   9  20  38  55  76 114 152 179 234 301 338
#
# _framework density 18.418809
#
# number of rings (size 3 to 8) (size 9 to 14) (size 15 to 20)
#    0.000    2.111    1.111    1.333    1.556    4.222 
#    0.000    0.000    0.000   10.000    0.000    0.000 
#    0.000    0.000    0.000    0.000    0.000    0.000 
#
# Total GULP energy -401355.576978 kJ/mol
# GULP energy per Si atom -5574.383014 kJ/mol
# Density = 1.837689 g / cm^3
# Si number density = 18.418809 Si / 1000 Ang^3
#
#
#
# Elastic Constant Matrix: (Units=GPa)
#
#
# Indices 1 2 3 4 5 6 
#
# 1 58.9348 26.6908 47.8765 0.0000 0.0000 0.0000
# 2 26.6908 58.9351 47.8765 0.0000 0.0000 0.0000
# 3 47.8765 47.8765 143.3605 0.0000 0.0000 0.0000
# 4 0.0000 0.0000 0.0000 141.8101 0.0000 0.0000
# 5 0.0000 0.0000 0.0000 0.0000 141.8125 0.0000
# 6 0.0000 0.0000 0.0000 0.0000 0.0000 -15.5222
#
#
#
# Elastic Compliance Matrix: (Units=1/GPa)
#
#
# Indices 1 2 3 4 5 6 
#
# 1 0.024827 -0.006187 -0.006225 0.000000 0.000000 0.000000
# 2 -0.006187 0.024827 -0.006225 0.000000 0.000000 0.000000
# 3 -0.006225 -0.006225 0.011133 0.000000 0.000000 0.000000
# 4 0.000000 0.000000 0.000000 0.007052 0.000000 0.000000
# 5 0.000000 0.000000 0.000000 0.000000 0.007052 0.000000
# 6 0.000000 0.000000 0.000000 0.000000 0.000000 -0.064424
#
#
# Mechanical properties :
#
#
# Convention : Reuss Voigt Hill
#
# Bulk Modulus (GPa) = 42.52934 56.23535 49.38235
# Shear Modulus (GPa) = 89.96515 62.87252 76.41883
#
# Velocity S-wave (km/s) = 6.99644 5.84885 6.44823
# Velocity P-wave (km/s) = 9.40251 8.72982 9.07241
#
# Compressibility (1/GPa) = 0.02351318
#
# Stress axis : x y z
#
# Youngs Moduli (GPa) = 40.27914 40.27944 89.82156
#
# Poissons Ratio (x) = 0.24920 0.55914
# Poissons Ratio (y) = 0.24920 0.55913
# Poissons Ratio (z) = 0.25074 0.25074
#
# Static dielectric constant tensor:
#      x y z
#    x 1.633260 0.000000 0.000000 
#    y 0.000000 1.633260 0.000000 
#    z 0.000000 0.000000 1.620850 
# 
# From -- ./inp_files/9837.got.cif
#   From: 2010.05.17/outbox.cif.g08.bks.cpg/sg132_5_cif.got.tgz:9837.got - 2010.05.20 12:30:18.
