data_PCOD9567910
_publ_section_title
;
Structure prediction by ZEFSAII (Michael W. Deem and Ramdas Pophale) SiO2 
 PCOD9567910
Probable space group: P 42/N B C
;
_chemical_formula_sum "Si O2"
_cell_formula_units_Z 60
_cell_length_a 17.020501
_cell_length_b 17.020501
_cell_length_c 8.409971
_cell_angle_alpha 90.000000
_cell_angle_beta 90.000000
_cell_angle_gamma 90.000000
_cell_volume 2436.347189
_symmetry_space_group_name_H-M "P 42/N B C"
_symmetry_group_IT_number 133
_space_group.IT_coordinate_system_code '2'
_symmetry_cell_setting 'tetragonal'
loop_
_space_group_symop_operation_xyz
x,y,z
1/2-y,x,1/2+z
1/2-x,1/2-y,z
y,1/2-x,1/2+z
x,1/2-y,-z
1/2-x,y,-z
y,x,1/2-z
1/2-y,1/2-x,1/2-z
-x,-y,-z
1/2+y,-x,1/2-z
1/2+x,1/2+y,-z
-y,1/2+x,1/2-z
-x,1/2+y,z
1/2+x,-y,z
-y,-x,1/2+z
1/2+y,1/2+x,1/2+z
loop_
_atom_site_type_symbol
_atom_site_label
_atom_site_fract_x
_atom_site_fract_y
_atom_site_fract_z
Si Si1 0.750000 0.250000 0.750000
Si Si2 0.882868 0.839422 0.932602
Si Si3 0.111202 0.960946 0.606035
Si Si4 0.141145 0.750000 0.000000
Si Si5 0.497232 0.338789 0.542964
O O1 0.793820 0.192946 0.631326
O O2 0.854883 0.854883 0.750000
O O3 0.876822 0.750000 0.000000
O O4 0.971228 0.871177 0.974881
O O5 0.833732 0.903365 0.029348
O O6 0.186867 0.907070 0.589240
O O7 0.121212 0.990236 0.785171
O O8 0.037572 0.903724 0.573005
O O9 0.526663 0.250000 0.500000
#
# Coordination Sequence:
#
# PCOD9567910 Si02
#       5
#     4  16  16   8  16
#     4  10  24  38  64 110 156 210 244 314 376 446
#     4  12  27  54  86 115 151 201 266 332 402 473
#     4  12  26  48  76 117 162 208 263 319 393 477
#     4  11  24  42  70 108 163 202 260 306 379 462
#     4  12  29  49  80 115 159 212 263 326 395 467
#
# _framework density 24.627033000000001
#
# number of rings (size 3 to 8) (size 9 to 14) (size 15 to 20)
#    0.000    0.267    1.333    6.400   11.200    0.533 
#    0.000    1.333    2.933    0.000    0.000    0.000 
#    0.000    0.000    0.000    0.000    0.000    0.000 
#
# Total GULP energy -334781.893672 kJ/mol
# GULP energy per Si atom -5579.698228 kJ/mol
# Density = 2.457098 g / cm^3
# Si number density = 24.627033 Si / 1000 Ang^3
#
#
#
# Elastic Constant Matrix: (Units=GPa)
#
#
# Indices 1 2 3 4 5 6 
#
# 1 152.5120 63.6270 61.7487 0.0000 0.0000 0.0000
# 2 63.6270 152.5120 61.7487 0.0000 0.0000 0.0000
# 3 61.7487 61.7487 165.9846 0.0000 0.0000 0.0000
# 4 0.0000 0.0000 0.0000 34.5785 0.0000 0.0000
# 5 0.0000 0.0000 0.0000 0.0000 34.5785 0.0000
# 6 0.0000 0.0000 0.0000 0.0000 0.0000 30.8630
#
#
#
# Elastic Compliance Matrix: (Units=1/GPa)
#
#
# Indices 1 2 3 4 5 6 
#
# 1 0.008563 -0.002687 -0.002186 0.000000 0.000000 0.000000
# 2 -0.002687 0.008563 -0.002186 0.000000 0.000000 0.000000
# 3 -0.002186 -0.002186 0.007651 0.000000 0.000000 0.000000
# 4 0.000000 0.000000 0.000000 0.028920 0.000000 0.000000
# 5 0.000000 0.000000 0.000000 0.000000 0.028920 0.000000
# 6 0.000000 0.000000 0.000000 0.000000 0.000000 0.032401
#
#
# Mechanical properties :
#
#
# Convention : Reuss Voigt Hill
#
# Bulk Modulus (GPa) = 93.81829 93.91749 93.86789
# Shear Modulus (GPa) = 37.68218 38.92962 38.30590
#
# Velocity S-wave (km/s) = 3.91591 3.98020 3.94819
# Velocity P-wave (km/s) = 7.65664 7.70334 7.68002
#
# Compressibility (1/GPa) = 0.01065890
#
# Stress axis : x y z
#
# Youngs Moduli (GPa) = 116.78101 116.78101 130.70260
#
# Poissons Ratio (x) = 0.31384 0.28569
# Poissons Ratio (y) = 0.31384 0.28569
# Poissons Ratio (z) = 0.25526 0.25526
#
# Static dielectric constant tensor:
#      x y z
#    x 2.024210 0.000000 0.000000 
#    y 0.000000 2.024210 0.000000 
#    z 0.000000 0.000000 1.805040 
# 
# From -- ./inp_files/1369.got.cif
#   From: 2010.05.17/outbox.cif.g08.bks.cpg/sg133_1_cif.got.tgz:1369.got - 2010.05.20 12:37:36.
