data_PCOD9567215
_publ_section_title
;
Structure prediction by ZEFSAII (Michael W. Deem and Ramdas Pophale) SiO2 
 PCOD9567215
Probable space group: P 42/M C M
;
_chemical_formula_sum "Si O2"
_cell_formula_units_Z 96
_cell_length_a 23.947995
_cell_length_b 23.947995
_cell_length_c 7.980071
_cell_angle_alpha 90.000000
_cell_angle_beta 90.000000
_cell_angle_gamma 90.000000
_cell_volume 4576.622306
_symmetry_space_group_name_H-M "P 42/M C M"
_symmetry_group_IT_number 132
_symmetry_cell_setting 'tetragonal'
loop_
_space_group_symop_operation_xyz
x,y,z
-y,x,1/2+z
-x,-y,z
y,-x,1/2+z
x,-y,1/2-z
-x,y,1/2-z
y,x,-z
-y,-x,-z
-x,-y,-z
y,-x,1/2-z
x,y,-z
-y,x,1/2-z
-x,y,1/2+z
x,-y,1/2+z
-y,-x,z
y,x,z
loop_
_atom_site_type_symbol
_atom_site_label
_atom_site_fract_x
_atom_site_fract_y
_atom_site_fract_z
Si Si1 0.151013 0.762566 0.193299
Si Si2 0.101550 0.564139 0.194171
Si Si3 0.345963 0.564933 0.297704
Si Si4 0.223795 0.565084 0.700715
Si Si5 0.063042 0.850068 0.304437
Si Si6 0.060896 0.677658 0.796447
O O1 0.206245 0.793756 0.267177
O O2 0.102923 0.809600 0.200322
O O3 0.115967 0.710725 0.267111
O O4 0.164569 0.749146 0.000000
O O5 0.095737 0.500000 0.250000
O O6 0.165914 0.583625 0.218700
O O7 0.065085 0.614007 0.270037
O O8 0.088434 0.562625 0.000000
O O9 0.352916 0.500000 0.250000
O O10 0.345885 0.566606 0.500000
O O11 0.395596 0.604405 0.235240
O O12 0.284500 0.587003 0.244348
O O13 0.226986 0.500000 0.750000
O O14 0.218524 0.570327 0.500000
O O15 0.069186 0.834497 0.500000
O O16 0.088089 0.911912 0.284372
O O17 0.000000 0.846140 0.250000
O O18 0.000000 0.701479 0.750000
O O19 0.063907 0.678703 0.000000
#
# Coordination Sequence:
#
# PCOD9567215 Si02
#       6
#    16  16  16  16  16  16
#     4   9  18  35  57  77 100 133 171 210 254 301
#     4  10  20  35  54  78 107 137 173 215 263 316
#     4   9  18  31  46  67  97 132 172 220 272 328
#     4   9  16  29  50  71  92 124 165 207 254 307
#     4  10  20  32  47  69  96 126 162 204 248 294
#     4  10  22  37  55  81 111 143 177 215 258 309
#
# _framework density 20.976168999999999
#
# number of rings (size 3 to 8) (size 9 to 14) (size 15 to 20)
#    0.000    2.500    0.000    3.000    0.000    6.000 
#    0.000    4.167    0.000    1.000    0.000    0.000 
#    0.000    0.000    0.000    0.000    0.000    0.000 
#
# Total GULP energy -534595.215988 kJ/mol
# GULP energy per Si atom -5568.700167 kJ/mol
# Density = 2.092843 g / cm^3
# Si number density = 20.976169 Si / 1000 Ang^3
#
#
#
# Elastic Constant Matrix: (Units=GPa)
#
#
# Indices 1 2 3 4 5 6 
#
# 1 85.4518 33.5393 -5.3068 0.0000 0.0000 0.0000
# 2 33.5393 85.4518 -5.3068 0.0000 0.0000 0.0000
# 3 -5.3068 -5.3068 20.4482 0.0000 0.0000 0.0000
# 4 0.0000 0.0000 0.0000 30.0054 0.0000 0.0000
# 5 0.0000 0.0000 0.0000 0.0000 30.0054 0.0000
# 6 0.0000 0.0000 0.0000 0.0000 0.0000 29.9594
#
#
#
# Elastic Compliance Matrix: (Units=1/GPa)
#
#
# Indices 1 2 3 4 5 6 
#
# 1 0.013933 -0.005330 0.002233 0.000000 0.000000 0.000000
# 2 -0.005330 0.013933 0.002233 0.000000 0.000000 0.000000
# 3 0.002233 0.002233 0.050063 0.000000 0.000000 0.000000
# 4 0.000000 0.000000 0.000000 0.033327 0.000000 0.000000
# 5 0.000000 0.000000 0.000000 0.000000 0.033327 0.000000
# 6 0.000000 0.000000 0.000000 0.000000 0.000000 0.033379
#
#
# Mechanical properties :
#
#
# Convention : Reuss Voigt Hill
#
# Bulk Modulus (GPa) = 13.12334 26.35591 19.73962
# Shear Modulus (GPa) = 24.37937 29.22246 26.80092
#
# Velocity S-wave (km/s) = 3.41286 3.73651 3.57835
# Velocity P-wave (km/s) = 4.66906 5.58635 5.14817
#
# Compressibility (1/GPa) = 0.07620012
#
# Stress axis : x y z
#
# Youngs Moduli (GPa) = 71.77123 71.77123 19.97488
#
# Poissons Ratio (x) = 0.38254 -0.04460
# Poissons Ratio (y) = 0.38254 -0.04460
# Poissons Ratio (z) = -0.16025 -0.16025
#
# Static dielectric constant tensor:
#      x y z
#    x 1.790370 0.000000 0.000000 
#    y 0.000000 1.790370 0.000000 
#    z 0.000000 0.000000 1.773700 
# 
# From -- ./inp_files/1723.got.cif
#   From: 2010.05.17/outbox.cif.g08.bks.cpg/sg132_1_cif.got.tgz:1723.got - 2010.05.20 12:30:18.
