data_PCOD9567131
_publ_section_title
;
Structure prediction by ZEFSAII (Michael W. Deem and Ramdas Pophale) SiO2 
 PCOD9567131
Probable space group: P 42/M C M
;
_chemical_formula_sum "Si O2"
_cell_formula_units_Z 96
_cell_length_a 25.344187
_cell_length_b 25.344187
_cell_length_c 8.668303
_cell_angle_alpha 90.000000
_cell_angle_beta 90.000000
_cell_angle_gamma 90.000000
_cell_volume 5567.892123
_symmetry_space_group_name_H-M "P 42/M C M"
_symmetry_group_IT_number 132
_symmetry_cell_setting 'tetragonal'
loop_
_space_group_symop_operation_xyz
x,y,z
-y,x,1/2+z
-x,-y,z
y,-x,1/2+z
x,-y,1/2-z
-x,y,1/2-z
y,x,-z
-y,-x,-z
-x,-y,-z
y,-x,1/2-z
x,y,-z
-y,x,1/2-z
-x,y,1/2+z
x,-y,1/2+z
-y,-x,z
y,x,z
loop_
_atom_site_type_symbol
_atom_site_label
_atom_site_fract_x
_atom_site_fract_y
_atom_site_fract_z
Si Si1 0.263161 0.851422 0.315590
Si Si2 0.443788 0.786668 0.815149
Si Si3 0.058897 0.941104 0.186714
Si Si4 0.445410 0.909922 0.184575
Si Si5 0.054508 0.331694 0.314688
Si Si6 0.146628 0.853373 0.184746
Si Si7 0.333027 0.249808 0.813930
O O1 0.257495 0.849260 0.500000
O O2 0.301238 0.897543 0.261179
O O3 0.205976 0.862996 0.244461
O O4 0.292486 0.797161 0.266992
O O5 0.500000 0.766865 0.750000
O O6 0.439787 0.848483 0.766887
O O7 0.390853 0.758815 0.755494
O O8 0.445164 0.784575 0.000000
O O9 0.102844 0.897157 0.232787
O O10 0.000000 0.928118 0.250000
O O11 0.056839 0.943162 0.000000
O O12 0.500000 0.931025 0.250000
O O13 0.392886 0.939783 0.232609
O O14 0.448231 0.910715 0.000000
O O15 0.057000 0.328130 0.500000
O O16 0.000000 0.310097 0.250000
O O17 0.146627 0.853374 0.000000
O O18 0.304469 0.304469 0.771555
O O19 0.337219 0.247294 0.000000
#
# Coordination Sequence:
#
# PCOD9567131 Si02
#       7
#    16  16   8  16  16   8  16
#     4  11  22  38  58  82 110 145 184 226 277 332
#     4  10  19  33  53  80 110 147 187 230 280 329
#     4  10  22  41  66  92 114 140 172 216 272 333
#     4   9  19  33  51  73  99 133 180 230 280 330
#     4  11  23  39  54  75 104 141 184 231 283 334
#     4  11  24  40  61  88 118 148 180 220 269 329
#     4  10  20  35  55  82 113 146 186 229 278 332
#
# _framework density 17.241713000000001
#
# number of rings (size 3 to 8) (size 9 to 14) (size 15 to 20)
#    0.000    1.750    2.500    2.250    0.000    5.333 
#    0.000    3.333    0.000    0.000    0.000    0.000 
#    0.000    0.333    0.000    3.500    0.000    1.500 
#
# Total GULP energy -535807.412902 kJ/mol
# GULP energy per Si atom -5581.327218 kJ/mol
# Density = 1.720247 g / cm^3
# Si number density = 17.241713 Si / 1000 Ang^3
#
#
#
# Elastic Constant Matrix: (Units=GPa)
#
#
# Indices 1 2 3 4 5 6 
#
# 1 115.6635 61.5765 31.3421 0.0000 0.0000 0.0000
# 2 61.5765 115.6633 31.3418 0.0000 0.0000 0.0000
# 3 31.3421 31.3418 36.4636 0.0000 0.0000 0.0000
# 4 0.0000 0.0000 0.0000 14.5277 0.0000 0.0000
# 5 0.0000 0.0000 0.0000 0.0000 14.5279 0.0000
# 6 0.0000 0.0000 0.0000 0.0000 0.0000 24.9221
#
#
#
# Elastic Compliance Matrix: (Units=1/GPa)
#
#
# Indices 1 2 3 4 5 6 
#
# 1 0.013298 -0.005191 -0.006968 0.000000 0.000000 0.000000
# 2 -0.005191 0.013298 -0.006968 0.000000 0.000000 0.000000
# 3 -0.006968 -0.006968 0.039403 0.000000 0.000000 0.000000
# 4 0.000000 0.000000 0.000000 0.068834 0.000000 0.000000
# 5 0.000000 0.000000 0.000000 0.000000 0.068833 0.000000
# 6 0.000000 0.000000 0.000000 0.000000 0.000000 0.040125
#
#
# Mechanical properties :
#
#
# Convention : Reuss Voigt Hill
#
# Bulk Modulus (GPa) = 36.04323 57.36791 46.70557
# Shear Modulus (GPa) = 17.16495 20.36421 18.76458
#
# Velocity S-wave (km/s) = 3.15865 3.44044 3.30256
# Velocity P-wave (km/s) = 5.85259 7.00908 6.45678
#
# Compressibility (1/GPa) = 0.02774446
#
# Stress axis : x y z
#
# Youngs Moduli (GPa) = 75.20176 75.20201 25.37897
#
# Poissons Ratio (x) = 0.39039 0.17684
# Poissons Ratio (y) = 0.39039 0.17683
# Poissons Ratio (z) = 0.52399 0.52398
#
# Static dielectric constant tensor:
#      x y z
#    x 1.580390 0.000000 0.000000 
#    y 0.000000 1.580390 0.000000 
#    z 0.000000 0.000000 1.579820 
# 
# From -- ./inp_files/1854.got.cif
#   From: 2010.05.17/outbox.cif.g08.bks.cpg/sg132_1_cif.got.tgz:1854.got - 2010.05.20 12:30:18.
