data_PCOD9567319
_publ_section_title
;
Structure prediction by ZEFSAII (Michael W. Deem and Ramdas Pophale) SiO2 
 PCOD9567319
Probable space group: P 42/M C M
;
_chemical_formula_sum "Si O2"
_cell_formula_units_Z 64
_cell_length_a 20.483305
_cell_length_b 20.483305
_cell_length_c 8.654438
_cell_angle_alpha 90.000000
_cell_angle_beta 90.000000
_cell_angle_gamma 90.000000
_cell_volume 3631.106062
_symmetry_space_group_name_H-M "P 42/M C M"
_symmetry_group_IT_number 132
_symmetry_cell_setting 'tetragonal'
loop_
_space_group_symop_operation_xyz
x,y,z
-y,x,1/2+z
-x,-y,z
y,-x,1/2+z
x,-y,1/2-z
-x,y,1/2-z
y,x,-z
-y,-x,-z
-x,-y,-z
y,-x,1/2-z
x,y,-z
-y,x,1/2-z
-x,y,1/2+z
x,-y,1/2+z
-y,-x,z
y,x,z
loop_
_atom_site_type_symbol
_atom_site_label
_atom_site_fract_x
_atom_site_fract_y
_atom_site_fract_z
Si Si1 0.179159 0.071385 0.685515
Si Si2 0.571363 0.322938 0.186298
Si Si3 0.322455 0.072059 0.184612
Si Si4 0.428147 0.172084 0.685774
O O1 0.184701 0.067794 0.500000
O O2 0.125048 0.125048 0.725638
O O3 0.249890 0.088487 0.754689
O O4 0.161354 0.000000 0.750000
O O5 0.500000 0.340318 0.250000
O O6 0.626898 0.373103 0.239447
O O7 0.585377 0.247707 0.229954
O O8 0.568954 0.325157 0.000000
O O9 0.374442 0.124049 0.245436
O O10 0.338012 0.000000 0.250000
O O11 0.322343 0.069845 0.000000
O O12 0.500000 0.155883 0.750000
O O13 0.428272 0.167519 0.500000
#
# Coordination Sequence:
#
# PCOD9567319 Si02
#       4
#    16  16  16  16
#     4  10  21  37  57  81 110 144 181 222 268 317
#     4   9  19  35  54  77 106 140 176 216 262 311
#     4  11  22  37  57  81 109 141 178 220 267 319
#     4  10  20  36  56  79 108 141 179 222 268 319
#
# _framework density 17.625482999999999
#
# number of rings (size 3 to 8) (size 9 to 14) (size 15 to 20)
#    0.000    2.000    0.000    5.250    0.000    5.500 
#    0.000    7.500    0.000    0.000    0.000    0.000 
#    0.000    0.000    0.000    0.000    0.000    0.000 
#
# Total GULP energy -357399.368711 kJ/mol
# GULP energy per Si atom -5584.365136 kJ/mol
# Density = 1.758537 g / cm^3
# Si number density = 17.625483 Si / 1000 Ang^3
#
#
#
# Elastic Constant Matrix: (Units=GPa)
#
#
# Indices 1 2 3 4 5 6 
#
# 1 152.0460 144.2164 64.4648 0.0000 0.0000 0.0000
# 2 144.2164 152.0460 64.4648 0.0000 0.0000 0.0000
# 3 64.4648 64.4648 85.8509 0.0000 0.0000 0.0000
# 4 0.0000 0.0000 0.0000 21.8702 0.0000 0.0000
# 5 0.0000 0.0000 0.0000 0.0000 21.8702 0.0000
# 6 0.0000 0.0000 0.0000 0.0000 0.0000 44.5763
#
#
#
# Elastic Compliance Matrix: (Units=1/GPa)
#
#
# Indices 1 2 3 4 5 6 
#
# 1 0.066368 -0.061354 -0.003765 0.000000 0.000000 0.000000
# 2 -0.061354 0.066368 -0.003765 0.000000 0.000000 0.000000
# 3 -0.003765 -0.003765 0.017302 0.000000 0.000000 0.000000
# 4 0.000000 0.000000 0.000000 0.045724 0.000000 0.000000
# 5 0.000000 0.000000 0.000000 0.000000 0.045724 0.000000
# 6 0.000000 0.000000 0.000000 0.000000 0.000000 0.022433
#
#
# Mechanical properties :
#
#
# Convention : Reuss Voigt Hill
#
# Bulk Modulus (GPa) = 81.49724 104.02609 92.76166
# Shear Modulus (GPa) = 12.32206 25.44980 18.88593
#
# Velocity S-wave (km/s) = 2.64693 3.80402 3.27695
# Velocity P-wave (km/s) = 7.46192 8.85678 8.18910
#
# Compressibility (1/GPa) = 0.01227035
#
# Stress axis : x y z
#
# Youngs Moduli (GPa) = 15.06759 15.06759 57.79672
#
# Poissons Ratio (x) = 0.92445 0.21759
# Poissons Ratio (y) = 0.92445 0.21759
# Poissons Ratio (z) = 0.05673 0.05673
#
# Static dielectric constant tensor:
#      x y z
#    x 1.578160 0.000000 0.000000 
#    y 0.000000 1.578160 0.000000 
#    z 0.000000 0.000000 1.593290 
# 
# From -- ./inp_files/1256.got.cif
#   From: 2010.05.17/outbox.cif.g08.bks.cpg/sg132_1_cif.got.tgz:1256.got - 2010.05.20 12:30:18.
