data_PCOD9567547
_publ_section_title
;
Structure prediction by ZEFSAII (Michael W. Deem and Ramdas Pophale) SiO2 
 PCOD9567547
Probable space group: P 42/M C M
;
_chemical_formula_sum "Si O2"
_cell_formula_units_Z 96
_cell_length_a 24.000000
_cell_length_b 24.000000
_cell_length_c 9.000000
_cell_angle_alpha 90.000000
_cell_angle_beta 90.000000
_cell_angle_gamma 90.000000
_cell_volume 5184.000000
_symmetry_space_group_name_H-M "P 42/M C M"
_symmetry_group_IT_number 132
_symmetry_cell_setting 'tetragonal'
loop_
_space_group_symop_operation_xyz
x,y,z
-y,x,1/2+z
-x,-y,z
y,-x,1/2+z
x,-y,1/2-z
-x,y,1/2-z
y,x,-z
-y,-x,-z
-x,-y,-z
y,-x,1/2-z
x,y,-z
-y,x,1/2-z
-x,y,1/2+z
x,-y,1/2+z
-y,-x,z
y,x,z
loop_
_atom_site_type_symbol
_atom_site_label
_atom_site_fract_x
_atom_site_fract_y
_atom_site_fract_z
Si Si1 0.383279 0.062553 0.681346
Si Si2 0.845956 0.060702 0.822992
Si Si3 0.062081 0.733546 0.319838
Si Si4 0.439754 0.832270 0.317932
Si Si5 0.442383 0.642415 0.676004
Si Si6 0.737883 0.350381 0.676895
O O1 0.383307 0.060302 0.500000
O O2 0.323330 0.083603 0.745890
O O3 0.426980 0.106921 0.747414
O O4 0.391497 0.000000 0.750000
O O5 0.898446 0.101555 0.806171
O O6 0.791742 0.086556 0.740176
O O7 0.856952 0.000000 0.750000
O O8 0.834430 0.053887 0.000000
O O9 0.061889 0.730436 0.500000
O O10 0.000000 0.736406 0.250000
O O11 0.500000 0.813380 0.250000
O O12 0.442925 0.833542 0.500000
O O13 0.386124 0.792785 0.274970
O O14 0.500000 0.656282 0.750000
O O15 0.450488 0.637574 0.500000
O O16 0.414883 0.585118 0.732515
O O17 0.396667 0.690062 0.698632
O O18 0.745920 0.341377 0.500000
O O19 0.708061 0.291940 0.732991
#
# Coordination Sequence:
#
# PCOD9567547 Si02
#       6
#    16  16  16  16  16  16
#     4  11  22  39  61  85 115 149 187 231 283 342
#     4  10  20  33  50  74 106 145 190 242 300 361
#     4  10  18  32  55  79 103 135 177 223 274 334
#     4  11  22  37  59  88 120 154 193 235 285 341
#     4   9  17  29  45  66  93 127 167 210 257 306
#     4   8  16  33  56  79 105 140 182 227 271 319
#
# _framework density 18.518519000000001
#
# number of rings (size 3 to 8) (size 9 to 14) (size 15 to 20)
#    0.000    2.167    0.000    7.500    0.000    2.333 
#    0.000    5.000    0.000    7.000    0.000    0.000 
#    0.000    0.000    0.000    0.000    0.000    0.000 
#
# Total GULP energy -534473.192928 kJ/mol
# GULP energy per Si atom -5567.429093 kJ/mol
# Density = 1.847637 g / cm^3
# Si number density = 18.518519 Si / 1000 Ang^3
#
#
#
# Elastic Constant Matrix: (Units=GPa)
#
#
# Indices 1 2 3 4 5 6 
#
# 1 83.3681 25.8066 28.7789 0.0000 0.0000 0.0000
# 2 25.8066 83.3681 28.7789 0.0000 0.0000 0.0000
# 3 28.7789 28.7789 119.8626 0.0000 0.0000 0.0000
# 4 0.0000 0.0000 0.0000 27.8657 0.0000 0.0000
# 5 0.0000 0.0000 0.0000 0.0000 27.8657 0.0000
# 6 0.0000 0.0000 0.0000 0.0000 0.0000 68.1977
#
#
#
# Elastic Compliance Matrix: (Units=1/GPa)
#
#
# Indices 1 2 3 4 5 6 
#
# 1 0.013930 -0.003443 -0.002518 0.000000 0.000000 0.000000
# 2 -0.003443 0.013930 -0.002518 0.000000 0.000000 0.000000
# 3 -0.002518 -0.002518 0.009552 0.000000 0.000000 0.000000
# 4 0.000000 0.000000 0.000000 0.035886 0.000000 0.000000
# 5 0.000000 0.000000 0.000000 0.000000 0.035886 0.000000
# 6 0.000000 0.000000 0.000000 0.000000 0.000000 0.014663
#
#
# Mechanical properties :
#
#
# Convention : Reuss Voigt Hill
#
# Bulk Modulus (GPa) = 48.88913 50.36972 49.62943
# Shear Modulus (GPa) = 33.86993 38.33476 36.10235
#
# Velocity S-wave (km/s) = 4.28129 4.55475 4.42013
# Velocity P-wave (km/s) = 7.13419 7.41078 7.27380
#
# Compressibility (1/GPa) = 0.02045444
#
# Stress axis : x y z
#
# Youngs Moduli (GPa) = 71.78787 71.78787 104.69015
#
# Poissons Ratio (x) = 0.24715 0.26360
# Poissons Ratio (y) = 0.24715 0.26360
# Poissons Ratio (z) = 0.18076 0.18076
#
# Static dielectric constant tensor:
#      x y z
#    x 1.703760 0.000000 0.000000 
#    y 0.000000 1.703760 0.000000 
#    z 0.000000 0.000000 1.622430 
# 
# From -- ./inp_files/1777.got.cif
#   From: 2010.05.17/outbox.ucp.g08.bks.cvg/sg132_1_cif.got.tgz:1777.got - 2010.06.11 11:39:14.
