data_PCOD9567164
_publ_section_title
;
Structure prediction by ZEFSAII (Michael W. Deem and Ramdas Pophale) SiO2 
 PCOD9567164
Probable space group: P 42/M C M
;
_chemical_formula_sum "Si O2"
_cell_formula_units_Z 104
_cell_length_a 18.480860
_cell_length_b 18.480860
_cell_length_c 17.005967
_cell_angle_alpha 90.000000
_cell_angle_beta 90.000000
_cell_angle_gamma 90.000000
_cell_volume 5808.255150
_symmetry_space_group_name_H-M "P 42/M C M"
_symmetry_group_IT_number 132
_symmetry_cell_setting 'tetragonal'
loop_
_space_group_symop_operation_xyz
x,y,z
-y,x,1/2+z
-x,-y,z
y,-x,1/2+z
x,-y,1/2-z
-x,y,1/2-z
y,x,-z
-y,-x,-z
-x,-y,-z
y,-x,1/2-z
x,y,-z
-y,x,1/2-z
-x,y,1/2+z
x,-y,1/2+z
-y,-x,z
y,x,z
loop_
_atom_site_type_symbol
_atom_site_label
_atom_site_fract_x
_atom_site_fract_y
_atom_site_fract_z
Si Si1 0.309514 0.807307 0.000000
Si Si2 0.317121 0.114746 0.331585
Si Si3 0.249583 0.628951 0.254292
Si Si4 0.435013 0.315879 0.500000
Si Si5 0.545511 0.072985 0.908636
Si Si6 0.043576 0.165232 0.328721
Si Si7 0.003182 0.120854 0.000000
Si Si8 0.766217 0.495367 0.367489
O O1 0.310889 0.849398 0.081705
O O2 0.374017 0.748219 0.000000
O O3 0.235009 0.764991 0.000000
O O4 0.324995 0.178884 0.268612
O O5 0.391661 0.071815 0.343239
O O6 0.247486 0.067541 0.316293
O O7 0.319888 0.680113 0.246818
O O8 0.243119 0.585412 0.335265
O O9 0.245471 0.561230 0.194124
O O10 0.390310 0.390310 0.500000
O O11 0.485869 0.297332 0.572467
O O12 0.505675 0.150857 0.897539
O O13 0.500000 0.000000 0.899506
O O14 0.571641 0.072808 0.000000
O O15 0.113545 0.113545 0.333848
O O16 0.000000 0.142282 0.250000
O O17 0.005771 0.160094 0.415218
O O18 0.078733 0.078733 0.000000
O O19 0.939983 0.060018 0.000000
#
# Coordination Sequence:
#
# PCOD9567164 Si02
#       8
#     8  16  16   8  16  16   8  16
#     4  11  17  28  55  84 110 135 178 241 291 325
#     4  11  20  35  54  84 112 144 191 237 290 340
#     4  10  20  34  54  77 110 147 180 230 283 337
#     4  11  18  31  59  86 108 140 190 245 283 326
#     4  10  19  34  55  81 114 146 177 222 281 345
#     4  11  23  37  58  85 117 152 195 250 301 356
#     4   9  19  37  59  81 107 145 191 239 299 361
#     4  10  19  34  54  82 110 142 188 224 277 346
#
# _framework density 17.905549000000001
#
# number of rings (size 3 to 8) (size 9 to 14) (size 15 to 20)
#    0.000    1.615    4.615    2.769    0.000    2.615 
#    0.000    5.769    0.000    8.308    0.000    2.154 
#    0.000    0.000    0.000    0.000    0.000    0.000 
#
# Total GULP energy -579100.876882 kJ/mol
# GULP energy per Si atom -5568.277662 kJ/mol
# Density = 1.786479 g / cm^3
# Si number density = 17.905549 Si / 1000 Ang^3
#
#
#
# Elastic Constant Matrix: (Units=GPa)
#
#
# Indices 1 2 3 4 5 6 
#
# 1 79.7606 51.9135 32.6211 0.0000 0.0000 0.0000
# 2 51.9135 79.7610 32.6214 0.0000 0.0000 0.0000
# 3 32.6211 32.6214 74.9838 0.0000 0.0000 0.0000
# 4 0.0000 0.0000 0.0000 27.6866 0.0000 0.0000
# 5 0.0000 0.0000 0.0000 0.0000 27.6868 0.0000
# 6 0.0000 0.0000 0.0000 0.0000 0.0000 31.6831
#
#
#
# Elastic Compliance Matrix: (Units=1/GPa)
#
#
# Indices 1 2 3 4 5 6 
#
# 1 0.022796 -0.013114 -0.004212 0.000000 0.000000 0.000000
# 2 -0.013114 0.022796 -0.004212 0.000000 0.000000 0.000000
# 3 -0.004212 -0.004212 0.017001 0.000000 0.000000 0.000000
# 4 0.000000 0.000000 0.000000 0.036119 0.000000 0.000000
# 5 0.000000 0.000000 0.000000 0.000000 0.036118 0.000000
# 6 0.000000 0.000000 0.000000 0.000000 0.000000 0.031563
#
#
# Mechanical properties :
#
#
# Convention : Reuss Voigt Hill
#
# Bulk Modulus (GPa) = 51.23914 52.09083 51.66499
# Shear Modulus (GPa) = 23.15102 25.23461 24.19281
#
# Velocity S-wave (km/s) = 3.59967 3.75816 3.67977
# Velocity P-wave (km/s) = 6.77903 6.92725 6.85354
#
# Compressibility (1/GPa) = 0.01951633
#
# Stress axis : x y z
#
# Youngs Moduli (GPa) = 43.86782 43.86787 58.82051
#
# Poissons Ratio (x) = 0.57530 0.24774
# Poissons Ratio (y) = 0.57530 0.24775
# Poissons Ratio (z) = 0.18476 0.18477
#
# Static dielectric constant tensor:
#      x y z
#    x 1.618140 0.000000 0.000000 
#    y 0.000000 1.618140 0.000000 
#    z 0.000000 0.000000 1.673890 
# 
# From -- ./inp_files/6625.got.cif
#   From: 2010.05.17/outbox.cif.g08.bks.cpg/sg132_4_cif.got.tgz:6625.got - 2010.05.20 12:30:18.
