data_PCOD9567832
_publ_section_title
;
Structure prediction by ZEFSAII (Michael W. Deem and Ramdas Pophale) SiO2 
 PCOD9567832
Probable space group: P 42/N B C
;
_chemical_formula_sum "Si O2"
_cell_formula_units_Z 88
_cell_length_a 17.316147
_cell_length_b 17.316147
_cell_length_c 13.914198
_cell_angle_alpha 90.000000
_cell_angle_beta 90.000000
_cell_angle_gamma 90.000000
_cell_volume 4172.157618
_symmetry_space_group_name_H-M "P 42/N B C"
_symmetry_group_IT_number 133
_space_group.IT_coordinate_system_code '2'
_symmetry_cell_setting 'tetragonal'
loop_
_space_group_symop_operation_xyz
x,y,z
1/2-y,x,1/2+z
1/2-x,1/2-y,z
y,1/2-x,1/2+z
x,1/2-y,-z
1/2-x,y,-z
y,x,1/2-z
1/2-y,1/2-x,1/2-z
-x,-y,-z
1/2+y,-x,1/2-z
1/2+x,1/2+y,-z
-y,1/2+x,1/2-z
-x,1/2+y,z
1/2+x,-y,z
-y,-x,1/2+z
1/2+y,1/2+x,1/2+z
loop_
_atom_site_type_symbol
_atom_site_label
_atom_site_fract_x
_atom_site_fract_y
_atom_site_fract_z
Si Si1 0.282652 0.968390 0.697767
Si Si2 0.069446 0.750000 0.500000
Si Si3 0.028407 0.133012 0.370386
Si Si4 0.037818 0.454312 0.141354
Si Si5 0.670737 0.569191 0.524377
Si Si6 0.409001 0.651755 0.328755
O O1 0.335484 0.893051 0.709173
O O2 0.199371 0.948798 0.741940
O O3 0.322777 0.028827 0.769732
O O4 0.295946 0.998843 0.590200
O O5 0.114684 0.791635 0.414884
O O6 0.016762 0.811844 0.556058
O O7 0.112517 0.116837 0.410235
O O8 0.984706 0.050494 0.359819
O O9 0.063911 0.436090 0.250000
O O10 0.091572 0.529748 0.123704
O O11 0.047484 0.384277 0.066377
O O12 0.750000 0.612616 0.500000
#
# Coordination Sequence:
#
# PCOD9567832 Si02
#       6
#    16   8  16  16  16  16
#     4  11  24  42  69 100 135 177 228 288 345 418
#     4  10  22  38  67 101 130 174 230 276 342 420
#     4  11  21  41  69  95 128 177 229 279 340 406
#     4  12  21  40  69  97 128 181 233 281 333 411
#     4  12  24  38  63 106 135 166 229 290 346 406
#     4  11  22  42  68  98 134 182 227 283 344 414
#
# _framework density 21.092203999999999
#
# number of rings (size 3 to 8) (size 9 to 14) (size 15 to 20)
#    0.000    0.727    5.455    3.273    0.000    0.364 
#    0.000    0.455    0.000    0.000    4.727    0.000 
#    0.000    0.000    0.000    0.000    0.000    0.000 
#
# Total GULP energy -491271.317266 kJ/mol
# GULP energy per Si atom -5582.628605 kJ/mol
# Density = 2.104420 g / cm^3
# Si number density = 21.092204 Si / 1000 Ang^3
#
#
#
# Elastic Constant Matrix: (Units=GPa)
#
#
# Indices 1 2 3 4 5 6 
#
# 1 93.6383 15.7025 30.1257 0.0000 0.0000 0.0000
# 2 15.7025 93.6385 30.1259 0.0000 0.0000 0.0000
# 3 30.1257 30.1259 132.0520 0.0000 0.0000 0.0000
# 4 0.0000 0.0000 0.0000 26.0343 0.0000 0.0000
# 5 0.0000 0.0000 0.0000 0.0000 26.0340 0.0000
# 6 0.0000 0.0000 0.0000 0.0000 0.0000 10.9544
#
#
#
# Elastic Compliance Matrix: (Units=1/GPa)
#
#
# Indices 1 2 3 4 5 6 
#
# 1 0.011646 -0.001185 -0.002386 0.000000 0.000000 0.000000
# 2 -0.001185 0.011646 -0.002386 0.000000 0.000000 0.000000
# 3 -0.002386 -0.002386 0.008662 0.000000 0.000000 0.000000
# 4 0.000000 0.000000 0.000000 0.038411 0.000000 0.000000
# 5 0.000000 0.000000 0.000000 0.000000 0.038411 0.000000
# 6 0.000000 0.000000 0.000000 0.000000 0.000000 0.091287
#
#
# Mechanical properties :
#
#
# Convention : Reuss Voigt Hill
#
# Bulk Modulus (GPa) = 49.90696 52.35965 51.13330
# Shear Modulus (GPa) = 22.86673 28.82952 25.84813
#
# Velocity S-wave (km/s) = 3.29619 3.70108 3.50449
# Velocity P-wave (km/s) = 6.18055 6.56826 6.37735
#
# Compressibility (1/GPa) = 0.02003729
#
# Stress axis : x y z
#
# Youngs Moduli (GPa) = 85.86700 85.86711 115.45138
#
# Poissons Ratio (x) = 0.10177 0.27552
# Poissons Ratio (y) = 0.10177 0.27552
# Poissons Ratio (z) = 0.20492 0.20492
#
# Static dielectric constant tensor:
#      x y z
#    x 1.763980 0.000000 0.000000 
#    y 0.000000 1.763980 0.000000 
#    z 0.000000 0.000000 2.023270 
# 
# From -- ./inp_files/4474.got.cif
#   From: 2010.05.17/outbox.cif.g08.bks.cpg/sg133_3_cif.got.tgz:4474.got - 2010.05.20 12:37:36.
