data_PCOD9567655
_publ_section_title
;
Structure prediction by ZEFSAII (Michael W. Deem and Ramdas Pophale) SiO2 
 PCOD9567655
Probable space group: P 42/N B C
;
_chemical_formula_sum "Si O2"
_cell_formula_units_Z 96
_cell_length_a 23.576087
_cell_length_b 23.576087
_cell_length_c 9.437002
_cell_angle_alpha 90.000000
_cell_angle_beta 90.000000
_cell_angle_gamma 90.000000
_cell_volume 5245.386547
_symmetry_space_group_name_H-M "P 42/N B C"
_symmetry_group_IT_number 133
_space_group.IT_coordinate_system_code '2'
_symmetry_cell_setting 'tetragonal'
loop_
_space_group_symop_operation_xyz
x,y,z
1/2-y,x,1/2+z
1/2-x,1/2-y,z
y,1/2-x,1/2+z
x,1/2-y,-z
1/2-x,y,-z
y,x,1/2-z
1/2-y,1/2-x,1/2-z
-x,-y,-z
1/2+y,-x,1/2-z
1/2+x,1/2+y,-z
-y,1/2+x,1/2-z
-x,1/2+y,z
1/2+x,-y,z
-y,-x,1/2+z
1/2+y,1/2+x,1/2+z
loop_
_atom_site_type_symbol
_atom_site_label
_atom_site_fract_x
_atom_site_fract_y
_atom_site_fract_z
Si Si1 0.596893 0.520293 0.334302
Si Si2 0.098198 0.025778 0.342653
Si Si3 0.313852 0.576107 0.034438
Si Si4 0.682693 0.899163 0.825572
Si Si5 0.190113 0.058215 0.127482
Si Si6 0.396943 0.604161 0.271512
O O1 0.542469 0.542469 0.250000
O O2 0.591415 0.540263 0.494557
O O3 0.648881 0.551724 0.257399
O O4 0.604524 0.453457 0.324058
O O5 0.044944 0.044944 0.250000
O O6 0.149977 0.056249 0.263146
O O7 0.106764 0.958766 0.334943
O O8 0.311155 0.507768 0.070100
O O9 0.342671 0.607834 0.168262
O O10 0.250000 0.593518 0.000000
O O11 0.351774 0.591096 0.897246
O O12 0.658148 0.841853 0.750000
O O13 0.748939 0.916788 0.825870
O O14 0.669500 0.904199 0.993823
#
# Coordination Sequence:
#
# PCOD9567655 Si02
#       6
#    16  16  16  16  16  16
#     4  11  21  33  54  85 126 161 201 249 319 387
#     4  11  23  34  53  89 126 164 203 258 326 395
#     4  11  21  41  63  89 128 164 207 258 319 385
#     4  10  19  35  62  89 120 170 217 263 323 378
#     4  10  20  38  58  87 129 168 209 267 326 378
#     4  11  22  36  60  89 117 164 207 254 313 394
#
# _framework density 18.301797000000001
#
# number of rings (size 3 to 8) (size 9 to 14) (size 15 to 20)
#    0.000    1.333    5.000    2.500    2.333    2.000 
#    0.000    0.833    0.000    2.000    0.000    9.333 
#    0.000    0.000    0.000    0.000    0.000    0.000 
#
# Total GULP energy -535081.388750 kJ/mol
# GULP energy per Si atom -5573.764466 kJ/mol
# Density = 1.826014 g / cm^3
# Si number density = 18.301797 Si / 1000 Ang^3
#
#
#
# Elastic Constant Matrix: (Units=GPa)
#
#
# Indices 1 2 3 4 5 6 
#
# 1 109.3032 43.1755 48.6278 0.0000 0.0000 0.0000
# 2 43.1755 109.3048 48.6284 0.0000 0.0000 0.0000
# 3 48.6278 48.6284 93.4187 0.0000 0.0000 0.0000
# 4 0.0000 0.0000 0.0000 -334.3116 0.0000 0.0000
# 5 0.0000 0.0000 0.0000 0.0000 -333.7147 0.0000
# 6 0.0000 0.0000 0.0000 0.0000 0.0000 19.9011
#
#
#
# Elastic Compliance Matrix: (Units=1/GPa)
#
#
# Indices 1 2 3 4 5 6 
#
# 1 0.012470 -0.002652 -0.005111 0.000000 0.000000 0.000000
# 2 -0.002652 0.012470 -0.005111 0.000000 0.000000 0.000000
# 3 -0.005111 -0.005111 0.016025 0.000000 0.000000 0.000000
# 4 0.000000 0.000000 0.000000 -0.002991 0.000000 0.000000
# 5 0.000000 0.000000 0.000000 0.000000 -0.002997 0.000000
# 6 0.000000 0.000000 0.000000 0.000000 0.000000 0.050248
#
#
# Mechanical properties :
#
#
# Convention : Reuss Voigt Hill
#
# Bulk Modulus (GPa) = 65.70964 65.87667 65.79316
# Shear Modulus (GPa) = 43.08663 -118.18536 -37.54936
#
# Velocity S-wave (km/s) = 4.85730 -8.04463 -4.53446
# Velocity P-wave (km/s) = 8.21214 7.08627 2.93462
#
# Compressibility (1/GPa) = 0.01521847
#
# Stress axis : x y z
#
# Youngs Moduli (GPa) = 80.19177 80.19271 62.40219
#
# Poissons Ratio (x) = 0.21267 0.31891
# Poissons Ratio (y) = 0.21267 0.31892
# Poissons Ratio (z) = 0.40983 0.40984
#
# Static dielectric constant tensor:
#      x y z
#    x 1.660650 0.000000 0.000000 
#    y 0.000000 1.660650 0.000000 
#    z 0.000000 0.000000 1.639330 
# 
# From -- ./inp_files/1914.got.cif
#   From: 2010.05.17/outbox.cif.g08.bks.cpg/sg133_1_cif.got.tgz:1914.got - 2010.05.20 12:37:36.
