data_PCOD9567434
_publ_section_title
;
Structure prediction by ZEFSAII (Michael W. Deem and Ramdas Pophale) SiO2 
 PCOD9567434
Probable space group: P 42/M C M
;
_chemical_formula_sum "Si O2"
_cell_formula_units_Z 92
_cell_length_a 18.749366
_cell_length_b 18.749366
_cell_length_c 15.595874
_cell_angle_alpha 90.000000
_cell_angle_beta 90.000000
_cell_angle_gamma 90.000000
_cell_volume 5482.553667
_symmetry_space_group_name_H-M "P 42/M C M"
_symmetry_group_IT_number 132
_symmetry_cell_setting 'tetragonal'
loop_
_space_group_symop_operation_xyz
x,y,z
-y,x,1/2+z
-x,-y,z
y,-x,1/2+z
x,-y,1/2-z
-x,y,1/2-z
y,x,-z
-y,-x,-z
-x,-y,-z
y,-x,1/2-z
x,y,-z
-y,x,1/2-z
-x,y,1/2+z
x,-y,1/2+z
-y,-x,z
y,x,z
loop_
_atom_site_type_symbol
_atom_site_label
_atom_site_fract_x
_atom_site_fract_y
_atom_site_fract_z
Si Si1 0.997375 0.381897 0.852601
Si Si2 0.196924 0.315116 0.258991
Si Si3 0.886015 0.000000 0.750000
Si Si4 0.429306 0.844000 0.098536
Si Si5 0.158943 0.406713 0.902109
Si Si6 0.176189 0.823812 0.000000
Si Si7 0.077004 0.764601 0.848534
O O1 0.073332 0.400708 0.891358
O O2 0.000000 0.393795 0.750000
O O3 0.929635 0.424471 0.888804
O O4 0.977312 0.299241 0.868588
O O5 0.266029 0.266029 0.267655
O O6 0.189344 0.373696 0.334546
O O7 0.192544 0.355422 0.168826
O O8 0.127057 0.265131 0.271746
O O9 0.834695 0.965106 0.679668
O O10 0.937920 0.937920 0.784180
O O11 0.510667 0.821672 0.114773
O O12 0.410341 0.827429 0.000000
O O13 0.178063 0.389124 0.000000
O O14 0.218056 0.869959 0.074640
#
# Coordination Sequence:
#
# PCOD9567434 Si02
#       7
#    16  16   8  16  16   4  16
#     4  11  20  33  57  80 109 144 180 223 276 333
#     4  11  22  36  57  77 107 145 182 220 265 316
#     4  11  20  36  54  66  91 134 166 228 293 344
#     4  10  22  35  55  83 114 143 180 222 268 324
#     4  11  22  37  53  80 114 149 180 220 266 325
#     4  12  24  36  61  76 100 134 184 244 279 338
#     4  11  22  38  52  79 101 133 179 233 284 327
#
# _framework density 16.780501000000001
#
# number of rings (size 3 to 8) (size 9 to 14) (size 15 to 20)
#    0.000    1.130    6.087    1.565    6.087    2.783 
#    0.000    0.870    0.000    0.000    0.000    0.000 
#    0.000    5.565    0.000   15.304    0.000    0.000 
#
# Total GULP energy -512739.132777 kJ/mol
# GULP energy per Si atom -5573.251443 kJ/mol
# Density = 1.674231 g / cm^3
# Si number density = 16.780501 Si / 1000 Ang^3
#
#
#
# Elastic Constant Matrix: (Units=GPa)
#
#
# Indices 1 2 3 4 5 6 
#
# 1 72.0058 41.7268 37.1569 0.0000 0.0000 0.0000
# 2 41.7268 72.0060 37.1571 0.0000 0.0000 0.0000
# 3 37.1569 37.1571 90.2681 0.0000 0.0000 0.0000
# 4 0.0000 0.0000 0.0000 15.8688 0.0000 0.0000
# 5 0.0000 0.0000 0.0000 0.0000 15.8689 0.0000
# 6 0.0000 0.0000 0.0000 0.0000 0.0000 18.8720
#
#
#
# Elastic Compliance Matrix: (Units=1/GPa)
#
#
# Indices 1 2 3 4 5 6 
#
# 1 0.022527 -0.010499 -0.004951 0.000000 0.000000 0.000000
# 2 -0.010499 0.022527 -0.004951 0.000000 0.000000 0.000000
# 3 -0.004951 -0.004951 0.015154 0.000000 0.000000 0.000000
# 4 0.000000 0.000000 0.000000 0.063017 0.000000 0.000000
# 5 0.000000 0.000000 0.000000 0.000000 0.063016 0.000000
# 6 0.000000 0.000000 0.000000 0.000000 0.000000 0.052989
#
#
# Mechanical properties :
#
#
# Convention : Reuss Voigt Hill
#
# Bulk Modulus (GPa) = 51.53187 51.81793 51.67490
# Shear Modulus (GPa) = 17.45203 18.00455 17.72829
#
# Velocity S-wave (km/s) = 3.22843 3.27914 3.25388
# Velocity P-wave (km/s) = 6.68379 6.72933 6.70660
#
# Compressibility (1/GPa) = 0.01940547
#
# Stress axis : x y z
#
# Youngs Moduli (GPa) = 44.39164 44.39167 65.98940
#
# Poissons Ratio (x) = 0.46608 0.32670
# Poissons Ratio (y) = 0.46608 0.32671
# Poissons Ratio (z) = 0.21978 0.21978
#
# Static dielectric constant tensor:
#      x y z
#    x 1.568160 0.000000 0.000000 
#    y 0.000000 1.568160 0.000000 
#    z 0.000000 0.000000 1.582340 
# 
# From -- ./inp_files/5051.got.cif
#   From: 2010.05.17/outbox.cif.g08.bks.cpg/sg132_3_cif.got.tgz:5051.got - 2010.05.20 12:30:18.
