data_PCOD9567076
_publ_section_title
;
Structure prediction by ZEFSAII (Michael W. Deem and Ramdas Pophale) SiO2 
 PCOD9567076
Probable space group: P 42/M C M
;
_chemical_formula_sum "Si O2"
_cell_formula_units_Z 72
_cell_length_a 11.470933
_cell_length_b 11.470933
_cell_length_c 30.442177
_cell_angle_alpha 90.000000
_cell_angle_beta 90.000000
_cell_angle_gamma 90.000000
_cell_volume 4005.651785
_symmetry_space_group_name_H-M "P 42/M C M"
_symmetry_group_IT_number 132
_symmetry_cell_setting 'tetragonal'
loop_
_space_group_symop_operation_xyz
x,y,z
-y,x,1/2+z
-x,-y,z
y,-x,1/2+z
x,-y,1/2-z
-x,y,1/2-z
y,x,-z
-y,-x,-z
-x,-y,-z
y,-x,1/2-z
x,y,-z
-y,x,1/2-z
-x,y,1/2+z
x,-y,1/2+z
-y,-x,z
y,x,z
loop_
_atom_site_type_symbol
_atom_site_label
_atom_site_fract_x
_atom_site_fract_y
_atom_site_fract_z
Si Si1 0.000000 0.188425 0.250000
Si Si2 0.307356 0.492251 0.449284
Si Si3 0.625683 0.184961 0.375996
Si Si4 0.266036 0.544550 0.800316
Si Si5 0.023877 0.630533 0.819721
O O1 0.966750 0.272166 0.289559
O O2 0.894284 0.105717 0.236987
O O3 0.270168 0.481047 0.500000
O O4 0.408117 0.591884 0.448081
O O5 0.373016 0.373016 0.435669
O O6 0.210258 0.539111 0.416391
O O7 0.746784 0.253217 0.383146
O O8 0.561623 0.244868 0.333965
O O9 0.637620 0.048225 0.364869
O O10 0.254616 0.500000 0.750000
O O11 0.388362 0.611639 0.805084
O O12 0.162701 0.634611 0.814400
O O13 0.000000 0.500000 0.802618
#
# Coordination Sequence:
#
# PCOD9567076 Si02
#       5
#     8  16  16  16  16
#     4  11  21  32  48  66  85 115 160 208 242 269
#     4   8  14  26  46  73 102 127 152 189 240 291
#     4  10  19  31  49  72  98 125 155 194 237 284
#     4  11  22  34  49  68  94 129 165 201 241 284
#     4  10  20  33  46  62  90 125 156 188 231 283
#
# _framework density 17.974602000000001
#
# number of rings (size 3 to 8) (size 9 to 14) (size 15 to 20)
#    0.000    2.111    0.000    6.333    0.000    3.333 
#    0.000    0.000    0.000    6.000    0.000    0.000 
#    0.000    2.667    0.000   25.111    0.000    0.000 
#
# Total GULP energy -401033.370089 kJ/mol
# GULP energy per Si atom -5569.907918 kJ/mol
# Density = 1.793369 g / cm^3
# Si number density = 17.974602 Si / 1000 Ang^3
#
#
#
# Elastic Constant Matrix: (Units=GPa)
#
#
# Indices 1 2 3 4 5 6 
#
# 1 58.2419 17.6666 15.1700 0.0000 0.0000 0.0000
# 2 17.6666 58.2419 15.1700 0.0000 0.0000 0.0000
# 3 15.1700 15.1700 66.3187 0.0000 0.0000 0.0000
# 4 0.0000 0.0000 0.0000 19.6418 0.0000 0.0000
# 5 0.0000 0.0000 0.0000 0.0000 19.6418 0.0000
# 6 0.0000 0.0000 0.0000 0.0000 0.0000 19.4815
#
#
#
# Elastic Compliance Matrix: (Units=1/GPa)
#
#
# Indices 1 2 3 4 5 6 
#
# 1 0.019572 -0.005073 -0.003317 0.000000 0.000000 0.000000
# 2 -0.005073 0.019572 -0.003317 0.000000 0.000000 0.000000
# 3 -0.003317 -0.003317 0.016596 0.000000 0.000000 0.000000
# 4 0.000000 0.000000 0.000000 0.050912 0.000000 0.000000
# 5 0.000000 0.000000 0.000000 0.000000 0.050912 0.000000
# 6 0.000000 0.000000 0.000000 0.000000 0.000000 0.051331
#
#
# Mechanical properties :
#
#
# Convention : Reuss Voigt Hill
#
# Bulk Modulus (GPa) = 30.93272 30.97952 30.95612
# Shear Modulus (GPa) = 20.56900 20.73940 20.65420
#
# Velocity S-wave (km/s) = 3.38647 3.40047 3.39348
# Velocity P-wave (km/s) = 5.70416 5.71754 5.71085
#
# Compressibility (1/GPa) = 0.03232822
#
# Stress axis : x y z
#
# Youngs Moduli (GPa) = 51.09221 51.09221 60.25536
#
# Poissons Ratio (x) = 0.25919 0.19985
# Poissons Ratio (y) = 0.25919 0.19985
# Poissons Ratio (z) = 0.16946 0.16946
#
# Static dielectric constant tensor:
#      x y z
#    x 1.658460 0.000000 0.000000 
#    y 0.000000 1.658460 0.000000 
#    z 0.000000 0.000000 1.621560 
# 
# From -- ./inp_files/9787.got.cif
#   From: 2010.05.17/outbox.cif.g08.bks.cpg/sg132_5_cif.got.tgz:9787.got - 2010.05.20 12:30:18.
