data_PCOD9567869
_publ_section_title
;
Structure prediction by ZEFSAII (Michael W. Deem and Ramdas Pophale) SiO2 
 PCOD9567869
Probable space group: P 42/N B C
;
_chemical_formula_sum "Si O2"
_cell_formula_units_Z 108
_cell_length_a 15.103059
_cell_length_b 15.103059
_cell_length_c 23.159568
_cell_angle_alpha 90.000000
_cell_angle_beta 90.000000
_cell_angle_gamma 90.000000
_cell_volume 5282.752839
_symmetry_space_group_name_H-M "P 42/N B C"
_symmetry_group_IT_number 133
_space_group.IT_coordinate_system_code '2'
_symmetry_cell_setting 'tetragonal'
loop_
_space_group_symop_operation_xyz
x,y,z
1/2-y,x,1/2+z
1/2-x,1/2-y,z
y,1/2-x,1/2+z
x,1/2-y,-z
1/2-x,y,-z
y,x,1/2-z
1/2-y,1/2-x,1/2-z
-x,-y,-z
1/2+y,-x,1/2-z
1/2+x,1/2+y,-z
-y,1/2+x,1/2-z
-x,1/2+y,z
1/2+x,-y,z
-y,-x,1/2+z
1/2+y,1/2+x,1/2+z
loop_
_atom_site_type_symbol
_atom_site_label
_atom_site_fract_x
_atom_site_fract_y
_atom_site_fract_z
Si Si1 0.507463 0.102589 0.488197
Si Si2 0.250000 0.250000 0.149110
Si Si3 0.557204 0.137580 0.618380
Si Si4 0.175356 0.633279 0.100688
Si Si5 0.250000 0.750000 0.000000
Si Si6 0.732859 0.468485 0.367175
Si Si7 0.878284 0.686816 0.948777
Si Si8 0.875167 0.895446 0.685913
O O1 0.548672 0.139367 0.547923
O O2 0.556803 0.116782 0.427566
O O3 0.409314 0.134610 0.475239
O O4 0.500000 0.000000 0.500000
O O5 0.181604 0.299519 0.107041
O O6 0.198454 0.175276 0.183825
O O7 0.592704 0.237584 0.630565
O O8 0.632775 0.069691 0.642000
O O9 0.460317 0.111810 0.643250
O O10 0.198114 0.687933 0.043083
O O11 0.117718 0.704582 0.134316
O O12 0.715856 0.523097 0.427117
O O13 0.796085 0.536076 0.330956
O O14 0.851917 0.750000 0.000000
O O15 0.911137 0.911137 0.750000
#
# Coordination Sequence:
#
# PCOD9567869 Si02
#       8
#    16   8  16  16   4  16  16  16
#     4  12  21  34  58  96 138 181 214 250 314 404
#     4  10  22  44  68  92 130 176 218 282 336 396
#     4  12  23  42  65  99 135 179 227 273 334 407
#     4  12  22  38  63  97 141 179 217 256 326 414
#     4  12  20  36  60  92 140 182 212 244 312 412
#     4  11  24  42  66  98 134 178 217 283 337 405
#     4  11  22  35  60  97 140 175 214 254 325 400
#     4  11  26  50  71  95 126 169 241 295 352 395
#
# _framework density 20.443885999999999
#
# number of rings (size 3 to 8) (size 9 to 14) (size 15 to 20)
#    0.000    0.593    4.444    4.889    1.037    1.185 
#    2.667    0.000    0.000    0.000    0.000    0.000 
#    0.000    0.000    0.000    0.000    0.000    0.000 
#
# Total GULP energy -601590.039912 kJ/mol
# GULP energy per Si atom -5570.278147 kJ/mol
# Density = 2.039735 g / cm^3
# Si number density = 20.443886 Si / 1000 Ang^3
#
#
#
# Elastic Constant Matrix: (Units=GPa)
#
#
# Indices 1 2 3 4 5 6 
#
# 1 105.9605 21.8499 10.8416 0.0000 0.0000 0.0000
# 2 21.8499 105.9605 10.8416 0.0000 0.0000 0.0000
# 3 10.8416 10.8416 50.7838 0.0000 0.0000 0.0000
# 4 0.0000 0.0000 0.0000 15.5875 0.0000 0.0000
# 5 0.0000 0.0000 0.0000 0.0000 15.5875 0.0000
# 6 0.0000 0.0000 0.0000 0.0000 0.0000 60.1702
#
#
#
# Elastic Compliance Matrix: (Units=1/GPa)
#
#
# Indices 1 2 3 4 5 6 
#
# 1 0.010004 -0.001885 -0.001733 0.000000 0.000000 0.000000
# 2 -0.001885 0.010004 -0.001733 0.000000 0.000000 0.000000
# 3 -0.001733 -0.001733 0.020431 0.000000 0.000000 0.000000
# 4 0.000000 0.000000 0.000000 0.064154 0.000000 0.000000
# 5 0.000000 0.000000 0.000000 0.000000 0.064154 0.000000
# 6 0.000000 0.000000 0.000000 0.000000 0.000000 0.016620
#
#
# Mechanical properties :
#
#
# Convention : Reuss Voigt Hill
#
# Bulk Modulus (GPa) = 33.63022 38.86342 36.24682
# Shear Modulus (GPa) = 24.27407 32.88049 28.57728
#
# Velocity S-wave (km/s) = 3.44953 4.01475 3.74283
# Velocity P-wave (km/s) = 5.68783 6.36726 6.03711
#
# Compressibility (1/GPa) = 0.02973516
#
# Stress axis : x y z
#
# Youngs Moduli (GPa) = 99.96391 99.96391 48.94447
#
# Poissons Ratio (x) = 0.18848 0.08483
# Poissons Ratio (y) = 0.18848 0.08483
# Poissons Ratio (z) = 0.17325 0.17325
#
# Static dielectric constant tensor:
#      x y z
#    x 1.680280 0.000000 0.000000 
#    y 0.000000 1.680280 0.000000 
#    z 0.000000 0.000000 1.555050 
# 
# From -- ./inp_files/7291.got.cif
#   From: 2010.05.17/outbox.cif.g08.bks.cpg/sg133_4_cif.got.tgz:7291.got - 2010.05.20 12:37:36.
