data_PCOD9567837
_publ_section_title
;
Structure prediction by ZEFSAII (Michael W. Deem and Ramdas Pophale) SiO2 
 PCOD9567837
Probable space group: P 42/N B C
;
_chemical_formula_sum "Si O2"
_cell_formula_units_Z 112
_cell_length_a 13.703507
_cell_length_b 13.703507
_cell_length_c 25.921917
_cell_angle_alpha 90.000000
_cell_angle_beta 90.000000
_cell_angle_gamma 90.000000
_cell_volume 4867.775804
_symmetry_space_group_name_H-M "P 42/N B C"
_symmetry_group_IT_number 133
_space_group.IT_coordinate_system_code '2'
_symmetry_cell_setting 'tetragonal'
loop_
_space_group_symop_operation_xyz
x,y,z
1/2-y,x,1/2+z
1/2-x,1/2-y,z
y,1/2-x,1/2+z
x,1/2-y,-z
1/2-x,y,-z
y,x,1/2-z
1/2-y,1/2-x,1/2-z
-x,-y,-z
1/2+y,-x,1/2-z
1/2+x,1/2+y,-z
-y,1/2+x,1/2-z
-x,1/2+y,z
1/2+x,-y,z
-y,-x,1/2+z
1/2+y,1/2+x,1/2+z
loop_
_atom_site_type_symbol
_atom_site_label
_atom_site_fract_x
_atom_site_fract_y
_atom_site_fract_z
Si Si1 0.524005 0.930383 0.390017
Si Si2 0.207126 0.954323 0.619739
Si Si3 0.143592 0.615150 0.089038
Si Si4 0.589218 0.228789 0.239100
Si Si5 0.478488 0.384541 0.501044
Si Si6 0.159577 0.319406 0.085727
Si Si7 0.526826 0.755728 0.663248
O O1 0.541894 0.865052 0.441431
O O2 0.549961 0.858923 0.343171
O O3 0.407935 0.947858 0.389358
O O4 0.573091 0.036627 0.392595
O O5 0.237095 0.060131 0.598224
O O6 0.269698 0.871323 0.591275
O O7 0.227319 0.943379 0.680155
O O8 0.219936 0.571158 0.129717
O O9 0.159528 0.569228 0.032746
O O10 0.644351 0.330368 0.251768
O O11 0.500344 0.216948 0.278867
O O12 0.500000 0.500000 0.500000
O O13 0.386248 0.360047 0.536088
O O14 0.250000 0.250000 0.077304
O O15 0.183613 0.388992 0.134733
#
# Coordination Sequence:
#
# PCOD9567837 Si02
#       7
#    16  16  16  16  16  16  16
#     4  11  22  42  66  95 137 182 228 292 345 429
#     4  12  22  41  69  98 133 183 234 286 371 427
#     4  10  22  39  61  97 136 174 225 287 349 422
#     4  11  23  40  68 100 126 174 238 297 363 437
#     4   9  19  43  66  94 136 185 227 276 339 419
#     4  11  24  44  69 103 146 185 229 295 361 444
#     4  11  22  43  65  94 139 172 228 299 351 426
#
# _framework density 23.008455000000001
#
# number of rings (size 3 to 8) (size 9 to 14) (size 15 to 20)
#    0.000    1.286    7.143    0.857    0.000    4.000 
#    0.000   12.143    0.000    3.429    0.000    0.000 
#    0.000    0.000    0.000    0.000    0.000    0.000 
#
# Total GULP energy -626799.198255 kJ/mol
# GULP energy per Si atom -5596.421413 kJ/mol
# Density = 2.295609 g / cm^3
# Si number density = 23.008455 Si / 1000 Ang^3
#
#
#
# Elastic Constant Matrix: (Units=GPa)
#
#
# Indices 1 2 3 4 5 6 
#
# 1 93.5492 14.2234 20.8770 0.0000 0.0000 0.0000
# 2 14.2234 93.5492 20.8770 0.0000 0.0000 0.0000
# 3 20.8770 20.8770 123.0908 0.0000 0.0000 0.0000
# 4 0.0000 0.0000 0.0000 19.3290 0.0000 0.0000
# 5 0.0000 0.0000 0.0000 0.0000 19.3290 0.0000
# 6 0.0000 0.0000 0.0000 0.0000 0.0000 34.8060
#
#
#
# Elastic Compliance Matrix: (Units=1/GPa)
#
#
# Indices 1 2 3 4 5 6 
#
# 1 0.011269 -0.001337 -0.001684 0.000000 0.000000 0.000000
# 2 -0.001337 0.011269 -0.001684 0.000000 0.000000 0.000000
# 3 -0.001684 -0.001684 0.008695 0.000000 0.000000 0.000000
# 4 0.000000 0.000000 0.000000 0.051736 0.000000 0.000000
# 5 0.000000 0.000000 0.000000 0.000000 0.051736 0.000000
# 6 0.000000 0.000000 0.000000 0.000000 0.000000 0.028731
#
#
# Mechanical properties :
#
#
# Convention : Reuss Voigt Hill
#
# Bulk Modulus (GPa) = 45.82843 46.90491 46.36667
# Shear Modulus (GPa) = 27.75910 31.64026 29.69968
#
# Velocity S-wave (km/s) = 3.47720 3.71234 3.59669
# Velocity P-wave (km/s) = 6.00688 6.22940 6.11915
#
# Compressibility (1/GPa) = 0.02182052
#
# Stress axis : x y z
#
# Youngs Moduli (GPa) = 88.74050 88.74050 115.00243
#
# Poissons Ratio (x) = 0.11868 0.19371
# Poissons Ratio (y) = 0.11868 0.19371
# Poissons Ratio (z) = 0.14948 0.14948
#
# Static dielectric constant tensor:
#      x y z
#    x 1.890420 0.000000 0.000000 
#    y 0.000000 1.890420 0.000000 
#    z 0.000000 0.000000 1.832390 
# 
# From -- ./inp_files/7674.got.cif
#   From: 2010.05.17/outbox.cif.g08.bks.cpg/sg133_4_cif.got.tgz:7674.got - 2010.05.20 12:37:36.
