data_PCOD9567410
_publ_section_title
;
Structure prediction by ZEFSAII (Michael W. Deem and Ramdas Pophale) SiO2 
 PCOD9567410
Probable space group: P 42/M C M
;
_chemical_formula_sum "Si O2"
_cell_formula_units_Z 112
_cell_length_a 13.959705
_cell_length_b 13.959705
_cell_length_c 32.964064
_cell_angle_alpha 90.000000
_cell_angle_beta 90.000000
_cell_angle_gamma 90.000000
_cell_volume 6423.818032
_symmetry_space_group_name_H-M "P 42/M C M"
_symmetry_group_IT_number 132
_symmetry_cell_setting 'tetragonal'
loop_
_space_group_symop_operation_xyz
x,y,z
-y,x,1/2+z
-x,-y,z
y,-x,1/2+z
x,-y,1/2-z
-x,y,1/2-z
y,x,-z
-y,-x,-z
-x,-y,-z
y,-x,1/2-z
x,y,-z
-y,x,1/2-z
-x,y,1/2+z
x,-y,1/2+z
-y,-x,z
y,x,z
loop_
_atom_site_type_symbol
_atom_site_label
_atom_site_fract_x
_atom_site_fract_y
_atom_site_fract_z
Si Si1 0.463069 0.686890 0.135721
Si Si2 0.360065 0.206186 0.170362
Si Si3 0.702486 0.854509 0.953274
Si Si4 0.535668 0.306062 0.544749
Si Si5 0.115273 0.727832 0.749402
Si Si6 0.843761 0.305731 0.842200
Si Si7 0.974591 0.611491 0.887598
O O1 0.415973 0.584028 0.144694
O O2 0.555732 0.717008 0.161868
O O3 0.480800 0.694216 0.087219
O O4 0.384355 0.766002 0.146072
O O5 0.262346 0.262346 0.159796
O O6 0.341869 0.159373 0.214694
O O7 0.383659 0.119147 0.140632
O O8 0.794938 0.794938 0.937990
O O9 0.614195 0.778888 0.952584
O O10 0.668795 0.944400 0.927593
O O11 0.719808 0.879238 0.000000
O O12 0.487494 0.297360 0.500000
O O13 0.595931 0.404070 0.544257
O O14 0.170617 0.829384 0.743634
O O15 0.142103 0.690916 0.793952
O O16 0.000000 0.735986 0.750000
O O17 0.797712 0.202289 0.852282
O O18 0.940168 0.334259 0.864867
O O19 0.000000 0.500000 0.895064
#
# Coordination Sequence:
#
# PCOD9567410 Si02
#       7
#    16  16  16  16  16  16  16
#     4  11  22  37  54  78 117 159 195 235 281 339
#     4  11  22  36  57  88 116 147 191 238 286 345
#     4   9  18  33  55  83 117 151 187 243 300 342
#     4   9  17  31  52  79 110 144 185 235 290 341
#     4  10  21  38  60  85 115 147 185 238 295 347
#     4  10  22  39  56  81 117 152 189 238 296 341
#     4  12  20  34  59  87 111 151 198 240 282 349
#
# _framework density 17.435113000000001
#
# number of rings (size 3 to 8) (size 9 to 14) (size 15 to 20)
#    0.000    1.714    4.286    1.714    0.000    2.429 
#    0.000    2.857    0.000    3.857    0.000    9.000 
#    0.000    0.000    0.000    0.000    0.000    0.000 
#
# Total GULP energy -624168.689722 kJ/mol
# GULP energy per Si atom -5572.934730 kJ/mol
# Density = 1.739543 g / cm^3
# Si number density = 17.435113 Si / 1000 Ang^3
#
#
#
# Elastic Constant Matrix: (Units=GPa)
#
#
# Indices 1 2 3 4 5 6 
#
# 1 9.4377 118.7065 57.3008 0.0000 0.0000 0.0000
# 2 118.7065 9.4377 57.3008 0.0000 0.0000 0.0000
# 3 57.3008 57.3008 115.4588 0.0000 0.0000 0.0000
# 4 0.0000 0.0000 0.0000 58.2765 0.0000 0.0000
# 5 0.0000 0.0000 0.0000 0.0000 58.2765 0.0000
# 6 0.0000 0.0000 0.0000 0.0000 0.0000 26.5989
#
#
#
# Elastic Compliance Matrix: (Units=1/GPa)
#
#
# Indices 1 2 3 4 5 6 
#
# 1 0.002440 0.011592 -0.006964 0.000000 0.000000 0.000000
# 2 0.011592 0.002440 -0.006964 0.000000 0.000000 0.000000
# 3 -0.006964 -0.006964 0.015573 0.000000 0.000000 0.000000
# 4 0.000000 0.000000 0.000000 0.017160 0.000000 0.000000
# 5 0.000000 0.000000 0.000000 0.000000 0.017160 0.000000
# 6 0.000000 0.000000 0.000000 0.000000 0.000000 0.037595
#
#
# Mechanical properties :
#
#
# Convention : Reuss Voigt Hill
#
# Bulk Modulus (GPa) = 63.36593 66.77227 65.06910
# Shear Modulus (GPa) = 48.87632 22.03214 35.45423
#
# Velocity S-wave (km/s) = 5.30039 3.55866 4.51432
# Velocity P-wave (km/s) = 8.59544 7.43412 8.03579
#
# Compressibility (1/GPa) = 0.01578135
#
# Stress axis : x y z
#
# Youngs Moduli (GPa) = 409.86537 409.86537 64.21368
#
# Poissons Ratio (x) = -4.75098 0.44716
# Poissons Ratio (y) = -4.75098 0.44716
# Poissons Ratio (z) = 2.85414 2.85414
#
# Static dielectric constant tensor:
#      x y z
#    x 1.600840 0.000000 0.000000 
#    y 0.000000 1.600840 0.000000 
#    z 0.000000 0.000000 1.617450 
# 
# From -- ./inp_files/10975.got.cif
#   From: 2010.05.17/outbox.cif.g08.bks.cpg/sg132_6_cif.got.tgz:10975.got - 2010.05.20 12:30:18.
