data_PCOD9567446
_publ_section_title
;
Structure prediction by ZEFSAII (Michael W. Deem and Ramdas Pophale) SiO2 
 PCOD9567446
Probable space group: P 42/M C M
;
_chemical_formula_sum "Si O2"
_cell_formula_units_Z 88
_cell_length_a 12.125591
_cell_length_b 12.125591
_cell_length_c 29.377209
_cell_angle_alpha 90.000000
_cell_angle_beta 90.000000
_cell_angle_gamma 90.000000
_cell_volume 4319.329779
_symmetry_space_group_name_H-M "P 42/M C M"
_symmetry_group_IT_number 132
_symmetry_cell_setting 'tetragonal'
loop_
_space_group_symop_operation_xyz
x,y,z
-y,x,1/2+z
-x,-y,z
y,-x,1/2+z
x,-y,1/2-z
-x,y,1/2-z
y,x,-z
-y,-x,-z
-x,-y,-z
y,-x,1/2-z
x,y,-z
-y,x,1/2-z
-x,y,1/2+z
x,-y,1/2+z
-y,-x,z
y,x,z
loop_
_atom_site_type_symbol
_atom_site_label
_atom_site_fract_x
_atom_site_fract_y
_atom_site_fract_z
Si Si1 0.440004 0.745139 0.050986
Si Si2 0.891910 0.294745 0.190301
Si Si3 0.667378 0.948725 0.409245
Si Si4 0.803583 0.377848 0.383213
Si Si5 0.673754 0.858611 0.212416
Si Si6 0.092770 0.907231 0.053659
O O1 0.338760 0.661241 0.058127
O O2 0.394110 0.869445 0.055767
O O3 0.532447 0.734652 0.089277
O O4 0.483651 0.726995 0.000000
O O5 0.813143 0.186858 0.189837
O O6 0.890664 0.346575 0.140235
O O7 0.861382 0.366002 0.235235
O O8 0.022204 0.275770 0.199036
O O9 0.795519 0.946300 0.422375
O O10 0.629309 0.074567 0.405116
O O11 0.737839 0.262162 0.386327
O O12 0.823228 0.402549 0.329672
O O13 0.771775 0.771775 0.212724
O O14 0.113733 0.886267 0.000000
O O15 0.000000 0.000000 0.057429
#
# Coordination Sequence:
#
# PCOD9567446 Si02
#       6
#    16  16  16  16  16   8
#     4  11  24  42  63  84 111 152 204 257 308 366
#     4   9  15  27  48  78 113 155 194 235 282 351
#     4  11  20  37  59  86 118 157 201 250 302 367
#     4  10  22  39  59  87 120 156 194 250 310 365
#     4   8  16  29  47  75 115 153 190 236 288 347
#     4  11  22  34  52  82 123 167 205 249 305 362
#
# _framework density 20.373529999999999
#
# number of rings (size 3 to 8) (size 9 to 14) (size 15 to 20)
#    0.000    2.091    1.818    1.636    0.000    4.000 
#    0.000    3.636    0.000    4.364    0.000    0.000 
#    0.000    4.364    0.000    0.000    0.000    0.000 
#
# Total GULP energy -490678.418698 kJ/mol
# GULP energy per Si atom -5575.891122 kJ/mol
# Density = 2.032716 g / cm^3
# Si number density = 20.373530 Si / 1000 Ang^3
#
#
#
# Elastic Constant Matrix: (Units=GPa)
#
#
# Indices 1 2 3 4 5 6 
#
# 1 66.8013 12.4824 40.7846 0.0000 0.0000 0.0000
# 2 12.4824 66.8014 40.7846 0.0000 0.0000 0.0000
# 3 40.7846 40.7846 133.5157 0.0000 0.0000 0.0000
# 4 0.0000 0.0000 0.0000 28.2524 0.0000 0.0000
# 5 0.0000 0.0000 0.0000 0.0000 28.2524 0.0000
# 6 0.0000 0.0000 0.0000 0.0000 0.0000 9.0921
#
#
#
# Elastic Compliance Matrix: (Units=1/GPa)
#
#
# Indices 1 2 3 4 5 6 
#
# 1 0.018402 -0.000008 -0.005619 0.000000 0.000000 0.000000
# 2 -0.000008 0.018402 -0.005619 0.000000 0.000000 0.000000
# 3 -0.005619 -0.005619 0.010922 0.000000 0.000000 0.000000
# 4 0.000000 0.000000 0.000000 0.035395 0.000000 0.000000
# 5 0.000000 0.000000 0.000000 0.000000 0.035395 0.000000
# 6 0.000000 0.000000 0.000000 0.000000 0.000000 0.109986
#
#
# Mechanical properties :
#
#
# Convention : Reuss Voigt Hill
#
# Bulk Modulus (GPa) = 39.62761 50.58016 45.10389
# Shear Modulus (GPa) = 19.27493 24.65718 21.96605
#
# Velocity S-wave (km/s) = 3.07917 3.48265 3.28711
# Velocity P-wave (km/s) = 5.66873 6.40719 6.04924
#
# Compressibility (1/GPa) = 0.02523493
#
# Stress axis : x y z
#
# Youngs Moduli (GPa) = 54.34301 54.34308 91.55546
#
# Poissons Ratio (x) = 0.00044 0.51441
# Poissons Ratio (y) = 0.00044 0.51441
# Poissons Ratio (z) = 0.30533 0.30533
#
# Static dielectric constant tensor:
#      x y z
#    x 1.705960 0.000000 0.000000 
#    y 0.000000 1.705960 0.000000 
#    z 0.000000 0.000000 1.826010 
# 
# From -- ./inp_files/10795.got.cif
#   From: 2010.05.17/outbox.cif.g08.bks.cpg/sg132_6_cif.got.tgz:10795.got - 2010.05.20 12:30:18.
