data_PCOD9567656
_publ_section_title
;
Structure prediction by ZEFSAII (Michael W. Deem and Ramdas Pophale) SiO2 
 PCOD9567656
Probable space group: P 42/N B C
;
_chemical_formula_sum "Si O2"
_cell_formula_units_Z 92
_cell_length_a 23.366435
_cell_length_b 23.366435
_cell_length_c 8.680472
_cell_angle_alpha 90.000000
_cell_angle_beta 90.000000
_cell_angle_gamma 90.000000
_cell_volume 4739.453378
_symmetry_space_group_name_H-M "P 42/N B C"
_symmetry_group_IT_number 133
_space_group.IT_coordinate_system_code '2'
_symmetry_cell_setting 'tetragonal'
loop_
_space_group_symop_operation_xyz
x,y,z
1/2-y,x,1/2+z
1/2-x,1/2-y,z
y,1/2-x,1/2+z
x,1/2-y,-z
1/2-x,y,-z
y,x,1/2-z
1/2-y,1/2-x,1/2-z
-x,-y,-z
1/2+y,-x,1/2-z
1/2+x,1/2+y,-z
-y,1/2+x,1/2-z
-x,1/2+y,z
1/2+x,-y,z
-y,-x,1/2+z
1/2+y,1/2+x,1/2+z
loop_
_atom_site_type_symbol
_atom_site_label
_atom_site_fract_x
_atom_site_fract_y
_atom_site_fract_z
Si Si1 0.152045 0.250000 0.000000
Si Si2 0.679613 0.062287 0.256144
Si Si3 0.459849 0.312476 0.046855
Si Si4 0.161818 0.751780 0.817372
Si Si5 0.411311 0.500414 0.678660
Si Si6 0.250000 0.250000 0.250000
Si Si7 0.922705 0.396244 0.465759
O O1 0.107980 0.198754 0.042019
O O2 0.194113 0.254278 0.143789
O O3 0.739304 0.095794 0.272332
O O4 0.638753 0.089946 0.389232
O O5 0.676300 0.994817 0.295929
O O6 0.653963 0.076129 0.089651
O O7 0.484067 0.250000 0.000000
O O8 0.473146 0.361188 0.923216
O O9 0.197136 0.806487 0.753684
O O10 0.167850 0.750000 0.000000
O O11 0.455104 0.455104 0.750000
O O12 0.386624 0.535398 0.823378
O O13 0.440018 0.547381 0.565114
#
# Coordination Sequence:
#
# PCOD9567656 Si02
#       7
#     8  16  16  16  16   4  16
#     4   9  22  42  68  98 122 161 192 236 302 379
#     4  10  19  37  54  77 118 159 192 261 303 347
#     4   9  21  38  55  84 120 147 196 236 298 358
#     4  11  22  35  53  78 107 151 213 258 299 350
#     4  10  19  36  58  82 116 156 191 249 292 360
#     4  10  20  46  76  94 128 154 188 242 304 374
#     4   9  20  34  55  85 112 154 206 236 310 370
#
# _framework density 19.411522000000001
#
# number of rings (size 3 to 8) (size 9 to 14) (size 15 to 20)
#    0.522    1.739    0.000    3.130    1.217    2.783 
#    3.130    2.609    0.000    0.000    0.000    0.000 
#    0.000    0.000    0.000    0.000    0.000    0.000 
#
# Total GULP energy -512703.126327 kJ/mol
# GULP energy per Si atom -5572.860069 kJ/mol
# Density = 1.936734 g / cm^3
# Si number density = 19.411522 Si / 1000 Ang^3
#
#
#
# Elastic Constant Matrix: (Units=GPa)
#
#
# Indices 1 2 3 4 5 6 
#
# 1 69.3208 24.8600 25.5577 0.0000 0.0000 0.0000
# 2 24.8600 69.3208 25.5577 0.0000 0.0000 0.0000
# 3 25.5577 25.5577 91.8981 0.0000 0.0000 0.0000
# 4 0.0000 0.0000 0.0000 2.9701 0.0000 0.0000
# 5 0.0000 0.0000 0.0000 0.0000 2.9701 0.0000
# 6 0.0000 0.0000 0.0000 0.0000 0.0000 21.1907
#
#
#
# Elastic Compliance Matrix: (Units=1/GPa)
#
#
# Indices 1 2 3 4 5 6 
#
# 1 0.017499 -0.004993 -0.003478 0.000000 0.000000 0.000000
# 2 -0.004993 0.017499 -0.003478 0.000000 0.000000 0.000000
# 3 -0.003478 -0.003478 0.012816 0.000000 0.000000 0.000000
# 4 0.000000 0.000000 0.000000 0.336692 0.000000 0.000000
# 5 0.000000 0.000000 0.000000 0.000000 0.336692 0.000000
# 6 0.000000 0.000000 0.000000 0.000000 0.000000 0.047190
#
#
# Mechanical properties :
#
#
# Convention : Reuss Voigt Hill
#
# Bulk Modulus (GPa) = 41.81395 42.49893 42.15644
# Shear Modulus (GPa) = 6.24799 15.73046 10.98922
#
# Velocity S-wave (km/s) = 1.79602 2.84978 2.38191
# Velocity P-wave (km/s) = 5.08807 5.72447 5.41563
#
# Compressibility (1/GPa) = 0.02391547
#
# Stress axis : x y z
#
# Youngs Moduli (GPa) = 57.14741 57.14741 78.02698
#
# Poissons Ratio (x) = 0.28535 0.27137
# Poissons Ratio (y) = 0.28535 0.27137
# Poissons Ratio (z) = 0.19875 0.19875
#
# Static dielectric constant tensor:
#      x y z
#    x 1.723090 0.000000 0.000000 
#    y 0.000000 1.723090 0.000000 
#    z 0.000000 0.000000 1.648840 
# 
# From -- ./inp_files/1970.got.cif
#   From: 2010.05.17/outbox.cif.g08.bks.cpg/sg133_1_cif.got.tgz:1970.got - 2010.05.20 12:37:36.
