data_PCOD9567017
_publ_section_title
;
Structure prediction by ZEFSAII (Michael W. Deem and Ramdas Pophale) SiO2 
 PCOD9567017
Probable space group: P 42/M C M
;
_chemical_formula_sum "Si O2"
_cell_formula_units_Z 96
_cell_length_a 25.453314
_cell_length_b 25.453314
_cell_length_c 8.657243
_cell_angle_alpha 90.000000
_cell_angle_beta 90.000000
_cell_angle_gamma 90.000000
_cell_volume 5608.778356
_symmetry_space_group_name_H-M "P 42/M C M"
_symmetry_group_IT_number 132
_symmetry_cell_setting 'tetragonal'
loop_
_space_group_symop_operation_xyz
x,y,z
-y,x,1/2+z
-x,-y,z
y,-x,1/2+z
x,-y,1/2-z
-x,y,1/2-z
y,x,-z
-y,-x,-z
-x,-y,-z
y,-x,1/2-z
x,y,-z
-y,x,1/2-z
-x,y,1/2+z
x,-y,1/2+z
-y,-x,z
y,x,z
loop_
_atom_site_type_symbol
_atom_site_label
_atom_site_fract_x
_atom_site_fract_y
_atom_site_fract_z
Si Si1 0.265857 0.850033 0.312063
Si Si2 0.556310 0.786336 0.684529
Si Si3 0.058734 0.941267 0.687255
Si Si4 0.555420 0.909988 0.684230
Si Si5 0.053283 0.336909 0.184123
Si Si6 0.145739 0.854262 0.311891
Si Si7 0.333753 0.251038 0.813374
O O1 0.264201 0.847816 0.500000
O O2 0.303731 0.896793 0.263292
O O3 0.206413 0.862546 0.262587
O O4 0.293722 0.795748 0.263447
O O5 0.500000 0.767758 0.750000
O O6 0.554965 0.782953 0.500000
O O7 0.561052 0.848208 0.727863
O O8 0.608326 0.758046 0.747154
O O9 0.057028 0.942973 0.500000
O O10 0.102406 0.897595 0.735873
O O11 0.000000 0.928450 0.750000
O O12 0.500000 0.928657 0.750000
O O13 0.555786 0.914080 0.500000
O O14 0.604351 0.939893 0.754820
O O15 0.000000 0.313541 0.250000
O O16 0.051943 0.337250 0.000000
O O17 0.144589 0.855412 0.500000
O O18 0.305571 0.305571 0.770802
O O19 0.337046 0.248393 0.000000
#
# Coordination Sequence:
#
# PCOD9567017 Si02
#       7
#    16  16   8  16  16   8  16
#     4   9  17  31  51  75 102 131 168 209 253 310
#     4  10  20  33  52  77 109 143 179 222 266 313
#     4  10  20  35  58  80 104 130 164 210 262 323
#     4  10  20  34  52  73  96 128 172 220 266 312
#     4  11  22  35  51  70  97 132 168 214 262 313
#     4   9  17  32  55  82 104 132 168 206 253 309
#     4  10  18  31  55  82 107 139 179 219 259 314
#
# _framework density 17.116026000000002
#
# number of rings (size 3 to 8) (size 9 to 14) (size 15 to 20)
#    0.000    2.083    2.500    2.000    0.000    2.667 
#    0.000    1.667    0.000    5.000    0.000    0.000 
#    0.000    0.333    0.000    3.500    0.000    1.500 
#
# Total GULP energy -535511.909457 kJ/mol
# GULP energy per Si atom -5578.249057 kJ/mol
# Density = 1.707707 g / cm^3
# Si number density = 17.116026 Si / 1000 Ang^3
#
#
#
# Elastic Constant Matrix: (Units=GPa)
#
#
# Indices 1 2 3 4 5 6 
#
# 1 116.6903 64.7713 22.6633 0.0000 0.0000 0.0000
# 2 64.7713 116.6903 22.6633 0.0000 0.0000 0.0000
# 3 22.6633 22.6633 21.6226 0.0000 0.0000 0.0000
# 4 0.0000 0.0000 0.0000 19.9282 0.0000 0.0000
# 5 0.0000 0.0000 0.0000 0.0000 19.9282 0.0000
# 6 0.0000 0.0000 0.0000 0.0000 0.0000 26.5627
#
#
#
# Elastic Compliance Matrix: (Units=1/GPa)
#
#
# Indices 1 2 3 4 5 6 
#
# 1 0.013363 -0.005898 -0.007825 0.000000 0.000000 0.000000
# 2 -0.005898 0.013363 -0.007825 0.000000 0.000000 0.000000
# 3 -0.007825 -0.007825 0.062650 0.000000 0.000000 0.000000
# 4 0.000000 0.000000 0.000000 0.050180 0.000000 0.000000
# 5 0.000000 0.000000 0.000000 0.000000 0.050180 0.000000
# 6 0.000000 0.000000 0.000000 0.000000 0.000000 0.037647
#
#
# Mechanical properties :
#
#
# Convention : Reuss Voigt Hill
#
# Bulk Modulus (GPa) = 21.60641 52.79989 37.20315
# Shear Modulus (GPa) = 17.48833 22.94418 20.21626
#
# Velocity S-wave (km/s) = 3.19995 3.66527 3.44049
# Velocity P-wave (km/s) = 5.12873 6.98766 6.12908
#
# Compressibility (1/GPa) = 0.04628256
#
# Stress axis : x y z
#
# Youngs Moduli (GPa) = 74.83326 74.83329 15.96159
#
# Poissons Ratio (x) = 0.44135 0.12489
# Poissons Ratio (y) = 0.44135 0.12489
# Poissons Ratio (z) = 0.58554 0.58554
#
# Static dielectric constant tensor:
#      x y z
#    x 1.586870 0.000000 0.000000 
#    y 0.000000 1.586870 0.000000 
#    z 0.000000 0.000000 1.578730 
# 
# From -- ./inp_files/1851.got.cif
#   From: 2010.05.17/outbox.cif.g08.bks.cpg/sg132_1_cif.got.tgz:1851.got - 2010.05.20 12:30:18.
