data_PCOD9567946
_publ_section_title
;
Structure prediction by ZEFSAII (Michael W. Deem and Ramdas Pophale) SiO2 
 PCOD9567946
Probable space group: P 42/N B C
;
_chemical_formula_sum "Si O2"
_cell_formula_units_Z 44
_cell_length_a 14.671156
_cell_length_b 14.671156
_cell_length_c 8.895632
_cell_angle_alpha 90.000000
_cell_angle_beta 90.000000
_cell_angle_gamma 90.000000
_cell_volume 1914.720903
_symmetry_space_group_name_H-M "P 42/N B C"
_symmetry_group_IT_number 133
_space_group.IT_coordinate_system_code '2'
_symmetry_cell_setting 'tetragonal'
loop_
_space_group_symop_operation_xyz
x,y,z
1/2-y,x,1/2+z
1/2-x,1/2-y,z
y,1/2-x,1/2+z
x,1/2-y,-z
1/2-x,y,-z
y,x,1/2-z
1/2-y,1/2-x,1/2-z
-x,-y,-z
1/2+y,-x,1/2-z
1/2+x,1/2+y,-z
-y,1/2+x,1/2-z
-x,1/2+y,z
1/2+x,-y,z
-y,-x,1/2+z
1/2+y,1/2+x,1/2+z
loop_
_atom_site_type_symbol
_atom_site_label
_atom_site_fract_x
_atom_site_fract_y
_atom_site_fract_z
Si Si1 0.638101 0.638101 0.750000
Si Si2 0.116170 0.682289 0.715042
Si Si3 0.960057 0.409626 0.574627
Si Si4 0.250000 0.250000 0.500000
O O1 0.637719 0.534592 0.816535
O O2 0.693285 0.681637 0.609223
O O3 0.134841 0.784836 0.763605
O O4 0.056047 0.627581 0.833225
O O5 0.076340 0.658213 0.553557
O O6 0.000000 0.500000 0.500000
#
# Coordination Sequence:
#
# PCOD9567946 Si02
#       4
#     8  16  16   4
#     4  11  26  50  74 108 148 195 254 314 380 467
#     4  11  25  45  72 107 152 198 249 309 380 452
#     4  12  24  45  71 109 147 196 251 307 381 452
#     4  10  28  54  76 110 146 208 260 314 404 438
#
# _framework density 22.979849999999999
#
# number of rings (size 3 to 8) (size 9 to 14) (size 15 to 20)
#    0.000    0.727    3.636    2.182    5.091    5.818 
#    6.545    0.000    0.000    0.000    0.000    0.000 
#    0.000    0.000    0.000    0.000    0.000    0.000 
#
# Total GULP energy -245468.940755 kJ/mol
# GULP energy per Si atom -5578.839563 kJ/mol
# Density = 2.292755 g / cm^3
# Si number density = 22.979850 Si / 1000 Ang^3
#
#
#
# Elastic Constant Matrix: (Units=GPa)
#
#
# Indices 1 2 3 4 5 6 
#
# 1 117.1778 48.2976 57.9935 0.0000 0.0000 0.0000
# 2 48.2976 117.1778 57.9935 0.0000 0.0000 0.0000
# 3 57.9935 57.9935 144.2839 0.0000 0.0000 0.0000
# 4 0.0000 0.0000 0.0000 29.6620 0.0000 0.0000
# 5 0.0000 0.0000 0.0000 0.0000 29.6620 0.0000
# 6 0.0000 0.0000 0.0000 0.0000 0.0000 19.4948
#
#
#
# Elastic Compliance Matrix: (Units=1/GPa)
#
#
# Indices 1 2 3 4 5 6 
#
# 1 0.011466 -0.003052 -0.003382 0.000000 0.000000 0.000000
# 2 -0.003052 0.011466 -0.003382 0.000000 0.000000 0.000000
# 3 -0.003382 -0.003382 0.009649 0.000000 0.000000 0.000000
# 4 0.000000 0.000000 0.000000 0.033713 0.000000 0.000000
# 5 0.000000 0.000000 0.000000 0.000000 0.033713 0.000000
# 6 0.000000 0.000000 0.000000 0.000000 0.000000 0.051296
#
#
# Mechanical properties :
#
#
# Convention : Reuss Voigt Hill
#
# Bulk Modulus (GPa) = 77.22342 78.57874 77.90108
# Shear Modulus (GPa) = 28.53052 30.05407 29.29229
#
# Velocity S-wave (km/s) = 3.52738 3.62034 3.57416
# Velocity P-wave (km/s) = 7.08997 7.19337 7.14186
#
# Compressibility (1/GPa) = 0.01294944
#
# Stress axis : x y z
#
# Youngs Moduli (GPa) = 87.21609 87.21609 103.63441
#
# Poissons Ratio (x) = 0.26620 0.35047
# Poissons Ratio (y) = 0.26620 0.35047
# Poissons Ratio (z) = 0.29494 0.29494
#
# Static dielectric constant tensor:
#      x y z
#    x 1.939610 0.000000 0.000000 
#    y 0.000000 1.939610 0.000000 
#    z 0.000000 0.000000 1.937050 
# 
# From -- ./inp_files/977.got.cif
#   From: 2010.05.17/outbox.cif.g08.bks.cpg/sg133_1_cif.got.tgz:977.got - 2010.05.20 12:37:36.
