data_PCOD9567731
_publ_section_title
;
Structure prediction by ZEFSAII (Michael W. Deem and Ramdas Pophale) SiO2 
 PCOD9567731
Probable space group: P 42/N B C
;
_chemical_formula_sum "Si O2"
_cell_formula_units_Z 88
_cell_length_a 13.561510
_cell_length_b 13.561510
_cell_length_c 27.020145
_cell_angle_alpha 90.000000
_cell_angle_beta 90.000000
_cell_angle_gamma 90.000000
_cell_volume 4969.397903
_symmetry_space_group_name_H-M "P 42/N B C"
_symmetry_group_IT_number 133
_space_group.IT_coordinate_system_code '2'
_symmetry_cell_setting 'tetragonal'
loop_
_space_group_symop_operation_xyz
x,y,z
1/2-y,x,1/2+z
1/2-x,1/2-y,z
y,1/2-x,1/2+z
x,1/2-y,-z
1/2-x,y,-z
y,x,1/2-z
1/2-y,1/2-x,1/2-z
-x,-y,-z
1/2+y,-x,1/2-z
1/2+x,1/2+y,-z
-y,1/2+x,1/2-z
-x,1/2+y,z
1/2+x,-y,z
-y,-x,1/2+z
1/2+y,1/2+x,1/2+z
loop_
_atom_site_type_symbol
_atom_site_label
_atom_site_fract_x
_atom_site_fract_y
_atom_site_fract_z
Si Si1 0.384474 0.170776 0.044494
Si Si2 0.250000 0.750000 0.128958
Si Si3 0.115963 0.830951 0.044005
Si Si4 0.733539 0.114152 0.779737
Si Si5 0.740584 0.614503 0.779861
Si Si6 0.498433 0.250000 0.500000
Si Si7 0.250000 0.250000 0.628455
O O1 0.500048 0.146755 0.049046
O O2 0.319058 0.074594 0.032082
O O3 0.340701 0.222445 0.093148
O O4 0.373399 0.250000 0.000000
O O5 0.161620 0.783216 0.093274
O O6 0.278041 0.838381 0.166125
O O7 0.178800 0.928224 0.030606
O O8 0.127335 0.750000 0.000000
O O9 0.653435 0.163485 0.743401
O O10 0.732804 0.998337 0.780675
O O11 0.641152 0.641152 0.750000
O O12 0.824329 0.675672 0.750000
O O13 0.731058 0.659318 0.834541
#
# Coordination Sequence:
#
# PCOD9567731 Si02
#       7
#    16   8  16  16  16   8   8
#     4  11  23  39  59  86 121 159 197 238 293 351
#     4  10  20  38  60  84 120 152 192 248 290 340
#     4  11  23  39  59  86 121 159 197 237 294 350
#     4   9  21  39  62  85 116 150 189 241 295 347
#     4   9  21  39  62  85 116 150 189 241 295 347
#     4  12  20  40  60  84 120 164 192 252 288 346
#     4  10  20  38  60  84 120 152 192 248 290 340
#
# _framework density 17.708383999999999
#
# number of rings (size 3 to 8) (size 9 to 14) (size 15 to 20)
#    0.000    2.182    3.636    0.545    2.545    6.545 
#    0.000    0.000    0.000    0.000    0.000    0.000 
#    0.000    0.000    0.000    0.000    0.000    0.000 
#
# Total GULP energy -490844.225425 kJ/mol
# GULP energy per Si atom -5577.775289 kJ/mol
# Density = 1.766808 g / cm^3
# Si number density = 17.708384 Si / 1000 Ang^3
#
#
#
# Elastic Constant Matrix: (Units=GPa)
#
#
# Indices 1 2 3 4 5 6 
#
# 1 151.8186 54.5497 58.2360 0.0000 0.0000 0.0000
# 2 54.5497 151.8179 58.2358 0.0000 0.0000 0.0000
# 3 58.2360 58.2358 134.3625 0.0000 0.0000 0.0000
# 4 0.0000 0.0000 0.0000 3.1231 0.0000 0.0000
# 5 0.0000 0.0000 0.0000 0.0000 3.1230 0.0000
# 6 0.0000 0.0000 0.0000 0.0000 0.0000 19.2203
#
#
#
# Elastic Compliance Matrix: (Units=1/GPa)
#
#
# Indices 1 2 3 4 5 6 
#
# 1 0.008348 -0.001933 -0.002780 0.000000 0.000000 0.000000
# 2 -0.001933 0.008348 -0.002780 0.000000 0.000000 0.000000
# 3 -0.002780 -0.002780 0.009853 0.000000 0.000000 0.000000
# 4 0.000000 0.000000 0.000000 0.320198 0.000000 0.000000
# 5 0.000000 0.000000 0.000000 0.000000 0.320208 0.000000
# 6 0.000000 0.000000 0.000000 0.000000 0.000000 0.052028
#
#
# Mechanical properties :
#
#
# Convention : Reuss Voigt Hill
#
# Bulk Modulus (GPa) = 86.49736 86.67136 86.58436
# Shear Modulus (GPa) = 6.77668 22.89177 14.83423
#
# Velocity S-wave (km/s) = 1.95835 3.59933 2.89744
# Velocity P-wave (km/s) = 7.35289 8.14392 7.75849
#
# Compressibility (1/GPa) = 0.01156105
#
# Stress axis : x y z
#
# Youngs Moduli (GPa) = 119.79123 119.79073 101.49476
#
# Poissons Ratio (x) = 0.23155 0.28219
# Poissons Ratio (y) = 0.23155 0.28219
# Poissons Ratio (z) = 0.33307 0.33306
#
# Static dielectric constant tensor:
#      x y z
#    x 1.592350 0.000000 0.000000 
#    y 0.000000 1.592360 0.000000 
#    z 0.000000 0.000000 1.599130 
# 
# From -- ./inp_files/7166.got.cif
#   From: 2010.05.17/outbox.cif.g08.bks.cpg/sg133_4_cif.got.tgz:7166.got - 2010.05.20 12:37:36.
