data_PCOD9567911
_publ_section_title
;
Structure prediction by ZEFSAII (Michael W. Deem and Ramdas Pophale) SiO2 
 PCOD9567911
Probable space group: P 42/N B C
;
_chemical_formula_sum "Si O2"
_cell_formula_units_Z 48
_cell_length_a 9.574128
_cell_length_b 9.574128
_cell_length_c 17.800636
_cell_angle_alpha 90.000000
_cell_angle_beta 90.000000
_cell_angle_gamma 90.000000
_cell_volume 1631.676198
_symmetry_space_group_name_H-M "P 42/N B C"
_symmetry_group_IT_number 133
_space_group.IT_coordinate_system_code '2'
_symmetry_cell_setting 'tetragonal'
loop_
_space_group_symop_operation_xyz
x,y,z
1/2-y,x,1/2+z
1/2-x,1/2-y,z
y,1/2-x,1/2+z
x,1/2-y,-z
1/2-x,y,-z
y,x,1/2-z
1/2-y,1/2-x,1/2-z
-x,-y,-z
1/2+y,-x,1/2-z
1/2+x,1/2+y,-z
-y,1/2+x,1/2-z
-x,1/2+y,z
1/2+x,-y,z
-y,-x,1/2+z
1/2+y,1/2+x,1/2+z
loop_
_atom_site_type_symbol
_atom_site_label
_atom_site_fract_x
_atom_site_fract_y
_atom_site_fract_z
Si Si1 0.245746 0.522099 0.760182
Si Si2 0.355149 0.357344 0.382157
Si Si3 0.133318 0.652697 0.560029
O O1 0.110340 0.617574 0.751872
O O2 0.088936 0.270643 0.806820
O O3 0.241017 0.475529 0.847204
O O4 0.250000 0.250000 0.420795
O O5 0.547614 0.250000 0.500000
O O6 0.417961 0.503200 0.410786
O O7 0.250000 0.750000 0.605005
O O8 0.250000 0.592399 0.500000
#
# Coordination Sequence:
#
# PCOD9567911 Si02
#       3
#    16  16  16
#     4  10  24  39  62  96 145 195 239 300 395 458
#     4  11  22  37  67 104 138 186 253 320 367 467
#     4   6  17  37  64 100 141 188 238 306 391 451
#
# _framework density 29.417601000000001
#
# number of rings (size 3 to 8) (size 9 to 14) (size 15 to 20)
#    2.000    1.000    0.000    2.000   14.000    0.667 
#    0.000    0.000    0.000    8.000    0.000    0.000 
#    0.000    0.000    0.000    0.000    0.000    0.000 
#
# Total GULP energy -267639.623491 kJ/mol
# GULP energy per Si atom -5575.825489 kJ/mol
# Density = 2.935065 g / cm^3
# Si number density = 29.417601 Si / 1000 Ang^3
#
#
#
# Elastic Constant Matrix: (Units=GPa)
#
#
# Indices 1 2 3 4 5 6 
#
# 1 144.8995 31.2019 -12.5803 0.0000 0.0000 0.0000
# 2 31.2019 144.8995 -12.5803 0.0000 0.0000 0.0000
# 3 -12.5803 -12.5803 79.7347 0.0000 0.0000 0.0000
# 4 0.0000 0.0000 0.0000 122.9265 0.0000 0.0000
# 5 0.0000 0.0000 0.0000 0.0000 122.9265 0.0000
# 6 0.0000 0.0000 0.0000 0.0000 0.0000 -32.5431
#
#
#
# Elastic Compliance Matrix: (Units=1/GPa)
#
#
# Indices 1 2 3 4 5 6 
#
# 1 0.007302 -0.001493 0.000917 0.000000 0.000000 0.000000
# 2 -0.001493 0.007302 0.000917 0.000000 0.000000 0.000000
# 3 0.000917 0.000917 0.012831 0.000000 0.000000 0.000000
# 4 0.000000 0.000000 0.000000 0.008135 0.000000 0.000000
# 5 0.000000 0.000000 0.000000 0.000000 0.008135 0.000000
# 6 0.000000 0.000000 0.000000 0.000000 0.000000 -0.030728
#
#
# Mechanical properties :
#
#
# Convention : Reuss Voigt Hill
#
# Bulk Modulus (GPa) = 35.56661 42.40183 38.98422
# Shear Modulus (GPa) = 230.75013 66.89480 148.82247
#
# Velocity S-wave (km/s) = 8.86621 4.77379 7.12035
# Velocity P-wave (km/s) = 10.81340 6.69556 8.99333
#
# Compressibility (1/GPa) = 0.02811626
#
# Stress axis : x y z
#
# Youngs Moduli (GPa) = 136.94161 136.94161 77.93729
#
# Poissons Ratio (x) = 0.20444 -0.07144
# Poissons Ratio (y) = 0.20444 -0.07144
# Poissons Ratio (z) = -0.12552 -0.12552
#
# Static dielectric constant tensor:
#      x y z
#    x 1.082180 0.000000 0.000000 
#    y 0.000000 1.082180 0.000000 
#    z 0.000000 0.000000 2.485030 
# 
# From -- ./inp_files/5973.got.cif
#   From: 2010.05.17/outbox.cif.g08.bks.cpg/sg133_3_cif.got.tgz:5973.got - 2010.05.20 12:37:36.
