data_PCOD9567181
_publ_section_title
;
Structure prediction by ZEFSAII (Michael W. Deem and Ramdas Pophale) SiO2 
 PCOD9567181
Probable space group: P 42/M C M
;
_chemical_formula_sum "Si O2"
_cell_formula_units_Z 104
_cell_length_a 17.673152
_cell_length_b 17.673152
_cell_length_c 18.245611
_cell_angle_alpha 90.000000
_cell_angle_beta 90.000000
_cell_angle_gamma 90.000000
_cell_volume 5698.839643
_symmetry_space_group_name_H-M "P 42/M C M"
_symmetry_group_IT_number 132
_symmetry_cell_setting 'tetragonal'
loop_
_space_group_symop_operation_xyz
x,y,z
-y,x,1/2+z
-x,-y,z
y,-x,1/2+z
x,-y,1/2-z
-x,y,1/2-z
y,x,-z
-y,-x,-z
-x,-y,-z
y,-x,1/2-z
x,y,-z
-y,x,1/2-z
-x,y,1/2+z
x,-y,1/2+z
-y,-x,z
y,x,z
loop_
_atom_site_type_symbol
_atom_site_label
_atom_site_fract_x
_atom_site_fract_y
_atom_site_fract_z
Si Si1 0.937440 0.937440 0.587443
Si Si2 0.691107 0.186843 0.833434
Si Si3 0.806509 0.422519 0.413738
Si Si4 0.786875 0.038221 0.175875
Si Si5 0.959541 0.341708 0.413937
Si Si6 0.588184 0.287078 0.273464
Si Si7 0.433922 0.099115 0.585936
O O1 0.934938 0.934938 0.500000
O O2 0.955101 0.855636 0.620290
O O3 0.000000 0.000000 0.608996
O O4 0.745462 0.254539 0.858991
O O5 0.745506 0.118323 0.807537
O O6 0.634246 0.222982 0.773187
O O7 0.639946 0.148771 0.896033
O O8 0.785529 0.431559 0.500000
O O9 0.871251 0.358920 0.409287
O O10 0.738591 0.408678 0.358328
O O11 0.852763 0.496066 0.384640
O O12 0.814274 0.000000 0.250000
O O13 0.725065 0.984969 0.137888
O O14 0.977331 0.326966 0.500000
O O15 0.013722 0.412515 0.391117
O O16 0.500000 0.292130 0.250000
O O17 0.635406 0.364595 0.262571
O O18 0.450217 0.093770 0.500000
#
# Coordination Sequence:
#
# PCOD9567181 Si02
#       7
#     8  16  16  16  16  16  16
#     4  11  26  44  62  84 116 162 211 251 297 356
#     4  10  20  36  55  86 116 148 193 245 297 344
#     4  10  19  35  58  86 118 154 192 232 285 356
#     4  11  22  37  60  86 118 154 200 253 298 343
#     4   9  18  33  55  86 123 157 190 234 295 356
#     4  11  23  40  62  84 118 155 197 246 300 368
#     4   9  17  30  53  84 118 155 189 229 286 351
#
# _framework density 18.249328999999999
#
# number of rings (size 3 to 8) (size 9 to 14) (size 15 to 20)
#    0.000    1.923    2.308    1.846    1.077    3.231 
#    0.000    0.769    0.000    1.385    0.000    1.077 
#    0.000    0.000    0.000    0.000    0.000    0.000 
#
# Total GULP energy -579592.465257 kJ/mol
# GULP energy per Si atom -5573.004474 kJ/mol
# Density = 1.820779 g / cm^3
# Si number density = 18.249329 Si / 1000 Ang^3
#
#
#
# Elastic Constant Matrix: (Units=GPa)
#
#
# Indices 1 2 3 4 5 6 
#
# 1 78.4626 29.8877 25.3142 0.0000 0.0000 0.0000
# 2 29.8877 78.4626 25.3142 0.0000 0.0000 0.0000
# 3 25.3142 25.3142 45.7893 0.0000 0.0000 0.0000
# 4 0.0000 0.0000 0.0000 24.0857 0.0000 0.0000
# 5 0.0000 0.0000 0.0000 0.0000 24.0857 0.0000
# 6 0.0000 0.0000 0.0000 0.0000 0.0000 23.6894
#
#
#
# Elastic Compliance Matrix: (Units=1/GPa)
#
#
# Indices 1 2 3 4 5 6 
#
# 1 0.016515 -0.004071 -0.006879 0.000000 0.000000 0.000000
# 2 -0.004071 0.016515 -0.006879 0.000000 0.000000 0.000000
# 3 -0.006879 -0.006879 0.029446 0.000000 0.000000 0.000000
# 4 0.000000 0.000000 0.000000 0.041518 0.000000 0.000000
# 5 0.000000 0.000000 0.000000 0.000000 0.041518 0.000000
# 6 0.000000 0.000000 0.000000 0.000000 0.000000 0.042213
#
#
# Mechanical properties :
#
#
# Convention : Reuss Voigt Hill
#
# Bulk Modulus (GPa) = 37.29190 40.41632 38.85411
# Shear Modulus (GPa) = 21.52153 22.51871 22.02012
#
# Velocity S-wave (km/s) = 3.43783 3.51657 3.47742
# Velocity P-wave (km/s) = 6.01974 6.21958 6.12047
#
# Compressibility (1/GPa) = 0.02681548
#
# Stress axis : x y z
#
# Youngs Moduli (GPa) = 60.54980 60.54980 33.96085
#
# Poissons Ratio (x) = 0.24653 0.23363
# Poissons Ratio (y) = 0.24653 0.23363
# Poissons Ratio (z) = 0.41655 0.41655
#
# Static dielectric constant tensor:
#      x y z
#    x 1.658530 0.000000 0.000000 
#    y 0.000000 1.658530 0.000000 
#    z 0.000000 0.000000 1.610020 
# 
# From -- ./inp_files/6595.got.cif
#   From: 2010.05.17/outbox.cif.g08.bks.cpg/sg132_4_cif.got.tgz:6595.got - 2010.05.20 12:30:18.
