data_PCOD9567224
_publ_section_title
;
Structure prediction by ZEFSAII (Michael W. Deem and Ramdas Pophale) SiO2 
 PCOD9567224
Probable space group: P 42/M C M
;
_chemical_formula_sum "Si O2"
_cell_formula_units_Z 80
_cell_length_a 12.565255
_cell_length_b 12.565255
_cell_length_c 28.224105
_cell_angle_alpha 90.000000
_cell_angle_beta 90.000000
_cell_angle_gamma 90.000000
_cell_volume 4456.180690
_symmetry_space_group_name_H-M "P 42/M C M"
_symmetry_group_IT_number 132
_symmetry_cell_setting 'tetragonal'
loop_
_space_group_symop_operation_xyz
x,y,z
-y,x,1/2+z
-x,-y,z
y,-x,1/2+z
x,-y,1/2-z
-x,y,1/2-z
y,x,-z
-y,-x,-z
-x,-y,-z
y,-x,1/2-z
x,y,-z
-y,x,1/2-z
-x,y,1/2+z
x,-y,1/2+z
-y,-x,z
y,x,z
loop_
_atom_site_type_symbol
_atom_site_label
_atom_site_fract_x
_atom_site_fract_y
_atom_site_fract_z
Si Si1 0.677131 0.502752 0.097623
Si Si2 0.430646 0.891321 0.052312
Si Si3 0.172382 0.002424 0.306701
Si Si4 0.618149 0.949222 0.348132
Si Si5 0.560741 0.738903 0.299269
O O1 0.603564 0.396437 0.091550
O O2 0.602292 0.602292 0.085833
O O3 0.784245 0.494892 0.066640
O O4 0.709500 0.506464 0.153353
O O5 0.358721 0.909283 0.098568
O O6 0.500000 0.000000 0.050281
O O7 0.383067 0.876758 0.000000
O O8 0.115235 0.115235 0.319104
O O9 0.284674 0.980445 0.330955
O O10 0.185138 0.000000 0.250000
O O11 0.088115 0.911886 0.319394
O O12 0.615201 0.849584 0.312876
O O13 0.500000 0.000000 0.347011
O O14 0.500000 0.748327 0.250000
O O15 0.646907 0.646907 0.293908
#
# Coordination Sequence:
#
# PCOD9567224 Si02
#       5
#    16  16  16  16  16
#     4   9  18  33  53  79 108 136 175 223 265 311
#     4   9  19  37  55  73 103 142 180 218 267 320
#     4   9  19  36  57  78 103 140 179 215 259 310
#     4  10  21  35  53  80 108 135 175 223 265 310
#     4  10  20  32  49  74 108 148 177 205 254 317
#
# _framework density 17.952594999999999
#
# number of rings (size 3 to 8) (size 9 to 14) (size 15 to 20)
#    0.000    2.600    0.000    1.800    2.800    2.600 
#    0.000   10.000    0.000    1.800    0.000    1.400 
#    0.000    0.000    0.000    0.000    0.000    0.000 
#
# Total GULP energy -445548.812233 kJ/mol
# GULP energy per Si atom -5569.360153 kJ/mol
# Density = 1.791173 g / cm^3
# Si number density = 17.952595 Si / 1000 Ang^3
#
#
#
# Elastic Constant Matrix: (Units=GPa)
#
#
# Indices 1 2 3 4 5 6 
#
# 1 80.6304 15.4711 37.7578 0.0000 0.0000 0.0000
# 2 15.4711 80.6304 37.7578 0.0000 0.0000 0.0000
# 3 37.7578 37.7578 100.8364 0.0000 0.0000 0.0000
# 4 0.0000 0.0000 0.0000 -20.5957 0.0000 0.0000
# 5 0.0000 0.0000 0.0000 0.0000 -20.5957 0.0000
# 6 0.0000 0.0000 0.0000 0.0000 0.0000 10.1920
#
#
#
# Elastic Compliance Matrix: (Units=1/GPa)
#
#
# Indices 1 2 3 4 5 6 
#
# 1 0.015045 -0.000302 -0.005521 0.000000 0.000000 0.000000
# 2 -0.000302 0.015045 -0.005521 0.000000 0.000000 0.000000
# 3 -0.005521 -0.005521 0.014052 0.000000 0.000000 0.000000
# 4 0.000000 0.000000 0.000000 -0.048554 0.000000 0.000000
# 5 0.000000 0.000000 0.000000 0.000000 -0.048554 0.000000
# 6 0.000000 0.000000 0.000000 0.000000 0.000000 0.098117
#
#
# Mechanical properties :
#
#
# Convention : Reuss Voigt Hill
#
# Bulk Modulus (GPa) = 46.60683 49.34119 47.97401
# Shear Modulus (GPa) = 66.67612 5.20750 35.94181
#
# Velocity S-wave (km/s) = 6.10088 1.70499 4.47927
# Velocity P-wave (km/s) = 8.69742 5.60534 7.31659
#
# Compressibility (1/GPa) = 0.02145608
#
# Stress axis : x y z
#
# Youngs Moduli (GPa) = 66.46546 66.46546 71.16675
#
# Poissons Ratio (x) = 0.02005 0.39289
# Poissons Ratio (y) = 0.02005 0.39289
# Poissons Ratio (z) = 0.36694 0.36694
#
# Static dielectric constant tensor:
#      x y z
#    x 1.633940 0.000000 0.000000 
#    y 0.000000 1.633940 0.000000 
#    z 0.000000 0.000000 1.622400 
# 
# From -- ./inp_files/10616.got.cif
#   From: 2010.05.17/outbox.cif.g08.bks.cpg/sg132_6_cif.got.tgz:10616.got - 2010.05.20 12:30:18.
