data_PCOD9567734
_publ_section_title
;
Structure prediction by ZEFSAII (Michael W. Deem and Ramdas Pophale) SiO2 
 PCOD9567734
Probable space group: P 42/N B C
;
_chemical_formula_sum "Si O2"
_cell_formula_units_Z 48
_cell_length_a 14.083490
_cell_length_b 14.083490
_cell_length_c 9.593283
_cell_angle_alpha 90.000000
_cell_angle_beta 90.000000
_cell_angle_gamma 90.000000
_cell_volume 1902.776748
_symmetry_space_group_name_H-M "P 42/N B C"
_symmetry_group_IT_number 133
_space_group.IT_coordinate_system_code '2'
_symmetry_cell_setting 'tetragonal'
loop_
_space_group_symop_operation_xyz
x,y,z
1/2-y,x,1/2+z
1/2-x,1/2-y,z
y,1/2-x,1/2+z
x,1/2-y,-z
1/2-x,y,-z
y,x,1/2-z
1/2-y,1/2-x,1/2-z
-x,-y,-z
1/2+y,-x,1/2-z
1/2+x,1/2+y,-z
-y,1/2+x,1/2-z
-x,1/2+y,z
1/2+x,-y,z
-y,-x,1/2+z
1/2+y,1/2+x,1/2+z
loop_
_atom_site_type_symbol
_atom_site_label
_atom_site_fract_x
_atom_site_fract_y
_atom_site_fract_z
Si Si1 0.649154 0.661420 0.917491
Si Si2 0.864595 0.466356 0.980169
Si Si3 0.881952 0.332605 0.213507
O O1 0.667296 0.667296 0.750000
O O2 0.598729 0.561653 0.948413
O O3 0.602506 0.750000 0.000000
O O4 0.750000 0.654384 0.000000
O O5 0.897053 0.373085 0.061281
O O6 0.750000 0.463173 0.000000
O O7 0.874908 0.460559 0.815911
O O8 0.872648 0.219783 0.230515
#
# Coordination Sequence:
#
# PCOD9567734 Si02
#       3
#    16  16  16
#     4  10  20  38  61  83 107 148 201 250 300 352
#     4   9  18  32  53  85 118 150 191 235 287 349
#     4   9  16  30  54  85 121 157 189 228 281 345
#
# _framework density 25.226289999999999
#
# number of rings (size 3 to 8) (size 9 to 14) (size 15 to 20)
#    0.000    2.667    0.000    3.000    0.000    4.000 
#    0.000   15.000    0.000    0.000    0.000    7.000 
#    0.000    0.000    0.000    0.000    0.000    0.000 
#
# Total GULP energy -267996.342802 kJ/mol
# GULP energy per Si atom -5583.257142 kJ/mol
# Density = 2.516887 g / cm^3
# Si number density = 25.226290 Si / 1000 Ang^3
#
#
#
# Elastic Constant Matrix: (Units=GPa)
#
#
# Indices 1 2 3 4 5 6 
#
# 1 72.1150 -2.1450 28.5379 0.0000 0.0000 0.0000
# 2 -2.1450 72.1150 28.5379 0.0000 0.0000 0.0000
# 3 28.5379 28.5379 178.4283 0.0000 0.0000 0.0000
# 4 0.0000 0.0000 0.0000 14.2671 0.0000 0.0000
# 5 0.0000 0.0000 0.0000 0.0000 14.2671 0.0000
# 6 0.0000 0.0000 0.0000 0.0000 0.0000 12.4079
#
#
#
# Elastic Compliance Matrix: (Units=1/GPa)
#
#
# Indices 1 2 3 4 5 6 
#
# 1 0.014951 0.001485 -0.002629 0.000000 0.000000 0.000000
# 2 0.001485 0.014951 -0.002629 0.000000 0.000000 0.000000
# 3 -0.002629 -0.002629 0.006445 0.000000 0.000000 0.000000
# 4 0.000000 0.000000 0.000000 0.070091 0.000000 0.000000
# 5 0.000000 0.000000 0.000000 0.000000 0.070091 0.000000
# 6 0.000000 0.000000 0.000000 0.000000 0.000000 0.080594
#
#
# Mechanical properties :
#
#
# Convention : Reuss Voigt Hill
#
# Bulk Modulus (GPa) = 34.71913 48.05775 41.38844
# Shear Modulus (GPa) = 18.23018 26.03692 22.13355
#
# Velocity S-wave (km/s) = 2.69116 3.21617 2.96531
# Velocity P-wave (km/s) = 4.84246 5.73443 5.30722
#
# Compressibility (1/GPa) = 0.02880256
#
# Stress axis : x y z
#
# Youngs Moduli (GPa) = 66.88425 66.88425 155.14954
#
# Poissons Ratio (x) = -0.09932 0.40786
# Poissons Ratio (y) = -0.09932 0.40786
# Poissons Ratio (z) = 0.17583 0.17583
#
# Static dielectric constant tensor:
#      x y z
#    x 2.082750 0.000000 0.000000 
#    y 0.000000 2.082750 0.000000 
#    z 0.000000 0.000000 1.906410 
# 
# From -- ./inp_files/1080.got.cif
#   From: 2010.05.17/outbox.cif.g08.bks.cpg/sg133_1_cif.got.tgz:1080.got - 2010.05.20 12:37:36.
