data_PCOD9567665
_publ_section_title
;
Structure prediction by ZEFSAII (Michael W. Deem and Ramdas Pophale) SiO2 
 PCOD9567665
Probable space group: P 42/N B C
;
_chemical_formula_sum "Si O2"
_cell_formula_units_Z 60
_cell_length_a 17.470147
_cell_length_b 17.470147
_cell_length_c 9.309348
_cell_angle_alpha 90.000000
_cell_angle_beta 90.000000
_cell_angle_gamma 90.000000
_cell_volume 2841.269203
_symmetry_space_group_name_H-M "P 42/N B C"
_symmetry_group_IT_number 133
_space_group.IT_coordinate_system_code '2'
_symmetry_cell_setting 'tetragonal'
loop_
_space_group_symop_operation_xyz
x,y,z
1/2-y,x,1/2+z
1/2-x,1/2-y,z
y,1/2-x,1/2+z
x,1/2-y,-z
1/2-x,y,-z
y,x,1/2-z
1/2-y,1/2-x,1/2-z
-x,-y,-z
1/2+y,-x,1/2-z
1/2+x,1/2+y,-z
-y,1/2+x,1/2-z
-x,1/2+y,z
1/2+x,-y,z
-y,-x,1/2+z
1/2+y,1/2+x,1/2+z
loop_
_atom_site_type_symbol
_atom_site_label
_atom_site_fract_x
_atom_site_fract_y
_atom_site_fract_z
Si Si1 0.111987 0.817095 0.682898
Si Si2 0.427620 0.093828 0.408609
Si Si3 0.443362 0.600041 0.951738
Si Si4 0.250000 0.750000 0.500000
Si Si5 0.750000 0.512141 0.000000
O O1 0.098246 0.839185 0.847573
O O2 0.094423 0.894708 0.596757
O O3 0.192038 0.792018 0.611682
O O4 0.047186 0.756566 0.633728
O O5 0.394812 0.105189 0.250000
O O6 0.514632 0.062133 0.387290
O O7 0.438315 0.174309 0.487243
O O8 0.384370 0.030600 0.504207
#
# Coordination Sequence:
#
# PCOD9567665 Si02
#       5
#    16  16  16   4   8
#     4  10  21  38  56  92 129 178 210 259 317 405
#     4  10  19  37  62  91 119 165 217 286 325 392
#     4  10  20  35  62  87 121 168 232 262 318 382
#     4  10  24  38  60  86 154 180 202 254 334 406
#     4   9  22  35  58  90 128 152 214 280 341 366
#
# _framework density 21.117324
#
# number of rings (size 3 to 8) (size 9 to 14) (size 15 to 20)
#    0.000    2.133    2.667    0.000    0.000    7.467 
#    0.000    0.000    0.000    0.000    0.000   13.067 
#    0.000    0.000    0.000    0.000    0.000    0.000 
#
# Total GULP energy -334899.120181 kJ/mol
# GULP energy per Si atom -5581.652003 kJ/mol
# Density = 2.106926 g / cm^3
# Si number density = 21.117324 Si / 1000 Ang^3
#
#
#
# Elastic Constant Matrix: (Units=GPa)
#
#
# Indices 1 2 3 4 5 6 
#
# 1 86.7049 32.9756 23.6103 0.0000 0.0000 0.0000
# 2 32.9756 86.7038 23.6100 0.0000 0.0000 0.0000
# 3 23.6103 23.6100 96.1889 0.0000 0.0000 0.0000
# 4 0.0000 0.0000 0.0000 27.6514 0.0000 0.0000
# 5 0.0000 0.0000 0.0000 0.0000 27.6513 0.0000
# 6 0.0000 0.0000 0.0000 0.0000 0.0000 22.8964
#
#
#
# Elastic Compliance Matrix: (Units=1/GPa)
#
#
# Indices 1 2 3 4 5 6 
#
# 1 0.013932 -0.004680 -0.002271 0.000000 0.000000 0.000000
# 2 -0.004680 0.013932 -0.002271 0.000000 0.000000 0.000000
# 3 -0.002271 -0.002271 0.011511 0.000000 0.000000 0.000000
# 4 0.000000 0.000000 0.000000 0.036165 0.000000 0.000000
# 5 0.000000 0.000000 0.000000 0.000000 0.036165 0.000000
# 6 0.000000 0.000000 0.000000 0.000000 0.000000 0.043675
#
#
# Mechanical properties :
#
#
# Convention : Reuss Voigt Hill
#
# Bulk Modulus (GPa) = 47.77659 47.77660 47.77660
# Shear Modulus (GPa) = 27.65492 28.26659 27.96075
#
# Velocity S-wave (km/s) = 3.62274 3.66259 3.64272
# Velocity P-wave (km/s) = 6.33818 6.36864 6.35343
#
# Compressibility (1/GPa) = 0.02093075
#
# Stress axis : x y z
#
# Youngs Moduli (GPa) = 71.77866 71.77779 86.87337
#
# Poissons Ratio (x) = 0.33593 0.19728
# Poissons Ratio (y) = 0.33594 0.19728
# Poissons Ratio (z) = 0.16300 0.16300
#
# Static dielectric constant tensor:
#      x y z
#    x 1.787690 0.000000 0.000000 
#    y 0.000000 1.787690 0.000000 
#    z 0.000000 0.000000 1.811350 
# 
# From -- ./inp_files/1330.got.cif
#   From: 2010.05.17/outbox.cif.g08.bks.cpg/sg133_1_cif.got.tgz:1330.got - 2010.05.20 12:37:36.
