data_PCOD9567014
_publ_section_title
;
Structure prediction by ZEFSAII (Michael W. Deem and Ramdas Pophale) SiO2 
 PCOD9567014
Probable space group: P 42/M C M
;
_chemical_formula_sum "Si O2"
_cell_formula_units_Z 116
_cell_length_a 28.478670
_cell_length_b 28.478670
_cell_length_c 9.033033
_cell_angle_alpha 90.000000
_cell_angle_beta 90.000000
_cell_angle_gamma 90.000000
_cell_volume 7326.102712
_symmetry_space_group_name_H-M "P 42/M C M"
_symmetry_group_IT_number 132
_symmetry_cell_setting 'tetragonal'
loop_
_space_group_symop_operation_xyz
x,y,z
-y,x,1/2+z
-x,-y,z
y,-x,1/2+z
x,-y,1/2-z
-x,y,1/2-z
y,x,-z
-y,-x,-z
-x,-y,-z
y,-x,1/2-z
x,y,-z
-y,x,1/2-z
-x,y,1/2+z
x,-y,1/2+z
-y,-x,z
y,x,z
loop_
_atom_site_type_symbol
_atom_site_label
_atom_site_fract_x
_atom_site_fract_y
_atom_site_fract_z
Si Si1 0.048210 0.589541 0.823383
Si Si2 0.139704 0.275771 0.836760
Si Si3 0.549115 0.148238 0.178179
Si Si4 0.629166 0.449864 0.676029
Si Si5 0.951029 0.300222 0.176315
Si Si6 0.619155 0.301060 0.828912
Si Si7 0.796832 0.635581 0.177964
Si Si8 0.802613 0.197388 0.500000
O O1 0.093907 0.559950 0.782855
O O2 0.056058 0.644504 0.782951
O O3 0.000000 0.573441 0.750000
O O4 0.042988 0.587821 0.000000
O O5 0.094553 0.272684 0.733330
O O6 0.175056 0.316676 0.784782
O O7 0.168973 0.228855 0.872944
O O8 0.121459 0.291496 0.000000
O O9 0.500000 0.162692 0.250000
O O10 0.591666 0.177578 0.246842
O O11 0.548291 0.152805 0.000000
O O12 0.620795 0.500000 0.750000
O O13 0.636006 0.454449 0.500000
O O14 0.585091 0.414910 0.700667
O O15 0.674110 0.424946 0.750298
O O16 0.000000 0.285007 0.250000
O O17 0.954865 0.297251 0.000000
O O18 0.660537 0.339464 0.827149
O O19 0.635867 0.255567 0.741008
O O20 0.608328 0.289555 0.000000
O O21 0.796107 0.631235 0.000000
#
# Coordination Sequence:
#
# PCOD9567014 Si02
#       8
#    16  16  16  16  16  16  16   4
#     4   9  19  33  51  73 100 132 171 225 278 328
#     4   9  19  34  54  77 110 146 185 226 279 328
#     4  11  23  39  53  72 101 132 175 224 282 341
#     4  10  21  38  59  83 108 133 160 195 241 302
#     4  10  18  31  53  81 110 145 191 239 283 328
#     4  10  22  38  57  80 105 133 165 205 252 304
#     4  11  22  35  57  77 101 135 176 222 272 325
#     4   8  20  36  54  80 116 152 184 235 285 328
#
# _framework density 15.833793
#
# number of rings (size 3 to 8) (size 9 to 14) (size 15 to 20)
#    0.414    1.655    1.379    2.069    0.966    4.828 
#    0.000    5.172    0.000    0.000    0.000    0.000 
#    0.000    0.000    0.000    0.000    0.000    1.034 
#
# Total GULP energy -645837.636188 kJ/mol
# GULP energy per Si atom -5567.565829 kJ/mol
# Density = 1.579775 g / cm^3
# Si number density = 15.833793 Si / 1000 Ang^3
#
#
#
# Elastic Constant Matrix: (Units=GPa)
#
#
# Indices 1 2 3 4 5 6 
#
# 1 73.4287 25.8033 40.4953 0.0000 0.0000 0.0000
# 2 25.8033 73.4294 40.4955 0.0000 0.0000 0.0000
# 3 40.4953 40.4955 71.9217 0.0000 0.0000 0.0000
# 4 0.0000 0.0000 0.0000 27.6730 0.0000 0.0000
# 5 0.0000 0.0000 0.0000 0.0000 27.6730 0.0000
# 6 0.0000 0.0000 0.0000 0.0000 0.0000 17.4856
#
#
#
# Elastic Compliance Matrix: (Units=1/GPa)
#
#
# Indices 1 2 3 4 5 6 
#
# 1 0.019822 -0.001175 -0.010499 0.000000 0.000000 0.000000
# 2 -0.001175 0.019821 -0.010499 0.000000 0.000000 0.000000
# 3 -0.010499 -0.010499 0.025726 0.000000 0.000000 0.000000
# 4 0.000000 0.000000 0.000000 0.036136 0.000000 0.000000
# 5 0.000000 0.000000 0.000000 0.000000 0.036136 0.000000
# 6 0.000000 0.000000 0.000000 0.000000 0.000000 0.057190
#
#
# Mechanical properties :
#
#
# Convention : Reuss Voigt Hill
#
# Bulk Modulus (GPa) = 47.56453 48.04090 47.80271
# Shear Modulus (GPa) = 20.30989 22.03205 21.17097
#
# Velocity S-wave (km/s) = 3.58536 3.73427 3.66057
# Velocity P-wave (km/s) = 6.87349 6.99997 6.93702
#
# Compressibility (1/GPa) = 0.02102407
#
# Stress axis : x y z
#
# Youngs Moduli (GPa) = 50.44988 50.45043 38.87047
#
# Poissons Ratio (x) = 0.05930 0.40809
# Poissons Ratio (y) = 0.05930 0.40808
# Poissons Ratio (z) = 0.52966 0.52966
#
# Static dielectric constant tensor:
#      x y z
#    x 1.521200 0.000000 0.000000 
#    y 0.000000 1.521200 0.000000 
#    z 0.000000 0.000000 1.534400 
# 
# From -- ./inp_files/2058.got.cif
#   From: 2010.05.17/outbox.cif.g08.bks.cpg/sg132_2_cif.got.tgz:2058.got - 2010.05.20 12:30:18.
