data_PCOD9567045
_publ_section_title
;
Structure prediction by ZEFSAII (Michael W. Deem and Ramdas Pophale) SiO2 
 PCOD9567045
Probable space group: P 42/M C M
;
_chemical_formula_sum "Si O2"
_cell_formula_units_Z 120
_cell_length_a 17.857835
_cell_length_b 17.857835
_cell_length_c 23.409541
_cell_angle_alpha 90.000000
_cell_angle_beta 90.000000
_cell_angle_gamma 90.000000
_cell_volume 7465.355785
_symmetry_space_group_name_H-M "P 42/M C M"
_symmetry_group_IT_number 132
_symmetry_cell_setting 'tetragonal'
loop_
_space_group_symop_operation_xyz
x,y,z
-y,x,1/2+z
-x,-y,z
y,-x,1/2+z
x,-y,1/2-z
-x,y,1/2-z
y,x,-z
-y,-x,-z
-x,-y,-z
y,-x,1/2-z
x,y,-z
-y,x,1/2-z
-x,y,1/2+z
x,-y,1/2+z
-y,-x,z
y,x,z
loop_
_atom_site_type_symbol
_atom_site_label
_atom_site_fract_x
_atom_site_fract_y
_atom_site_fract_z
Si Si1 0.751127 0.867151 0.676563
Si Si2 0.986434 0.325409 0.313705
Si Si3 0.936027 0.551272 0.606928
Si Si4 0.816378 0.308336 0.295342
Si Si5 0.479892 0.194640 0.815769
Si Si6 0.624345 0.504104 0.000000
Si Si7 0.688766 0.432227 0.109168
Si Si8 0.334217 0.822618 0.936665
O O1 0.832168 0.832168 0.686102
O O2 0.698801 0.830416 0.726385
O O3 0.721095 0.843252 0.614740
O O4 0.743419 0.955780 0.681682
O O5 0.900648 0.301448 0.320428
O O6 0.000000 0.356501 0.250000
O O7 0.017743 0.388604 0.355483
O O8 0.877991 0.504337 0.646858
O O9 0.883970 0.599640 0.565910
O O10 0.000000 0.500000 0.579997
O O11 0.756611 0.243390 0.309990
O O12 0.791117 0.390700 0.314931
O O13 0.500000 0.180315 0.750000
O O14 0.526011 0.264947 0.841346
O O15 0.668812 0.489757 0.941626
O O16 0.582872 0.582872 0.000000
O O17 0.560783 0.439218 0.000000
O O18 0.614900 0.385101 0.127322
O O19 0.745002 0.373002 0.080164
O O20 0.301917 0.820598 0.000000
#
# Coordination Sequence:
#
# PCOD9567045 Si02
#       8
#    16  16  16  16  16   8  16  16
#     4   9  18  30  47  73 101 128 156 192 236 289
#     4   9  16  29  46  68  96 129 157 192 232 279
#     4  10  19  29  47  69  98 130 163 197 236 288
#     4  10  19  32  49  72 101 129 162 197 237 286
#     4  11  21  31  48  76 101 130 160 198 244 298
#     4   9  18  34  54  68  79 112 170 222 247 274
#     4  10  20  34  50  67  92 125 160 201 248 292
#     4  10  19  30  46  70  96 127 159 192 245 299
#
# _framework density 16.074251
#
# number of rings (size 3 to 8) (size 9 to 14) (size 15 to 20)
#    0.000    2.200    2.000    3.600    0.000    3.200 
#    0.000    0.000    0.000    0.400    0.000    3.733 
#    0.000    0.000    0.000    4.800    0.000    3.733 
#
# Total GULP energy -668320.004261 kJ/mol
# GULP energy per Si atom -5569.333369 kJ/mol
# Density = 1.603767 g / cm^3
# Si number density = 16.074251 Si / 1000 Ang^3
#
#
#
# Elastic Constant Matrix: (Units=GPa)
#
#
# Indices 1 2 3 4 5 6 
#
# 1 79.1897 50.6523 18.1414 0.0000 0.0000 0.0000
# 2 50.6523 79.1895 18.1414 0.0000 0.0000 0.0000
# 3 18.1414 18.1414 61.9676 0.0000 0.0000 0.0000
# 4 0.0000 0.0000 0.0000 2.5950 0.0000 0.0000
# 5 0.0000 0.0000 0.0000 0.0000 2.5946 0.0000
# 6 0.0000 0.0000 0.0000 0.0000 0.0000 31.9189
#
#
#
# Elastic Compliance Matrix: (Units=1/GPa)
#
#
# Indices 1 2 3 4 5 6 
#
# 1 0.021715 -0.013327 -0.002456 0.000000 0.000000 0.000000
# 2 -0.013327 0.021715 -0.002456 0.000000 0.000000 0.000000
# 3 -0.002456 -0.002456 0.017575 0.000000 0.000000 0.000000
# 4 0.000000 0.000000 0.000000 0.385351 0.000000 0.000000
# 5 0.000000 0.000000 0.000000 0.000000 0.385419 0.000000
# 6 0.000000 0.000000 0.000000 0.000000 0.000000 0.031329
#
#
# Mechanical properties :
#
#
# Convention : Reuss Voigt Hill
#
# Bulk Modulus (GPa) = 40.76878 43.80189 42.28534
# Shear Modulus (GPa) = 5.50809 16.31582 10.91195
#
# Velocity S-wave (km/s) = 1.85313 3.18941 2.60830
# Velocity P-wave (km/s) = 5.47692 6.39312 5.95267
#
# Compressibility (1/GPa) = 0.02452857
#
# Stress axis : x y z
#
# Youngs Moduli (GPa) = 46.05154 46.05141 56.89822
#
# Poissons Ratio (x) = 0.61373 0.13972
# Poissons Ratio (y) = 0.61373 0.13972
# Poissons Ratio (z) = 0.11308 0.11308
#
# Static dielectric constant tensor:
#      x y z
#    x 1.553630 0.000000 0.000000 
#    y 0.000000 1.553630 0.000000 
#    z 0.000000 0.000000 1.545340 
# 
# From -- ./inp_files/8222.got.cif
#   From: 2010.05.17/outbox.cif.g08.bks.cpg/sg132_5_cif.got.tgz:8222.got - 2010.05.20 12:30:18.
