data_PCOD9567248
_publ_section_title
;
Structure prediction by ZEFSAII (Michael W. Deem and Ramdas Pophale) SiO2 
 PCOD9567248
Probable space group: P 42/M C M
;
_chemical_formula_sum "Si O2"
_cell_formula_units_Z 112
_cell_length_a 14.619009
_cell_length_b 14.619009
_cell_length_c 29.705490
_cell_angle_alpha 90.000000
_cell_angle_beta 90.000000
_cell_angle_gamma 90.000000
_cell_volume 6348.521395
_symmetry_space_group_name_H-M "P 42/M C M"
_symmetry_group_IT_number 132
_symmetry_cell_setting 'tetragonal'
loop_
_space_group_symop_operation_xyz
x,y,z
-y,x,1/2+z
-x,-y,z
y,-x,1/2+z
x,-y,1/2-z
-x,y,1/2-z
y,x,-z
-y,-x,-z
-x,-y,-z
y,-x,1/2-z
x,y,-z
-y,x,1/2-z
-x,y,1/2+z
x,-y,1/2+z
-y,-x,z
y,x,z
loop_
_atom_site_type_symbol
_atom_site_label
_atom_site_fract_x
_atom_site_fract_y
_atom_site_fract_z
Si Si1 0.553124 0.299970 0.579469
Si Si2 0.610330 0.017864 0.899038
Si Si3 0.373750 0.764914 0.770995
Si Si4 0.151775 0.703895 0.552834
Si Si5 0.032025 0.604994 0.202709
Si Si6 0.307682 0.454620 0.814030
Si Si7 0.213613 0.363427 0.553245
O O1 0.601118 0.398883 0.570862
O O2 0.622043 0.224919 0.559472
O O3 0.550430 0.286316 0.633506
O O4 0.452349 0.277946 0.561623
O O5 0.638677 0.006516 0.846693
O O6 0.627512 0.120210 0.918097
O O7 0.500000 0.000000 0.902978
O O8 0.668701 0.941715 0.925269
O O9 0.272681 0.727320 0.775942
O O10 0.391885 0.859586 0.794000
O O11 0.400786 0.763777 0.718249
O O12 0.444044 0.696156 0.795089
O O13 0.136062 0.717205 0.500000
O O14 0.204923 0.795078 0.570413
O O15 0.000000 0.500000 0.203712
O O16 0.000000 0.649061 0.250000
O O17 0.403353 0.403353 0.806833
O O18 0.190820 0.360912 0.500000
O O19 0.273884 0.273884 0.564589
#
# Coordination Sequence:
#
# PCOD9567248 Si02
#       7
#    16  16  16  16  16  16  16
#     4  10  20  33  52  79 113 151 190 230 275 332
#     4  11  22  36  60  85 110 146 188 234 281 334
#     4  10  20  33  51  73 106 148 188 228 268 320
#     4  10  21  36  57  83 109 140 182 234 286 334
#     4  10  21  34  52  77 108 142 179 221 276 328
#     4   9  18  30  47  72 104 146 190 228 265 309
#     4  11  24  39  56  81 114 151 192 237 285 337
#
# _framework density 17.641904
#
# number of rings (size 3 to 8) (size 9 to 14) (size 15 to 20)
#    0.000    1.857    1.429    3.429    4.000    4.286 
#    0.000    3.571    0.000    0.429    0.000    2.000 
#    0.000    1.429    0.000    0.143    0.000    0.143 
#
# Total GULP energy -624270.985612 kJ/mol
# GULP energy per Si atom -5573.848086 kJ/mol
# Density = 1.760175 g / cm^3
# Si number density = 17.641904 Si / 1000 Ang^3
#
#
#
# Elastic Constant Matrix: (Units=GPa)
#
#
# Indices 1 2 3 4 5 6 
#
# 1 77.9552 42.4530 35.9491 0.0000 0.0000 0.0000
# 2 42.4530 77.9552 35.9491 0.0000 0.0000 0.0000
# 3 35.9491 35.9491 100.7827 0.0000 0.0000 0.0000
# 4 0.0000 0.0000 0.0000 30.6436 0.0000 0.0000
# 5 0.0000 0.0000 0.0000 0.0000 30.6436 0.0000
# 6 0.0000 0.0000 0.0000 0.0000 0.0000 23.7437
#
#
#
# Elastic Compliance Matrix: (Units=1/GPa)
#
#
# Indices 1 2 3 4 5 6 
#
# 1 0.019360 -0.008807 -0.003764 0.000000 0.000000 0.000000
# 2 -0.008807 0.019360 -0.003764 0.000000 0.000000 0.000000
# 3 -0.003764 -0.003764 0.012608 0.000000 0.000000 0.000000
# 4 0.000000 0.000000 0.000000 0.032633 0.000000 0.000000
# 5 0.000000 0.000000 0.000000 0.000000 0.032633 0.000000
# 6 0.000000 0.000000 0.000000 0.000000 0.000000 0.042116
#
#
# Mechanical properties :
#
#
# Convention : Reuss Voigt Hill
#
# Bulk Modulus (GPa) = 53.60051 53.93284 53.76667
# Shear Modulus (GPa) = 25.30357 26.49565 25.89961
#
# Velocity S-wave (km/s) = 3.79131 3.87959 3.83570
# Velocity P-wave (km/s) = 7.04371 7.12078 7.08235
#
# Compressibility (1/GPa) = 0.01865654
#
# Stress axis : x y z
#
# Youngs Moduli (GPa) = 51.65289 51.65289 79.31674
#
# Poissons Ratio (x) = 0.45492 0.29856
# Poissons Ratio (y) = 0.45492 0.29856
# Poissons Ratio (z) = 0.19443 0.19443
#
# Static dielectric constant tensor:
#      x y z
#    x 1.614330 0.000000 0.000000 
#    y 0.000000 1.614330 0.000000 
#    z 0.000000 0.000000 1.645390 
# 
# From -- ./inp_files/10065.got.cif
#   From: 2010.05.17/outbox.cif.g08.bks.cpg/sg132_6_cif.got.tgz:10065.got - 2010.05.20 12:30:18.
