data_PCOD9567067
_publ_section_title
;
Structure prediction by ZEFSAII (Michael W. Deem and Ramdas Pophale) SiO2 
 PCOD9567067
Probable space group: P 42/M C M
;
_chemical_formula_sum "Si O2"
_cell_formula_units_Z 96
_cell_length_a 25.769632
_cell_length_b 25.769632
_cell_length_c 9.074519
_cell_angle_alpha 90.000000
_cell_angle_beta 90.000000
_cell_angle_gamma 90.000000
_cell_volume 6026.151526
_symmetry_space_group_name_H-M "P 42/M C M"
_symmetry_group_IT_number 132
_symmetry_cell_setting 'tetragonal'
loop_
_space_group_symop_operation_xyz
x,y,z
-y,x,1/2+z
-x,-y,z
y,-x,1/2+z
x,-y,1/2-z
-x,y,1/2-z
y,x,-z
-y,-x,-z
-x,-y,-z
y,-x,1/2-z
x,y,-z
-y,x,1/2-z
-x,y,1/2+z
x,-y,1/2+z
-y,-x,z
y,x,z
loop_
_atom_site_type_symbol
_atom_site_label
_atom_site_fract_x
_atom_site_fract_y
_atom_site_fract_z
Si Si1 0.259893 0.944389 0.323114
Si Si2 0.255999 0.340502 0.676797
Si Si3 0.945177 0.138980 0.676615
Si Si4 0.865696 0.660604 0.323182
Si Si5 0.447748 0.258920 0.168860
Si Si6 0.867313 0.447459 0.329852
O O1 0.266282 0.946784 0.500000
O O2 0.199210 0.933332 0.290028
O O3 0.296179 0.900831 0.252963
O O4 0.272078 0.000000 0.250000
O O5 0.258732 0.346178 0.500000
O O6 0.293148 0.293148 0.721118
O O7 0.195374 0.331203 0.713143
O O8 0.273098 0.394483 0.750111
O O9 0.950459 0.134989 0.500000
O O10 0.899721 0.100280 0.724688
O O11 0.000000 0.125607 0.750000
O O12 0.871235 0.661582 0.500000
O O13 0.881215 0.604263 0.259502
O O14 0.500000 0.276697 0.250000
O O15 0.449199 0.195769 0.169517
O O16 0.447326 0.276050 0.000000
O O17 0.885315 0.500000 0.250000
O O18 0.884303 0.444965 0.500000
#
# Coordination Sequence:
#
# PCOD9567067 Si02
#       6
#    16  16  16  16  16  16
#     4  10  20  35  53  71  93 123 159 197 234 275
#     4   9  18  31  45  65  97 131 159 192 235 281
#     4   9  19  35  53  74  99 125 154 190 233 280
#     4  10  19  31  48  70  95 125 160 195 235 283
#     4   9  16  26  42  63  88 121 160 198 235 278
#     4   9  16  27  44  67  93 121 155 195 237 279
#
# _framework density 15.930565
#
# number of rings (size 3 to 8) (size 9 to 14) (size 15 to 20)
#    0.000    2.667    0.000    2.000    0.000    6.833 
#    0.000    0.833    0.000    0.500    0.000    3.500 
#    0.000    0.333    0.000    3.500    0.000    1.833 
#
# Total GULP energy -535090.973498 kJ/mol
# GULP energy per Si atom -5573.864307 kJ/mol
# Density = 1.589431 g / cm^3
# Si number density = 15.930565 Si / 1000 Ang^3
#
#
#
# Elastic Constant Matrix: (Units=GPa)
#
#
# Indices 1 2 3 4 5 6 
#
# 1 102.4009 85.5526 57.3411 0.0000 0.0000 0.0000
# 2 85.5526 102.4009 57.3411 0.0000 0.0000 0.0000
# 3 57.3411 57.3411 74.6101 0.0000 0.0000 0.0000
# 4 0.0000 0.0000 0.0000 25.2387 0.0000 0.0000
# 5 0.0000 0.0000 0.0000 0.0000 25.2387 0.0000
# 6 0.0000 0.0000 0.0000 0.0000 0.0000 -4.0172
#
#
#
# Elastic Compliance Matrix: (Units=1/GPa)
#
#
# Indices 1 2 3 4 5 6 
#
# 1 0.034686 -0.024667 -0.007700 0.000000 0.000000 0.000000
# 2 -0.024667 0.034686 -0.007700 0.000000 0.000000 0.000000
# 3 -0.007700 -0.007700 0.025238 0.000000 0.000000 0.000000
# 4 0.000000 0.000000 0.000000 0.039622 0.000000 0.000000
# 5 0.000000 0.000000 0.000000 0.000000 0.039622 0.000000
# 6 0.000000 0.000000 0.000000 0.000000 0.000000 -0.248927
#
#
# Mechanical properties :
#
#
# Convention : Reuss Voigt Hill
#
# Bulk Modulus (GPa) = 69.07778 75.54241 72.31009
# Shear Modulus (GPa) = 505.81445 14.57048 260.19246
#
# Velocity S-wave (km/s) = 17.83820 3.02756 12.79389
# Velocity P-wave (km/s) = 21.62693 7.72944 16.23990
#
# Compressibility (1/GPa) = 0.01447644
#
# Stress axis : x y z
#
# Youngs Moduli (GPa) = 28.83016 28.83016 39.62262
#
# Poissons Ratio (x) = 0.71116 0.30508
# Poissons Ratio (y) = 0.71116 0.30508
# Poissons Ratio (z) = 0.22198 0.22198
#
# Static dielectric constant tensor:
#      x y z
#    x 1.516310 0.000000 0.000000 
#    y 0.000000 1.516310 0.000000 
#    z 0.000000 0.000000 1.534730 
# 
# From -- ./inp_files/1696.got.cif
#   From: 2010.05.17/outbox.cif.g08.bks.cpg/sg132_1_cif.got.tgz:1696.got - 2010.05.20 12:30:18.
