data_PCOD9567211
_publ_section_title
;
Structure prediction by ZEFSAII (Michael W. Deem and Ramdas Pophale) SiO2 
 PCOD9567211
Probable space group: P 42/M C M
;
_chemical_formula_sum "Si O2"
_cell_formula_units_Z 96
_cell_length_a 25.856463
_cell_length_b 25.856463
_cell_length_c 8.957767
_cell_angle_alpha 90.000000
_cell_angle_beta 90.000000
_cell_angle_gamma 90.000000
_cell_volume 5988.774956
_symmetry_space_group_name_H-M "P 42/M C M"
_symmetry_group_IT_number 132
_symmetry_cell_setting 'tetragonal'
loop_
_space_group_symop_operation_xyz
x,y,z
-y,x,1/2+z
-x,-y,z
y,-x,1/2+z
x,-y,1/2-z
-x,y,1/2-z
y,x,-z
-y,-x,-z
-x,-y,-z
y,-x,1/2-z
x,y,-z
-y,x,1/2-z
-x,y,1/2+z
x,-y,1/2+z
-y,-x,z
y,x,z
loop_
_atom_site_type_symbol
_atom_site_label
_atom_site_fract_x
_atom_site_fract_y
_atom_site_fract_z
Si Si1 0.139647 0.665954 0.318916
Si Si2 0.740879 0.447087 0.327813
Si Si3 0.741168 0.055577 0.179553
Si Si4 0.054574 0.862058 0.820968
Si Si5 0.448312 0.133311 0.829801
Si Si6 0.747337 0.339186 0.821723
O O1 0.140829 0.666931 0.500000
O O2 0.100889 0.707768 0.252377
O O3 0.120632 0.608546 0.269230
O O4 0.197831 0.672637 0.257113
O O5 0.722740 0.500000 0.250000
O O6 0.724249 0.444427 0.500000
O O7 0.803814 0.449338 0.328156
O O8 0.728046 0.394539 0.240495
O O9 0.801893 0.064328 0.214614
O O10 0.726989 0.000000 0.250000
O O11 0.735005 0.054554 0.000000
O O12 0.100619 0.899382 0.770738
O O13 0.000000 0.877338 0.750000
O O14 0.050427 0.865672 0.000000
O O15 0.500000 0.114773 0.750000
O O16 0.450509 0.115957 0.000000
O O17 0.705584 0.294417 0.791971
O O18 0.755296 0.342905 0.000000
#
# Coordination Sequence:
#
# PCOD9567211 Si02
#       6
#    16  16  16  16  16  16
#     4  10  20  33  49  71  97 126 161 199 242 291
#     4   9  16  27  44  65  91 125 164 203 243 289
#     4  10  20  35  54  73  95 126 162 199 237 280
#     4   9  19  35  53  74  99 124 152 188 229 275
#     4   8  15  26  42  65  91 118 150 190 233 278
#     4  10  20  32  46  68 100 134 166 202 245 292
#
# _framework density 16.029990000000002
#
# number of rings (size 3 to 8) (size 9 to 14) (size 15 to 20)
#    0.000    2.667    0.000    3.000    0.000    7.833 
#    0.000    2.500    0.000    0.500    0.000    3.500 
#    0.000    0.333    0.000    3.500    0.000    1.667 
#
# Total GULP energy -534869.594177 kJ/mol
# GULP energy per Si atom -5571.558273 kJ/mol
# Density = 1.599351 g / cm^3
# Si number density = 16.029990 Si / 1000 Ang^3
#
#
#
# Elastic Constant Matrix: (Units=GPa)
#
#
# Indices 1 2 3 4 5 6 
#
# 1 96.4842 75.0934 51.5931 0.0000 0.0000 0.0000
# 2 75.0934 96.4842 51.5931 0.0000 0.0000 0.0000
# 3 51.5931 51.5931 71.2417 0.0000 0.0000 0.0000
# 4 0.0000 0.0000 0.0000 24.3709 0.0000 0.0000
# 5 0.0000 0.0000 0.0000 0.0000 24.3709 0.0000
# 6 0.0000 0.0000 0.0000 0.0000 0.0000 -4.3123
#
#
#
# Elastic Compliance Matrix: (Units=1/GPa)
#
#
# Indices 1 2 3 4 5 6 
#
# 1 0.028537 -0.018212 -0.007477 0.000000 0.000000 0.000000
# 2 -0.018212 0.028537 -0.007477 0.000000 0.000000 0.000000
# 3 -0.007477 -0.007477 0.024867 0.000000 0.000000 0.000000
# 4 0.000000 0.000000 0.000000 0.041033 0.000000 0.000000
# 5 0.000000 0.000000 0.000000 0.000000 0.041033 0.000000
# 6 0.000000 0.000000 0.000000 0.000000 0.000000 -0.231897
#
#
# Mechanical properties :
#
#
# Convention : Reuss Voigt Hill
#
# Bulk Modulus (GPa) = 64.07162 68.97437 66.52300
# Shear Modulus (GPa) = 1371.45887 14.61460 693.03673
#
# Velocity S-wave (km/s) = 29.28166 3.02272 20.81529
# Velocity P-wave (km/s) = 34.39880 7.43668 24.88555
#
# Compressibility (1/GPa) = 0.01560753
#
# Stress axis : x y z
#
# Youngs Moduli (GPa) = 35.04194 35.04194 40.21376
#
# Poissons Ratio (x) = 0.63818 0.30070
# Poissons Ratio (y) = 0.63818 0.30070
# Poissons Ratio (z) = 0.26203 0.26203
#
# Static dielectric constant tensor:
#      x y z
#    x 1.526920 0.000000 0.000000 
#    y 0.000000 1.526920 0.000000 
#    z 0.000000 0.000000 1.544330 
# 
# From -- ./inp_files/1695.got.cif
#   From: 2010.05.17/outbox.cif.g08.bks.cpg/sg132_1_cif.got.tgz:1695.got - 2010.05.20 12:30:18.
