data_PCOD9567167
_publ_section_title
;
Structure prediction by ZEFSAII (Michael W. Deem and Ramdas Pophale) SiO2 
 PCOD9567167
Probable space group: P 42/M C M
;
_chemical_formula_sum "Si O2"
_cell_formula_units_Z 120
_cell_length_a 20.105068
_cell_length_b 20.105068
_cell_length_c 16.095742
_cell_angle_alpha 90.000000
_cell_angle_beta 90.000000
_cell_angle_gamma 90.000000
_cell_volume 6506.120382
_symmetry_space_group_name_H-M "P 42/M C M"
_symmetry_group_IT_number 132
_symmetry_cell_setting 'tetragonal'
loop_
_space_group_symop_operation_xyz
x,y,z
-y,x,1/2+z
-x,-y,z
y,-x,1/2+z
x,-y,1/2-z
-x,y,1/2-z
y,x,-z
-y,-x,-z
-x,-y,-z
y,-x,1/2-z
x,y,-z
-y,x,1/2-z
-x,y,1/2+z
x,-y,1/2+z
-y,-x,z
y,x,z
loop_
_atom_site_type_symbol
_atom_site_label
_atom_site_fract_x
_atom_site_fract_y
_atom_site_fract_z
Si Si1 0.226895 0.614376 0.648965
Si Si2 0.360470 0.254013 0.662083
Si Si3 0.499771 0.688622 0.348241
Si Si4 0.380788 0.110622 0.403916
Si Si5 0.660893 0.977856 0.154467
Si Si6 0.896185 0.534953 0.899576
Si Si7 0.445492 0.445492 0.907818
Si Si8 0.149989 0.257251 0.902930
O O1 0.255937 0.635016 0.737774
O O2 0.278340 0.564028 0.607670
O O3 0.164221 0.564485 0.654053
O O4 0.200702 0.680310 0.604884
O O5 0.298168 0.298168 0.634790
O O6 0.428442 0.284802 0.623719
O O7 0.356812 0.176281 0.642409
O O8 0.500000 0.705439 0.250000
O O9 0.482992 0.612341 0.358898
O O10 0.384716 0.127992 0.500000
O O11 0.457503 0.094025 0.378424
O O12 0.332297 0.048027 0.392364
O O13 0.588993 0.952135 0.122052
O O14 0.714549 0.918473 0.138940
O O15 0.658219 0.000000 0.250000
O O16 0.884210 0.539638 0.000000
O O17 0.500000 0.500000 0.920218
O O18 0.422826 0.422826 0.000000
O O19 0.191657 0.191657 0.872803
O O20 0.134812 0.246866 0.000000
#
# Coordination Sequence:
#
# PCOD9567167 Si02
#       8
#    16  16  16  16  16  16   8  16
#     4  10  19  34  55  80 104 136 188 236 282 337
#     4  11  23  38  55  77 107 145 193 240 292 352
#     4  10  23  37  57  74  97 138 183 238 301 356
#     4  11  22  36  55  79 110 150 188 231 284 341
#     4  11  22  35  56  85 118 150 185 226 273 329
#     4  10  20  35  54  79 112 147 185 230 283 341
#     4  11  26  40  52  74  94 122 174 242 308 364
#     4  10  21  37  59  86 120 156 187 228 280 330
#
# _framework density 18.444171000000001
#
# number of rings (size 3 to 8) (size 9 to 14) (size 15 to 20)
#    0.000    1.533    1.333    5.200    5.600    5.067 
#    0.000    0.000    0.000    0.000    0.000    0.000 
#    0.000    1.867    0.000    7.333    0.000    0.000 
#
# Total GULP energy -668437.534926 kJ/mol
# GULP energy per Si atom -5570.312791 kJ/mol
# Density = 1.840219 g / cm^3
# Si number density = 18.444171 Si / 1000 Ang^3
#
#
#
# Elastic Constant Matrix: (Units=GPa)
#
#
# Indices 1 2 3 4 5 6 
#
# 1 141.9707 21.3874 11.6790 0.0000 0.0000 0.0000
# 2 21.3874 141.9707 11.6790 0.0000 0.0000 0.0000
# 3 11.6790 11.6790 36.2394 0.0000 0.0000 0.0000
# 4 0.0000 0.0000 0.0000 28.3282 0.0000 0.0000
# 5 0.0000 0.0000 0.0000 0.0000 28.3282 0.0000
# 6 0.0000 0.0000 0.0000 0.0000 0.0000 20.1165
#
#
#
# Elastic Compliance Matrix: (Units=1/GPa)
#
#
# Indices 1 2 3 4 5 6 
#
# 1 0.007355 -0.000938 -0.002068 0.000000 0.000000 0.000000
# 2 -0.000938 0.007355 -0.002068 0.000000 0.000000 0.000000
# 3 -0.002068 -0.002068 0.028927 0.000000 0.000000 0.000000
# 4 0.000000 0.000000 0.000000 0.035301 0.000000 0.000000
# 5 0.000000 0.000000 0.000000 0.000000 0.035301 0.000000
# 6 0.000000 0.000000 0.000000 0.000000 0.000000 0.049710
#
#
# Mechanical properties :
#
#
# Convention : Reuss Voigt Hill
#
# Bulk Modulus (GPa) = 29.86027 45.51906 37.68967
# Shear Modulus (GPa) = 26.98905 33.71694 30.35300
#
# Velocity S-wave (km/s) = 3.82944 4.28021 4.06109
# Velocity P-wave (km/s) = 5.98143 7.01141 6.51680
#
# Compressibility (1/GPa) = 0.03348932
#
# Stress axis : x y z
#
# Youngs Moduli (GPa) = 135.95964 135.95964 34.56946
#
# Poissons Ratio (x) = 0.12752 0.07149
# Poissons Ratio (y) = 0.12752 0.07149
# Poissons Ratio (z) = 0.28118 0.28118
#
# Static dielectric constant tensor:
#      x y z
#    x 1.646500 0.000000 0.000000 
#    y 0.000000 1.646500 0.000000 
#    z 0.000000 0.000000 1.694920 
# 
# From -- ./inp_files/5124.got.cif
#   From: 2010.05.17/outbox.cif.g08.bks.cpg/sg132_3_cif.got.tgz:5124.got - 2010.05.20 12:30:18.
