data_PCOD9567762
_publ_section_title
;
Structure prediction by ZEFSAII (Michael W. Deem and Ramdas Pophale) SiO2 
 PCOD9567762
Probable space group: P 42/N B C
;
_chemical_formula_sum "Si O2"
_cell_formula_units_Z 108
_cell_length_a 13.946820
_cell_length_b 13.946820
_cell_length_c 25.093388
_cell_angle_alpha 90.000000
_cell_angle_beta 90.000000
_cell_angle_gamma 90.000000
_cell_volume 4881.009956
_symmetry_space_group_name_H-M "P 42/N B C"
_symmetry_group_IT_number 133
_space_group.IT_coordinate_system_code '2'
_symmetry_cell_setting 'tetragonal'
loop_
_space_group_symop_operation_xyz
x,y,z
1/2-y,x,1/2+z
1/2-x,1/2-y,z
y,1/2-x,1/2+z
x,1/2-y,-z
1/2-x,y,-z
y,x,1/2-z
1/2-y,1/2-x,1/2-z
-x,-y,-z
1/2+y,-x,1/2-z
1/2+x,1/2+y,-z
-y,1/2+x,1/2-z
-x,1/2+y,z
1/2+x,-y,z
-y,-x,1/2+z
1/2+y,1/2+x,1/2+z
loop_
_atom_site_type_symbol
_atom_site_label
_atom_site_fract_x
_atom_site_fract_y
_atom_site_fract_z
Si Si1 0.750000 0.250000 0.250000
Si Si2 0.046449 0.937260 0.579539
Si Si3 0.368866 0.126111 0.365845
Si Si4 0.115617 0.653907 0.025877
Si Si5 0.236494 0.546790 0.111596
Si Si6 0.097258 0.866736 0.799898
Si Si7 0.933890 0.566111 0.750000
Si Si8 0.829452 0.547626 0.391182
O O1 0.727629 0.149479 0.278776
O O2 0.087686 0.929751 0.520170
O O3 0.082024 0.845149 0.612562
O O4 0.932130 0.923765 0.584679
O O5 0.077224 0.036402 0.605890
O O6 0.432803 0.217481 0.382496
O O7 0.381556 0.106256 0.302785
O O8 0.258944 0.120147 0.384791
O O9 0.190368 0.588584 0.057724
O O10 0.038339 0.695458 0.068074
O O11 0.154541 0.750000 0.000000
O O12 0.174716 0.591270 0.158743
O O13 0.079958 0.952047 0.758168
O O14 0.001435 0.846493 0.833521
#
# Coordination Sequence:
#
# PCOD9567762 Si02
#       8
#     4  16  16  16  16  16   8  16
#     4  12  24  32  60 100 126 168 216 292 332 408
#     4  12  23  41  67  90 131 172 213 272 326 395
#     4  11  23  44  65  92 132 169 220 273 328 397
#     4  11  22  41  66  98 129 172 215 266 332 399
#     4  10  25  41  61  96 128 169 216 270 324 395
#     4  10  23  38  60  93 128 160 221 266 343 395
#     4  10  20  44  64  89 129 176 212 274 336 410
#     4  11  23  42  65  94 126 176 214 270 334 394
#
# _framework density 22.126567000000001
#
# number of rings (size 3 to 8) (size 9 to 14) (size 15 to 20)
#    0.000    1.185    5.926    1.778    4.148    1.778 
#    0.000    0.000    0.000    5.333    0.000    0.000 
#    0.000    0.000    0.000    0.000    0.000    0.000 
#
# Total GULP energy -603197.742427 kJ/mol
# GULP energy per Si atom -5585.164282 kJ/mol
# Density = 2.207621 g / cm^3
# Si number density = 22.126567 Si / 1000 Ang^3
#
#
#
# Elastic Constant Matrix: (Units=GPa)
#
#
# Indices 1 2 3 4 5 6 
#
# 1 81.2584 -4.7082 24.4058 0.0000 0.0000 0.0000
# 2 -4.7082 81.2579 24.4055 0.0000 0.0000 0.0000
# 3 24.4058 24.4055 80.4111 0.0000 0.0000 0.0000
# 4 0.0000 0.0000 0.0000 7.8584 0.0000 0.0000
# 5 0.0000 0.0000 0.0000 0.0000 7.8583 0.0000
# 6 0.0000 0.0000 0.0000 0.0000 0.0000 14.4666
#
#
#
# Elastic Compliance Matrix: (Units=1/GPa)
#
#
# Indices 1 2 3 4 5 6 
#
# 1 0.013915 0.002283 -0.004916 0.000000 0.000000 0.000000
# 2 0.002283 0.013915 -0.004916 0.000000 0.000000 0.000000
# 3 -0.004916 -0.004916 0.015420 0.000000 0.000000 0.000000
# 4 0.000000 0.000000 0.000000 0.127253 0.000000 0.000000
# 5 0.000000 0.000000 0.000000 0.000000 0.127253 0.000000
# 6 0.000000 0.000000 0.000000 0.000000 0.000000 0.069125
#
#
# Mechanical properties :
#
#
# Convention : Reuss Voigt Hill
#
# Bulk Modulus (GPa) = 35.52208 36.79263 36.15736
# Shear Modulus (GPa) = 12.77577 19.29161 16.03369
#
# Velocity S-wave (km/s) = 2.40551 2.95596 2.69483
# Velocity P-wave (km/s) = 4.87896 5.32115 5.10484
#
# Compressibility (1/GPa) = 0.02815150
#
# Stress axis : x y z
#
# Youngs Moduli (GPa) = 71.86327 71.86296 64.84904
#
# Poissons Ratio (x) = -0.16405 0.31882
# Poissons Ratio (y) = -0.16406 0.31882
# Poissons Ratio (z) = 0.35331 0.35330
#
# Static dielectric constant tensor:
#      x y z
#    x 1.853120 0.000000 0.000000 
#    y 0.000000 1.853120 0.000000 
#    z 0.000000 0.000000 1.818910 
# 
# From -- ./inp_files/7298.got.cif
#   From: 2010.05.17/outbox.cif.g08.bks.cpg/sg133_4_cif.got.tgz:7298.got - 2010.05.20 12:37:36.
