data_PCOD9567351
_publ_section_title
;
Structure prediction by ZEFSAII (Michael W. Deem and Ramdas Pophale) SiO2 
 PCOD9567351
Probable space group: P 42/M C M
;
_chemical_formula_sum "Si O2"
_cell_formula_units_Z 58
_cell_length_a 17.662623
_cell_length_b 17.662623
_cell_length_c 10.256289
_cell_angle_alpha 90.000000
_cell_angle_beta 90.000000
_cell_angle_gamma 90.000000
_cell_volume 3199.636544
_symmetry_space_group_name_H-M "P 42/M C M"
_symmetry_group_IT_number 132
_symmetry_cell_setting 'tetragonal'
loop_
_space_group_symop_operation_xyz
x,y,z
-y,x,1/2+z
-x,-y,z
y,-x,1/2+z
x,-y,1/2-z
-x,y,1/2-z
y,x,-z
-y,-x,-z
-x,-y,-z
y,-x,1/2-z
x,y,-z
-y,x,1/2-z
-x,y,1/2+z
x,-y,1/2+z
-y,-x,z
y,x,z
loop_
_atom_site_type_symbol
_atom_site_label
_atom_site_fract_x
_atom_site_fract_y
_atom_site_fract_z
Si Si1 0.730582 0.605581 0.000000
Si Si2 0.585899 0.189722 0.229284
Si Si3 0.309966 0.564353 0.000000
Si Si4 0.121936 0.878065 0.154083
Si Si5 0.000000 0.000000 0.750000
Si Si6 0.288913 0.931462 0.845495
O O1 0.780909 0.608975 0.129057
O O2 0.673563 0.673563 0.000000
O O3 0.684122 0.526433 0.000000
O O4 0.500000 0.159521 0.250000
O O5 0.582726 0.259519 0.127615
O O6 0.646429 0.131148 0.173916
O O7 0.385907 0.614094 0.000000
O O8 0.097866 0.794331 0.199335
O O9 0.129343 0.870658 0.000000
O O10 0.058218 0.941783 0.180207
O O11 0.308330 0.000000 0.750000
O O12 0.284894 0.951618 0.000000
#
# Coordination Sequence:
#
# PCOD9567351 Si02
#       6
#     8  16   8   8   2  16
#     4  10  22  37  57  91 127 157 205 255 309 357
#     4  10  22  40  60  88 123 162 203 252 307 362
#     4  10  20  37  63  87 117 167 207 247 307 363
#     4  10  23  39  63  90 121 161 195 245 307 368
#     4  12  18  44  60  90 136 148 190 256 322 356
#     4  11  24  42  63  92 119 157 208 247 299 369
#
# _framework density 18.12706
#
# number of rings (size 3 to 8) (size 9 to 14) (size 15 to 20)
#    0.000    1.655    2.759    1.034    5.793    0.828 
#    0.000    2.069    0.000    4.966    0.000    0.000 
#    0.000    0.000    0.000    0.000    0.000    0.000 
#
# Total GULP energy -323474.277671 kJ/mol
# GULP energy per Si atom -5577.142718 kJ/mol
# Density = 1.808580 g / cm^3
# Si number density = 18.127060 Si / 1000 Ang^3
#
#
#
# Elastic Constant Matrix: (Units=GPa)
#
#
# Indices 1 2 3 4 5 6 
#
# 1 59.8946 33.4942 12.9761 0.0000 0.0000 0.0000
# 2 33.4942 59.8977 12.9758 0.0000 0.0000 0.0000
# 3 12.9761 12.9758 107.8448 0.0000 0.0000 0.0000
# 4 0.0000 0.0000 0.0000 11.3756 0.0000 0.0000
# 5 0.0000 0.0000 0.0000 0.0000 11.3699 0.0000
# 6 0.0000 0.0000 0.0000 0.0000 0.0000 153.5710
#
#
#
# Elastic Compliance Matrix: (Units=1/GPa)
#
#
# Indices 1 2 3 4 5 6 
#
# 1 0.024478 -0.013399 -0.001333 0.000000 0.000000 0.000000
# 2 -0.013399 0.024476 -0.001333 0.000000 0.000000 0.000000
# 3 -0.001333 -0.001333 0.009593 0.000000 0.000000 0.000000
# 4 0.000000 0.000000 0.000000 0.087907 0.000000 0.000000
# 5 0.000000 0.000000 0.000000 0.000000 0.087951 0.000000
# 6 0.000000 0.000000 0.000000 0.000000 0.000000 0.006512
#
#
# Mechanical properties :
#
#
# Convention : Reuss Voigt Hill
#
# Bulk Modulus (GPa) = 37.85311 38.50327 38.17819
# Shear Modulus (GPa) = 17.73971 46.47603 32.10787
#
# Velocity S-wave (km/s) = 3.13170 5.06899 4.21321
# Velocity P-wave (km/s) = 5.83131 7.45295 6.69144
#
# Compressibility (1/GPa) = 0.02641791
#
# Stress axis : x y z
#
# Youngs Moduli (GPa) = 40.85348 40.85570 104.23894
#
# Poissons Ratio (x) = 0.54742 0.13896
# Poissons Ratio (y) = 0.54739 0.13893
# Poissons Ratio (z) = 0.05446 0.05445
#
# Static dielectric constant tensor:
#      x y z
#    x 1.624250 0.000000 0.000000 
#    y 0.000000 1.624250 0.000000 
#    z 0.000000 0.000000 1.601540 
# 
# From -- ./inp_files/1053.got.cif
#   From: 2010.05.17/outbox.cif.g08.bks.cpg/sg132_1_cif.got.tgz:1053.got - 2010.05.20 12:30:18.
