data_PCOD9567979
_publ_section_title
;
Structure prediction by ZEFSAII (Michael W. Deem and Ramdas Pophale) SiO2 
 PCOD9567979
Probable space group: P 42/N B C
;
_chemical_formula_sum "Si O2"
_cell_formula_units_Z 88
_cell_length_a 17.263504
_cell_length_b 17.263504
_cell_length_c 13.974429
_cell_angle_alpha 90.000000
_cell_angle_beta 90.000000
_cell_angle_gamma 90.000000
_cell_volume 4164.779096
_symmetry_space_group_name_H-M "P 42/N B C"
_symmetry_group_IT_number 133
_space_group.IT_coordinate_system_code '2'
_symmetry_cell_setting 'tetragonal'
loop_
_space_group_symop_operation_xyz
x,y,z
1/2-y,x,1/2+z
1/2-x,1/2-y,z
y,1/2-x,1/2+z
x,1/2-y,-z
1/2-x,y,-z
y,x,1/2-z
1/2-y,1/2-x,1/2-z
-x,-y,-z
1/2+y,-x,1/2-z
1/2+x,1/2+y,-z
-y,1/2+x,1/2-z
-x,1/2+y,z
1/2+x,-y,z
-y,-x,1/2+z
1/2+y,1/2+x,1/2+z
loop_
_atom_site_type_symbol
_atom_site_label
_atom_site_fract_x
_atom_site_fract_y
_atom_site_fract_z
Si Si1 0.234545 0.027717 0.788827
Si Si2 0.001224 0.444929 0.908758
Si Si3 0.061416 0.061416 0.750000
Si Si4 0.535301 0.250000 0.500000
Si Si5 0.641755 0.219338 0.774295
Si Si6 0.339703 0.627222 0.470001
Si Si7 0.383953 0.116048 0.750000
O O1 0.152922 0.045767 0.737829
O O2 0.295000 0.094304 0.762475
O O3 0.270777 0.947157 0.749124
O O4 0.230463 0.013915 0.904420
O O5 0.956511 0.498845 0.832390
O O6 0.959327 0.369282 0.952153
O O7 0.074758 0.418502 0.846018
O O8 0.000000 0.500000 0.000000
O O9 0.593758 0.322205 0.479751
O O10 0.678882 0.302037 0.802117
O O11 0.657966 0.161353 0.861242
O O12 0.250000 0.631153 0.500000
#
# Coordination Sequence:
#
# PCOD9567979 Si02
#       7
#    16  16   8   8  16  16   8
#     4  12  25  46  71  98 141 189 244 304 364 436
#     4  11  24  44  68 102 138 188 240 294 366 441
#     4  11  26  47  70  98 144 195 245 304 360 426
#     4  12  23  44  68 107 142 188 242 292 379 452
#     4  11  22  39  61  97 139 177 215 282 364 433
#     4  12  24  38  64 103 140 179 224 288 362 444
#     4  11  26  43  72 100 138 187 249 306 362 434
#
# _framework density 21.129572
#
# number of rings (size 3 to 8) (size 9 to 14) (size 15 to 20)
#    0.000    0.545    5.455    2.455    7.636    0.364 
#    0.000    0.000    0.000    1.091    0.000    0.000 
#    0.000    0.000    0.000    0.000    0.000    0.000 
#
# Total GULP energy -490387.434212 kJ/mol
# GULP energy per Si atom -5572.584480 kJ/mol
# Density = 2.108148 g / cm^3
# Si number density = 21.129572 Si / 1000 Ang^3
#
#
#
# Elastic Constant Matrix: (Units=GPa)
#
#
# Indices 1 2 3 4 5 6 
#
# 1 64.4802 6.3150 -0.3826 0.0000 0.0000 0.0000
# 2 6.3150 64.4816 -0.3826 0.0000 0.0000 0.0000
# 3 -0.3826 -0.3826 46.9547 0.0000 0.0000 0.0000
# 4 0.0000 0.0000 0.0000 12.2512 0.0000 0.0000
# 5 0.0000 0.0000 0.0000 0.0000 12.2518 0.0000
# 6 0.0000 0.0000 0.0000 0.0000 0.0000 44.5846
#
#
#
# Elastic Compliance Matrix: (Units=1/GPa)
#
#
# Indices 1 2 3 4 5 6 
#
# 1 0.015659 -0.001533 0.000115 0.000000 0.000000 0.000000
# 2 -0.001533 0.015659 0.000115 0.000000 0.000000 0.000000
# 3 0.000115 0.000115 0.021299 0.000000 0.000000 0.000000
# 4 0.000000 0.000000 0.000000 0.081624 0.000000 0.000000
# 5 0.000000 0.000000 0.000000 0.000000 0.081620 0.000000
# 6 0.000000 0.000000 0.000000 0.000000 0.000000 0.022429
#
#
# Mechanical properties :
#
#
# Convention : Reuss Voigt Hill
#
# Bulk Modulus (GPa) = 19.99513 20.77955 20.38734
# Shear Modulus (GPa) = 19.41236 25.17531 22.29384
#
# Velocity S-wave (km/s) = 3.03434 3.45552 3.25176
# Velocity P-wave (km/s) = 4.66476 5.07706 4.87527
#
# Compressibility (1/GPa) = 0.05001217
#
# Stress axis : x y z
#
# Youngs Moduli (GPa) = 63.85923 63.86056 46.95058
#
# Poissons Ratio (x) = 0.09789 -0.00540
# Poissons Ratio (y) = 0.09789 -0.00540
# Poissons Ratio (z) = -0.00735 -0.00735
#
# Static dielectric constant tensor:
#      x y z
#    x 1.825370 0.000000 0.000000 
#    y 0.000000 1.825360 0.000000 
#    z 0.000000 0.000000 1.860630 
# 
# From -- ./inp_files/4479.got.cif
#   From: 2010.05.17/outbox.cif.g08.bks.cpg/sg133_3_cif.got.tgz:4479.got - 2010.05.20 12:37:36.
