data_PCOD9567379
_publ_section_title
;
Structure prediction by ZEFSAII (Michael W. Deem and Ramdas Pophale) SiO2 
 PCOD9567379
Probable space group: P 42/M C M
;
_chemical_formula_sum "Si O2"
_cell_formula_units_Z 96
_cell_length_a 25.115816
_cell_length_b 25.115816
_cell_length_c 9.527832
_cell_angle_alpha 90.000000
_cell_angle_beta 90.000000
_cell_angle_gamma 90.000000
_cell_volume 6010.196570
_symmetry_space_group_name_H-M "P 42/M C M"
_symmetry_group_IT_number 132
_symmetry_cell_setting 'tetragonal'
loop_
_space_group_symop_operation_xyz
x,y,z
-y,x,1/2+z
-x,-y,z
y,-x,1/2+z
x,-y,1/2-z
-x,y,1/2-z
y,x,-z
-y,-x,-z
-x,-y,-z
y,-x,1/2-z
x,y,-z
-y,x,1/2-z
-x,y,1/2+z
x,-y,1/2+z
-y,-x,z
y,x,z
loop_
_atom_site_type_symbol
_atom_site_label
_atom_site_fract_x
_atom_site_fract_y
_atom_site_fract_z
Si Si1 0.219773 0.866780 0.167980
Si Si2 0.267231 0.352604 0.657602
Si Si3 0.945516 0.142688 0.664857
Si Si4 0.860186 0.656574 0.337464
Si Si5 0.449827 0.265205 0.159128
Si Si6 0.864655 0.447293 0.337051
O O1 0.190869 0.809132 0.191475
O O2 0.186699 0.908701 0.259393
O O3 0.282284 0.871540 0.203570
O O4 0.214711 0.876976 0.000000
O O5 0.279454 0.372247 0.500000
O O6 0.297294 0.297294 0.677338
O O7 0.204023 0.346136 0.665025
O O8 0.284287 0.395651 0.770495
O O9 0.954026 0.155017 0.500000
O O10 0.911965 0.088036 0.672713
O O11 0.000000 0.138592 0.750000
O O12 0.876961 0.648269 0.500000
O O13 0.880060 0.608036 0.240195
O O14 0.500000 0.281995 0.250000
O O15 0.448414 0.200238 0.162011
O O16 0.455030 0.282173 0.000000
O O17 0.881460 0.500000 0.250000
O O18 0.881782 0.449083 0.500000
#
# Coordination Sequence:
#
# PCOD9567379 Si02
#       6
#    16  16  16  16  16  16
#     4   9  17  30  48  69  95 127 160 193 231 278
#     4   9  16  25  37  54  77 104 134 167 202 244
#     4  10  21  36  54  76 101 129 161 198 239 281
#     4   9  16  26  41  61  86 118 153 185 220 265
#     4   9  16  25  36  49  67  94 128 165 206 250
#     4   9  16  25  37  54  78 110 148 189 229 267
#
# _framework density 15.972856
#
# number of rings (size 3 to 8) (size 9 to 14) (size 15 to 20)
#    0.000    2.833    0.000    2.000    0.000    8.167 
#    0.000    0.833    0.000    3.000    0.000    0.000 
#    0.000    1.000    0.000   10.500    0.000    5.167 
#
# Total GULP energy -534421.341710 kJ/mol
# GULP energy per Si atom -5566.888976 kJ/mol
# Density = 1.593650 g / cm^3
# Si number density = 15.972856 Si / 1000 Ang^3
#
#
#
# Elastic Constant Matrix: (Units=GPa)
#
#
# Indices 1 2 3 4 5 6 
#
# 1 72.6698 21.9991 52.9538 0.0000 0.0000 0.0000
# 2 21.9991 72.6698 52.9538 0.0000 0.0000 0.0000
# 3 52.9538 52.9538 114.9140 0.0000 0.0000 0.0000
# 4 0.0000 0.0000 0.0000 20.9666 0.0000 0.0000
# 5 0.0000 0.0000 0.0000 0.0000 20.9666 0.0000
# 6 0.0000 0.0000 0.0000 0.0000 0.0000 5.7638
#
#
#
# Elastic Compliance Matrix: (Units=1/GPa)
#
#
# Indices 1 2 3 4 5 6 
#
# 1 0.020769 0.001034 -0.010047 0.000000 0.000000 0.000000
# 2 0.001034 0.020769 -0.010047 0.000000 0.000000 0.000000
# 3 -0.010047 -0.010047 0.017962 0.000000 0.000000 0.000000
# 4 0.000000 0.000000 0.000000 0.047695 0.000000 0.000000
# 5 0.000000 0.000000 0.000000 0.000000 0.047695 0.000000
# 6 0.000000 0.000000 0.000000 0.000000 0.000000 0.173497
#
#
# Mechanical properties :
#
#
# Convention : Reuss Voigt Hill
#
# Bulk Modulus (GPa) = 46.77394 57.34077 52.05735
# Shear Modulus (GPa) = 13.38207 18.36252 15.87230
#
# Velocity S-wave (km/s) = 2.89762 3.39427 3.15573
# Velocity P-wave (km/s) = 6.36725 7.16507 6.77791
#
# Compressibility (1/GPa) = 0.02137943
#
# Stress axis : x y z
#
# Youngs Moduli (GPa) = 48.14837 48.14837 55.67362
#
# Poissons Ratio (x) = -0.04978 0.55936
# Poissons Ratio (y) = -0.04978 0.55936
# Poissons Ratio (z) = 0.48375 0.48375
#
# Static dielectric constant tensor:
#      x y z
#    x 1.523580 0.000000 0.000000 
#    y 0.000000 1.523580 0.000000 
#    z 0.000000 0.000000 1.542950 
# 
# From -- ./inp_files/1700.got.cif
#   From: 2010.05.17/outbox.cif.g08.bks.cpg/sg132_1_cif.got.tgz:1700.got - 2010.05.20 12:30:18.
