data_PCOD9567213
_publ_section_title
;
Structure prediction by ZEFSAII (Michael W. Deem and Ramdas Pophale) SiO2 
 PCOD9567213
Probable space group: P 42/M C M
;
_chemical_formula_sum "Si O2"
_cell_formula_units_Z 80
_cell_length_a 17.124907
_cell_length_b 17.124907
_cell_length_c 17.455637
_cell_angle_alpha 90.000000
_cell_angle_beta 90.000000
_cell_angle_gamma 90.000000
_cell_volume 5119.082694
_symmetry_space_group_name_H-M "P 42/M C M"
_symmetry_group_IT_number 132
_symmetry_cell_setting 'tetragonal'
loop_
_space_group_symop_operation_xyz
x,y,z
-y,x,1/2+z
-x,-y,z
y,-x,1/2+z
x,-y,1/2-z
-x,y,1/2-z
y,x,-z
-y,-x,-z
-x,-y,-z
y,-x,1/2-z
x,y,-z
-y,x,1/2-z
-x,y,1/2+z
x,-y,1/2+z
-y,-x,z
y,x,z
loop_
_atom_site_type_symbol
_atom_site_label
_atom_site_fract_x
_atom_site_fract_y
_atom_site_fract_z
Si Si1 0.897836 0.578052 0.090976
Si Si2 0.388834 0.263551 0.173287
Si Si3 0.393768 0.930844 0.908695
Si Si4 0.528669 0.656172 0.411754
Si Si5 0.772380 0.353419 0.153424
O O1 0.819590 0.603955 0.132328
O O2 0.910718 0.485431 0.102768
O O3 0.979375 0.617808 0.115788
O O4 0.889428 0.589980 0.000000
O O5 0.308282 0.308282 0.156663
O O6 0.457553 0.319975 0.142632
O O7 0.390750 0.247289 0.263958
O O8 0.349016 0.863410 0.864076
O O9 0.378769 0.926010 0.000000
O O10 0.502720 0.647577 0.500000
O O11 0.579242 0.579242 0.390147
O O12 0.589509 0.728361 0.406071
O O13 0.729203 0.270798 0.150002
#
# Coordination Sequence:
#
# PCOD9567213 Si02
#       5
#    16  16  16  16  16
#     4   9  18  31  48  71  93 118 154 192 233 278
#     4  11  22  33  46  67  96 125 157 196 235 280
#     4   9  17  31  51  71  92 117 152 195 232 279
#     4  10  20  33  48  64  85 119 164 205 236 269
#     4  10  20  32  47  69  95 121 152 193 239 279
#
# _framework density 15.627799
#
# number of rings (size 3 to 8) (size 9 to 14) (size 15 to 20)
#    0.000    2.200    2.000    3.000    0.000    4.000 
#    0.000    3.000    0.000    3.600    0.000    0.000 
#    0.000    0.800    0.000    8.800    0.000    6.400 
#
# Total GULP energy -446164.431685 kJ/mol
# GULP energy per Si atom -5577.055396 kJ/mol
# Density = 1.559223 g / cm^3
# Si number density = 15.627799 Si / 1000 Ang^3
#
#
#
# Elastic Constant Matrix: (Units=GPa)
#
#
# Indices 1 2 3 4 5 6 
#
# 1 85.0144 45.6748 41.2257 0.0000 0.0000 0.0000
# 2 45.6748 85.0144 41.2257 0.0000 0.0000 0.0000
# 3 41.2257 41.2257 49.6484 0.0000 0.0000 0.0000
# 4 0.0000 0.0000 0.0000 22.1287 0.0000 0.0000
# 5 0.0000 0.0000 0.0000 0.0000 22.1287 0.0000
# 6 0.0000 0.0000 0.0000 0.0000 0.0000 14.5267
#
#
#
# Elastic Compliance Matrix: (Units=1/GPa)
#
#
# Indices 1 2 3 4 5 6 
#
# 1 0.020745 -0.004675 -0.013344 0.000000 0.000000 0.000000
# 2 -0.004675 0.020745 -0.013344 0.000000 0.000000 0.000000
# 3 -0.013344 -0.013344 0.042303 0.000000 0.000000 0.000000
# 4 0.000000 0.000000 0.000000 0.045190 0.000000 0.000000
# 5 0.000000 0.000000 0.000000 0.000000 0.045190 0.000000
# 6 0.000000 0.000000 0.000000 0.000000 0.000000 0.068839
#
#
# Mechanical properties :
#
#
# Convention : Reuss Voigt Hill
#
# Bulk Modulus (GPa) = 47.46835 52.88106 50.17471
# Shear Modulus (GPa) = 15.98667 17.86022 16.92344
#
# Velocity S-wave (km/s) = 3.20185 3.38427 3.29432
# Velocity P-wave (km/s) = 6.64149 7.01301 6.82978
#
# Compressibility (1/GPa) = 0.02106667
#
# Stress axis : x y z
#
# Youngs Moduli (GPa) = 48.20405 48.20405 23.63918
#
# Poissons Ratio (x) = 0.22533 0.31545
# Poissons Ratio (y) = 0.22533 0.31545
# Poissons Ratio (z) = 0.64325 0.64325
#
# Static dielectric constant tensor:
#      x y z
#    x 1.534130 0.000000 0.000000 
#    y 0.000000 1.534130 0.000000 
#    z 0.000000 0.000000 1.547960 
# 
# From -- ./inp_files/4634.got.cif
#   From: 2010.05.17/outbox.cif.g08.bks.cpg/sg132_3_cif.got.tgz:4634.got - 2010.05.20 12:30:18.
