data_PCOD9567216
_publ_section_title
;
Structure prediction by ZEFSAII (Michael W. Deem and Ramdas Pophale) SiO2 
 PCOD9567216
Probable space group: P 42/M C M
;
_chemical_formula_sum "Si O2"
_cell_formula_units_Z 56
_cell_length_a 13.704554
_cell_length_b 13.704554
_cell_length_c 18.241829
_cell_angle_alpha 90.000000
_cell_angle_beta 90.000000
_cell_angle_gamma 90.000000
_cell_volume 3426.085471
_symmetry_space_group_name_H-M "P 42/M C M"
_symmetry_group_IT_number 132
_symmetry_cell_setting 'tetragonal'
loop_
_space_group_symop_operation_xyz
x,y,z
-y,x,1/2+z
-x,-y,z
y,-x,1/2+z
x,-y,1/2-z
-x,y,1/2-z
y,x,-z
-y,-x,-z
-x,-y,-z
y,-x,1/2-z
x,y,-z
-y,x,1/2-z
-x,y,1/2+z
x,-y,1/2+z
-y,-x,z
y,x,z
loop_
_atom_site_type_symbol
_atom_site_label
_atom_site_fract_x
_atom_site_fract_y
_atom_site_fract_z
Si Si1 0.000000 0.162825 0.250000
Si Si2 0.887089 0.488780 0.585894
Si Si3 0.706369 0.133285 0.665936
Si Si4 0.241783 0.404133 0.704775
O O1 0.091371 0.091371 0.267637
O O2 0.035606 0.233308 0.184579
O O3 0.876878 0.509535 0.500000
O O4 0.867909 0.376024 0.604836
O O5 0.816708 0.556192 0.634631
O O6 0.000000 0.500000 0.608303
O O7 0.784883 0.215118 0.647543
O O8 0.652482 0.167316 0.740988
O O9 0.275934 0.500000 0.750000
O O10 0.330523 0.330523 0.688534
#
# Coordination Sequence:
#
# PCOD9567216 Si02
#       4
#     8  16  16  16
#     4   9  16  26  45  72  94 114 149 198 242 277
#     4  10  20  32  47  69  97 128 161 196 234 280
#     4   9  17  30  48  68  92 122 154 190 233 283
#     4   9  18  32  51  73  95 123 159 200 246 292
#
# _framework density 16.345182999999999
#
# number of rings (size 3 to 8) (size 9 to 14) (size 15 to 20)
#    0.000    2.714    0.000    1.714    0.000    5.429 
#    0.000    0.000    0.000    2.571    0.000   12.000 
#    0.000    0.000    0.000    0.000    0.000    0.000 
#
# Total GULP energy -311861.105014 kJ/mol
# GULP energy per Si atom -5568.948304 kJ/mol
# Density = 1.630798 g / cm^3
# Si number density = 16.345183 Si / 1000 Ang^3
#
#
#
# Elastic Constant Matrix: (Units=GPa)
#
#
# Indices 1 2 3 4 5 6 
#
# 1 82.1627 35.0834 26.3966 0.0000 0.0000 0.0000
# 2 35.0834 82.1627 26.3966 0.0000 0.0000 0.0000
# 3 26.3966 26.3966 37.2960 0.0000 0.0000 0.0000
# 4 0.0000 0.0000 0.0000 15.3703 0.0000 0.0000
# 5 0.0000 0.0000 0.0000 0.0000 15.3703 0.0000
# 6 0.0000 0.0000 0.0000 0.0000 0.0000 8.8547
#
#
#
# Elastic Compliance Matrix: (Units=1/GPa)
#
#
# Indices 1 2 3 4 5 6 
#
# 1 0.016880 -0.004361 -0.008860 0.000000 0.000000 0.000000
# 2 -0.004361 0.016880 -0.008860 0.000000 0.000000 0.000000
# 3 -0.008860 -0.008860 0.039354 0.000000 0.000000 0.000000
# 4 0.000000 0.000000 0.000000 0.065060 0.000000 0.000000
# 5 0.000000 0.000000 0.000000 0.000000 0.065060 0.000000
# 6 0.000000 0.000000 0.000000 0.000000 0.000000 0.112934
#
#
# Mechanical properties :
#
#
# Convention : Reuss Voigt Hill
#
# Bulk Modulus (GPa) = 34.54132 41.93049 38.23590
# Shear Modulus (GPa) = 13.51418 15.50205 14.50812
#
# Velocity S-wave (km/s) = 2.87853 3.08298 2.98251
# Velocity P-wave (km/s) = 5.67681 6.19531 5.94172
#
# Compressibility (1/GPa) = 0.02895084
#
# Stress axis : x y z
#
# Youngs Moduli (GPa) = 59.24285 59.24285 25.41017
#
# Poissons Ratio (x) = 0.25836 0.22514
# Poissons Ratio (y) = 0.25836 0.22514
# Poissons Ratio (z) = 0.52490 0.52490
#
# Static dielectric constant tensor:
#      x y z
#    x 1.569890 0.000000 0.000000 
#    y 0.000000 1.569890 0.000000 
#    z 0.000000 0.000000 1.528330 
# 
# From -- ./inp_files/4286.got.cif
#   From: 2010.05.17/outbox.cif.g08.bks.cpg/sg132_3_cif.got.tgz:4286.got - 2010.05.20 12:30:18.
