data_PCOD9567984
_publ_section_title
;
Structure prediction by ZEFSAII (Michael W. Deem and Ramdas Pophale) SiO2 
 PCOD9567984
Probable space group: P 42/N B C
;
_chemical_formula_sum "Si O2"
_cell_formula_units_Z 112
_cell_length_a 14.551650
_cell_length_b 14.551650
_cell_length_c 22.954698
_cell_angle_alpha 90.000000
_cell_angle_beta 90.000000
_cell_angle_gamma 90.000000
_cell_volume 4860.669186
_symmetry_space_group_name_H-M "P 42/N B C"
_symmetry_group_IT_number 133
_space_group.IT_coordinate_system_code '2'
_symmetry_cell_setting 'tetragonal'
loop_
_space_group_symop_operation_xyz
x,y,z
1/2-y,x,1/2+z
1/2-x,1/2-y,z
y,1/2-x,1/2+z
x,1/2-y,-z
1/2-x,y,-z
y,x,1/2-z
1/2-y,1/2-x,1/2-z
-x,-y,-z
1/2+y,-x,1/2-z
1/2+x,1/2+y,-z
-y,1/2+x,1/2-z
-x,1/2+y,z
1/2+x,-y,z
-y,-x,1/2+z
1/2+y,1/2+x,1/2+z
loop_
_atom_site_type_symbol
_atom_site_label
_atom_site_fract_x
_atom_site_fract_y
_atom_site_fract_z
Si Si1 0.642944 0.639719 0.489926
Si Si2 0.285745 0.004067 0.665239
Si Si3 0.089063 0.449992 0.367181
Si Si4 0.895129 0.551919 0.103302
Si Si5 0.351066 0.793832 0.062377
Si Si6 0.286535 0.886825 0.768089
Si Si7 0.535248 0.295715 0.620439
O O1 0.633260 0.750000 0.500000
O O2 0.750000 0.619321 0.500000
O O3 0.615909 0.600841 0.427431
O O4 0.581579 0.587016 0.537143
O O5 0.279816 0.923763 0.614959
O O6 0.319939 0.970274 0.728522
O O7 0.182353 0.042354 0.668604
O O8 0.360695 0.075365 0.641395
O O9 0.037188 0.545959 0.378546
O O10 0.011679 0.379572 0.345346
O O11 0.787047 0.532715 0.106608
O O12 0.250000 0.750000 0.072217
O O13 0.332118 0.904097 0.066304
O O14 0.381690 0.750000 0.000000
O O15 0.356014 0.803749 0.766922
O O16 0.252576 0.899774 0.832797
#
# Coordination Sequence:
#
# PCOD9567984 Si02
#       7
#    16  16  16  16  16  16  16
#     4  11  23  42  68  94 135 197 234 285 353 441
#     4  12  26  44  71 109 137 196 236 297 368 429
#     4  12  25  43  69 100 146 185 245 296 361 432
#     4  12  25  45  69 100 147 183 246 293 369 431
#     4  11  24  44  70 101 142 176 243 304 354 416
#     4  11  22  44  76 101 141 184 248 304 367 425
#     4  12  26  46  69 109 140 193 241 301 365 438
#
# _framework density 23.042096000000001
#
# number of rings (size 3 to 8) (size 9 to 14) (size 15 to 20)
#    0.000    0.429    5.714    3.000    2.000    5.143 
#    0.000    2.857    0.000    1.714    0.000    0.000 
#    0.000    0.000    0.000    0.000    0.000    0.000 
#
# Total GULP energy -625967.853620 kJ/mol
# GULP energy per Si atom -5588.998693 kJ/mol
# Density = 2.298965 g / cm^3
# Si number density = 23.042096 Si / 1000 Ang^3
#
#
#
# Elastic Constant Matrix: (Units=GPa)
#
#
# Indices 1 2 3 4 5 6 
#
# 1 85.6105 26.5159 -5.1469 0.0000 0.0000 0.0000
# 2 26.5159 85.6105 -5.1469 0.0000 0.0000 0.0000
# 3 -5.1469 -5.1469 49.5596 0.0000 0.0000 0.0000
# 4 0.0000 0.0000 0.0000 201.3095 0.0000 0.0000
# 5 0.0000 0.0000 0.0000 0.0000 201.3095 0.0000
# 6 0.0000 0.0000 0.0000 0.0000 0.0000 52.8622
#
#
#
# Elastic Compliance Matrix: (Units=1/GPa)
#
#
# Indices 1 2 3 4 5 6 
#
# 1 0.012963 -0.003959 0.000935 0.000000 0.000000 0.000000
# 2 -0.003959 0.012963 0.000935 0.000000 0.000000 0.000000
# 3 0.000935 0.000935 0.020372 0.000000 0.000000 0.000000
# 4 0.000000 0.000000 0.000000 0.004967 0.000000 0.000000
# 5 0.000000 0.000000 0.000000 0.000000 0.004967 0.000000
# 6 0.000000 0.000000 0.000000 0.000000 0.000000 0.018917
#
#
# Mechanical properties :
#
#
# Convention : Reuss Voigt Hill
#
# Bulk Modulus (GPa) = 23.74102 28.13609 25.93855
# Shear Modulus (GPa) = 53.55158 104.73346 79.14252
#
# Velocity S-wave (km/s) = 4.82610 6.74921 5.86698
# Velocity P-wave (km/s) = 6.43278 8.54242 7.56153
#
# Compressibility (1/GPa) = 0.04212119
#
# Stress axis : x y z
#
# Youngs Moduli (GPa) = 77.14151 77.14151 49.08711
#
# Poissons Ratio (x) = 0.30539 -0.04590
# Poissons Ratio (y) = 0.30539 -0.04590
# Poissons Ratio (z) = -0.07214 -0.07214
#
# Static dielectric constant tensor:
#      x y z
#    x 1.951370 0.000000 0.000000 
#    y 0.000000 1.951370 0.000000 
#    z 0.000000 0.000000 1.886070 
# 
# From -- ./inp_files/7250.got.cif
#   From: 2010.05.17/outbox.cif.g08.bks.cpg/sg133_4_cif.got.tgz:7250.got - 2010.05.20 12:37:36.
