data_PCOD9567817
_publ_section_title
;
Structure prediction by ZEFSAII (Michael W. Deem and Ramdas Pophale) SiO2 
 PCOD9567817
Probable space group: P 42/N B C
;
_chemical_formula_sum "Si O2"
_cell_formula_units_Z 56
_cell_length_a 18.221635
_cell_length_b 18.221635
_cell_length_c 7.882357
_cell_angle_alpha 90.000000
_cell_angle_beta 90.000000
_cell_angle_gamma 90.000000
_cell_volume 2617.163089
_symmetry_space_group_name_H-M "P 42/N B C"
_symmetry_group_IT_number 133
_space_group.IT_coordinate_system_code '2'
_symmetry_cell_setting 'tetragonal'
loop_
_space_group_symop_operation_xyz
x,y,z
1/2-y,x,1/2+z
1/2-x,1/2-y,z
y,1/2-x,1/2+z
x,1/2-y,-z
1/2-x,y,-z
y,x,1/2-z
1/2-y,1/2-x,1/2-z
-x,-y,-z
1/2+y,-x,1/2-z
1/2+x,1/2+y,-z
-y,1/2+x,1/2-z
-x,1/2+y,z
1/2+x,-y,z
-y,-x,1/2+z
1/2+y,1/2+x,1/2+z
loop_
_atom_site_type_symbol
_atom_site_label
_atom_site_fract_x
_atom_site_fract_y
_atom_site_fract_z
Si Si1 0.250000 0.628218 0.500000
Si Si2 0.076719 0.471239 0.933023
Si Si3 0.167554 0.164447 0.452219
Si Si4 0.598193 0.189734 0.638086
O O1 0.286904 0.589407 0.335404
O O2 0.183174 0.670915 0.406317
O O3 0.059731 0.440270 0.750000
O O4 0.118274 0.402336 0.022423
O O5 0.124929 0.543501 0.907100
O O6 0.000000 0.500000 0.000000
O O7 0.160990 0.250000 0.500000
O O8 0.250000 0.138127 0.500000
O O9 0.164080 0.164080 0.250000
O O10 0.577261 0.250000 0.500000
#
# Coordination Sequence:
#
# PCOD9567817 Si02
#       4
#     8  16  16  16
#     4  12  25  42  74 108 142 195 250 298 371 458
#     4  11  26  48  65 102 146 184 241 296 367 441
#     4  10  21  42  71 102 131 176 235 288 350 417
#     4  12  25  45  72 106 148 196 245 305 370 443
#
# _framework density 21.397213000000001
#
# number of rings (size 3 to 8) (size 9 to 14) (size 15 to 20)
#    0.000    0.857    2.857    4.714    0.000    2.286 
#   23.143    0.000    0.000    0.000    0.000    0.000 
#    0.000    0.000    0.000    0.000    0.000    0.000 
#
# Total GULP energy -312287.451489 kJ/mol
# GULP energy per Si atom -5576.561634 kJ/mol
# Density = 2.134851 g / cm^3
# Si number density = 21.397213 Si / 1000 Ang^3
#
#
#
# Elastic Constant Matrix: (Units=GPa)
#
#
# Indices 1 2 3 4 5 6 
#
# 1 130.3989 119.4642 41.5129 0.0000 0.0000 0.0000
# 2 119.4642 130.3989 41.5129 0.0000 0.0000 0.0000
# 3 41.5129 41.5129 117.4985 0.0000 0.0000 0.0000
# 4 0.0000 0.0000 0.0000 34.5822 0.0000 0.0000
# 5 0.0000 0.0000 0.0000 0.0000 34.5817 0.0000
# 6 0.0000 0.0000 0.0000 0.0000 0.0000 64.9036
#
#
#
# Elastic Compliance Matrix: (Units=1/GPa)
#
#
# Indices 1 2 3 4 5 6 
#
# 1 0.047994 -0.043459 -0.001602 0.000000 0.000000 0.000000
# 2 -0.043459 0.047994 -0.001602 0.000000 0.000000 0.000000
# 3 -0.001602 -0.001602 0.009643 0.000000 0.000000 0.000000
# 4 0.000000 0.000000 0.000000 0.028917 0.000000 0.000000
# 5 0.000000 0.000000 0.000000 0.000000 0.028917 0.000000
# 6 0.000000 0.000000 0.000000 0.000000 0.000000 0.015407
#
#
# Mechanical properties :
#
#
# Convention : Reuss Voigt Hill
#
# Bulk Modulus (GPa) = 81.27734 87.03072 84.15403
# Shear Modulus (GPa) = 18.09638 38.53391 28.31514
#
# Velocity S-wave (km/s) = 2.91131 4.24829 3.64168
# Velocity P-wave (km/s) = 7.02627 8.05146 7.55627
#
# Compressibility (1/GPa) = 0.01230355
#
# Stress axis : x y z
#
# Youngs Moduli (GPa) = 20.83614 20.83614 103.70441
#
# Poissons Ratio (x) = 0.90552 0.16614
# Poissons Ratio (y) = 0.90552 0.16614
# Poissons Ratio (z) = 0.03338 0.03338
#
# Static dielectric constant tensor:
#      x y z
#    x 1.824290 0.000000 0.000000 
#    y 0.000000 1.824190 0.000000 
#    z 0.000000 0.000000 1.726460 
# 
# From -- ./inp_files/1310.got.cif
#   From: 2010.05.17/outbox.cif.g08.bks.cpg/sg133_1_cif.got.tgz:1310.got - 2010.05.20 12:37:36.
