data_PCOD9567291
_publ_section_title
;
Structure prediction by ZEFSAII (Michael W. Deem and Ramdas Pophale) SiO2 
 PCOD9567291
Probable space group: P 42/M C M
;
_chemical_formula_sum "Si O2"
_cell_formula_units_Z 96
_cell_length_a 15.220098
_cell_length_b 15.220098
_cell_length_c 20.884241
_cell_angle_alpha 90.000000
_cell_angle_beta 90.000000
_cell_angle_gamma 90.000000
_cell_volume 4837.863313
_symmetry_space_group_name_H-M "P 42/M C M"
_symmetry_group_IT_number 132
_symmetry_cell_setting 'tetragonal'
loop_
_space_group_symop_operation_xyz
x,y,z
-y,x,1/2+z
-x,-y,z
y,-x,1/2+z
x,-y,1/2-z
-x,y,1/2-z
y,x,-z
-y,-x,-z
-x,-y,-z
y,-x,1/2-z
x,y,-z
-y,x,1/2-z
-x,y,1/2+z
x,-y,1/2+z
-y,-x,z
y,x,z
loop_
_atom_site_type_symbol
_atom_site_label
_atom_site_fract_x
_atom_site_fract_y
_atom_site_fract_z
Si Si1 0.362907 0.779801 0.744861
Si Si2 0.926133 0.560319 0.074090
Si Si3 0.917147 0.223826 0.704320
Si Si4 0.243319 0.004191 0.425499
Si Si5 0.794064 0.794064 0.576556
Si Si6 0.646539 0.646539 0.577010
Si Si7 0.494050 0.759243 0.147649
O O1 0.288114 0.711887 0.764790
O O2 0.313515 0.860652 0.710836
O O3 0.421103 0.804373 0.806125
O O4 0.428401 0.731452 0.695570
O O5 0.832467 0.539577 0.104073
O O6 0.000000 0.500000 0.106144
O O7 0.966694 0.657504 0.074627
O O8 0.916578 0.533649 0.000000
O O9 0.853523 0.146478 0.727183
O O10 0.000000 0.231691 0.750000
O O11 0.947720 0.202472 0.632022
O O12 0.211554 0.995580 0.500000
O O13 0.233818 0.106701 0.405040
O O14 0.797232 0.797232 0.500000
O O15 0.720997 0.720997 0.590406
O O16 0.637797 0.637797 0.500000
O O17 0.684095 0.557310 0.608761
#
# Coordination Sequence:
#
# PCOD9567291 Si02
#       7
#    16  16  16  16   8   8  16
#     4  10  23  42  61  85 122 168 212 255 314 379
#     4  10  20  34  56  90 128 157 198 262 323 378
#     4  11  26  43  62  89 123 164 209 270 325 384
#     4  10  21  40  63  88 120 167 216 259 319 387
#     4   9  20  36  59  91 127 167 206 248 316 393
#     4  11  22  36  63  97 131 167 201 257 327 386
#     4  11  21  37  63  90 122 162 211 254 306 383
#
# _framework density 19.843471999999998
#
# number of rings (size 3 to 8) (size 9 to 14) (size 15 to 20)
#    0.000    1.667    2.500    1.500    5.833    3.167 
#    0.000    2.083    0.000    4.000    0.000    0.000 
#    0.000    0.000    0.000    0.000    0.000    0.000 
#
# Total GULP energy -535083.039137 kJ/mol
# GULP energy per Si atom -5573.781658 kJ/mol
# Density = 1.979831 g / cm^3
# Si number density = 19.843472 Si / 1000 Ang^3
#
#
#
# Elastic Constant Matrix: (Units=GPa)
#
#
# Indices 1 2 3 4 5 6 
#
# 1 77.4121 30.9026 33.2999 0.0000 0.0000 0.0000
# 2 30.9026 77.4121 33.2999 0.0000 0.0000 0.0000
# 3 33.2999 33.2999 92.2998 0.0000 0.0000 0.0000
# 4 0.0000 0.0000 0.0000 31.3260 0.0000 0.0000
# 5 0.0000 0.0000 0.0000 0.0000 31.3260 0.0000
# 6 0.0000 0.0000 0.0000 0.0000 0.0000 31.1518
#
#
#
# Elastic Compliance Matrix: (Units=1/GPa)
#
#
# Indices 1 2 3 4 5 6 
#
# 1 0.016683 -0.004818 -0.004280 0.000000 0.000000 0.000000
# 2 -0.004818 0.016683 -0.004280 0.000000 0.000000 0.000000
# 3 -0.004280 -0.004280 0.013923 0.000000 0.000000 0.000000
# 4 0.000000 0.000000 0.000000 0.031922 0.000000 0.000000
# 5 0.000000 0.000000 0.000000 0.000000 0.031922 0.000000
# 6 0.000000 0.000000 0.000000 0.000000 0.000000 0.032101
#
#
# Mechanical properties :
#
#
# Convention : Reuss Voigt Hill
#
# Bulk Modulus (GPa) = 48.70974 49.12544 48.91759
# Shear Modulus (GPa) = 28.27492 28.73554 28.50523
#
# Velocity S-wave (km/s) = 3.77888 3.80953 3.79424
# Velocity P-wave (km/s) = 6.60607 6.64532 6.62572
#
# Compressibility (1/GPa) = 0.02052978
#
# Stress axis : x y z
#
# Youngs Moduli (GPa) = 59.94268 59.94268 71.82466
#
# Poissons Ratio (x) = 0.28883 0.30744
# Poissons Ratio (y) = 0.28883 0.30744
# Poissons Ratio (z) = 0.25658 0.25658
#
# Static dielectric constant tensor:
#      x y z
#    x 1.701060 0.000000 0.000000 
#    y 0.000000 1.701060 0.000000 
#    z 0.000000 0.000000 1.746730 
# 
# From -- ./inp_files/7926.got.cif
#   From: 2010.05.17/outbox.cif.g08.bks.cpg/sg132_4_cif.got.tgz:7926.got - 2010.05.20 12:30:18.
