data_PCOD9567144
_publ_section_title
;
Structure prediction by ZEFSAII (Michael W. Deem and Ramdas Pophale) SiO2 
 PCOD9567144
Probable space group: P 42/M C M
;
_chemical_formula_sum "Si O2"
_cell_formula_units_Z 120
_cell_length_a 20.627266
_cell_length_b 20.627266
_cell_length_c 16.282531
_cell_angle_alpha 90.000000
_cell_angle_beta 90.000000
_cell_angle_gamma 90.000000
_cell_volume 6927.958091
_symmetry_space_group_name_H-M "P 42/M C M"
_symmetry_group_IT_number 132
_symmetry_cell_setting 'tetragonal'
loop_
_space_group_symop_operation_xyz
x,y,z
-y,x,1/2+z
-x,-y,z
y,-x,1/2+z
x,-y,1/2-z
-x,y,1/2-z
y,x,-z
-y,-x,-z
-x,-y,-z
y,-x,1/2-z
x,y,-z
-y,x,1/2-z
-x,y,1/2+z
x,-y,1/2+z
-y,-x,z
y,x,z
loop_
_atom_site_type_symbol
_atom_site_label
_atom_site_fract_x
_atom_site_fract_y
_atom_site_fract_z
Si Si1 0.051977 0.948024 0.598017
Si Si2 0.138054 0.239481 0.096909
Si Si3 0.160893 0.445680 0.181110
Si Si4 0.534935 0.063429 0.095704
Si Si5 0.009886 0.807322 0.346713
Si Si6 0.073934 0.346963 0.716319
Si Si7 0.237359 0.873352 0.096553
Si Si8 0.753350 0.649930 0.096820
O O1 0.050516 0.949484 0.500000
O O2 0.123156 0.965041 0.626694
O O3 0.000000 0.000000 0.629984
O O4 0.178067 0.178067 0.131248
O O5 0.067280 0.243806 0.134749
O O6 0.186402 0.299712 0.104377
O O7 0.128380 0.228701 0.000000
O O8 0.172783 0.500000 0.250000
O O9 0.122128 0.485543 0.111966
O O10 0.114849 0.388687 0.217433
O O11 0.225445 0.412311 0.147446
O O12 0.602251 0.068329 0.141748
O O13 0.500000 0.000000 0.130887
O O14 0.546326 0.055089 0.000000
O O15 0.000000 0.808260 0.250000
O O16 0.943965 0.795650 0.396173
O O17 0.116236 0.289197 0.672292
O O18 0.000000 0.333938 0.750000
O O19 0.185103 0.814898 0.110830
O O20 0.260628 0.865955 0.000000
O O21 0.689708 0.689708 0.123433
O O22 0.746851 0.635456 0.000000
#
# Coordination Sequence:
#
# PCOD9567144 Si02
#       8
#     8  16  16  16  16  16  16  16
#     4  11  24  40  56  68  90 122 154 208 292 366
#     4   9  18  34  54  75 100 132 173 220 276 340
#     4  10  21  34  55  84 121 148 181 231 276 325
#     4  10  19  33  56  82 114 148 177 215 277 346
#     4  12  25  36  55  76  94 120 166 230 290 341
#     4  11  22  38  55  80 106 138 180 234 285 342
#     4  11  26  44  56  70  98 137 186 231 279 346
#     4   9  19  35  56  83 116 152 190 226 270 331
#
# _framework density 17.321121999999999
#
# number of rings (size 3 to 8) (size 9 to 14) (size 15 to 20)
#    0.000    1.667    2.000    3.600    5.600    1.600 
#    0.000    0.000    0.000    0.000    0.000    0.000 
#    0.000    0.267    0.000    1.467    0.000    1.467 
#
# Total GULP energy -669070.822869 kJ/mol
# GULP energy per Si atom -5575.590191 kJ/mol
# Density = 1.728170 g / cm^3
# Si number density = 17.321122 Si / 1000 Ang^3
#
#
#
# Elastic Constant Matrix: (Units=GPa)
#
#
# Indices 1 2 3 4 5 6 
#
# 1 70.8032 16.2820 14.9710 0.0000 0.0000 0.0000
# 2 16.2820 70.8040 14.9716 0.0000 0.0000 0.0000
# 3 14.9710 14.9716 49.1221 0.0000 0.0000 0.0000
# 4 0.0000 0.0000 0.0000 61.8687 0.0000 0.0000
# 5 0.0000 0.0000 0.0000 0.0000 61.7557 0.0000
# 6 0.0000 0.0000 0.0000 0.0000 0.0000 26.2871
#
#
#
# Elastic Compliance Matrix: (Units=1/GPa)
#
#
# Indices 1 2 3 4 5 6 
#
# 1 0.015584 -0.002757 -0.003909 0.000000 0.000000 0.000000
# 2 -0.002757 0.015584 -0.003910 0.000000 0.000000 0.000000
# 3 -0.003909 -0.003910 0.022740 0.000000 0.000000 0.000000
# 4 0.000000 0.000000 0.000000 0.016163 0.000000 0.000000
# 5 0.000000 0.000000 0.000000 0.000000 0.016193 0.000000
# 6 0.000000 0.000000 0.000000 0.000000 0.000000 0.038042
#
#
# Mechanical properties :
#
#
# Convention : Reuss Voigt Hill
#
# Bulk Modulus (GPa) = 30.52781 31.46429 30.99605
# Shear Modulus (GPa) = 31.97391 39.61594 35.79492
#
# Velocity S-wave (km/s) = 4.30111 4.78760 4.55086
# Velocity P-wave (km/s) = 6.50607 6.98328 6.74889
#
# Compressibility (1/GPa) = 0.03275701
#
# Stress axis : x y z
#
# Youngs Moduli (GPa) = 64.16718 64.16764 43.97447
#
# Poissons Ratio (x) = 0.17692 0.17191
# Poissons Ratio (y) = 0.17692 0.17192
# Poissons Ratio (z) = 0.25085 0.25087
#
# Static dielectric constant tensor:
#      x y z
#    x 1.611050 0.000000 0.000000 
#    y 0.000000 1.611050 0.000000 
#    z 0.000000 0.000000 1.624310 
# 
# From -- ./inp_files/5127.got.cif
#   From: 2010.05.17/outbox.cif.g08.bks.cpg/sg132_3_cif.got.tgz:5127.got - 2010.05.20 12:30:18.
