data_PCOD9567468
_publ_section_title
;
Structure prediction by ZEFSAII (Michael W. Deem and Ramdas Pophale) SiO2 
 PCOD9567468
Probable space group: P 42/M C M
;
_chemical_formula_sum "Si O2"
_cell_formula_units_Z 42
_cell_length_a 15.507946
_cell_length_b 15.507946
_cell_length_c 9.049438
_cell_angle_alpha 90.000000
_cell_angle_beta 90.000000
_cell_angle_gamma 90.000000
_cell_volume 2176.357163
_symmetry_space_group_name_H-M "P 42/M C M"
_symmetry_group_IT_number 132
_symmetry_cell_setting 'tetragonal'
loop_
_space_group_symop_operation_xyz
x,y,z
-y,x,1/2+z
-x,-y,z
y,-x,1/2+z
x,-y,1/2-z
-x,y,1/2-z
y,x,-z
-y,-x,-z
-x,-y,-z
y,-x,1/2-z
x,y,-z
-y,x,1/2-z
-x,y,1/2+z
x,-y,1/2+z
-y,-x,z
y,x,z
loop_
_atom_site_type_symbol
_atom_site_label
_atom_site_fract_x
_atom_site_fract_y
_atom_site_fract_z
Si Si1 0.683794 0.912635 0.322769
Si Si2 0.000000 0.000000 0.750000
Si Si3 0.862160 0.137841 0.668577
Si Si4 0.591875 0.733293 0.322616
O O1 0.690347 0.921285 0.500000
O O2 0.778295 0.895976 0.254494
O O3 0.626694 0.828913 0.287549
O O4 0.649131 0.000000 0.250000
O O5 0.935482 0.064519 0.666334
O O6 0.839675 0.160326 0.500000
O O7 0.500000 0.717203 0.250000
O O8 0.584268 0.728085 0.500000
O O9 0.663453 0.663453 0.275671
#
# Coordination Sequence:
#
# PCOD9567468 Si02
#       4
#    16   2   8  16
#     4  11  23  41  63  90 129 167 211 261 313 374
#     4  12  26  36  56  94 130 160 218 264 318 364
#     4  12  24  37  58  87 124 169 214 259 314 370
#     4  10  23  44  67  94 129 167 208 264 325 383
#
# _framework density 19.298302
#
# number of rings (size 3 to 8) (size 9 to 14) (size 15 to 20)
#    0.000    1.143    3.810    2.000    0.000    6.476 
#    0.000    5.714    0.000    0.000    0.000    0.000 
#    0.000    0.000    0.000    0.000    0.000    0.000 
#
# Total GULP energy -234767.098322 kJ/mol
# GULP energy per Si atom -5589.692817 kJ/mol
# Density = 1.925438 g / cm^3
# Si number density = 19.298302 Si / 1000 Ang^3
#
#
#
# Elastic Constant Matrix: (Units=GPa)
#
#
# Indices 1 2 3 4 5 6 
#
# 1 143.2298 78.6948 48.6659 0.0000 0.0000 0.0000
# 2 78.6948 143.2296 48.6658 0.0000 0.0000 0.0000
# 3 48.6659 48.6658 68.8660 0.0000 0.0000 0.0000
# 4 0.0000 0.0000 0.0000 26.3099 0.0000 0.0000
# 5 0.0000 0.0000 0.0000 0.0000 26.3100 0.0000
# 6 0.0000 0.0000 0.0000 0.0000 0.0000 12.4938
#
#
#
# Elastic Compliance Matrix: (Units=1/GPa)
#
#
# Indices 1 2 3 4 5 6 
#
# 1 0.011013 -0.004483 -0.004614 0.000000 0.000000 0.000000
# 2 -0.004483 0.011013 -0.004614 0.000000 0.000000 0.000000
# 3 -0.004614 -0.004614 0.021043 0.000000 0.000000 0.000000
# 4 0.000000 0.000000 0.000000 0.038009 0.000000 0.000000
# 5 0.000000 0.000000 0.000000 0.000000 0.038008 0.000000
# 6 0.000000 0.000000 0.000000 0.000000 0.000000 0.080039
#
#
# Mechanical properties :
#
#
# Convention : Reuss Voigt Hill
#
# Bulk Modulus (GPa) = 63.91978 78.59761 71.25869
# Shear Modulus (GPa) = 21.57377 24.97600 23.27488
#
# Velocity S-wave (km/s) = 3.34714 3.60141 3.47660
# Velocity P-wave (km/s) = 6.93770 7.62297 7.28840
#
# Compressibility (1/GPa) = 0.01564461
#
# Stress axis : x y z
#
# Youngs Moduli (GPa) = 90.80445 90.80438 47.52208
#
# Poissons Ratio (x) = 0.40706 0.21929
# Poissons Ratio (y) = 0.40706 0.21929
# Poissons Ratio (z) = 0.41902 0.41902
#
# Static dielectric constant tensor:
#      x y z
#    x 1.659980 0.000000 0.000000 
#    y 0.000000 1.659980 0.000000 
#    z 0.000000 0.000000 1.651020 
# 
# From -- ./inp_files/581.got.cif
#   From: 2010.05.17/outbox.cif.g08.bks.cpg/sg132_1_cif.got.tgz:581.got - 2010.05.20 12:30:18.
