data_PCOD9567486
_publ_section_title
;
Structure prediction by ZEFSAII (Michael W. Deem and Ramdas Pophale) SiO2 
 PCOD9567486
Probable space group: P 42/M C M
;
_chemical_formula_sum "Si O2"
_cell_formula_units_Z 48
_cell_length_a 11.877388
_cell_length_b 11.877388
_cell_length_c 19.271379
_cell_angle_alpha 90.000000
_cell_angle_beta 90.000000
_cell_angle_gamma 90.000000
_cell_volume 2718.658640
_symmetry_space_group_name_H-M "P 42/M C M"
_symmetry_group_IT_number 132
_symmetry_cell_setting 'tetragonal'
loop_
_space_group_symop_operation_xyz
x,y,z
-y,x,1/2+z
-x,-y,z
y,-x,1/2+z
x,-y,1/2-z
-x,y,1/2-z
y,x,-z
-y,-x,-z
-x,-y,-z
y,-x,1/2-z
x,y,-z
-y,x,1/2-z
-x,y,1/2+z
x,-y,1/2+z
-y,-x,z
y,x,z
loop_
_atom_site_type_symbol
_atom_site_label
_atom_site_fract_x
_atom_site_fract_y
_atom_site_fract_z
Si Si1 0.403081 0.596920 0.079265
Si Si2 0.389107 0.924600 0.576912
Si Si3 0.260963 0.552214 0.677521
Si Si4 0.997440 0.188786 0.000000
O O1 0.500000 0.500000 0.076187
O O2 0.456848 0.697722 0.123521
O O3 0.373662 0.626339 0.000000
O O4 0.402384 0.867878 0.500000
O O5 0.380602 0.835354 0.637529
O O6 0.500000 0.000000 0.587340
O O7 0.275099 0.995071 0.564805
O O8 0.223032 0.500000 0.750000
O O9 0.367334 0.632667 0.692099
O O10 0.888592 0.111409 0.000000
O O11 0.106078 0.106078 0.000000
#
# Coordination Sequence:
#
# PCOD9567486 Si02
#       4
#     8  16  16   8
#     4   9  18  30  48  76 108 150 193 234 272 330
#     4   9  20  37  54  83 114 150 190 248 295 356
#     4  11  20  33  53  79 116 156 195 236 287 351
#     4   9  17  34  60  85 109 141 192 254 301 343
#
# _framework density 17.655764000000001
#
# number of rings (size 3 to 8) (size 9 to 14) (size 15 to 20)
#    1.000    1.333    1.667    2.000    0.000    2.000 
#    3.000    0.000    0.000    0.000    0.000    0.000 
#    0.000    5.333    0.000    0.000    0.000    0.333 
#
# Total GULP energy -267249.713692 kJ/mol
# GULP energy per Si atom -5567.702369 kJ/mol
# Density = 1.761558 g / cm^3
# Si number density = 17.655764 Si / 1000 Ang^3
#
#
#
# Elastic Constant Matrix: (Units=GPa)
#
#
# Indices 1 2 3 4 5 6 
#
# 1 67.8610 42.6406 22.5288 0.0000 0.0000 0.0000
# 2 42.6406 67.8613 22.5300 0.0000 0.0000 0.0000
# 3 22.5288 22.5300 105.4570 0.0000 0.0000 0.0000
# 4 0.0000 0.0000 0.0000 6.0942 0.0000 0.0000
# 5 0.0000 0.0000 0.0000 0.0000 6.0943 0.0000
# 6 0.0000 0.0000 0.0000 0.0000 0.0000 25.7994
#
#
#
# Elastic Compliance Matrix: (Units=1/GPa)
#
#
# Indices 1 2 3 4 5 6 
#
# 1 0.024782 -0.014869 -0.002118 0.000000 0.000000 0.000000
# 2 -0.014869 0.024782 -0.002118 0.000000 0.000000 0.000000
# 3 -0.002118 -0.002118 0.010387 0.000000 0.000000 0.000000
# 4 0.000000 0.000000 0.000000 0.164091 0.000000 0.000000
# 5 0.000000 0.000000 0.000000 0.000000 0.164087 0.000000
# 6 0.000000 0.000000 0.000000 0.000000 0.000000 0.038761
#
#
# Mechanical properties :
#
#
# Convention : Reuss Voigt Hill
#
# Bulk Modulus (GPa) = 45.99275 46.28646 46.13960
# Shear Modulus (GPa) = 10.58548 17.82957 14.20753
#
# Velocity S-wave (km/s) = 2.45122 3.18125 2.83979
# Velocity P-wave (km/s) = 5.84103 6.30609 6.07801
#
# Compressibility (1/GPa) = 0.02174256
#
# Stress axis : x y z
#
# Youngs Moduli (GPa) = 40.35242 40.35222 96.27029
#
# Poissons Ratio (x) = 0.59998 0.20386
# Poissons Ratio (y) = 0.59998 0.20391
# Poissons Ratio (z) = 0.08545 0.08547
#
# Static dielectric constant tensor:
#      x y z
#    x 1.623320 0.000000 0.000000 
#    y 0.000000 1.623320 0.000000 
#    z 0.000000 0.000000 1.588200 
# 
# From -- ./inp_files/5718.got.cif
#   From: 2010.05.17/outbox.cif.g08.bks.cpg/sg132_3_cif.got.tgz:5718.got - 2010.05.20 12:30:18.
