data_PCOD9567560
_publ_section_title
;
Structure prediction by ZEFSAII (Michael W. Deem and Ramdas Pophale) SiO2 
 PCOD9567560
Probable space group: P 42/M C M
;
_chemical_formula_sum "Si O2"
_cell_formula_units_Z 72
_cell_length_a 15.000000
_cell_length_b 15.000000
_cell_length_c 18.000000
_cell_angle_alpha 90.000000
_cell_angle_beta 90.000000
_cell_angle_gamma 90.000000
_cell_volume 4050.000000
_symmetry_space_group_name_H-M "P 42/M C M"
_symmetry_group_IT_number 132
_symmetry_cell_setting 'tetragonal'
loop_
_space_group_symop_operation_xyz
x,y,z
-y,x,1/2+z
-x,-y,z
y,-x,1/2+z
x,-y,1/2-z
-x,y,1/2-z
y,x,-z
-y,-x,-z
-x,-y,-z
y,-x,1/2-z
x,y,-z
-y,x,1/2-z
-x,y,1/2+z
x,-y,1/2+z
-y,-x,z
y,x,z
loop_
_atom_site_type_symbol
_atom_site_label
_atom_site_fract_x
_atom_site_fract_y
_atom_site_fract_z
Si Si1 0.071924 0.071924 0.916617
Si Si2 0.174268 0.682656 0.910806
Si Si3 0.499566 0.891584 0.839668
Si Si4 0.238873 0.998157 0.838428
Si Si5 0.676225 0.827532 0.910559
O O1 0.142253 0.025581 0.863827
O O2 0.105113 0.105113 0.000000
O O3 0.000000 0.000000 0.932704
O O4 0.268748 0.731253 0.896435
O O5 0.153910 0.588148 0.873601
O O6 0.097075 0.741556 0.873601
O O7 0.162476 0.678060 0.000000
O O8 0.500000 0.888961 0.750000
O O9 0.579426 0.830285 0.872213
O O10 0.500000 0.000000 0.859177
O O11 0.291965 0.076697 0.879998
O O12 0.255235 0.000000 0.750000
O O13 0.748815 0.748815 0.891317
O O14 0.668343 0.827642 0.000000
#
# Coordination Sequence:
#
# PCOD9567560 Si02
#       5
#     8  16  16  16  16
#     4  11  24  38  52  72 110 160 207 247 295 362
#     4  11  24  41  62  88 121 161 205 251 307 368
#     4  11  23  39  63  94 124 159 206 256 311 367
#     4  12  24  35  56  83 118 157 202 250 301 357
#     4  11  23  40  63  89 121 161 205 251 307 369
#
# _framework density 17.777778000000001
#
# number of rings (size 3 to 8) (size 9 to 14) (size 15 to 20)
#    0.000    0.778    3.333    4.667    3.111    5.333 
#    0.000    0.000    0.000    0.667    0.000    4.667 
#    0.000    0.000    0.000    0.000    0.000    0.000 
#
# Total GULP energy -401004.071418 kJ/mol
# GULP energy per Si atom -5569.500992 kJ/mol
# Density = 1.773731 g / cm^3
# Si number density = 17.777778 Si / 1000 Ang^3
#
#
#
# Elastic Constant Matrix: (Units=GPa)
#
#
# Indices 1 2 3 4 5 6 
#
# 1 66.1570 50.9730 32.6289 0.0000 0.0000 0.0000
# 2 50.9730 66.1570 32.6289 0.0000 0.0000 0.0000
# 3 32.6289 32.6289 107.3060 0.0000 0.0000 0.0000
# 4 0.0000 0.0000 0.0000 7.2355 0.0000 0.0000
# 5 0.0000 0.0000 0.0000 0.0000 7.2355 0.0000
# 6 0.0000 0.0000 0.0000 0.0000 0.0000 19.7521
#
#
#
# Elastic Compliance Matrix: (Units=1/GPa)
#
#
# Indices 1 2 3 4 5 6 
#
# 1 0.038069 -0.027790 -0.003126 0.000000 0.000000 0.000000
# 2 -0.027790 0.038069 -0.003126 0.000000 0.000000 0.000000
# 3 -0.003126 -0.003126 0.011220 0.000000 0.000000 0.000000
# 4 0.000000 0.000000 0.000000 0.138208 0.000000 0.000000
# 5 0.000000 0.000000 0.000000 0.000000 0.138208 0.000000
# 6 0.000000 0.000000 0.000000 0.000000 0.000000 0.050628
#
#
# Mechanical properties :
#
#
# Convention : Reuss Voigt Hill
#
# Bulk Modulus (GPa) = 51.87915 52.45347 52.16631
# Shear Modulus (GPa) = 10.22685 15.07054 12.64869
#
# Velocity S-wave (km/s) = 2.40106 2.91472 2.67027
# Velocity P-wave (km/s) = 6.07718 6.39504 6.23814
#
# Compressibility (1/GPa) = 0.01927557
#
# Stress axis : x y z
#
# Youngs Moduli (GPa) = 26.26813 26.26813 89.12714
#
# Poissons Ratio (x) = 0.72999 0.27857
# Poissons Ratio (y) = 0.72999 0.27857
# Poissons Ratio (z) = 0.08210 0.08210
#
# Static dielectric constant tensor:
#      x y z
#    x 0.037420 0.000000 0.000000 
#    y 0.000000 0.037420 0.000000 
#    z 0.000000 0.000000 1.548910 
# 
# From -- ./inp_files/6118.got.cif
#   From: 2010.05.17/outbox.ucp.g08.bks.cvg/sg132_4_cif.got.tgz:6118.got - 2010.06.11 11:39:14.
