data_PCOD9567705
_publ_section_title
;
Structure prediction by ZEFSAII (Michael W. Deem and Ramdas Pophale) SiO2 
 PCOD9567705
Probable space group: P 42/N B C
;
_chemical_formula_sum "Si O2"
_cell_formula_units_Z 120
_cell_length_a 21.655478
_cell_length_b 21.655478
_cell_length_c 13.809078
_cell_angle_alpha 90.000000
_cell_angle_beta 90.000000
_cell_angle_gamma 90.000000
_cell_volume 6475.901455
_symmetry_space_group_name_H-M "P 42/N B C"
_symmetry_group_IT_number 133
_space_group.IT_coordinate_system_code '2'
_symmetry_cell_setting 'tetragonal'
loop_
_space_group_symop_operation_xyz
x,y,z
1/2-y,x,1/2+z
1/2-x,1/2-y,z
y,1/2-x,1/2+z
x,1/2-y,-z
1/2-x,y,-z
y,x,1/2-z
1/2-y,1/2-x,1/2-z
-x,-y,-z
1/2+y,-x,1/2-z
1/2+x,1/2+y,-z
-y,1/2+x,1/2-z
-x,1/2+y,z
1/2+x,-y,z
-y,-x,1/2+z
1/2+y,1/2+x,1/2+z
loop_
_atom_site_type_symbol
_atom_site_label
_atom_site_fract_x
_atom_site_fract_y
_atom_site_fract_z
Si Si1 0.739206 0.136706 0.860958
Si Si2 0.250000 0.538574 0.500000
Si Si3 0.510564 0.618577 0.992808
Si Si4 0.859963 0.198107 0.855666
Si Si5 0.990182 0.300275 0.564106
Si Si6 0.410187 0.548979 0.688114
Si Si7 0.904672 0.951478 0.845811
Si Si8 0.618418 0.426493 0.094866
O O1 0.790961 0.185457 0.895947
O O2 0.733388 0.145205 0.746064
O O3 0.667958 0.130317 0.895682
O O4 0.766668 0.069587 0.890182
O O5 0.191745 0.495355 0.521882
O O6 0.231900 0.587223 0.416251
O O7 0.564853 0.583141 0.937331
O O8 0.447711 0.594432 0.942108
O O9 0.502725 0.605880 0.107966
O O10 0.890123 0.130092 0.839580
O O11 0.024281 0.250000 0.500000
O O12 0.032107 0.333647 0.640158
O O13 0.968323 0.352649 0.488735
O O14 0.482358 0.562676 0.675298
O O15 0.390721 0.540925 0.800576
O O16 0.912705 0.912705 0.750000
#
# Coordination Sequence:
#
# PCOD9567705 Si02
#       8
#    16   8  16  16  16  16  16  16
#     4  10  21  36  55  75 109 156 211 254 293 329
#     4  10  24  38  53  74 115 160 188 252 300 342
#     4  11  22  37  55  83 119 150 195 240 306 353
#     4  10  21  37  54  70 111 155 212 251 296 333
#     4  10  21  39  57  85 116 156 196 242 301 358
#     4  10  20  36  52  84 109 150 194 245 304 346
#     4  12  22  34  64  89 114 148 192 247 290 370
#     4  10  20  36  58  75 115 157 194 253 296 341
#
# _framework density 18.530238000000001
#
# number of rings (size 3 to 8) (size 9 to 14) (size 15 to 20)
#    0.000    1.600    4.000    1.200    5.600    0.267 
#    0.000    0.667    0.000    0.000    0.000    0.467 
#    0.000    1.067    0.000    0.000    0.000    0.000 
#
# Total GULP energy -669367.423950 kJ/mol
# GULP energy per Si atom -5578.061866 kJ/mol
# Density = 1.848806 g / cm^3
# Si number density = 18.530238 Si / 1000 Ang^3
#
#
#
# Elastic Constant Matrix: (Units=GPa)
#
#
# Indices 1 2 3 4 5 6 
#
# 1 39.0480 30.8822 9.9546 0.0000 0.0000 0.0000
# 2 30.8822 39.0480 9.9546 0.0000 0.0000 0.0000
# 3 9.9546 9.9546 80.1555 0.0000 0.0000 0.0000
# 4 0.0000 0.0000 0.0000 27.7394 0.0000 0.0000
# 5 0.0000 0.0000 0.0000 0.0000 27.7394 0.0000
# 6 0.0000 0.0000 0.0000 0.0000 0.0000 19.3864
#
#
#
# Elastic Compliance Matrix: (Units=1/GPa)
#
#
# Indices 1 2 3 4 5 6 
#
# 1 0.068643 -0.053819 -0.001841 0.000000 0.000000 0.000000
# 2 -0.053819 0.068643 -0.001841 0.000000 0.000000 0.000000
# 3 -0.001841 -0.001841 0.012933 0.000000 0.000000 0.000000
# 4 0.000000 0.000000 0.000000 0.036050 0.000000 0.000000
# 5 0.000000 0.000000 0.000000 0.000000 0.036050 0.000000
# 6 0.000000 0.000000 0.000000 0.000000 0.000000 0.051583
#
#
# Mechanical properties :
#
#
# Convention : Reuss Voigt Hill
#
# Bulk Modulus (GPa) = 28.39524 28.87047 28.63286
# Shear Modulus (GPa) = 12.47995 22.13705 17.30850
#
# Velocity S-wave (km/s) = 2.59799 3.46011 3.05957
# Velocity P-wave (km/s) = 4.93522 5.61936 5.28836
#
# Compressibility (1/GPa) = 0.03521717
#
# Stress axis : x y z
#
# Youngs Moduli (GPa) = 14.56809 14.56809 77.32137
#
# Poissons Ratio (x) = 0.78404 0.14235
# Poissons Ratio (y) = 0.78404 0.14235
# Poissons Ratio (z) = 0.02682 0.02682
#
# Static dielectric constant tensor:
#      x y z
#    x 1.671670 0.000000 0.000000 
#    y 0.000000 1.671670 0.000000 
#    z 0.000000 0.000000 1.718300 
# 
# From -- ./inp_files/4691.got.cif
#   From: 2010.05.17/outbox.cif.g08.bks.cpg/sg133_3_cif.got.tgz:4691.got - 2010.05.20 12:37:36.
