data_PCOD9567223
_publ_section_title
;
Structure prediction by ZEFSAII (Michael W. Deem and Ramdas Pophale) SiO2 
 PCOD9567223
Probable space group: P 42/M C M
;
_chemical_formula_sum "Si O2"
_cell_formula_units_Z 128
_cell_length_a 20.587774
_cell_length_b 20.587774
_cell_length_c 17.314562
_cell_angle_alpha 90.000000
_cell_angle_beta 90.000000
_cell_angle_gamma 90.000000
_cell_volume 7338.888580
_symmetry_space_group_name_H-M "P 42/M C M"
_symmetry_group_IT_number 132
_symmetry_cell_setting 'tetragonal'
loop_
_space_group_symop_operation_xyz
x,y,z
-y,x,1/2+z
-x,-y,z
y,-x,1/2+z
x,-y,1/2-z
-x,y,1/2-z
y,x,-z
-y,-x,-z
-x,-y,-z
y,-x,1/2-z
x,y,-z
-y,x,1/2-z
-x,y,1/2+z
x,-y,1/2+z
-y,-x,z
y,x,z
loop_
_atom_site_type_symbol
_atom_site_label
_atom_site_fract_x
_atom_site_fract_y
_atom_site_fract_z
Si Si1 0.630150 0.899883 0.408948
Si Si2 0.837510 0.265474 0.412446
Si Si3 0.616516 0.229378 0.646557
Si Si4 0.639319 0.948602 0.092446
Si Si5 0.303299 0.412569 0.586413
Si Si6 0.879790 0.514136 0.158551
Si Si7 0.647539 0.550478 0.092537
Si Si8 0.675861 0.785192 0.314166
O O1 0.636798 0.884368 0.500000
O O2 0.554295 0.890601 0.384323
O O3 0.675789 0.854303 0.356346
O O4 0.648757 0.975035 0.397026
O O5 0.853598 0.245983 0.500000
O O6 0.794907 0.205094 0.378007
O O7 0.790292 0.328210 0.413747
O O8 0.903260 0.300134 0.379946
O O9 0.550105 0.188251 0.639123
O O10 0.596392 0.302988 0.637324
O O11 0.652166 0.211984 0.726446
O O12 0.571588 0.929112 0.133538
O O13 0.631433 0.936217 0.000000
O O14 0.276263 0.422980 0.500000
O O15 0.358663 0.358663 0.581105
O O16 0.336265 0.477819 0.614859
O O17 0.250470 0.383176 0.642087
O O18 0.883059 0.500000 0.250000
O O19 0.575108 0.575108 0.106406
O O20 0.659682 0.556381 0.000000
O O21 0.740188 0.740188 0.320949
#
# Coordination Sequence:
#
# PCOD9567223 Si02
#       8
#    16  16  16  16  16  16  16  16
#     4  11  22  36  52  74 104 136 171 212 253 300
#     4   9  17  32  53  74  99 131 163 197 243 298
#     4  11  21  33  48  71  98 124 162 208 247 294
#     4   9  20  35  52  76 106 137 169 208 251 296
#     4   9  19  34  49  64  84 114 156 205 254 307
#     4  11  21  35  51  75 101 137 173 203 249 303
#     4  10  20  32  49  70  90 116 151 200 263 319
#     4  11  22  36  52  70  94 130 171 211 254 296
#
# _framework density 17.441333
#
# number of rings (size 3 to 8) (size 9 to 14) (size 15 to 20)
#    0.000    1.875    1.250    3.375    0.000    6.500 
#    0.000    1.250    0.000    0.000    0.000    1.750 
#    0.000    0.500    0.000    4.875    0.000    6.000 
#
# Total GULP energy -713423.979481 kJ/mol
# GULP energy per Si atom -5573.624840 kJ/mol
# Density = 1.740164 g / cm^3
# Si number density = 17.441333 Si / 1000 Ang^3
#
#
#
# Elastic Constant Matrix: (Units=GPa)
#
#
# Indices 1 2 3 4 5 6 
#
# 1 60.9230 37.7436 13.8193 0.0000 0.0000 0.0000
# 2 37.7436 60.9230 13.8193 0.0000 0.0000 0.0000
# 3 13.8193 13.8193 35.9600 0.0000 0.0000 0.0000
# 4 0.0000 0.0000 0.0000 22.8299 0.0000 0.0000
# 5 0.0000 0.0000 0.0000 0.0000 22.8299 0.0000
# 6 0.0000 0.0000 0.0000 0.0000 0.0000 17.0569
#
#
#
# Elastic Compliance Matrix: (Units=1/GPa)
#
#
# Indices 1 2 3 4 5 6 
#
# 1 0.027250 -0.015892 -0.004365 0.000000 0.000000 0.000000
# 2 -0.015892 0.027250 -0.004365 0.000000 0.000000 0.000000
# 3 -0.004365 -0.004365 0.031163 0.000000 0.000000 0.000000
# 4 0.000000 0.000000 0.000000 0.043802 0.000000 0.000000
# 5 0.000000 0.000000 0.000000 0.000000 0.043802 0.000000
# 6 0.000000 0.000000 0.000000 0.000000 0.000000 0.058627
#
#
# Mechanical properties :
#
#
# Convention : Reuss Voigt Hill
#
# Bulk Modulus (GPa) = 27.45744 32.06337 29.76040
# Shear Modulus (GPa) = 17.04870 18.70494 17.87682
#
# Velocity S-wave (km/s) = 3.12987 3.27838 3.20499
# Velocity P-wave (km/s) = 5.37014 5.72310 5.54942
#
# Compressibility (1/GPa) = 0.03642000
#
# Stress axis : x y z
#
# Youngs Moduli (GPa) = 36.69756 36.69756 32.08890
#
# Poissons Ratio (x) = 0.58320 0.14006
# Poissons Ratio (y) = 0.58320 0.14006
# Poissons Ratio (z) = 0.16018 0.16018
#
# Static dielectric constant tensor:
#      x y z
#    x 1.658940 0.000000 0.000000 
#    y 0.000000 1.658940 0.000000 
#    z 0.000000 0.000000 1.760560 
# 
# From -- ./inp_files/6853.got.cif
#   From: 2010.05.17/outbox.cif.g08.bks.cpg/sg132_4_cif.got.tgz:6853.got - 2010.05.20 12:30:18.
