data_PCOD9567032
_publ_section_title
;
Structure prediction by ZEFSAII (Michael W. Deem and Ramdas Pophale) SiO2 
 PCOD9567032
Probable space group: P 42/M C M
;
_chemical_formula_sum "Si O2"
_cell_formula_units_Z 96
_cell_length_a 29.295580
_cell_length_b 29.295580
_cell_length_c 9.095962
_cell_angle_alpha 90.000000
_cell_angle_beta 90.000000
_cell_angle_gamma 90.000000
_cell_volume 7806.436632
_symmetry_space_group_name_H-M "P 42/M C M"
_symmetry_group_IT_number 132
_symmetry_cell_setting 'tetragonal'
loop_
_space_group_symop_operation_xyz
x,y,z
-y,x,1/2+z
-x,-y,z
y,-x,1/2+z
x,-y,1/2-z
-x,y,1/2-z
y,x,-z
-y,-x,-z
-x,-y,-z
y,-x,1/2-z
x,y,-z
-y,x,1/2-z
-x,y,1/2+z
x,-y,1/2+z
-y,-x,z
y,x,z
loop_
_atom_site_type_symbol
_atom_site_label
_atom_site_fract_x
_atom_site_fract_y
_atom_site_fract_z
Si Si1 0.882176 0.617080 0.830542
Si Si2 0.698299 0.955839 0.165735
Si Si3 0.825099 0.174902 0.668761
Si Si4 0.746459 0.746459 0.170563
Si Si5 0.813645 0.680557 0.670718
Si Si6 0.109459 0.238957 0.668558
Si Si7 0.550247 0.952079 0.321400
O O1 0.917681 0.659198 0.836660
O O2 0.836643 0.638209 0.756876
O O3 0.908983 0.579929 0.732985
O O4 0.874634 0.601973 0.000000
O O5 0.741045 0.933905 0.248351
O O6 0.681404 0.000000 0.250000
O O7 0.710092 0.968096 0.000000
O O8 0.835058 0.164943 0.500000
O O9 0.785749 0.214252 0.671560
O O10 0.867974 0.196408 0.750675
O O11 0.703323 0.769622 0.251745
O O12 0.736378 0.736378 0.000000
O O13 0.804730 0.669486 0.500000
O O14 0.852180 0.720665 0.671657
O O15 0.099433 0.229025 0.500000
O O16 0.500000 0.946936 0.250000
O O17 0.548988 0.955409 0.500000
O O18 0.567886 0.000000 0.250000
#
# Coordination Sequence:
#
# PCOD9567032 Si02
#       7
#    16  16   8   8  16  16  16
#     4  10  19  30  42  56  72  90 113 141 173 209
#     4  10  19  28  38  51  68  88 109 133 161 192
#     4   9  15  23  35  49  65  83 105 130 154 179
#     4   9  15  23  35  51  71  93 113 135 162 192
#     4   9  16  25  37  53  71  91 113 137 164 196
#     4   9  16  25  36  49  65  84 107 131 155 182
#     4  11  21  33  46  58  71  88 112 144 183 225
#
# _framework density 12.297544
#
# number of rings (size 3 to 8) (size 9 to 14) (size 15 to 20)
#    0.000    2.333    0.000    5.000    0.000    9.333 
#    0.000    0.000    0.000    0.000    0.000    0.000 
#    0.000    0.000    0.000    0.000    0.000    0.417 
#
# Total GULP energy -534745.048404 kJ/mol
# GULP energy per Si atom -5570.260921 kJ/mol
# Density = 1.226955 g / cm^3
# Si number density = 12.297544 Si / 1000 Ang^3
#
#
#
# Elastic Constant Matrix: (Units=GPa)
#
#
# Indices 1 2 3 4 5 6 
#
# 1 32.0853 26.9357 31.6434 0.0000 0.0000 0.0000
# 2 26.9357 32.0853 31.6434 0.0000 0.0000 0.0000
# 3 31.6434 31.6434 128.9792 0.0000 0.0000 0.0000
# 4 0.0000 0.0000 0.0000 16.3864 0.0000 0.0000
# 5 0.0000 0.0000 0.0000 0.0000 16.3864 0.0000
# 6 0.0000 0.0000 0.0000 0.0000 0.0000 21.3507
#
#
#
# Elastic Compliance Matrix: (Units=1/GPa)
#
#
# Indices 1 2 3 4 5 6 
#
# 1 0.108591 -0.085599 -0.005641 0.000000 0.000000 0.000000
# 2 -0.085599 0.108590 -0.005641 0.000000 0.000000 0.000000
# 3 -0.005641 -0.005641 0.010521 0.000000 0.000000 0.000000
# 4 0.000000 0.000000 0.000000 0.061026 0.000000 0.000000
# 5 0.000000 0.000000 0.000000 0.000000 0.061026 0.000000
# 6 0.000000 0.000000 0.000000 0.000000 0.000000 0.046837
#
#
# Mechanical properties :
#
#
# Convention : Reuss Voigt Hill
#
# Bulk Modulus (GPa) = 29.46275 41.51054 35.48664
# Shear Modulus (GPa) = 8.31026 17.68653 12.99840
#
# Velocity S-wave (km/s) = 2.60237 3.79650 3.25467
# Velocity P-wave (km/s) = 5.74805 7.28329 6.56073
#
# Compressibility (1/GPa) = 0.03394117
#
# Stress axis : x y z
#
# Youngs Moduli (GPa) = 9.20890 9.20891 95.04884
#
# Poissons Ratio (x) = 0.78827 0.53614
# Poissons Ratio (y) = 0.78827 0.53613
# Poissons Ratio (z) = 0.05194 0.05194
#
# Static dielectric constant tensor:
#      x y z
#    x 1.388460 0.000000 0.000000 
#    y 0.000000 1.388460 0.000000 
#    z 0.000000 0.000000 1.420920 
# 
# From -- ./inp_files/2131.got.cif
#   From: 2010.05.17/outbox.cif.g08.bks.cpg/sg132_2_cif.got.tgz:2131.got - 2010.05.20 12:30:18.
