data_PCOD9567199
_publ_section_title
;
Structure prediction by ZEFSAII (Michael W. Deem and Ramdas Pophale) SiO2 
 PCOD9567199
Probable space group: P 42/M C M
;
_chemical_formula_sum "Si O2"
_cell_formula_units_Z 60
_cell_length_a 12.699684
_cell_length_b 12.699684
_cell_length_c 20.443815
_cell_angle_alpha 90.000000
_cell_angle_beta 90.000000
_cell_angle_gamma 90.000000
_cell_volume 3297.218833
_symmetry_space_group_name_H-M "P 42/M C M"
_symmetry_group_IT_number 132
_symmetry_cell_setting 'tetragonal'
loop_
_space_group_symop_operation_xyz
x,y,z
-y,x,1/2+z
-x,-y,z
y,-x,1/2+z
x,-y,1/2-z
-x,y,1/2-z
y,x,-z
-y,-x,-z
-x,-y,-z
y,-x,1/2-z
x,y,-z
-y,x,1/2-z
-x,y,1/2+z
x,-y,1/2+z
-y,-x,z
y,x,z
loop_
_atom_site_type_symbol
_atom_site_label
_atom_site_fract_x
_atom_site_fract_y
_atom_site_fract_z
Si Si1 0.947482 0.664009 0.147209
Si Si2 0.252591 0.581920 0.421571
Si Si3 0.500000 0.000000 0.750000
Si Si4 0.000000 0.164669 0.750000
Si Si5 0.823462 0.350549 0.079147
O O1 0.849798 0.649235 0.099367
O O2 0.934610 0.573377 0.201917
O O3 0.953461 0.767550 0.191064
O O4 0.060663 0.652257 0.111502
O O5 0.257994 0.579724 0.500000
O O6 0.356754 0.643247 0.397266
O O7 0.233182 0.460591 0.401576
O O8 0.908976 0.091025 0.777740
O O9 0.748393 0.251608 0.096711
O O10 0.835534 0.350352 0.000000
#
# Coordination Sequence:
#
# PCOD9567199 Si02
#       5
#    16  16   4   8  16
#     4  11  19  35  55  78 102 136 176 229 260 312
#     4  10  20  34  55  81 109 141 176 220 272 320
#     4  10  20  30  54  74  98 130 180 212 264 292
#     4  10  22  36  52  76 106 142 176 214 266 322
#     4  10  20  34  55  81 109 141 176 220 272 320
#
# _framework density 18.197154000000001
#
# number of rings (size 3 to 8) (size 9 to 14) (size 15 to 20)
#    0.000    1.733    2.667    2.400    0.000    2.667 
#    0.000    2.667    0.000    0.000    0.000   13.067 
#    0.000    0.000    0.000    0.000    0.000    0.000 
#
# Total GULP energy -334334.091150 kJ/mol
# GULP energy per Si atom -5572.234852 kJ/mol
# Density = 1.815574 g / cm^3
# Si number density = 18.197154 Si / 1000 Ang^3
#
#
#
# Elastic Constant Matrix: (Units=GPa)
#
#
# Indices 1 2 3 4 5 6 
#
# 1 72.4171 23.5383 13.9313 0.0000 0.0000 0.0000
# 2 23.5383 72.4171 13.9313 0.0000 0.0000 0.0000
# 3 13.9313 13.9313 27.1055 0.0000 0.0000 0.0000
# 4 0.0000 0.0000 0.0000 11.1736 0.0000 0.0000
# 5 0.0000 0.0000 0.0000 0.0000 11.1736 0.0000
# 6 0.0000 0.0000 0.0000 0.0000 0.0000 23.1156
#
#
#
# Elastic Compliance Matrix: (Units=1/GPa)
#
#
# Indices 1 2 3 4 5 6 
#
# 1 0.016354 -0.004105 -0.006296 0.000000 0.000000 0.000000
# 2 -0.004105 0.016354 -0.006296 0.000000 0.000000 0.000000
# 3 -0.006296 -0.006296 0.043365 0.000000 0.000000 0.000000
# 4 0.000000 0.000000 0.000000 0.089497 0.000000 0.000000
# 5 0.000000 0.000000 0.000000 0.000000 0.089497 0.000000
# 6 0.000000 0.000000 0.000000 0.000000 0.000000 0.043261
#
#
# Mechanical properties :
#
#
# Convention : Reuss Voigt Hill
#
# Bulk Modulus (GPa) = 23.43001 30.52684 26.97843
# Shear Modulus (GPa) = 14.45309 17.12848 15.79078
#
# Velocity S-wave (km/s) = 2.82130 3.07134 2.94897
# Velocity P-wave (km/s) = 4.84939 5.42122 5.14326
#
# Compressibility (1/GPa) = 0.04268030
#
# Stress axis : x y z
#
# Youngs Moduli (GPa) = 61.14639 61.14639 23.06030
#
# Poissons Ratio (x) = 0.25098 0.14519
# Poissons Ratio (y) = 0.25098 0.14519
# Poissons Ratio (z) = 0.38497 0.38497
#
# Static dielectric constant tensor:
#      x y z
#    x 1.668350 0.000000 0.000000 
#    y 0.000000 1.668350 0.000000 
#    z 0.000000 0.000000 1.624440 
# 
# From -- ./inp_files/7468.got.cif
#   From: 2010.05.17/outbox.cif.g08.bks.cpg/sg132_4_cif.got.tgz:7468.got - 2010.05.20 12:30:18.
