data_PCOD9567117
_publ_section_title
;
Structure prediction by ZEFSAII (Michael W. Deem and Ramdas Pophale) SiO2 
 PCOD9567117
Probable space group: P 42/M C M
;
_chemical_formula_sum "Si O2"
_cell_formula_units_Z 64
_cell_length_a 13.597616
_cell_length_b 13.597616
_cell_length_c 20.272021
_cell_angle_alpha 90.000000
_cell_angle_beta 90.000000
_cell_angle_gamma 90.000000
_cell_volume 3748.198584
_symmetry_space_group_name_H-M "P 42/M C M"
_symmetry_group_IT_number 132
_symmetry_cell_setting 'tetragonal'
loop_
_space_group_symop_operation_xyz
x,y,z
-y,x,1/2+z
-x,-y,z
y,-x,1/2+z
x,-y,1/2-z
-x,y,1/2-z
y,x,-z
-y,-x,-z
-x,-y,-z
y,-x,1/2-z
x,y,-z
-y,x,1/2-z
-x,y,1/2+z
x,-y,1/2+z
-y,-x,z
y,x,z
loop_
_atom_site_type_symbol
_atom_site_label
_atom_site_fract_x
_atom_site_fract_y
_atom_site_fract_z
Si Si1 0.314920 0.531933 0.825887
Si Si2 0.221319 0.623101 0.424332
Si Si3 0.611683 0.040705 0.661173
Si Si4 0.688152 0.150604 0.791199
O O1 0.330072 0.500000 0.750000
O O2 0.412325 0.587676 0.849084
O O3 0.280723 0.446266 0.873940
O O4 0.227270 0.611249 0.821795
O O5 0.234131 0.591397 0.500000
O O6 0.268971 0.731030 0.417782
O O7 0.108255 0.618900 0.402736
O O8 0.643251 0.112056 0.721759
O O9 0.500000 0.000000 0.669574
O O10 0.684442 0.947615 0.664752
O O11 0.790378 0.209623 0.783401
#
# Coordination Sequence:
#
# PCOD9567117 Si02
#       4
#    16  16  16  16
#     4  11  20  34  55  82 114 150 190 229 277 337
#     4  11  24  39  55  80 116 155 192 234 284 336
#     4  11  19  35  59  83 112 146 191 230 278 337
#     4  10  19  32  56  86 114 139 174 235 290 327
#
# _framework density 17.074867999999999
#
# number of rings (size 3 to 8) (size 9 to 14) (size 15 to 20)
#    0.000    1.250    5.000    3.000    0.000    2.750 
#    0.000    1.250    0.000   13.500    0.000    1.750 
#    0.000    0.000    0.000    0.000    0.000    0.000 
#
# Total GULP energy -356986.708832 kJ/mol
# GULP energy per Si atom -5577.917325 kJ/mol
# Density = 1.703601 g / cm^3
# Si number density = 17.074868 Si / 1000 Ang^3
#
#
#
# Elastic Constant Matrix: (Units=GPa)
#
#
# Indices 1 2 3 4 5 6 
#
# 1 89.9366 60.4605 35.4492 0.0000 0.0000 0.0000
# 2 60.4605 89.9366 35.4492 0.0000 0.0000 0.0000
# 3 35.4492 35.4492 79.8239 0.0000 0.0000 0.0000
# 4 0.0000 0.0000 0.0000 9.4991 0.0000 0.0000
# 5 0.0000 0.0000 0.0000 0.0000 9.4991 0.0000
# 6 0.0000 0.0000 0.0000 0.0000 0.0000 36.8518
#
#
#
# Elastic Compliance Matrix: (Units=1/GPa)
#
#
# Indices 1 2 3 4 5 6 
#
# 1 0.021168 -0.012758 -0.003735 0.000000 0.000000 0.000000
# 2 -0.012758 0.021168 -0.003735 0.000000 0.000000 0.000000
# 3 -0.003735 -0.003735 0.015845 0.000000 0.000000 0.000000
# 4 0.000000 0.000000 0.000000 0.105274 0.000000 0.000000
# 5 0.000000 0.000000 0.000000 0.000000 0.105274 0.000000
# 6 0.000000 0.000000 0.000000 0.000000 0.000000 0.027136
#
#
# Mechanical properties :
#
#
# Convention : Reuss Voigt Hill
#
# Bulk Modulus (GPa) = 56.41663 58.04609 57.23136
# Shear Modulus (GPa) = 14.61023 19.72587 17.16805
#
# Velocity S-wave (km/s) = 2.92833 3.40260 3.17433
# Velocity P-wave (km/s) = 6.67428 7.03603 6.85754
#
# Compressibility (1/GPa) = 0.01772527
#
# Stress axis : x y z
#
# Youngs Moduli (GPa) = 47.24186 47.24186 63.11292
#
# Poissons Ratio (x) = 0.60271 0.23570
# Poissons Ratio (y) = 0.60271 0.23570
# Poissons Ratio (z) = 0.17643 0.17643
#
# Static dielectric constant tensor:
#      x y z
#    x 1.599840 0.000000 0.000000 
#    y 0.000000 1.599840 0.000000 
#    z 0.000000 0.000000 1.587400 
# 
# From -- ./inp_files/5955.got.cif
#   From: 2010.05.17/outbox.cif.g08.bks.cpg/sg132_3_cif.got.tgz:5955.got - 2010.05.20 12:30:18.
