data_PCOD9567260
_publ_section_title
;
Structure prediction by ZEFSAII (Michael W. Deem and Ramdas Pophale) SiO2 
 PCOD9567260
Probable space group: P 42/M C M
;
_chemical_formula_sum "Si O2"
_cell_formula_units_Z 48
_cell_length_a 10.830730
_cell_length_b 10.830730
_cell_length_c 19.276675
_cell_angle_alpha 90.000000
_cell_angle_beta 90.000000
_cell_angle_gamma 90.000000
_cell_volume 2261.244816
_symmetry_space_group_name_H-M "P 42/M C M"
_symmetry_group_IT_number 132
_symmetry_cell_setting 'tetragonal'
loop_
_space_group_symop_operation_xyz
x,y,z
-y,x,1/2+z
-x,-y,z
y,-x,1/2+z
x,-y,1/2-z
-x,y,1/2-z
y,x,-z
-y,-x,-z
-x,-y,-z
y,-x,1/2-z
x,y,-z
-y,x,1/2-z
-x,y,1/2+z
x,-y,1/2+z
-y,-x,z
y,x,z
loop_
_atom_site_type_symbol
_atom_site_label
_atom_site_fract_x
_atom_site_fract_y
_atom_site_fract_z
Si Si1 0.592875 0.407126 0.618937
Si Si2 0.210901 0.789100 0.420666
Si Si3 0.408888 0.779958 0.197031
Si Si4 0.031957 0.645770 0.919708
O O1 0.500000 0.500000 0.579680
O O2 0.684078 0.315923 0.579687
O O3 0.680552 0.497188 0.663342
O O4 0.180931 0.819070 0.500000
O O5 0.085057 0.726635 0.393820
O O6 0.500000 0.849531 0.250000
O O7 0.297667 0.702334 0.231444
O O8 0.349850 0.860209 0.136288
O O9 0.000000 0.500000 0.922025
O O10 0.063490 0.679869 0.000000
#
# Coordination Sequence:
#
# PCOD9567260 Si02
#       4
#     8   8  16  16
#     4  10  20  33  56  89 124 158 199 263 334 392
#     4  10  20  39  59  86 130 168 210 266 319 384
#     4  11  22  38  61  92 129 167 212 269 333 397
#     4  10  21  38  61  89 125 171 217 261 318 390
#
# _framework density 21.227247999999999
#
# number of rings (size 3 to 8) (size 9 to 14) (size 15 to 20)
#    0.000    1.667    5.000    0.000    0.000    1.667 
#    0.000    4.167    0.000    3.000    0.000    0.000 
#    0.000    0.000    0.000    0.000    0.000    0.000 
#
# Total GULP energy -267431.676572 kJ/mol
# GULP energy per Si atom -5571.493262 kJ/mol
# Density = 2.117893 g / cm^3
# Si number density = 21.227248 Si / 1000 Ang^3
#
#
#
# Elastic Constant Matrix: (Units=GPa)
#
#
# Indices 1 2 3 4 5 6 
#
# 1 173.0200 -7.7654 39.5359 0.0000 0.0000 0.0000
# 2 -7.7654 173.0207 39.5355 0.0000 0.0000 0.0000
# 3 39.5359 39.5355 65.1053 0.0000 0.0000 0.0000
# 4 0.0000 0.0000 0.0000 34.5123 0.0000 0.0000
# 5 0.0000 0.0000 0.0000 0.0000 34.5125 0.0000
# 6 0.0000 0.0000 0.0000 0.0000 0.0000 37.8115
#
#
#
# Elastic Compliance Matrix: (Units=1/GPa)
#
#
# Indices 1 2 3 4 5 6 
#
# 1 0.007031 0.001499 -0.005180 0.000000 0.000000 0.000000
# 2 0.001499 0.007030 -0.005180 0.000000 0.000000 0.000000
# 3 -0.005180 -0.005180 0.021651 0.000000 0.000000 0.000000
# 4 0.000000 0.000000 0.000000 0.028975 0.000000 0.000000
# 5 0.000000 0.000000 0.000000 0.000000 0.028975 0.000000
# 6 0.000000 0.000000 0.000000 0.000000 0.000000 0.026447
#
#
# Mechanical properties :
#
#
# Convention : Reuss Voigt Hill
#
# Bulk Modulus (GPa) = 55.58315 61.52867 58.55591
# Shear Modulus (GPa) = 34.76416 44.02326 39.39371
#
# Velocity S-wave (km/s) = 4.05126 4.55895 4.31258
# Velocity P-wave (km/s) = 6.93724 7.53397 7.24175
#
# Compressibility (1/GPa) = 0.01799107
#
# Stress axis : x y z
#
# Youngs Moduli (GPa) = 142.23640 142.23745 46.18824
#
# Poissons Ratio (x) = -0.21323 0.23924
# Poissons Ratio (y) = -0.21323 0.23924
# Poissons Ratio (z) = 0.73674 0.73674
#
# Static dielectric constant tensor:
#      x y z
#    x 1.785480 0.000000 0.000000 
#    y 0.000000 1.785480 0.000000 
#    z 0.000000 0.000000 1.824630 
# 
# From -- ./inp_files/5724.got.cif
#   From: 2010.05.17/outbox.cif.g08.bks.cpg/sg132_3_cif.got.tgz:5724.got - 2010.05.20 12:30:18.
