data_PCOD9567815
_publ_section_title
;
Structure prediction by ZEFSAII (Michael W. Deem and Ramdas Pophale) SiO2 
 PCOD9567815
Probable space group: P 42/N B C
;
_chemical_formula_sum "Si O2"
_cell_formula_units_Z 112
_cell_length_a 14.164497
_cell_length_b 14.164497
_cell_length_c 27.489658
_cell_angle_alpha 90.000000
_cell_angle_beta 90.000000
_cell_angle_gamma 90.000000
_cell_volume 5515.331874
_symmetry_space_group_name_H-M "P 42/N B C"
_symmetry_group_IT_number 133
_space_group.IT_coordinate_system_code '2'
_symmetry_cell_setting 'tetragonal'
loop_
_space_group_symop_operation_xyz
x,y,z
1/2-y,x,1/2+z
1/2-x,1/2-y,z
y,1/2-x,1/2+z
x,1/2-y,-z
1/2-x,y,-z
y,x,1/2-z
1/2-y,1/2-x,1/2-z
-x,-y,-z
1/2+y,-x,1/2-z
1/2+x,1/2+y,-z
-y,1/2+x,1/2-z
-x,1/2+y,z
1/2+x,-y,z
-y,-x,1/2+z
1/2+y,1/2+x,1/2+z
loop_
_atom_site_type_symbol
_atom_site_label
_atom_site_fract_x
_atom_site_fract_y
_atom_site_fract_z
Si Si1 0.250000 0.250000 0.832701
Si Si2 0.061625 0.781701 0.055240
Si Si3 0.162531 0.439127 0.175649
Si Si4 0.836899 0.937922 0.626974
Si Si5 0.549519 0.013194 0.610404
Si Si6 0.462681 0.601203 0.776125
Si Si7 0.682660 0.414383 0.820550
Si Si8 0.250000 0.750000 0.615852
O O1 0.189329 0.166314 0.807100
O O2 0.331399 0.195472 0.862656
O O3 0.042439 0.892419 0.063149
O O4 0.159581 0.753900 0.081199
O O5 0.982588 0.733491 0.088411
O O6 0.059900 0.750000 0.000000
O O7 0.104146 0.513159 0.209063
O O8 0.262852 0.489261 0.168204
O O9 0.094371 0.436268 0.128228
O O10 0.941405 0.956650 0.606431
O O11 0.841751 0.998181 0.677543
O O12 0.588164 0.079803 0.654393
O O13 0.553631 0.553631 0.750000
O O14 0.410440 0.666308 0.736943
O O15 0.745731 0.337586 0.847491
#
# Coordination Sequence:
#
# PCOD9567815 Si02
#       8
#     8  16  16  16  16  16  16   8
#     4  12  22  42  68  96 134 192 230 286 338 432
#     4  11  24  44  70 100 133 177 232 301 360 421
#     4  11  22  38  66  96 134 181 232 278 345 411
#     4  11  23  43  68  99 136 182 229 285 356 417
#     4  10  21  42  68  94 138 174 224 296 354 418
#     4  11  22  41  64  97 140 178 226 282 337 419
#     4  11  22  41  65  97 134 183 224 282 339 414
#     4  10  23  42  71  98 130 178 234 284 348 416
#
# _framework density 20.307029
#
# number of rings (size 3 to 8) (size 9 to 14) (size 15 to 20)
#    0.000    1.143    5.714    1.929    0.000    5.143 
#    0.000    5.357    0.000    1.714    0.000    0.000 
#    0.000    0.000    0.000    0.000    0.000    0.000 
#
# Total GULP energy -625049.961985 kJ/mol
# GULP energy per Si atom -5580.803232 kJ/mol
# Density = 2.026081 g / cm^3
# Si number density = 20.307029 Si / 1000 Ang^3
#
#
#
# Elastic Constant Matrix: (Units=GPa)
#
#
# Indices 1 2 3 4 5 6 
#
# 1 107.5350 25.2245 42.2048 0.0000 0.0000 0.0000
# 2 25.2245 107.5350 42.2048 0.0000 0.0000 0.0000
# 3 42.2048 42.2048 113.0018 0.0000 0.0000 0.0000
# 4 0.0000 0.0000 0.0000 15.6694 0.0000 0.0000
# 5 0.0000 0.0000 0.0000 0.0000 15.6694 0.0000
# 6 0.0000 0.0000 0.0000 0.0000 0.0000 37.8855
#
#
#
# Elastic Compliance Matrix: (Units=1/GPa)
#
#
# Indices 1 2 3 4 5 6 
#
# 1 0.011014 -0.001135 -0.003689 0.000000 0.000000 0.000000
# 2 -0.001135 0.011014 -0.003689 0.000000 0.000000 0.000000
# 3 -0.003689 -0.003689 0.011605 0.000000 0.000000 0.000000
# 4 0.000000 0.000000 0.000000 0.063819 0.000000 0.000000
# 5 0.000000 0.000000 0.000000 0.000000 0.063819 0.000000
# 6 0.000000 0.000000 0.000000 0.000000 0.000000 0.026395
#
#
# Mechanical properties :
#
#
# Convention : Reuss Voigt Hill
#
# Bulk Modulus (GPa) = 60.22606 60.81555 60.52081
# Shear Modulus (GPa) = 23.78364 28.40737 26.09550
#
# Velocity S-wave (km/s) = 3.42600 3.74424 3.58865
# Velocity P-wave (km/s) = 6.73588 6.97893 6.85848
#
# Compressibility (1/GPa) = 0.01660411
#
# Stress axis : x y z
#
# Youngs Moduli (GPa) = 90.79660 90.79660 86.16770
#
# Poissons Ratio (x) = 0.10310 0.31790
# Poissons Ratio (y) = 0.10310 0.31790
# Poissons Ratio (z) = 0.33498 0.33498
#
# Static dielectric constant tensor:
#      x y z
#    x 1.710130 0.000000 0.000000 
#    y 0.000000 1.710130 0.000000 
#    z 0.000000 0.000000 1.686050 
# 
# From -- ./inp_files/7702.got.cif
#   From: 2010.05.17/outbox.cif.g08.bks.cpg/sg133_4_cif.got.tgz:7702.got - 2010.05.20 12:37:36.
