data_PCOD9567323
_publ_section_title
;
Structure prediction by ZEFSAII (Michael W. Deem and Ramdas Pophale) SiO2 
 PCOD9567323
Probable space group: P 42/M C M
;
_chemical_formula_sum "Si O2"
_cell_formula_units_Z 72
_cell_length_a 16.156802
_cell_length_b 16.156802
_cell_length_c 15.308844
_cell_angle_alpha 90.000000
_cell_angle_beta 90.000000
_cell_angle_gamma 90.000000
_cell_volume 3996.255096
_symmetry_space_group_name_H-M "P 42/M C M"
_symmetry_group_IT_number 132
_symmetry_cell_setting 'tetragonal'
loop_
_space_group_symop_operation_xyz
x,y,z
-y,x,1/2+z
-x,-y,z
y,-x,1/2+z
x,-y,1/2-z
-x,y,1/2-z
y,x,-z
-y,-x,-z
-x,-y,-z
y,-x,1/2-z
x,y,-z
-y,x,1/2-z
-x,y,1/2+z
x,-y,1/2+z
-y,-x,z
y,x,z
loop_
_atom_site_type_symbol
_atom_site_label
_atom_site_fract_x
_atom_site_fract_y
_atom_site_fract_z
Si Si1 0.179929 0.315790 0.640666
Si Si2 0.804568 0.333299 0.659420
Si Si3 0.432239 0.567762 0.893463
Si Si4 0.110264 0.250375 0.000000
Si Si5 0.510238 0.748860 0.397177
Si Si6 0.919748 0.216494 0.000000
O O1 0.265964 0.265964 0.623879
O O2 0.163831 0.313374 0.743731
O O3 0.192588 0.410208 0.612446
O O4 0.112987 0.267853 0.583565
O O5 0.721459 0.278542 0.645342
O O6 0.868402 0.305174 0.585071
O O7 0.781576 0.429364 0.651220
O O8 0.500000 0.500000 0.868332
O O9 0.341418 0.539410 0.864317
O O10 0.428990 0.571011 0.000000
O O11 0.017962 0.215767 0.000000
O O12 0.174642 0.174642 0.000000
O O13 0.488602 0.741539 0.500000
O O14 0.871106 0.128895 0.000000
#
# Coordination Sequence:
#
# PCOD9567323 Si02
#       6
#    16  16   8   8  16   8
#     4  10  20  36  57  83 114 156 199 236 279 329
#     4  10  21  36  57  81 117 161 196 234 280 337
#     4   9  18  26  44  78 112 151 199 253 288 318
#     4  10  22  42  63  90 117 141 176 228 290 358
#     4  11  18  31  54  78 114 157 204 243 281 320
#     4  10  22  40  67  91 112 140 179 229 291 358
#
# _framework density 18.016867000000001
#
# number of rings (size 3 to 8) (size 9 to 14) (size 15 to 20)
#    0.000    1.889    3.333    1.333    0.000    2.000 
#    0.000    2.222    0.000    2.667    0.000    6.222 
#    0.000    0.000    0.000    0.000    0.000    0.000 
#
# Total GULP energy -402065.950304 kJ/mol
# GULP energy per Si atom -5584.249310 kJ/mol
# Density = 1.797586 g / cm^3
# Si number density = 18.016867 Si / 1000 Ang^3
#
#
#
# Elastic Constant Matrix: (Units=GPa)
#
#
# Indices 1 2 3 4 5 6 
#
# 1 98.9306 28.3885 27.9570 0.0000 0.0000 0.0000
# 2 28.3885 98.9307 27.9570 0.0000 0.0000 0.0000
# 3 27.9570 27.9570 86.2482 0.0000 0.0000 0.0000
# 4 0.0000 0.0000 0.0000 11.9110 0.0000 0.0000
# 5 0.0000 0.0000 0.0000 0.0000 11.9107 0.0000
# 6 0.0000 0.0000 0.0000 0.0000 0.0000 12.5072
#
#
#
# Elastic Compliance Matrix: (Units=1/GPa)
#
#
# Indices 1 2 3 4 5 6 
#
# 1 0.011667 -0.002509 -0.002969 0.000000 0.000000 0.000000
# 2 -0.002509 0.011667 -0.002969 0.000000 0.000000 0.000000
# 3 -0.002969 -0.002969 0.013519 0.000000 0.000000 0.000000
# 4 0.000000 0.000000 0.000000 0.083956 0.000000 0.000000
# 5 0.000000 0.000000 0.000000 0.000000 0.083958 0.000000
# 6 0.000000 0.000000 0.000000 0.000000 0.000000 0.079954
#
#
# Mechanical properties :
#
#
# Convention : Reuss Voigt Hill
#
# Bulk Modulus (GPa) = 50.09833 50.30163 50.19998
# Shear Modulus (GPa) = 16.21974 20.58625 18.40299
#
# Velocity S-wave (km/s) = 3.00368 3.38392 3.19945
# Velocity P-wave (km/s) = 6.31634 6.57630 6.44763
#
# Compressibility (1/GPa) = 0.01996074
#
# Stress axis : x y z
#
# Youngs Moduli (GPa) = 85.71228 85.71241 73.97045
#
# Poissons Ratio (x) = 0.21505 0.21958
# Poissons Ratio (y) = 0.21505 0.21958
# Poissons Ratio (z) = 0.25444 0.25444
#
# Static dielectric constant tensor:
#      x y z
#    x 1.591150 0.000000 0.000000 
#    y 0.000000 1.591150 0.000000 
#    z 0.000000 0.000000 1.645410 
# 
# From -- ./inp_files/6181.got.cif
#   From: 2010.05.17/outbox.cif.g08.bks.cpg/sg132_4_cif.got.tgz:6181.got - 2010.05.20 12:30:18.
