data_PCOD9567069
_publ_section_title
;
Structure prediction by ZEFSAII (Michael W. Deem and Ramdas Pophale) SiO2 
 PCOD9567069
Probable space group: P 42/M C M
;
_chemical_formula_sum "Si O2"
_cell_formula_units_Z 80
_cell_length_a 12.305703
_cell_length_b 12.305703
_cell_length_c 28.036861
_cell_angle_alpha 90.000000
_cell_angle_beta 90.000000
_cell_angle_gamma 90.000000
_cell_volume 4245.631010
_symmetry_space_group_name_H-M "P 42/M C M"
_symmetry_group_IT_number 132
_symmetry_cell_setting 'tetragonal'
loop_
_space_group_symop_operation_xyz
x,y,z
-y,x,1/2+z
-x,-y,z
y,-x,1/2+z
x,-y,1/2-z
-x,y,1/2-z
y,x,-z
-y,-x,-z
-x,-y,-z
y,-x,1/2-z
x,y,-z
-y,x,1/2-z
-x,y,1/2+z
x,-y,1/2+z
-y,-x,z
y,x,z
loop_
_atom_site_type_symbol
_atom_site_label
_atom_site_fract_x
_atom_site_fract_y
_atom_site_fract_z
Si Si1 0.507476 0.326146 0.442221
Si Si2 0.988931 0.629909 0.865694
Si Si3 0.393620 0.779700 0.313480
Si Si4 0.847250 0.337210 0.056447
Si Si5 0.818595 0.640756 0.296734
O O1 0.512117 0.321238 0.500000
O O2 0.623129 0.376872 0.426115
O O3 0.417573 0.417573 0.430300
O O4 0.450159 0.213287 0.428115
O O5 0.045033 0.678232 0.912584
O O6 0.066780 0.661585 0.821587
O O7 0.000000 0.500000 0.869528
O O8 0.864969 0.651524 0.851964
O O9 0.335635 0.664366 0.317222
O O10 0.366677 0.825066 0.260464
O O11 0.523802 0.775321 0.314757
O O12 0.759881 0.240120 0.063610
O O13 0.869450 0.343556 0.000000
O O14 0.733474 0.733474 0.309926
#
# Coordination Sequence:
#
# PCOD9567069 Si02
#       5
#    16  16  16  16  16
#     4   7  10  19  37  61  89 120 155 199 249 293
#     4  10  19  31  48  71 101 135 170 207 250 303
#     4   9  18  32  51  76 104 133 164 201 249 303
#     4   9  17  29  46  68  94 130 178 223 260 303
#     4   9  17  31  53  78 102 130 164 202 248 305
#
# _framework density 18.842901000000001
#
# number of rings (size 3 to 8) (size 9 to 14) (size 15 to 20)
#    0.000    3.200    0.000    3.000    0.000    3.200 
#    0.000    6.000    0.000    7.800    0.000    7.000 
#    0.000    0.000    0.000    3.000    0.000    0.200 
#
# Total GULP energy -445748.483432 kJ/mol
# GULP energy per Si atom -5571.856043 kJ/mol
# Density = 1.880001 g / cm^3
# Si number density = 18.842901 Si / 1000 Ang^3
#
#
#
# Elastic Constant Matrix: (Units=GPa)
#
#
# Indices 1 2 3 4 5 6 
#
# 1 35.7890 25.1082 11.9456 0.0000 0.0000 0.0000
# 2 25.1082 35.7890 11.9456 0.0000 0.0000 0.0000
# 3 11.9456 11.9456 79.1087 0.0000 0.0000 0.0000
# 4 0.0000 0.0000 0.0000 18.5306 0.0000 0.0000
# 5 0.0000 0.0000 0.0000 0.0000 18.5306 0.0000
# 6 0.0000 0.0000 0.0000 0.0000 0.0000 13.8245
#
#
#
# Elastic Compliance Matrix: (Units=1/GPa)
#
#
# Indices 1 2 3 4 5 6 
#
# 1 0.055541 -0.038086 -0.002636 0.000000 0.000000 0.000000
# 2 -0.038086 0.055541 -0.002636 0.000000 0.000000 0.000000
# 3 -0.002636 -0.002636 0.013437 0.000000 0.000000 0.000000
# 4 0.000000 0.000000 0.000000 0.053965 0.000000 0.000000
# 5 0.000000 0.000000 0.000000 0.000000 0.053965 0.000000
# 6 0.000000 0.000000 0.000000 0.000000 0.000000 0.072336
#
#
# Mechanical properties :
#
#
# Convention : Reuss Voigt Hill
#
# Bulk Modulus (GPa) = 26.45213 27.63171 27.04192
# Shear Modulus (GPa) = 12.37319 16.95626 14.66473
#
# Velocity S-wave (km/s) = 2.56530 3.00305 2.79276
# Velocity P-wave (km/s) = 4.77944 5.16919 4.97813
#
# Compressibility (1/GPa) = 0.03780414
#
# Stress axis : x y z
#
# Youngs Moduli (GPa) = 18.00478 18.00478 74.42222
#
# Poissons Ratio (x) = 0.68572 0.19616
# Poissons Ratio (y) = 0.68572 0.19616
# Poissons Ratio (z) = 0.04746 0.04746
#
# Static dielectric constant tensor:
#      x y z
#    x 1.656810 0.000000 0.000000 
#    y 0.000000 1.656810 0.000000 
#    z 0.000000 0.000000 1.711920 
# 
# From -- ./inp_files/10619.got.cif
#   From: 2010.05.17/outbox.cif.g08.bks.cpg/sg132_6_cif.got.tgz:10619.got - 2010.05.20 12:30:18.
