data_PCOD9567106
_publ_section_title
;
Structure prediction by ZEFSAII (Michael W. Deem and Ramdas Pophale) SiO2 
 PCOD9567106
Probable space group: P 42/M C M
;
_chemical_formula_sum "Si O2"
_cell_formula_units_Z 104
_cell_length_a 19.774622
_cell_length_b 19.774622
_cell_length_c 14.284373
_cell_angle_alpha 90.000000
_cell_angle_beta 90.000000
_cell_angle_gamma 90.000000
_cell_volume 5585.699441
_symmetry_space_group_name_H-M "P 42/M C M"
_symmetry_group_IT_number 132
_symmetry_cell_setting 'tetragonal'
loop_
_space_group_symop_operation_xyz
x,y,z
-y,x,1/2+z
-x,-y,z
y,-x,1/2+z
x,-y,1/2-z
-x,y,1/2-z
y,x,-z
-y,-x,-z
-x,-y,-z
y,-x,1/2-z
x,y,-z
-y,x,1/2-z
-x,y,1/2+z
x,-y,1/2+z
-y,-x,z
y,x,z
loop_
_atom_site_type_symbol
_atom_site_label
_atom_site_fract_x
_atom_site_fract_y
_atom_site_fract_z
Si Si1 0.652110 0.109271 0.391772
Si Si2 0.487950 0.864371 0.608494
Si Si3 0.921971 0.738069 0.271694
Si Si4 0.304824 0.695177 0.886441
Si Si5 0.189696 0.810305 0.112567
Si Si6 0.458777 0.279638 0.654209
Si Si7 0.613299 0.501854 0.000000
Si Si8 0.952655 0.608073 0.390503
O O1 0.667669 0.125466 0.500000
O O2 0.587025 0.149084 0.352329
O O3 0.717478 0.112115 0.326683
O O4 0.621862 0.032623 0.386841
O O5 0.474803 0.881959 0.500000
O O6 0.527828 0.794962 0.614176
O O7 0.536328 0.924145 0.644414
O O8 0.878916 0.787532 0.335942
O O9 0.922813 0.667842 0.329121
O O10 0.000000 0.757685 0.250000
O O11 0.247537 0.752464 0.870933
O O12 0.377898 0.713183 0.844151
O O13 0.312129 0.687872 0.000000
O O14 0.182470 0.817531 0.000000
O O15 0.500000 0.284014 0.750000
O O16 0.489275 0.337891 0.587929
O O17 0.572884 0.572884 0.000000
O O18 0.556332 0.443669 0.000000
O O19 0.932496 0.614093 0.500000
#
# Coordination Sequence:
#
# PCOD9567106 Si02
#       8
#    16  16  16   8   8  16   8  16
#     4   9  19  33  50  76 117 160 200 234 278 355
#     4  10  19  32  51  77 113 150 194 244 297 356
#     4  10  21  37  58  87 122 159 199 243 297 361
#     4  11  22  44  62  86 122 152 199 266 319 366
#     4  11  24  40  69 100 126 158 204 256 306 353
#     4  12  24  37  57  82 109 145 191 248 319 369
#     4  11  24  46  64  74  97 132 192 264 323 381
#     4   9  17  31  52  80 112 155 199 242 289 343
#
# _framework density 18.618976
#
# number of rings (size 3 to 8) (size 9 to 14) (size 15 to 20)
#    0.000    1.769    2.308    1.846    5.385    4.923 
#    0.000    3.462    0.000    0.231    0.000    0.538 
#    0.000    0.000    0.000    0.000    0.000    0.000 
#
# Total GULP energy -580124.491914 kJ/mol
# GULP energy per Si atom -5578.120115 kJ/mol
# Density = 1.857660 g / cm^3
# Si number density = 18.618976 Si / 1000 Ang^3
#
#
#
# Elastic Constant Matrix: (Units=GPa)
#
#
# Indices 1 2 3 4 5 6 
#
# 1 64.1229 35.1259 31.6564 0.0000 0.0000 0.0000
# 2 35.1259 64.1231 31.6567 0.0000 0.0000 0.0000
# 3 31.6564 31.6567 92.9869 0.0000 0.0000 0.0000
# 4 0.0000 0.0000 0.0000 25.5194 0.0000 0.0000
# 5 0.0000 0.0000 0.0000 0.0000 25.5208 0.0000
# 6 0.0000 0.0000 0.0000 0.0000 0.0000 29.4139
#
#
#
# Elastic Compliance Matrix: (Units=1/GPa)
#
#
# Indices 1 2 3 4 5 6 
#
# 1 0.023679 -0.010808 -0.004382 0.000000 0.000000 0.000000
# 2 -0.010808 0.023679 -0.004382 0.000000 0.000000 0.000000
# 3 -0.004382 -0.004382 0.013738 0.000000 0.000000 0.000000
# 4 0.000000 0.000000 0.000000 0.039186 0.000000 0.000000
# 5 0.000000 0.000000 0.000000 0.000000 0.039184 0.000000
# 6 0.000000 0.000000 0.000000 0.000000 0.000000 0.033998
#
#
# Mechanical properties :
#
#
# Convention : Reuss Voigt Hill
#
# Bulk Modulus (GPa) = 45.55317 46.45678 46.00498
# Shear Modulus (GPa) = 22.73535 24.27707 23.50621
#
# Velocity S-wave (km/s) = 3.49819 3.61486 3.55700
# Velocity P-wave (km/s) = 6.39027 6.51371 6.45229
#
# Compressibility (1/GPa) = 0.02195237
#
# Stress axis : x y z
#
# Youngs Moduli (GPa) = 42.23236 42.23234 72.79248
#
# Poissons Ratio (x) = 0.45643 0.31896
# Poissons Ratio (y) = 0.45643 0.31897
# Poissons Ratio (z) = 0.18505 0.18506
#
# Static dielectric constant tensor:
#      x y z
#    x 1.661650 0.000000 0.000000 
#    y 0.000000 1.661650 0.000000 
#    z 0.000000 0.000000 1.694950 
# 
# From -- ./inp_files/5099.got.cif
#   From: 2010.05.17/outbox.cif.g08.bks.cpg/sg132_3_cif.got.tgz:5099.got - 2010.05.20 12:30:18.
