data_PCOD9567635
_publ_section_title
;
Structure prediction by ZEFSAII (Michael W. Deem and Ramdas Pophale) SiO2 
 PCOD9567635
Probable space group: P 42/N B C
;
_chemical_formula_sum "Si O2"
_cell_formula_units_Z 96
_cell_length_a 14.725863
_cell_length_b 14.725863
_cell_length_c 22.490166
_cell_angle_alpha 90.000000
_cell_angle_beta 90.000000
_cell_angle_gamma 90.000000
_cell_volume 4877.015911
_symmetry_space_group_name_H-M "P 42/N B C"
_symmetry_group_IT_number 133
_space_group.IT_coordinate_system_code '2'
_symmetry_cell_setting 'tetragonal'
loop_
_space_group_symop_operation_xyz
x,y,z
1/2-y,x,1/2+z
1/2-x,1/2-y,z
y,1/2-x,1/2+z
x,1/2-y,-z
1/2-x,y,-z
y,x,1/2-z
1/2-y,1/2-x,1/2-z
-x,-y,-z
1/2+y,-x,1/2-z
1/2+x,1/2+y,-z
-y,1/2+x,1/2-z
-x,1/2+y,z
1/2+x,-y,z
-y,-x,1/2+z
1/2+y,1/2+x,1/2+z
loop_
_atom_site_type_symbol
_atom_site_label
_atom_site_fract_x
_atom_site_fract_y
_atom_site_fract_z
Si Si1 0.062249 0.119302 0.043390
Si Si2 0.397895 0.576005 0.880054
Si Si3 0.458296 0.259456 0.428944
Si Si4 0.652119 0.140527 0.260368
Si Si5 0.525890 0.905504 0.808354
Si Si6 0.820554 0.893264 0.416411
O O1 0.132021 0.050491 0.076226
O O2 0.101320 0.217742 0.061948
O O3 0.960417 0.106811 0.065806
O O4 0.066487 0.119269 0.971520
O O5 0.299146 0.538674 0.899627
O O6 0.392448 0.649776 0.828217
O O7 0.449370 0.493786 0.846776
O O8 0.463903 0.250000 0.500000
O O9 0.366530 0.205887 0.408581
O O10 0.628916 0.247266 0.263590
O O11 0.575042 0.096986 0.218553
O O12 0.551170 0.828025 0.855283
O O13 0.590090 0.909911 0.750000
#
# Coordination Sequence:
#
# PCOD9567635 Si02
#       6
#    16  16  16  16  16  16
#     4  10  19  33  57  84 111 147 183 233 287 345
#     4  10  21  35  55  84 110 141 192 230 288 340
#     4   9  19  33  53  83 113 144 180 227 281 348
#     4  10  21  37  56  76 104 150 195 228 276 343
#     4   9  19  35  54  77 110 143 180 236 274 333
#     4   9  18  34  56  82 112 144 184 229 291 341
#
# _framework density 19.684169000000001
#
# number of rings (size 3 to 8) (size 9 to 14) (size 15 to 20)
#    0.000    2.500    0.000    1.500    2.333    8.000 
#    0.000    0.000    0.000    8.000    0.000    0.000 
#    0.000    0.000    0.000    0.000    0.000    0.000 
#
# Total GULP energy -534635.369575 kJ/mol
# GULP energy per Si atom -5569.118433 kJ/mol
# Density = 1.963937 g / cm^3
# Si number density = 19.684169 Si / 1000 Ang^3
#
#
#
# Elastic Constant Matrix: (Units=GPa)
#
#
# Indices 1 2 3 4 5 6 
#
# 1 32.6325 7.2663 16.1611 0.0000 0.0000 0.0000
# 2 7.2663 32.6330 16.1611 0.0000 0.0000 0.0000
# 3 16.1611 16.1611 78.4178 0.0000 0.0000 0.0000
# 4 0.0000 0.0000 0.0000 24.3123 0.0000 0.0000
# 5 0.0000 0.0000 0.0000 0.0000 24.3123 0.0000
# 6 0.0000 0.0000 0.0000 0.0000 0.0000 14.4054
#
#
#
# Elastic Compliance Matrix: (Units=1/GPa)
#
#
# Indices 1 2 3 4 5 6 
#
# 1 0.034755 -0.004668 -0.006201 0.000000 0.000000 0.000000
# 2 -0.004668 0.034754 -0.006200 0.000000 0.000000 0.000000
# 3 -0.006201 -0.006200 0.015308 0.000000 0.000000 0.000000
# 4 0.000000 0.000000 0.000000 0.041131 0.000000 0.000000
# 5 0.000000 0.000000 0.000000 0.000000 0.041132 0.000000
# 6 0.000000 0.000000 0.000000 0.000000 0.000000 0.069418
#
#
# Mechanical properties :
#
#
# Convention : Reuss Voigt Hill
#
# Bulk Modulus (GPa) = 19.73223 24.76227 22.24725
# Shear Modulus (GPa) = 17.38958 19.54563 18.46760
#
# Velocity S-wave (km/s) = 2.97548 3.15455 3.06632
# Velocity P-wave (km/s) = 4.67449 5.08678 4.88498
#
# Compressibility (1/GPa) = 0.05067850
#
# Stress axis : x y z
#
# Youngs Moduli (GPa) = 28.77322 28.77372 65.32566
#
# Poissons Ratio (x) = 0.13432 0.40505
# Poissons Ratio (y) = 0.13431 0.40505
# Poissons Ratio (z) = 0.17841 0.17841
#
# Static dielectric constant tensor:
#      x y z
#    x 1.726900 0.000000 0.000000 
#    y 0.000000 1.726900 0.000000 
#    z 0.000000 0.000000 1.700340 
# 
# From -- ./inp_files/6524.got.cif
#   From: 2010.05.17/outbox.cif.g08.bks.cpg/sg133_4_cif.got.tgz:6524.got - 2010.05.20 12:37:36.
