data_PCOD9567031
_publ_section_title
;
Structure prediction by ZEFSAII (Michael W. Deem and Ramdas Pophale) SiO2 
 PCOD9567031
Probable space group: P 42/M C M
;
_chemical_formula_sum "Si O2"
_cell_formula_units_Z 60
_cell_length_a 11.745695
_cell_length_b 11.745695
_cell_length_c 20.456835
_cell_angle_alpha 90.000000
_cell_angle_beta 90.000000
_cell_angle_gamma 90.000000
_cell_volume 2822.252594
_symmetry_space_group_name_H-M "P 42/M C M"
_symmetry_group_IT_number 132
_symmetry_cell_setting 'tetragonal'
loop_
_space_group_symop_operation_xyz
x,y,z
-y,x,1/2+z
-x,-y,z
y,-x,1/2+z
x,-y,1/2-z
-x,y,1/2-z
y,x,-z
-y,-x,-z
-x,-y,-z
y,-x,1/2-z
x,y,-z
-y,x,1/2-z
-x,y,1/2+z
x,-y,1/2+z
-y,-x,z
y,x,z
loop_
_atom_site_type_symbol
_atom_site_label
_atom_site_fract_x
_atom_site_fract_y
_atom_site_fract_z
Si Si1 0.595069 0.595069 0.075690
Si Si2 0.736694 0.926581 0.076346
Si Si3 0.494904 0.178357 0.577213
Si Si4 0.300349 0.117929 0.333036
Si Si5 0.500000 0.000000 0.750000
O O1 0.500000 0.500000 0.072818
O O2 0.706348 0.544843 0.107493
O O3 0.626070 0.626070 0.000000
O O4 0.810063 0.810063 0.082079
O O5 0.600433 0.908205 0.086260
O O6 0.768533 0.012316 0.134750
O O7 0.752654 0.963843 0.000000
O O8 0.481998 0.189071 0.500000
O O9 0.370687 0.162830 0.605071
O O10 0.213342 0.213342 0.306726
O O11 0.407571 0.077987 0.288528
#
# Coordination Sequence:
#
# PCOD9567031 Si02
#       5
#     8  16  16  16   4
#     4   9  16  26  48  90 135 167 199 243 307 392
#     4  10  20  38  68 105 143 177 212 264 335 412
#     4  10  18  35  63  97 133 168 207 258 331 405
#     4  12  26  45  70  95 125 172 224 279 339 393
#     4  12  28  52  66  92 128 180 240 302 332 384
#
# _framework density 21.259613000000002
#
# number of rings (size 3 to 8) (size 9 to 14) (size 15 to 20)
#    0.000    1.467    4.000    1.600    0.000    6.933 
#    2.400    1.333    0.000    0.000    0.000    0.000 
#    0.000    0.000    0.000    0.000    0.000    0.000 
#
# Total GULP energy -334062.650272 kJ/mol
# GULP energy per Si atom -5567.710838 kJ/mol
# Density = 2.121122 g / cm^3
# Si number density = 21.259613 Si / 1000 Ang^3
#
#
#
# Elastic Constant Matrix: (Units=GPa)
#
#
# Indices 1 2 3 4 5 6 
#
# 1 81.4213 34.9939 29.0455 0.0000 0.0000 0.0000
# 2 34.9939 81.4213 29.0455 0.0000 0.0000 0.0000
# 3 29.0455 29.0455 29.7759 0.0000 0.0000 0.0000
# 4 0.0000 0.0000 0.0000 9.6208 0.0000 0.0000
# 5 0.0000 0.0000 0.0000 0.0000 9.6208 0.0000
# 6 0.0000 0.0000 0.0000 0.0000 0.0000 26.5479
#
#
#
# Elastic Compliance Matrix: (Units=1/GPa)
#
#
# Indices 1 2 3 4 5 6 
#
# 1 0.019138 -0.002401 -0.016326 0.000000 0.000000 0.000000
# 2 -0.002401 0.019138 -0.016326 0.000000 0.000000 0.000000
# 3 -0.016326 -0.016326 0.065436 0.000000 0.000000 0.000000
# 4 0.000000 0.000000 0.000000 0.103941 0.000000 0.000000
# 5 0.000000 0.000000 0.000000 0.000000 0.103941 0.000000
# 6 0.000000 0.000000 0.000000 0.000000 0.000000 0.037668
#
#
# Mechanical properties :
#
#
# Convention : Reuss Voigt Hill
#
# Bulk Modulus (GPa) = 29.75802 42.08759 35.92281
# Shear Modulus (GPa) = 11.61250 15.79346 13.70298
#
# Velocity S-wave (km/s) = 2.33968 2.72855 2.54156
# Velocity P-wave (km/s) = 4.61808 5.45588 5.05437
#
# Compressibility (1/GPa) = 0.03360439
#
# Stress axis : x y z
#
# Youngs Moduli (GPa) = 52.25246 52.25246 15.28219
#
# Poissons Ratio (x) = 0.12547 0.24950
# Poissons Ratio (y) = 0.12547 0.24950
# Poissons Ratio (z) = 0.85308 0.85308
#
# Static dielectric constant tensor:
#      x y z
#    x 1.919430 0.000000 0.000000 
#    y 0.000000 1.919430 0.000000 
#    z 0.000000 0.000000 1.843720 
# 
# From -- ./inp_files/8732.got.cif
#   From: 2010.05.17/outbox.cif.g08.bks.cpg/sg132_5_cif.got.tgz:8732.got - 2010.05.20 12:30:18.
