data_PCOD9567209
_publ_section_title
;
Structure prediction by ZEFSAII (Michael W. Deem and Ramdas Pophale) SiO2 
 PCOD9567209
Probable space group: P 42/M C M
;
_chemical_formula_sum "Si O2"
_cell_formula_units_Z 80
_cell_length_a 24.258898
_cell_length_b 24.258898
_cell_length_c 9.742136
_cell_angle_alpha 90.000000
_cell_angle_beta 90.000000
_cell_angle_gamma 90.000000
_cell_volume 5733.189871
_symmetry_space_group_name_H-M "P 42/M C M"
_symmetry_group_IT_number 132
_symmetry_cell_setting 'tetragonal'
loop_
_space_group_symop_operation_xyz
x,y,z
-y,x,1/2+z
-x,-y,z
y,-x,1/2+z
x,-y,1/2-z
-x,y,1/2-z
y,x,-z
-y,-x,-z
-x,-y,-z
y,-x,1/2-z
x,y,-z
-y,x,1/2-z
-x,y,1/2+z
x,-y,1/2+z
-y,-x,z
y,x,z
loop_
_atom_site_type_symbol
_atom_site_label
_atom_site_fract_x
_atom_site_fract_y
_atom_site_fract_z
Si Si1 0.091326 0.998379 0.000000
Si Si2 0.352478 0.553622 0.161469
Si Si3 0.173380 0.000000 0.750000
Si Si4 0.299242 0.204701 0.657172
Si Si5 0.276409 0.628746 0.341308
Si Si6 0.116963 0.207910 0.334475
O O1 0.131498 0.004654 0.874357
O O2 0.060220 0.939781 0.000000
O O3 0.044432 0.044432 0.000000
O O4 0.367547 0.500000 0.250000
O O5 0.402401 0.597600 0.164480
O O6 0.301739 0.582016 0.242548
O O7 0.340800 0.542027 0.000000
O O8 0.206292 0.943209 0.768500
O O9 0.320253 0.199367 0.500000
O O10 0.253930 0.253930 0.653195
O O11 0.344590 0.223592 0.766337
O O12 0.263501 0.151107 0.695146
O O13 0.267160 0.611867 0.500000
O O14 0.323219 0.676781 0.345159
O O15 0.111244 0.204677 0.500000
O O16 0.155564 0.155564 0.293316
#
# Coordination Sequence:
#
# PCOD9567209 Si02
#       6
#     8  16   8  16  16  16
#     4  11  22  32  42  54  70  98 138 180 217 254
#     4  10  20  32  46  64  89 124 162 195 225 253
#     4  12  20  31  44  56  76 102 135 176 222 264
#     4   8  14  26  44  60  75  99 131 167 211 265
#     4   9  16  27  43  64  87 108 136 177 220 260
#     4   9  17  30  44  57  75 101 133 170 215 266
#
# _framework density 13.953837999999999
#
# number of rings (size 3 to 8) (size 9 to 14) (size 15 to 20)
#    0.000    2.500    1.000    4.200    0.000    4.600 
#    1.800    1.000    0.000    0.000    0.000    0.000 
#    0.000    0.000    0.000    0.900    0.000   14.200 
#
# Total GULP energy -445426.879253 kJ/mol
# GULP energy per Si atom -5567.835991 kJ/mol
# Density = 1.392208 g / cm^3
# Si number density = 13.953838 Si / 1000 Ang^3
#
#
#
# Elastic Constant Matrix: (Units=GPa)
#
#
# Indices 1 2 3 4 5 6 
#
# 1 44.9439 32.6661 41.2596 0.0000 0.0000 0.0000
# 2 32.6661 44.9442 41.2596 0.0000 0.0000 0.0000
# 3 41.2596 41.2596 119.6958 0.0000 0.0000 0.0000
# 4 0.0000 0.0000 0.0000 20.7497 0.0000 0.0000
# 5 0.0000 0.0000 0.0000 0.0000 20.7505 0.0000
# 6 0.0000 0.0000 0.0000 0.0000 0.0000 13.1597
#
#
#
# Elastic Compliance Matrix: (Units=1/GPa)
#
#
# Indices 1 2 3 4 5 6 
#
# 1 0.050893 -0.030554 -0.007011 0.000000 0.000000 0.000000
# 2 -0.030554 0.050893 -0.007011 0.000000 0.000000 0.000000
# 3 -0.007011 -0.007011 0.013188 0.000000 0.000000 0.000000
# 4 0.000000 0.000000 0.000000 0.048194 0.000000 0.000000
# 5 0.000000 0.000000 0.000000 0.000000 0.048192 0.000000
# 6 0.000000 0.000000 0.000000 0.000000 0.000000 0.075989
#
#
# Mechanical properties :
#
#
# Convention : Reuss Voigt Hill
#
# Bulk Modulus (GPa) = 38.72577 48.88382 43.80480
# Shear Modulus (GPa) = 12.98335 17.22521 15.10428
#
# Velocity S-wave (km/s) = 3.05364 3.51728 3.29362
# Velocity P-wave (km/s) = 6.34397 7.18356 6.77678
#
# Compressibility (1/GPa) = 0.02582260
#
# Stress axis : x y z
#
# Youngs Moduli (GPa) = 19.64888 19.64907 75.82646
#
# Poissons Ratio (x) = 0.60035 0.53163
# Poissons Ratio (y) = 0.60035 0.53162
# Poissons Ratio (z) = 0.13776 0.13776
#
# Static dielectric constant tensor:
#      x y z
#    x 1.456420 0.000000 0.000000 
#    y 0.000000 1.456420 0.000000 
#    z 0.000000 0.000000 1.464990 
# 
# From -- ./inp_files/1661.got.cif
#   From: 2010.05.17/outbox.cif.g08.bks.cpg/sg132_1_cif.got.tgz:1661.got - 2010.05.20 12:30:18.
