data_PCOD9567720
_publ_section_title
;
Structure prediction by ZEFSAII (Michael W. Deem and Ramdas Pophale) SiO2 
 PCOD9567720
Probable space group: P 42/N B C
;
_chemical_formula_sum "Si O2"
_cell_formula_units_Z 56
_cell_length_a 14.000762
_cell_length_b 14.000762
_cell_length_c 13.356975
_cell_angle_alpha 90.000000
_cell_angle_beta 90.000000
_cell_angle_gamma 90.000000
_cell_volume 2618.252092
_symmetry_space_group_name_H-M "P 42/N B C"
_symmetry_group_IT_number 133
_space_group.IT_coordinate_system_code '2'
_symmetry_cell_setting 'tetragonal'
loop_
_space_group_symop_operation_xyz
x,y,z
1/2-y,x,1/2+z
1/2-x,1/2-y,z
y,1/2-x,1/2+z
x,1/2-y,-z
1/2-x,y,-z
y,x,1/2-z
1/2-y,1/2-x,1/2-z
-x,-y,-z
1/2+y,-x,1/2-z
1/2+x,1/2+y,-z
-y,1/2+x,1/2-z
-x,1/2+y,z
1/2+x,-y,z
-y,-x,1/2+z
1/2+y,1/2+x,1/2+z
loop_
_atom_site_type_symbol
_atom_site_label
_atom_site_fract_x
_atom_site_fract_y
_atom_site_fract_z
Si Si1 0.250000 0.750000 0.500000
Si Si2 0.065855 0.576112 0.688785
Si Si3 0.750000 0.750000 0.000000
Si Si4 0.209005 0.921155 0.133094
Si Si5 0.116182 0.385860 0.872697
O O1 0.324676 0.803744 0.429042
O O2 0.154522 0.593435 0.763076
O O3 0.047903 0.680655 0.646073
O O4 0.105558 0.497371 0.611414
O O5 0.978194 0.521807 0.750000
O O6 0.821539 0.808476 0.928599
O O7 0.156707 0.013276 0.090181
O O8 0.125047 0.374954 0.750000
#
# Coordination Sequence:
#
# PCOD9567720 Si02
#       5
#     4  16   4  16  16
#     4  12  22  32  56  90 124 152 186 250 320 372
#     4   9  20  39  61  82 110 155 203 242 298 368
#     4  12  20  38  60  80 120 158 196 254 308 364
#     4  10  20  37  56  83 116 148 192 245 298 367
#     4   9  22  39  58  87 116 154 205 250 302 370
#
# _framework density 21.388314999999999
#
# number of rings (size 3 to 8) (size 9 to 14) (size 15 to 20)
#    0.000    2.857    0.000    3.000    0.000    5.714 
#    0.000   12.857    0.000    0.000    0.000    0.000 
#    0.000    0.000    0.000    0.000    0.000    0.000 
#
# Total GULP energy -311953.359051 kJ/mol
# GULP energy per Si atom -5570.595697 kJ/mol
# Density = 2.133963 g / cm^3
# Si number density = 21.388315 Si / 1000 Ang^3
#
#
#
# Elastic Constant Matrix: (Units=GPa)
#
#
# Indices 1 2 3 4 5 6 
#
# 1 134.9568 54.1009 48.5421 0.0000 0.0000 0.0000
# 2 54.1009 134.9572 48.5415 0.0000 0.0000 0.0000
# 3 48.5421 48.5415 56.3819 0.0000 0.0000 0.0000
# 4 0.0000 0.0000 0.0000 23.2064 0.0000 0.0000
# 5 0.0000 0.0000 0.0000 0.0000 23.2100 0.0000
# 6 0.0000 0.0000 0.0000 0.0000 0.0000 -56.9097
#
#
#
# Elastic Compliance Matrix: (Units=1/GPa)
#
#
# Indices 1 2 3 4 5 6 
#
# 1 0.010924 -0.001443 -0.008163 0.000000 0.000000 0.000000
# 2 -0.001443 0.010924 -0.008163 0.000000 0.000000 0.000000
# 3 -0.008163 -0.008163 0.031791 0.000000 0.000000 0.000000
# 4 0.000000 0.000000 0.000000 0.043091 0.000000 0.000000
# 5 0.000000 0.000000 0.000000 0.000000 0.043085 0.000000
# 6 0.000000 0.000000 0.000000 0.000000 0.000000 -0.017572
#
#
# Mechanical properties :
#
#
# Convention : Reuss Voigt Hill
#
# Bulk Modulus (GPa) = 55.23994 69.85165 62.54579
# Shear Modulus (GPa) = 30.52201 9.57544 20.04872
#
# Velocity S-wave (km/s) = 3.78172 2.11818 3.06497
# Velocity P-wave (km/s) = 6.70461 6.22189 6.46775
#
# Compressibility (1/GPa) = 0.01810284
#
# Stress axis : x y z
#
# Youngs Moduli (GPa) = 91.53812 91.53953 31.45503
#
# Poissons Ratio (x) = 0.13212 0.25676
# Poissons Ratio (y) = 0.13212 0.25675
# Poissons Ratio (z) = 0.74721 0.74719
#
# Static dielectric constant tensor:
#      x y z
#    x 2.025500 0.000000 0.000000 
#    y 0.000000 2.025520 0.000000 
#    z 0.000000 0.000000 2.280670 
# 
# From -- ./inp_files/4074.got.cif
#   From: 2010.05.17/outbox.cif.g08.bks.cpg/sg133_3_cif.got.tgz:4074.got - 2010.05.20 12:37:36.
