data_PCOD9567371
_publ_section_title
;
Structure prediction by ZEFSAII (Michael W. Deem and Ramdas Pophale) SiO2 
 PCOD9567371
Probable space group: P 42/M C M
;
_chemical_formula_sum "Si O2"
_cell_formula_units_Z 80
_cell_length_a 11.758748
_cell_length_b 11.758748
_cell_length_c 31.599479
_cell_angle_alpha 90.000000
_cell_angle_beta 90.000000
_cell_angle_gamma 90.000000
_cell_volume 4369.201645
_symmetry_space_group_name_H-M "P 42/M C M"
_symmetry_group_IT_number 132
_symmetry_cell_setting 'tetragonal'
loop_
_space_group_symop_operation_xyz
x,y,z
-y,x,1/2+z
-x,-y,z
y,-x,1/2+z
x,-y,1/2-z
-x,y,1/2-z
y,x,-z
-y,-x,-z
-x,-y,-z
y,-x,1/2-z
x,y,-z
-y,x,1/2-z
-x,y,1/2+z
x,-y,1/2+z
-y,-x,z
y,x,z
loop_
_atom_site_type_symbol
_atom_site_label
_atom_site_fract_x
_atom_site_fract_y
_atom_site_fract_z
Si Si1 0.628823 0.999819 0.321634
Si Si2 0.405059 0.227258 0.051118
Si Si3 0.842833 0.343061 0.048261
Si Si4 0.814463 0.373083 0.753084
Si Si5 0.948605 0.235118 0.403927
O O1 0.631579 0.092619 0.284274
O O2 0.722043 0.031199 0.356180
O O3 0.500000 0.000000 0.340030
O O4 0.644842 0.880434 0.297437
O O5 0.353590 0.353590 0.060519
O O6 0.531461 0.189342 0.064857
O O7 0.318897 0.140915 0.073300
O O8 0.401363 0.215759 0.000000
O O9 0.726534 0.273467 0.047074
O O10 0.933538 0.266027 0.072971
O O11 0.886021 0.356515 0.000000
O O12 0.765919 0.500000 0.750000
O O13 0.720866 0.279135 0.746992
O O14 0.889761 0.110240 0.405952
#
# Coordination Sequence:
#
# PCOD9567371 Si02
#       5
#    16  16  16  16  16
#     4   9  18  33  53  74  98 132 168 203 245 293
#     4   9  18  33  54  78 100 127 170 221 266 307
#     4  10  21  35  50  71 103 139 170 208 261 316
#     4   9  18  33  53  77 103 129 159 198 247 300
#     4  11  21  33  53  77 101 134 176 217 253 297
#
# _framework density 18.309982000000002
#
# number of rings (size 3 to 8) (size 9 to 14) (size 15 to 20)
#    0.000    2.400    0.000    4.200    0.000    4.600 
#    0.000    3.000    0.000    9.600    0.000    5.600 
#    0.000    0.000    0.000    0.000    0.000    0.000 
#
# Total GULP energy -445602.635750 kJ/mol
# GULP energy per Si atom -5570.032947 kJ/mol
# Density = 1.826831 g / cm^3
# Si number density = 18.309982 Si / 1000 Ang^3
#
#
#
# Elastic Constant Matrix: (Units=GPa)
#
#
# Indices 1 2 3 4 5 6 
#
# 1 61.9472 64.4893 10.1643 0.0000 0.0000 0.0000
# 2 64.4893 61.9472 10.1643 0.0000 0.0000 0.0000
# 3 10.1643 10.1643 35.3840 0.0000 0.0000 0.0000
# 4 0.0000 0.0000 0.0000 24.5682 0.0000 0.0000
# 5 0.0000 0.0000 0.0000 0.0000 24.5682 0.0000
# 6 0.0000 0.0000 0.0000 0.0000 0.0000 27.1030
#
#
#
# Elastic Compliance Matrix: (Units=1/GPa)
#
#
# Indices 1 2 3 4 5 6 
#
# 1 -0.192542 0.200834 -0.002382 0.000000 0.000000 0.000000
# 2 0.200834 -0.192542 -0.002382 0.000000 0.000000 0.000000
# 3 -0.002382 -0.002382 0.029630 0.000000 0.000000 0.000000
# 4 0.000000 0.000000 0.000000 0.040703 0.000000 0.000000
# 5 0.000000 0.000000 0.000000 0.000000 0.040703 0.000000
# 6 0.000000 0.000000 0.000000 0.000000 0.000000 0.036896
#
#
# Mechanical properties :
#
#
# Convention : Reuss Voigt Hill
#
# Bulk Modulus (GPa) = 27.25822 36.54601 31.90212
# Shear Modulus (GPa) = -8.10292 20.21189 6.05449
#
# Velocity S-wave (km/s) = -2.10595 3.32606 1.82039
# Velocity P-wave (km/s) = 3.00101 5.89518 4.67757
#
# Compressibility (1/GPa) = 0.03668618
#
# Stress axis : x y z
#
# Youngs Moduli (GPa) = -5.19368 -5.19368 33.74973
#
# Poissons Ratio (x) = 1.04307 0.08039
# Poissons Ratio (y) = 1.04307 0.08039
# Poissons Ratio (z) = -0.01237 -0.01237
#
# Static dielectric constant tensor:
#      x y z
#    x 1.628370 0.000000 0.000000 
#    y 0.000000 1.628370 0.000000 
#    z 0.000000 0.000000 1.643220 
# 
# From -- ./inp_files/10604.got.cif
#   From: 2010.05.17/outbox.cif.g08.bks.cpg/sg132_6_cif.got.tgz:10604.got - 2010.05.20 12:30:18.
