data_PCOD9567238
_publ_section_title
;
Structure prediction by ZEFSAII (Michael W. Deem and Ramdas Pophale) SiO2 
 PCOD9567238
Probable space group: P 42/M C M
;
_chemical_formula_sum "Si O2"
_cell_formula_units_Z 80
_cell_length_a 17.392163
_cell_length_b 17.392163
_cell_length_c 17.410900
_cell_angle_alpha 90.000000
_cell_angle_beta 90.000000
_cell_angle_gamma 90.000000
_cell_volume 5266.576720
_symmetry_space_group_name_H-M "P 42/M C M"
_symmetry_group_IT_number 132
_symmetry_cell_setting 'tetragonal'
loop_
_space_group_symop_operation_xyz
x,y,z
-y,x,1/2+z
-x,-y,z
y,-x,1/2+z
x,-y,1/2-z
-x,y,1/2-z
y,x,-z
-y,-x,-z
-x,-y,-z
y,-x,1/2-z
x,y,-z
-y,x,1/2-z
-x,y,1/2+z
x,-y,1/2+z
-y,-x,z
y,x,z
loop_
_atom_site_type_symbol
_atom_site_label
_atom_site_fract_x
_atom_site_fract_y
_atom_site_fract_z
Si Si1 0.327247 0.451120 0.823286
Si Si2 0.375161 0.138546 0.591952
Si Si3 0.827370 0.445709 0.407670
Si Si4 0.586765 0.586765 0.590773
Si Si5 0.984697 0.411222 0.659366
Si Si6 0.716857 0.283144 0.092356
O O1 0.299823 0.500000 0.750000
O O2 0.380096 0.380096 0.798078
O O3 0.255376 0.424513 0.873957
O O4 0.380889 0.509459 0.871588
O O5 0.371408 0.139297 0.500000
O O6 0.462962 0.162883 0.611456
O O7 0.316471 0.202745 0.622715
O O8 0.362531 0.051923 0.620051
O O9 0.831199 0.437865 0.500000
O O10 0.897336 0.399751 0.367691
O O11 0.575969 0.575969 0.500000
O O12 0.651931 0.651931 0.602249
O O13 0.000000 0.500000 0.635412
O O14 0.000000 0.406229 0.750000
O O15 0.725855 0.274146 0.000000
#
# Coordination Sequence:
#
# PCOD9567238 Si02
#       6
#    16  16  16   8  16   8
#     4  12  25  37  49  67  93 126 170 221 268 305
#     4   9  16  28  45  67  92 116 149 190 235 288
#     4  10  20  33  50  68  91 123 163 205 248 301
#     4  11  21  36  53  64  86 122 166 217 264 305
#     4   9  18  29  46  68  91 119 152 193 241 291
#     4   9  16  27  46  71  90 116 151 192 240 284
#
# _framework density 15.190132999999999
#
# number of rings (size 3 to 8) (size 9 to 14) (size 15 to 20)
#    0.000    2.000    3.000    1.500    5.600    4.400 
#    0.000    0.000    0.000    0.000    0.000    0.000 
#    0.000    0.000    0.000    0.900    0.400   10.300 
#
# Total GULP energy -445980.953548 kJ/mol
# GULP energy per Si atom -5574.761919 kJ/mol
# Density = 1.515556 g / cm^3
# Si number density = 15.190133 Si / 1000 Ang^3
#
#
#
# Elastic Constant Matrix: (Units=GPa)
#
#
# Indices 1 2 3 4 5 6 
#
# 1 41.8406 55.2390 19.1047 0.0000 0.0000 0.0000
# 2 55.2390 41.8398 19.1047 0.0000 0.0000 0.0000
# 3 19.1047 19.1047 40.3686 0.0000 0.0000 0.0000
# 4 0.0000 0.0000 0.0000 17.1762 0.0000 0.0000
# 5 0.0000 0.0000 0.0000 0.0000 17.1762 0.0000
# 6 0.0000 0.0000 0.0000 0.0000 0.0000 12.4866
#
#
#
# Elastic Compliance Matrix: (Units=1/GPa)
#
#
# Indices 1 2 3 4 5 6 
#
# 1 -0.030987 0.043646 -0.005991 0.000000 0.000000 0.000000
# 2 0.043646 -0.030988 -0.005991 0.000000 0.000000 0.000000
# 3 -0.005991 -0.005991 0.030442 0.000000 0.000000 0.000000
# 4 0.000000 0.000000 0.000000 0.058220 0.000000 0.000000
# 5 0.000000 0.000000 0.000000 0.000000 0.058220 0.000000
# 6 0.000000 0.000000 0.000000 0.000000 0.000000 0.080086
#
#
# Mechanical properties :
#
#
# Convention : Reuss Voigt Hill
#
# Bulk Modulus (GPa) = 31.45016 34.54952 32.99984
# Shear Modulus (GPa) = 44.53817 11.40783 27.97300
#
# Velocity S-wave (km/s) = 5.42071 2.74342 4.29595
# Velocity P-wave (km/s) = 7.74132 5.72968 6.81019
#
# Compressibility (1/GPa) = 0.03179634
#
# Stress axis : x y z
#
# Youngs Moduli (GPa) = -32.27154 -32.27082 32.84913
#
# Poissons Ratio (x) = 1.40850 0.19680
# Poissons Ratio (y) = 1.40853 0.19679
# Poissons Ratio (z) = -0.19334 -0.19333
#
# Static dielectric constant tensor:
#      x y z
#    x 1.514310 0.000000 0.000000 
#    y 0.000000 1.514310 0.000000 
#    z 0.000000 0.000000 1.528590 
# 
# From -- ./inp_files/6381.got.cif
#   From: 2010.05.17/outbox.cif.g08.bks.cpg/sg132_4_cif.got.tgz:6381.got - 2010.05.20 12:30:18.
