data_PCOD9567914
_publ_section_title
;
Structure prediction by ZEFSAII (Michael W. Deem and Ramdas Pophale) SiO2 
 PCOD9567914
Probable space group: P 42/N B C
;
_chemical_formula_sum "Si O2"
_cell_formula_units_Z 64
_cell_length_a 10.462644
_cell_length_b 10.462644
_cell_length_c 27.570717
_cell_angle_alpha 90.000000
_cell_angle_beta 90.000000
_cell_angle_gamma 90.000000
_cell_volume 3018.081458
_symmetry_space_group_name_H-M "P 42/N B C"
_symmetry_group_IT_number 133
_space_group.IT_coordinate_system_code '2'
_symmetry_cell_setting 'tetragonal'
loop_
_space_group_symop_operation_xyz
x,y,z
1/2-y,x,1/2+z
1/2-x,1/2-y,z
y,1/2-x,1/2+z
x,1/2-y,-z
1/2-x,y,-z
y,x,1/2-z
1/2-y,1/2-x,1/2-z
-x,-y,-z
1/2+y,-x,1/2-z
1/2+x,1/2+y,-z
-y,1/2+x,1/2-z
-x,1/2+y,z
1/2+x,-y,z
-y,-x,1/2+z
1/2+y,1/2+x,1/2+z
loop_
_atom_site_type_symbol
_atom_site_label
_atom_site_fract_x
_atom_site_fract_y
_atom_site_fract_z
Si Si1 0.750000 0.250000 0.750000
Si Si2 0.250000 0.750000 0.000000
Si Si3 0.795587 0.028882 0.180076
Si Si4 0.750000 0.750000 0.328556
Si Si5 0.495450 0.137650 0.876856
Si Si6 0.395996 0.627383 0.587244
O O1 0.730996 0.373429 0.783306
O O2 0.324008 0.650870 0.035216
O O3 0.731137 0.053670 0.126891
O O4 0.940339 0.073192 0.170366
O O5 0.786587 0.882927 0.196869
O O6 0.794345 0.634579 0.362130
O O7 0.576783 0.259811 0.893123
O O8 0.470231 0.016959 0.912627
#
# Coordination Sequence:
#
# PCOD9567914 Si02
#       6
#     4   4  16   8  16  16
#     4  12  22  40  80  98 136 184 234 280 364 414
#     4  12  22  40  64 106 128 180 222 286 350 402
#     4  11  22  44  69  98 132 184 223 283 337 410
#     4  10  24  40  71  97 132 182 226 269 342 407
#     4  11  20  43  65  95 134 181 224 279 331 409
#     4  11  23  40  68  92 137 175 229 272 346 402
#
# _framework density 21.205524
#
# number of rings (size 3 to 8) (size 9 to 14) (size 15 to 20)
#    0.000    1.000    7.500    0.000    0.000    1.000 
#    0.000   12.500    0.000    8.250    0.000    0.000 
#    0.000    0.000    0.000    0.000    0.000    0.000 
#
# Total GULP energy -356559.701544 kJ/mol
# GULP energy per Si atom -5571.245337 kJ/mol
# Density = 2.115726 g / cm^3
# Si number density = 21.205524 Si / 1000 Ang^3
#
#
#
# Elastic Constant Matrix: (Units=GPa)
#
#
# Indices 1 2 3 4 5 6 
#
# 1 135.5374 26.6923 20.3318 0.0000 0.0000 0.0000
# 2 26.6923 135.5374 20.3318 0.0000 0.0000 0.0000
# 3 20.3318 20.3318 63.7121 0.0000 0.0000 0.0000
# 4 0.0000 0.0000 0.0000 -13.2518 0.0000 0.0000
# 5 0.0000 0.0000 0.0000 0.0000 -13.2518 0.0000
# 6 0.0000 0.0000 0.0000 0.0000 0.0000 33.4077
#
#
#
# Elastic Compliance Matrix: (Units=1/GPa)
#
#
# Indices 1 2 3 4 5 6 
#
# 1 0.007944 -0.001244 -0.002138 0.000000 0.000000 0.000000
# 2 -0.001244 0.007944 -0.002138 0.000000 0.000000 0.000000
# 3 -0.002138 -0.002138 0.017060 0.000000 0.000000 0.000000
# 4 0.000000 0.000000 0.000000 -0.075461 0.000000 0.000000
# 5 0.000000 0.000000 0.000000 0.000000 -0.075461 0.000000
# 6 0.000000 0.000000 0.000000 0.000000 0.000000 0.029933
#
#
# Mechanical properties :
#
#
# Convention : Reuss Voigt Hill
#
# Bulk Modulus (GPa) = 45.64576 52.16653 48.90615
# Shear Modulus (GPa) = -71.73647 19.20956 -26.26346
#
# Velocity S-wave (km/s) = -5.82259 3.01304 -3.52308
# Velocity P-wave (km/s) = 4.86120 6.06287 2.56194
#
# Compressibility (1/GPa) = 0.02190784
#
# Stress axis : x y z
#
# Youngs Moduli (GPa) = 125.88597 125.88597 58.61589
#
# Poissons Ratio (x) = 0.15656 0.12533
# Poissons Ratio (y) = 0.15656 0.12533
# Poissons Ratio (z) = 0.26916 0.26916
#
# Static dielectric constant tensor:
#      x y z
#    x 1.853030 0.000000 0.000000 
#    y 0.000000 1.853030 0.000000 
#    z 0.000000 0.000000 1.783310 
# 
# From -- ./inp_files/7482.got.cif
#   From: 2010.05.17/outbox.cif.g08.bks.cpg/sg133_4_cif.got.tgz:7482.got - 2010.05.20 12:37:36.
