data_PCOD9567000
_publ_section_title
;
Structure prediction by ZEFSAII (Michael W. Deem and Ramdas Pophale) SiO2 
 PCOD9567000
Probable space group: P 42/M C M
;
_chemical_formula_sum "Si O2"
_cell_formula_units_Z 96
_cell_length_a 25.352251
_cell_length_b 25.352251
_cell_length_c 9.299160
_cell_angle_alpha 90.000000
_cell_angle_beta 90.000000
_cell_angle_gamma 90.000000
_cell_volume 5976.910767
_symmetry_space_group_name_H-M "P 42/M C M"
_symmetry_group_IT_number 132
_symmetry_cell_setting 'tetragonal'
loop_
_space_group_symop_operation_xyz
x,y,z
-y,x,1/2+z
-x,-y,z
y,-x,1/2+z
x,-y,1/2-z
-x,y,1/2-z
y,x,-z
-y,-x,-z
-x,-y,-z
y,-x,1/2-z
x,y,-z
-y,x,1/2-z
-x,y,1/2+z
x,-y,1/2+z
-y,-x,z
y,x,z
loop_
_atom_site_type_symbol
_atom_site_label
_atom_site_fract_x
_atom_site_fract_y
_atom_site_fract_z
Si Si1 0.447875 0.696796 0.333328
Si Si2 0.282768 0.282768 0.157912
Si Si3 0.055427 0.856963 0.669944
Si Si4 0.221794 0.134451 0.671077
Si Si5 0.824050 0.554263 0.167608
Si Si6 0.649526 0.350475 0.166252
Si Si7 0.675851 0.162231 0.334081
O O1 0.500000 0.680923 0.250000
O O2 0.448812 0.681954 0.500000
O O3 0.443572 0.760310 0.325572
O O4 0.400632 0.671101 0.248520
O O5 0.306648 0.306648 0.302097
O O6 0.301851 0.222382 0.159350
O O7 0.303339 0.303339 0.000000
O O8 0.048830 0.846221 0.500000
O O9 0.089532 0.910469 0.684322
O O10 0.090487 0.811731 0.745014
O O11 0.000000 0.861302 0.750000
O O12 0.221059 0.125442 0.500000
O O13 0.189819 0.189819 0.696963
O O14 0.281058 0.135221 0.732171
O O15 0.840164 0.500000 0.250000
O O16 0.840742 0.614106 0.213367
O O17 0.838968 0.548554 0.000000
O O18 0.640299 0.359701 0.000000
O O19 0.678240 0.142852 0.500000
#
# Coordination Sequence:
#
# PCOD9567000 Si02
#       7
#    16   8  16  16  16   8  16
#     4  10  19  33  47  62  82 107 138 179 228 279
#     4  10  18  30  44  62  91 125 157 197 242 294
#     4  10  21  37  57  80 109 147 186 226 268 307
#     4  10  20  32  48  74 105 136 172 216 261 308
#     4   9  18  30  44  62  88 122 158 196 242 294
#     4  12  22  30  44  65  85 110 144 181 223 280
#     4  10  18  30  47  66  93 131 168 203 252 308
#
# _framework density 16.061809
#
# number of rings (size 3 to 8) (size 9 to 14) (size 15 to 20)
#    0.000    2.000    2.500    2.250    0.000    3.833 
#    0.000    0.833    0.000    0.250    0.000    1.750 
#    0.000    0.667    0.000    7.000    0.000    3.833 
#
# Total GULP energy -534575.547926 kJ/mol
# GULP energy per Si atom -5568.495291 kJ/mol
# Density = 1.602525 g / cm^3
# Si number density = 16.061809 Si / 1000 Ang^3
#
#
#
# Elastic Constant Matrix: (Units=GPa)
#
#
# Indices 1 2 3 4 5 6 
#
# 1 82.0357 32.8662 56.4569 0.0000 0.0000 0.0000
# 2 32.8662 82.0357 56.4568 0.0000 0.0000 0.0000
# 3 56.4569 56.4568 127.3240 0.0000 0.0000 0.0000
# 4 0.0000 0.0000 0.0000 26.7380 0.0000 0.0000
# 5 0.0000 0.0000 0.0000 0.0000 26.7379 0.0000
# 6 0.0000 0.0000 0.0000 0.0000 0.0000 9.8069
#
#
#
# Elastic Compliance Matrix: (Units=1/GPa)
#
#
# Indices 1 2 3 4 5 6 
#
# 1 0.017881 -0.002457 -0.006839 0.000000 0.000000 0.000000
# 2 -0.002457 0.017881 -0.006839 0.000000 0.000000 0.000000
# 3 -0.006839 -0.006839 0.013919 0.000000 0.000000 0.000000
# 4 0.000000 0.000000 0.000000 0.037400 0.000000 0.000000
# 5 0.000000 0.000000 0.000000 0.000000 0.037400 0.000000
# 6 0.000000 0.000000 0.000000 0.000000 0.000000 0.101969
#
#
# Mechanical properties :
#
#
# Convention : Reuss Voigt Hill
#
# Bulk Modulus (GPa) = 57.43721 64.77281 61.10501
# Shear Modulus (GPa) = 18.90192 22.36426 20.63309
#
# Velocity S-wave (km/s) = 3.43421 3.73552 3.58803
# Velocity P-wave (km/s) = 7.18072 7.68246 7.43583
#
# Compressibility (1/GPa) = 0.01741032
#
# Stress axis : x y z
#
# Youngs Moduli (GPa) = 55.92580 55.92587 71.84410
#
# Poissons Ratio (x) = 0.13741 0.49135
# Poissons Ratio (y) = 0.13741 0.49135
# Poissons Ratio (z) = 0.38248 0.38248
#
# Static dielectric constant tensor:
#      x y z
#    x 1.479770 0.000000 0.000000 
#    y 0.000000 1.479760 0.000000 
#    z 0.000000 0.000000 1.513510 
# 
# From -- ./inp_files/1814.got.cif
#   From: 2010.05.17/outbox.cif.g08.bks.cpg/sg132_1_cif.got.tgz:1814.got - 2010.05.20 12:30:18.
