data_PCOD9567128
_publ_section_title
;
Structure prediction by ZEFSAII (Michael W. Deem and Ramdas Pophale) SiO2 
 PCOD9567128
Probable space group: P 42/M C M
;
_chemical_formula_sum "Si O2"
_cell_formula_units_Z 112
_cell_length_a 13.644483
_cell_length_b 13.644483
_cell_length_c 32.857011
_cell_angle_alpha 90.000000
_cell_angle_beta 90.000000
_cell_angle_gamma 90.000000
_cell_volume 6117.052703
_symmetry_space_group_name_H-M "P 42/M C M"
_symmetry_group_IT_number 132
_symmetry_cell_setting 'tetragonal'
loop_
_space_group_symop_operation_xyz
x,y,z
-y,x,1/2+z
-x,-y,z
y,-x,1/2+z
x,-y,1/2-z
-x,y,1/2-z
y,x,-z
-y,-x,-z
-x,-y,-z
y,-x,1/2-z
x,y,-z
-y,x,1/2-z
-x,y,1/2+z
x,-y,1/2+z
-y,-x,z
y,x,z
loop_
_atom_site_type_symbol
_atom_site_label
_atom_site_fract_x
_atom_site_fract_y
_atom_site_fract_z
Si Si1 0.235660 0.069386 0.211151
Si Si2 0.339007 0.493208 0.296870
Si Si3 0.797510 0.631851 0.162753
Si Si4 0.838874 0.995231 0.372677
Si Si5 0.376530 0.217299 0.452795
Si Si6 0.721511 0.003946 0.044578
Si Si7 0.447003 0.101675 0.084740
O O1 0.141725 0.141725 0.217029
O O2 0.327746 0.138308 0.200252
O O3 0.246595 0.000000 0.250000
O O4 0.220030 0.008852 0.169248
O O5 0.306916 0.500000 0.250000
O O6 0.425756 0.574244 0.300269
O O7 0.388938 0.388938 0.305171
O O8 0.254072 0.530154 0.325749
O O9 0.714999 0.714999 0.155630
O O10 0.859043 0.615432 0.122363
O O11 0.889759 0.889759 0.373535
O O12 0.784671 0.012430 0.415176
O O13 0.923237 0.076764 0.370123
O O14 0.402507 0.237814 0.500000
O O15 0.308159 0.308159 0.438185
O O16 0.312648 0.117301 0.453240
O O17 0.474088 0.183512 0.428882
O O18 0.626463 0.934023 0.049306
O O19 0.767471 0.987998 0.000000
O O20 0.500000 0.000000 0.097027
#
# Coordination Sequence:
#
# PCOD9567128 Si02
#       7
#    16  16  16  16  16  16  16
#     4  10  20  36  56  76 105 147 190 231 275 326
#     4   8  15  31  54  77 101 132 174 223 275 333
#     4  10  20  36  56  79 110 146 184 227 274 332
#     4  10  20  33  51  77 108 144 186 231 275 325
#     4   9  18  33  54  79 105 139 187 236 280 333
#     4  10  19  33  53  76 107 147 185 225 279 335
#     4  10  20  35  54  78 111 145 183 224 282 334
#
# _framework density 18.309470000000001
#
# number of rings (size 3 to 8) (size 9 to 14) (size 15 to 20)
#    0.000    2.429    1.429    1.714    0.000    4.143 
#    2.571    0.714    0.000    1.286    0.000    1.000 
#    0.000    0.000    0.000    0.000    0.000    0.000 
#
# Total GULP energy -623804.337272 kJ/mol
# GULP energy per Si atom -5569.681583 kJ/mol
# Density = 1.826780 g / cm^3
# Si number density = 18.309470 Si / 1000 Ang^3
#
#
#
# Elastic Constant Matrix: (Units=GPa)
#
#
# Indices 1 2 3 4 5 6 
#
# 1 63.1574 29.4611 39.6111 0.0000 0.0000 0.0000
# 2 29.4611 63.1574 39.6111 0.0000 0.0000 0.0000
# 3 39.6111 39.6111 116.9523 0.0000 0.0000 0.0000
# 4 0.0000 0.0000 0.0000 23.6956 0.0000 0.0000
# 5 0.0000 0.0000 0.0000 0.0000 23.6956 0.0000
# 6 0.0000 0.0000 0.0000 0.0000 0.0000 26.9723
#
#
#
# Elastic Compliance Matrix: (Units=1/GPa)
#
#
# Indices 1 2 3 4 5 6 
#
# 1 0.022439 -0.007238 -0.005148 0.000000 0.000000 0.000000
# 2 -0.007238 0.022439 -0.005148 0.000000 0.000000 0.000000
# 3 -0.005148 -0.005148 0.012038 0.000000 0.000000 0.000000
# 4 0.000000 0.000000 0.000000 0.042202 0.000000 0.000000
# 5 0.000000 0.000000 0.000000 0.000000 0.042202 0.000000
# 6 0.000000 0.000000 0.000000 0.000000 0.000000 0.037075
#
#
# Mechanical properties :
#
#
# Convention : Reuss Voigt Hill
#
# Bulk Modulus (GPa) = 45.77540 51.18151 48.47846
# Shear Modulus (GPa) = 22.65044 23.84494 23.24769
#
# Velocity S-wave (km/s) = 3.52104 3.61269 3.56716
# Velocity P-wave (km/s) = 6.44869 6.73916 6.59552
#
# Compressibility (1/GPa) = 0.02184580
#
# Stress axis : x y z
#
# Youngs Moduli (GPa) = 44.56567 44.56567 83.07061
#
# Poissons Ratio (x) = 0.32257 0.42768
# Poissons Ratio (y) = 0.32257 0.42768
# Poissons Ratio (z) = 0.22944 0.22944
#
# Static dielectric constant tensor:
#      x y z
#    x 1.650930 0.000000 0.000000 
#    y 0.000000 1.650930 0.000000 
#    z 0.000000 0.000000 1.617440 
# 
# From -- ./inp_files/10092.got.cif
#   From: 2010.05.17/outbox.cif.g08.bks.cpg/sg132_6_cif.got.tgz:10092.got - 2010.05.20 12:30:18.
