data_PCOD9567945
_publ_section_title
;
Structure prediction by ZEFSAII (Michael W. Deem and Ramdas Pophale) SiO2 
 PCOD9567945
Probable space group: P 42/N B C
;
_chemical_formula_sum "Si O2"
_cell_formula_units_Z 24
_cell_length_a 9.594815
_cell_length_b 9.594815
_cell_length_c 10.331266
_cell_angle_alpha 90.000000
_cell_angle_beta 90.000000
_cell_angle_gamma 90.000000
_cell_volume 951.101254
_symmetry_space_group_name_H-M "P 42/N B C"
_symmetry_group_IT_number 133
_space_group.IT_coordinate_system_code '2'
_symmetry_cell_setting 'tetragonal'
loop_
_space_group_symop_operation_xyz
x,y,z
1/2-y,x,1/2+z
1/2-x,1/2-y,z
y,1/2-x,1/2+z
x,1/2-y,-z
1/2-x,y,-z
y,x,1/2-z
1/2-y,1/2-x,1/2-z
-x,-y,-z
1/2+y,-x,1/2-z
1/2+x,1/2+y,-z
-y,1/2+x,1/2-z
-x,1/2+y,z
1/2+x,-y,z
-y,-x,1/2+z
1/2+y,1/2+x,1/2+z
loop_
_atom_site_type_symbol
_atom_site_label
_atom_site_fract_x
_atom_site_fract_y
_atom_site_fract_z
Si Si1 0.750000 0.250000 0.000000
Si Si2 0.503798 0.100393 0.623360
Si Si3 0.250000 0.250000 0.250000
O O1 0.830211 0.349644 0.097872
O O2 0.381066 0.214837 0.652305
O O3 0.494484 0.005517 0.750000
O O4 0.500000 0.000000 0.500000
#
# Coordination Sequence:
#
# PCOD9567945 Si02
#       3
#     4  16   4
#     4  12  28  52  96 136 172 252 320 384 484 580
#     4  10  26  54  89 132 184 244 316 392 474 584
#     4   8  24  58  82 126 202 242 290 400 492 556
#
# _framework density 25.233909000000001
#
# number of rings (size 3 to 8) (size 9 to 14) (size 15 to 20)
#    2.000    0.000    0.000    0.000    0.000   14.667 
#   12.000    1.667    0.000    0.000    0.000    0.000 
#    0.000    0.000    0.000    0.000    0.000    0.000 
#
# Total GULP energy -133739.565702 kJ/mol
# GULP energy per Si atom -5572.481904 kJ/mol
# Density = 2.517648 g / cm^3
# Si number density = 25.233909 Si / 1000 Ang^3
#
#
#
# Elastic Constant Matrix: (Units=GPa)
#
#
# Indices 1 2 3 4 5 6 
#
# 1 202.1943 129.2543 119.4007 0.0000 0.0000 0.0000
# 2 129.2543 202.1947 119.4010 0.0000 0.0000 0.0000
# 3 119.4007 119.4010 268.2811 0.0000 0.0000 0.0000
# 4 0.0000 0.0000 0.0000 56.3348 0.0000 0.0000
# 5 0.0000 0.0000 0.0000 0.0000 56.3355 0.0000
# 6 0.0000 0.0000 0.0000 0.0000 0.0000 13.0341
#
#
#
# Elastic Compliance Matrix: (Units=1/GPa)
#
#
# Indices 1 2 3 4 5 6 
#
# 1 0.009076 -0.004634 -0.001977 0.000000 0.000000 0.000000
# 2 -0.004634 0.009075 -0.001977 0.000000 0.000000 0.000000
# 3 -0.001977 -0.001977 0.005487 0.000000 0.000000 0.000000
# 4 0.000000 0.000000 0.000000 0.017751 0.000000 0.000000
# 5 0.000000 0.000000 0.000000 0.000000 0.017751 0.000000
# 6 0.000000 0.000000 0.000000 0.000000 0.000000 0.076722
#
#
# Mechanical properties :
#
#
# Convention : Reuss Voigt Hill
#
# Bulk Modulus (GPa) = 154.73144 156.53137 155.63141
# Shear Modulus (GPa) = 32.21837 45.44848 38.83342
#
# Velocity S-wave (km/s) = 3.57709 4.24853 3.92719
# Velocity P-wave (km/s) = 8.86074 9.28620 9.07596
#
# Compressibility (1/GPa) = 0.00646281
#
# Stress axis : x y z
#
# Youngs Moduli (GPa) = 110.18675 110.18690 182.25534
#
# Poissons Ratio (x) = 0.51065 0.36024
# Poissons Ratio (y) = 0.51065 0.36024
# Poissons Ratio (z) = 0.21779 0.21779
#
# Static dielectric constant tensor:
#      x y z
#    x 2.507010 0.000000 0.000000 
#    y 0.000000 2.506560 0.000000 
#    z 0.000000 0.000000 1.958790 
# 
# From -- ./inp_files/673.got.cif
#   From: 2010.05.17/outbox.cif.g08.bks.cpg/sg133_1_cif.got.tgz:673.got - 2010.05.20 12:37:36.
