data_PCOD9567811
_publ_section_title
;
Structure prediction by ZEFSAII (Michael W. Deem and Ramdas Pophale) SiO2 
 PCOD9567811
Probable space group: P 42/N B C
;
_chemical_formula_sum "Si O2"
_cell_formula_units_Z 56
_cell_length_a 14.928368
_cell_length_b 14.928368
_cell_length_c 9.586566
_cell_angle_alpha 90.000000
_cell_angle_beta 90.000000
_cell_angle_gamma 90.000000
_cell_volume 2136.425393
_symmetry_space_group_name_H-M "P 42/N B C"
_symmetry_group_IT_number 133
_space_group.IT_coordinate_system_code '2'
_symmetry_cell_setting 'tetragonal'
loop_
_space_group_symop_operation_xyz
x,y,z
1/2-y,x,1/2+z
1/2-x,1/2-y,z
y,1/2-x,1/2+z
x,1/2-y,-z
1/2-x,y,-z
y,x,1/2-z
1/2-y,1/2-x,1/2-z
-x,-y,-z
1/2+y,-x,1/2-z
1/2+x,1/2+y,-z
-y,1/2+x,1/2-z
-x,1/2+y,z
1/2+x,-y,z
-y,-x,1/2+z
1/2+y,1/2+x,1/2+z
loop_
_atom_site_type_symbol
_atom_site_label
_atom_site_fract_x
_atom_site_fract_y
_atom_site_fract_z
Si Si1 0.947718 0.770359 0.308469
Si Si2 0.750000 0.750000 0.250000
Si Si3 0.596545 0.136828 0.593293
Si Si4 0.750000 0.250000 0.750000
Si Si5 0.963480 0.963480 0.250000
Si Si6 0.250000 0.528396 0.500000
O O1 0.844112 0.748764 0.331056
O O2 0.960838 0.874583 0.345352
O O3 0.018123 0.708578 0.385015
O O4 0.971268 0.763855 0.141515
O O5 0.679428 0.189960 0.665486
O O6 0.659098 0.087789 0.475916
O O7 0.548811 0.052352 0.664200
#
# Coordination Sequence:
#
# PCOD9567811 Si02
#       6
#    16   4  16   4   8   8
#     4  10  21  41  66 101 140 189 238 305 373 446
#     4  10  22  42  72  96 146 204 240 302 376 456
#     4  11  21  41  67 103 144 187 242 312 380 447
#     4  12  20  38  68  96 142 184 244 302 384 432
#     4   9  19  37  64  89 135 179 220 292 372 434
#     4  10  22  40  70 100 140 186 244 306 378 458
#
# _framework density 26.212008999999998
#
# number of rings (size 3 to 8) (size 9 to 14) (size 15 to 20)
#    0.000    1.714    5.714    0.857    0.000    1.143 
#    0.000   12.857    0.000   24.000    0.000    0.000 
#    0.000    2.286    0.000    0.000    0.000    0.000 
#
# Total GULP energy -312823.462278 kJ/mol
# GULP energy per Si atom -5586.133255 kJ/mol
# Density = 2.615235 g / cm^3
# Si number density = 26.212009 Si / 1000 Ang^3
#
#
#
# Elastic Constant Matrix: (Units=GPa)
#
#
# Indices 1 2 3 4 5 6 
#
# 1 40.7836 261.0678 45.7427 0.0000 0.0000 0.0000
# 2 261.0678 40.7836 45.7427 0.0000 0.0000 0.0000
# 3 45.7427 45.7427 111.8892 0.0000 0.0000 0.0000
# 4 0.0000 0.0000 0.0000 -4.9695 0.0000 0.0000
# 5 0.0000 0.0000 0.0000 0.0000 -4.9695 0.0000
# 6 0.0000 0.0000 0.0000 0.0000 0.0000 70.0433
#
#
#
# Elastic Compliance Matrix: (Units=1/GPa)
#
#
# Indices 1 2 3 4 5 6 
#
# 1 -0.000379 0.004161 -0.001546 0.000000 0.000000 0.000000
# 2 0.004161 -0.000379 -0.001546 0.000000 0.000000 0.000000
# 3 -0.001546 -0.001546 0.010201 0.000000 0.000000 0.000000
# 4 0.000000 0.000000 0.000000 -0.201226 0.000000 0.000000
# 5 0.000000 0.000000 0.000000 0.000000 -0.201226 0.000000
# 6 0.000000 0.000000 0.000000 0.000000 0.000000 0.014277
#
#
# Mechanical properties :
#
#
# Convention : Reuss Voigt Hill
#
# Bulk Modulus (GPa) = 86.35155 99.84033 93.09594
# Shear Modulus (GPa) = -13.26229 1.41438 -5.92396
#
# Velocity S-wave (km/s) = -2.25180 0.73537 -1.50497
# Velocity P-wave (km/s) = 5.12389 6.23644 5.70734
#
# Compressibility (1/GPa) = 0.01158057
#
# Stress axis : x y z
#
# Youngs Moduli (GPa) = -2637.97545 -2637.97545 98.02546
#
# Poissons Ratio (x) = 10.97532 0.15154
# Poissons Ratio (y) = 10.97532 0.15154
# Poissons Ratio (z) = -4.07813 -4.07813
#
# Static dielectric constant tensor:
#      x y z
#    x 2.007180 0.000000 0.000000 
#    y 0.000000 2.007180 0.000000 
#    z 0.000000 0.000000 2.234370 
# 
# From -- ./inp_files/2842.got.cif
#   From: 2010.05.17/outbox.cif.g08.bks.cpg/sg133_2_cif.got.tgz:2842.got - 2010.05.20 12:37:36.
