data_PCOD9567503
_publ_section_title
;
Structure prediction by ZEFSAII (Michael W. Deem and Ramdas Pophale) SiO2 
 PCOD9567503
Probable space group: P 42/M C M
;
_chemical_formula_sum "Si O2"
_cell_formula_units_Z 60
_cell_length_a 11.912425
_cell_length_b 11.912425
_cell_length_c 20.518971
_cell_angle_alpha 90.000000
_cell_angle_beta 90.000000
_cell_angle_gamma 90.000000
_cell_volume 2911.762419
_symmetry_space_group_name_H-M "P 42/M C M"
_symmetry_group_IT_number 132
_symmetry_cell_setting 'tetragonal'
loop_
_space_group_symop_operation_xyz
x,y,z
-y,x,1/2+z
-x,-y,z
y,-x,1/2+z
x,-y,1/2-z
-x,y,1/2-z
y,x,-z
-y,-x,-z
-x,-y,-z
y,-x,1/2-z
x,y,-z
-y,x,1/2-z
-x,y,1/2+z
x,-y,1/2+z
-y,-x,z
y,x,z
loop_
_atom_site_type_symbol
_atom_site_label
_atom_site_fract_x
_atom_site_fract_y
_atom_site_fract_z
Si Si1 0.354629 0.645372 0.500000
Si Si2 0.000566 0.811965 0.824671
Si Si3 0.463569 0.277152 0.604816
Si Si4 0.500000 0.311079 0.750000
Si Si5 0.955840 0.374200 0.926940
O O1 0.430858 0.708268 0.557381
O O2 0.112121 0.887880 0.834250
O O3 0.997302 0.711613 0.874809
O O4 0.000000 0.771823 0.750000
O O5 0.896495 0.896495 0.832724
O O6 0.394617 0.394617 0.603219
O O7 0.493058 0.250524 0.680296
O O8 0.384239 0.178082 0.579899
O O9 0.391709 0.391709 0.754103
O O10 0.000000 0.500000 0.916519
O O11 0.987007 0.338898 0.000000
#
# Coordination Sequence:
#
# PCOD9567503 Si02
#       5
#     4  16  16   8  16
#     4  12  21  36  62  88 116 162 209 246 305 358
#     4   9  20  42  70  95 121 159 210 267 325 386
#     4  11  21  36  60  86 118 160 203 249 299 358
#     4   9  18  32  51  84 120 148 191 242 287 352
#     4  11  25  42  57  89 128 162 205 254 310 375
#
# _framework density 20.606078
#
# number of rings (size 3 to 8) (size 9 to 14) (size 15 to 20)
#    0.000    1.733    2.667    2.800    0.000    4.800 
#    2.400    4.000    0.000    0.000    0.000    0.000 
#    0.000    0.000    0.000    0.000    0.000    0.000 
#
# Total GULP energy -334215.649920 kJ/mol
# GULP energy per Si atom -5570.260832 kJ/mol
# Density = 2.055918 g / cm^3
# Si number density = 20.606078 Si / 1000 Ang^3
#
#
#
# Elastic Constant Matrix: (Units=GPa)
#
#
# Indices 1 2 3 4 5 6 
#
# 1 44.2413 7.8607 59.9895 0.0000 0.0000 0.0000
# 2 7.8607 44.2411 59.9893 0.0000 0.0000 0.0000
# 3 59.9895 59.9893 204.0369 0.0000 0.0000 0.0000
# 4 0.0000 0.0000 0.0000 17.7388 0.0000 0.0000
# 5 0.0000 0.0000 0.0000 0.0000 17.7396 0.0000
# 6 0.0000 0.0000 0.0000 0.0000 0.0000 3.8575
#
#
#
# Elastic Compliance Matrix: (Units=1/GPa)
#
#
# Indices 1 2 3 4 5 6 
#
# 1 0.043458 0.015971 -0.017473 0.000000 0.000000 0.000000
# 2 0.015971 0.043458 -0.017473 0.000000 0.000000 0.000000
# 3 -0.017473 -0.017473 0.015176 0.000000 0.000000 0.000000
# 4 0.000000 0.000000 0.000000 0.056374 0.000000 0.000000
# 5 0.000000 0.000000 0.000000 0.000000 0.056371 0.000000
# 6 0.000000 0.000000 0.000000 0.000000 0.000000 0.259235
#
#
# Mechanical properties :
#
#
# Convention : Reuss Voigt Hill
#
# Bulk Modulus (GPa) = 15.59023 60.91093 38.25058
# Shear Modulus (GPa) = 9.37377 18.84584 14.10981
#
# Velocity S-wave (km/s) = 2.13516 3.02748 2.61959
# Velocity P-wave (km/s) = 3.69605 6.46875 5.26809
#
# Compressibility (1/GPa) = 0.06414272
#
# Stress axis : x y z
#
# Youngs Moduli (GPa) = 23.01051 23.01047 65.89490
#
# Poissons Ratio (x) = -0.36751 1.15139
# Poissons Ratio (y) = -0.36751 1.15139
# Poissons Ratio (z) = 0.40206 0.40206
#
# Static dielectric constant tensor:
#      x y z
#    x 1.745260 0.000000 0.000000 
#    y 0.000000 1.745260 0.000000 
#    z 0.000000 0.000000 1.741780 
# 
# From -- ./inp_files/7483.got.cif
#   From: 2010.05.17/outbox.cif.g08.bks.cpg/sg132_4_cif.got.tgz:7483.got - 2010.05.20 12:30:18.
