data_PCOD9567074
_publ_section_title
;
Structure prediction by ZEFSAII (Michael W. Deem and Ramdas Pophale) SiO2 
 PCOD9567074
Probable space group: P 42/M C M
;
_chemical_formula_sum "Si O2"
_cell_formula_units_Z 42
_cell_length_a 15.955540
_cell_length_b 15.955540
_cell_length_c 10.799208
_cell_angle_alpha 90.000000
_cell_angle_beta 90.000000
_cell_angle_gamma 90.000000
_cell_volume 2749.254345
_symmetry_space_group_name_H-M "P 42/M C M"
_symmetry_group_IT_number 132
_symmetry_cell_setting 'tetragonal'
loop_
_space_group_symop_operation_xyz
x,y,z
-y,x,1/2+z
-x,-y,z
y,-x,1/2+z
x,-y,1/2-z
-x,y,1/2-z
y,x,-z
-y,-x,-z
-x,-y,-z
y,-x,1/2-z
x,y,-z
-y,x,1/2-z
-x,y,1/2+z
x,-y,1/2+z
-y,-x,z
y,x,z
loop_
_atom_site_type_symbol
_atom_site_label
_atom_site_fract_x
_atom_site_fract_y
_atom_site_fract_z
Si Si1 0.500000 0.500000 0.750000
Si Si2 0.598676 0.183203 0.742389
Si Si3 0.399944 0.892726 0.000000
Si Si4 0.368672 0.368672 0.852340
Si Si5 0.911012 0.396037 0.500000
O O1 0.439017 0.439017 0.827649
O O2 0.500000 0.163119 0.750000
O O3 0.630807 0.154244 0.876330
O O4 0.606363 0.280834 0.710197
O O5 0.635254 0.132223 0.626008
O O6 0.502551 0.895524 0.000000
O O7 0.377263 0.990653 0.000000
O O8 0.358202 0.358202 0.000000
#
# Coordination Sequence:
#
# PCOD9567074 Si02
#       5
#     2  16   8   8   8
#     4  12  26  36  52  62  80 138 180 232 242 274
#     4  10  19  31  49  67  91 121 155 204 242 287
#     4   9  18  29  48  72  88 111 149 194 247 303
#     4  12  23  38  48  66  92 127 179 213 259 276
#     4   9  16  31  48  68  92 113 145 192 253 301
#
# _framework density 15.276868
#
# number of rings (size 3 to 8) (size 9 to 14) (size 15 to 20)
#    0.000    1.905    3.810    1.429    0.000    5.333 
#    3.429    0.000    0.000    0.000    0.000    0.000 
#    0.000    0.000    0.000    0.000    0.000   66.667 
#
# Total GULP energy -233897.889819 kJ/mol
# GULP energy per Si atom -5568.997377 kJ/mol
# Density = 1.524210 g / cm^3
# Si number density = 15.276868 Si / 1000 Ang^3
#
#
#
# Elastic Constant Matrix: (Units=GPa)
#
#
# Indices 1 2 3 4 5 6 
#
# 1 62.7020 3.4425 52.6884 0.0000 0.0000 0.0000
# 2 3.4425 62.7020 52.6884 0.0000 0.0000 0.0000
# 3 52.6884 52.6884 176.7605 0.0000 0.0000 0.0000
# 4 0.0000 0.0000 0.0000 15.7721 0.0000 0.0000
# 5 0.0000 0.0000 0.0000 0.0000 15.7721 0.0000
# 6 0.0000 0.0000 0.0000 0.0000 0.0000 7.2751
#
#
#
# Elastic Compliance Matrix: (Units=1/GPa)
#
#
# Indices 1 2 3 4 5 6 
#
# 1 0.022833 0.005958 -0.008582 0.000000 0.000000 0.000000
# 2 0.005958 0.022833 -0.008582 0.000000 0.000000 0.000000
# 3 -0.008582 -0.008582 0.010773 0.000000 0.000000 0.000000
# 4 0.000000 0.000000 0.000000 0.063403 0.000000 0.000000
# 5 0.000000 0.000000 0.000000 0.000000 0.063403 0.000000
# 6 0.000000 0.000000 0.000000 0.000000 0.000000 0.137455
#
#
# Mechanical properties :
#
#
# Convention : Reuss Voigt Hill
#
# Bulk Modulus (GPa) = 29.38849 57.75591 43.57220
# Shear Modulus (GPa) = 14.10621 20.65353 17.37987
#
# Velocity S-wave (km/s) = 3.04200 3.68087 3.37658
# Velocity P-wave (km/s) = 5.62293 7.48019 6.61705
#
# Compressibility (1/GPa) = 0.03402692
#
# Stress axis : x y z
#
# Youngs Moduli (GPa) = 43.79710 43.79710 92.82109
#
# Poissons Ratio (x) = -0.26093 0.79656
# Poissons Ratio (y) = -0.26093 0.79656
# Poissons Ratio (z) = 0.37585 0.37585
#
# Static dielectric constant tensor:
#      x y z
#    x 1.487650 0.000000 0.000000 
#    y 0.000000 1.487650 0.000000 
#    z 0.000000 0.000000 1.551240 
# 
# From -- ./inp_files/614.got.cif
#   From: 2010.05.17/outbox.cif.g08.bks.cpg/sg132_1_cif.got.tgz:614.got - 2010.05.20 12:30:18.
