data_PCOD9567451
_publ_section_title
;
Structure prediction by ZEFSAII (Michael W. Deem and Ramdas Pophale) SiO2 
 PCOD9567451
Probable space group: P 42/M C M
;
_chemical_formula_sum "Si O2"
_cell_formula_units_Z 96
_cell_length_a 24.741403
_cell_length_b 24.741403
_cell_length_c 8.527328
_cell_angle_alpha 90.000000
_cell_angle_beta 90.000000
_cell_angle_gamma 90.000000
_cell_volume 5219.893171
_symmetry_space_group_name_H-M "P 42/M C M"
_symmetry_group_IT_number 132
_symmetry_cell_setting 'tetragonal'
loop_
_space_group_symop_operation_xyz
x,y,z
-y,x,1/2+z
-x,-y,z
y,-x,1/2+z
x,-y,1/2-z
-x,y,1/2-z
y,x,-z
-y,-x,-z
-x,-y,-z
y,-x,1/2-z
x,y,-z
-y,x,1/2-z
-x,y,1/2+z
x,-y,1/2+z
-y,-x,z
y,x,z
loop_
_atom_site_type_symbol
_atom_site_label
_atom_site_fract_x
_atom_site_fract_y
_atom_site_fract_z
Si Si1 0.123554 0.251309 0.811832
Si Si2 0.243932 0.243932 0.687952
Si Si3 0.060119 0.144087 0.188900
Si Si4 0.149597 0.559870 0.811008
Si Si5 0.560191 0.726898 0.310488
Si Si6 0.332614 0.332614 0.691558
Si Si7 0.060248 0.353710 0.311414
O O1 0.183860 0.258128 0.746321
O O2 0.098353 0.193857 0.763010
O O3 0.083572 0.297350 0.750885
O O4 0.126199 0.252640 0.000000
O O5 0.243862 0.243862 0.500000
O O6 0.288082 0.288082 0.740065
O O7 0.088945 0.088945 0.241608
O O8 0.000000 0.150558 0.250000
O O9 0.058607 0.144358 0.000000
O O10 0.138192 0.500000 0.750000
O O11 0.211126 0.573945 0.762044
O O12 0.103650 0.601270 0.758337
O O13 0.149254 0.559604 0.000000
O O14 0.500000 0.714375 0.250000
O O15 0.558720 0.725987 0.500000
O O16 0.608021 0.687075 0.257695
O O17 0.332856 0.332856 0.500000
O O18 0.059212 0.352819 0.500000
O O19 0.000000 0.363787 0.250000
#
# Coordination Sequence:
#
# PCOD9567451 Si02
#       7
#    16   8  16  16  16   8  16
#     4  11  22  39  58  80 113 147 179 224 280 336
#     4  11  21  35  59  87 113 143 183 228 278 339
#     4  10  22  40  58  78 106 136 171 217 265 319
#     4   9  19  35  55  77 107 143 186 233 280 334
#     4   9  17  33  55  79 108 145 184 227 276 327
#     4   9  18  33  55  82 114 150 185 224 274 328
#     4  11  23  38  55  80 110 145 188 234 281 337
#
# _framework density 18.391182000000001
#
# number of rings (size 3 to 8) (size 9 to 14) (size 15 to 20)
#    0.000    2.000    0.833    2.750    0.000    7.500 
#    0.000    7.917    0.000    0.250    0.000    1.750 
#    0.000    0.000    0.000    0.000    0.000    0.000 
#
# Total GULP energy -536018.590541 kJ/mol
# GULP energy per Si atom -5583.526985 kJ/mol
# Density = 1.834932 g / cm^3
# Si number density = 18.391182 Si / 1000 Ang^3
#
#
#
# Elastic Constant Matrix: (Units=GPa)
#
#
# Indices 1 2 3 4 5 6 
#
# 1 133.8153 91.6047 23.9347 0.0000 0.0000 0.0000
# 2 91.6047 133.8153 23.9347 0.0000 0.0000 0.0000
# 3 23.9347 23.9347 21.5838 0.0000 0.0000 0.0000
# 4 0.0000 0.0000 0.0000 28.4113 0.0000 0.0000
# 5 0.0000 0.0000 0.0000 0.0000 28.4113 0.0000
# 6 0.0000 0.0000 0.0000 0.0000 0.0000 28.5685
#
#
#
# Elastic Compliance Matrix: (Units=1/GPa)
#
#
# Indices 1 2 3 4 5 6 
#
# 1 0.014747 -0.008944 -0.006435 0.000000 0.000000 0.000000
# 2 -0.008944 0.014747 -0.006435 0.000000 0.000000 0.000000
# 3 -0.006435 -0.006435 0.060602 0.000000 0.000000 0.000000
# 4 0.000000 0.000000 0.000000 0.035197 0.000000 0.000000
# 5 0.000000 0.000000 0.000000 0.000000 0.035197 0.000000
# 6 0.000000 0.000000 0.000000 0.000000 0.000000 0.035004
#
#
# Mechanical properties :
#
#
# Convention : Reuss Voigt Hill
#
# Bulk Modulus (GPa) = 21.51989 63.12916 42.32453
# Shear Modulus (GPa) = 19.63792 27.06089 23.34940
#
# Velocity S-wave (km/s) = 3.27125 3.84005 3.56701
# Velocity P-wave (km/s) = 5.09850 7.35266 6.32678
#
# Compressibility (1/GPa) = 0.04646864
#
# Stress axis : x y z
#
# Youngs Moduli (GPa) = 67.81186 67.81186 16.50116
#
# Poissons Ratio (x) = 0.60652 0.10618
# Poissons Ratio (y) = 0.60652 0.10618
# Poissons Ratio (z) = 0.43634 0.43634
#
# Static dielectric constant tensor:
#      x y z
#    x 1.619660 0.000000 0.000000 
#    y 0.000000 1.619660 0.000000 
#    z 0.000000 0.000000 1.638710 
# 
# From -- ./inp_files/1858.got.cif
#   From: 2010.05.17/outbox.cif.g08.bks.cpg/sg132_1_cif.got.tgz:1858.got - 2010.05.20 12:30:18.
