data_PCOD9567146
_publ_section_title
;
Structure prediction by ZEFSAII (Michael W. Deem and Ramdas Pophale) SiO2 
 PCOD9567146
Probable space group: P 42/M C M
;
_chemical_formula_sum "Si O2"
_cell_formula_units_Z 96
_cell_length_a 24.902823
_cell_length_b 24.902823
_cell_length_c 8.514028
_cell_angle_alpha 90.000000
_cell_angle_beta 90.000000
_cell_angle_gamma 90.000000
_cell_volume 5279.979516
_symmetry_space_group_name_H-M "P 42/M C M"
_symmetry_group_IT_number 132
_symmetry_cell_setting 'tetragonal'
loop_
_space_group_symop_operation_xyz
x,y,z
-y,x,1/2+z
-x,-y,z
y,-x,1/2+z
x,-y,1/2-z
-x,y,1/2-z
y,x,-z
-y,-x,-z
-x,-y,-z
y,-x,1/2-z
x,y,-z
-y,x,1/2-z
-x,y,1/2+z
x,-y,1/2+z
-y,-x,z
y,x,z
loop_
_atom_site_type_symbol
_atom_site_label
_atom_site_fract_x
_atom_site_fract_y
_atom_site_fract_z
Si Si1 0.440160 0.354491 0.312356
Si Si2 0.146715 0.645494 0.309282
Si Si3 0.730246 0.644717 0.189241
Si Si4 0.059630 0.855834 0.310885
Si Si5 0.059884 0.560079 0.187603
Si Si6 0.146616 0.231842 0.808772
O O1 0.500000 0.353193 0.250000
O O2 0.440080 0.350233 0.500000
O O3 0.409226 0.409226 0.267713
O O4 0.404313 0.306603 0.243343
O O5 0.143951 0.642696 0.500000
O O6 0.208587 0.636232 0.259441
O O7 0.104125 0.603151 0.242926
O O8 0.137021 0.707256 0.259170
O O9 0.699200 0.699200 0.242479
O O10 0.731355 0.646995 0.000000
O O11 0.058957 0.855403 0.500000
O O12 0.089816 0.910185 0.259628
O O13 0.097866 0.806750 0.260795
O O14 0.000000 0.851435 0.250000
O O15 0.072583 0.500000 0.250000
O O16 0.000000 0.573791 0.250000
O O17 0.058197 0.558457 0.000000
O O18 0.201789 0.201789 0.759174
O O19 0.148430 0.232724 0.000000
#
# Coordination Sequence:
#
# PCOD9567146 Si02
#       6
#    16  16  16  16  16  16
#     4  10  21  36  54  76 104 139 177 220 268 314
#     4  10  19  33  57  86 110 137 175 213 254 310
#     4   9  18  33  54  80 110 143 178 217 259 305
#     4   9  18  32  49  70  98 133 172 214 258 302
#     4  11  23  41  61  80 106 138 173 215 264 313
#     4   8  15  30  52  77 106 139 174 213 256 304
#
# _framework density 18.181889000000002
#
# number of rings (size 3 to 8) (size 9 to 14) (size 15 to 20)
#    0.000    2.500    0.000    4.000    0.000    5.667 
#    0.000    4.167    0.000    2.500    0.000    0.000 
#    0.000    0.000    0.000    0.000    0.000    0.000 
#
# Total GULP energy -535408.540400 kJ/mol
# GULP energy per Si atom -5577.172296 kJ/mol
# Density = 1.814051 g / cm^3
# Si number density = 18.181889 Si / 1000 Ang^3
#
#
#
# Elastic Constant Matrix: (Units=GPa)
#
#
# Indices 1 2 3 4 5 6 
#
# 1 181.8200 96.7646 36.7375 0.0000 0.0000 0.0000
# 2 96.7646 181.8200 36.7375 0.0000 0.0000 0.0000
# 3 36.7375 36.7375 38.2742 0.0000 0.0000 0.0000
# 4 0.0000 0.0000 0.0000 19.2295 0.0000 0.0000
# 5 0.0000 0.0000 0.0000 0.0000 19.2295 0.0000
# 6 0.0000 0.0000 0.0000 0.0000 0.0000 19.1899
#
#
#
# Elastic Compliance Matrix: (Units=1/GPa)
#
#
# Indices 1 2 3 4 5 6 
#
# 1 0.008282 -0.003475 -0.004613 0.000000 0.000000 0.000000
# 2 -0.003475 0.008282 -0.004613 0.000000 0.000000 0.000000
# 3 -0.004613 -0.004613 0.034983 0.000000 0.000000 0.000000
# 4 0.000000 0.000000 0.000000 0.052003 0.000000 0.000000
# 5 0.000000 0.000000 0.000000 0.000000 0.052003 0.000000
# 6 0.000000 0.000000 0.000000 0.000000 0.000000 0.052111
#
#
# Mechanical properties :
#
#
# Convention : Reuss Voigt Hill
#
# Bulk Modulus (GPa) = 38.25154 82.48814 60.36984
# Shear Modulus (GPa) = 20.67970 26.97474 23.82722
#
# Velocity S-wave (km/s) = 3.37616 3.85594 3.62400
# Velocity P-wave (km/s) = 6.02345 8.08029 7.12647
#
# Compressibility (1/GPa) = 0.02614274
#
# Stress axis : x y z
#
# Youngs Moduli (GPa) = 120.74853 120.74853 28.58495
#
# Poissons Ratio (x) = 0.41964 0.13187
# Poissons Ratio (y) = 0.41964 0.13187
# Poissons Ratio (z) = 0.55705 0.55705
#
# Static dielectric constant tensor:
#      x y z
#    x 1.611930 0.000000 0.000000 
#    y 0.000000 1.611930 0.000000 
#    z 0.000000 0.000000 1.621200 
# 
# From -- ./inp_files/1775.got.cif
#   From: 2010.05.17/outbox.cif.g08.bks.cpg/sg132_1_cif.got.tgz:1775.got - 2010.05.20 12:30:18.
