data_PCOD9567262
_publ_section_title
;
Structure prediction by ZEFSAII (Michael W. Deem and Ramdas Pophale) SiO2 
 PCOD9567262
Probable space group: P 42/M C M
;
_chemical_formula_sum "Si O2"
_cell_formula_units_Z 64
_cell_length_a 16.399114
_cell_length_b 16.399114
_cell_length_c 14.605470
_cell_angle_alpha 90.000000
_cell_angle_beta 90.000000
_cell_angle_gamma 90.000000
_cell_volume 3927.862776
_symmetry_space_group_name_H-M "P 42/M C M"
_symmetry_group_IT_number 132
_symmetry_cell_setting 'tetragonal'
loop_
_space_group_symop_operation_xyz
x,y,z
-y,x,1/2+z
-x,-y,z
y,-x,1/2+z
x,-y,1/2-z
-x,y,1/2-z
y,x,-z
-y,-x,-z
-x,-y,-z
y,-x,1/2-z
x,y,-z
-y,x,1/2-z
-x,y,1/2+z
x,-y,1/2+z
-y,-x,z
y,x,z
loop_
_atom_site_type_symbol
_atom_site_label
_atom_site_fract_x
_atom_site_fract_y
_atom_site_fract_z
Si Si1 0.788953 0.662226 0.606141
Si Si2 0.094633 0.402136 0.244796
Si Si3 0.476424 0.650079 0.891818
Si Si4 0.372809 0.241156 0.109520
O O1 0.810480 0.670044 0.500000
O O2 0.744692 0.744692 0.637245
O O3 0.863024 0.636257 0.667191
O O4 0.720515 0.591730 0.612718
O O5 0.097594 0.500000 0.250000
O O6 0.154911 0.378721 0.160843
O O7 0.000000 0.377920 0.250000
O O8 0.431662 0.568339 0.854571
O O9 0.557784 0.694230 0.855243
O O10 0.492562 0.633567 0.000000
O O11 0.287214 0.287214 0.123387
O O12 0.386037 0.230912 0.000000
#
# Coordination Sequence:
#
# PCOD9567262 Si02
#       4
#    16  16  16  16
#     4   9  17  32  53  71  92 127 169 211 246 278
#     4  11  22  33  48  71  99 133 171 208 248 297
#     4   8  14  26  45  68  94 127 167 206 240 275
#     4  10  20  34  51  71 100 134 168 211 256 295
#
# _framework density 16.293849000000002
#
# number of rings (size 3 to 8) (size 9 to 14) (size 15 to 20)
#    0.000    2.500    2.500    2.250    0.000    1.500 
#    0.000    5.000    0.000    0.000    0.000    0.000 
#    0.000    8.000    0.000   22.000    0.000    0.000 
#
# Total GULP energy -356677.811805 kJ/mol
# GULP energy per Si atom -5573.090809 kJ/mol
# Density = 1.625676 g / cm^3
# Si number density = 16.293849 Si / 1000 Ang^3
#
#
#
# Elastic Constant Matrix: (Units=GPa)
#
#
# Indices 1 2 3 4 5 6 
#
# 1 101.2260 58.9860 43.2093 0.0000 0.0000 0.0000
# 2 58.9860 101.2260 43.2093 0.0000 0.0000 0.0000
# 3 43.2093 43.2093 49.4161 0.0000 0.0000 0.0000
# 4 0.0000 0.0000 0.0000 3.5550 0.0000 0.0000
# 5 0.0000 0.0000 0.0000 0.0000 3.5550 0.0000
# 6 0.0000 0.0000 0.0000 0.0000 0.0000 16.4257
#
#
#
# Elastic Compliance Matrix: (Units=1/GPa)
#
#
# Indices 1 2 3 4 5 6 
#
# 1 0.017744 -0.005930 -0.010330 0.000000 0.000000 0.000000
# 2 -0.005930 0.017744 -0.010330 0.000000 0.000000 0.000000
# 3 -0.010330 -0.010330 0.038301 0.000000 0.000000 0.000000
# 4 0.000000 0.000000 0.000000 0.281292 0.000000 0.000000
# 5 0.000000 0.000000 0.000000 0.000000 0.281292 0.000000
# 6 0.000000 0.000000 0.000000 0.000000 0.000000 0.060880
#
#
# Mechanical properties :
#
#
# Convention : Reuss Voigt Hill
#
# Bulk Modulus (GPa) = 48.52230 60.29747 54.40989
# Shear Modulus (GPa) = 6.60237 11.80471 9.20354
#
# Velocity S-wave (km/s) = 2.01516 2.69455 2.37923
# Velocity P-wave (km/s) = 5.93790 6.83867 6.40414
#
# Compressibility (1/GPa) = 0.02060908
#
# Stress axis : x y z
#
# Youngs Moduli (GPa) = 56.35721 56.35721 26.10893
#
# Poissons Ratio (x) = 0.33422 0.26970
# Poissons Ratio (y) = 0.33422 0.26970
# Poissons Ratio (z) = 0.58216 0.58216
#
# Static dielectric constant tensor:
#      x y z
#    x 1.561100 0.000000 0.000000 
#    y 0.000000 1.561100 0.000000 
#    z 0.000000 0.000000 1.602080 
# 
# From -- ./inp_files/4390.got.cif
#   From: 2010.05.17/outbox.cif.g08.bks.cpg/sg132_3_cif.got.tgz:4390.got - 2010.05.20 12:30:18.
