data_PCOD9567574
_publ_section_title
;
Structure prediction by ZEFSAII (Michael W. Deem and Ramdas Pophale) SiO2 
 PCOD9567574
Probable space group: P 42/N B C
;
_chemical_formula_sum "Si O2"
_cell_formula_units_Z 128
_cell_length_a 22.961293
_cell_length_b 22.961293
_cell_length_c 13.369124
_cell_angle_alpha 90.000000
_cell_angle_beta 90.000000
_cell_angle_gamma 90.000000
_cell_volume 7048.482607
_symmetry_space_group_name_H-M "P 42/N B C"
_symmetry_group_IT_number 133
_space_group.IT_coordinate_system_code '2'
_symmetry_cell_setting 'tetragonal'
loop_
_space_group_symop_operation_xyz
x,y,z
1/2-y,x,1/2+z
1/2-x,1/2-y,z
y,1/2-x,1/2+z
x,1/2-y,-z
1/2-x,y,-z
y,x,1/2-z
1/2-y,1/2-x,1/2-z
-x,-y,-z
1/2+y,-x,1/2-z
1/2+x,1/2+y,-z
-y,1/2+x,1/2-z
-x,1/2+y,z
1/2+x,-y,z
-y,-x,1/2+z
1/2+y,1/2+x,1/2+z
loop_
_atom_site_type_symbol
_atom_site_label
_atom_site_fract_x
_atom_site_fract_y
_atom_site_fract_z
Si Si1 0.805602 0.928490 0.066668
Si Si2 0.998729 0.696370 0.767078
Si Si3 0.014195 0.002083 0.863807
Si Si4 0.395451 0.061105 0.656426
Si Si5 0.680662 0.047319 0.273487
Si Si6 0.453614 0.684516 0.538191
Si Si7 0.881506 0.086214 0.135439
Si Si8 0.119438 0.068774 0.568841
O O1 0.785901 0.957370 0.172159
O O2 0.863102 0.891624 0.095299
O O3 0.750000 0.906059 0.000000
O O4 0.831188 0.980816 0.997339
O O5 0.962315 0.663837 0.854065
O O6 0.030441 0.754375 0.805336
O O7 0.047813 0.655532 0.714857
O O8 0.022295 0.022295 0.750000
O O9 0.028769 0.060404 0.924240
O O10 0.062680 0.954200 0.886018
O O11 0.954800 0.964320 0.863008
O O12 0.394493 0.105508 0.750000
O O13 0.366853 0.073227 0.549288
O O14 0.361300 0.005758 0.698264
O O15 0.680003 0.054756 0.154607
O O16 0.648759 0.101884 0.322803
O O17 0.448014 0.750000 0.500000
O O18 0.409468 0.648724 0.471216
#
# Coordination Sequence:
#
# PCOD9567574 Si02
#       8
#    16  16  16  16  16  16  16  16
#     4  10  18  33  59  87 113 159 204 240 285 362
#     4  11  21  36  59  88 121 158 200 254 311 351
#     4  10  17  32  49  81 119 151 191 229 295 369
#     4  10  24  33  49  81 120 165 185 229 310 368
#     4  11  22  38  55  86 124 150 203 247 290 376
#     4  10  17  34  60  81 110 156 203 242 281 353
#     4  10  20  32  57  89 113 156 196 239 306 354
#     4  12  20  34  56  83 127 153 195 251 300 366
#
# _framework density 18.159938
#
# number of rings (size 3 to 8) (size 9 to 14) (size 15 to 20)
#    0.000    1.500    7.500    1.500    0.000    2.500 
#    0.000    0.000    0.000    0.375    0.000    2.625 
#    0.000    0.000    0.000    0.000    0.000    0.000 
#
# Total GULP energy -712630.794073 kJ/mol
# GULP energy per Si atom -5567.428079 kJ/mol
# Density = 1.811861 g / cm^3
# Si number density = 18.159938 Si / 1000 Ang^3
#
#
#
# Elastic Constant Matrix: (Units=GPa)
#
#
# Indices 1 2 3 4 5 6 
#
# 1 69.6121 31.3861 30.0869 0.0000 0.0000 0.0000
# 2 31.3861 69.6111 30.0869 0.0000 0.0000 0.0000
# 3 30.0869 30.0869 112.3076 0.0000 0.0000 0.0000
# 4 0.0000 0.0000 0.0000 21.9985 0.0000 0.0000
# 5 0.0000 0.0000 0.0000 0.0000 21.9986 0.0000
# 6 0.0000 0.0000 0.0000 0.0000 0.0000 16.1761
#
#
#
# Elastic Compliance Matrix: (Units=1/GPa)
#
#
# Indices 1 2 3 4 5 6 
#
# 1 0.018971 -0.007189 -0.003156 0.000000 0.000000 0.000000
# 2 -0.007189 0.018971 -0.003156 0.000000 0.000000 0.000000
# 3 -0.003156 -0.003156 0.010595 0.000000 0.000000 0.000000
# 4 0.000000 0.000000 0.000000 0.045458 0.000000 0.000000
# 5 0.000000 0.000000 0.000000 0.000000 0.045457 0.000000
# 6 0.000000 0.000000 0.000000 0.000000 0.000000 0.061820
#
#
# Mechanical properties :
#
#
# Convention : Reuss Voigt Hill
#
# Bulk Modulus (GPa) = 46.43925 48.29450 47.36688
# Shear Modulus (GPa) = 21.23557 22.69937 21.96747
#
# Velocity S-wave (km/s) = 3.42331 3.53933 3.48180
# Velocity P-wave (km/s) = 6.42287 6.58439 6.50413
#
# Compressibility (1/GPa) = 0.02153351
#
# Stress axis : x y z
#
# Youngs Moduli (GPa) = 52.71209 52.71125 94.38199
#
# Poissons Ratio (x) = 0.37896 0.29789
# Poissons Ratio (y) = 0.37897 0.29790
# Poissons Ratio (z) = 0.16637 0.16637
#
# Static dielectric constant tensor:
#      x y z
#    x 1.681090 0.000000 0.000000 
#    y 0.000000 1.681090 0.000000 
#    z 0.000000 0.000000 1.671690 
# 
# From -- ./inp_files/3510.got.cif
#   From: 2010.05.17/outbox.cif.g08.bks.cpg/sg133_2_cif.got.tgz:3510.got - 2010.05.20 12:37:36.
