data_PCOD9567513
_publ_section_title
;
Structure prediction by ZEFSAII (Michael W. Deem and Ramdas Pophale) SiO2 
 PCOD9567513
Probable space group: P 42/M C M
;
_chemical_formula_sum "Si O2"
_cell_formula_units_Z 96
_cell_length_a 24.795999
_cell_length_b 24.795999
_cell_length_c 8.614006
_cell_angle_alpha 90.000000
_cell_angle_beta 90.000000
_cell_angle_gamma 90.000000
_cell_volume 5296.248942
_symmetry_space_group_name_H-M "P 42/M C M"
_symmetry_group_IT_number 132
_symmetry_cell_setting 'tetragonal'
loop_
_space_group_symop_operation_xyz
x,y,z
-y,x,1/2+z
-x,-y,z
y,-x,1/2+z
x,-y,1/2-z
-x,y,1/2-z
y,x,-z
-y,-x,-z
-x,-y,-z
y,-x,1/2-z
x,y,-z
-y,x,1/2-z
-x,y,1/2+z
x,-y,1/2+z
-y,-x,z
y,x,z
loop_
_atom_site_type_symbol
_atom_site_label
_atom_site_fract_x
_atom_site_fract_y
_atom_site_fract_z
Si Si1 0.236067 0.148154 0.312484
Si Si2 0.557588 0.356007 0.687411
Si Si3 0.856771 0.642960 0.813529
Si Si4 0.442128 0.767608 0.313190
Si Si5 0.147687 0.060422 0.687282
Si Si6 0.557302 0.939462 0.685460
O O1 0.239440 0.148062 0.500000
O O2 0.201034 0.201034 0.267214
O O3 0.295818 0.146123 0.244411
O O4 0.199702 0.096336 0.266375
O O5 0.500000 0.374775 0.750000
O O6 0.556388 0.356325 0.500000
O O7 0.605274 0.394727 0.740209
O O8 0.565417 0.294191 0.738484
O O9 0.804445 0.607909 0.765846
O O10 0.905803 0.608299 0.744242
O O11 0.860528 0.642801 0.000000
O O12 0.500000 0.786444 0.250000
O O13 0.444926 0.768577 0.500000
O O14 0.147433 0.058600 0.500000
O O15 0.095030 0.095030 0.736116
O O16 0.148495 0.000000 0.750000
O O17 0.500000 0.917639 0.750000
O O18 0.555089 0.939815 0.500000
O O19 0.561799 0.000000 0.750000
#
# Coordination Sequence:
#
# PCOD9567513 Si02
#       6
#    16  16  16  16  16  16
#     4   9  20  39  57  75 106 146 184 225 274 321
#     4   9  18  33  51  71  98 131 166 207 256 308
#     4  11  22  35  55  83 109 139 181 223 269 327
#     4   9  19  34  52  74 101 133 170 213 261 313
#     4   9  19  36  57  81 110 143 177 215 260 309
#     4  11  22  38  58  81 112 146 181 223 271 321
#
# _framework density 18.126035000000002
#
# number of rings (size 3 to 8) (size 9 to 14) (size 15 to 20)
#    0.000    2.333    0.000    4.000    0.000    6.000 
#    0.000    6.667    0.000    0.000    0.000    0.000 
#    0.000    0.000    0.000    0.000    0.000    0.000 
#
# Total GULP energy -535704.504027 kJ/mol
# GULP energy per Si atom -5580.255250 kJ/mol
# Density = 1.808478 g / cm^3
# Si number density = 18.126035 Si / 1000 Ang^3
#
#
#
# Elastic Constant Matrix: (Units=GPa)
#
#
# Indices 1 2 3 4 5 6 
#
# 1 169.1540 102.0573 44.4183 0.0000 0.0000 0.0000
# 2 102.0573 169.1540 44.4183 0.0000 0.0000 0.0000
# 3 44.4183 44.4183 47.4394 0.0000 0.0000 0.0000
# 4 0.0000 0.0000 0.0000 27.3732 0.0000 0.0000
# 5 0.0000 0.0000 0.0000 0.0000 27.3732 0.0000
# 6 0.0000 0.0000 0.0000 0.0000 0.0000 14.8510
#
#
#
# Elastic Compliance Matrix: (Units=1/GPa)
#
#
# Indices 1 2 3 4 5 6 
#
# 1 0.010111 -0.004793 -0.004980 0.000000 0.000000 0.000000
# 2 -0.004793 0.010111 -0.004980 0.000000 0.000000 0.000000
# 3 -0.004980 -0.004980 0.030404 0.000000 0.000000 0.000000
# 4 0.000000 0.000000 0.000000 0.036532 0.000000 0.000000
# 5 0.000000 0.000000 0.000000 0.000000 0.036532 0.000000
# 6 0.000000 0.000000 0.000000 0.000000 0.000000 0.067336
#
#
# Mechanical properties :
#
#
# Convention : Reuss Voigt Hill
#
# Bulk Modulus (GPa) = 47.34252 85.28168 66.31210
# Shear Modulus (GPa) = 21.97116 26.90971 24.44043
#
# Velocity S-wave (km/s) = 3.48535 3.85722 3.67599
# Velocity P-wave (km/s) = 6.50938 8.18467 7.39463
#
# Compressibility (1/GPa) = 0.02112266
#
# Stress axis : x y z
#
# Youngs Moduli (GPa) = 98.90164 98.90164 32.88995
#
# Poissons Ratio (x) = 0.47402 0.16378
# Poissons Ratio (y) = 0.47402 0.16378
# Poissons Ratio (z) = 0.49249 0.49249
#
# Static dielectric constant tensor:
#      x y z
#    x 1.611930 0.000000 0.000000 
#    y 0.000000 1.611930 0.000000 
#    z 0.000000 0.000000 1.616380 
# 
# From -- ./inp_files/1717.got.cif
#   From: 2010.05.17/outbox.cif.g08.bks.cpg/sg132_1_cif.got.tgz:1717.got - 2010.05.20 12:30:18.
