data_PCOD9567440
_publ_section_title
;
Structure prediction by ZEFSAII (Michael W. Deem and Ramdas Pophale) SiO2 
 PCOD9567440
Probable space group: P 42/M C M
;
_chemical_formula_sum "Si O2"
_cell_formula_units_Z 58
_cell_length_a 13.142491
_cell_length_b 13.142491
_cell_length_c 19.389835
_cell_angle_alpha 90.000000
_cell_angle_beta 90.000000
_cell_angle_gamma 90.000000
_cell_volume 3349.110602
_symmetry_space_group_name_H-M "P 42/M C M"
_symmetry_group_IT_number 132
_symmetry_cell_setting 'tetragonal'
loop_
_space_group_symop_operation_xyz
x,y,z
-y,x,1/2+z
-x,-y,z
y,-x,1/2+z
x,-y,1/2-z
-x,y,1/2-z
y,x,-z
-y,-x,-z
-x,-y,-z
y,-x,1/2-z
x,y,-z
-y,x,1/2-z
-x,y,1/2+z
x,-y,1/2+z
-y,-x,z
y,x,z
loop_
_atom_site_type_symbol
_atom_site_label
_atom_site_fract_x
_atom_site_fract_y
_atom_site_fract_z
Si Si1 0.981918 0.719053 0.078251
Si Si2 0.000000 0.500000 0.137783
Si Si3 0.000000 0.000000 0.750000
Si Si4 0.153755 0.846246 0.320242
Si Si5 0.212667 0.212667 0.579424
Si Si6 0.819781 0.500000 0.250000
Si Si7 0.286943 0.286943 0.720722
O O1 0.904241 0.764307 0.133195
O O2 0.995915 0.600278 0.092119
O O3 0.093004 0.767656 0.088393
O O4 0.948582 0.739352 0.000000
O O5 0.101205 0.500206 0.185643
O O6 0.072032 0.072032 0.794866
O O7 0.208282 0.791719 0.256441
O O8 0.239827 0.239827 0.500000
O O9 0.273163 0.273163 0.638429
O O10 0.749943 0.399092 0.244010
#
# Coordination Sequence:
#
# PCOD9567440 Si02
#       7
#    16   8   2   8   8   8   8
#     4  11  22  38  59  87 125 163 200 242 294 362
#     4  11  21  38  60  96 115 151 208 246 298 356
#     4  12  28  32  58  88 124 172 200 258 284 368
#     4  12  23  38  55  90 123 163 204 241 303 350
#     4  10  22  37  59  87 121 163 196 235 296 359
#     4  11  24  37  66  90 118 151 204 259 298 362
#     4  12  22  42  64  86 120 155 198 263 302 351
#
# _framework density 17.31803
#
# number of rings (size 3 to 8) (size 9 to 14) (size 15 to 20)
#    0.000    0.828    5.517    3.310    0.000    0.276 
#    0.000    2.759    0.000    0.000    0.000    0.966 
#    0.000    0.000    0.000    0.000    0.000    0.000 
#
# Total GULP energy -323997.642687 kJ/mol
# GULP energy per Si atom -5586.166253 kJ/mol
# Density = 1.727861 g / cm^3
# Si number density = 17.318030 Si / 1000 Ang^3
#
#
#
# Elastic Constant Matrix: (Units=GPa)
#
#
# Indices 1 2 3 4 5 6 
#
# 1 97.4382 55.3825 27.5156 0.0000 0.0000 0.0000
# 2 55.3825 97.4382 27.5156 0.0000 0.0000 0.0000
# 3 27.5156 27.5156 71.5072 0.0000 0.0000 0.0000
# 4 0.0000 0.0000 0.0000 9.1894 0.0000 0.0000
# 5 0.0000 0.0000 0.0000 0.0000 9.1894 0.0000
# 6 0.0000 0.0000 0.0000 0.0000 0.0000 20.1051
#
#
#
# Elastic Compliance Matrix: (Units=1/GPa)
#
#
# Indices 1 2 3 4 5 6 
#
# 1 0.015687 -0.008091 -0.002923 0.000000 0.000000 0.000000
# 2 -0.008091 0.015687 -0.002923 0.000000 0.000000 0.000000
# 3 -0.002923 -0.002923 0.016234 0.000000 0.000000 0.000000
# 4 0.000000 0.000000 0.000000 0.108821 0.000000 0.000000
# 5 0.000000 0.000000 0.000000 0.000000 0.108821 0.000000
# 6 0.000000 0.000000 0.000000 0.000000 0.000000 0.049739
#
#
# Mechanical properties :
#
#
# Convention : Reuss Voigt Hill
#
# Bulk Modulus (GPa) = 50.67250 54.13456 52.40353
# Shear Modulus (GPa) = 14.30861 18.09479 16.20170
#
# Velocity S-wave (km/s) = 2.87753 3.23592 3.06198
# Velocity P-wave (km/s) = 6.35325 6.72968 6.54417
#
# Compressibility (1/GPa) = 0.01973457
#
# Stress axis : x y z
#
# Youngs Moduli (GPa) = 63.74665 63.74665 61.59877
#
# Poissons Ratio (x) = 0.51577 0.18005
# Poissons Ratio (y) = 0.51577 0.18005
# Poissons Ratio (z) = 0.18633 0.18633
#
# Static dielectric constant tensor:
#      x y z
#    x 1.565140 0.000000 0.000000 
#    y 0.000000 1.565140 0.000000 
#    z 0.000000 0.000000 1.586120 
# 
# From -- ./inp_files/7507.got.cif
#   From: 2010.05.17/outbox.cif.g08.bks.cpg/sg132_4_cif.got.tgz:7507.got - 2010.05.20 12:30:18.
