data_PCOD9567515
_publ_section_title
;
Structure prediction by ZEFSAII (Michael W. Deem and Ramdas Pophale) SiO2 
 PCOD9567515
Probable space group: P 42/M C M
;
_chemical_formula_sum "Si O2"
_cell_formula_units_Z 96
_cell_length_a 23.893099
_cell_length_b 23.893099
_cell_length_c 8.521059
_cell_angle_alpha 90.000000
_cell_angle_beta 90.000000
_cell_angle_gamma 90.000000
_cell_volume 4864.503694
_symmetry_space_group_name_H-M "P 42/M C M"
_symmetry_group_IT_number 132
_symmetry_cell_setting 'tetragonal'
loop_
_space_group_symop_operation_xyz
x,y,z
-y,x,1/2+z
-x,-y,z
y,-x,1/2+z
x,-y,1/2-z
-x,y,1/2-z
y,x,-z
-y,-x,-z
-x,-y,-z
y,-x,1/2-z
x,y,-z
-y,x,1/2-z
-x,y,1/2+z
x,-y,1/2+z
-y,-x,z
y,x,z
loop_
_atom_site_type_symbol
_atom_site_label
_atom_site_fract_x
_atom_site_fract_y
_atom_site_fract_z
Si Si1 0.394516 0.063466 0.685992
Si Si2 0.847314 0.063279 0.689289
Si Si3 0.063429 0.724689 0.311504
Si Si4 0.439894 0.825752 0.312334
Si Si5 0.440154 0.643705 0.686105
Si Si6 0.739378 0.347993 0.688226
O O1 0.401547 0.062371 0.500000
O O2 0.331630 0.083696 0.730709
O O3 0.434104 0.109560 0.763109
O O4 0.401339 0.000000 0.750000
O O5 0.849394 0.060797 0.500000
O O6 0.896431 0.103570 0.746559
O O7 0.785646 0.087703 0.728697
O O8 0.853134 0.000000 0.750000
O O9 0.064739 0.717159 0.500000
O O10 0.000000 0.729336 0.250000
O O11 0.500000 0.804122 0.250000
O O12 0.440655 0.820445 0.500000
O O13 0.383413 0.793345 0.253969
O O14 0.500000 0.658041 0.750000
O O15 0.445242 0.638180 0.500000
O O16 0.413642 0.586359 0.751425
O O17 0.394528 0.691500 0.713074
O O18 0.747368 0.339887 0.500000
O O19 0.710707 0.289294 0.746364
#
# Coordination Sequence:
#
# PCOD9567515 Si02
#       6
#    16  16  16  16  16  16
#     4  11  22  38  59  83 112 144 181 224 275 334
#     4   9  18  31  47  70 101 138 182 232 286 347
#     4   9  16  30  52  74  97 129 171 217 266 320
#     4  11  22  37  59  87 118 151 188 228 275 328
#     4   9  17  29  45  66  93 126 165 208 253 300
#     4   8  16  33  56  79 104 138 180 223 264 310
#
# _framework density 19.734798999999999
#
# number of rings (size 3 to 8) (size 9 to 14) (size 15 to 20)
#    0.000    2.500    0.000    5.000    0.000    2.000 
#    0.000    5.000    0.000    9.000    0.000    0.000 
#    0.000    0.000    0.000    0.000    0.000    0.000 
#
# Total GULP energy -534450.976490 kJ/mol
# GULP energy per Si atom -5567.197672 kJ/mol
# Density = 1.968988 g / cm^3
# Si number density = 19.734799 Si / 1000 Ang^3
#
#
#
# Elastic Constant Matrix: (Units=GPa)
#
#
# Indices 1 2 3 4 5 6 
#
# 1 78.8833 27.8960 12.7859 0.0000 0.0000 0.0000
# 2 27.8960 78.8833 12.7859 0.0000 0.0000 0.0000
# 3 12.7859 12.7859 38.2147 0.0000 0.0000 0.0000
# 4 0.0000 0.0000 0.0000 18.2672 0.0000 0.0000
# 5 0.0000 0.0000 0.0000 0.0000 18.2672 0.0000
# 6 0.0000 0.0000 0.0000 0.0000 0.0000 40.6931
#
#
#
# Elastic Compliance Matrix: (Units=1/GPa)
#
#
# Indices 1 2 3 4 5 6 
#
# 1 0.014897 -0.004716 -0.003406 0.000000 0.000000 0.000000
# 2 -0.004716 0.014897 -0.003406 0.000000 0.000000 0.000000
# 3 -0.003406 -0.003406 0.028447 0.000000 0.000000 0.000000
# 4 0.000000 0.000000 0.000000 0.054743 0.000000 0.000000
# 5 0.000000 0.000000 0.000000 0.000000 0.054743 0.000000
# 6 0.000000 0.000000 0.000000 0.000000 0.000000 0.024574
#
#
# Mechanical properties :
#
#
# Convention : Reuss Voigt Hill
#
# Bulk Modulus (GPa) = 28.42217 33.65740 31.03978
# Shear Modulus (GPa) = 22.01807 24.94638 23.48223
#
# Velocity S-wave (km/s) = 3.34383 3.55925 3.45322
# Velocity P-wave (km/s) = 5.41679 5.82948 5.62692
#
# Compressibility (1/GPa) = 0.03518381
#
# Stress axis : x y z
#
# Youngs Moduli (GPa) = 67.12850 67.12850 35.15267
#
# Poissons Ratio (x) = 0.31657 0.11974
# Poissons Ratio (y) = 0.31657 0.11974
# Poissons Ratio (z) = 0.22866 0.22866
#
# Static dielectric constant tensor:
#      x y z
#    x 1.733610 0.000000 0.000000 
#    y 0.000000 1.733610 0.000000 
#    z 0.000000 0.000000 1.589100 
# 
# From -- ./inp_files/1725.got.cif
#   From: 2010.05.17/outbox.cif.g08.bks.cpg/sg132_1_cif.got.tgz:1725.got - 2010.05.20 12:30:18.
