data_PCOD9567591
_publ_section_title
;
Structure prediction by ZEFSAII (Michael W. Deem and Ramdas Pophale) SiO2 
 PCOD9567591
Probable space group: P 42/N B C
;
_chemical_formula_sum "Si O2"
_cell_formula_units_Z 96
_cell_length_a 15.500678
_cell_length_b 15.500678
_cell_length_c 22.329550
_cell_angle_alpha 90.000000
_cell_angle_beta 90.000000
_cell_angle_gamma 90.000000
_cell_volume 5365.143720
_symmetry_space_group_name_H-M "P 42/N B C"
_symmetry_group_IT_number 133
_space_group.IT_coordinate_system_code '2'
_symmetry_cell_setting 'tetragonal'
loop_
_space_group_symop_operation_xyz
x,y,z
1/2-y,x,1/2+z
1/2-x,1/2-y,z
y,1/2-x,1/2+z
x,1/2-y,-z
1/2-x,y,-z
y,x,1/2-z
1/2-y,1/2-x,1/2-z
-x,-y,-z
1/2+y,-x,1/2-z
1/2+x,1/2+y,-z
-y,1/2+x,1/2-z
-x,1/2+y,z
1/2+x,-y,z
-y,-x,1/2+z
1/2+y,1/2+x,1/2+z
loop_
_atom_site_type_symbol
_atom_site_label
_atom_site_fract_x
_atom_site_fract_y
_atom_site_fract_z
Si Si1 0.941199 0.825724 0.540986
Si Si2 0.931412 0.070055 0.376726
Si Si3 0.660819 0.360970 0.257196
Si Si4 0.602958 0.974770 0.810463
Si Si5 0.168528 0.450410 0.459097
Si Si6 0.167090 0.292191 0.375150
O O1 0.982499 0.750000 0.500000
O O2 0.904190 0.901451 0.498725
O O3 0.863577 0.775609 0.574465
O O4 0.002563 0.866146 0.590970
O O5 0.884191 0.112958 0.319891
O O6 0.975276 0.980835 0.353301
O O7 0.865819 0.035366 0.426886
O O8 0.764336 0.364278 0.261497
O O9 0.632001 0.430373 0.207830
O O10 0.572147 0.927854 0.750000
O O11 0.679575 0.916308 0.837294
O O12 0.250000 0.467782 0.500000
O O13 0.193049 0.380923 0.407975
O O14 0.250000 0.250000 0.343501
#
# Coordination Sequence:
#
# PCOD9567591 Si02
#       6
#    16  16  16  16  16  16
#     4  10  20  33  56  81 114 148 187 225 275 344
#     4  10  21  37  55  83 112 146 187 235 285 334
#     4  10  21  40  62  79 106 151 196 238 289 342
#     4   9  20  37  55  80 116 142 185 245 286 338
#     4  10  19  33  53  80 114 148 180 218 277 337
#     4  10  18  32  56  81 110 150 181 221 280 343
#
# _framework density 17.893276
#
# number of rings (size 3 to 8) (size 9 to 14) (size 15 to 20)
#    0.000    2.167    1.667    1.500    0.000    1.667 
#    3.000    3.333    0.000    0.000    0.000    0.000 
#    0.000    0.000    0.000    0.000    0.000    0.000 
#
# Total GULP energy -535267.991195 kJ/mol
# GULP energy per Si atom -5575.708242 kJ/mol
# Density = 1.785255 g / cm^3
# Si number density = 17.893276 Si / 1000 Ang^3
#
#
#
# Elastic Constant Matrix: (Units=GPa)
#
#
# Indices 1 2 3 4 5 6 
#
# 1 71.0357 37.6497 25.0268 0.0000 0.0000 0.0000
# 2 37.6497 71.0361 25.0266 0.0000 0.0000 0.0000
# 3 25.0268 25.0266 59.1265 0.0000 0.0000 0.0000
# 4 0.0000 0.0000 0.0000 26.7145 0.0000 0.0000
# 5 0.0000 0.0000 0.0000 0.0000 26.7156 0.0000
# 6 0.0000 0.0000 0.0000 0.0000 0.0000 17.1679
#
#
#
# Elastic Compliance Matrix: (Units=1/GPa)
#
#
# Indices 1 2 3 4 5 6 
#
# 1 0.020691 -0.009262 -0.004838 0.000000 0.000000 0.000000
# 2 -0.009262 0.020691 -0.004837 0.000000 0.000000 0.000000
# 3 -0.004838 -0.004837 0.021008 0.000000 0.000000 0.000000
# 4 0.000000 0.000000 0.000000 0.037433 0.000000 0.000000
# 5 0.000000 0.000000 0.000000 0.000000 0.037431 0.000000
# 6 0.000000 0.000000 0.000000 0.000000 0.000000 0.058248
#
#
# Mechanical properties :
#
#
# Convention : Reuss Voigt Hill
#
# Bulk Modulus (GPa) = 40.79045 41.84494 41.31769
# Shear Modulus (GPa) = 20.69988 21.68593 21.19291
#
# Velocity S-wave (km/s) = 3.40494 3.48510 3.44525
# Velocity P-wave (km/s) = 6.18904 6.29533 6.24241
#
# Compressibility (1/GPa) = 0.02451554
#
# Stress axis : x y z
#
# Youngs Moduli (GPa) = 48.33100 48.33134 47.60085
#
# Poissons Ratio (x) = 0.44764 0.23027
# Poissons Ratio (y) = 0.44764 0.23026
# Poissons Ratio (z) = 0.23380 0.23380
#
# Static dielectric constant tensor:
#      x y z
#    x 1.608930 0.000000 0.000000 
#    y 0.000000 1.608940 0.000000 
#    z 0.000000 0.000000 1.623360 
# 
# From -- ./inp_files/6523.got.cif
#   From: 2010.05.17/outbox.cif.g08.bks.cpg/sg133_4_cif.got.tgz:6523.got - 2010.05.20 12:37:36.
