data_PCOD9567951
_publ_section_title
;
Structure prediction by ZEFSAII (Michael W. Deem and Ramdas Pophale) SiO2 
 PCOD9567951
Probable space group: P 42/N B C
;
_chemical_formula_sum "Si O2"
_cell_formula_units_Z 52
_cell_length_a 12.703497
_cell_length_b 12.703497
_cell_length_c 13.476997
_cell_angle_alpha 90.000000
_cell_angle_beta 90.000000
_cell_angle_gamma 90.000000
_cell_volume 2174.902089
_symmetry_space_group_name_H-M "P 42/N B C"
_symmetry_group_IT_number 133
_space_group.IT_coordinate_system_code '2'
_symmetry_cell_setting 'tetragonal'
loop_
_space_group_symop_operation_xyz
x,y,z
1/2-y,x,1/2+z
1/2-x,1/2-y,z
y,1/2-x,1/2+z
x,1/2-y,-z
1/2-x,y,-z
y,x,1/2-z
1/2-y,1/2-x,1/2-z
-x,-y,-z
1/2+y,-x,1/2-z
1/2+x,1/2+y,-z
-y,1/2+x,1/2-z
-x,1/2+y,z
1/2+x,-y,z
-y,-x,1/2+z
1/2+y,1/2+x,1/2+z
loop_
_atom_site_type_symbol
_atom_site_label
_atom_site_fract_x
_atom_site_fract_y
_atom_site_fract_z
Si Si1 0.152098 0.174652 0.629736
Si Si2 0.750000 0.250000 0.000000
Si Si3 0.173742 0.485908 0.789804
Si Si4 0.943416 0.332235 0.124564
O O1 0.250000 0.250000 0.605807
O O2 0.152607 0.152607 0.750000
O O3 0.047438 0.245126 0.623518
O O4 0.157674 0.060806 0.577923
O O5 0.835831 0.186285 0.935501
O O6 0.237270 0.544407 0.702904
O O7 0.078889 0.557801 0.823659
O O8 0.121257 0.378744 0.750000
#
# Coordination Sequence:
#
# PCOD9567951 Si02
#       4
#    16   4  16  16
#     4   9  16  36  64  95 124 151 214 293 346 389
#     4  12  28  46  54  92 158 194 224 258 344 452
#     4  11  19  38  72 102 121 162 235 301 352 391
#     4  11  23  39  63  92 136 181 222 284 337 418
#
# _framework density 23.909123999999998
#
# number of rings (size 3 to 8) (size 9 to 14) (size 15 to 20)
#    0.000    1.538    6.154    4.615    0.000    0.000 
#    0.000    6.923    0.000    0.000    0.000    0.000 
#    0.000    0.000    0.000    0.000    0.000    0.000 
#
# Total GULP energy -290063.023035 kJ/mol
# GULP energy per Si atom -5578.135058 kJ/mol
# Density = 2.385471 g / cm^3
# Si number density = 23.909124 Si / 1000 Ang^3
#
#
#
# Elastic Constant Matrix: (Units=GPa)
#
#
# Indices 1 2 3 4 5 6 
#
# 1 177.8670 66.4875 29.8928 0.0000 0.0000 0.0000
# 2 66.4875 177.8689 29.8931 0.0000 0.0000 0.0000
# 3 29.8928 29.8931 47.8762 0.0000 0.0000 0.0000
# 4 0.0000 0.0000 0.0000 40.2701 0.0000 0.0000
# 5 0.0000 0.0000 0.0000 0.0000 40.2524 0.0000
# 6 0.0000 0.0000 0.0000 0.0000 0.0000 65.5301
#
#
#
# Elastic Compliance Matrix: (Units=1/GPa)
#
#
# Indices 1 2 3 4 5 6 
#
# 1 0.006904 -0.002074 -0.003016 0.000000 0.000000 0.000000
# 2 -0.002074 0.006904 -0.003016 0.000000 0.000000 0.000000
# 3 -0.003016 -0.003016 0.024653 0.000000 0.000000 0.000000
# 4 0.000000 0.000000 0.000000 0.024832 0.000000 0.000000
# 5 0.000000 0.000000 0.000000 0.000000 0.024843 0.000000
# 6 0.000000 0.000000 0.000000 0.000000 0.000000 0.015260
#
#
# Mechanical properties :
#
#
# Convention : Reuss Voigt Hill
#
# Bulk Modulus (GPa) = 44.94340 72.90654 58.92497
# Shear Modulus (GPa) = 39.36199 47.69976 43.53088
#
# Velocity S-wave (km/s) = 4.06188 4.47144 4.27157
# Velocity P-wave (km/s) = 6.39038 7.56424 7.00195
#
# Compressibility (1/GPa) = 0.02225021
#
# Stress axis : x y z
#
# Youngs Moduli (GPa) = 144.83722 144.83867 40.56240
#
# Poissons Ratio (x) = 0.30039 0.12233
# Poissons Ratio (y) = 0.30039 0.12233
# Poissons Ratio (z) = 0.43682 0.43683
#
# Static dielectric constant tensor:
#      x y z
#    x 2.006540 0.000000 0.000000 
#    y 0.000000 2.006530 0.000000 
#    z 0.000000 0.000000 2.092580 
# 
# From -- ./inp_files/6019.got.cif
#   From: 2010.05.17/outbox.cif.g08.bks.cpg/sg133_4_cif.got.tgz:6019.got - 2010.05.20 12:37:36.
