data_PCOD9567537
_publ_section_title
;
Structure prediction by ZEFSAII (Michael W. Deem and Ramdas Pophale) SiO2 
 PCOD9567537
Probable space group: P 42/M C M
;
_chemical_formula_sum "Si O2"
_cell_formula_units_Z 52
_cell_length_a 14.864389
_cell_length_b 14.864389
_cell_length_c 10.778623
_cell_angle_alpha 90.000000
_cell_angle_beta 90.000000
_cell_angle_gamma 90.000000
_cell_volume 2381.537402
_symmetry_space_group_name_H-M "P 42/M C M"
_symmetry_group_IT_number 132
_symmetry_cell_setting 'tetragonal'
loop_
_space_group_symop_operation_xyz
x,y,z
-y,x,1/2+z
-x,-y,z
y,-x,1/2+z
x,-y,1/2-z
-x,y,1/2-z
y,x,-z
-y,-x,-z
-x,-y,-z
y,-x,1/2-z
x,y,-z
-y,x,1/2-z
-x,y,1/2+z
x,-y,1/2+z
-y,-x,z
y,x,z
loop_
_atom_site_type_symbol
_atom_site_label
_atom_site_fract_x
_atom_site_fract_y
_atom_site_fract_z
Si Si1 0.208442 0.208442 0.500000
Si Si2 0.111085 0.500255 0.000000
Si Si3 0.822908 0.822908 0.146095
Si Si4 0.267374 0.000000 0.250000
Si Si5 0.305004 0.305004 0.730056
Si Si6 0.218967 0.500000 0.750000
Si Si7 0.321375 0.055703 0.500000
O O1 0.254490 0.254490 0.617649
O O2 0.225331 0.102588 0.500000
O O3 0.156887 0.472362 0.130192
O O4 0.133413 0.606481 0.000000
O O5 0.000000 0.500000 0.000000
O O6 0.789559 0.912094 0.216662
O O7 0.745962 0.745962 0.156655
O O8 0.840306 0.840306 0.000000
O O9 0.328910 0.006714 0.371245
O O10 0.279716 0.410706 0.726788
#
# Coordination Sequence:
#
# PCOD9567537 Si02
#       7
#     4   8   8   8   8   8   8
#     4  12  20  48  68  94 136 196 230 278 362 438
#     4  12  28  41  70 109 148 186 234 305 367 444
#     4  12  26  43  69 104 144 185 249 301 365 436
#     4  12  24  43  71 102 138 198 238 299 362 435
#     4  12  26  47  75 101 145 188 241 308 362 441
#     4  12  27  49  72 108 144 192 248 300 370 432
#     4  12  24  43  70  98 146 189 237 287 368 438
#
# _framework density 21.834634000000001
#
# number of rings (size 3 to 8) (size 9 to 14) (size 15 to 20)
#    0.000    0.000    7.692    0.462   10.769    0.615 
#    0.000    0.769    0.000    2.769    0.000    0.000 
#    0.000    0.000    0.000    0.000    0.000    0.000 
#
# Total GULP energy -289905.965617 kJ/mol
# GULP energy per Si atom -5575.114723 kJ/mol
# Density = 2.178494 g / cm^3
# Si number density = 21.834634 Si / 1000 Ang^3
#
#
#
# Elastic Constant Matrix: (Units=GPa)
#
#
# Indices 1 2 3 4 5 6 
#
# 1 114.9021 47.2283 37.7763 0.0000 0.0000 0.0000
# 2 47.2283 114.9021 37.7763 0.0000 0.0000 0.0000
# 3 37.7763 37.7763 195.8431 0.0000 0.0000 0.0000
# 4 0.0000 0.0000 0.0000 44.5706 0.0000 0.0000
# 5 0.0000 0.0000 0.0000 0.0000 44.5706 0.0000
# 6 0.0000 0.0000 0.0000 0.0000 0.0000 44.4737
#
#
#
# Elastic Compliance Matrix: (Units=1/GPa)
#
#
# Indices 1 2 3 4 5 6 
#
# 1 0.010777 -0.004000 -0.001307 0.000000 0.000000 0.000000
# 2 -0.004000 0.010777 -0.001307 0.000000 0.000000 0.000000
# 3 -0.001307 -0.001307 0.005610 0.000000 0.000000 0.000000
# 4 0.000000 0.000000 0.000000 0.022436 0.000000 0.000000
# 5 0.000000 0.000000 0.000000 0.000000 0.022436 0.000000
# 6 0.000000 0.000000 0.000000 0.000000 0.000000 0.022485
#
#
# Mechanical properties :
#
#
# Convention : Reuss Voigt Hill
#
# Bulk Modulus (GPa) = 71.75865 74.57879 73.16872
# Shear Modulus (GPa) = 44.48561 46.91407 45.69984
#
# Velocity S-wave (km/s) = 4.51864 4.64034 4.57989
# Velocity P-wave (km/s) = 7.75629 7.93351 7.84540
#
# Compressibility (1/GPa) = 0.01393560
#
# Stress axis : x y z
#
# Youngs Moduli (GPa) = 92.79109 92.79109 178.23933
#
# Poissons Ratio (x) = 0.37115 0.23300
# Poissons Ratio (y) = 0.37115 0.23300
# Poissons Ratio (z) = 0.12130 0.12130
#
# Static dielectric constant tensor:
#      x y z
#    x 1.894250 0.000000 0.000000 
#    y 0.000000 1.894250 0.000000 
#    z 0.000000 0.000000 1.944050 
# 
# From -- ./inp_files/2966.got.cif
#   From: 2010.05.17/outbox.cif.g08.bks.cpg/sg132_2_cif.got.tgz:2966.got - 2010.05.20 12:30:18.
