data_PCOD9567358
_publ_section_title
;
Structure prediction by ZEFSAII (Michael W. Deem and Ramdas Pophale) SiO2 
 PCOD9567358
Probable space group: P 42/M C M
;
_chemical_formula_sum "Si O2"
_cell_formula_units_Z 54
_cell_length_a 17.451698
_cell_length_b 17.451698
_cell_length_c 9.686686
_cell_angle_alpha 90.000000
_cell_angle_beta 90.000000
_cell_angle_gamma 90.000000
_cell_volume 2950.194167
_symmetry_space_group_name_H-M "P 42/M C M"
_symmetry_group_IT_number 132
_symmetry_cell_setting 'tetragonal'
loop_
_space_group_symop_operation_xyz
x,y,z
-y,x,1/2+z
-x,-y,z
y,-x,1/2+z
x,-y,1/2-z
-x,y,1/2-z
y,x,-z
-y,-x,-z
-x,-y,-z
y,-x,1/2-z
x,y,-z
-y,x,1/2-z
-x,y,1/2+z
x,-y,1/2+z
-y,-x,z
y,x,z
loop_
_atom_site_type_symbol
_atom_site_label
_atom_site_fract_x
_atom_site_fract_y
_atom_site_fract_z
Si Si1 0.294166 0.424737 0.337138
Si Si2 0.695826 0.181010 0.276303
Si Si3 0.000000 0.000000 0.750000
Si Si4 0.913493 0.086508 0.500000
Si Si5 0.937819 0.732207 0.000000
Si Si6 0.884553 0.767554 0.500000
O O1 0.313491 0.500000 0.250000
O O2 0.278286 0.439993 0.500000
O O3 0.363536 0.363536 0.333089
O O4 0.222929 0.383003 0.261372
O O5 0.754607 0.245394 0.335574
O O6 0.694638 0.106368 0.371559
O O7 0.732261 0.154135 0.133535
O O8 0.949684 0.050317 0.640959
O O9 0.823022 0.076845 0.500000
O O10 0.029206 0.736234 0.000000
O O11 0.858938 0.858938 0.500000
#
# Coordination Sequence:
#
# PCOD9567358 Si02
#       6
#    16  16   2   4   8   8
#     4  10  22  41  67  97 128 163 196 237 299 365
#     4  10  20  39  58  85 119 159 208 252 300 368
#     4  10  28  42  52  74 132 170 200 270 348 390
#     4  11  26  40  54  82 118 168 213 260 328 388
#     4  12  23  34  57  89 115 155 216 263 312 364
#     4  10  22  36  60  80 115 165 208 266 318 362
#
# _framework density 18.303879999999999
#
# number of rings (size 3 to 8) (size 9 to 14) (size 15 to 20)
#    0.000    1.630    2.963    0.889    8.296    0.889 
#    0.000    1.481    0.000    5.333    0.000    0.000 
#    0.000    0.000    0.000    0.000    0.000    0.000 
#
# Total GULP energy -300902.117766 kJ/mol
# GULP energy per Si atom -5572.261440 kJ/mol
# Density = 1.826222 g / cm^3
# Si number density = 18.303880 Si / 1000 Ang^3
#
#
#
# Elastic Constant Matrix: (Units=GPa)
#
#
# Indices 1 2 3 4 5 6 
#
# 1 78.7076 18.8278 37.4281 0.0000 0.0000 0.0000
# 2 18.8278 78.7088 37.4288 0.0000 0.0000 0.0000
# 3 37.4281 37.4288 124.0751 0.0000 0.0000 0.0000
# 4 0.0000 0.0000 0.0000 28.4234 0.0000 0.0000
# 5 0.0000 0.0000 0.0000 0.0000 28.4231 0.0000
# 6 0.0000 0.0000 0.0000 0.0000 0.0000 11.2596
#
#
#
# Elastic Compliance Matrix: (Units=1/GPa)
#
#
# Indices 1 2 3 4 5 6 
#
# 1 0.015021 -0.001679 -0.004025 0.000000 0.000000 0.000000
# 2 -0.001679 0.015021 -0.004025 0.000000 0.000000 0.000000
# 3 -0.004025 -0.004025 0.010488 0.000000 0.000000 0.000000
# 4 0.000000 0.000000 0.000000 0.035182 0.000000 0.000000
# 5 0.000000 0.000000 0.000000 0.000000 0.035183 0.000000
# 6 0.000000 0.000000 0.000000 0.000000 0.000000 0.088813
#
#
# Mechanical properties :
#
#
# Convention : Reuss Voigt Hill
#
# Bulk Modulus (GPa) = 47.45570 52.09564 49.77567
# Shear Modulus (GPa) = 22.10552 26.14169 24.12361
#
# Velocity S-wave (km/s) = 3.47896 3.78326 3.63430
# Velocity P-wave (km/s) = 6.49003 6.89981 6.69805
#
# Compressibility (1/GPa) = 0.02107228
#
# Stress axis : x y z
#
# Youngs Moduli (GPa) = 66.57459 66.57528 95.34951
#
# Poissons Ratio (x) = 0.11180 0.38374
# Poissons Ratio (y) = 0.11180 0.38374
# Poissons Ratio (z) = 0.26793 0.26794
#
# Static dielectric constant tensor:
#      x y z
#    x 1.664550 0.000000 0.000000 
#    y 0.000000 1.664540 0.000000 
#    z 0.000000 0.000000 1.576800 
# 
# From -- ./inp_files/916.got.cif
#   From: 2010.05.17/outbox.cif.g08.bks.cpg/sg132_1_cif.got.tgz:916.got - 2010.05.20 12:30:18.
