data_PCOD9567617
_publ_section_title
;
Structure prediction by ZEFSAII (Michael W. Deem and Ramdas Pophale) SiO2 
 PCOD9567617
Probable space group: P 42/N B C
;
_chemical_formula_sum "Si O2"
_cell_formula_units_Z 120
_cell_length_a 19.066552
_cell_length_b 19.066552
_cell_length_c 15.338751
_cell_angle_alpha 90.000000
_cell_angle_beta 90.000000
_cell_angle_gamma 90.000000
_cell_volume 5576.148382
_symmetry_space_group_name_H-M "P 42/N B C"
_symmetry_group_IT_number 133
_space_group.IT_coordinate_system_code '2'
_symmetry_cell_setting 'tetragonal'
loop_
_space_group_symop_operation_xyz
x,y,z
1/2-y,x,1/2+z
1/2-x,1/2-y,z
y,1/2-x,1/2+z
x,1/2-y,-z
1/2-x,y,-z
y,x,1/2-z
1/2-y,1/2-x,1/2-z
-x,-y,-z
1/2+y,-x,1/2-z
1/2+x,1/2+y,-z
-y,1/2+x,1/2-z
-x,1/2+y,z
1/2+x,-y,z
-y,-x,1/2+z
1/2+y,1/2+x,1/2+z
loop_
_atom_site_type_symbol
_atom_site_label
_atom_site_fract_x
_atom_site_fract_y
_atom_site_fract_z
Si Si1 0.543868 0.250000 0.500000
Si Si2 0.395902 0.098824 0.858649
Si Si3 0.440946 0.616494 0.719303
Si Si4 0.757548 0.574299 0.855904
Si Si5 0.730346 0.505170 0.691811
Si Si6 0.098012 0.080224 0.938124
Si Si7 0.608689 0.416002 0.083909
Si Si8 0.150688 0.543352 0.419380
O O1 0.488336 0.232160 0.577928
O O2 0.588529 0.188253 0.454499
O O3 0.313950 0.117407 0.843328
O O4 0.446678 0.162580 0.830413
O O5 0.407343 0.019412 0.817625
O O6 0.405048 0.096376 0.960783
O O7 0.447155 0.698081 0.743652
O O8 0.411532 0.590287 0.813793
O O9 0.386330 0.599236 0.643961
O O10 0.778342 0.547777 0.759719
O O11 0.827329 0.604218 0.899549
O O12 0.770436 0.471686 0.611361
O O13 0.030107 0.113558 0.896448
O O14 0.092310 0.997028 0.933003
O O15 0.564285 0.367160 0.018375
#
# Coordination Sequence:
#
# PCOD9567617 Si02
#       8
#     8  16  16  16  16  16  16  16
#     4  10  18  38  66  99 131 170 232 270 330 408
#     4  11  21  42  65  96 137 176 224 286 352 413
#     4  11  24  40  67  92 129 175 224 274 342 407
#     4  10  18  39  63  92 128 179 227 271 323 416
#     4  11  26  40  61  96 138 177 218 288 356 404
#     4  11  22  37  67  97 132 176 227 278 343 411
#     4  11  22  38  68  99 136 175 223 282 346 406
#     4  12  25  41  62  98 139 164 224 282 343 411
#
# _framework density 21.520230000000002
#
# number of rings (size 3 to 8) (size 9 to 14) (size 15 to 20)
#    0.000    1.067    4.000    5.200    3.733    3.733 
#    0.000    0.667    0.000    8.400    0.000    0.000 
#    0.000    0.000    0.000    0.000    0.000    0.000 
#
# Total GULP energy -668150.390638 kJ/mol
# GULP energy per Si atom -5567.919922 kJ/mol
# Density = 2.147125 g / cm^3
# Si number density = 21.520230 Si / 1000 Ang^3
#
#
#
# Elastic Constant Matrix: (Units=GPa)
#
#
# Indices 1 2 3 4 5 6 
#
# 1 67.7693 36.2909 13.6086 0.0000 0.0000 0.0000
# 2 36.2909 67.7693 13.6086 0.0000 0.0000 0.0000
# 3 13.6086 13.6086 85.0880 0.0000 0.0000 0.0000
# 4 0.0000 0.0000 0.0000 27.1972 0.0000 0.0000
# 5 0.0000 0.0000 0.0000 0.0000 27.1972 0.0000
# 6 0.0000 0.0000 0.0000 0.0000 0.0000 0.0861
#
#
#
# Elastic Compliance Matrix: (Units=1/GPa)
#
#
# Indices 1 2 3 4 5 6 
#
# 1 0.020899 -0.010869 -0.001604 0.000000 0.000000 0.000000
# 2 -0.010869 0.020899 -0.001604 0.000000 0.000000 0.000000
# 3 -0.001604 -0.001604 0.012266 0.000000 0.000000 0.000000
# 4 0.000000 0.000000 0.000000 0.036769 0.000000 0.000000
# 5 0.000000 0.000000 0.000000 0.000000 0.036769 0.000000
# 6 0.000000 0.000000 0.000000 0.000000 0.000000 11.611725
#
#
# Mechanical properties :
#
#
# Convention : Reuss Voigt Hill
#
# Bulk Modulus (GPa) = 38.59791 38.62700 38.61245
# Shear Modulus (GPa) = 0.42459 21.37065 10.89762
#
# Velocity S-wave (km/s) = 0.44466 3.15469 2.25275
# Velocity P-wave (km/s) = 4.27062 5.59084 4.97472
#
# Compressibility (1/GPa) = 0.02590814
#
# Stress axis : x y z
#
# Youngs Moduli (GPa) = 47.85005 47.85005 81.52861
#
# Poissons Ratio (x) = 0.52009 0.13078
# Poissons Ratio (y) = 0.52009 0.13078
# Poissons Ratio (z) = 0.07675 0.07675
#
# Static dielectric constant tensor:
#      x y z
#    x 1.854720 0.000000 0.000000 
#    y 0.000000 1.854720 0.000000 
#    z 0.000000 0.000000 1.896290 
# 
# From -- ./inp_files/4685.got.cif
#   From: 2010.05.17/outbox.cif.g08.bks.cpg/sg133_3_cif.got.tgz:4685.got - 2010.05.20 12:37:36.
