data_PCOD9567327
_publ_section_title
;
Structure prediction by ZEFSAII (Michael W. Deem and Ramdas Pophale) SiO2 
 PCOD9567327
Probable space group: P 42/M C M
;
_chemical_formula_sum "Si O2"
_cell_formula_units_Z 80
_cell_length_a 13.802799
_cell_length_b 13.802799
_cell_length_c 21.814201
_cell_angle_alpha 90.000000
_cell_angle_beta 90.000000
_cell_angle_gamma 90.000000
_cell_volume 4155.981809
_symmetry_space_group_name_H-M "P 42/M C M"
_symmetry_group_IT_number 132
_symmetry_cell_setting 'tetragonal'
loop_
_space_group_symop_operation_xyz
x,y,z
-y,x,1/2+z
-x,-y,z
y,-x,1/2+z
x,-y,1/2-z
-x,y,1/2-z
y,x,-z
-y,-x,-z
-x,-y,-z
y,-x,1/2-z
x,y,-z
-y,x,1/2-z
-x,y,1/2+z
x,-y,1/2+z
-y,-x,z
y,x,z
loop_
_atom_site_type_symbol
_atom_site_label
_atom_site_fract_x
_atom_site_fract_y
_atom_site_fract_z
Si Si1 0.600785 0.043541 0.568530
Si Si2 0.144253 0.294754 0.593654
Si Si3 0.301331 0.540930 0.069794
Si Si4 0.782262 0.379431 0.344354
Si Si5 0.883560 0.721830 0.738579
O O1 0.577485 0.076730 0.500000
O O2 0.636554 0.131049 0.608464
O O3 0.500000 0.000000 0.594624
O O4 0.679503 0.959558 0.567722
O O5 0.192491 0.192491 0.577540
O O6 0.218183 0.377037 0.571204
O O7 0.134090 0.299444 0.667155
O O8 0.402515 0.597485 0.078958
O O9 0.273131 0.471897 0.126523
O O10 0.302763 0.498282 0.000000
O O11 0.704544 0.295457 0.346254
O O12 0.835425 0.365305 0.278630
O O13 0.820500 0.820500 0.752569
O O14 0.000000 0.730641 0.750000
#
# Coordination Sequence:
#
# PCOD9567327 Si02
#       5
#    16  16  16  16  16
#     4  11  21  35  57  86 116 151 194 242 296 349
#     4  10  20  36  58  84 113 148 197 246 290 348
#     4  10  21  38  59  84 119 163 202 236 286 353
#     4  11  23  38  57  87 122 153 194 247 297 347
#     4  10  21  38  59  84 114 152 196 244 299 353
#
# _framework density 19.249362999999999
#
# number of rings (size 3 to 8) (size 9 to 14) (size 15 to 20)
#    0.000    1.600    4.000    1.200    0.000    4.200 
#    0.000    3.000    0.000    0.600    0.000    7.000 
#    0.000    0.000    0.000    0.000    0.000    0.000 
#
# Total GULP energy -445862.920823 kJ/mol
# GULP energy per Si atom -5573.286510 kJ/mol
# Density = 1.920555 g / cm^3
# Si number density = 19.249363 Si / 1000 Ang^3
#
#
#
# Elastic Constant Matrix: (Units=GPa)
#
#
# Indices 1 2 3 4 5 6 
#
# 1 72.8457 23.6156 25.2685 0.0000 0.0000 0.0000
# 2 23.6156 72.8457 25.2685 0.0000 0.0000 0.0000
# 3 25.2685 25.2685 90.7642 0.0000 0.0000 0.0000
# 4 0.0000 0.0000 0.0000 24.4294 0.0000 0.0000
# 5 0.0000 0.0000 0.0000 0.0000 24.4294 0.0000
# 6 0.0000 0.0000 0.0000 0.0000 0.0000 18.9335
#
#
#
# Elastic Compliance Matrix: (Units=1/GPa)
#
#
# Indices 1 2 3 4 5 6 
#
# 1 0.016225 -0.004088 -0.003379 0.000000 0.000000 0.000000
# 2 -0.004088 0.016225 -0.003379 0.000000 0.000000 0.000000
# 3 -0.003379 -0.003379 0.012899 0.000000 0.000000 0.000000
# 4 0.000000 0.000000 0.000000 0.040934 0.000000 0.000000
# 5 0.000000 0.000000 0.000000 0.000000 0.040934 0.000000
# 6 0.000000 0.000000 0.000000 0.000000 0.000000 0.052816
#
#
# Mechanical properties :
#
#
# Convention : Reuss Voigt Hill
#
# Bulk Modulus (GPa) = 42.27007 42.75120 42.51063
# Shear Modulus (GPa) = 23.85370 24.37866 24.11618
#
# Velocity S-wave (km/s) = 3.52404 3.56260 3.54337
# Velocity P-wave (km/s) = 6.21010 6.25941 6.23480
#
# Compressibility (1/GPa) = 0.02365740
#
# Stress axis : x y z
#
# Youngs Moduli (GPa) = 61.63349 61.63349 77.52584
#
# Poissons Ratio (x) = 0.25195 0.26195
# Poissons Ratio (y) = 0.25195 0.26195
# Poissons Ratio (z) = 0.20826 0.20826
#
# Static dielectric constant tensor:
#      x y z
#    x 1.682160 0.000000 0.000000 
#    y 0.000000 1.682160 0.000000 
#    z 0.000000 0.000000 1.694310 
# 
# From -- ./inp_files/7619.got.cif
#   From: 2010.05.17/outbox.cif.g08.bks.cpg/sg132_4_cif.got.tgz:7619.got - 2010.05.20 12:30:18.
