data_PCOD9567065
_publ_section_title
;
Structure prediction by ZEFSAII (Michael W. Deem and Ramdas Pophale) SiO2 
 PCOD9567065
Probable space group: P 42/M C M
;
_chemical_formula_sum "Si O2"
_cell_formula_units_Z 104
_cell_length_a 20.733092
_cell_length_b 20.733092
_cell_length_c 17.448106
_cell_angle_alpha 90.000000
_cell_angle_beta 90.000000
_cell_angle_gamma 90.000000
_cell_volume 7500.262106
_symmetry_space_group_name_H-M "P 42/M C M"
_symmetry_group_IT_number 132
_symmetry_cell_setting 'tetragonal'
loop_
_space_group_symop_operation_xyz
x,y,z
-y,x,1/2+z
-x,-y,z
y,-x,1/2+z
x,-y,1/2-z
-x,y,1/2-z
y,x,-z
-y,-x,-z
-x,-y,-z
y,-x,1/2-z
x,y,-z
-y,x,1/2-z
-x,y,1/2+z
x,-y,1/2+z
-y,-x,z
y,x,z
loop_
_atom_site_type_symbol
_atom_site_label
_atom_site_fract_x
_atom_site_fract_y
_atom_site_fract_z
Si Si1 0.364690 0.921428 0.159836
Si Si2 0.242455 0.864737 0.907933
Si Si3 0.947229 0.052772 0.085825
Si Si4 0.922060 0.501191 0.912493
Si Si5 0.994497 0.179911 0.159421
Si Si6 0.926343 0.360823 0.343144
Si Si7 0.232343 0.872600 0.408124
O O1 0.315104 0.870031 0.123919
O O2 0.437128 0.904451 0.134034
O O3 0.359049 0.922486 0.251408
O O4 0.351338 0.997005 0.135094
O O5 0.195158 0.804843 0.885732
O O6 0.214776 0.931470 0.874135
O O7 0.243309 0.867026 0.000000
O O8 0.979569 0.107616 0.135853
O O9 0.924313 0.075688 0.000000
O O10 0.000000 0.000000 0.072866
O O11 0.905592 0.569081 0.873522
O O12 0.000000 0.500000 0.914690
O O13 0.898542 0.498180 0.000000
O O14 0.000000 0.191147 0.250000
O O15 0.061433 0.199368 0.120572
O O16 0.881356 0.304695 0.376759
O O17 0.233871 0.872020 0.500000
O O18 0.188788 0.811213 0.382822
#
# Coordination Sequence:
#
# PCOD9567065 Si02
#       7
#    16  16   8  16  16  16  16
#     4  10  19  31  48  69  91 113 143 184 226 268
#     4  11  22  35  50  65  86 116 150 185 228 276
#     4  11  24  38  50  60  76 100 134 180 232 280
#     4   9  17  29  47  69  91 115 141 172 218 271
#     4  12  24  34  49  63  81 105 142 187 231 273
#     4  10  19  31  48  69  91 113 143 184 226 268
#     4  11  23  36  49  64  86 116 150 185 228 276
#
# _framework density 13.866182
#
# number of rings (size 3 to 8) (size 9 to 14) (size 15 to 20)
#    0.000    1.462    2.308    4.154    2.154    6.154 
#    0.000    0.000    0.000    0.000    0.000    0.000 
#    0.000    0.000    0.000    0.000    0.000    0.769 
#
# Total GULP energy -579798.062057 kJ/mol
# GULP energy per Si atom -5574.981366 kJ/mol
# Density = 1.383462 g / cm^3
# Si number density = 13.866182 Si / 1000 Ang^3
#
#
#
# Elastic Constant Matrix: (Units=GPa)
#
#
# Indices 1 2 3 4 5 6 
#
# 1 83.9648 58.9713 33.7687 0.0000 0.0000 0.0000
# 2 58.9713 83.9648 33.7689 0.0000 0.0000 0.0000
# 3 33.7687 33.7689 66.4848 0.0000 0.0000 0.0000
# 4 0.0000 0.0000 0.0000 19.3225 0.0000 0.0000
# 5 0.0000 0.0000 0.0000 0.0000 19.3226 0.0000
# 6 0.0000 0.0000 0.0000 0.0000 0.0000 9.1743
#
#
#
# Elastic Compliance Matrix: (Units=1/GPa)
#
#
# Indices 1 2 3 4 5 6 
#
# 1 0.024608 -0.015403 -0.004676 0.000000 0.000000 0.000000
# 2 -0.015403 0.024608 -0.004676 0.000000 0.000000 0.000000
# 3 -0.004676 -0.004676 0.019791 0.000000 0.000000 0.000000
# 4 0.000000 0.000000 0.000000 0.051753 0.000000 0.000000
# 5 0.000000 0.000000 0.000000 0.000000 0.051753 0.000000
# 6 0.000000 0.000000 0.000000 0.000000 0.000000 0.109000
#
#
# Mechanical properties :
#
#
# Convention : Reuss Voigt Hill
#
# Bulk Modulus (GPa) = 51.28444 54.15913 52.72178
# Shear Modulus (GPa) = 14.81395 16.75758 15.78577
#
# Velocity S-wave (km/s) = 3.27211 3.48015 3.37773
# Velocity P-wave (km/s) = 7.16527 7.43585 7.30181
#
# Compressibility (1/GPa) = 0.01949909
#
# Stress axis : x y z
#
# Youngs Moduli (GPa) = 40.63736 40.63731 50.52895
#
# Poissons Ratio (x) = 0.62592 0.23625
# Poissons Ratio (y) = 0.62592 0.23625
# Poissons Ratio (z) = 0.19000 0.19000
#
# Static dielectric constant tensor:
#      x y z
#    x 1.484790 0.000000 0.000000 
#    y 0.000000 1.484790 0.000000 
#    z 0.000000 0.000000 1.480110 
# 
# From -- ./inp_files/5088.got.cif
#   From: 2010.05.17/outbox.cif.g08.bks.cpg/sg132_3_cif.got.tgz:5088.got - 2010.05.20 12:30:18.
