data_PCOD9567544
_publ_section_title
;
Structure prediction by ZEFSAII (Michael W. Deem and Ramdas Pophale) SiO2 
 PCOD9567544
Probable space group: P 42/M C M
;
_chemical_formula_sum "Si O2"
_cell_formula_units_Z 96
_cell_length_a 25.809890
_cell_length_b 25.809890
_cell_length_c 9.310619
_cell_angle_alpha 90.000000
_cell_angle_beta 90.000000
_cell_angle_gamma 90.000000
_cell_volume 6202.272774
_symmetry_space_group_name_H-M "P 42/M C M"
_symmetry_group_IT_number 132
_symmetry_cell_setting 'tetragonal'
loop_
_space_group_symop_operation_xyz
x,y,z
-y,x,1/2+z
-x,-y,z
y,-x,1/2+z
x,-y,1/2-z
-x,y,1/2-z
y,x,-z
-y,-x,-z
-x,-y,-z
y,-x,1/2-z
x,y,-z
-y,x,1/2-z
-x,y,1/2+z
x,-y,1/2+z
-y,-x,z
y,x,z
loop_
_atom_site_type_symbol
_atom_site_label
_atom_site_fract_x
_atom_site_fract_y
_atom_site_fract_z
Si Si1 0.137489 0.656004 0.172107
Si Si2 0.739040 0.448853 0.334790
Si Si3 0.741851 0.053577 0.172076
Si Si4 0.053591 0.861728 0.827648
Si Si5 0.449001 0.134887 0.834876
Si Si6 0.741504 0.343698 0.828170
O O1 0.100040 0.703329 0.210845
O O2 0.121049 0.603811 0.253450
O O3 0.197979 0.666912 0.205858
O O4 0.134403 0.647693 0.000000
O O5 0.721369 0.500000 0.250000
O O6 0.721862 0.449211 0.500000
O O7 0.802079 0.450491 0.335332
O O8 0.725134 0.395770 0.254260
O O9 0.801783 0.065835 0.207752
O O10 0.728034 0.000000 0.250000
O O11 0.738859 0.046301 0.000000
O O12 0.099489 0.900512 0.786420
O O13 0.000000 0.875431 0.750000
O O14 0.046782 0.864900 0.000000
O O15 0.500000 0.117080 0.750000
O O16 0.449225 0.117626 0.000000
O O17 0.704229 0.295772 0.792557
O O18 0.738514 0.352662 0.000000
#
# Coordination Sequence:
#
# PCOD9567544 Si02
#       6
#    16  16  16  16  16  16
#     4   9  17  29  45  65  88 116 149 182 220 266
#     4   9  16  26  41  60  84 116 152 186 219 259
#     4   9  18  32  49  67  88 116 150 186 221 261
#     4   9  18  32  49  69  92 117 146 181 221 265
#     4   9  16  26  42  64  88 114 145 182 222 263
#     4   9  17  28  42  63  92 121 147 179 220 265
#
# _framework density 15.478197
#
# number of rings (size 3 to 8) (size 9 to 14) (size 15 to 20)
#    0.000    3.000    0.000    1.000    0.000    6.167 
#    0.000    4.167    0.000    0.500    0.000   12.833 
#    0.000    0.333    0.000    3.500    0.000    1.833 
#
# Total GULP energy -534699.318922 kJ/mol
# GULP energy per Si atom -5569.784572 kJ/mol
# Density = 1.544297 g / cm^3
# Si number density = 15.478197 Si / 1000 Ang^3
#
#
#
# Elastic Constant Matrix: (Units=GPa)
#
#
# Indices 1 2 3 4 5 6 
#
# 1 101.3218 83.4133 53.7293 0.0000 0.0000 0.0000
# 2 83.4133 101.3218 53.7293 0.0000 0.0000 0.0000
# 3 53.7293 53.7293 53.7412 0.0000 0.0000 0.0000
# 4 0.0000 0.0000 0.0000 23.3306 0.0000 0.0000
# 5 0.0000 0.0000 0.0000 0.0000 23.3306 0.0000
# 6 0.0000 0.0000 0.0000 0.0000 0.0000 -0.8230
#
#
#
# Elastic Compliance Matrix: (Units=1/GPa)
#
#
# Indices 1 2 3 4 5 6 
#
# 1 0.034388 -0.021451 -0.012934 0.000000 0.000000 0.000000
# 2 -0.021451 0.034388 -0.012934 0.000000 0.000000 0.000000
# 3 -0.012934 -0.012934 0.044469 0.000000 0.000000 0.000000
# 4 0.000000 0.000000 0.000000 0.042862 0.000000 0.000000
# 5 0.000000 0.000000 0.000000 0.000000 0.042862 0.000000
# 6 0.000000 0.000000 0.000000 0.000000 0.000000 -1.215121
#
#
# Mechanical properties :
#
#
# Convention : Reuss Voigt Hill
#
# Bulk Modulus (GPa) = 53.74119 70.90320 62.32220
# Shear Modulus (GPa) = -5.46262 13.53518 4.03628
#
# Velocity S-wave (km/s) = -1.88066 2.96035 1.61659
# Velocity P-wave (km/s) = 5.48453 7.58899 6.62091
#
# Compressibility (1/GPa) = 0.01860770
#
# Stress axis : x y z
#
# Youngs Moduli (GPa) = 29.07992 29.07992 22.48737
#
# Poissons Ratio (x) = 0.62381 0.29085
# Poissons Ratio (y) = 0.62381 0.29085
# Poissons Ratio (z) = 0.37611 0.37611
#
# Static dielectric constant tensor:
#      x y z
#    x 1.496650 0.000000 0.000000 
#    y 0.000000 1.496650 0.000000 
#    z 0.000000 0.000000 1.520670 
# 
# From -- ./inp_files/1731.got.cif
#   From: 2010.05.17/outbox.cif.g08.bks.cpg/sg132_1_cif.got.tgz:1731.got - 2010.05.20 12:30:18.
