data_PCOD9567322
_publ_section_title
;
Structure prediction by ZEFSAII (Michael W. Deem and Ramdas Pophale) SiO2 
 PCOD9567322
Probable space group: P 42/M C M
;
_chemical_formula_sum "Si O2"
_cell_formula_units_Z 104
_cell_length_a 18.642550
_cell_length_b 18.642550
_cell_length_c 17.701318
_cell_angle_alpha 90.000000
_cell_angle_beta 90.000000
_cell_angle_gamma 90.000000
_cell_volume 6151.998732
_symmetry_space_group_name_H-M "P 42/M C M"
_symmetry_group_IT_number 132
_symmetry_cell_setting 'tetragonal'
loop_
_space_group_symop_operation_xyz
x,y,z
-y,x,1/2+z
-x,-y,z
y,-x,1/2+z
x,-y,1/2-z
-x,y,1/2-z
y,x,-z
-y,-x,-z
-x,-y,-z
y,-x,1/2-z
x,y,-z
-y,x,1/2-z
-x,y,1/2+z
x,-y,1/2+z
-y,-x,z
y,x,z
loop_
_atom_site_type_symbol
_atom_site_label
_atom_site_fract_x
_atom_site_fract_y
_atom_site_fract_z
Si Si1 0.340476 0.224229 0.284555
Si Si2 0.557730 0.675078 0.814872
Si Si3 0.335718 0.925624 0.295075
Si Si4 0.207926 0.907839 0.587994
Si Si5 0.055878 0.944123 0.408631
Si Si6 0.772652 0.544857 0.587686
Si Si7 0.922296 0.537493 0.085612
O O1 0.265114 0.265114 0.287867
O O2 0.389332 0.266146 0.222887
O O3 0.333819 0.141983 0.260871
O O4 0.384139 0.232707 0.362040
O O5 0.500000 0.654061 0.750000
O O6 0.607298 0.607298 0.836942
O O7 0.513251 0.716144 0.879518
O O8 0.270203 0.919174 0.353481
O O9 0.405492 0.920116 0.347718
O O10 0.334786 0.000000 0.250000
O O11 0.227576 0.919972 0.500000
O O12 0.171601 0.828400 0.592151
O O13 0.139284 0.957305 0.609223
O O14 0.053094 0.946907 0.500000
O O15 0.000000 0.000000 0.376451
O O16 0.758889 0.557911 0.500000
O O17 0.853890 0.514504 0.595620
O O18 0.000000 0.500000 0.088874
O O19 0.915344 0.568398 0.000000
#
# Coordination Sequence:
#
# PCOD9567322 Si02
#       7
#    16  16  16  16   8  16  16
#     4  10  21  37  56  77 110 151 184 224 280 346
#     4   9  18  34  56  81 112 146 182 230 285 342
#     4  12  22  33  54  81 113 148 182 230 277 330
#     4   8  17  34  56  79 105 137 180 228 280 334
#     4   7  12  28  56  80 100 134 175 217 272 337
#     4  10  20  36  57  81 109 144 191 234 272 336
#     4  10  21  36  54  78 109 143 183 230 276 324
#
# _framework density 16.905075
#
# number of rings (size 3 to 8) (size 9 to 14) (size 15 to 20)
#    0.462    1.923    1.538    1.846    0.000    2.308 
#    0.000    2.308    0.000    0.000    0.000    4.308 
#    0.000    0.000    0.000    0.000    0.000    0.000 
#
# Total GULP energy -579299.998232 kJ/mol
# GULP energy per Si atom -5570.192291 kJ/mol
# Density = 1.686660 g / cm^3
# Si number density = 16.905075 Si / 1000 Ang^3
#
#
#
# Elastic Constant Matrix: (Units=GPa)
#
#
# Indices 1 2 3 4 5 6 
#
# 1 81.4176 38.6457 42.5526 0.0000 0.0000 0.0000
# 2 38.6457 81.4175 42.5527 0.0000 0.0000 0.0000
# 3 42.5526 42.5527 97.8703 0.0000 0.0000 0.0000
# 4 0.0000 0.0000 0.0000 31.7097 0.0000 0.0000
# 5 0.0000 0.0000 0.0000 0.0000 31.7107 0.0000
# 6 0.0000 0.0000 0.0000 0.0000 0.0000 22.1508
#
#
#
# Elastic Compliance Matrix: (Units=1/GPa)
#
#
# Indices 1 2 3 4 5 6 
#
# 1 0.017710 -0.005670 -0.005235 0.000000 0.000000 0.000000
# 2 -0.005670 0.017710 -0.005235 0.000000 0.000000 0.000000
# 3 -0.005235 -0.005235 0.014769 0.000000 0.000000 0.000000
# 4 0.000000 0.000000 0.000000 0.031536 0.000000 0.000000
# 5 0.000000 0.000000 0.000000 0.000000 0.031535 0.000000
# 6 0.000000 0.000000 0.000000 0.000000 0.000000 0.045145
#
#
# Mechanical properties :
#
#
# Convention : Reuss Voigt Hill
#
# Bulk Modulus (GPa) = 55.83481 56.46750 56.15115
# Shear Modulus (GPa) = 25.42541 26.24454 25.83497
#
# Velocity S-wave (km/s) = 3.88236 3.94441 3.91351
# Velocity P-wave (km/s) = 7.29364 7.36340 7.32860
#
# Compressibility (1/GPa) = 0.01790997
#
# Stress axis : x y z
#
# Youngs Moduli (GPa) = 56.46655 56.46632 67.70744
#
# Poissons Ratio (x) = 0.32018 0.35442
# Poissons Ratio (y) = 0.32018 0.35442
# Poissons Ratio (z) = 0.29558 0.29558
#
# Static dielectric constant tensor:
#      x y z
#    x 1.571420 0.000000 0.000000 
#    y 0.000000 1.571420 0.000000 
#    z 0.000000 0.000000 1.554320 
# 
# From -- ./inp_files/6555.got.cif
#   From: 2010.05.17/outbox.cif.g08.bks.cpg/sg132_4_cif.got.tgz:6555.got - 2010.05.20 12:30:18.
