data_PCOD9567520
_publ_section_title
;
Structure prediction by ZEFSAII (Michael W. Deem and Ramdas Pophale) SiO2 
 PCOD9567520
Probable space group: P 42/M C M
;
_chemical_formula_sum "Si O2"
_cell_formula_units_Z 80
_cell_length_a 11.646521
_cell_length_b 11.646521
_cell_length_c 32.521460
_cell_angle_alpha 90.000000
_cell_angle_beta 90.000000
_cell_angle_gamma 90.000000
_cell_volume 4411.258036
_symmetry_space_group_name_H-M "P 42/M C M"
_symmetry_group_IT_number 132
_symmetry_cell_setting 'tetragonal'
loop_
_space_group_symop_operation_xyz
x,y,z
-y,x,1/2+z
-x,-y,z
y,-x,1/2+z
x,-y,1/2-z
-x,y,1/2-z
y,x,-z
-y,-x,-z
-x,-y,-z
y,-x,1/2-z
x,y,-z
-y,x,1/2-z
-x,y,1/2+z
x,-y,1/2+z
-y,-x,z
y,x,z
loop_
_atom_site_type_symbol
_atom_site_label
_atom_site_fract_x
_atom_site_fract_y
_atom_site_fract_z
Si Si1 0.863863 0.318437 0.249460
Si Si2 0.567565 0.240940 0.595813
Si Si3 0.833863 0.166138 0.951565
Si Si4 0.862035 0.497516 0.818963
Si Si5 0.270037 0.925864 0.547988
Si Si6 0.360663 0.360663 0.547921
O O1 0.800522 0.199479 0.251947
O O2 0.832348 0.385339 0.207631
O O3 0.832007 0.397575 0.288391
O O4 0.000000 0.307454 0.250000
O O5 0.671597 0.328404 0.604670
O O6 0.509957 0.199453 0.637849
O O7 0.624595 0.131855 0.572385
O O8 0.474356 0.309108 0.568802
O O9 0.737095 0.262906 0.948754
O O10 0.953727 0.218918 0.935257
O O11 0.858090 0.141911 0.000000
O O12 0.000000 0.500000 0.824678
O O13 0.303650 0.942463 0.500000
O O14 0.166887 0.833114 0.548890
O O15 0.383241 0.383241 0.500000
#
# Coordination Sequence:
#
# PCOD9567520 Si02
#       6
#    16  16   8  16  16   8
#     4   9  18  36  60  86 116 145 177 220 278 346
#     4  11  23  37  57  81 111 154 197 241 288 346
#     4   9  19  35  55  81 109 141 191 245 299 353
#     4   9  20  36  58  84 110 147 185 228 282 330
#     4   9  18  34  57  82 109 146 190 241 298 348
#     4  11  25  39  53  79 117 159 201 249 291 343
#
# _framework density 18.135415999999999
#
# number of rings (size 3 to 8) (size 9 to 14) (size 15 to 20)
#    0.000    2.400    0.000    3.000    4.200    3.000 
#    0.000    3.000    0.000    1.200    0.000    0.000 
#    0.000    0.000    0.000    0.000    0.000    0.000 
#
# Total GULP energy -446255.788676 kJ/mol
# GULP energy per Si atom -5578.197358 kJ/mol
# Density = 1.809414 g / cm^3
# Si number density = 18.135416 Si / 1000 Ang^3
#
#
#
# Elastic Constant Matrix: (Units=GPa)
#
#
# Indices 1 2 3 4 5 6 
#
# 1 61.6893 42.1163 42.3593 0.0000 0.0000 0.0000
# 2 42.1163 61.6892 42.3595 0.0000 0.0000 0.0000
# 3 42.3593 42.3595 112.2322 0.0000 0.0000 0.0000
# 4 0.0000 0.0000 0.0000 12.1561 0.0000 0.0000
# 5 0.0000 0.0000 0.0000 0.0000 12.1561 0.0000
# 6 0.0000 0.0000 0.0000 0.0000 0.0000 25.2588
#
#
#
# Elastic Compliance Matrix: (Units=1/GPa)
#
#
# Indices 1 2 3 4 5 6 
#
# 1 0.032506 -0.018585 -0.005254 0.000000 0.000000 0.000000
# 2 -0.018585 0.032506 -0.005254 0.000000 0.000000 0.000000
# 3 -0.005254 -0.005254 0.012876 0.000000 0.000000 0.000000
# 4 0.000000 0.000000 0.000000 0.082263 0.000000 0.000000
# 5 0.000000 0.000000 0.000000 0.000000 0.082263 0.000000
# 6 0.000000 0.000000 0.000000 0.000000 0.000000 0.039590
#
#
# Mechanical properties :
#
#
# Convention : Reuss Voigt Hill
#
# Bulk Modulus (GPa) = 50.75596 54.36455 52.56025
# Shear Modulus (GPa) = 14.41920 17.16591 15.79255
#
# Velocity S-wave (km/s) = 2.82278 3.07993 2.95416
# Velocity P-wave (km/s) = 6.21869 6.53376 6.37817
#
# Compressibility (1/GPa) = 0.01970212
#
# Stress axis : x y z
#
# Youngs Moduli (GPa) = 30.76333 30.76319 77.66147
#
# Poissons Ratio (x) = 0.57172 0.40806
# Poissons Ratio (y) = 0.57173 0.40807
# Poissons Ratio (z) = 0.16164 0.16164
#
# Static dielectric constant tensor:
#      x y z
#    x 1.610470 0.000000 0.000000 
#    y 0.000000 1.610470 0.000000 
#    z 0.000000 0.000000 1.611170 
# 
# From -- ./inp_files/10666.got.cif
#   From: 2010.05.17/outbox.cif.g08.bks.cpg/sg132_6_cif.got.tgz:10666.got - 2010.05.20 12:30:18.
