data_PCOD9567990
_publ_section_title
;
Structure prediction by ZEFSAII (Michael W. Deem and Ramdas Pophale) SiO2 
 PCOD9567990
Probable space group: P 42/N B C
;
_chemical_formula_sum "Si O2"
_cell_formula_units_Z 96
_cell_length_a 14.551781
_cell_length_b 14.551781
_cell_length_c 24.217192
_cell_angle_alpha 90.000000
_cell_angle_beta 90.000000
_cell_angle_gamma 90.000000
_cell_volume 5128.095273
_symmetry_space_group_name_H-M "P 42/N B C"
_symmetry_group_IT_number 133
_space_group.IT_coordinate_system_code '2'
_symmetry_cell_setting 'tetragonal'
loop_
_space_group_symop_operation_xyz
x,y,z
1/2-y,x,1/2+z
1/2-x,1/2-y,z
y,1/2-x,1/2+z
x,1/2-y,-z
1/2-x,y,-z
y,x,1/2-z
1/2-y,1/2-x,1/2-z
-x,-y,-z
1/2+y,-x,1/2-z
1/2+x,1/2+y,-z
-y,1/2+x,1/2-z
-x,1/2+y,z
1/2+x,-y,z
-y,-x,1/2+z
1/2+y,1/2+x,1/2+z
loop_
_atom_site_type_symbol
_atom_site_label
_atom_site_fract_x
_atom_site_fract_y
_atom_site_fract_z
Si Si1 0.145067 0.003937 0.271307
Si Si2 0.503937 0.645067 0.228693
Si Si3 0.494087 0.391382 0.100257
Si Si4 0.853272 0.250000 0.065398
Si Si5 0.891382 0.994087 0.399743
Si Si6 0.358366 0.146524 0.500000
O O1 0.095469 0.095469 0.250000
O O2 0.144234 0.015936 0.337433
O O3 0.080672 0.919328 0.250000
O O4 0.250000 0.992380 0.252411
O O5 0.595469 0.595469 0.250000
O O6 0.515936 0.644234 0.162567
O O7 0.585784 0.339021 0.080217
O O8 0.500000 0.500000 0.104968
O O9 0.413877 0.377206 0.054898
O O10 0.750000 0.250000 0.089713
O O11 0.914216 0.339021 0.080217
O O12 0.845029 0.250000 0.000000
O O13 0.877206 0.913877 0.445102
O O14 0.400545 0.250000 0.500000
O O15 0.250000 0.157795 0.500000
#
# Coordination Sequence:
#
# PCOD9567990 Si02
#       6
#    16  16  16  16  16  16
#     4  11  24  45  68  94 130 173 222 275 328 383
#     4  11  24  45  68  94 130 173 222 275 328 383
#     4  12  22  44  68  91 135 172 213 276 326 389
#     4  11  24  42  68 102 134 170 214 267 336 401
#     4  12  22  44  68  91 135 172 213 276 326 389
#     4  11  23  40  66  99 132 172 214 262 334 404
#
# _framework density 18.720402
#
# number of rings (size 3 to 8) (size 9 to 14) (size 15 to 20)
#    0.000    0.667    8.333    0.500    0.000    4.667 
#    0.000    0.000    0.000    0.000    0.000    0.000 
#    0.000    0.000    0.000    0.000    0.000    0.000 
#
# Total GULP energy -535021.422962 kJ/mol
# GULP energy per Si atom -5573.139823 kJ/mol
# Density = 1.867779 g / cm^3
# Si number density = 18.720402 Si / 1000 Ang^3
#
#
#
# Elastic Constant Matrix: (Units=GPa)
#
#
# Indices 1 2 3 4 5 6 
#
# 1 153.8705 49.8298 31.1254 0.0000 0.0000 0.0000
# 2 49.8298 153.8705 31.1254 0.0000 0.0000 0.0000
# 3 31.1254 31.1254 117.9394 0.0000 0.0000 0.0000
# 4 0.0000 0.0000 0.0000 18.3330 0.0000 0.0000
# 5 0.0000 0.0000 0.0000 0.0000 18.3330 0.0000
# 6 0.0000 0.0000 0.0000 0.0000 0.0000 -10.1923
#
#
#
# Elastic Compliance Matrix: (Units=1/GPa)
#
#
# Indices 1 2 3 4 5 6 
#
# 1 0.007476 -0.002136 -0.001409 0.000000 0.000000 0.000000
# 2 -0.002136 0.007476 -0.001409 0.000000 0.000000 0.000000
# 3 -0.001409 -0.001409 0.009223 0.000000 0.000000 0.000000
# 4 0.000000 0.000000 0.000000 0.054546 0.000000 0.000000
# 5 0.000000 0.000000 0.000000 0.000000 0.054546 0.000000
# 6 0.000000 0.000000 0.000000 0.000000 0.000000 -0.098114
#
#
# Mechanical properties :
#
#
# Convention : Reuss Voigt Hill
#
# Bulk Modulus (GPa) = 70.09932 72.20465 71.15199
# Shear Modulus (GPa) = 100.36730 26.20142 63.28436
#
# Velocity S-wave (km/s) = 7.33009 3.74521 5.82052
# Velocity P-wave (km/s) = 10.44830 7.57337 9.12477
#
# Compressibility (1/GPa) = 0.01426547
#
# Stress axis : x y z
#
# Youngs Moduli (GPa) = 133.76625 133.76625 108.42749
#
# Poissons Ratio (x) = 0.28571 0.15280
# Poissons Ratio (y) = 0.28571 0.15280
# Poissons Ratio (z) = 0.18851 0.18851
#
# Static dielectric constant tensor:
#      x y z
#    x 1.964870 0.000000 0.000000 
#    y 0.000000 1.964870 0.000000 
#    z 0.000000 0.000000 1.435820 
# 
# From -- ./inp_files/6541.got.cif
#   From: 2010.05.17/outbox.cif.g08.bks.cpg/sg133_4_cif.got.tgz:6541.got - 2010.05.20 12:37:36.
