data_PCOD9567626
_publ_section_title
;
Structure prediction by ZEFSAII (Michael W. Deem and Ramdas Pophale) SiO2 
 PCOD9567626
Probable space group: P 42/N B C
;
_chemical_formula_sum "Si O2"
_cell_formula_units_Z 116
_cell_length_a 29.066349
_cell_length_b 29.066349
_cell_length_c 9.100249
_cell_angle_alpha 90.000000
_cell_angle_beta 90.000000
_cell_angle_gamma 90.000000
_cell_volume 7688.369430
_symmetry_space_group_name_H-M "P 42/N B C"
_symmetry_group_IT_number 133
_space_group.IT_coordinate_system_code '2'
_symmetry_cell_setting 'tetragonal'
loop_
_space_group_symop_operation_xyz
x,y,z
1/2-y,x,1/2+z
1/2-x,1/2-y,z
y,1/2-x,1/2+z
x,1/2-y,-z
1/2-x,y,-z
y,x,1/2-z
1/2-y,1/2-x,1/2-z
-x,-y,-z
1/2+y,-x,1/2-z
1/2+x,1/2+y,-z
-y,1/2+x,1/2-z
-x,1/2+y,z
1/2+x,-y,z
-y,-x,1/2+z
1/2+y,1/2+x,1/2+z
loop_
_atom_site_type_symbol
_atom_site_label
_atom_site_fract_x
_atom_site_fract_y
_atom_site_fract_z
Si Si1 0.347319 0.628758 0.630513
Si Si2 0.002892 0.939951 0.655961
Si Si3 0.791824 0.339421 0.349749
Si Si4 0.951348 0.347444 0.647185
Si Si5 0.963752 0.327439 0.315476
Si Si6 0.250000 0.750000 0.000000
Si Si7 0.992158 0.575177 0.694312
Si Si8 0.741097 0.435755 0.669682
O O1 0.334296 0.675857 0.711401
O O2 0.321892 0.634474 0.475232
O O3 0.402164 0.629323 0.613128
O O4 0.338281 0.584838 0.733324
O O5 0.013877 0.887244 0.692742
O O6 0.997680 0.939432 0.478121
O O7 0.045861 0.971043 0.710179
O O8 0.960818 0.960818 0.750000
O O9 0.777326 0.288353 0.402668
O O10 0.754391 0.379376 0.311101
O O11 0.962644 0.324880 0.491065
O O12 0.946062 0.309441 0.771198
O O13 0.996801 0.370974 0.284960
O O14 0.968853 0.276086 0.255519
O O15 0.942908 0.557093 0.750000
O O16 0.750000 0.444428 0.500000
#
# Coordination Sequence:
#
# PCOD9567626 Si02
#       8
#    16  16  16  16  16   4  16  16
#     4  11  20  37  49  65  83 115 146 194 243 296
#     4  10  19  32  49  74  98 121 150 187 235 293
#     4  11  24  36  51  62  84 108 156 198 256 299
#     4  10  22  34  53  71  91 124 151 192 243 290
#     4  11  20  35  52  67  93 119 150 189 240 284
#     4  12  24  42  44  62  76 106 148 206 260 294
#     4  10  20  31  49  74  97 122 150 186 238 292
#     4  11  22  36  51  71  88 113 160 197 235 297
#
# _framework density 15.087725000000001
#
# number of rings (size 3 to 8) (size 9 to 14) (size 15 to 20)
#    0.000    1.379    4.828    2.069    0.000    6.069 
#    0.000    0.000    0.000    0.000    0.000    0.000 
#    0.000    0.000    0.000    0.000    0.000    0.690 
#
# Total GULP energy -646328.720594 kJ/mol
# GULP energy per Si atom -5571.799315 kJ/mol
# Density = 1.505338 g / cm^3
# Si number density = 15.087725 Si / 1000 Ang^3
#
#
#
# Elastic Constant Matrix: (Units=GPa)
#
#
# Indices 1 2 3 4 5 6 
#
# 1 62.1190 41.9991 31.7876 0.0000 0.0000 0.0000
# 2 41.9991 62.1174 31.7877 0.0000 0.0000 0.0000
# 3 31.7876 31.7877 57.5964 0.0000 0.0000 0.0000
# 4 0.0000 0.0000 0.0000 19.9620 0.0000 0.0000
# 5 0.0000 0.0000 0.0000 0.0000 19.9623 0.0000
# 6 0.0000 0.0000 0.0000 0.0000 0.0000 30.3337
#
#
#
# Elastic Compliance Matrix: (Units=1/GPa)
#
#
# Indices 1 2 3 4 5 6 
#
# 1 0.032095 -0.017609 -0.007995 0.000000 0.000000 0.000000
# 2 -0.017609 0.032096 -0.007996 0.000000 0.000000 0.000000
# 3 -0.007995 -0.007996 0.026187 0.000000 0.000000 0.000000
# 4 0.000000 0.000000 0.000000 0.050095 0.000000 0.000000
# 5 0.000000 0.000000 0.000000 0.000000 0.050095 0.000000
# 6 0.000000 0.000000 0.000000 0.000000 0.000000 0.032967
#
#
# Mechanical properties :
#
#
# Convention : Reuss Voigt Hill
#
# Bulk Modulus (GPa) = 43.14122 43.66463 43.40292
# Shear Modulus (GPa) = 16.75272 19.13548 17.94410
#
# Velocity S-wave (km/s) = 3.33581 3.56516 3.45239
# Velocity P-wave (km/s) = 6.59489 6.77868 6.68741
#
# Compressibility (1/GPa) = 0.02317969
#
# Stress axis : x y z
#
# Youngs Moduli (GPa) = 31.15779 31.15661 38.18650
#
# Poissons Ratio (x) = 0.54863 0.30529
# Poissons Ratio (y) = 0.54865 0.30532
# Poissons Ratio (z) = 0.24910 0.24911
#
# Static dielectric constant tensor:
#      x y z
#    x 1.538320 0.000000 0.000000 
#    y 0.000000 1.538320 0.000000 
#    z 0.000000 0.000000 1.537030 
# 
# From -- ./inp_files/2130.got.cif
#   From: 2010.05.17/outbox.cif.g08.bks.cpg/sg133_2_cif.got.tgz:2130.got - 2010.05.20 12:37:36.
