data_PCOD9567905
_publ_section_title
;
Structure prediction by ZEFSAII (Michael W. Deem and Ramdas Pophale) SiO2 
 PCOD9567905
Probable space group: P 42/N B C
;
_chemical_formula_sum "Si O2"
_cell_formula_units_Z 40
_cell_length_a 9.767263
_cell_length_b 9.767263
_cell_length_c 15.921743
_cell_angle_alpha 90.000000
_cell_angle_beta 90.000000
_cell_angle_gamma 90.000000
_cell_volume 1518.925151
_symmetry_space_group_name_H-M "P 42/N B C"
_symmetry_group_IT_number 133
_space_group.IT_coordinate_system_code '2'
_symmetry_cell_setting 'tetragonal'
loop_
_space_group_symop_operation_xyz
x,y,z
1/2-y,x,1/2+z
1/2-x,1/2-y,z
y,1/2-x,1/2+z
x,1/2-y,-z
1/2-x,y,-z
y,x,1/2-z
1/2-y,1/2-x,1/2-z
-x,-y,-z
1/2+y,-x,1/2-z
1/2+x,1/2+y,-z
-y,1/2+x,1/2-z
-x,1/2+y,z
1/2+x,-y,z
-y,-x,1/2+z
1/2+y,1/2+x,1/2+z
loop_
_atom_site_type_symbol
_atom_site_label
_atom_site_fract_x
_atom_site_fract_y
_atom_site_fract_z
Si Si1 0.898385 0.315190 0.390705
Si Si2 0.500469 0.750000 0.000000
Si Si3 0.871142 0.605585 0.343116
O O1 0.750000 0.250000 0.370165
O O2 0.874504 0.104048 0.520370
O O3 0.921104 0.448098 0.332698
O O4 0.015638 0.206160 0.380162
O O5 0.587067 0.748117 0.914270
O O6 0.844508 0.655493 0.250000
#
# Coordination Sequence:
#
# PCOD9567905 Si02
#       3
#    16   8  16
#     4  10  23  47  75 119 167 226 283 358 440 516
#     4   8  23  46  78 117 171 218 277 366 431 516
#     4  10  24  44  83 119 171 229 289 358 437 526
#
# _framework density 26.334409000000001
#
# number of rings (size 3 to 8) (size 9 to 14) (size 15 to 20)
#    2.400    0.000    0.000    0.600    5.600    1.600 
#    0.000    4.000    0.000    0.000    0.000    0.000 
#    0.000    0.000    0.000    0.000    0.000    0.000 
#
# Total GULP energy -223049.523188 kJ/mol
# GULP energy per Si atom -5576.238080 kJ/mol
# Density = 2.627447 g / cm^3
# Si number density = 26.334409 Si / 1000 Ang^3
#
#
#
# Elastic Constant Matrix: (Units=GPa)
#
#
# Indices 1 2 3 4 5 6 
#
# 1 122.4515 153.4212 71.3002 0.0000 0.0000 0.0000
# 2 153.4212 122.4479 71.2981 0.0000 0.0000 0.0000
# 3 71.3002 71.2981 252.5101 0.0000 0.0000 0.0000
# 4 0.0000 0.0000 0.0000 11.7429 0.0000 0.0000
# 5 0.0000 0.0000 0.0000 0.0000 11.7434 0.0000
# 6 0.0000 0.0000 0.0000 0.0000 0.0000 80.3514
#
#
#
# Elastic Compliance Matrix: (Units=1/GPa)
#
#
# Indices 1 2 3 4 5 6 
#
# 1 -0.014022 0.018266 -0.001198 0.000000 0.000000 0.000000
# 2 0.018266 -0.014022 -0.001199 0.000000 0.000000 0.000000
# 3 -0.001198 -0.001199 0.004637 0.000000 0.000000 0.000000
# 4 0.000000 0.000000 0.000000 0.085158 0.000000 0.000000
# 5 0.000000 0.000000 0.000000 0.000000 0.085154 0.000000
# 6 0.000000 0.000000 0.000000 0.000000 0.000000 0.012445
#
#
# Mechanical properties :
#
#
# Convention : Reuss Voigt Hill
#
# Bulk Modulus (GPa) = 120.01958 121.04982 120.53470
# Shear Modulus (GPa) = 38.34654 34.19355 36.27005
#
# Velocity S-wave (km/s) = 3.82008 3.60729 3.71521
# Velocity P-wave (km/s) = 8.07041 7.96343 8.01710
#
# Compressibility (1/GPa) = 0.00833197
#
# Stress axis : x y z
#
# Youngs Moduli (GPa) = -71.31885 -71.31720 215.65540
#
# Poissons Ratio (x) = 1.30268 0.25843
# Poissons Ratio (y) = 1.30271 0.25847
# Poissons Ratio (z) = -0.08547 -0.08548
#
# Static dielectric constant tensor:
#      x y z
#    x 2.092390 0.000000 0.000000 
#    y 0.000000 2.092390 0.000000 
#    z 0.000000 0.000000 2.214680 
# 
# From -- ./inp_files/4875.got.cif
#   From: 2010.05.17/outbox.cif.g08.bks.cpg/sg133_3_cif.got.tgz:4875.got - 2010.05.20 12:37:36.
