data_PCOD9567318
_publ_section_title
;
Structure prediction by ZEFSAII (Michael W. Deem and Ramdas Pophale) SiO2 
 PCOD9567318
Probable space group: P 42/M C M
;
_chemical_formula_sum "Si O2"
_cell_formula_units_Z 96
_cell_length_a 24.699129
_cell_length_b 24.699129
_cell_length_c 8.648548
_cell_angle_alpha 90.000000
_cell_angle_beta 90.000000
_cell_angle_gamma 90.000000
_cell_volume 5276.020531
_symmetry_space_group_name_H-M "P 42/M C M"
_symmetry_group_IT_number 132
_symmetry_cell_setting 'tetragonal'
loop_
_space_group_symop_operation_xyz
x,y,z
-y,x,1/2+z
-x,-y,z
y,-x,1/2+z
x,-y,1/2-z
-x,y,1/2-z
y,x,-z
-y,-x,-z
-x,-y,-z
y,-x,1/2-z
x,y,-z
-y,x,1/2-z
-x,y,1/2+z
x,-y,1/2+z
-y,-x,z
y,x,z
loop_
_atom_site_type_symbol
_atom_site_label
_atom_site_fract_x
_atom_site_fract_y
_atom_site_fract_z
Si Si1 0.641525 0.144897 0.815774
Si Si2 0.148556 0.237339 0.186762
Si Si3 0.148271 0.060556 0.186518
Si Si4 0.442376 0.356141 0.185879
Si Si5 0.442546 0.939429 0.684871
Si Si6 0.441217 0.230316 0.814124
O O1 0.703353 0.147390 0.759153
O O2 0.608095 0.095243 0.742296
O O3 0.607296 0.196482 0.758470
O O4 0.639897 0.140957 0.000000
O O5 0.201505 0.201505 0.228376
O O6 0.096502 0.200706 0.231399
O O7 0.148251 0.242308 0.000000
O O8 0.095575 0.095575 0.235249
O O9 0.148960 0.000000 0.250000
O O10 0.147801 0.058496 0.000000
O O11 0.500000 0.374626 0.250000
O O12 0.394190 0.394190 0.241596
O O13 0.434631 0.293439 0.228141
O O14 0.444055 0.358269 0.000000
O O15 0.500000 0.917783 0.750000
O O16 0.445040 0.939817 0.500000
O O17 0.437491 0.000000 0.750000
O O18 0.500000 0.213150 0.750000
O O19 0.440817 0.224339 0.000000
#
# Coordination Sequence:
#
# PCOD9567318 Si02
#       6
#    16  16  16  16  16  16
#     4  12  24  37  56  84 113 144 185 228 273 331
#     4   9  20  40  60  78 107 147 188 231 280 329
#     4   9  19  36  58  84 114 148 184 223 268 317
#     4   9  19  35  54  77 105 138 176 218 268 326
#     4  11  22  39  60  84 115 149 185 227 277 327
#     4  10  20  36  56  78 106 141 181 228 278 326
#
# _framework density 18.195532
#
# number of rings (size 3 to 8) (size 9 to 14) (size 15 to 20)
#    0.000    2.000    0.000    5.500    0.000    4.000 
#    0.000    6.667    0.000    0.000    0.000    0.000 
#    0.000    0.000    0.000    0.000    0.000    0.000 
#
# Total GULP energy -536066.319167 kJ/mol
# GULP energy per Si atom -5584.024158 kJ/mol
# Density = 1.815412 g / cm^3
# Si number density = 18.195532 Si / 1000 Ang^3
#
#
#
# Elastic Constant Matrix: (Units=GPa)
#
#
# Indices 1 2 3 4 5 6 
#
# 1 164.6533 96.7681 57.1082 0.0000 0.0000 0.0000
# 2 96.7681 164.6533 57.1082 0.0000 0.0000 0.0000
# 3 57.1082 57.1082 90.1515 0.0000 0.0000 0.0000
# 4 0.0000 0.0000 0.0000 30.5718 0.0000 0.0000
# 5 0.0000 0.0000 0.0000 0.0000 30.5718 0.0000
# 6 0.0000 0.0000 0.0000 0.0000 0.0000 4.5263
#
#
#
# Elastic Compliance Matrix: (Units=1/GPa)
#
#
# Indices 1 2 3 4 5 6 
#
# 1 0.010010 -0.004721 -0.003350 0.000000 0.000000 0.000000
# 2 -0.004721 0.010010 -0.003350 0.000000 0.000000 0.000000
# 3 -0.003350 -0.003350 0.015337 0.000000 0.000000 0.000000
# 4 0.000000 0.000000 0.000000 0.032710 0.000000 0.000000
# 5 0.000000 0.000000 0.000000 0.000000 0.032710 0.000000
# 6 0.000000 0.000000 0.000000 0.000000 0.000000 0.220933
#
#
# Mechanical properties :
#
#
# Convention : Reuss Voigt Hill
#
# Bulk Modulus (GPa) = 79.91335 93.49191 86.70263
# Shear Modulus (GPa) = 14.33796 27.03219 20.68507
#
# Velocity S-wave (km/s) = 2.81017 3.85859 3.37534
# Velocity P-wave (km/s) = 7.38539 8.44660 7.93376
#
# Compressibility (1/GPa) = 0.01251355
#
# Stress axis : x y z
#
# Youngs Moduli (GPa) = 99.90092 99.90092 65.20062
#
# Poissons Ratio (x) = 0.47162 0.21845
# Poissons Ratio (y) = 0.47162 0.21845
# Poissons Ratio (z) = 0.33472 0.33472
#
# Static dielectric constant tensor:
#      x y z
#    x 1.616340 0.000000 0.000000 
#    y 0.000000 1.616340 0.000000 
#    z 0.000000 0.000000 1.612640 
# 
# From -- ./inp_files/1764.got.cif
#   From: 2010.05.17/outbox.cif.g08.bks.cpg/sg132_1_cif.got.tgz:1764.got - 2010.05.20 12:30:18.
