data_PCOD9567773
_publ_section_title
;
Structure prediction by ZEFSAII (Michael W. Deem and Ramdas Pophale) SiO2 
 PCOD9567773
Probable space group: P 42/N B C
;
_chemical_formula_sum "Si O2"
_cell_formula_units_Z 112
_cell_length_a 14.454950
_cell_length_b 14.454950
_cell_length_c 28.641208
_cell_angle_alpha 90.000000
_cell_angle_beta 90.000000
_cell_angle_gamma 90.000000
_cell_volume 5984.453803
_symmetry_space_group_name_H-M "P 42/N B C"
_symmetry_group_IT_number 133
_space_group.IT_coordinate_system_code '2'
_symmetry_cell_setting 'tetragonal'
loop_
_space_group_symop_operation_xyz
x,y,z
1/2-y,x,1/2+z
1/2-x,1/2-y,z
y,1/2-x,1/2+z
x,1/2-y,-z
1/2-x,y,-z
y,x,1/2-z
1/2-y,1/2-x,1/2-z
-x,-y,-z
1/2+y,-x,1/2-z
1/2+x,1/2+y,-z
-y,1/2+x,1/2-z
-x,1/2+y,z
1/2+x,-y,z
-y,-x,1/2+z
1/2+y,1/2+x,1/2+z
loop_
_atom_site_type_symbol
_atom_site_label
_atom_site_fract_x
_atom_site_fract_y
_atom_site_fract_z
Si Si1 0.474513 0.255444 0.618456
Si Si2 0.974402 0.756010 0.865902
Si Si3 0.935078 0.452171 0.395641
Si Si4 0.594856 0.104136 0.092871
Si Si5 0.317033 0.164473 0.553502
Si Si6 0.679054 0.664872 0.196559
Si Si7 0.109739 0.509420 0.504870
O O1 0.510294 0.358173 0.609672
O O2 0.565360 0.191898 0.611314
O O3 0.404422 0.211551 0.580028
O O4 0.416627 0.269363 0.666950
O O5 0.903412 0.767971 0.909405
O O6 0.912083 0.703021 0.828792
O O7 0.013863 0.859442 0.858017
O O8 0.058768 0.689465 0.877523
O O9 0.878062 0.445883 0.444294
O O10 0.014411 0.529246 0.399726
O O11 0.573136 0.135636 0.039087
O O12 0.250000 0.250000 0.544702
O O13 0.349447 0.095081 0.511631
O O14 0.750000 0.750000 0.195954
O O15 0.649266 0.649266 0.250000
O O16 0.000000 0.500000 0.500000
#
# Coordination Sequence:
#
# PCOD9567773 Si02
#       7
#    16  16  16  16  16  16  16
#     4  12  20  38  62  87 118 169 209 248 328 386
#     4  11  20  39  60  84 126 162 197 267 322 371
#     4  10  21  35  58  86 123 163 212 255 312 374
#     4  11  21  38  60  83 131 168 205 257 311 378
#     4  11  18  34  60  85 119 163 222 260 306 365
#     4  11  21  38  66  96 118 147 208 270 319 382
#     4   9  19  36  51  87 124 165 200 266 302 347
#
# _framework density 18.715157999999999
#
# number of rings (size 3 to 8) (size 9 to 14) (size 15 to 20)
#    0.000    1.286    8.571    0.000    0.000    3.429 
#    0.000    9.286    0.000    3.429    0.000    2.000 
#    0.000    0.000    0.000    0.000    0.000    0.000 
#
# Total GULP energy -623522.357139 kJ/mol
# GULP energy per Si atom -5567.163903 kJ/mol
# Density = 1.867256 g / cm^3
# Si number density = 18.715158 Si / 1000 Ang^3
#
#
#
# Elastic Constant Matrix: (Units=GPa)
#
#
# Indices 1 2 3 4 5 6 
#
# 1 65.9365 11.7764 19.0354 0.0000 0.0000 0.0000
# 2 11.7764 65.9365 19.0354 0.0000 0.0000 0.0000
# 3 19.0354 19.0354 71.3773 0.0000 0.0000 0.0000
# 4 0.0000 0.0000 0.0000 16.4749 0.0000 0.0000
# 5 0.0000 0.0000 0.0000 0.0000 16.4749 0.0000
# 6 0.0000 0.0000 0.0000 0.0000 0.0000 54.7111
#
#
#
# Elastic Compliance Matrix: (Units=1/GPa)
#
#
# Indices 1 2 3 4 5 6 
#
# 1 0.016633 -0.001831 -0.003947 0.000000 0.000000 0.000000
# 2 -0.001831 0.016633 -0.003947 0.000000 0.000000 0.000000
# 3 -0.003947 -0.003947 0.016115 0.000000 0.000000 0.000000
# 4 0.000000 0.000000 0.000000 0.060698 0.000000 0.000000
# 5 0.000000 0.000000 0.000000 0.000000 0.060698 0.000000
# 6 0.000000 0.000000 0.000000 0.000000 0.000000 0.018278
#
#
# Mechanical properties :
#
#
# Convention : Reuss Voigt Hill
#
# Bulk Modulus (GPa) = 33.41216 33.66049 33.53632
# Shear Modulus (GPa) = 22.88502 27.75907 25.32205
#
# Velocity S-wave (km/s) = 3.50066 3.85546 3.68234
# Velocity P-wave (km/s) = 5.85075 6.15176 6.00314
#
# Compressibility (1/GPa) = 0.02992923
#
# Stress axis : x y z
#
# Youngs Moduli (GPa) = 60.12243 60.12243 62.05209
#
# Poissons Ratio (x) = 0.11009 0.24494
# Poissons Ratio (y) = 0.11009 0.24494
# Poissons Ratio (z) = 0.23733 0.23733
#
# Static dielectric constant tensor:
#      x y z
#    x 1.691030 0.000000 0.000000 
#    y 0.000000 1.691030 0.000000 
#    z 0.000000 0.000000 1.748970 
# 
# From -- ./inp_files/7627.got.cif
#   From: 2010.05.17/outbox.cif.g08.bks.cpg/sg133_4_cif.got.tgz:7627.got - 2010.05.20 12:37:36.
