data_PCOD9567350
_publ_section_title
;
Structure prediction by ZEFSAII (Michael W. Deem and Ramdas Pophale) SiO2 
 PCOD9567350
Probable space group: P 42/M C M
;
_chemical_formula_sum "Si O2"
_cell_formula_units_Z 52
_cell_length_a 17.941850
_cell_length_b 17.941850
_cell_length_c 7.606635
_cell_angle_alpha 90.000000
_cell_angle_beta 90.000000
_cell_angle_gamma 90.000000
_cell_volume 2448.651732
_symmetry_space_group_name_H-M "P 42/M C M"
_symmetry_group_IT_number 132
_symmetry_cell_setting 'tetragonal'
loop_
_space_group_symop_operation_xyz
x,y,z
-y,x,1/2+z
-x,-y,z
y,-x,1/2+z
x,-y,1/2-z
-x,y,1/2-z
y,x,-z
-y,-x,-z
-x,-y,-z
y,-x,1/2-z
x,y,-z
-y,x,1/2-z
-x,y,1/2+z
x,-y,1/2+z
-y,-x,z
y,x,z
loop_
_atom_site_type_symbol
_atom_site_label
_atom_site_fract_x
_atom_site_fract_y
_atom_site_fract_z
Si Si1 0.258613 0.082581 0.198412
Si Si2 0.874317 0.416647 0.209830
Si Si3 0.702462 0.583455 0.289304
Si Si4 0.187112 0.812888 0.000000
O O1 0.348491 0.083134 0.204369
O O2 0.231551 0.140206 0.344963
O O3 0.231574 0.000000 0.250000
O O4 0.234542 0.100422 0.000000
O O5 0.900901 0.500000 0.250000
O O6 0.787737 0.411341 0.273457
O O7 0.875525 0.407143 0.000000
O O8 0.674852 0.500000 0.250000
O O9 0.705599 0.591556 0.500000
O O10 0.647340 0.647340 0.221042
#
# Coordination Sequence:
#
# PCOD9567350 Si02
#       4
#    16  16  16   4
#     4  12  25  46  74 108 143 185 232 285 356 423
#     4  10  20  37  62  95 138 181 230 286 345 412
#     4   9  19  33  51  74 112 159 211 274 331 389
#     4  12  26  48  76 107 148 178 231 304 330 440
#
# _framework density 21.236173999999998
#
# number of rings (size 3 to 8) (size 9 to 14) (size 15 to 20)
#    0.000    1.538    3.077    1.385    2.154    2.769 
#    0.000    4.615    0.000    1.385    0.000    0.000 
#    0.000    0.000    0.000    0.000    0.000    0.000 
#
# Total GULP energy -289575.871968 kJ/mol
# GULP energy per Si atom -5568.766769 kJ/mol
# Density = 2.118784 g / cm^3
# Si number density = 21.236174 Si / 1000 Ang^3
#
#
#
# Elastic Constant Matrix: (Units=GPa)
#
#
# Indices 1 2 3 4 5 6 
#
# 1 44.6643 41.1340 23.7300 0.0000 0.0000 0.0000
# 2 41.1340 44.6652 23.7305 0.0000 0.0000 0.0000
# 3 23.7300 23.7305 158.9573 0.0000 0.0000 0.0000
# 4 0.0000 0.0000 0.0000 12.5449 0.0000 0.0000
# 5 0.0000 0.0000 0.0000 0.0000 12.5439 0.0000
# 6 0.0000 0.0000 0.0000 0.0000 0.0000 370.1682
#
#
#
# Elastic Compliance Matrix: (Units=1/GPa)
#
#
# Indices 1 2 3 4 5 6 
#
# 1 0.147967 -0.135261 -0.001896 0.000000 0.000000 0.000000
# 2 -0.135261 0.147964 -0.001897 0.000000 0.000000 0.000000
# 3 -0.001896 -0.001897 0.006857 0.000000 0.000000 0.000000
# 4 0.000000 0.000000 0.000000 0.079713 0.000000 0.000000
# 5 0.000000 0.000000 0.000000 0.000000 0.079720 0.000000
# 6 0.000000 0.000000 0.000000 0.000000 0.000000 0.002701
#
#
# Mechanical properties :
#
#
# Convention : Reuss Voigt Hill
#
# Bulk Modulus (GPa) = 40.51941 47.27507 43.89724
# Shear Modulus (GPa) = 6.65550 89.69756 48.17653
#
# Velocity S-wave (km/s) = 1.77224 6.50614 4.76816
# Velocity P-wave (km/s) = 4.82800 8.87410 7.14350
#
# Compressibility (1/GPa) = 0.02467953
#
# Stress axis : x y z
#
# Youngs Moduli (GPa) = 6.75827 6.75840 145.83064
#
# Poissons Ratio (x) = 0.91415 0.27654
# Poissons Ratio (y) = 0.91413 0.27662
# Poissons Ratio (z) = 0.01282 0.01282
#
# Static dielectric constant tensor:
#      x y z
#    x 1.793170 0.000000 0.000000 
#    y 0.000000 1.793160 0.000000 
#    z 0.000000 0.000000 1.768510 
# 
# From -- ./inp_files/853.got.cif
#   From: 2010.05.17/outbox.cif.g08.bks.cpg/sg132_1_cif.got.tgz:853.got - 2010.05.20 12:30:18.
