data_PCOD9567504
_publ_section_title
;
Structure prediction by ZEFSAII (Michael W. Deem and Ramdas Pophale) SiO2 
 PCOD9567504
Probable space group: P 42/M C M
;
_chemical_formula_sum "Si O2"
_cell_formula_units_Z 116
_cell_length_a 18.788594
_cell_length_b 18.788594
_cell_length_c 15.575183
_cell_angle_alpha 90.000000
_cell_angle_beta 90.000000
_cell_angle_gamma 90.000000
_cell_volume 5498.215046
_symmetry_space_group_name_H-M "P 42/M C M"
_symmetry_group_IT_number 132
_symmetry_cell_setting 'tetragonal'
loop_
_space_group_symop_operation_xyz
x,y,z
-y,x,1/2+z
-x,-y,z
y,-x,1/2+z
x,-y,1/2-z
-x,y,1/2-z
y,x,-z
-y,-x,-z
-x,-y,-z
y,-x,1/2-z
x,y,-z
-y,x,1/2-z
-x,y,1/2+z
x,-y,1/2+z
-y,-x,z
y,x,z
loop_
_atom_site_type_symbol
_atom_site_label
_atom_site_fract_x
_atom_site_fract_y
_atom_site_fract_z
Si Si1 0.187671 0.925149 0.104858
Si Si2 0.707344 0.404913 0.838474
Si Si3 0.352432 0.128823 0.099176
Si Si4 0.342247 0.657754 0.500000
Si Si5 0.014216 0.580886 0.148407
Si Si6 0.434983 0.738541 0.356553
Si Si7 0.912036 0.798592 0.105092
Si Si8 0.332522 0.151593 0.397260
O O1 0.116306 0.883695 0.131578
O O2 0.256415 0.879411 0.131092
O O3 0.196582 0.006410 0.134262
O O4 0.187505 0.927006 0.000000
O O5 0.634819 0.365182 0.865765
O O6 0.725710 0.482085 0.877989
O O7 0.706511 0.419231 0.736821
O O8 0.773153 0.353223 0.858245
O O9 0.410031 0.178632 0.145466
O O10 0.272174 0.129814 0.134649
O O11 0.372551 0.046116 0.103262
O O12 0.350998 0.151608 0.000000
O O13 0.386421 0.700707 0.425597
O O14 0.092093 0.609049 0.126738
O O15 0.000000 0.500000 0.121931
O O16 0.000000 0.586362 0.250000
O O17 0.867801 0.867801 0.129439
O O18 0.913044 0.794359 0.000000
O O19 0.330668 0.159009 0.500000
#
# Coordination Sequence:
#
# PCOD9567504 Si02
#       8
#    16  16  16   4  16  16  16  16
#     4   9  17  32  52  81 122 165 213 266 318 381
#     4  11  25  46  68  98 139 174 218 276 336 403
#     4  11  21  36  61  92 127 164 212 271 327 396
#     4  12  24  48  77 104 132 174 229 276 340 402
#     4  11  23  38  56  84 124 166 211 266 330 393
#     4  11  25  44  71 102 133 172 219 279 343 396
#     4   9  18  30  51  84 119 158 205 267 328 379
#     4  11  22  38  61  92 130 175 221 266 328 405
#
# _framework density 21.097756
#
# number of rings (size 3 to 8) (size 9 to 14) (size 15 to 20)
#    0.000    1.517    2.759    2.483    1.931    5.517 
#    0.000    2.069    0.000    0.000    0.000    0.000 
#    0.000    1.103    0.000    0.000    0.000    0.000 
#
# Total GULP energy -647237.912939 kJ/mol
# GULP energy per Si atom -5579.637181 kJ/mol
# Density = 2.104974 g / cm^3
# Si number density = 21.097756 Si / 1000 Ang^3
#
#
#
# Elastic Constant Matrix: (Units=GPa)
#
#
# Indices 1 2 3 4 5 6 
#
# 1 77.8162 86.2532 3.7401 0.0000 0.0000 0.0000
# 2 86.2532 77.8152 3.7396 0.0000 0.0000 0.0000
# 3 3.7401 3.7396 37.4189 0.0000 0.0000 0.0000
# 4 0.0000 0.0000 0.0000 14.4742 0.0000 0.0000
# 5 0.0000 0.0000 0.0000 0.0000 14.4741 0.0000
# 6 0.0000 0.0000 0.0000 0.0000 0.0000 39.0837
#
#
#
# Elastic Compliance Matrix: (Units=1/GPa)
#
#
# Indices 1 2 3 4 5 6 
#
# 1 -0.056197 0.062321 -0.000611 0.000000 0.000000 0.000000
# 2 0.062321 -0.056198 -0.000613 0.000000 0.000000 0.000000
# 3 -0.000611 -0.000613 0.026847 0.000000 0.000000 0.000000
# 4 0.000000 0.000000 0.000000 0.069088 0.000000 0.000000
# 5 0.000000 0.000000 0.000000 0.000000 0.069089 0.000000
# 6 0.000000 0.000000 0.000000 0.000000 0.000000 0.025586
#
#
# Mechanical properties :
#
#
# Convention : Reuss Voigt Hill
#
# Bulk Modulus (GPa) = 27.28903 42.27957 34.78430
# Shear Modulus (GPa) = -157.41206 20.22756 -68.59225
#
# Velocity S-wave (km/s) = -8.64713 3.09973 -5.70808
# Velocity P-wave (km/s) = 9.31313 5.73537 5.18844
#
# Compressibility (1/GPa) = 0.03664477
#
# Stress axis : x y z
#
# Youngs Moduli (GPa) = -17.79442 -17.79420 37.24837
#
# Poissons Ratio (x) = 1.10895 0.02277
# Poissons Ratio (y) = 1.10896 0.02282
# Poissons Ratio (z) = -0.01088 -0.01090
#
# Static dielectric constant tensor:
#      x y z
#    x 1.756500 0.000000 0.000000 
#    y 0.000000 1.756500 0.000000 
#    z 0.000000 0.000000 1.776870 
# 
# From -- ./inp_files/6665.got.cif
#   From: 2010.05.17/outbox.cif.g08.bks.cpg/sg132_4_cif.got.tgz:6665.got - 2010.05.20 12:30:18.
