data_PCOD9567991
_publ_section_title
;
Structure prediction by ZEFSAII (Michael W. Deem and Ramdas Pophale) SiO2 
 PCOD9567991
Probable space group: P 42/N B C
;
_chemical_formula_sum "Si O2"
_cell_formula_units_Z 56
_cell_length_a 17.518666
_cell_length_b 17.518666
_cell_length_c 8.597522
_cell_angle_alpha 90.000000
_cell_angle_beta 90.000000
_cell_angle_gamma 90.000000
_cell_volume 2638.610955
_symmetry_space_group_name_H-M "P 42/N B C"
_symmetry_group_IT_number 133
_space_group.IT_coordinate_system_code '2'
_symmetry_cell_setting 'tetragonal'
loop_
_space_group_symop_operation_xyz
x,y,z
1/2-y,x,1/2+z
1/2-x,1/2-y,z
y,1/2-x,1/2+z
x,1/2-y,-z
1/2-x,y,-z
y,x,1/2-z
1/2-y,1/2-x,1/2-z
-x,-y,-z
1/2+y,-x,1/2-z
1/2+x,1/2+y,-z
-y,1/2+x,1/2-z
-x,1/2+y,z
1/2+x,-y,z
-y,-x,1/2+z
1/2+y,1/2+x,1/2+z
loop_
_atom_site_type_symbol
_atom_site_label
_atom_site_fract_x
_atom_site_fract_y
_atom_site_fract_z
Si Si1 0.585819 0.913685 0.584959
Si Si2 0.594494 0.905507 0.250000
Si Si3 0.231684 0.045333 0.747239
Si Si4 0.868954 0.253891 0.313221
O O1 0.553479 0.946522 0.750000
O O2 0.561504 0.936690 0.413354
O O3 0.569810 0.823595 0.609255
O O4 0.675918 0.930352 0.605853
O O5 0.685208 0.919193 0.251464
O O6 0.240562 0.954574 0.753424
O O7 0.868005 0.250000 0.500000
O O8 0.826047 0.180299 0.243980
#
# Coordination Sequence:
#
# PCOD9567991 Si02
#       4
#    16   8  16  16
#     4   8  21  33  54  86 119 157 197 241 289 347
#     4  12  16  33  60  82 118 164 194 237 298 342
#     4   9  22  39  55  86 123 154 199 247 290 353
#     4  11  23  41  64  88 117 150 196 250 298 356
#
# _framework density 21.223289000000001
#
# number of rings (size 3 to 8) (size 9 to 14) (size 15 to 20)
#    1.714    0.286    0.000    5.143    0.000    6.857 
#    0.000    8.571    0.000   12.000    0.000    0.000 
#    0.000    0.000    0.000    0.000    0.000    0.000 
#
# Total GULP energy -311801.937295 kJ/mol
# GULP energy per Si atom -5567.891737 kJ/mol
# Density = 2.117498 g / cm^3
# Si number density = 21.223289 Si / 1000 Ang^3
#
#
#
# Elastic Constant Matrix: (Units=GPa)
#
#
# Indices 1 2 3 4 5 6 
#
# 1 94.5858 133.0000 16.8903 0.0000 0.0000 0.0000
# 2 133.0000 94.5800 16.8897 0.0000 0.0000 0.0000
# 3 16.8903 16.8897 165.1574 0.0000 0.0000 0.0000
# 4 0.0000 0.0000 0.0000 -6.2563 0.0000 0.0000
# 5 0.0000 0.0000 0.0000 0.0000 -6.2563 0.0000
# 6 0.0000 0.0000 0.0000 0.0000 0.0000 -8.7852
#
#
#
# Elastic Compliance Matrix: (Units=1/GPa)
#
#
# Indices 1 2 3 4 5 6 
#
# 1 -0.010784 0.015246 -0.000456 0.000000 0.000000 0.000000
# 2 0.015246 -0.010784 -0.000456 0.000000 0.000000 0.000000
# 3 -0.000456 -0.000456 0.006148 0.000000 0.000000 0.000000
# 4 0.000000 0.000000 0.000000 -0.159838 0.000000 0.000000
# 5 0.000000 0.000000 0.000000 0.000000 -0.159840 0.000000
# 6 0.000000 0.000000 0.000000 0.000000 0.000000 -0.113827
#
#
# Mechanical properties :
#
#
# Convention : Reuss Voigt Hill
#
# Bulk Modulus (GPa) = 75.49177 76.43148 75.96163
# Shear Modulus (GPa) = -10.56687 8.24331 -1.16178
#
# Velocity S-wave (km/s) = -2.23377 1.97295 -0.74067
# Velocity P-wave (km/s) = 5.38466 6.42505 5.92772
#
# Compressibility (1/GPa) = 0.01324648
#
# Stress axis : x y z
#
# Youngs Moduli (GPa) = -92.73141 -92.72577 162.65045
#
# Poissons Ratio (x) = 1.41369 0.07421
# Poissons Ratio (y) = 1.41377 0.07422
# Poissons Ratio (z) = -0.04231 -0.04231
#
# Static dielectric constant tensor:
#      x y z
#    x 1.708410 0.000000 0.000000 
#    y 0.000000 1.708410 0.000000 
#    z 0.000000 0.000000 1.864110 
# 
# From -- ./inp_files/1296.got.cif
#   From: 2010.05.17/outbox.cif.g08.bks.cpg/sg133_1_cif.got.tgz:1296.got - 2010.05.20 12:37:36.
