data_PCOD9567052
_publ_section_title
;
Structure prediction by ZEFSAII (Michael W. Deem and Ramdas Pophale) SiO2 
 PCOD9567052
Probable space group: P 42/M C M
;
_chemical_formula_sum "Si O2"
_cell_formula_units_Z 80
_cell_length_a 17.565235
_cell_length_b 17.565235
_cell_length_c 14.331533
_cell_angle_alpha 90.000000
_cell_angle_beta 90.000000
_cell_angle_gamma 90.000000
_cell_volume 4421.815085
_symmetry_space_group_name_H-M "P 42/M C M"
_symmetry_group_IT_number 132
_symmetry_cell_setting 'tetragonal'
loop_
_space_group_symop_operation_xyz
x,y,z
-y,x,1/2+z
-x,-y,z
y,-x,1/2+z
x,-y,1/2-z
-x,y,1/2-z
y,x,-z
-y,-x,-z
-x,-y,-z
y,-x,1/2-z
x,y,-z
-y,x,1/2-z
-x,y,1/2+z
x,-y,1/2+z
-y,-x,z
y,x,z
loop_
_atom_site_type_symbol
_atom_site_label
_atom_site_fract_x
_atom_site_fract_y
_atom_site_fract_z
Si Si1 0.263718 0.619137 0.106827
Si Si2 0.657012 0.221859 0.387138
Si Si3 0.532467 0.346880 0.350469
Si Si4 0.570624 0.100636 0.886106
Si Si5 0.396484 0.937367 0.386748
O O1 0.314414 0.685587 0.151817
O O2 0.314700 0.542973 0.101653
O O3 0.181593 0.600280 0.149233
O O4 0.248301 0.641728 0.000000
O O5 0.643328 0.224531 0.500000
O O6 0.736136 0.263865 0.369072
O O7 0.590440 0.275324 0.345550
O O8 0.654231 0.134091 0.357652
O O9 0.500000 0.369198 0.250000
O O10 0.582921 0.417080 0.388628
O O11 0.482572 0.086997 0.861135
O O12 0.615078 0.024487 0.855794
O O13 0.571219 0.103373 0.000000
O O14 0.393619 0.940373 0.500000
#
# Coordination Sequence:
#
# PCOD9567052 Si02
#       5
#    16  16  16  16  16
#     4  10  19  30  44  60  77  99 134 174 200 222
#     4   9  16  27  45  65  80  97 128 169 203 228
#     4  11  22  33  42  53  75 107 139 166 197 236
#     4   8  13  22  38  60  80  99 124 155 198 239
#     4   8  12  21  40  61  80  99 121 155 198 242
#
# _framework density 18.092119
#
# number of rings (size 3 to 8) (size 9 to 14) (size 15 to 20)
#    0.000    2.800    2.000    2.400    0.000    2.600 
#    0.000    1.000    0.000    2.400    0.000    0.000 
#    0.000    0.800    0.000   11.200    0.000    0.000 
#
# Total GULP energy -445994.340794 kJ/mol
# GULP energy per Si atom -5574.929260 kJ/mol
# Density = 1.805094 g / cm^3
# Si number density = 18.092119 Si / 1000 Ang^3
#
#
#
# Elastic Constant Matrix: (Units=GPa)
#
#
# Indices 1 2 3 4 5 6 
#
# 1 129.0459 75.7936 4.9393 0.0000 0.0000 0.0000
# 2 75.7936 129.0459 4.9393 0.0000 0.0000 0.0000
# 3 4.9393 4.9393 49.2426 0.0000 0.0000 0.0000
# 4 0.0000 0.0000 0.0000 7.9513 0.0000 0.0000
# 5 0.0000 0.0000 0.0000 0.0000 7.9513 0.0000
# 6 0.0000 0.0000 0.0000 0.0000 0.0000 20.2089
#
#
#
# Elastic Compliance Matrix: (Units=1/GPa)
#
#
# Indices 1 2 3 4 5 6 
#
# 1 0.011842 -0.006936 -0.000492 0.000000 0.000000 0.000000
# 2 -0.006936 0.011842 -0.000492 0.000000 0.000000 0.000000
# 3 -0.000492 -0.000492 0.020406 0.000000 0.000000 0.000000
# 4 0.000000 0.000000 0.000000 0.125765 0.000000 0.000000
# 5 0.000000 0.000000 0.000000 0.000000 0.125765 0.000000
# 6 0.000000 0.000000 0.000000 0.000000 0.000000 0.049483
#
#
# Mechanical properties :
#
#
# Convention : Reuss Voigt Hill
#
# Bulk Modulus (GPa) = 35.39908 53.18652 44.29280
# Shear Modulus (GPa) = 13.50031 21.99978 17.75005
#
# Velocity S-wave (km/s) = 2.73463 3.49088 3.13564
# Velocity P-wave (km/s) = 5.43870 6.76090 6.13552
#
# Compressibility (1/GPa) = 0.02824932
#
# Stress axis : x y z
#
# Youngs Moduli (GPa) = 84.44465 84.44465 49.00435
#
# Poissons Ratio (x) = 0.58575 0.02411
# Poissons Ratio (y) = 0.58575 0.02411
# Poissons Ratio (z) = 0.04155 0.04155
#
# Static dielectric constant tensor:
#      x y z
#    x 1.628750 0.000000 0.000000 
#    y 0.000000 1.628750 0.000000 
#    z 0.000000 0.000000 1.768220 
# 
# From -- ./inp_files/4643.got.cif
#   From: 2010.05.17/outbox.cif.g08.bks.cpg/sg132_3_cif.got.tgz:4643.got - 2010.05.20 12:30:18.
