data_PCOD9567310
_publ_section_title
;
Structure prediction by ZEFSAII (Michael W. Deem and Ramdas Pophale) SiO2 
 PCOD9567310
Probable space group: P 42/M C M
;
_chemical_formula_sum "Si O2"
_cell_formula_units_Z 96
_cell_length_a 22.224265
_cell_length_b 22.224265
_cell_length_c 8.739732
_cell_angle_alpha 90.000000
_cell_angle_beta 90.000000
_cell_angle_gamma 90.000000
_cell_volume 4316.710555
_symmetry_space_group_name_H-M "P 42/M C M"
_symmetry_group_IT_number 132
_symmetry_cell_setting 'tetragonal'
loop_
_space_group_symop_operation_xyz
x,y,z
-y,x,1/2+z
-x,-y,z
y,-x,1/2+z
x,-y,1/2-z
-x,y,1/2-z
y,x,-z
-y,-x,-z
-x,-y,-z
y,-x,1/2-z
x,y,-z
-y,x,1/2-z
-x,y,1/2+z
x,-y,1/2+z
-y,-x,z
y,x,z
loop_
_atom_site_type_symbol
_atom_site_label
_atom_site_fract_x
_atom_site_fract_y
_atom_site_fract_z
Si Si1 0.436136 0.334888 0.184012
Si Si2 0.200776 0.572528 0.171605
Si Si3 0.808956 0.713412 0.335521
Si Si4 0.058063 0.845450 0.181239
Si Si5 0.935550 0.587976 0.317129
Si Si6 0.079402 0.282045 0.172509
O O1 0.500000 0.359061 0.250000
O O2 0.378696 0.378696 0.229168
O O3 0.435818 0.264098 0.239232
O O4 0.437524 0.334771 0.000000
O O5 0.200049 0.643609 0.153653
O O6 0.131275 0.563084 0.234062
O O7 0.204595 0.544584 0.000000
O O8 0.837824 0.733674 0.500000
O O9 0.747065 0.747065 0.324079
O O10 0.849059 0.724799 0.188953
O O11 0.118482 0.881519 0.217397
O O12 0.059122 0.780137 0.256439
O O13 0.000000 0.878263 0.250000
O O14 0.052116 0.840834 0.000000
O O15 0.936809 0.581275 0.500000
O O16 0.934415 0.658654 0.270900
O O17 0.000000 0.565586 0.250000
O O18 0.058570 0.290755 0.000000
#
# Coordination Sequence:
#
# PCOD9567310 Si02
#       6
#    16  16  16  16  16  16
#     4  11  25  44  69 102 138 178 225 277 334 399
#     4   9  19  36  59  88 125 170 216 264 322 386
#     4   9  17  30  49  75 110 151 193 239 296 363
#     4  11  24  40  55  68  85 112 150 203 269 343
#     4  10  20  35  56  85 123 167 213 259 311 370
#     4  11  21  32  49  74 105 140 180 229 285 348
#
# _framework density 22.239156999999999
#
# number of rings (size 3 to 8) (size 9 to 14) (size 15 to 20)
#    0.000    1.833    0.000    5.500    0.000    9.333 
#    0.000    1.667    0.000    0.500    0.000    3.500 
#    0.000    0.000    0.000    0.000    0.000    0.000 
#
# Total GULP energy -534577.149613 kJ/mol
# GULP energy per Si atom -5568.511975 kJ/mol
# Density = 2.218854 g / cm^3
# Si number density = 22.239157 Si / 1000 Ang^3
#
#
#
# Elastic Constant Matrix: (Units=GPa)
#
#
# Indices 1 2 3 4 5 6 
#
# 1 127.3840 57.8244 41.4704 0.0000 0.0000 0.0000
# 2 57.8244 127.3840 41.4704 0.0000 0.0000 0.0000
# 3 41.4704 41.4704 70.7914 0.0000 0.0000 0.0000
# 4 0.0000 0.0000 0.0000 22.7132 0.0000 0.0000
# 5 0.0000 0.0000 0.0000 0.0000 22.7132 0.0000
# 6 0.0000 0.0000 0.0000 0.0000 0.0000 -26.0909
#
#
#
# Elastic Compliance Matrix: (Units=1/GPa)
#
#
# Indices 1 2 3 4 5 6 
#
# 1 0.010848 -0.003528 -0.004288 0.000000 0.000000 0.000000
# 2 -0.003528 0.010848 -0.004288 0.000000 0.000000 0.000000
# 3 -0.004288 -0.004288 0.019150 0.000000 0.000000 0.000000
# 4 0.000000 0.000000 0.000000 0.044027 0.000000 0.000000
# 5 0.000000 0.000000 0.000000 0.000000 0.044027 0.000000
# 6 0.000000 0.000000 0.000000 0.000000 0.000000 -0.038328
#
#
# Mechanical properties :
#
#
# Convention : Reuss Voigt Hill
#
# Bulk Modulus (GPa) = 60.10564 67.45441 63.78003
# Shear Modulus (GPa) = 41.55373 16.18673 28.87023
#
# Velocity S-wave (km/s) = 4.32730 2.70079 3.60692
# Velocity P-wave (km/s) = 7.21477 6.33427 6.78881
#
# Compressibility (1/GPa) = 0.01663737
#
# Stress axis : x y z
#
# Youngs Moduli (GPa) = 92.18415 92.18415 52.21998
#
# Poissons Ratio (x) = 0.32526 0.22391
# Poissons Ratio (y) = 0.32526 0.22391
# Poissons Ratio (z) = 0.39527 0.39527
#
# Static dielectric constant tensor:
#      x y z
#    x 1.873150 0.000000 0.000000 
#    y 0.000000 1.873150 0.000000 
#    z 0.000000 0.000000 1.861750 
# 
# From -- ./inp_files/1774.got.cif
#   From: 2010.05.17/outbox.cif.g08.bks.cpg/sg132_1_cif.got.tgz:1774.got - 2010.05.20 12:30:18.
