data_PCOD9567882
_publ_section_title
;
Structure prediction by ZEFSAII (Michael W. Deem and Ramdas Pophale) SiO2 
 PCOD9567882
Probable space group: P 42/N B C
;
_chemical_formula_sum "Si O2"
_cell_formula_units_Z 120
_cell_length_a 18.881187
_cell_length_b 18.881187
_cell_length_c 14.415296
_cell_angle_alpha 90.000000
_cell_angle_beta 90.000000
_cell_angle_gamma 90.000000
_cell_volume 5139.041817
_symmetry_space_group_name_H-M "P 42/N B C"
_symmetry_group_IT_number 133
_space_group.IT_coordinate_system_code '2'
_symmetry_cell_setting 'tetragonal'
loop_
_space_group_symop_operation_xyz
x,y,z
1/2-y,x,1/2+z
1/2-x,1/2-y,z
y,1/2-x,1/2+z
x,1/2-y,-z
1/2-x,y,-z
y,x,1/2-z
1/2-y,1/2-x,1/2-z
-x,-y,-z
1/2+y,-x,1/2-z
1/2+x,1/2+y,-z
-y,1/2+x,1/2-z
-x,1/2+y,z
1/2+x,-y,z
-y,-x,1/2+z
1/2+y,1/2+x,1/2+z
loop_
_atom_site_type_symbol
_atom_site_label
_atom_site_fract_x
_atom_site_fract_y
_atom_site_fract_z
Si Si1 0.875492 0.875492 0.750000
Si Si2 0.450823 0.772522 0.757845
Si Si3 0.061668 0.613542 0.595862
Si Si4 0.608346 0.801229 0.711654
Si Si5 0.964398 0.387633 0.732979
Si Si6 0.683022 0.803543 0.407083
Si Si7 0.060112 0.633522 0.925405
Si Si8 0.900274 0.600127 0.551184
O O1 0.862545 0.814655 0.826026
O O2 0.954082 0.874343 0.711113
O O3 0.431583 0.820002 0.666989
O O4 0.535660 0.785031 0.761661
O O5 0.432023 0.691035 0.742702
O O6 0.425164 0.799673 0.858517
O O7 0.072388 0.548775 0.669220
O O8 0.119618 0.608598 0.514693
O O9 0.985642 0.609362 0.542103
O O10 0.687362 0.812639 0.750000
O O11 0.618013 0.743642 0.630539
O O12 0.605355 0.876486 0.657938
O O13 0.928721 0.429723 0.650136
O O14 0.750000 0.750000 0.414164
O O15 0.652584 0.848500 0.493347
O O16 0.979508 0.626593 0.961383
#
# Coordination Sequence:
#
# PCOD9567882 Si02
#       8
#     8  16  16  16  16  16  16  16
#     4  12  21  38  66  94 144 194 247 300 342 420
#     4  10  23  41  67  99 140 177 224 307 374 444
#     4  10  23  40  68 100 134 183 245 309 376 437
#     4  11  21  41  61  88 132 195 237 276 351 421
#     4  11  23  41  69 108 137 183 248 309 372 444
#     4  12  26  40  59  94 143 201 253 285 338 421
#     4  11  22  43  69  98 138 186 245 316 378 430
#     4  11  23  41  65  94 135 189 256 311 347 414
#
# _framework density 23.350657999999999
#
# number of rings (size 3 to 8) (size 9 to 14) (size 15 to 20)
#    0.000    1.067    2.667    4.200    0.000    2.133 
#    0.000    1.333    0.000    6.400    0.000    7.467 
#    0.000    0.000    0.000    0.000    0.000    0.000 
#
# Total GULP energy -668844.813191 kJ/mol
# GULP energy per Si atom -5573.706777 kJ/mol
# Density = 2.329751 g / cm^3
# Si number density = 23.350658 Si / 1000 Ang^3
#
#
#
# Elastic Constant Matrix: (Units=GPa)
#
#
# Indices 1 2 3 4 5 6 
#
# 1 76.4363 37.8876 26.0512 0.0000 0.0000 0.0000
# 2 37.8876 76.4366 26.0519 0.0000 0.0000 0.0000
# 3 26.0512 26.0519 126.4928 0.0000 0.0000 0.0000
# 4 0.0000 0.0000 0.0000 26.0406 0.0000 0.0000
# 5 0.0000 0.0000 0.0000 0.0000 26.0403 0.0000
# 6 0.0000 0.0000 0.0000 0.0000 0.0000 40.9127
#
#
#
# Elastic Compliance Matrix: (Units=1/GPa)
#
#
# Indices 1 2 3 4 5 6 
#
# 1 0.017797 -0.008144 -0.001988 0.000000 0.000000 0.000000
# 2 -0.008144 0.017797 -0.001988 0.000000 0.000000 0.000000
# 3 -0.001988 -0.001988 0.008724 0.000000 0.000000 0.000000
# 4 0.000000 0.000000 0.000000 0.038402 0.000000 0.000000
# 5 0.000000 0.000000 0.000000 0.000000 0.038402 0.000000
# 6 0.000000 0.000000 0.000000 0.000000 0.000000 0.024442
#
#
# Mechanical properties :
#
#
# Convention : Reuss Voigt Hill
#
# Bulk Modulus (GPa) = 49.80476 51.03858 50.42167
# Shear Modulus (GPa) = 28.32895 31.22371 29.77633
#
# Velocity S-wave (km/s) = 3.48688 3.66070 3.57484
# Velocity P-wave (km/s) = 6.13078 6.30654 6.21928
#
# Compressibility (1/GPa) = 0.02007840
#
# Stress axis : x y z
#
# Youngs Moduli (GPa) = 56.18885 56.18880 114.61988
#
# Poissons Ratio (x) = 0.45760 0.22787
# Poissons Ratio (y) = 0.45760 0.22788
# Poissons Ratio (z) = 0.11170 0.11171
#
# Static dielectric constant tensor:
#      x y z
#    x 1.987250 0.000000 0.000000 
#    y 0.000000 1.987250 0.000000 
#    z 0.000000 0.000000 2.235060 
# 
# From -- ./inp_files/4695.got.cif
#   From: 2010.05.17/outbox.cif.g08.bks.cpg/sg133_3_cif.got.tgz:4695.got - 2010.05.20 12:37:36.
