data_PCOD9567341
_publ_section_title
;
Structure prediction by ZEFSAII (Michael W. Deem and Ramdas Pophale) SiO2 
 PCOD9567341
Probable space group: P 42/M C M
;
_chemical_formula_sum "Si O2"
_cell_formula_units_Z 88
_cell_length_a 17.785404
_cell_length_b 17.785404
_cell_length_c 13.733429
_cell_angle_alpha 90.000000
_cell_angle_beta 90.000000
_cell_angle_gamma 90.000000
_cell_volume 4344.166439
_symmetry_space_group_name_H-M "P 42/M C M"
_symmetry_group_IT_number 132
_symmetry_cell_setting 'tetragonal'
loop_
_space_group_symop_operation_xyz
x,y,z
-y,x,1/2+z
-x,-y,z
y,-x,1/2+z
x,-y,1/2-z
-x,y,1/2-z
y,x,-z
-y,-x,-z
-x,-y,-z
y,-x,1/2-z
x,y,-z
-y,x,1/2-z
-x,y,1/2+z
x,-y,1/2+z
-y,-x,z
y,x,z
loop_
_atom_site_type_symbol
_atom_site_label
_atom_site_fract_x
_atom_site_fract_y
_atom_site_fract_z
Si Si1 0.589863 0.292232 0.732199
Si Si2 0.616551 0.174641 0.114094
Si Si3 0.120956 0.761649 0.802603
Si Si4 0.081160 0.475698 0.116859
Si Si5 0.877776 0.000000 0.750000
Si Si6 0.163845 0.672293 0.615283
O O1 0.500000 0.293980 0.750000
O O2 0.625789 0.374212 0.720925
O O3 0.625259 0.250589 0.825975
O O4 0.626230 0.239659 0.646316
O O5 0.683505 0.117478 0.140512
O O6 0.537866 0.140138 0.150452
O O7 0.614351 0.187664 0.000000
O O8 0.192047 0.807954 0.841814
O O9 0.050538 0.818153 0.810531
O O10 0.142318 0.738561 0.690515
O O11 0.100840 0.390409 0.136588
O O12 0.000000 0.500000 0.149302
O O13 0.083175 0.482084 0.000000
O O14 0.935854 0.935854 0.791536
O O15 0.166043 0.691515 0.500000
#
# Coordination Sequence:
#
# PCOD9567341 Si02
#       6
#    16  16  16  16   8  16
#     4  11  23  39  58  83 112 151 202 244 293 354
#     4  10  20  37  59  84 117 150 183 234 294 351
#     4  10  22  36  56  87 109 141 196 236 280 339
#     4   9  18  31  51  83 114 144 180 214 276 357
#     4   9  20  42  64  83 120 164 198 239 284 334
#     4  10  20  37  59  84 117 150 183 234 294 351
#
# _framework density 20.25705
#
# number of rings (size 3 to 8) (size 9 to 14) (size 15 to 20)
#    0.000    2.091    1.818    2.182    2.545    3.091 
#    0.000    3.636    0.000    3.273    0.000   10.182 
#    0.000    0.000    0.000    0.000    0.000    0.000 
#
# Total GULP energy -490015.274513 kJ/mol
# GULP energy per Si atom -5568.355392 kJ/mol
# Density = 2.021094 g / cm^3
# Si number density = 20.257050 Si / 1000 Ang^3
#
#
#
# Elastic Constant Matrix: (Units=GPa)
#
#
# Indices 1 2 3 4 5 6 
#
# 1 86.4527 27.9159 -1.8693 0.0000 0.0000 0.0000
# 2 27.9159 86.4527 -1.8693 0.0000 0.0000 0.0000
# 3 -1.8693 -1.8693 81.2545 0.0000 0.0000 0.0000
# 4 0.0000 0.0000 0.0000 3.3172 0.0000 0.0000
# 5 0.0000 0.0000 0.0000 0.0000 3.3172 0.0000
# 6 0.0000 0.0000 0.0000 0.0000 0.0000 36.5715
#
#
#
# Elastic Compliance Matrix: (Units=1/GPa)
#
#
# Indices 1 2 3 4 5 6 
#
# 1 0.012917 -0.004167 0.000201 0.000000 0.000000 0.000000
# 2 -0.004167 0.012917 0.000201 0.000000 0.000000 0.000000
# 3 0.000201 0.000201 0.012316 0.000000 0.000000 0.000000
# 4 0.000000 0.000000 0.000000 0.301461 0.000000 0.000000
# 5 0.000000 0.000000 0.000000 0.000000 0.301461 0.000000
# 6 0.000000 0.000000 0.000000 0.000000 0.000000 0.027344
#
#
# Mechanical properties :
#
#
# Convention : Reuss Voigt Hill
#
# Bulk Modulus (GPa) = 32.65630 33.61273 33.13451
# Shear Modulus (GPa) = 7.28703 23.97335 15.63019
#
# Velocity S-wave (km/s) = 1.89871 3.44387 2.78077
# Velocity P-wave (km/s) = 4.57851 5.69586 5.16747
#
# Compressibility (1/GPa) = 0.03062196
#
# Stress axis : x y z
#
# Youngs Moduli (GPa) = 77.41888 77.41888 81.19338
#
# Poissons Ratio (x) = 0.32257 -0.01634
# Poissons Ratio (y) = 0.32257 -0.01634
# Poissons Ratio (z) = -0.01558 -0.01558
#
# Static dielectric constant tensor:
#      x y z
#    x 1.784400 0.000000 0.000000 
#    y 0.000000 1.784400 0.000000 
#    z 0.000000 0.000000 1.726100 
# 
# From -- ./inp_files/4792.got.cif
#   From: 2010.05.17/outbox.cif.g08.bks.cpg/sg132_3_cif.got.tgz:4792.got - 2010.05.20 12:30:18.
