data_PCOD9567840
_publ_section_title
;
Structure prediction by ZEFSAII (Michael W. Deem and Ramdas Pophale) SiO2 
 PCOD9567840
Probable space group: P 42/N B C
;
_chemical_formula_sum "Si O2"
_cell_formula_units_Z 92
_cell_length_a 14.044017
_cell_length_b 14.044017
_cell_length_c 20.463325
_cell_angle_alpha 90.000000
_cell_angle_beta 90.000000
_cell_angle_gamma 90.000000
_cell_volume 4036.071905
_symmetry_space_group_name_H-M "P 42/N B C"
_symmetry_group_IT_number 133
_space_group.IT_coordinate_system_code '2'
_symmetry_cell_setting 'tetragonal'
loop_
_space_group_symop_operation_xyz
x,y,z
1/2-y,x,1/2+z
1/2-x,1/2-y,z
y,1/2-x,1/2+z
x,1/2-y,-z
1/2-x,y,-z
y,x,1/2-z
1/2-y,1/2-x,1/2-z
-x,-y,-z
1/2+y,-x,1/2-z
1/2+x,1/2+y,-z
-y,1/2+x,1/2-z
-x,1/2+y,z
1/2+x,-y,z
-y,-x,1/2+z
1/2+y,1/2+x,1/2+z
loop_
_atom_site_type_symbol
_atom_site_label
_atom_site_fract_x
_atom_site_fract_y
_atom_site_fract_z
Si Si1 0.999135 0.782392 0.850776
Si Si2 0.554610 0.250000 0.500000
Si Si3 0.989569 0.166350 0.295167
Si Si4 0.891476 0.326045 0.363478
Si Si5 0.423800 0.449267 0.678274
Si Si6 0.250000 0.250000 0.500000
Si Si7 0.903858 0.861000 0.577926
O O1 0.972807 0.816483 0.777382
O O2 0.112042 0.797675 0.851825
O O3 0.959027 0.676031 0.860253
O O4 0.962170 0.859691 0.903135
O O5 0.609251 0.213911 0.436694
O O6 0.489553 0.337532 0.471844
O O7 0.907009 0.241716 0.311708
O O8 0.064963 0.183880 0.353024
O O9 0.954635 0.058454 0.306439
O O10 0.988015 0.391598 0.353038
O O11 0.405163 0.405163 0.750000
O O12 0.183953 0.190220 0.453723
#
# Coordination Sequence:
#
# PCOD9567840 Si02
#       7
#    16   8  16  16  16   4  16
#     4  12  23  38  70 104 136 173 225 300 355 415
#     4   9  24  45  68  86 134 200 229 280 335 418
#     4  11  21  43  68  97 135 181 220 293 356 419
#     4  11  24  46  67 101 142 181 239 277 351 421
#     4  12  23  41  67 105 142 173 229 284 362 429
#     4  10  24  40  54  94 132 180 242 274 336 442
#     4  10  22  39  64  90 132 177 228 284 346 408
#
# _framework density 22.794440000000002
#
# number of rings (size 3 to 8) (size 9 to 14) (size 15 to 20)
#    0.000    1.043    5.217    0.522    7.304    1.391 
#    0.000    2.609    0.000    5.217    0.000    0.000 
#    0.000    0.000    0.000    0.000    0.000    0.000 
#
# Total GULP energy -513590.457886 kJ/mol
# GULP energy per Si atom -5582.504977 kJ/mol
# Density = 2.274256 g / cm^3
# Si number density = 22.794440 Si / 1000 Ang^3
#
#
#
# Elastic Constant Matrix: (Units=GPa)
#
#
# Indices 1 2 3 4 5 6 
#
# 1 68.1215 8.2776 0.8629 0.0000 0.0000 0.0000
# 2 8.2776 68.1215 0.8629 0.0000 0.0000 0.0000
# 3 0.8629 0.8629 81.4709 0.0000 0.0000 0.0000
# 4 0.0000 0.0000 0.0000 19.2938 0.0000 0.0000
# 5 0.0000 0.0000 0.0000 0.0000 19.2938 0.0000
# 6 0.0000 0.0000 0.0000 0.0000 0.0000 15.5151
#
#
#
# Elastic Compliance Matrix: (Units=1/GPa)
#
#
# Indices 1 2 3 4 5 6 
#
# 1 0.014901 -0.001809 -0.000139 0.000000 0.000000 0.000000
# 2 -0.001809 0.014901 -0.000139 0.000000 0.000000 0.000000
# 3 -0.000139 -0.000139 0.012277 0.000000 0.000000 0.000000
# 4 0.000000 0.000000 0.000000 0.051830 0.000000 0.000000
# 5 0.000000 0.000000 0.000000 0.000000 0.051830 0.000000
# 6 0.000000 0.000000 0.000000 0.000000 0.000000 0.064453
#
#
# Mechanical properties :
#
#
# Convention : Reuss Voigt Hill
#
# Bulk Modulus (GPa) = 26.38023 26.41341 26.39682
# Shear Modulus (GPa) = 22.02631 24.66793 23.34712
#
# Velocity S-wave (km/s) = 3.11191 3.29324 3.20386
# Velocity P-wave (km/s) = 4.95078 5.10621 5.02909
#
# Compressibility (1/GPa) = 0.03790717
#
# Stress axis : x y z
#
# Youngs Moduli (GPa) = 67.10867 67.10867 81.45145
#
# Poissons Ratio (x) = 0.12139 0.01129
# Poissons Ratio (y) = 0.12139 0.01129
# Poissons Ratio (z) = 0.00931 0.00931
#
# Static dielectric constant tensor:
#      x y z
#    x 1.912300 0.000000 0.000000 
#    y 0.000000 1.912300 0.000000 
#    z 0.000000 0.000000 1.755010 
# 
# From -- ./inp_files/6573.got.cif
#   From: 2010.05.17/outbox.cif.g08.bks.cpg/sg133_4_cif.got.tgz:6573.got - 2010.05.20 12:37:36.
