data_PCOD9567247
_publ_section_title
;
Structure prediction by ZEFSAII (Michael W. Deem and Ramdas Pophale) SiO2 
 PCOD9567247
Probable space group: P 42/M C M
;
_chemical_formula_sum "Si O2"
_cell_formula_units_Z 96
_cell_length_a 25.134321
_cell_length_b 25.134321
_cell_length_c 8.752263
_cell_angle_alpha 90.000000
_cell_angle_beta 90.000000
_cell_angle_gamma 90.000000
_cell_volume 5529.102920
_symmetry_space_group_name_H-M "P 42/M C M"
_symmetry_group_IT_number 132
_symmetry_cell_setting 'tetragonal'
loop_
_space_group_symop_operation_xyz
x,y,z
-y,x,1/2+z
-x,-y,z
y,-x,1/2+z
x,-y,1/2-z
-x,y,1/2-z
y,x,-z
-y,-x,-z
-x,-y,-z
y,-x,1/2-z
x,y,-z
-y,x,1/2-z
-x,y,1/2+z
x,-y,1/2+z
-y,-x,z
y,x,z
loop_
_atom_site_type_symbol
_atom_site_label
_atom_site_fract_x
_atom_site_fract_y
_atom_site_fract_z
Si Si1 0.940658 0.551380 0.320262
Si Si2 0.242752 0.132100 0.181262
Si Si3 0.331648 0.059318 0.317232
Si Si4 0.558686 0.357356 0.818732
Si Si5 0.142675 0.059011 0.815862
Si Si6 0.248121 0.751880 0.818198
Si Si7 0.332499 0.667502 0.317215
O O1 0.912813 0.500000 0.250000
O O2 0.946034 0.543821 0.500000
O O3 0.917007 0.609313 0.292676
O O4 0.000000 0.553581 0.250000
O O5 0.289434 0.092374 0.224198
O O6 0.189078 0.100740 0.229877
O O7 0.255984 0.187273 0.263939
O O8 0.238517 0.141927 0.000000
O O9 0.321261 0.058327 0.500000
O O10 0.330912 0.000000 0.250000
O O11 0.500000 0.350909 0.750000
O O12 0.582850 0.417151 0.794953
O O13 0.606773 0.322767 0.743805
O O14 0.557325 0.347449 0.000000
O O15 0.086894 0.086894 0.772239
O O16 0.149892 0.000000 0.750000
O O17 0.144840 0.055346 0.000000
O O18 0.289892 0.710108 0.745332
O O19 0.252187 0.747814 0.000000
O O20 0.332076 0.667925 0.500000
#
# Coordination Sequence:
#
# PCOD9567247 Si02
#       7
#    16  16  16  16  16   8   8
#     4   9  16  26  43  67 100 136 174 213 256 313
#     4  11  22  39  60  82 110 143 182 231 284 334
#     4  10  20  33  50  79 112 144 180 224 277 330
#     4   9  18  31  50  80 119 159 204 251 300 355
#     4  10  22  40  59  83 116 148 183 225 267 324
#     4  12  24  40  62  85 110 139 184 236 284 344
#     4  10  20  36  57  81 112 151 195 241 295 349
#
# _framework density 17.362673000000001
#
# number of rings (size 3 to 8) (size 9 to 14) (size 15 to 20)
#    0.500    1.500    0.833    4.250    0.000    5.333 
#    0.000    1.667    0.000    1.000    0.000    4.667 
#    0.000    0.000    0.000    0.000    0.000    0.000 
#
# Total GULP energy -534611.859729 kJ/mol
# GULP energy per Si atom -5568.873539 kJ/mol
# Density = 1.732315 g / cm^3
# Si number density = 17.362673 Si / 1000 Ang^3
#
#
#
# Elastic Constant Matrix: (Units=GPa)
#
#
# Indices 1 2 3 4 5 6 
#
# 1 109.6835 64.0528 47.2917 0.0000 0.0000 0.0000
# 2 64.0528 109.6835 47.2917 0.0000 0.0000 0.0000
# 3 47.2917 47.2917 88.7660 0.0000 0.0000 0.0000
# 4 0.0000 0.0000 0.0000 26.8902 0.0000 0.0000
# 5 0.0000 0.0000 0.0000 0.0000 26.8901 0.0000
# 6 0.0000 0.0000 0.0000 0.0000 0.0000 23.3369
#
#
#
# Elastic Compliance Matrix: (Units=1/GPa)
#
#
# Indices 1 2 3 4 5 6 
#
# 1 0.015011 -0.006904 -0.004319 0.000000 0.000000 0.000000
# 2 -0.006904 0.015011 -0.004319 0.000000 0.000000 0.000000
# 3 -0.004319 -0.004319 0.015868 0.000000 0.000000 0.000000
# 4 0.000000 0.000000 0.000000 0.037188 0.000000 0.000000
# 5 0.000000 0.000000 0.000000 0.000000 0.037188 0.000000
# 6 0.000000 0.000000 0.000000 0.000000 0.000000 0.042851
#
#
# Mechanical properties :
#
#
# Convention : Reuss Voigt Hill
#
# Bulk Modulus (GPa) = 67.54327 69.48948 68.51637
# Shear Modulus (GPa) = 25.10822 25.38987 25.24905
#
# Velocity S-wave (km/s) = 3.80689 3.82818 3.81755
# Velocity P-wave (km/s) = 7.63604 7.72329 7.67979
#
# Compressibility (1/GPa) = 0.01480532
#
# Stress axis : x y z
#
# Youngs Moduli (GPa) = 66.61697 66.61692 63.01998
#
# Poissons Ratio (x) = 0.45991 0.27220
# Poissons Ratio (y) = 0.45991 0.27220
# Poissons Ratio (z) = 0.28774 0.28774
#
# Static dielectric constant tensor:
#      x y z
#    x 1.477670 0.000000 0.000000 
#    y 0.000000 1.477660 0.000000 
#    z 0.000000 0.000000 1.584450 
# 
# From -- ./inp_files/1821.got.cif
#   From: 2010.05.17/outbox.cif.g08.bks.cpg/sg132_1_cif.got.tgz:1821.got - 2010.05.20 12:30:18.
