data_PCOD9567909
_publ_section_title
;
Structure prediction by ZEFSAII (Michael W. Deem and Ramdas Pophale) SiO2 
 PCOD9567909
Probable space group: P 42/N B C
;
_chemical_formula_sum "Si O2"
_cell_formula_units_Z 60
_cell_length_a 17.058689
_cell_length_b 17.058689
_cell_length_c 8.492792
_cell_angle_alpha 90.000000
_cell_angle_beta 90.000000
_cell_angle_gamma 90.000000
_cell_volume 2471.392879
_symmetry_space_group_name_H-M "P 42/N B C"
_symmetry_group_IT_number 133
_space_group.IT_coordinate_system_code '2'
_symmetry_cell_setting 'tetragonal'
loop_
_space_group_symop_operation_xyz
x,y,z
1/2-y,x,1/2+z
1/2-x,1/2-y,z
y,1/2-x,1/2+z
x,1/2-y,-z
1/2-x,y,-z
y,x,1/2-z
1/2-y,1/2-x,1/2-z
-x,-y,-z
1/2+y,-x,1/2-z
1/2+x,1/2+y,-z
-y,1/2+x,1/2-z
-x,1/2+y,z
1/2+x,-y,z
-y,-x,1/2+z
1/2+y,1/2+x,1/2+z
loop_
_atom_site_type_symbol
_atom_site_label
_atom_site_fract_x
_atom_site_fract_y
_atom_site_fract_z
Si Si1 0.750000 0.250000 0.750000
Si Si2 0.875096 0.838002 0.070710
Si Si3 0.113859 0.954272 0.671056
Si Si4 0.136924 0.750000 0.000000
Si Si5 0.499991 0.339584 0.482207
O O1 0.791377 0.190636 0.631584
O O2 0.840638 0.840638 0.250000
O O3 0.962362 0.875253 0.084695
O O4 0.834880 0.905793 0.966223
O O5 0.874242 0.750000 0.000000
O O6 0.187617 0.909444 0.598443
O O7 0.121149 0.975825 0.852746
O O8 0.040844 0.896153 0.643987
O O9 0.528724 0.250000 0.500000
#
# Coordination Sequence:
#
# PCOD9567909 Si02
#       5
#     4  16  16   8  16
#     4  10  24  34  56  98 136 194 220 286 352 414
#     4  10  23  49  77 107 141 189 244 305 372 435
#     4  11  24  44  70 103 146 187 238 297 360 438
#     4  11  22  38  62  94 145 182 240 284 349 428
#     4  11  27  45  71 107 143 193 243 295 367 429
#
# _framework density 24.277806999999999
#
# number of rings (size 3 to 8) (size 9 to 14) (size 15 to 20)
#    0.000    1.333    1.333    2.400   11.200    0.533 
#    0.000   14.667    0.000    0.000    0.000    0.000 
#    0.000    0.000    0.000    0.000    0.000    0.000 
#
# Total GULP energy -335225.571162 kJ/mol
# GULP energy per Si atom -5587.092853 kJ/mol
# Density = 2.422255 g / cm^3
# Si number density = 24.277807 Si / 1000 Ang^3
#
#
#
# Elastic Constant Matrix: (Units=GPa)
#
#
# Indices 1 2 3 4 5 6 
#
# 1 146.5092 65.1023 38.9086 0.0000 0.0000 0.0000
# 2 65.1023 146.5092 38.9086 0.0000 0.0000 0.0000
# 3 38.9086 38.9086 62.8007 0.0000 0.0000 0.0000
# 4 0.0000 0.0000 0.0000 30.5226 0.0000 0.0000
# 5 0.0000 0.0000 0.0000 0.0000 30.5226 0.0000
# 6 0.0000 0.0000 0.0000 0.0000 0.0000 37.3674
#
#
#
# Elastic Compliance Matrix: (Units=1/GPa)
#
#
# Indices 1 2 3 4 5 6 
#
# 1 0.009202 -0.003082 -0.003792 0.000000 0.000000 0.000000
# 2 -0.003082 0.009202 -0.003792 0.000000 0.000000 0.000000
# 3 -0.003792 -0.003792 0.020622 0.000000 0.000000 0.000000
# 4 0.000000 0.000000 0.000000 0.032763 0.000000 0.000000
# 5 0.000000 0.000000 0.000000 0.000000 0.032763 0.000000
# 6 0.000000 0.000000 0.000000 0.000000 0.000000 0.026761
#
#
# Mechanical properties :
#
#
# Convention : Reuss Voigt Hill
#
# Bulk Modulus (GPa) = 56.51328 71.29537 63.90432
# Shear Modulus (GPa) = 31.53752 33.87580 32.70666
#
# Velocity S-wave (km/s) = 3.60811 3.73948 3.67438
# Velocity P-wave (km/s) = 6.37858 6.93362 6.66188
#
# Compressibility (1/GPa) = 0.01769496
#
# Stress axis : x y z
#
# Youngs Moduli (GPa) = 108.67228 108.67228 48.49258
#
# Poissons Ratio (x) = 0.33493 0.18387
# Poissons Ratio (y) = 0.33493 0.18387
# Poissons Ratio (z) = 0.41205 0.41205
#
# Static dielectric constant tensor:
#      x y z
#    x 2.034460 0.000000 0.000000 
#    y 0.000000 2.034460 0.000000 
#    z 0.000000 0.000000 1.924290 
# 
# From -- ./inp_files/1336.got.cif
#   From: 2010.05.17/outbox.cif.g08.bks.cpg/sg133_1_cif.got.tgz:1336.got - 2010.05.20 12:37:36.
