data_PCOD9567639
_publ_section_title
;
Structure prediction by ZEFSAII (Michael W. Deem and Ramdas Pophale) SiO2 
 PCOD9567639
Probable space group: P 42/N B C
;
_chemical_formula_sum "Si O2"
_cell_formula_units_Z 56
_cell_length_a 19.213754
_cell_length_b 19.213754
_cell_length_c 7.572961
_cell_angle_alpha 90.000000
_cell_angle_beta 90.000000
_cell_angle_gamma 90.000000
_cell_volume 2795.697462
_symmetry_space_group_name_H-M "P 42/N B C"
_symmetry_group_IT_number 133
_space_group.IT_coordinate_system_code '2'
_symmetry_cell_setting 'tetragonal'
loop_
_space_group_symop_operation_xyz
x,y,z
1/2-y,x,1/2+z
1/2-x,1/2-y,z
y,1/2-x,1/2+z
x,1/2-y,-z
1/2-x,y,-z
y,x,1/2-z
1/2-y,1/2-x,1/2-z
-x,-y,-z
1/2+y,-x,1/2-z
1/2+x,1/2+y,-z
-y,1/2+x,1/2-z
-x,1/2+y,z
1/2+x,-y,z
-y,-x,1/2+z
1/2+y,1/2+x,1/2+z
loop_
_atom_site_type_symbol
_atom_site_label
_atom_site_fract_x
_atom_site_fract_y
_atom_site_fract_z
Si Si1 0.490037 0.695486 0.656432
Si Si2 0.366748 0.169788 0.556016
Si Si3 0.649139 0.285030 0.190065
Si Si4 0.929671 0.750000 0.000000
O O1 0.477465 0.750000 0.500000
O O2 0.552432 0.647404 0.580262
O O3 0.415181 0.672442 0.728510
O O4 0.524920 0.730642 0.829634
O O5 0.366000 0.250000 0.500000
O O6 0.333552 0.166448 0.750000
O O7 0.316269 0.118672 0.450242
O O8 0.718273 0.331487 0.189153
O O9 0.634662 0.250000 0.000000
#
# Coordination Sequence:
#
# PCOD9567639 Si02
#       4
#    16  16  16   8
#     4  10  20  34  52  82 115 153 184 240 291 345
#     4   9  19  31  51  79 114 150 194 236 283 334
#     4  11  21  37  61  89 114 141 191 246 300 356
#     4  10  19  34  52  81 114 156 190 238 280 337
#
# _framework density 20.03078
#
# number of rings (size 3 to 8) (size 9 to 14) (size 15 to 20)
#    0.000    2.000    1.429    3.857    0.000   13.714 
#    0.000    0.000    0.000    1.714   22.286    0.000 
#    0.000    0.000    0.000    0.000    0.000    0.000 
#
# Total GULP energy -311882.584131 kJ/mol
# GULP energy per Si atom -5569.331859 kJ/mol
# Density = 1.998519 g / cm^3
# Si number density = 20.030780 Si / 1000 Ang^3
#
#
#
# Elastic Constant Matrix: (Units=GPa)
#
#
# Indices 1 2 3 4 5 6 
#
# 1 93.6127 17.4330 3.9929 0.0000 0.0000 0.0000
# 2 17.4330 93.6128 3.9938 0.0000 0.0000 0.0000
# 3 3.9929 3.9938 43.8834 0.0000 0.0000 0.0000
# 4 0.0000 0.0000 0.0000 25.7417 0.0000 0.0000
# 5 0.0000 0.0000 0.0000 0.0000 25.7417 0.0000
# 6 0.0000 0.0000 0.0000 0.0000 0.0000 0.3405
#
#
#
# Elastic Compliance Matrix: (Units=1/GPa)
#
#
# Indices 1 2 3 4 5 6 
#
# 1 0.011096 -0.002031 -0.000825 0.000000 0.000000 0.000000
# 2 -0.002031 0.011096 -0.000825 0.000000 0.000000 0.000000
# 3 -0.000825 -0.000825 0.022938 0.000000 0.000000 0.000000
# 4 0.000000 0.000000 0.000000 0.038847 0.000000 0.000000
# 5 0.000000 0.000000 0.000000 0.000000 0.038847 0.000000
# 6 0.000000 0.000000 0.000000 0.000000 0.000000 2.937143
#
#
# Mechanical properties :
#
#
# Convention : Reuss Voigt Hill
#
# Bulk Modulus (GPa) = 26.47776 31.32758 28.90267
# Shear Modulus (GPa) = 1.62342 24.07739 12.85041
#
# Velocity S-wave (km/s) = 0.90123 3.47078 2.53560
# Velocity P-wave (km/s) = 3.78552 5.63342 4.79925
#
# Compressibility (1/GPa) = 0.03776755
#
# Stress axis : x y z
#
# Youngs Moduli (GPa) = 90.12473 90.12468 43.59621
#
# Poissons Ratio (x) = 0.18305 0.03596
# Poissons Ratio (y) = 0.18305 0.03597
# Poissons Ratio (z) = 0.07433 0.07435
#
# Static dielectric constant tensor:
#      x y z
#    x 1.737250 0.000000 0.000000 
#    y 0.000000 1.737250 0.000000 
#    z 0.000000 0.000000 1.795650 
# 
# From -- ./inp_files/1482.got.cif
#   From: 2010.05.17/outbox.cif.g08.bks.cpg/sg133_1_cif.got.tgz:1482.got - 2010.05.20 12:37:36.
