data_PCOD9567316
_publ_section_title
;
Structure prediction by ZEFSAII (Michael W. Deem and Ramdas Pophale) SiO2 
 PCOD9567316
Probable space group: P 42/M C M
;
_chemical_formula_sum "Si O2"
_cell_formula_units_Z 96
_cell_length_a 25.893157
_cell_length_b 25.893157
_cell_length_c 8.936811
_cell_angle_alpha 90.000000
_cell_angle_beta 90.000000
_cell_angle_gamma 90.000000
_cell_volume 5991.734797
_symmetry_space_group_name_H-M "P 42/M C M"
_symmetry_group_IT_number 132
_symmetry_cell_setting 'tetragonal'
loop_
_space_group_symop_operation_xyz
x,y,z
-y,x,1/2+z
-x,-y,z
y,-x,1/2+z
x,-y,1/2-z
-x,y,1/2-z
y,x,-z
-y,-x,-z
-x,-y,-z
y,-x,1/2-z
x,y,-z
-y,x,1/2-z
-x,y,1/2+z
x,-y,1/2+z
-y,-x,z
y,x,z
loop_
_atom_site_type_symbol
_atom_site_label
_atom_site_fract_x
_atom_site_fract_y
_atom_site_fract_z
Si Si1 0.835237 0.749709 0.318665
Si Si2 0.948048 0.240087 0.829475
Si Si3 0.759150 0.443897 0.179921
Si Si4 0.052919 0.365782 0.327260
Si Si5 0.636613 0.838449 0.820916
Si Si6 0.639217 0.555459 0.320290
O O1 0.838118 0.742008 0.500000
O O2 0.789068 0.789068 0.287332
O O3 0.890995 0.772366 0.268939
O O4 0.828397 0.694349 0.241504
O O5 0.948982 0.302936 0.827710
O O6 0.000000 0.222031 0.750000
O O7 0.950302 0.222553 0.000000
O O8 0.770310 0.500000 0.250000
O O9 0.796478 0.401781 0.251674
O O10 0.698959 0.432089 0.215125
O O11 0.765039 0.445145 0.000000
O O12 0.056190 0.382386 0.500000
O O13 0.104586 0.379431 0.237488
O O14 0.000000 0.383818 0.250000
O O15 0.636359 0.837105 0.000000
O O16 0.626638 0.500000 0.250000
O O17 0.635736 0.551228 0.500000
O O18 0.599816 0.599816 0.270142
#
# Coordination Sequence:
#
# PCOD9567316 Si02
#       6
#    16  16  16  16  16  16
#     4   9  18  32  47  65  94 130 164 199 242 291
#     4   8  14  24  40  61  85 117 155 192 232 279
#     4  10  20  36  55  73  95 126 164 203 239 279
#     4   9  16  28  46  69  95 124 159 199 241 283
#     4  11  21  32  48  72  99 128 162 198 240 292
#     4   9  19  35  54  76 100 126 156 191 234 283
#
# _framework density 16.022072000000001
#
# number of rings (size 3 to 8) (size 9 to 14) (size 15 to 20)
#    0.000    2.667    0.000    3.500    0.000    6.167 
#    0.000    2.500    0.000    0.500    0.000    3.500 
#    0.000    0.333    0.000    4.167    0.000    0.167 
#
# Total GULP energy -534901.860848 kJ/mol
# GULP energy per Si atom -5571.894384 kJ/mol
# Density = 1.598560 g / cm^3
# Si number density = 16.022072 Si / 1000 Ang^3
#
#
#
# Elastic Constant Matrix: (Units=GPa)
#
#
# Indices 1 2 3 4 5 6 
#
# 1 108.7905 90.9070 57.5308 0.0000 0.0000 0.0000
# 2 90.9070 108.7905 57.5308 0.0000 0.0000 0.0000
# 3 57.5308 57.5308 82.1490 0.0000 0.0000 0.0000
# 4 0.0000 0.0000 0.0000 23.2907 0.0000 0.0000
# 5 0.0000 0.0000 0.0000 0.0000 23.2907 0.0000
# 6 0.0000 0.0000 0.0000 0.0000 0.0000 -4.0945
#
#
#
# Elastic Compliance Matrix: (Units=1/GPa)
#
#
# Indices 1 2 3 4 5 6 
#
# 1 0.032156 -0.023761 -0.005879 0.000000 0.000000 0.000000
# 2 -0.023761 0.032156 -0.005879 0.000000 0.000000 0.000000
# 3 -0.005879 -0.005879 0.020408 0.000000 0.000000 0.000000
# 4 0.000000 0.000000 0.000000 0.042936 0.000000 0.000000
# 5 0.000000 0.000000 0.000000 0.000000 0.042936 0.000000
# 6 0.000000 0.000000 0.000000 0.000000 0.000000 -0.244228
#
#
# Mechanical properties :
#
#
# Convention : Reuss Voigt Hill
#
# Bulk Modulus (GPa) = 73.09479 79.07416 76.08447
# Shear Modulus (GPa) = 2546.34237 14.74811 1280.54524
#
# Velocity S-wave (km/s) = 39.90892 3.03724 28.30147
# Velocity P-wave (km/s) = 46.57627 7.85877 33.39992
#
# Compressibility (1/GPa) = 0.01368087
#
# Stress axis : x y z
#
# Youngs Moduli (GPa) = 31.09809 31.09809 49.00090
#
# Poissons Ratio (x) = 0.73893 0.28809
# Poissons Ratio (y) = 0.73893 0.28809
# Poissons Ratio (z) = 0.18283 0.18283
#
# Static dielectric constant tensor:
#      x y z
#    x 1.529770 0.000000 0.000000 
#    y 0.000000 1.529770 0.000000 
#    z 0.000000 0.000000 1.542290 
# 
# From -- ./inp_files/1758.got.cif
#   From: 2010.05.17/outbox.cif.g08.bks.cpg/sg132_1_cif.got.tgz:1758.got - 2010.05.20 12:30:18.
