data_PCOD9567308
_publ_section_title
;
Structure prediction by ZEFSAII (Michael W. Deem and Ramdas Pophale) SiO2 
 PCOD9567308
Probable space group: P 42/M C M
;
_chemical_formula_sum "Si O2"
_cell_formula_units_Z 88
_cell_length_a 12.349546
_cell_length_b 12.349546
_cell_length_c 31.088557
_cell_angle_alpha 90.000000
_cell_angle_beta 90.000000
_cell_angle_gamma 90.000000
_cell_volume 4741.355821
_symmetry_space_group_name_H-M "P 42/M C M"
_symmetry_group_IT_number 132
_symmetry_cell_setting 'tetragonal'
loop_
_space_group_symop_operation_xyz
x,y,z
-y,x,1/2+z
-x,-y,z
y,-x,1/2+z
x,-y,1/2-z
-x,y,1/2-z
y,x,-z
-y,-x,-z
-x,-y,-z
y,-x,1/2-z
x,y,-z
-y,x,1/2-z
-x,y,1/2+z
x,-y,1/2+z
-y,-x,z
y,x,z
loop_
_atom_site_type_symbol
_atom_site_label
_atom_site_fract_x
_atom_site_fract_y
_atom_site_fract_z
Si Si1 0.755678 0.069710 0.109411
Si Si2 0.129400 0.305914 0.951149
Si Si3 0.124100 0.517244 0.095322
Si Si4 0.776903 0.041595 0.299612
Si Si5 0.319363 0.500000 0.250000
Si Si6 0.781973 0.398459 0.674131
O O1 0.860493 0.139508 0.097090
O O2 0.646368 0.135624 0.096212
O O3 0.741104 0.956887 0.083291
O O4 0.765954 0.043192 0.160678
O O5 0.242336 0.242336 0.944453
O O6 0.136302 0.436234 0.945140
O O7 0.093244 0.283424 0.000000
O O8 0.195320 0.458262 0.130389
O O9 0.000000 0.500000 0.109705
O O10 0.886156 0.113845 0.305119
O O11 0.675855 0.121407 0.308185
O O12 0.775162 0.000000 0.250000
O O13 0.396441 0.603560 0.246596
O O14 0.245995 0.511662 0.291182
O O15 0.680950 0.319051 0.668719
#
# Coordination Sequence:
#
# PCOD9567308 Si02
#       6
#    16  16  16  16   8  16
#     4  11  24  39  58  89 125 156 193 245 299 353
#     4  10  21  40  67  92 115 151 196 239 291 356
#     4  10  20  36  57  84 115 151 189 235 287 347
#     4  11  23  38  56  81 116 162 204 243 293 350
#     4   9  20  34  49  76 112 150 193 246 301 346
#     4  10  20  35  56  79 109 150 196 245 289 341
#
# _framework density 18.560092000000001
#
# number of rings (size 3 to 8) (size 9 to 14) (size 15 to 20)
#    0.000    1.727    3.636    1.636    2.545    6.727 
#    0.000    0.909    0.000    1.636    0.000    1.273 
#    0.000    0.000    0.000    0.000    0.000    0.000 
#
# Total GULP energy -490176.903376 kJ/mol
# GULP energy per Si atom -5570.192084 kJ/mol
# Density = 1.851785 g / cm^3
# Si number density = 18.560092 Si / 1000 Ang^3
#
#
#
# Elastic Constant Matrix: (Units=GPa)
#
#
# Indices 1 2 3 4 5 6 
#
# 1 49.4222 17.7995 21.0591 0.0000 0.0000 0.0000
# 2 17.7995 49.4222 21.0591 0.0000 0.0000 0.0000
# 3 21.0591 21.0591 98.5664 0.0000 0.0000 0.0000
# 4 0.0000 0.0000 0.0000 23.7251 0.0000 0.0000
# 5 0.0000 0.0000 0.0000 0.0000 23.7251 0.0000
# 6 0.0000 0.0000 0.0000 0.0000 0.0000 55.7907
#
#
#
# Elastic Compliance Matrix: (Units=1/GPa)
#
#
# Indices 1 2 3 4 5 6 
#
# 1 0.024399 -0.007224 -0.003670 0.000000 0.000000 0.000000
# 2 -0.007224 0.024399 -0.003670 0.000000 0.000000 0.000000
# 3 -0.003670 -0.003670 0.011713 0.000000 0.000000 0.000000
# 4 0.000000 0.000000 0.000000 0.042149 0.000000 0.000000
# 5 0.000000 0.000000 0.000000 0.000000 0.042149 0.000000
# 6 0.000000 0.000000 0.000000 0.000000 0.000000 0.017924
#
#
# Mechanical properties :
#
#
# Convention : Reuss Voigt Hill
#
# Bulk Modulus (GPa) = 31.86150 35.24960 33.55555
# Shear Modulus (GPa) = 24.71303 29.81440 27.26371
#
# Velocity S-wave (km/s) = 3.65295 4.01230 3.83684
# Velocity P-wave (km/s) = 5.91574 6.36382 6.14387
#
# Compressibility (1/GPa) = 0.03138584
#
# Stress axis : x y z
#
# Youngs Moduli (GPa) = 40.98514 40.98514 85.37172
#
# Poissons Ratio (x) = 0.29607 0.31328
# Poissons Ratio (y) = 0.29607 0.31328
# Poissons Ratio (z) = 0.15040 0.15040
#
# Static dielectric constant tensor:
#      x y z
#    x 1.347810 0.000000 0.000000 
#    y 0.000000 1.347810 0.000000 
#    z 0.000000 0.000000 1.630110 
# 
# From -- ./inp_files/10753.got.cif
#   From: 2010.05.17/outbox.cif.g08.bks.cpg/sg132_6_cif.got.tgz:10753.got - 2010.05.20 12:30:18.
