data_PCOD9567038
_publ_section_title
;
Structure prediction by ZEFSAII (Michael W. Deem and Ramdas Pophale) SiO2 
 PCOD9567038
Probable space group: P 42/M C M
;
_chemical_formula_sum "Si O2"
_cell_formula_units_Z 80
_cell_length_a 17.607317
_cell_length_b 17.607317
_cell_length_c 14.656081
_cell_angle_alpha 90.000000
_cell_angle_beta 90.000000
_cell_angle_gamma 90.000000
_cell_volume 4543.643232
_symmetry_space_group_name_H-M "P 42/M C M"
_symmetry_group_IT_number 132
_symmetry_cell_setting 'tetragonal'
loop_
_space_group_symop_operation_xyz
x,y,z
-y,x,1/2+z
-x,-y,z
y,-x,1/2+z
x,-y,1/2-z
-x,y,1/2-z
y,x,-z
-y,-x,-z
-x,-y,-z
y,-x,1/2-z
x,y,-z
-y,x,1/2-z
-x,y,1/2+z
x,-y,1/2+z
-y,-x,z
y,x,z
loop_
_atom_site_type_symbol
_atom_site_label
_atom_site_fract_x
_atom_site_fract_y
_atom_site_fract_z
Si Si1 0.184989 0.698936 0.604295
Si Si2 0.718714 0.404427 0.153201
Si Si3 0.944352 0.601593 0.111933
Si Si4 0.427458 0.691095 0.368127
Si Si5 0.111614 0.565398 0.889539
O O1 0.168249 0.721521 0.500000
O O2 0.234372 0.765629 0.649137
O O3 0.107295 0.670028 0.646684
O O4 0.240788 0.626122 0.598009
O O5 0.667178 0.332823 0.122752
O O6 0.698181 0.484882 0.106200
O O7 0.699144 0.418537 0.259049
O O8 0.809893 0.399064 0.144850
O O9 0.903095 0.522538 0.138544
O O10 0.032183 0.603723 0.139005
O O11 0.943550 0.601285 0.000000
O O12 0.387351 0.612650 0.395186
O O13 0.115547 0.566453 0.000000
#
# Coordination Sequence:
#
# PCOD9567038 Si02
#       5
#    16  16  16  16  16
#     4   9  15  25  44  63  77  99 133 169 204 242
#     4  10  19  29  41  56  78 108 142 174 202 239
#     4   8  14  25  42  61  81 104 128 163 207 248
#     4   9  18  30  41  55  79 107 137 174 211 238
#     4   9  16  27  42  59  81 107 134 163 203 251
#
# _framework density 17.607016000000002
#
# number of rings (size 3 to 8) (size 9 to 14) (size 15 to 20)
#    0.000    3.000    2.000    1.200    0.000    0.800 
#    0.000    3.000    0.000    0.000    0.000    4.200 
#    0.000    0.800    0.000    7.800    0.000   11.200 
#
# Total GULP energy -445628.144917 kJ/mol
# GULP energy per Si atom -5570.351811 kJ/mol
# Density = 1.756694 g / cm^3
# Si number density = 17.607016 Si / 1000 Ang^3
#
#
#
# Elastic Constant Matrix: (Units=GPa)
#
#
# Indices 1 2 3 4 5 6 
#
# 1 131.5108 85.9069 4.6196 0.0000 0.0000 0.0000
# 2 85.9069 131.5108 4.6196 0.0000 0.0000 0.0000
# 3 4.6196 4.6196 42.1848 0.0000 0.0000 0.0000
# 4 0.0000 0.0000 0.0000 8.0954 0.0000 0.0000
# 5 0.0000 0.0000 0.0000 0.0000 8.0954 0.0000
# 6 0.0000 0.0000 0.0000 0.0000 0.0000 28.9118
#
#
#
# Elastic Compliance Matrix: (Units=1/GPa)
#
#
# Indices 1 2 3 4 5 6 
#
# 1 0.013274 -0.008654 -0.000506 0.000000 0.000000 0.000000
# 2 -0.008654 0.013274 -0.000506 0.000000 0.000000 0.000000
# 3 -0.000506 -0.000506 0.023816 0.000000 0.000000 0.000000
# 4 0.000000 0.000000 0.000000 0.123526 0.000000 0.000000
# 5 0.000000 0.000000 0.000000 0.000000 0.123526 0.000000
# 6 0.000000 0.000000 0.000000 0.000000 0.000000 0.034588
#
#
# Mechanical properties :
#
#
# Convention : Reuss Voigt Hill
#
# Bulk Modulus (GPa) = 32.22290 55.05539 43.63914
# Shear Modulus (GPa) = 13.82432 23.02455 18.42443
#
# Velocity S-wave (km/s) = 2.80511 3.62013 3.23836
# Velocity P-wave (km/s) = 5.36958 6.98646 6.23069
#
# Compressibility (1/GPa) = 0.03103383
#
# Stress axis : x y z
#
# Youngs Moduli (GPa) = 75.33269 75.33269 41.98848
#
# Poissons Ratio (x) = 0.65189 0.02125
# Poissons Ratio (y) = 0.65189 0.02125
# Poissons Ratio (z) = 0.03812 0.03812
#
# Static dielectric constant tensor:
#      x y z
#    x 1.620910 0.000000 0.000000 
#    y 0.000000 1.620910 0.000000 
#    z 0.000000 0.000000 1.701730 
# 
# From -- ./inp_files/4664.got.cif
#   From: 2010.05.17/outbox.cif.g08.bks.cpg/sg132_3_cif.got.tgz:4664.got - 2010.05.20 12:30:18.
