data_PCOD9567634
_publ_section_title
;
Structure prediction by ZEFSAII (Michael W. Deem and Ramdas Pophale) SiO2 
 PCOD9567634
Probable space group: P 42/N B C
;
_chemical_formula_sum "Si O2"
_cell_formula_units_Z 48
_cell_length_a 16.876408
_cell_length_b 16.876408
_cell_length_c 9.028554
_cell_angle_alpha 90.000000
_cell_angle_beta 90.000000
_cell_angle_gamma 90.000000
_cell_volume 2571.450877
_symmetry_space_group_name_H-M "P 42/N B C"
_symmetry_group_IT_number 133
_space_group.IT_coordinate_system_code '2'
_symmetry_cell_setting 'tetragonal'
loop_
_space_group_symop_operation_xyz
x,y,z
1/2-y,x,1/2+z
1/2-x,1/2-y,z
y,1/2-x,1/2+z
x,1/2-y,-z
1/2-x,y,-z
y,x,1/2-z
1/2-y,1/2-x,1/2-z
-x,-y,-z
1/2+y,-x,1/2-z
1/2+x,1/2+y,-z
-y,1/2+x,1/2-z
-x,1/2+y,z
1/2+x,-y,z
-y,-x,1/2+z
1/2+y,1/2+x,1/2+z
loop_
_atom_site_type_symbol
_atom_site_label
_atom_site_fract_x
_atom_site_fract_y
_atom_site_fract_z
Si Si1 0.155705 0.344296 0.250000
Si Si2 0.029378 0.675559 0.696788
Si Si3 0.250000 0.250000 0.000000
Si Si4 0.750000 0.250000 0.500000
Si Si5 0.835810 0.100550 0.871502
O O1 0.169564 0.437801 0.233747
O O2 0.194677 0.302549 0.106911
O O3 0.052200 0.658796 0.525008
O O4 0.058461 0.766303 0.721498
O O5 0.082000 0.614431 0.790548
O O6 0.688822 0.196837 0.592058
#
# Coordination Sequence:
#
# PCOD9567634 Si02
#       5
#     8  16   4   4  16
#     4  11  24  44  64  86 110 151 202 250 294 353
#     4  10  21  36  57  86 121 154 194 235 289 345
#     4  10  24  46  68  78 108 158 200 238 296 362
#     4   8  16  30  52  78 116 158 184 202 272 358
#     4  10  19  33  55  87 122 157 189 234 284 347
#
# _framework density 18.666505999999998
#
# number of rings (size 3 to 8) (size 9 to 14) (size 15 to 20)
#    0.000    2.333    0.000    6.000    0.000    6.667 
#    0.000    3.333    0.000    0.000    0.000    0.000 
#    0.000    0.000    0.000    0.000    0.000    0.000 
#
# Total GULP energy -267849.836086 kJ/mol
# GULP energy per Si atom -5580.204918 kJ/mol
# Density = 1.862402 g / cm^3
# Si number density = 18.666506 Si / 1000 Ang^3
#
#
#
# Elastic Constant Matrix: (Units=GPa)
#
#
# Indices 1 2 3 4 5 6 
#
# 1 174.7619 74.9285 64.3453 0.0000 0.0000 0.0000
# 2 74.9285 174.7644 64.3456 0.0000 0.0000 0.0000
# 3 64.3453 64.3456 89.0675 0.0000 0.0000 0.0000
# 4 0.0000 0.0000 0.0000 4.0331 0.0000 0.0000
# 5 0.0000 0.0000 0.0000 0.0000 4.0354 0.0000
# 6 0.0000 0.0000 0.0000 0.0000 0.0000 7.8809
#
#
#
# Elastic Compliance Matrix: (Units=1/GPa)
#
#
# Indices 1 2 3 4 5 6 
#
# 1 0.008199 -0.001818 -0.004610 0.000000 0.000000 0.000000
# 2 -0.001818 0.008199 -0.004610 0.000000 0.000000 0.000000
# 3 -0.004610 -0.004610 0.017888 0.000000 0.000000 0.000000
# 4 0.000000 0.000000 0.000000 0.247948 0.000000 0.000000
# 5 0.000000 0.000000 0.000000 0.000000 0.247808 0.000000
# 6 0.000000 0.000000 0.000000 0.000000 0.000000 0.126889
#
#
# Mechanical properties :
#
#
# Convention : Reuss Voigt Hill
#
# Bulk Modulus (GPa) = 81.89590 93.98140 87.93865
# Shear Modulus (GPa) = 7.31983 18.85482 13.08733
#
# Velocity S-wave (km/s) = 1.98239 3.18164 2.65073
# Velocity P-wave (km/s) = 7.01486 7.99712 7.52204
#
# Compressibility (1/GPa) = 0.01221062
#
# Stress axis : x y z
#
# Youngs Moduli (GPa) = 121.97004 121.97199 55.90383
#
# Poissons Ratio (x) = 0.22173 0.25770
# Poissons Ratio (y) = 0.22173 0.25770
# Poissons Ratio (z) = 0.56225 0.56225
#
# Static dielectric constant tensor:
#      x y z
#    x 1.630710 0.000000 0.000000 
#    y 0.000000 1.630710 0.000000 
#    z 0.000000 0.000000 1.693830 
# 
# From -- ./inp_files/1147.got.cif
#   From: 2010.05.17/outbox.cif.g08.bks.cpg/sg133_1_cif.got.tgz:1147.got - 2010.05.20 12:37:36.
