data_PCOD9567210
_publ_section_title
;
Structure prediction by ZEFSAII (Michael W. Deem and Ramdas Pophale) SiO2 
 PCOD9567210
Probable space group: P 42/M C M
;
_chemical_formula_sum "Si O2"
_cell_formula_units_Z 80
_cell_length_a 24.230134
_cell_length_b 24.230134
_cell_length_c 9.528696
_cell_angle_alpha 90.000000
_cell_angle_beta 90.000000
_cell_angle_gamma 90.000000
_cell_volume 5594.291644
_symmetry_space_group_name_H-M "P 42/M C M"
_symmetry_group_IT_number 132
_symmetry_cell_setting 'tetragonal'
loop_
_space_group_symop_operation_xyz
x,y,z
-y,x,1/2+z
-x,-y,z
y,-x,1/2+z
x,-y,1/2-z
-x,y,1/2-z
y,x,-z
-y,-x,-z
-x,-y,-z
y,-x,1/2-z
x,y,-z
-y,x,1/2-z
-x,y,1/2+z
x,-y,1/2+z
-y,-x,z
y,x,z
loop_
_atom_site_type_symbol
_atom_site_label
_atom_site_fract_x
_atom_site_fract_y
_atom_site_fract_z
Si Si1 0.090161 0.001779 0.000000
Si Si2 0.350715 0.555405 0.165482
Si Si3 0.172616 0.000000 0.750000
Si Si4 0.291307 0.196803 0.662040
Si Si5 0.272190 0.632888 0.337097
Si Si6 0.119147 0.211439 0.167692
O O1 0.130125 0.990425 0.873650
O O2 0.062886 0.062886 0.000000
O O3 0.040429 0.959572 0.000000
O O4 0.364355 0.500000 0.250000
O O5 0.401499 0.598502 0.172691
O O6 0.299764 0.584353 0.246210
O O7 0.339276 0.545506 0.000000
O O8 0.205064 0.944112 0.714850
O O9 0.305395 0.183399 0.500000
O O10 0.246729 0.246729 0.656404
O O11 0.341782 0.220288 0.753882
O O12 0.259750 0.148413 0.744339
O O13 0.260746 0.618304 0.500000
O O14 0.318487 0.681514 0.340989
O O15 0.155433 0.155433 0.193581
O O16 0.121864 0.221482 0.000000
#
# Coordination Sequence:
#
# PCOD9567210 Si02
#       6
#     8  16   8  16  16  16
#     4  11  22  34  46  58  74 102 142 184 223 262
#     4  10  20  32  46  65  92 127 167 206 238 268
#     4  12  22  33  46  60  80 106 139 182 228 272
#     4   9  17  28  45  66  84 104 134 174 220 271
#     4   9  16  28  46  66  88 114 145 183 227 272
#     4  10  20  33  45  59  80 106 137 175 222 274
#
# _framework density 14.300292000000001
#
# number of rings (size 3 to 8) (size 9 to 14) (size 15 to 20)
#    0.000    2.100    1.000    3.600    1.400    7.000 
#    0.000    1.000    0.000    0.000    0.000    0.000 
#    0.000    0.000    0.000    0.900    0.000   13.400 
#
# Total GULP energy -445650.694923 kJ/mol
# GULP energy per Si atom -5570.633687 kJ/mol
# Density = 1.426774 g / cm^3
# Si number density = 14.300292 Si / 1000 Ang^3
#
#
#
# Elastic Constant Matrix: (Units=GPa)
#
#
# Indices 1 2 3 4 5 6 
#
# 1 54.1751 34.1794 48.5076 0.0000 0.0000 0.0000
# 2 34.1794 54.1766 48.5084 0.0000 0.0000 0.0000
# 3 48.5076 48.5084 155.9860 0.0000 0.0000 0.0000
# 4 0.0000 0.0000 0.0000 23.3308 0.0000 0.0000
# 5 0.0000 0.0000 0.0000 0.0000 23.3305 0.0000
# 6 0.0000 0.0000 0.0000 0.0000 0.0000 13.2084
#
#
#
# Elastic Compliance Matrix: (Units=1/GPa)
#
#
# Indices 1 2 3 4 5 6 
#
# 1 0.033598 -0.016411 -0.005345 0.000000 0.000000 0.000000
# 2 -0.016411 0.033597 -0.005345 0.000000 0.000000 0.000000
# 3 -0.005345 -0.005345 0.009735 0.000000 0.000000 0.000000
# 4 0.000000 0.000000 0.000000 0.042862 0.000000 0.000000
# 5 0.000000 0.000000 0.000000 0.000000 0.042862 0.000000
# 6 0.000000 0.000000 0.000000 0.000000 0.000000 0.075709
#
#
# Mechanical properties :
#
#
# Convention : Reuss Voigt Hill
#
# Bulk Modulus (GPa) = 43.99580 58.52536 51.26058
# Shear Modulus (GPa) = 16.65887 20.85012 18.75449
#
# Velocity S-wave (km/s) = 3.41681 3.82255 3.62536
# Velocity P-wave (km/s) = 6.81165 7.77800 7.31081
#
# Compressibility (1/GPa) = 0.02272944
#
# Stress axis : x y z
#
# Youngs Moduli (GPa) = 29.76363 29.76440 102.72315
#
# Poissons Ratio (x) = 0.48847 0.54901
# Poissons Ratio (y) = 0.48846 0.54901
# Poissons Ratio (z) = 0.15907 0.15908
#
# Static dielectric constant tensor:
#      x y z
#    x 1.461850 0.000000 0.000000 
#    y 0.000000 1.461850 0.000000 
#    z 0.000000 0.000000 1.474470 
# 
# From -- ./inp_files/1662.got.cif
#   From: 2010.05.17/outbox.cif.g08.bks.cpg/sg132_1_cif.got.tgz:1662.got - 2010.05.20 12:30:18.
