data_PCOD9567935
_publ_section_title
;
Structure prediction by ZEFSAII (Michael W. Deem and Ramdas Pophale) SiO2 
 PCOD9567935
Probable space group: P 42/N B C
;
_chemical_formula_sum "Si O2"
_cell_formula_units_Z 84
_cell_length_a 15.783283
_cell_length_b 15.783283
_cell_length_c 15.925716
_cell_angle_alpha 90.000000
_cell_angle_beta 90.000000
_cell_angle_gamma 90.000000
_cell_volume 3967.287319
_symmetry_space_group_name_H-M "P 42/N B C"
_symmetry_group_IT_number 133
_space_group.IT_coordinate_system_code '2'
_symmetry_cell_setting 'tetragonal'
loop_
_space_group_symop_operation_xyz
x,y,z
1/2-y,x,1/2+z
1/2-x,1/2-y,z
y,1/2-x,1/2+z
x,1/2-y,-z
1/2-x,y,-z
y,x,1/2-z
1/2-y,1/2-x,1/2-z
-x,-y,-z
1/2+y,-x,1/2-z
1/2+x,1/2+y,-z
-y,1/2+x,1/2-z
-x,1/2+y,z
1/2+x,-y,z
-y,-x,1/2+z
1/2+y,1/2+x,1/2+z
loop_
_atom_site_type_symbol
_atom_site_label
_atom_site_fract_x
_atom_site_fract_y
_atom_site_fract_z
Si Si1 0.250000 0.250000 0.250000
Si Si2 0.814668 0.326197 0.368498
Si Si3 0.757775 0.570930 0.175075
Si Si4 0.437657 0.685167 0.205202
Si Si5 0.121804 0.977936 0.935638
Si Si6 0.437450 0.500225 0.123820
O O1 0.169204 0.248638 0.309771
O O2 0.750000 0.250000 0.379991
O O3 0.756658 0.407868 0.358740
O O4 0.869681 0.314099 0.282574
O O5 0.884542 0.338379 0.438947
O O6 0.715096 0.524878 0.254882
O O7 0.696331 0.537387 0.100538
O O8 0.857001 0.545214 0.167774
O O9 0.438457 0.594638 0.161655
O O10 0.089958 0.003730 0.026590
O O11 0.037092 0.972558 0.875826
#
# Coordination Sequence:
#
# PCOD9567935 Si02
#       6
#     4  16  16  16  16  16
#     4  12  28  40  62  96 116 172 236 282 320 388
#     4  11  19  36  62  99 130 160 205 267 328 386
#     4  11  24  42  65  96 132 168 226 281 335 386
#     4  11  19  37  65  96 128 162 205 268 325 398
#     4  10  25  43  65  97 130 180 217 268 340 411
#     4  11  23  44  68  91 135 179 220 263 340 409
#
# _framework density 21.173158999999998
#
# number of rings (size 3 to 8) (size 9 to 14) (size 15 to 20)
#    0.000    1.143    3.810    2.857    2.667    3.048 
#    0.000    5.714    0.000    0.000    0.000    0.000 
#    0.000    0.000    0.000    0.000    0.000    0.000 
#
# Total GULP energy -469254.296185 kJ/mol
# GULP energy per Si atom -5586.360669 kJ/mol
# Density = 2.112497 g / cm^3
# Si number density = 21.173159 Si / 1000 Ang^3
#
#
#
# Elastic Constant Matrix: (Units=GPa)
#
#
# Indices 1 2 3 4 5 6 
#
# 1 150.3310 58.1534 17.8227 0.0000 0.0000 0.0000
# 2 58.1534 150.3310 17.8227 0.0000 0.0000 0.0000
# 3 17.8227 17.8227 19.3824 0.0000 0.0000 0.0000
# 4 0.0000 0.0000 0.0000 12.9019 0.0000 0.0000
# 5 0.0000 0.0000 0.0000 0.0000 12.9019 0.0000
# 6 0.0000 0.0000 0.0000 0.0000 0.0000 26.9848
#
#
#
# Elastic Compliance Matrix: (Units=1/GPa)
#
#
# Indices 1 2 3 4 5 6 
#
# 1 0.008270 -0.002579 -0.005233 0.000000 0.000000 0.000000
# 2 -0.002579 0.008270 -0.005233 0.000000 0.000000 0.000000
# 3 -0.005233 -0.005233 0.061218 0.000000 0.000000 0.000000
# 4 0.000000 0.000000 0.000000 0.077508 0.000000 0.000000
# 5 0.000000 0.000000 0.000000 0.000000 0.077508 0.000000
# 6 0.000000 0.000000 0.000000 0.000000 0.000000 0.037058
#
#
# Mechanical properties :
#
#
# Convention : Reuss Voigt Hill
#
# Bulk Modulus (GPa) = 19.35471 56.40466 37.87968
# Shear Modulus (GPa) = 15.96709 25.64076 20.80392
#
# Velocity S-wave (km/s) = 2.74910 3.48372 3.13798
# Velocity P-wave (km/s) = 4.38609 6.54823 5.57302
#
# Compressibility (1/GPa) = 0.05166701
#
# Stress axis : x y z
#
# Youngs Moduli (GPa) = 120.91971 120.91971 16.33514
#
# Poissons Ratio (x) = 0.31181 0.08549
# Poissons Ratio (y) = 0.31181 0.08549
# Poissons Ratio (z) = 0.63281 0.63281
#
# Static dielectric constant tensor:
#      x y z
#    x 1.717110 0.000000 0.000000 
#    y 0.000000 1.717110 0.000000 
#    z 0.000000 0.000000 1.831530 
# 
# From -- ./inp_files/6410.got.cif
#   From: 2010.05.17/outbox.cif.g08.bks.cpg/sg133_4_cif.got.tgz:6410.got - 2010.05.20 12:37:36.
