data_PCOD9567242
_publ_section_title
;
Structure prediction by ZEFSAII (Michael W. Deem and Ramdas Pophale) SiO2 
 PCOD9567242
Probable space group: P 42/M C M
;
_chemical_formula_sum "Si O2"
_cell_formula_units_Z 96
_cell_length_a 17.328616
_cell_length_b 17.328616
_cell_length_c 19.715069
_cell_angle_alpha 90.000000
_cell_angle_beta 90.000000
_cell_angle_gamma 90.000000
_cell_volume 5920.059303
_symmetry_space_group_name_H-M "P 42/M C M"
_symmetry_group_IT_number 132
_symmetry_cell_setting 'tetragonal'
loop_
_space_group_symop_operation_xyz
x,y,z
-y,x,1/2+z
-x,-y,z
y,-x,1/2+z
x,-y,1/2-z
-x,y,1/2-z
y,x,-z
-y,-x,-z
-x,-y,-z
y,-x,1/2-z
x,y,-z
-y,x,1/2-z
-x,y,1/2+z
x,-y,1/2+z
-y,-x,z
y,x,z
loop_
_atom_site_type_symbol
_atom_site_label
_atom_site_fract_x
_atom_site_fract_y
_atom_site_fract_z
Si Si1 0.181162 0.050292 0.681198
Si Si2 0.177144 0.690549 0.188254
Si Si3 0.787861 0.919600 0.078133
Si Si4 0.320307 0.188146 0.841595
Si Si5 0.266457 0.602293 0.921423
Si Si6 0.572086 0.697125 0.081170
O O1 0.109658 0.109658 0.682943
O O2 0.258916 0.100973 0.675988
O O3 0.181308 0.000000 0.750000
O O4 0.179286 0.992746 0.617936
O O5 0.246851 0.753150 0.188550
O O6 0.171811 0.657025 0.264149
O O7 0.200451 0.629768 0.130535
O O8 0.853238 0.853238 0.078586
O O9 0.715281 0.885114 0.119637
O O10 0.768216 0.935819 0.000000
O O11 0.250118 0.250118 0.839035
O O12 0.386808 0.230910 0.882919
O O13 0.334999 0.665002 0.918193
O O14 0.300626 0.518472 0.903405
O O15 0.239473 0.599909 0.000000
O O16 0.619845 0.619845 0.100992
O O17 0.580505 0.704734 0.000000
#
# Coordination Sequence:
#
# PCOD9567242 Si02
#       6
#    16  16  16  16  16  16
#     4  11  21  34  52  75 102 132 167 207 252 308
#     4   9  18  32  51  71  95 132 174 209 246 297
#     4  10  20  33  50  74 103 133 165 206 255 302
#     4   9  16  30  50  72  97 127 169 214 248 293
#     4   9  18  32  49  73 106 139 172 211 253 300
#     4   9  17  29  49  77 105 135 170 209 256 304
#
# _framework density 16.216054
#
# number of rings (size 3 to 8) (size 9 to 14) (size 15 to 20)
#    0.000    2.500    1.667    1.000    0.000    5.167 
#    0.000    4.167    0.000    1.000    0.000    8.167 
#    0.000    0.000    0.000    0.000    0.000    0.000 
#
# Total GULP energy -534764.473959 kJ/mol
# GULP energy per Si atom -5570.463270 kJ/mol
# Density = 1.617915 g / cm^3
# Si number density = 16.216054 Si / 1000 Ang^3
#
#
#
# Elastic Constant Matrix: (Units=GPa)
#
#
# Indices 1 2 3 4 5 6 
#
# 1 47.7540 57.6300 53.0869 0.0000 0.0000 0.0000
# 2 57.6300 47.7540 53.0869 0.0000 0.0000 0.0000
# 3 53.0869 53.0869 106.1950 0.0000 0.0000 0.0000
# 4 0.0000 0.0000 0.0000 25.1506 0.0000 0.0000
# 5 0.0000 0.0000 0.0000 0.0000 25.1506 0.0000
# 6 0.0000 0.0000 0.0000 0.0000 0.0000 15.9762
#
#
#
# Elastic Compliance Matrix: (Units=1/GPa)
#
#
# Indices 1 2 3 4 5 6 
#
# 1 -0.041069 0.060187 -0.009557 0.000000 0.000000 0.000000
# 2 0.060187 -0.041069 -0.009557 0.000000 0.000000 0.000000
# 3 -0.009557 -0.009557 0.018972 0.000000 0.000000 0.000000
# 4 0.000000 0.000000 0.000000 0.039760 0.000000 0.000000
# 5 0.000000 0.000000 0.000000 0.000000 0.039760 0.000000
# 6 0.000000 0.000000 0.000000 0.000000 0.000000 0.062593
#
#
# Mechanical properties :
#
#
# Convention : Reuss Voigt Hill
#
# Bulk Modulus (GPa) = 52.68903 58.81229 55.75066
# Shear Modulus (GPa) = 1599.00179 15.78211 807.39195
#
# Velocity S-wave (km/s) = 31.43567 3.12306 22.33781
# Velocity P-wave (km/s) = 36.74459 7.02505 26.45294
#
# Compressibility (1/GPa) = 0.01897928
#
# Stress axis : x y z
#
# Youngs Moduli (GPa) = -24.34905 -24.34905 52.71018
#
# Poissons Ratio (x) = 1.46550 0.50375
# Poissons Ratio (y) = 1.46550 0.50375
# Poissons Ratio (z) = -0.23270 -0.23270
#
# Static dielectric constant tensor:
#      x y z
#    x 1.533570 0.000000 0.000000 
#    y 0.000000 1.533570 0.000000 
#    z 0.000000 0.000000 1.554450 
# 
# From -- ./inp_files/6474.got.cif
#   From: 2010.05.17/outbox.cif.g08.bks.cpg/sg132_4_cif.got.tgz:6474.got - 2010.05.20 12:30:18.
