data_PCOD9567627
_publ_section_title
;
Structure prediction by ZEFSAII (Michael W. Deem and Ramdas Pophale) SiO2 
 PCOD9567627
Probable space group: P 42/N B C
;
_chemical_formula_sum "Si O2"
_cell_formula_units_Z 48
_cell_length_a 13.306291
_cell_length_b 13.306291
_cell_length_c 10.774902
_cell_angle_alpha 90.000000
_cell_angle_beta 90.000000
_cell_angle_gamma 90.000000
_cell_volume 1907.775920
_symmetry_space_group_name_H-M "P 42/N B C"
_symmetry_group_IT_number 133
_space_group.IT_coordinate_system_code '2'
_symmetry_cell_setting 'tetragonal'
loop_
_space_group_symop_operation_xyz
x,y,z
1/2-y,x,1/2+z
1/2-x,1/2-y,z
y,1/2-x,1/2+z
x,1/2-y,-z
1/2-x,y,-z
y,x,1/2-z
1/2-y,1/2-x,1/2-z
-x,-y,-z
1/2+y,-x,1/2-z
1/2+x,1/2+y,-z
-y,1/2+x,1/2-z
-x,1/2+y,z
1/2+x,-y,z
-y,-x,1/2+z
1/2+y,1/2+x,1/2+z
loop_
_atom_site_type_symbol
_atom_site_label
_atom_site_fract_x
_atom_site_fract_y
_atom_site_fract_z
Si Si1 0.079767 0.234632 0.203847
Si Si2 0.003899 0.883999 0.033143
Si Si3 0.794682 0.377076 0.184273
O O1 0.179508 0.179508 0.250000
O O2 0.155508 0.073273 0.640324
O O3 0.995544 0.221474 0.308473
O O4 0.032837 0.170529 0.090461
O O5 0.115880 0.859980 0.086440
O O6 0.000000 0.000000 0.000000
O O7 0.834413 0.319251 0.310118
#
# Coordination Sequence:
#
# PCOD9567627 Si02
#       3
#    16  16  16
#     4  10  19  32  53  83 124 169 230 294 364 445
#     4  10  19  32  53  83 123 170 230 295 363 454
#     4   9  18  32  51  80 121 164 217 294 361 432
#
# _framework density 25.160188000000002
#
# number of rings (size 3 to 8) (size 9 to 14) (size 15 to 20)
#    0.000    2.333    3.333    0.000    0.000    1.333 
#    0.000    6.667    0.000    0.000    0.000   18.667 
#    0.000    0.000    0.000   38.667    0.000   22.000 
#
# Total GULP energy -267388.286775 kJ/mol
# GULP energy per Si atom -5570.589308 kJ/mol
# Density = 2.510292 g / cm^3
# Si number density = 25.160188 Si / 1000 Ang^3
#
#
#
# Elastic Constant Matrix: (Units=GPa)
#
#
# Indices 1 2 3 4 5 6 
#
# 1 150.7167 80.0033 44.0924 0.0000 0.0000 0.0000
# 2 80.0033 150.7167 44.0924 0.0000 0.0000 0.0000
# 3 44.0924 44.0924 86.3738 0.0000 0.0000 0.0000
# 4 0.0000 0.0000 0.0000 41.9747 0.0000 0.0000
# 5 0.0000 0.0000 0.0000 0.0000 41.9747 0.0000
# 6 0.0000 0.0000 0.0000 0.0000 0.0000 29.4115
#
#
#
# Elastic Compliance Matrix: (Units=1/GPa)
#
#
# Indices 1 2 3 4 5 6 
#
# 1 0.009763 -0.004378 -0.002749 0.000000 0.000000 0.000000
# 2 -0.004378 0.009763 -0.002749 0.000000 0.000000 0.000000
# 3 -0.002749 -0.002749 0.014384 0.000000 0.000000 0.000000
# 4 0.000000 0.000000 0.000000 0.023824 0.000000 0.000000
# 5 0.000000 0.000000 0.000000 0.000000 0.023824 0.000000
# 6 0.000000 0.000000 0.000000 0.000000 0.000000 0.034000
#
#
# Mechanical properties :
#
#
# Convention : Reuss Voigt Hill
#
# Bulk Modulus (GPa) = 70.62980 80.46484 75.54732
# Shear Modulus (GPa) = 35.70651 37.31346 36.50999
#
# Velocity S-wave (km/s) = 3.77127 3.85520 3.81347
# Velocity P-wave (km/s) = 6.86267 7.20189 7.03433
#
# Compressibility (1/GPa) = 0.01415833
#
# Stress axis : x y z
#
# Youngs Moduli (GPa) = 102.42475 102.42475 69.52096
#
# Poissons Ratio (x) = 0.44845 0.19111
# Poissons Ratio (y) = 0.44845 0.19111
# Poissons Ratio (z) = 0.28156 0.28156
#
# Static dielectric constant tensor:
#      x y z
#    x 2.156610 0.000000 0.000000 
#    y 0.000000 2.156610 0.000000 
#    z 0.000000 0.000000 2.118690 
# 
# From -- ./inp_files/1097.got.cif
#   From: 2010.05.17/outbox.cif.g08.bks.cpg/sg133_1_cif.got.tgz:1097.got - 2010.05.20 12:37:36.
