data_PCOD9567163
_publ_section_title
;
Structure prediction by ZEFSAII (Michael W. Deem and Ramdas Pophale) SiO2 
 PCOD9567163
Probable space group: P 42/M C M
;
_chemical_formula_sum "Si O2"
_cell_formula_units_Z 88
_cell_length_a 18.556802
_cell_length_b 18.556802
_cell_length_c 14.813940
_cell_angle_alpha 90.000000
_cell_angle_beta 90.000000
_cell_angle_gamma 90.000000
_cell_volume 5101.252834
_symmetry_space_group_name_H-M "P 42/M C M"
_symmetry_group_IT_number 132
_symmetry_cell_setting 'tetragonal'
loop_
_space_group_symop_operation_xyz
x,y,z
-y,x,1/2+z
-x,-y,z
y,-x,1/2+z
x,-y,1/2-z
-x,y,1/2-z
y,x,-z
-y,-x,-z
-x,-y,-z
y,-x,1/2-z
x,y,-z
-y,x,1/2-z
-x,y,1/2+z
x,-y,1/2+z
-y,-x,z
y,x,z
loop_
_atom_site_type_symbol
_atom_site_label
_atom_site_fract_x
_atom_site_fract_y
_atom_site_fract_z
Si Si1 0.815129 0.303352 0.728688
Si Si2 0.163262 0.566285 0.608972
Si Si3 0.618250 0.008681 0.394037
Si Si4 0.151906 0.407771 0.393302
Si Si5 0.225865 0.038358 0.164653
Si Si6 0.879594 0.999324 0.500000
O O1 0.748171 0.251830 0.741837
O O2 0.798538 0.367007 0.657061
O O3 0.831768 0.344601 0.822777
O O4 0.880680 0.253272 0.689025
O O5 0.166277 0.571681 0.500000
O O6 0.186824 0.484914 0.631022
O O7 0.080301 0.580108 0.641131
O O8 0.629119 0.021634 0.500000
O O9 0.577953 0.933880 0.385461
O O10 0.697447 0.000080 0.353698
O O11 0.165674 0.390886 0.500000
O O12 0.171960 0.020797 0.083757
O O13 0.191305 0.000000 0.250000
O O14 0.944766 0.055235 0.500000
O O15 0.919611 0.919611 0.500000
#
# Coordination Sequence:
#
# PCOD9567163 Si02
#       6
#    16  16  16  16  16   8
#     4  11  23  35  52  80 111 147 187 226 273 329
#     4   9  19  33  54  80 108 143 178 220 273 331
#     4   9  16  31  52  79 109 133 169 213 266 331
#     4  10  19  34  54  79 111 144 180 219 268 335
#     4  11  21  39  58  80 105 139 183 235 288 337
#     4  11  26  44  60  76  97 138 198 260 307 330
#
# _framework density 17.250665000000001
#
# number of rings (size 3 to 8) (size 9 to 14) (size 15 to 20)
#    0.000    1.909    2.727    1.636    1.273    4.364 
#    0.000    2.727    0.000    0.000    0.000    0.000 
#    0.000    5.818    0.000   16.000    0.000    0.000 
#
# Total GULP energy -489918.536463 kJ/mol
# GULP energy per Si atom -5567.256096 kJ/mol
# Density = 1.721140 g / cm^3
# Si number density = 17.250665 Si / 1000 Ang^3
#
#
#
# Elastic Constant Matrix: (Units=GPa)
#
#
# Indices 1 2 3 4 5 6 
#
# 1 76.2638 38.3276 45.2657 0.0000 0.0000 0.0000
# 2 38.3276 76.2643 45.2659 0.0000 0.0000 0.0000
# 3 45.2657 45.2659 97.2354 0.0000 0.0000 0.0000
# 4 0.0000 0.0000 0.0000 10.1454 0.0000 0.0000
# 5 0.0000 0.0000 0.0000 0.0000 10.1446 0.0000
# 6 0.0000 0.0000 0.0000 0.0000 0.0000 15.7374
#
#
#
# Elastic Compliance Matrix: (Units=1/GPa)
#
#
# Indices 1 2 3 4 5 6 
#
# 1 0.020082 -0.006278 -0.006426 0.000000 0.000000 0.000000
# 2 -0.006278 0.020082 -0.006426 0.000000 0.000000 0.000000
# 3 -0.006426 -0.006426 0.016267 0.000000 0.000000 0.000000
# 4 0.000000 0.000000 0.000000 0.098566 0.000000 0.000000
# 5 0.000000 0.000000 0.000000 0.000000 0.098575 0.000000
# 6 0.000000 0.000000 0.000000 0.000000 0.000000 0.063543
#
#
# Mechanical properties :
#
#
# Convention : Reuss Voigt Hill
#
# Bulk Modulus (GPa) = 55.03455 56.38689 55.71072
# Shear Modulus (GPa) = 13.83389 15.26576 14.54982
#
# Velocity S-wave (km/s) = 2.83492 2.97802 2.90735
# Velocity P-wave (km/s) = 6.53359 6.67702 6.60569
#
# Compressibility (1/GPa) = 0.01817041
#
# Stress axis : x y z
#
# Youngs Moduli (GPa) = 49.79678 49.79698 61.47379
#
# Poissons Ratio (x) = 0.31264 0.39502
# Poissons Ratio (y) = 0.31264 0.39502
# Poissons Ratio (z) = 0.31998 0.31999
#
# Static dielectric constant tensor:
#      x y z
#    x 1.672210 0.000000 0.000000 
#    y 0.000000 1.672200 0.000000 
#    z 0.000000 0.000000 1.635500 
# 
# From -- ./inp_files/4760.got.cif
#   From: 2010.05.17/outbox.cif.g08.bks.cpg/sg132_3_cif.got.tgz:4760.got - 2010.05.20 12:30:18.
