data_PCOD9567884
_publ_section_title
;
Structure prediction by ZEFSAII (Michael W. Deem and Ramdas Pophale) SiO2 
 PCOD9567884
Probable space group: P 42/N B C
;
_chemical_formula_sum "Si O2"
_cell_formula_units_Z 48
_cell_length_a 13.918581
_cell_length_b 13.918581
_cell_length_c 10.893704
_cell_angle_alpha 90.000000
_cell_angle_beta 90.000000
_cell_angle_gamma 90.000000
_cell_volume 2110.403473
_symmetry_space_group_name_H-M "P 42/N B C"
_symmetry_group_IT_number 133
_space_group.IT_coordinate_system_code '2'
_symmetry_cell_setting 'tetragonal'
loop_
_space_group_symop_operation_xyz
x,y,z
1/2-y,x,1/2+z
1/2-x,1/2-y,z
y,1/2-x,1/2+z
x,1/2-y,-z
1/2-x,y,-z
y,x,1/2-z
1/2-y,1/2-x,1/2-z
-x,-y,-z
1/2+y,-x,1/2-z
1/2+x,1/2+y,-z
-y,1/2+x,1/2-z
-x,1/2+y,z
1/2+x,-y,z
-y,-x,1/2+z
1/2+y,1/2+x,1/2+z
loop_
_atom_site_type_symbol
_atom_site_label
_atom_site_fract_x
_atom_site_fract_y
_atom_site_fract_z
Si Si1 0.543702 0.304718 0.167458
Si Si2 0.250000 0.250000 0.000000
Si Si3 0.004444 0.004444 0.250000
Si Si4 0.750000 0.250000 0.250000
Si Si5 0.861404 0.567521 0.582193
O O1 0.516115 0.383464 0.268229
O O2 0.657317 0.284593 0.171213
O O3 0.488346 0.204785 0.181124
O O4 0.492783 0.344890 0.043018
O O5 0.174703 0.180257 0.930418
O O6 0.945141 0.967022 0.133076
#
# Coordination Sequence:
#
# PCOD9567884 Si02
#       5
#    16   4   8   4  16
#     4  10  23  41  63  94 130 168 222 269 329 396
#     4   8  20  42  60  90 128 168 212 266 320 390
#     4  12  22  41  66  95 128 170 216 274 336 392
#     4  12  20  46  64  96 130 180 208 286 340 380
#     4  10  23  42  62  93 131 168 219 271 325 404
#
# _framework density 22.744468000000001
#
# number of rings (size 3 to 8) (size 9 to 14) (size 15 to 20)
#    0.000    2.000    3.333    1.000    0.000    8.667 
#    0.000    0.000    0.000    0.000    0.000    0.000 
#    0.000    0.000    0.000    0.000    0.000    0.000 
#
# Total GULP energy -267454.554636 kJ/mol
# GULP energy per Si atom -5571.969888 kJ/mol
# Density = 2.269270 g / cm^3
# Si number density = 22.744468 Si / 1000 Ang^3
#
#
#
# Elastic Constant Matrix: (Units=GPa)
#
#
# Indices 1 2 3 4 5 6 
#
# 1 140.0573 38.6007 19.9884 0.0000 0.0000 0.0000
# 2 38.6007 140.0573 19.9884 0.0000 0.0000 0.0000
# 3 19.9884 19.9884 50.7712 0.0000 0.0000 0.0000
# 4 0.0000 0.0000 0.0000 20.8934 0.0000 0.0000
# 5 0.0000 0.0000 0.0000 0.0000 20.8934 0.0000
# 6 0.0000 0.0000 0.0000 0.0000 0.0000 11.3464
#
#
#
# Elastic Compliance Matrix: (Units=1/GPa)
#
#
# Indices 1 2 3 4 5 6 
#
# 1 0.007997 -0.001859 -0.002417 0.000000 0.000000 0.000000
# 2 -0.001859 0.007997 -0.002417 0.000000 0.000000 0.000000
# 3 -0.002417 -0.002417 0.021599 0.000000 0.000000 0.000000
# 4 0.000000 0.000000 0.000000 0.047862 0.000000 0.000000
# 5 0.000000 0.000000 0.000000 0.000000 0.047862 0.000000
# 6 0.000000 0.000000 0.000000 0.000000 0.000000 0.088134
#
#
# Mechanical properties :
#
#
# Convention : Reuss Voigt Hill
#
# Bulk Modulus (GPa) = 41.30711 54.22676 47.76694
# Shear Modulus (GPa) = 20.58414 27.44718 24.01566
#
# Velocity S-wave (km/s) = 3.01161 3.47762 3.25297
# Velocity P-wave (km/s) = 5.50399 6.32603 5.92927
#
# Compressibility (1/GPa) = 0.02420891
#
# Stress axis : x y z
#
# Youngs Moduli (GPa) = 125.04344 125.04344 46.29860
#
# Poissons Ratio (x) = 0.23248 0.11188
# Poissons Ratio (y) = 0.23248 0.11188
# Poissons Ratio (z) = 0.30217 0.30217
#
# Static dielectric constant tensor:
#      x y z
#    x 1.865270 0.000000 0.000000 
#    y 0.000000 1.865270 0.000000 
#    z 0.000000 0.000000 1.919030 
# 
# From -- ./inp_files/2718.got.cif
#   From: 2010.05.17/outbox.cif.g08.bks.cpg/sg133_2_cif.got.tgz:2718.got - 2010.05.20 12:37:36.
