data_PCOD9567150
_publ_section_title
;
Structure prediction by ZEFSAII (Michael W. Deem and Ramdas Pophale) SiO2 
 PCOD9567150
Probable space group: P 42/M C M
;
_chemical_formula_sum "Si O2"
_cell_formula_units_Z 88
_cell_length_a 17.318899
_cell_length_b 17.318899
_cell_length_c 15.240019
_cell_angle_alpha 90.000000
_cell_angle_beta 90.000000
_cell_angle_gamma 90.000000
_cell_volume 4571.156261
_symmetry_space_group_name_H-M "P 42/M C M"
_symmetry_group_IT_number 132
_symmetry_cell_setting 'tetragonal'
loop_
_space_group_symop_operation_xyz
x,y,z
-y,x,1/2+z
-x,-y,z
y,-x,1/2+z
x,-y,1/2-z
-x,y,1/2-z
y,x,-z
-y,-x,-z
-x,-y,-z
y,-x,1/2-z
x,y,-z
-y,x,1/2-z
-x,y,1/2+z
x,-y,1/2+z
-y,-x,z
y,x,z
loop_
_atom_site_type_symbol
_atom_site_label
_atom_site_fract_x
_atom_site_fract_y
_atom_site_fract_z
Si Si1 0.493422 0.797403 0.144173
Si Si2 0.296531 0.576514 0.500000
Si Si3 0.924823 0.379947 0.363407
Si Si4 0.938791 0.189621 0.826979
Si Si5 0.710212 0.165970 0.500000
Si Si6 0.098744 0.357554 0.344441
Si Si7 0.126327 0.005251 0.000000
O O1 0.500000 0.783779 0.250000
O O2 0.525375 0.726838 0.085566
O O3 0.545342 0.872349 0.117423
O O4 0.407409 0.828391 0.125743
O O5 0.379903 0.620098 0.500000
O O6 0.234423 0.646486 0.500000
O O7 0.885869 0.309601 0.415712
O O8 0.913662 0.371576 0.259479
O O9 0.015722 0.382727 0.384616
O O10 0.881617 0.118384 0.806530
O O11 0.891706 0.266205 0.851033
O O12 0.000000 0.204365 0.750000
O O13 0.988738 0.171356 0.912233
O O14 0.791613 0.208388 0.500000
O O15 0.087507 0.087507 0.000000
O O16 0.058173 0.941828 0.000000
#
# Coordination Sequence:
#
# PCOD9567150 Si02
#       7
#    16   8  16  16   8  16   8
#     4   9  18  32  56  80 113 160 196 225 288 348
#     4   9  18  34  55  88 125 155 189 230 272 343
#     4   9  17  32  48  71 105 147 190 240 286 352
#     4  11  22  38  56  77 108 146 193 252 308 349
#     4   9  18  30  48  75 110 144 183 233 297 353
#     4  10  19  34  48  75 107 142 196 241 292 352
#     4   9  20  38  57  73  92 135 199 251 294 352
#
# _framework density 19.251145999999999
#
# number of rings (size 3 to 8) (size 9 to 14) (size 15 to 20)
#    0.000    2.455    1.818    1.091    0.000    6.000 
#    0.000    6.364    0.000    0.000    0.000    1.909 
#    0.000    5.455    0.000    0.000    0.000    0.000 
#
# Total GULP energy -490530.453809 kJ/mol
# GULP energy per Si atom -5574.209702 kJ/mol
# Density = 1.920733 g / cm^3
# Si number density = 19.251146 Si / 1000 Ang^3
#
#
#
# Elastic Constant Matrix: (Units=GPa)
#
#
# Indices 1 2 3 4 5 6 
#
# 1 90.9907 47.2954 39.9821 0.0000 0.0000 0.0000
# 2 47.2954 90.9918 39.9820 0.0000 0.0000 0.0000
# 3 39.9821 39.9820 84.9572 0.0000 0.0000 0.0000
# 4 0.0000 0.0000 0.0000 29.9287 0.0000 0.0000
# 5 0.0000 0.0000 0.0000 0.0000 29.9197 0.0000
# 6 0.0000 0.0000 0.0000 0.0000 0.0000 38.4323
#
#
#
# Elastic Compliance Matrix: (Units=1/GPa)
#
#
# Indices 1 2 3 4 5 6 
#
# 1 0.016410 -0.006475 -0.004676 0.000000 0.000000 0.000000
# 2 -0.006475 0.016410 -0.004675 0.000000 0.000000 0.000000
# 3 -0.004676 -0.004675 0.016171 0.000000 0.000000 0.000000
# 4 0.000000 0.000000 0.000000 0.033413 0.000000 0.000000
# 5 0.000000 0.000000 0.000000 0.000000 0.033423 0.000000
# 6 0.000000 0.000000 0.000000 0.000000 0.000000 0.026020
#
#
# Mechanical properties :
#
#
# Convention : Reuss Voigt Hill
#
# Bulk Modulus (GPa) = 57.67287 57.93987 57.80637
# Shear Modulus (GPa) = 27.88942 28.96817 28.42879
#
# Velocity S-wave (km/s) = 3.81033 3.88332 3.84700
# Velocity P-wave (km/s) = 7.02718 7.09007 7.05870
#
# Compressibility (1/GPa) = 0.01733918
#
# Stress axis : x y z
#
# Youngs Moduli (GPa) = 60.93708 60.93811 61.83761
#
# Poissons Ratio (x) = 0.39459 0.28913
# Poissons Ratio (y) = 0.39458 0.28912
# Poissons Ratio (z) = 0.28492 0.28491
#
# Static dielectric constant tensor:
#      x y z
#    x 1.691460 0.000000 0.000000 
#    y 0.000000 1.691460 0.000000 
#    z 0.000000 0.000000 1.692130 
# 
# From -- ./inp_files/4820.got.cif
#   From: 2010.05.17/outbox.cif.g08.bks.cpg/sg132_3_cif.got.tgz:4820.got - 2010.05.20 12:30:18.
