data_PCOD9567724
_publ_section_title
;
Structure prediction by ZEFSAII (Michael W. Deem and Ramdas Pophale) SiO2 
 PCOD9567724
Probable space group: P 42/N B C
;
_chemical_formula_sum "Si O2"
_cell_formula_units_Z 108
_cell_length_a 14.572442
_cell_length_b 14.572442
_cell_length_c 23.268180
_cell_angle_alpha 90.000000
_cell_angle_beta 90.000000
_cell_angle_gamma 90.000000
_cell_volume 4941.139164
_symmetry_space_group_name_H-M "P 42/N B C"
_symmetry_group_IT_number 133
_space_group.IT_coordinate_system_code '2'
_symmetry_cell_setting 'tetragonal'
loop_
_space_group_symop_operation_xyz
x,y,z
1/2-y,x,1/2+z
1/2-x,1/2-y,z
y,1/2-x,1/2+z
x,1/2-y,-z
1/2-x,y,-z
y,x,1/2-z
1/2-y,1/2-x,1/2-z
-x,-y,-z
1/2+y,-x,1/2-z
1/2+x,1/2+y,-z
-y,1/2+x,1/2-z
-x,1/2+y,z
1/2+x,-y,z
-y,-x,1/2+z
1/2+y,1/2+x,1/2+z
loop_
_atom_site_type_symbol
_atom_site_label
_atom_site_fract_x
_atom_site_fract_y
_atom_site_fract_z
Si Si1 0.975574 0.546234 0.875679
Si Si2 0.851045 0.616548 0.525674
Si Si3 0.250000 0.750000 0.750000
Si Si4 0.845380 0.980422 0.645048
Si Si5 0.545061 0.706003 0.308487
Si Si6 0.079287 0.675328 0.804414
Si Si7 0.363838 0.363838 0.250000
Si Si8 0.802148 0.607088 0.086483
O O1 0.959004 0.601284 0.934440
O O2 0.891715 0.572294 0.833507
O O3 0.976530 0.436335 0.882961
O O4 0.060677 0.582421 0.838778
O O5 0.750000 0.594290 0.500000
O O6 0.845337 0.709590 0.563660
O O7 0.917466 0.644853 0.472450
O O8 0.184344 0.689582 0.789326
O O9 0.872205 0.951444 0.709141
O O10 0.830817 0.880168 0.616951
O O11 0.756341 0.042091 0.653485
O O12 0.472785 0.686236 0.257332
O O13 0.624639 0.766193 0.279823
O O14 0.531499 0.766434 0.367514
#
# Coordination Sequence:
#
# PCOD9567724 Si02
#       8
#    16  16   4  16  16  16   8  16
#     4  11  23  37  62  91 126 169 210 268 317 387
#     4  10  20  37  61  93 128 162 202 260 329 388
#     4  12  28  40  60  76 118 172 224 240 308 388
#     4  10  21  37  59  88 125 159 213 255 316 380
#     4   9  19  35  59  89 123 157 203 253 327 381
#     4  11  24  40  59  89 120 169 214 267 314 386
#     4   8  18  34  57  84 124 165 180 256 318 384
#     4   9  18  34  59  89 123 160 192 253 318 384
#
# _framework density 21.857306000000001
#
# number of rings (size 3 to 8) (size 9 to 14) (size 15 to 20)
#    0.000    2.074    0.000    3.111    8.296    1.778 
#    0.000   13.333    0.000    0.000    0.000    1.037 
#    0.000    0.000    0.000    0.000    0.000    0.000 
#
# Total GULP energy -601757.226984 kJ/mol
# GULP energy per Si atom -5571.826176 kJ/mol
# Density = 2.180756 g / cm^3
# Si number density = 21.857306 Si / 1000 Ang^3
#
#
#
# Elastic Constant Matrix: (Units=GPa)
#
#
# Indices 1 2 3 4 5 6 
#
# 1 47.1376 -6.2166 15.5919 0.0000 0.0000 0.0000
# 2 -6.2166 47.1376 15.5919 0.0000 0.0000 0.0000
# 3 15.5919 15.5919 98.6301 0.0000 0.0000 0.0000
# 4 0.0000 0.0000 0.0000 12.6487 0.0000 0.0000
# 5 0.0000 0.0000 0.0000 0.0000 12.6487 0.0000
# 6 0.0000 0.0000 0.0000 0.0000 0.0000 22.1087
#
#
#
# Elastic Compliance Matrix: (Units=1/GPa)
#
#
# Indices 1 2 3 4 5 6 
#
# 1 0.023264 0.004521 -0.004392 0.000000 0.000000 0.000000
# 2 0.004521 0.023264 -0.004392 0.000000 0.000000 0.000000
# 3 -0.004392 -0.004392 0.011528 0.000000 0.000000 0.000000
# 4 0.000000 0.000000 0.000000 0.079059 0.000000 0.000000
# 5 0.000000 0.000000 0.000000 0.000000 0.079059 0.000000
# 6 0.000000 0.000000 0.000000 0.000000 0.000000 0.045231
#
#
# Mechanical properties :
#
#
# Convention : Reuss Voigt Hill
#
# Bulk Modulus (GPa) = 20.19083 26.98216 23.58650
# Shear Modulus (GPa) = 17.45562 20.67711 19.06636
#
# Velocity S-wave (km/s) = 2.82905 3.07906 2.95669
# Velocity P-wave (km/s) = 4.46419 5.00123 4.74032
#
# Compressibility (1/GPa) = 0.04952742
#
# Stress axis : x y z
#
# Youngs Moduli (GPa) = 42.98563 42.98563 86.74836
#
# Poissons Ratio (x) = -0.19433 0.38102
# Poissons Ratio (y) = -0.19433 0.38102
# Poissons Ratio (z) = 0.18881 0.18881
#
# Static dielectric constant tensor:
#      x y z
#    x 1.822490 0.000000 0.000000 
#    y 0.000000 1.822490 0.000000 
#    z 0.000000 0.000000 1.905380 
# 
# From -- ./inp_files/7294.got.cif
#   From: 2010.05.17/outbox.cif.g08.bks.cpg/sg133_4_cif.got.tgz:7294.got - 2010.05.20 12:37:36.
