data_PCOD9567096
_publ_section_title
;
Structure prediction by ZEFSAII (Michael W. Deem and Ramdas Pophale) SiO2 
 PCOD9567096
Probable space group: P 42/M C M
;
_chemical_formula_sum "Si O2"
_cell_formula_units_Z 120
_cell_length_a 20.344519
_cell_length_b 20.344519
_cell_length_c 14.758850
_cell_angle_alpha 90.000000
_cell_angle_beta 90.000000
_cell_angle_gamma 90.000000
_cell_volume 6108.679947
_symmetry_space_group_name_H-M "P 42/M C M"
_symmetry_group_IT_number 132
_symmetry_cell_setting 'tetragonal'
loop_
_space_group_symop_operation_xyz
x,y,z
-y,x,1/2+z
-x,-y,z
y,-x,1/2+z
x,-y,1/2-z
-x,y,1/2-z
y,x,-z
-y,-x,-z
-x,-y,-z
y,-x,1/2-z
x,y,-z
-y,x,1/2-z
-x,y,1/2+z
x,-y,1/2+z
-y,-x,z
y,x,z
loop_
_atom_site_type_symbol
_atom_site_label
_atom_site_fract_x
_atom_site_fract_y
_atom_site_fract_z
Si Si1 0.227733 0.618082 0.653806
Si Si2 0.362986 0.257722 0.641275
Si Si3 0.496532 0.692127 0.354050
Si Si4 0.385133 0.105796 0.392105
Si Si5 0.665390 0.974209 0.108961
Si Si6 0.893917 0.536236 0.890610
Si Si7 0.445510 0.445510 0.898584
Si Si8 0.151013 0.253743 0.894371
O O1 0.259530 0.636430 0.749381
O O2 0.276110 0.568494 0.603077
O O3 0.164683 0.570827 0.663223
O O4 0.200955 0.684279 0.609629
O O5 0.302641 0.302641 0.609141
O O6 0.432835 0.287240 0.607400
O O7 0.361179 0.180249 0.620949
O O8 0.500000 0.715835 0.250000
O O9 0.479977 0.615998 0.352632
O O10 0.388240 0.094978 0.500000
O O11 0.461040 0.097958 0.361098
O O12 0.336885 0.048891 0.354946
O O13 0.589270 0.951622 0.120473
O O14 0.716011 0.917876 0.143475
O O15 0.677002 0.974991 0.000000
O O16 0.878901 0.535954 0.000000
O O17 0.500000 0.500000 0.905386
O O18 0.425395 0.425395 0.000000
O O19 0.190738 0.190738 0.854513
O O20 0.139215 0.238700 0.000000
#
# Coordination Sequence:
#
# PCOD9567096 Si02
#       8
#    16  16  16  16  16  16   8  16
#     4  10  19  33  50  72  94 121 160 198 240 298
#     4  11  23  37  51  68  92 125 168 209 249 295
#     4  10  23  37  55  67  86 126 163 198 253 315
#     4  10  19  32  50  70  94 128 164 203 247 291
#     4   8  15  28  47  72 101 129 160 192 235 297
#     4   9  16  29  50  74  98 123 153 193 241 292
#     4  11  26  40  52  74  90 106 150 216 270 306
#     4   9  17  29  49  76 105 132 157 193 239 285
#
# _framework density 19.644179000000001
#
# number of rings (size 3 to 8) (size 9 to 14) (size 15 to 20)
#    0.000    2.333    1.333    2.400    5.600    3.467 
#    0.000    2.667    0.000    3.200    0.000    0.000 
#    0.000    0.533    0.000    5.200    0.000    7.467 
#
# Total GULP energy -668521.441949 kJ/mol
# GULP energy per Si atom -5571.012016 kJ/mol
# Density = 1.959947 g / cm^3
# Si number density = 19.644179 Si / 1000 Ang^3
#
#
#
# Elastic Constant Matrix: (Units=GPa)
#
#
# Indices 1 2 3 4 5 6 
#
# 1 41.9877 153.8942 4.7518 0.0000 0.0000 0.0000
# 2 153.8942 41.9877 4.7518 0.0000 0.0000 0.0000
# 3 4.7518 4.7518 42.6352 0.0000 0.0000 0.0000
# 4 0.0000 0.0000 0.0000 66.6464 0.0000 0.0000
# 5 0.0000 0.0000 0.0000 0.0000 66.6464 0.0000
# 6 0.0000 0.0000 0.0000 0.0000 0.0000 26.0550
#
#
#
# Elastic Compliance Matrix: (Units=1/GPa)
#
#
# Indices 1 2 3 4 5 6 
#
# 1 -0.001902 0.007034 -0.000572 0.000000 0.000000 0.000000
# 2 0.007034 -0.001902 -0.000572 0.000000 0.000000 0.000000
# 3 -0.000572 -0.000572 0.023582 0.000000 0.000000 0.000000
# 4 0.000000 0.000000 0.000000 0.015005 0.000000 0.000000
# 5 0.000000 0.000000 0.000000 0.000000 0.015005 0.000000
# 6 0.000000 0.000000 0.000000 0.000000 0.000000 0.038380
#
#
# Mechanical properties :
#
#
# Convention : Reuss Voigt Hill
#
# Bulk Modulus (GPa) = 31.68592 50.37847 41.03220
# Shear Modulus (GPa) = 57.53220 29.41710 43.47465
#
# Velocity S-wave (km/s) = 5.41763 3.87395 4.70947
# Velocity P-wave (km/s) = 7.43635 6.76100 7.10670
#
# Compressibility (1/GPa) = 0.03155976
#
# Stress axis : x y z
#
# Youngs Moduli (GPa) = -525.87774 -525.87774 42.40469
#
# Poissons Ratio (x) = 3.69926 0.02426
# Poissons Ratio (y) = 3.69926 0.02426
# Poissons Ratio (z) = -0.30084 -0.30084
#
# Static dielectric constant tensor:
#      x y z
#    x 1.681220 0.000000 0.000000 
#    y 0.000000 1.681220 0.000000 
#    z 0.000000 0.000000 1.768700 
# 
# From -- ./inp_files/5123.got.cif
#   From: 2010.05.17/outbox.cif.g08.bks.cpg/sg132_3_cif.got.tgz:5123.got - 2010.05.20 12:30:18.
