data_PCOD9567285
_publ_section_title
;
Structure prediction by ZEFSAII (Michael W. Deem and Ramdas Pophale) SiO2 
 PCOD9567285
Probable space group: P 42/M C M
;
_chemical_formula_sum "Si O2"
_cell_formula_units_Z 48
_cell_length_a 11.738599
_cell_length_b 11.738599
_cell_length_c 15.970995
_cell_angle_alpha 90.000000
_cell_angle_beta 90.000000
_cell_angle_gamma 90.000000
_cell_volume 2200.718568
_symmetry_space_group_name_H-M "P 42/M C M"
_symmetry_group_IT_number 132
_symmetry_cell_setting 'tetragonal'
loop_
_space_group_symop_operation_xyz
x,y,z
-y,x,1/2+z
-x,-y,z
y,-x,1/2+z
x,-y,1/2-z
-x,y,1/2-z
y,x,-z
-y,-x,-z
-x,-y,-z
y,-x,1/2-z
x,y,-z
-y,x,1/2-z
-x,y,1/2+z
x,-y,1/2+z
-y,-x,z
y,x,z
loop_
_atom_site_type_symbol
_atom_site_label
_atom_site_fract_x
_atom_site_fract_y
_atom_site_fract_z
Si Si1 0.969088 0.209175 0.404565
Si Si2 0.354529 0.822724 0.160903
Si Si3 0.212829 0.390292 0.140143
O O1 0.004287 0.185954 0.500000
O O2 0.904039 0.095962 0.370816
O O3 0.872199 0.305585 0.405531
O O4 0.072313 0.269822 0.356620
O O5 0.288855 0.711146 0.131369
O O6 0.372755 0.812506 0.260758
O O7 0.479894 0.820063 0.121037
O O8 0.340760 0.340760 0.125784
#
# Coordination Sequence:
#
# PCOD9567285 Si02
#       3
#    16  16  16
#     4  10  21  36  54  77 107 144 184 225 268 317
#     4  10  20  34  55  81 108 140 177 221 274 329
#     4   9  19  36  56  79 107 139 179 225 272 325
#
# _framework density 21.811059
#
# number of rings (size 3 to 8) (size 9 to 14) (size 15 to 20)
#    0.000    2.333    0.000    2.000    0.000    7.333 
#    0.000    5.000    0.000    6.000    0.000    7.000 
#    0.000    0.000    0.000    0.000    0.000    0.000 
#
# Total GULP energy -267636.783109 kJ/mol
# GULP energy per Si atom -5575.766315 kJ/mol
# Density = 2.176142 g / cm^3
# Si number density = 21.811059 Si / 1000 Ang^3
#
#
#
# Elastic Constant Matrix: (Units=GPa)
#
#
# Indices 1 2 3 4 5 6 
#
# 1 -331.6006 555.6861 16.5438 0.0000 0.0000 0.0000
# 2 555.6861 -331.6006 16.5438 0.0000 0.0000 0.0000
# 3 16.5438 16.5438 13.0255 0.0000 0.0000 0.0000
# 4 0.0000 0.0000 0.0000 13.2964 0.0000 0.0000
# 5 0.0000 0.0000 0.0000 0.0000 13.2964 0.0000
# 6 0.0000 0.0000 0.0000 0.0000 0.0000 26.2636
#
#
#
# Elastic Compliance Matrix: (Units=1/GPa)
#
#
# Indices 1 2 3 4 5 6 
#
# 1 0.002183 0.003310 -0.006976 0.000000 0.000000 0.000000
# 2 0.003310 0.002183 -0.006976 0.000000 0.000000 0.000000
# 3 -0.006976 -0.006976 0.094493 0.000000 0.000000 0.000000
# 4 0.000000 0.000000 0.000000 0.075208 0.000000 0.000000
# 5 0.000000 0.000000 0.000000 0.000000 0.075208 0.000000
# 6 0.000000 0.000000 0.000000 0.000000 0.000000 0.038076
#
#
# Mechanical properties :
#
#
# Convention : Reuss Voigt Hill
#
# Bulk Modulus (GPa) = 12.89097 58.59685 35.74391
# Shear Modulus (GPa) = 14.94793 -72.02535 -28.53871
#
# Velocity S-wave (km/s) = 2.62073 -5.75275 -3.62118
# Velocity P-wave (km/s) = 3.88340 4.14746 1.02973
#
# Compressibility (1/GPa) = 0.07757366
#
# Stress axis : x y z
#
# Youngs Moduli (GPa) = 458.12364 458.12364 10.58276
#
# Poissons Ratio (x) = -1.51632 0.07383
# Poissons Ratio (y) = -1.51632 0.07383
# Poissons Ratio (z) = 3.19598 3.19598
#
# Static dielectric constant tensor:
#      x y z
#    x 1.809060 0.000000 0.000000 
#    y 0.000000 1.809060 0.000000 
#    z 0.000000 0.000000 1.856460 
# 
# From -- ./inp_files/5671.got.cif
#   From: 2010.05.17/outbox.cif.g08.bks.cpg/sg132_3_cif.got.tgz:5671.got - 2010.05.20 12:30:18.
