data_PCOD9567407
_publ_section_title
;
Structure prediction by ZEFSAII (Michael W. Deem and Ramdas Pophale) SiO2 
 PCOD9567407
Probable space group: P 42/M C M
;
_chemical_formula_sum "Si O2"
_cell_formula_units_Z 96
_cell_length_a 24.228388
_cell_length_b 24.228388
_cell_length_c 8.865507
_cell_angle_alpha 90.000000
_cell_angle_beta 90.000000
_cell_angle_gamma 90.000000
_cell_volume 5204.183686
_symmetry_space_group_name_H-M "P 42/M C M"
_symmetry_group_IT_number 132
_symmetry_cell_setting 'tetragonal'
loop_
_space_group_symop_operation_xyz
x,y,z
-y,x,1/2+z
-x,-y,z
y,-x,1/2+z
x,-y,1/2-z
-x,y,1/2-z
y,x,-z
-y,-x,-z
-x,-y,-z
y,-x,1/2-z
x,y,-z
-y,x,1/2-z
-x,y,1/2+z
x,-y,1/2+z
-y,-x,z
y,x,z
loop_
_atom_site_type_symbol
_atom_site_label
_atom_site_fract_x
_atom_site_fract_y
_atom_site_fract_z
Si Si1 0.652460 0.437689 0.317818
Si Si2 0.825807 0.737228 0.675389
Si Si3 0.753542 0.642930 0.826899
Si Si4 0.840569 0.452455 0.329695
Si Si5 0.942275 0.287957 0.680569
Si Si6 0.409916 0.945899 0.822250
O O1 0.655414 0.500000 0.250000
O O2 0.657625 0.442715 0.500000
O O3 0.595030 0.404971 0.284399
O O4 0.701449 0.394067 0.271337
O O5 0.837220 0.724007 0.500000
O O6 0.796388 0.796388 0.685863
O O7 0.779794 0.693579 0.734979
O O8 0.883736 0.736167 0.763967
O O9 0.804549 0.601484 0.833032
O O10 0.741736 0.659510 0.000000
O O11 0.805446 0.500000 0.250000
O O12 0.857201 0.465459 0.500000
O O13 0.891916 0.442908 0.221382
O O14 0.945575 0.286914 0.500000
O O15 0.940020 0.350879 0.740390
O O16 0.000000 0.264831 0.750000
O O17 0.436210 0.000000 0.750000
O O18 0.402722 0.951993 0.000000
#
# Coordination Sequence:
#
# PCOD9567407 Si02
#       6
#    16  16  16  16  16  16
#     4  10  22  40  61  85 111 141 179 224 280 346
#     4  11  23  37  57  88 122 155 194 237 281 334
#     4  10  21  38  59  81 110 146 184 226 281 342
#     4  11  22  35  52  76 103 139 184 231 281 337
#     4  11  21  36  58  83 114 154 196 238 286 339
#     4  11  21  35  54  75 103 139 183 234 282 334
#
# _framework density 18.446698000000001
#
# number of rings (size 3 to 8) (size 9 to 14) (size 15 to 20)
#    0.000    1.333    1.667    6.000    0.000    4.167 
#    0.000    2.500    0.000    0.000    0.000    0.000 
#    0.000    0.333    0.000    3.500    0.000    1.500 
#
# Total GULP energy -535450.783758 kJ/mol
# GULP energy per Si atom -5577.612331 kJ/mol
# Density = 1.840471 g / cm^3
# Si number density = 18.446698 Si / 1000 Ang^3
#
#
#
# Elastic Constant Matrix: (Units=GPa)
#
#
# Indices 1 2 3 4 5 6 
#
# 1 91.0010 55.7275 51.4768 0.0000 0.0000 0.0000
# 2 55.7275 91.0010 51.4768 0.0000 0.0000 0.0000
# 3 51.4768 51.4768 140.8718 0.0000 0.0000 0.0000
# 4 0.0000 0.0000 0.0000 31.4482 0.0000 0.0000
# 5 0.0000 0.0000 0.0000 0.0000 31.4482 0.0000
# 6 0.0000 0.0000 0.0000 0.0000 0.0000 5.0165
#
#
#
# Elastic Compliance Matrix: (Units=1/GPa)
#
#
# Indices 1 2 3 4 5 6 
#
# 1 0.018758 -0.009592 -0.003349 0.000000 0.000000 0.000000
# 2 -0.009592 0.018758 -0.003349 0.000000 0.000000 0.000000
# 3 -0.003349 -0.003349 0.009546 0.000000 0.000000 0.000000
# 4 0.000000 0.000000 0.000000 0.031798 0.000000 0.000000
# 5 0.000000 0.000000 0.000000 0.000000 0.031798 0.000000
# 6 0.000000 0.000000 0.000000 0.000000 0.000000 0.199343
#
#
# Mechanical properties :
#
#
# Convention : Reuss Voigt Hill
#
# Bulk Modulus (GPa) = 69.05935 71.13735 70.09835
# Shear Modulus (GPa) = 14.39224 24.52876 19.46050
#
# Velocity S-wave (km/s) = 2.79625 3.65047 3.25154
# Velocity P-wave (km/s) = 6.92415 7.51102 7.22355
#
# Compressibility (1/GPa) = 0.01448030
#
# Stress axis : x y z
#
# Youngs Moduli (GPa) = 53.31182 53.31182 104.75250
#
# Poissons Ratio (x) = 0.51138 0.35083
# Poissons Ratio (y) = 0.51138 0.35083
# Poissons Ratio (z) = 0.17855 0.17855
#
# Static dielectric constant tensor:
#      x y z
#    x 1.648820 0.000000 0.000000 
#    y 0.000000 1.648820 0.000000 
#    z 0.000000 0.000000 1.644820 
# 
# From -- ./inp_files/1752.got.cif
#   From: 2010.05.17/outbox.cif.g08.bks.cpg/sg132_1_cif.got.tgz:1752.got - 2010.05.20 12:30:18.
