data_PCOD9567231
_publ_section_title
;
Structure prediction by ZEFSAII (Michael W. Deem and Ramdas Pophale) SiO2 
 PCOD9567231
Probable space group: P 42/M C M
;
_chemical_formula_sum "Si O2"
_cell_formula_units_Z 128
_cell_length_a 19.864013
_cell_length_b 19.864013
_cell_length_c 19.023493
_cell_angle_alpha 90.000000
_cell_angle_beta 90.000000
_cell_angle_gamma 90.000000
_cell_volume 7506.271082
_symmetry_space_group_name_H-M "P 42/M C M"
_symmetry_group_IT_number 132
_symmetry_cell_setting 'tetragonal'
loop_
_space_group_symop_operation_xyz
x,y,z
-y,x,1/2+z
-x,-y,z
y,-x,1/2+z
x,-y,1/2-z
-x,y,1/2-z
y,x,-z
-y,-x,-z
-x,-y,-z
y,-x,1/2-z
x,y,-z
-y,x,1/2-z
-x,y,1/2+z
x,-y,1/2+z
-y,-x,z
y,x,z
loop_
_atom_site_type_symbol
_atom_site_label
_atom_site_fract_x
_atom_site_fract_y
_atom_site_fract_z
Si Si1 0.856727 0.740702 0.080876
Si Si2 0.940428 0.168418 0.194870
Si Si3 0.772303 0.656628 0.646427
Si Si4 0.963808 0.850941 0.079170
Si Si5 0.445004 0.332811 0.188175
Si Si6 0.868189 0.752731 0.421699
Si Si7 0.663924 0.220839 0.694591
Si Si8 0.670611 0.556896 0.417536
O O1 0.798422 0.798422 0.082186
O O2 0.926205 0.780301 0.096269
O O3 0.835291 0.685573 0.138275
O O4 0.859232 0.715926 0.000000
O O5 0.878679 0.121322 0.222791
O O6 0.911556 0.229935 0.147889
O O7 0.000000 0.184440 0.250000
O O8 0.980168 0.129156 0.134032
O O9 0.713187 0.713187 0.647698
O O10 0.827323 0.684642 0.592980
O O11 0.801758 0.654372 0.724937
O O12 0.735007 0.589340 0.621787
O O13 0.905732 0.905732 0.080669
O O14 0.990128 0.848035 0.000000
O O15 0.500000 0.326991 0.250000
O O16 0.391792 0.391792 0.205589
O O17 0.401846 0.265032 0.177582
O O18 0.486807 0.347661 0.118169
O O19 0.899199 0.749825 0.500000
O O20 0.813670 0.813670 0.423072
O O21 0.725723 0.274278 0.694779
O O22 0.684270 0.551287 0.500000
O O23 0.609361 0.609361 0.408119
#
# Coordination Sequence:
#
# PCOD9567231 Si02
#       8
#    16  16  16  16  16  16  16  16
#     4   8  15  28  46  68  91 116 151 196 245 293
#     4  11  23  34  45  66  98 133 168 204 238 275
#     4   9  16  29  49  71  90 115 153 203 259 303
#     4   9  18  32  49  66  89 127 166 196 232 280
#     4  11  21  33  46  65  94 134 174 203 235 282
#     4   9  18  32  50  70  91 119 158 206 256 300
#     4   9  17  28  47  68  90 119 155 198 248 298
#     4  10  20  33  48  67  94 128 168 210 247 287
#
# _framework density 17.052406999999999
#
# number of rings (size 3 to 8) (size 9 to 14) (size 15 to 20)
#    0.000    2.500    1.250    2.250    1.750    4.750 
#    0.000    2.500    0.000    0.000    0.000    0.000 
#    0.000    1.000    1.000    5.250    1.000    0.500 
#
# Total GULP energy -712667.986915 kJ/mol
# GULP energy per Si atom -5567.718648 kJ/mol
# Density = 1.701360 g / cm^3
# Si number density = 17.052407 Si / 1000 Ang^3
#
#
#
# Elastic Constant Matrix: (Units=GPa)
#
#
# Indices 1 2 3 4 5 6 
#
# 1 14.6632 17.4896 15.1677 0.0000 0.0000 0.0000
# 2 17.4896 14.6632 15.1677 0.0000 0.0000 0.0000
# 3 15.1677 15.1677 71.2122 0.0000 0.0000 0.0000
# 4 0.0000 0.0000 0.0000 19.2472 0.0000 0.0000
# 5 0.0000 0.0000 0.0000 0.0000 19.2472 0.0000
# 6 0.0000 0.0000 0.0000 0.0000 0.0000 9.4738
#
#
#
# Elastic Compliance Matrix: (Units=1/GPa)
#
#
# Indices 1 2 3 4 5 6 
#
# 1 -0.157447 0.196370 -0.008290 0.000000 0.000000 0.000000
# 2 0.196370 -0.157447 -0.008290 0.000000 0.000000 0.000000
# 3 -0.008290 -0.008290 0.017574 0.000000 0.000000 0.000000
# 4 0.000000 0.000000 0.000000 0.051956 0.000000 0.000000
# 5 0.000000 0.000000 0.000000 0.000000 0.051956 0.000000
# 6 0.000000 0.000000 0.000000 0.000000 0.000000 0.105554
#
#
# Mechanical properties :
#
#
# Convention : Reuss Voigt Hill
#
# Bulk Modulus (GPa) = 16.06191 21.79873 18.93032
# Shear Modulus (GPa) = -11.71835 13.10791 0.69478
#
# Velocity S-wave (km/s) = -2.62429 2.77552 0.63900
# Velocity P-wave (km/s) = 0.50704 4.80442 3.41611
#
# Compressibility (1/GPa) = 0.06225910
#
# Stress axis : x y z
#
# Youngs Moduli (GPa) = -6.35134 -6.35134 56.90194
#
# Poissons Ratio (x) = 1.24721 0.47174
# Poissons Ratio (y) = 1.24721 0.47174
# Poissons Ratio (z) = -0.05265 -0.05265
#
# Static dielectric constant tensor:
#      x y z
#    x 1.591720 0.000000 0.000000 
#    y 0.000000 1.591720 0.000000 
#    z 0.000000 0.000000 1.625270 
# 
# From -- ./inp_files/6840.got.cif
#   From: 2010.05.17/outbox.cif.g08.bks.cpg/sg132_4_cif.got.tgz:6840.got - 2010.05.20 12:30:18.
