data_PCOD9567690
_publ_section_title
;
Structure prediction by ZEFSAII (Michael W. Deem and Ramdas Pophale) SiO2 
 PCOD9567690
Probable space group: P 42/N B C
;
_chemical_formula_sum "Si O2"
_cell_formula_units_Z 96
_cell_length_a 16.185756
_cell_length_b 16.185756
_cell_length_c 17.773071
_cell_angle_alpha 90.000000
_cell_angle_beta 90.000000
_cell_angle_gamma 90.000000
_cell_volume 4656.165987
_symmetry_space_group_name_H-M "P 42/N B C"
_symmetry_group_IT_number 133
_space_group.IT_coordinate_system_code '2'
_symmetry_cell_setting 'tetragonal'
loop_
_space_group_symop_operation_xyz
x,y,z
1/2-y,x,1/2+z
1/2-x,1/2-y,z
y,1/2-x,1/2+z
x,1/2-y,-z
1/2-x,y,-z
y,x,1/2-z
1/2-y,1/2-x,1/2-z
-x,-y,-z
1/2+y,-x,1/2-z
1/2+x,1/2+y,-z
-y,1/2+x,1/2-z
-x,1/2+y,z
1/2+x,-y,z
-y,-x,1/2+z
1/2+y,1/2+x,1/2+z
loop_
_atom_site_type_symbol
_atom_site_label
_atom_site_fract_x
_atom_site_fract_y
_atom_site_fract_z
Si Si1 0.371683 0.162965 0.162488
Si Si2 0.165569 0.039581 0.973212
Si Si3 0.023947 0.941047 0.176960
Si Si4 0.550724 0.410379 0.096762
Si Si5 0.855305 0.339331 0.759278
Si Si6 0.187901 0.397443 0.567627
O O1 0.347428 0.152573 0.250000
O O2 0.331211 0.095360 0.104490
O O3 0.468164 0.136411 0.151823
O O4 0.363816 0.258620 0.137610
O O5 0.102068 0.964918 0.961626
O O6 0.250000 0.000461 0.000000
O O7 0.145299 0.104904 0.038857
O O8 0.114541 0.911564 0.197553
O O9 0.975033 0.975033 0.250000
O O10 0.014495 0.020473 0.125473
O O11 0.611563 0.377900 0.162396
O O12 0.493897 0.334606 0.073167
O O13 0.862035 0.240623 0.754256
O O14 0.250000 0.383749 0.500000
#
# Coordination Sequence:
#
# PCOD9567690 Si02
#       6
#    16  16  16  16  16  16
#     4   9  18  36  62  87 115 152 194 247 304 360
#     4  10  22  39  58  84 120 159 198 247 302 357
#     4   8  16  32  54  79 109 145 189 234 278 344
#     4  10  20  37  59  81 111 159 206 237 285 363
#     4  10  20  34  55  87 122 148 179 241 308 347
#     4  10  21  37  60  86 117 156 197 249 306 360
#
# _framework density 20.617820999999999
#
# number of rings (size 3 to 8) (size 9 to 14) (size 15 to 20)
#    0.000    2.500    0.000    2.500    0.000    4.333 
#    0.000    8.333    0.000    6.000    0.000    0.000 
#    0.000    0.000    0.000    0.000    0.000    0.000 
#
# Total GULP energy -534665.031253 kJ/mol
# GULP energy per Si atom -5569.427409 kJ/mol
# Density = 2.057089 g / cm^3
# Si number density = 20.617821 Si / 1000 Ang^3
#
#
#
# Elastic Constant Matrix: (Units=GPa)
#
#
# Indices 1 2 3 4 5 6 
#
# 1 41.2042 8.2707 -4.2091 0.0000 0.0000 0.0000
# 2 8.2707 41.2046 -4.2090 0.0000 0.0000 0.0000
# 3 -4.2091 -4.2090 39.4338 0.0000 0.0000 0.0000
# 4 0.0000 0.0000 0.0000 16.7363 0.0000 0.0000
# 5 0.0000 0.0000 0.0000 0.0000 16.7363 0.0000
# 6 0.0000 0.0000 0.0000 0.0000 0.0000 12.7984
#
#
#
# Elastic Compliance Matrix: (Units=1/GPa)
#
#
# Indices 1 2 3 4 5 6 
#
# 1 0.025475 -0.004889 0.002197 0.000000 0.000000 0.000000
# 2 -0.004889 0.025475 0.002197 0.000000 0.000000 0.000000
# 3 0.002197 0.002197 0.025828 0.000000 0.000000 0.000000
# 4 0.000000 0.000000 0.000000 0.059750 0.000000 0.000000
# 5 0.000000 0.000000 0.000000 0.000000 0.059750 0.000000
# 6 0.000000 0.000000 0.000000 0.000000 0.000000 0.078135
#
#
# Mechanical properties :
#
#
# Convention : Reuss Voigt Hill
#
# Bulk Modulus (GPa) = 13.19447 13.50530 13.34989
# Shear Modulus (GPa) = 16.62978 17.38687 17.00833
#
# Velocity S-wave (km/s) = 2.84310 2.90710 2.87528
# Velocity P-wave (km/s) = 4.14621 4.22290 4.18473
#
# Compressibility (1/GPa) = 0.07578935
#
# Stress axis : x y z
#
# Youngs Moduli (GPa) = 39.25388 39.25426 38.71761
#
# Poissons Ratio (x) = 0.19191 -0.08508
# Poissons Ratio (y) = 0.19191 -0.08507
# Poissons Ratio (z) = -0.08625 -0.08625
#
# Static dielectric constant tensor:
#      x y z
#    x 1.770420 0.000000 0.000000 
#    y 0.000000 1.770420 0.000000 
#    z 0.000000 0.000000 1.844210 
# 
# From -- ./inp_files/6522.got.cif
#   From: 2010.05.17/outbox.cif.g08.bks.cpg/sg133_4_cif.got.tgz:6522.got - 2010.05.20 12:37:36.
