data_PCOD9567141
_publ_section_title
;
Structure prediction by ZEFSAII (Michael W. Deem and Ramdas Pophale) SiO2 
 PCOD9567141
Probable space group: P 42/M C M
;
_chemical_formula_sum "Si O2"
_cell_formula_units_Z 120
_cell_length_a 14.738672
_cell_length_b 14.738672
_cell_length_c 30.473324
_cell_angle_alpha 90.000000
_cell_angle_beta 90.000000
_cell_angle_gamma 90.000000
_cell_volume 6619.673010
_symmetry_space_group_name_H-M "P 42/M C M"
_symmetry_group_IT_number 132
_symmetry_cell_setting 'tetragonal'
loop_
_space_group_symop_operation_xyz
x,y,z
-y,x,1/2+z
-x,-y,z
y,-x,1/2+z
x,-y,1/2-z
-x,y,1/2-z
y,x,-z
-y,-x,-z
-x,-y,-z
y,-x,1/2-z
x,y,-z
-y,x,1/2-z
-x,y,1/2+z
x,-y,1/2+z
-y,-x,z
y,x,z
loop_
_atom_site_type_symbol
_atom_site_label
_atom_site_fract_x
_atom_site_fract_y
_atom_site_fract_z
Si Si1 0.368238 0.919020 0.551146
Si Si2 0.898332 0.743847 0.859123
Si Si3 0.493174 0.644582 0.656642
Si Si4 0.680623 0.833536 0.769283
Si Si5 0.907610 0.246823 0.816517
Si Si6 0.219709 0.630102 0.131602
Si Si7 0.500000 0.271739 0.250000
Si Si8 0.425618 0.870217 0.049030
O O1 0.338993 0.898063 0.500000
O O2 0.302227 0.900076 0.592541
O O3 0.466398 0.872166 0.558465
O O4 0.390876 0.026335 0.551773
O O5 0.828213 0.828213 0.859445
O O6 0.866980 0.676502 0.819501
O O7 0.997852 0.772612 0.840907
O O8 0.395635 0.604366 0.643599
O O9 0.566946 0.566946 0.645492
O O10 0.530508 0.739109 0.638545
O O11 0.495607 0.663514 0.708188
O O12 0.749248 0.749248 0.769009
O O13 0.724868 0.904228 0.734810
O O14 0.586890 0.793559 0.751601
O O15 0.837949 0.162052 0.821741
O O16 0.864210 0.335537 0.839953
O O17 0.299134 0.700867 0.142371
O O18 0.189163 0.631844 0.081920
O O19 0.414140 0.837089 0.000000
#
# Coordination Sequence:
#
# PCOD9567141 Si02
#       8
#    16  16  16  16  16  16   8  16
#     4   9  19  36  57  82 112 146 186 234 287 342
#     4  11  23  38  59  86 114 147 188 240 294 342
#     4  10  20  32  49  75 109 151 193 226 268 334
#     4  10  22  37  53  81 117 150 189 236 281 331
#     4  10  20  39  59  78 113 152 189 232 284 347
#     4  10  19  33  55  82 112 149 186 234 284 323
#     4  12  20  33  53  78 110 152 186 224 286 334
#     4   9  18  35  58  81 107 143 189 233 277 341
#
# _framework density 18.127783000000001
#
# number of rings (size 3 to 8) (size 9 to 14) (size 15 to 20)
#    0.000    2.000    2.667    2.400    1.867    1.333 
#    0.000    0.667    0.000    4.000    0.000    2.800 
#    0.000    0.000    0.000    0.000    0.000    0.000 
#
# Total GULP energy -668059.388344 kJ/mol
# GULP energy per Si atom -5567.161570 kJ/mol
# Density = 1.808652 g / cm^3
# Si number density = 18.127783 Si / 1000 Ang^3
#
#
#
# Elastic Constant Matrix: (Units=GPa)
#
#
# Indices 1 2 3 4 5 6 
#
# 1 59.9174 13.9545 24.4499 0.0000 0.0000 0.0000
# 2 13.9545 59.9174 24.4499 0.0000 0.0000 0.0000
# 3 24.4499 24.4499 103.2164 0.0000 0.0000 0.0000
# 4 0.0000 0.0000 0.0000 28.7790 0.0000 0.0000
# 5 0.0000 0.0000 0.0000 0.0000 28.7790 0.0000
# 6 0.0000 0.0000 0.0000 0.0000 0.0000 9.9959
#
#
#
# Elastic Compliance Matrix: (Units=1/GPa)
#
#
# Indices 1 2 3 4 5 6 
#
# 1 0.018906 -0.002851 -0.003803 0.000000 0.000000 0.000000
# 2 -0.002851 0.018906 -0.003803 0.000000 0.000000 0.000000
# 3 -0.003803 -0.003803 0.011490 0.000000 0.000000 0.000000
# 4 0.000000 0.000000 0.000000 0.034748 0.000000 0.000000
# 5 0.000000 0.000000 0.000000 0.000000 0.034748 0.000000
# 6 0.000000 0.000000 0.000000 0.000000 0.000000 0.100041
#
#
# Mechanical properties :
#
#
# Convention : Reuss Voigt Hill
#
# Bulk Modulus (GPa) = 35.22748 38.75108 36.98928
# Shear Modulus (GPa) = 20.06314 24.19057 22.12686
#
# Velocity S-wave (km/s) = 3.33041 3.65697 3.49751
# Velocity P-wave (km/s) = 5.85354 6.26532 6.06293
#
# Compressibility (1/GPa) = 0.02838693
#
# Stress axis : x y z
#
# Youngs Moduli (GPa) = 52.89461 52.89461 87.03167
#
# Poissons Ratio (x) = 0.15081 0.33098
# Poissons Ratio (y) = 0.15081 0.33098
# Poissons Ratio (z) = 0.20116 0.20116
#
# Static dielectric constant tensor:
#      x y z
#    x 1.656690 0.000000 0.000000 
#    y 0.000000 1.656690 0.000000 
#    z 0.000000 0.000000 1.642200 
# 
# From -- ./inp_files/11106.got.cif
#   From: 2010.05.17/outbox.cif.g08.bks.cpg/sg132_6_cif.got.tgz:11106.got - 2010.05.20 12:30:18.
