data_PCOD9567400
_publ_section_title
;
Structure prediction by ZEFSAII (Michael W. Deem and Ramdas Pophale) SiO2 
 PCOD9567400
Probable space group: P 42/M C M
;
_chemical_formula_sum "Si O2"
_cell_formula_units_Z 88
_cell_length_a 11.372847
_cell_length_b 11.372847
_cell_length_c 31.919339
_cell_angle_alpha 90.000000
_cell_angle_beta 90.000000
_cell_angle_gamma 90.000000
_cell_volume 4128.499938
_symmetry_space_group_name_H-M "P 42/M C M"
_symmetry_group_IT_number 132
_symmetry_cell_setting 'tetragonal'
loop_
_space_group_symop_operation_xyz
x,y,z
-y,x,1/2+z
-x,-y,z
y,-x,1/2+z
x,-y,1/2-z
-x,y,1/2-z
y,x,-z
-y,-x,-z
-x,-y,-z
y,-x,1/2-z
x,y,-z
-y,x,1/2-z
-x,y,1/2+z
x,-y,1/2+z
-y,-x,z
y,x,z
loop_
_atom_site_type_symbol
_atom_site_label
_atom_site_fract_x
_atom_site_fract_y
_atom_site_fract_z
Si Si1 0.739156 0.446710 0.592227
Si Si2 0.908773 0.268780 0.549964
Si Si3 0.421475 0.116927 0.822278
Si Si4 0.657892 0.843321 0.547755
Si Si5 0.500000 0.698409 0.750000
Si Si6 0.808593 0.994465 0.298016
O O1 0.610280 0.389721 0.596518
O O2 0.810687 0.364262 0.560104
O O3 0.808784 0.440339 0.635711
O O4 0.758421 0.574535 0.573669
O O5 0.926037 0.256510 0.500000
O O6 0.855180 0.144821 0.565798
O O7 0.029152 0.321852 0.567349
O O8 0.450741 0.212078 0.785694
O O9 0.500000 0.000000 0.817747
O O10 0.292346 0.058079 0.823969
O O11 0.611328 0.854180 0.500000
O O12 0.784804 0.784804 0.545266
O O13 0.608875 0.608875 0.738236
O O14 0.865256 0.865256 0.307394
O O15 0.763355 0.000000 0.250000
O O16 0.917024 0.082977 0.298918
#
# Coordination Sequence:
#
# PCOD9567400 Si02
#       6
#    16  16  16  16   8  16
#     4  11  23  39  59  83 116 157 200 247 299 360
#     4   9  18  35  60  87 116 152 191 236 299 370
#     4  12  24  39  62  89 119 158 205 258 311 366
#     4  10  21  37  59  88 120 154 197 250 303 359
#     4  11  25  44  64  88 125 173 218 258 304 365
#     4   9  18  35  60  87 114 144 182 236 301 363
#
# _framework density 21.315246999999999
#
# number of rings (size 3 to 8) (size 9 to 14) (size 15 to 20)
#    0.000    1.727    0.000    5.727    0.000    6.182 
#    0.000    5.455    0.000    1.091    0.000    0.000 
#    0.000    0.000    0.000    0.000    0.000    0.000 
#
# Total GULP energy -490364.987246 kJ/mol
# GULP energy per Si atom -5572.329401 kJ/mol
# Density = 2.126673 g / cm^3
# Si number density = 21.315247 Si / 1000 Ang^3
#
#
#
# Elastic Constant Matrix: (Units=GPa)
#
#
# Indices 1 2 3 4 5 6 
#
# 1 153.8206 -40.1292 21.3724 0.0000 0.0000 0.0000
# 2 -40.1292 153.8206 21.3724 0.0000 0.0000 0.0000
# 3 21.3724 21.3724 41.9938 0.0000 0.0000 0.0000
# 4 0.0000 0.0000 0.0000 -20.5568 0.0000 0.0000
# 5 0.0000 0.0000 0.0000 0.0000 -20.5568 0.0000
# 6 0.0000 0.0000 0.0000 0.0000 0.0000 30.1046
#
#
#
# Elastic Compliance Matrix: (Units=1/GPa)
#
#
# Indices 1 2 3 4 5 6 
#
# 1 0.008017 0.002861 -0.005536 0.000000 0.000000 0.000000
# 2 0.002861 0.008017 -0.005536 0.000000 0.000000 0.000000
# 3 -0.005536 -0.005536 0.029448 0.000000 0.000000 0.000000
# 4 0.000000 0.000000 0.000000 -0.048646 0.000000 0.000000
# 5 0.000000 0.000000 0.000000 0.000000 -0.048646 0.000000
# 6 0.000000 0.000000 0.000000 0.000000 0.000000 0.033218
#
#
# Mechanical properties :
#
#
# Convention : Reuss Voigt Hill
#
# Bulk Modulus (GPa) = 34.41301 39.42959 36.92130
# Shear Modulus (GPa) = 665.31509 20.93283 343.12396
#
# Velocity S-wave (km/s) = 17.68640 3.13718 12.70139
# Velocity P-wave (km/s) = 20.81485 5.62681 15.24662
#
# Compressibility (1/GPa) = 0.02905878
#
# Stress axis : x y z
#
# Youngs Moduli (GPa) = 124.74266 124.74266 33.95834
#
# Poissons Ratio (x) = -0.35683 0.18799
# Poissons Ratio (y) = -0.35683 0.18799
# Poissons Ratio (z) = 0.69055 0.69055
#
# Static dielectric constant tensor:
#      x y z
#    x 0.755910 0.000000 0.000000 
#    y 0.000000 0.755910 0.000000 
#    z 0.000000 0.000000 1.784170 
# 
# From -- ./inp_files/10780.got.cif
#   From: 2010.05.17/outbox.cif.g08.bks.cpg/sg132_6_cif.got.tgz:10780.got - 2010.05.20 12:30:18.
