data_PCOD9567190
_publ_section_title
;
Structure prediction by ZEFSAII (Michael W. Deem and Ramdas Pophale) SiO2 
 PCOD9567190
Probable space group: P 42/M C M
;
_chemical_formula_sum "Si O2"
_cell_formula_units_Z 52
_cell_length_a 16.424273
_cell_length_b 16.424273
_cell_length_c 10.356678
_cell_angle_alpha 90.000000
_cell_angle_beta 90.000000
_cell_angle_gamma 90.000000
_cell_volume 2793.783732
_symmetry_space_group_name_H-M "P 42/M C M"
_symmetry_group_IT_number 132
_symmetry_cell_setting 'tetragonal'
loop_
_space_group_symop_operation_xyz
x,y,z
-y,x,1/2+z
-x,-y,z
y,-x,1/2+z
x,-y,1/2-z
-x,y,1/2-z
y,x,-z
-y,-x,-z
-x,-y,-z
y,-x,1/2-z
x,y,-z
-y,x,1/2-z
-x,y,1/2+z
x,-y,1/2+z
-y,-x,z
y,x,z
loop_
_atom_site_type_symbol
_atom_site_label
_atom_site_fract_x
_atom_site_fract_y
_atom_site_fract_z
Si Si1 0.637013 0.002167 0.500000
Si Si2 0.501705 0.134305 0.500000
Si Si3 0.000000 0.000000 0.500000
Si Si4 0.880341 0.119660 0.644774
Si Si5 0.250511 0.000000 0.250000
Si Si6 0.624508 0.624508 0.849558
Si Si7 0.500000 0.500000 0.750000
Si Si8 0.754281 0.500000 0.250000
O O1 0.588727 0.088015 0.500000
O O2 0.693087 0.991981 0.374864
O O3 0.567447 0.934156 0.500000
O O4 0.491368 0.189738 0.625239
O O5 0.051816 0.948185 0.609339
O O6 0.852268 0.147733 0.500000
O O7 0.808235 0.076794 0.722751
O O8 0.555322 0.555322 0.840786
O O9 0.580253 0.699058 0.776802
O O10 0.643126 0.643126 0.000000
#
# Coordination Sequence:
#
# PCOD9567190 Si02
#       8
#     8   8   2   8   8   8   2   8
#     4  11  25  44  69  85 124 164 232 273 315 372
#     4  11  24  46  66  91 114 176 224 275 310 380
#     4   8  16  38  56  94 128 182 208 246 280 414
#     4  10  21  36  61  95 134 167 203 257 319 388
#     4  12  22  42  64 100 126 170 208 268 326 386
#     4  10  19  36  59  96 133 163 195 255 314 381
#     4   8  18  28  60  86 124 174 200 234 280 378
#     4  11  22  40  68  95 132 162 216 255 324 384
#
# _framework density 18.612750999999999
#
# number of rings (size 3 to 8) (size 9 to 14) (size 15 to 20)
#    0.462    0.923    3.077    3.000    0.000    3.692 
#    0.000    9.231    0.000    0.000    0.000    0.000 
#    0.000    0.000    0.000    0.000    0.000    0.000 
#
# Total GULP energy -289607.570702 kJ/mol
# GULP energy per Si atom -5569.376360 kJ/mol
# Density = 1.857039 g / cm^3
# Si number density = 18.612751 Si / 1000 Ang^3
#
#
#
# Elastic Constant Matrix: (Units=GPa)
#
#
# Indices 1 2 3 4 5 6 
#
# 1 110.2799 65.8653 79.2296 0.0000 0.0000 0.0000
# 2 65.8653 110.2797 79.2295 0.0000 0.0000 0.0000
# 3 79.2296 79.2295 195.7766 0.0000 0.0000 0.0000
# 4 0.0000 0.0000 0.0000 23.6839 0.0000 0.0000
# 5 0.0000 0.0000 0.0000 0.0000 23.6843 0.0000
# 6 0.0000 0.0000 0.0000 0.0000 0.0000 33.2753
#
#
#
# Elastic Compliance Matrix: (Units=1/GPa)
#
#
# Indices 1 2 3 4 5 6 
#
# 1 0.015721 -0.006794 -0.003613 0.000000 0.000000 0.000000
# 2 -0.006794 0.015721 -0.003613 0.000000 0.000000 0.000000
# 3 -0.003613 -0.003613 0.008032 0.000000 0.000000 0.000000
# 4 0.000000 0.000000 0.000000 0.042223 0.000000 0.000000
# 5 0.000000 0.000000 0.000000 0.000000 0.042222 0.000000
# 6 0.000000 0.000000 0.000000 0.000000 0.000000 0.030052
#
#
# Mechanical properties :
#
#
# Convention : Reuss Voigt Hill
#
# Bulk Modulus (GPa) = 87.44890 96.10944 91.77917
# Shear Modulus (GPa) = 26.90744 28.92950 27.91847
#
# Velocity S-wave (km/s) = 3.80629 3.94672 3.87714
# Velocity P-wave (km/s) = 8.14877 8.51570 8.33426
#
# Compressibility (1/GPa) = 0.01143525
#
# Stress axis : x y z
#
# Youngs Moduli (GPa) = 63.60866 63.60854 124.50223
#
# Poissons Ratio (x) = 0.43216 0.44980
# Poissons Ratio (y) = 0.43216 0.44980
# Poissons Ratio (z) = 0.22980 0.22980
#
# Static dielectric constant tensor:
#      x y z
#    x 1.640050 0.000000 0.000000 
#    y 0.000000 1.640050 0.000000 
#    z 0.000000 0.000000 1.610780 
# 
# From -- ./inp_files/942.got.cif
#   From: 2010.05.17/outbox.cif.g08.bks.cpg/sg132_1_cif.got.tgz:942.got - 2010.05.20 12:30:18.
