data_PCOD9567428
_publ_section_title
;
Structure prediction by ZEFSAII (Michael W. Deem and Ramdas Pophale) SiO2 
 PCOD9567428
Probable space group: P 42/M C M
;
_chemical_formula_sum "Si O2"
_cell_formula_units_Z 44
_cell_length_a 9.981875
_cell_length_b 9.981875
_cell_length_c 26.244260
_cell_angle_alpha 90.000000
_cell_angle_beta 90.000000
_cell_angle_gamma 90.000000
_cell_volume 2614.921077
_symmetry_space_group_name_H-M "P 42/M C M"
_symmetry_group_IT_number 132
_symmetry_cell_setting 'tetragonal'
loop_
_space_group_symop_operation_xyz
x,y,z
-y,x,1/2+z
-x,-y,z
y,-x,1/2+z
x,-y,1/2-z
-x,y,1/2-z
y,x,-z
-y,-x,-z
-x,-y,-z
y,-x,1/2-z
x,y,-z
-y,x,1/2-z
-x,y,1/2+z
x,-y,1/2+z
-y,-x,z
y,x,z
loop_
_atom_site_type_symbol
_atom_site_label
_atom_site_fract_x
_atom_site_fract_y
_atom_site_fract_z
Si Si1 0.500000 0.500000 0.750000
Si Si2 0.350099 0.033141 0.366668
Si Si3 0.296008 0.703993 0.202131
Si Si4 0.000000 0.000000 0.250000
Si Si5 0.887137 0.112864 0.060458
Si Si6 0.193169 0.806832 0.690876
O O1 0.408588 0.408588 0.712155
O O2 0.343591 0.160697 0.327573
O O3 0.249801 0.068238 0.412409
O O4 0.500000 0.000000 0.382996
O O5 0.295472 0.897805 0.340329
O O6 0.258651 0.741350 0.259881
O O7 0.088494 0.088494 0.213697
O O8 0.873152 0.126849 0.000000
O O9 0.000000 0.000000 0.071035
#
# Coordination Sequence:
#
# PCOD9567428 Si02
#       6
#     2  16   8   2   8   8
#     4  12  24  36  44  72 122 176 192 240 272 336
#     4  11  22  36  58  88 113 152 195 240 291 348
#     4  11  22  34  51  77 120 161 199 228 279 336
#     4  12  16  32  56  80 114 148 200 244 272 304
#     4  10  21  41  65  87 111 143 192 252 307 351
#     4  12  19  34  56  84 119 152 195 242 280 333
#
# _framework density 16.826511
#
# number of rings (size 3 to 8) (size 9 to 14) (size 15 to 20)
#    0.000    0.909    5.455    3.273    0.000    2.182 
#    0.000    0.000    0.000    0.000    0.000    3.818 
#    0.000    0.000    0.000    0.000    0.000    0.000 
#
# Total GULP energy -245593.772596 kJ/mol
# GULP energy per Si atom -5581.676650 kJ/mol
# Density = 1.678821 g / cm^3
# Si number density = 16.826511 Si / 1000 Ang^3
#
#
#
# Elastic Constant Matrix: (Units=GPa)
#
#
# Indices 1 2 3 4 5 6 
#
# 1 169.4477 35.0794 65.6151 0.0000 0.0000 0.0000
# 2 35.0794 169.4449 65.6146 0.0000 0.0000 0.0000
# 3 65.6151 65.6146 110.0996 0.0000 0.0000 0.0000
# 4 0.0000 0.0000 0.0000 19.1289 0.0000 0.0000
# 5 0.0000 0.0000 0.0000 0.0000 19.1285 0.0000
# 6 0.0000 0.0000 0.0000 0.0000 0.0000 29.6791
#
#
#
# Elastic Compliance Matrix: (Units=1/GPa)
#
#
# Indices 1 2 3 4 5 6 
#
# 1 0.007679 0.000237 -0.004718 0.000000 0.000000 0.000000
# 2 0.000237 0.007679 -0.004718 0.000000 0.000000 0.000000
# 3 -0.004718 -0.004718 0.014706 0.000000 0.000000 0.000000
# 4 0.000000 0.000000 0.000000 0.052277 0.000000 0.000000
# 5 0.000000 0.000000 0.000000 0.000000 0.052278 0.000000
# 6 0.000000 0.000000 0.000000 0.000000 0.000000 0.033694
#
#
# Mechanical properties :
#
#
# Convention : Reuss Voigt Hill
#
# Bulk Modulus (GPa) = 85.70881 86.84561 86.27721
# Shear Modulus (GPa) = 26.23292 32.43284 29.33288
#
# Velocity S-wave (km/s) = 3.95273 4.39508 4.17976
# Velocity P-wave (km/s) = 8.47818 8.80227 8.64174
#
# Compressibility (1/GPa) = 0.01166741
#
# Stress axis : x y z
#
# Youngs Moduli (GPa) = 130.21938 130.21716 67.99916
#
# Poissons Ratio (x) = -0.03088 0.32081
# Poissons Ratio (y) = -0.03088 0.32082
# Poissons Ratio (z) = 0.61436 0.61436
#
# Static dielectric constant tensor:
#      x y z
#    x 1.595940 0.000000 0.000000 
#    y 0.000000 1.595940 0.000000 
#    z 0.000000 0.000000 1.570620 
# 
# From -- ./inp_files/10282.got.cif
#   From: 2010.05.17/outbox.cif.g08.bks.cpg/sg132_6_cif.got.tgz:10282.got - 2010.05.20 12:30:18.
