data_PCOD9567349
_publ_section_title
;
Structure prediction by ZEFSAII (Michael W. Deem and Ramdas Pophale) SiO2 
 PCOD9567349
Probable space group: P 42/M C M
;
_chemical_formula_sum "Si O2"
_cell_formula_units_Z 56
_cell_length_a 12.330210
_cell_length_b 12.330210
_cell_length_c 20.446850
_cell_angle_alpha 90.000000
_cell_angle_beta 90.000000
_cell_angle_gamma 90.000000
_cell_volume 3108.618001
_symmetry_space_group_name_H-M "P 42/M C M"
_symmetry_group_IT_number 132
_symmetry_cell_setting 'tetragonal'
loop_
_space_group_symop_operation_xyz
x,y,z
-y,x,1/2+z
-x,-y,z
y,-x,1/2+z
x,-y,1/2-z
-x,y,1/2-z
y,x,-z
-y,-x,-z
-x,-y,-z
y,-x,1/2-z
x,y,-z
-y,x,1/2-z
-x,y,1/2+z
x,-y,1/2+z
-y,-x,z
y,x,z
loop_
_atom_site_type_symbol
_atom_site_label
_atom_site_fract_x
_atom_site_fract_y
_atom_site_fract_z
Si Si1 0.000000 0.182229 0.250000
Si Si2 0.587974 0.412027 0.579122
Si Si3 0.167115 0.481457 0.920024
Si Si4 0.026867 0.325854 0.621908
Si Si5 0.826359 0.993504 0.000000
O O1 0.025938 0.259997 0.311024
O O2 0.897959 0.102042 0.263484
O O3 0.500000 0.500000 0.602936
O O4 0.585235 0.414766 0.500000
O O5 0.710734 0.445747 0.596617
O O6 0.130865 0.598108 0.892041
O O7 0.079860 0.400360 0.887960
O O8 0.154191 0.481033 0.000000
O O9 0.017630 0.241289 0.563717
O O10 0.925271 0.074730 0.000000
O O11 0.871361 0.871361 0.000000
#
# Coordination Sequence:
#
# PCOD9567349 Si02
#       5
#     8   8  16  16   8
#     4  11  26  43  58  88 128 167 210 255 312 378
#     4   9  20  34  54  90 130 160 190 249 322 371
#     4  10  20  37  62  95 122 154 211 258 303 374
#     4  11  21  39  62  86 121 165 203 256 313 367
#     4  11  22  33  56  91 119 154 207 258 312 368
#
# _framework density 18.014437999999998
#
# number of rings (size 3 to 8) (size 9 to 14) (size 15 to 20)
#    0.000    1.571    2.857    2.571    4.000    6.857 
#    0.000    0.000    0.000    0.000    0.000    0.000 
#    0.000    0.000    0.000    0.000    0.000    0.000 
#
# Total GULP energy -312440.332091 kJ/mol
# GULP energy per Si atom -5579.291644 kJ/mol
# Density = 1.797344 g / cm^3
# Si number density = 18.014438 Si / 1000 Ang^3
#
#
#
# Elastic Constant Matrix: (Units=GPa)
#
#
# Indices 1 2 3 4 5 6 
#
# 1 133.3049 70.3207 36.3107 0.0000 0.0000 0.0000
# 2 70.3207 133.3053 36.3108 0.0000 0.0000 0.0000
# 3 36.3107 36.3108 90.7807 0.0000 0.0000 0.0000
# 4 0.0000 0.0000 0.0000 27.0938 0.0000 0.0000
# 5 0.0000 0.0000 0.0000 0.0000 27.0942 0.0000
# 6 0.0000 0.0000 0.0000 0.0000 0.0000 29.9873
#
#
#
# Elastic Compliance Matrix: (Units=1/GPa)
#
#
# Indices 1 2 3 4 5 6 
#
# 1 0.010803 -0.005074 -0.002291 0.000000 0.000000 0.000000
# 2 -0.005074 0.010803 -0.002291 0.000000 0.000000 0.000000
# 3 -0.002291 -0.002291 0.012848 0.000000 0.000000 0.000000
# 4 0.000000 0.000000 0.000000 0.036909 0.000000 0.000000
# 5 0.000000 0.000000 0.000000 0.000000 0.036908 0.000000
# 6 0.000000 0.000000 0.000000 0.000000 0.000000 0.033347
#
#
# Mechanical properties :
#
#
# Convention : Reuss Voigt Hill
#
# Bulk Modulus (GPa) = 66.05014 71.47502 68.76258
# Shear Modulus (GPa) = 30.12447 31.13164 30.62805
#
# Velocity S-wave (km/s) = 4.09374 4.16161 4.12782
# Velocity P-wave (km/s) = 7.68698 7.92809 7.80847
#
# Compressibility (1/GPa) = 0.01514001
#
# Stress axis : x y z
#
# Youngs Moduli (GPa) = 92.57085 92.57106 77.83078
#
# Poissons Ratio (x) = 0.46975 0.17832
# Poissons Ratio (y) = 0.46975 0.17832
# Poissons Ratio (z) = 0.21209 0.21209
#
# Static dielectric constant tensor:
#      x y z
#    x 1.667220 0.000000 0.000000 
#    y 0.000000 1.667220 0.000000 
#    z 0.000000 0.000000 1.543500 
# 
# From -- ./inp_files/7358.got.cif
#   From: 2010.05.17/outbox.cif.g08.bks.cpg/sg132_4_cif.got.tgz:7358.got - 2010.05.20 12:30:18.
