data_PCOD9567218
_publ_section_title
;
Structure prediction by ZEFSAII (Michael W. Deem and Ramdas Pophale) SiO2 
 PCOD9567218
Probable space group: P 42/M C M
;
_chemical_formula_sum "Si O2"
_cell_formula_units_Z 96
_cell_length_a 26.082778
_cell_length_b 26.082778
_cell_length_c 8.806845
_cell_angle_alpha 90.000000
_cell_angle_beta 90.000000
_cell_angle_gamma 90.000000
_cell_volume 5991.396243
_symmetry_space_group_name_H-M "P 42/M C M"
_symmetry_group_IT_number 132
_symmetry_cell_setting 'tetragonal'
loop_
_space_group_symop_operation_xyz
x,y,z
-y,x,1/2+z
-x,-y,z
y,-x,1/2+z
x,-y,1/2-z
-x,y,1/2-z
y,x,-z
-y,-x,-z
-x,-y,-z
y,-x,1/2-z
x,y,-z
-y,x,1/2-z
-x,y,1/2+z
x,-y,1/2+z
-y,-x,z
y,x,z
loop_
_atom_site_type_symbol
_atom_site_label
_atom_site_fract_x
_atom_site_fract_y
_atom_site_fract_z
Si Si1 0.636930 0.834516 0.318414
Si Si2 0.444865 0.361870 0.182952
Si Si3 0.948693 0.246682 0.318749
Si Si4 0.638516 0.050975 0.181338
Si Si5 0.751155 0.165181 0.683149
Si Si6 0.243256 0.444496 0.817954
O O1 0.637878 0.829046 0.500000
O O2 0.617291 0.892508 0.283558
O O3 0.694992 0.829386 0.256453
O O4 0.599564 0.793195 0.245223
O O5 0.500000 0.376399 0.250000
O O6 0.400374 0.400374 0.233568
O O7 0.434391 0.302713 0.225316
O O8 0.447733 0.363871 0.000000
O O9 0.954036 0.248642 0.500000
O O10 0.947552 0.304422 0.252379
O O11 0.891712 0.226679 0.281257
O O12 0.000000 0.221644 0.250000
O O13 0.612868 0.000000 0.250000
O O14 0.642135 0.045570 0.000000
O O15 0.745024 0.167391 0.500000
O O16 0.790170 0.209830 0.729749
O O17 0.229379 0.500000 0.750000
O O18 0.240051 0.446389 0.000000
#
# Coordination Sequence:
#
# PCOD9567218 Si02
#       6
#    16  16  16  16  16  16
#     4  10  20  32  47  70  96 122 154 191 233 278
#     4   9  19  35  53  74  98 122 150 184 222 265
#     4   9  15  24  40  60  84 116 153 190 227 270
#     4   9  16  26  42  64  90 117 148 187 227 270
#     4   9  18  31  45  64  93 127 159 190 228 276
#     4  10  20  35  54  72  93 124 159 194 228 267
#
# _framework density 16.022976
#
# number of rings (size 3 to 8) (size 9 to 14) (size 15 to 20)
#    0.000    2.667    0.000    3.000    0.000    4.833 
#    0.000    2.500    0.000    0.500    0.000    3.500 
#    0.000    0.333    0.000    4.167    0.000    0.000 
#
# Total GULP energy -534592.599925 kJ/mol
# GULP energy per Si atom -5568.672916 kJ/mol
# Density = 1.598651 g / cm^3
# Si number density = 16.022976 Si / 1000 Ang^3
#
#
#
# Elastic Constant Matrix: (Units=GPa)
#
#
# Indices 1 2 3 4 5 6 
#
# 1 103.2296 80.0610 38.6228 0.0000 0.0000 0.0000
# 2 80.0610 103.2296 38.6228 0.0000 0.0000 0.0000
# 3 38.6228 38.6228 45.0545 0.0000 0.0000 0.0000
# 4 0.0000 0.0000 0.0000 32.6566 0.0000 0.0000
# 5 0.0000 0.0000 0.0000 0.0000 32.6566 0.0000
# 6 0.0000 0.0000 0.0000 0.0000 0.0000 -2.6772
#
#
#
# Elastic Compliance Matrix: (Units=1/GPa)
#
#
# Indices 1 2 3 4 5 6 
#
# 1 0.025852 -0.017310 -0.007322 0.000000 0.000000 0.000000
# 2 -0.017310 0.025852 -0.007322 0.000000 0.000000 0.000000
# 3 -0.007322 -0.007322 0.034750 0.000000 0.000000 0.000000
# 4 0.000000 0.000000 0.000000 0.030622 0.000000 0.000000
# 5 0.000000 0.000000 0.000000 0.000000 0.030622 0.000000
# 6 0.000000 0.000000 0.000000 0.000000 0.000000 -0.373524
#
#
# Mechanical properties :
#
#
# Convention : Reuss Voigt Hill
#
# Bulk Modulus (GPa) = 44.35871 62.90298 53.63084
# Shear Modulus (GPa) = -32.38279 18.80767 -6.78756
#
# Velocity S-wave (km/s) = -4.50046 3.42978 -2.06042
# Velocity P-wave (km/s) = 0.85970 7.41807 5.28048
#
# Compressibility (1/GPa) = 0.02254349
#
# Stress axis : x y z
#
# Youngs Moduli (GPa) = 38.68201 38.68201 28.77734
#
# Poissons Ratio (x) = 0.66959 0.21072
# Poissons Ratio (y) = 0.66959 0.21072
# Poissons Ratio (z) = 0.28325 0.28325
#
# Static dielectric constant tensor:
#      x y z
#    x 1.543900 0.000000 0.000000 
#    y 0.000000 1.543900 0.000000 
#    z 0.000000 0.000000 1.537690 
# 
# From -- ./inp_files/1722.got.cif
#   From: 2010.05.17/outbox.cif.g08.bks.cpg/sg132_1_cif.got.tgz:1722.got - 2010.05.20 12:30:18.
