data_PCOD9567382
_publ_section_title
;
Structure prediction by ZEFSAII (Michael W. Deem and Ramdas Pophale) SiO2 
 PCOD9567382
Probable space group: P 42/M C M
;
_chemical_formula_sum "Si O2"
_cell_formula_units_Z 56
_cell_length_a 12.791273
_cell_length_b 12.791273
_cell_length_c 18.468159
_cell_angle_alpha 90.000000
_cell_angle_beta 90.000000
_cell_angle_gamma 90.000000
_cell_volume 3021.698584
_symmetry_space_group_name_H-M "P 42/M C M"
_symmetry_group_IT_number 132
_symmetry_cell_setting 'tetragonal'
loop_
_space_group_symop_operation_xyz
x,y,z
-y,x,1/2+z
-x,-y,z
y,-x,1/2+z
x,-y,1/2-z
-x,y,1/2-z
y,x,-z
-y,-x,-z
-x,-y,-z
y,-x,1/2-z
x,y,-z
-y,x,1/2-z
-x,y,1/2+z
x,-y,1/2+z
-y,-x,z
y,x,z
loop_
_atom_site_type_symbol
_atom_site_label
_atom_site_fract_x
_atom_site_fract_y
_atom_site_fract_z
Si Si1 0.565388 0.105473 0.586742
Si Si2 0.332145 0.502099 0.912163
Si Si3 0.910513 0.910513 0.418803
Si Si4 0.231485 0.054011 0.825317
O O1 0.587404 0.110398 0.500000
O O2 0.504785 0.211320 0.608161
O O3 0.671603 0.101945 0.632001
O O4 0.500000 0.000000 0.599918
O O5 0.396719 0.603282 0.886602
O O6 0.399828 0.399828 0.890434
O O7 0.334515 0.504031 0.000000
O O8 0.880454 0.880454 0.500000
O O9 0.963438 0.816979 0.375729
O O10 0.000000 0.000000 0.422846
O O11 0.140832 0.140832 0.813288
O O12 0.261039 0.000000 0.750000
#
# Coordination Sequence:
#
# PCOD9567382 Si02
#       4
#    16  16   8  16
#     4  10  21  36  54  83 119 152 194 250 306 364
#     4   8  14  28  52  79 107 142 185 233 285 341
#     4   9  18  32  54  82 110 146 195 246 289 343
#     4  11  21  36  58  82 115 157 200 247 298 358
#
# _framework density 18.532623000000001
#
# number of rings (size 3 to 8) (size 9 to 14) (size 15 to 20)
#    0.000    2.429    1.429    2.571    0.000    3.429 
#    2.571    0.000    0.000    0.000    0.000    0.000 
#    0.000    4.571    0.000    0.286    0.000    0.857 
#
# Total GULP energy -312297.689157 kJ/mol
# GULP energy per Si atom -5576.744449 kJ/mol
# Density = 1.849044 g / cm^3
# Si number density = 18.532623 Si / 1000 Ang^3
#
#
#
# Elastic Constant Matrix: (Units=GPa)
#
#
# Indices 1 2 3 4 5 6 
#
# 1 113.6337 61.5568 24.4300 0.0000 0.0000 0.0000
# 2 61.5568 113.6337 24.4300 0.0000 0.0000 0.0000
# 3 24.4300 24.4300 55.4252 0.0000 0.0000 0.0000
# 4 0.0000 0.0000 0.0000 0.5264 0.0000 0.0000
# 5 0.0000 0.0000 0.0000 0.0000 0.5264 0.0000
# 6 0.0000 0.0000 0.0000 0.0000 0.0000 22.6907
#
#
#
# Elastic Compliance Matrix: (Units=1/GPa)
#
#
# Indices 1 2 3 4 5 6 
#
# 1 0.012855 -0.006347 -0.002869 0.000000 0.000000 0.000000
# 2 -0.006347 0.012855 -0.002869 0.000000 0.000000 0.000000
# 3 -0.002869 -0.002869 0.020571 0.000000 0.000000 0.000000
# 4 0.000000 0.000000 0.000000 1.899586 0.000000 0.000000
# 5 0.000000 0.000000 0.000000 0.000000 1.899586 0.000000
# 6 0.000000 0.000000 0.000000 0.000000 0.000000 0.044071
#
#
# Mechanical properties :
#
#
# Convention : Reuss Voigt Hill
#
# Bulk Modulus (GPa) = 45.22238 55.94736 50.58487
# Shear Modulus (GPa) = 1.27516 16.23375 8.75446
#
# Velocity S-wave (km/s) = 0.83040 2.96287 2.17579
# Velocity P-wave (km/s) = 5.03725 6.47757 5.80227
#
# Compressibility (1/GPa) = 0.02211295
#
# Stress axis : x y z
#
# Youngs Moduli (GPa) = 77.78929 77.78929 48.61170
#
# Poissons Ratio (x) = 0.49374 0.13945
# Poissons Ratio (y) = 0.49374 0.13945
# Poissons Ratio (z) = 0.22315 0.22315
#
# Static dielectric constant tensor:
#      x y z
#    x 1.640120 0.000000 0.000000 
#    y 0.000000 1.640120 0.000000 
#    z 0.000000 0.000000 1.621950 
# 
# From -- ./inp_files/7293.got.cif
#   From: 2010.05.17/outbox.cif.g08.bks.cpg/sg132_4_cif.got.tgz:7293.got - 2010.05.20 12:30:18.
