data_PCOD9567825
_publ_section_title
;
Structure prediction by ZEFSAII (Michael W. Deem and Ramdas Pophale) SiO2 
 PCOD9567825
Probable space group: P 42/N B C
;
_chemical_formula_sum "Si O2"
_cell_formula_units_Z 80
_cell_length_a 13.672858
_cell_length_b 13.672858
_cell_length_c 23.567174
_cell_angle_alpha 90.000000
_cell_angle_beta 90.000000
_cell_angle_gamma 90.000000
_cell_volume 4405.813559
_symmetry_space_group_name_H-M "P 42/N B C"
_symmetry_group_IT_number 133
_space_group.IT_coordinate_system_code '2'
_symmetry_cell_setting 'tetragonal'
loop_
_space_group_symop_operation_xyz
x,y,z
1/2-y,x,1/2+z
1/2-x,1/2-y,z
y,1/2-x,1/2+z
x,1/2-y,-z
1/2-x,y,-z
y,x,1/2-z
1/2-y,1/2-x,1/2-z
-x,-y,-z
1/2+y,-x,1/2-z
1/2+x,1/2+y,-z
-y,1/2+x,1/2-z
-x,1/2+y,z
1/2+x,-y,z
-y,-x,1/2+z
1/2+y,1/2+x,1/2+z
loop_
_atom_site_type_symbol
_atom_site_label
_atom_site_fract_x
_atom_site_fract_y
_atom_site_fract_z
Si Si1 0.259728 0.864629 0.567511
Si Si2 0.204805 0.355415 0.685507
Si Si3 0.981294 0.413834 0.867172
Si Si4 0.856431 0.371729 0.252839
Si Si5 0.507734 0.128158 0.150967
O O1 0.250000 0.750000 0.584561
O O2 0.250000 0.869431 0.500000
O O3 0.358955 0.919916 0.584728
O O4 0.182135 0.926986 0.603936
O O5 0.250000 0.250000 0.668945
O O6 0.161387 0.338614 0.750000
O O7 0.125230 0.407250 0.643693
O O8 0.297354 0.429635 0.678924
O O9 0.930233 0.380750 0.808771
O O10 0.967157 0.528652 0.874339
O O11 0.879267 0.257459 0.261340
O O12 0.921921 0.406593 0.201417
#
# Coordination Sequence:
#
# PCOD9567825 Si02
#       5
#    16  16  16  16  16
#     4  10  22  44  65  85 115 153 202 255 301 347
#     4  10  22  36  50  80 125 165 188 230 291 355
#     4  11  23  36  59  89 117 157 198 244 294 356
#     4  11  20  33  58  89 126 151 191 248 301 353
#     4  11  23  36  58  89 119 159 198 244 293 360
#
# _framework density 18.157826
#
# number of rings (size 3 to 8) (size 9 to 14) (size 15 to 20)
#    0.000    1.400    4.000    3.000    5.600    2.400 
#    0.000    0.000    0.000    9.600    0.000    0.000 
#    0.000    0.000    0.000    0.000    0.000    0.000 
#
# Total GULP energy -446026.946329 kJ/mol
# GULP energy per Si atom -5575.336829 kJ/mol
# Density = 1.811650 g / cm^3
# Si number density = 18.157826 Si / 1000 Ang^3
#
#
#
# Elastic Constant Matrix: (Units=GPa)
#
#
# Indices 1 2 3 4 5 6 
#
# 1 154.7503 2.5250 35.5276 0.0000 0.0000 0.0000
# 2 2.5250 154.7511 35.5278 0.0000 0.0000 0.0000
# 3 35.5276 35.5278 75.6783 0.0000 0.0000 0.0000
# 4 0.0000 0.0000 0.0000 130.2203 0.0000 0.0000
# 5 0.0000 0.0000 0.0000 0.0000 130.1996 0.0000
# 6 0.0000 0.0000 0.0000 0.0000 0.0000 17.3607
#
#
#
# Elastic Compliance Matrix: (Units=1/GPa)
#
#
# Indices 1 2 3 4 5 6 
#
# 1 0.007320 0.000750 -0.003788 0.000000 0.000000 0.000000
# 2 0.000750 0.007319 -0.003788 0.000000 0.000000 0.000000
# 3 -0.003788 -0.003788 0.016771 0.000000 0.000000 0.000000
# 4 0.000000 0.000000 0.000000 0.007679 0.000000 0.000000
# 5 0.000000 0.000000 0.000000 0.000000 0.007681 0.000000
# 6 0.000000 0.000000 0.000000 0.000000 0.000000 0.057601
#
#
# Mechanical properties :
#
#
# Convention : Reuss Voigt Hill
#
# Bulk Modulus (GPa) = 56.31658 59.14894 57.73276
# Shear Modulus (GPa) = 40.34113 76.32941 58.33527
#
# Velocity S-wave (km/s) = 4.71860 6.49060 5.67420
# Velocity P-wave (km/s) = 7.79546 9.42423 8.64828
#
# Compressibility (1/GPa) = 0.01775676
#
# Stress axis : x y z
#
# Youngs Moduli (GPa) = 136.62073 136.62147 59.62730
#
# Poissons Ratio (x) = -0.10251 0.22589
# Poissons Ratio (y) = -0.10251 0.22589
# Poissons Ratio (z) = 0.51758 0.51758
#
# Static dielectric constant tensor:
#      x y z
#    x 1.665320 0.000000 0.000000 
#    y 0.000000 1.665320 0.000000 
#    z 0.000000 0.000000 1.584910 
# 
# From -- ./inp_files/7103.got.cif
#   From: 2010.05.17/outbox.cif.g08.bks.cpg/sg133_4_cif.got.tgz:7103.got - 2010.05.20 12:37:36.
