data_PCOD9567494
_publ_section_title
;
Structure prediction by ZEFSAII (Michael W. Deem and Ramdas Pophale) SiO2 
 PCOD9567494
Probable space group: P 42/M C M
;
_chemical_formula_sum "Si O2"
_cell_formula_units_Z 88
_cell_length_a 12.564408
_cell_length_b 12.564408
_cell_length_c 28.675315
_cell_angle_alpha 90.000000
_cell_angle_beta 90.000000
_cell_angle_gamma 90.000000
_cell_volume 4526.809917
_symmetry_space_group_name_H-M "P 42/M C M"
_symmetry_group_IT_number 132
_symmetry_cell_setting 'tetragonal'
loop_
_space_group_symop_operation_xyz
x,y,z
-y,x,1/2+z
-x,-y,z
y,-x,1/2+z
x,-y,1/2-z
-x,y,1/2-z
y,x,-z
-y,-x,-z
-x,-y,-z
y,-x,1/2-z
x,y,-z
-y,x,1/2-z
-x,y,1/2+z
x,-y,1/2+z
-y,-x,z
y,x,z
loop_
_atom_site_type_symbol
_atom_site_label
_atom_site_fract_x
_atom_site_fract_y
_atom_site_fract_z
Si Si1 0.540014 0.877728 0.801055
Si Si2 0.809116 0.469005 0.897479
Si Si3 0.861767 0.311042 0.555622
Si Si4 0.246091 0.928622 0.896071
Si Si5 0.589852 0.589852 0.554233
Si Si6 0.048652 0.223725 0.198389
O O1 0.500000 0.845867 0.750000
O O2 0.493139 0.807688 0.842418
O O3 0.667320 0.883673 0.803176
O O4 0.500000 0.000000 0.808522
O O5 0.860801 0.572964 0.921051
O O6 0.875378 0.360989 0.904183
O O7 0.694832 0.451529 0.920229
O O8 0.868435 0.321199 0.500000
O O9 0.754208 0.245793 0.567104
O O10 0.961751 0.245992 0.575438
O O11 0.153911 0.846090 0.909118
O O12 0.233719 0.960130 0.841671
O O13 0.500000 0.500000 0.555421
O O14 0.613878 0.613878 0.500000
O O15 0.123274 0.123274 0.188850
O O16 0.000000 0.215329 0.250000
#
# Coordination Sequence:
#
# PCOD9567494 Si02
#       6
#    16  16  16  16   8  16
#     4  11  20  40  69  97 131 175 224 277 338 405
#     4  12  22  43  72  97 133 176 229 286 345 412
#     4  11  25  44  68  97 131 173 224 280 341 410
#     4  12  25  42  63  97 136 178 226 278 336 409
#     4  11  26  46  72 104 137 177 229 297 366 422
#     4  12  24  40  65  99 135 177 229 279 334 401
#
# _framework density 19.439738999999999
#
# number of rings (size 3 to 8) (size 9 to 14) (size 15 to 20)
#    0.000    0.455    6.364    2.727    0.000    7.091 
#    1.636    0.909    0.000    0.000    0.000    0.000 
#    0.000    0.000    0.000    0.000    0.000    0.000 
#
# Total GULP energy -492298.326608 kJ/mol
# GULP energy per Si atom -5594.299166 kJ/mol
# Density = 1.939549 g / cm^3
# Si number density = 19.439739 Si / 1000 Ang^3
#
#
#
# Elastic Constant Matrix: (Units=GPa)
#
#
# Indices 1 2 3 4 5 6 
#
# 1 75.1388 53.6258 40.7774 0.0000 0.0000 0.0000
# 2 53.6258 75.1388 40.7774 0.0000 0.0000 0.0000
# 3 40.7774 40.7774 120.4065 0.0000 0.0000 0.0000
# 4 0.0000 0.0000 0.0000 -10.9242 0.0000 0.0000
# 5 0.0000 0.0000 0.0000 0.0000 -10.9242 0.0000
# 6 0.0000 0.0000 0.0000 0.0000 0.0000 25.5949
#
#
#
# Elastic Compliance Matrix: (Units=1/GPa)
#
#
# Indices 1 2 3 4 5 6 
#
# 1 0.028185 -0.018298 -0.003348 0.000000 0.000000 0.000000
# 2 -0.018298 0.028185 -0.003348 0.000000 0.000000 0.000000
# 3 -0.003348 -0.003348 0.010573 0.000000 0.000000 0.000000
# 4 0.000000 0.000000 0.000000 -0.091540 0.000000 0.000000
# 5 0.000000 0.000000 0.000000 0.000000 -0.091540 0.000000
# 6 0.000000 0.000000 0.000000 0.000000 0.000000 0.039070
#
#
# Mechanical properties :
#
#
# Convention : Reuss Voigt Hill
#
# Bulk Modulus (GPa) = 58.98495 60.11616 59.55055
# Shear Modulus (GPa) = -233.37739 9.78285 -111.79727
#
# Velocity S-wave (km/s) = -10.96870 2.24573 -7.59174
# Velocity P-wave (km/s) = 11.40211 6.14133 6.79309
#
# Compressibility (1/GPa) = 0.01695348
#
# Stress axis : x y z
#
# Youngs Moduli (GPa) = 35.47974 35.47974 94.57957
#
# Poissons Ratio (x) = 0.64922 0.31668
# Poissons Ratio (y) = 0.64922 0.31668
# Poissons Ratio (z) = 0.11880 0.11880
#
# Static dielectric constant tensor:
#      x y z
#    x 1.668300 0.000000 0.000000 
#    y 0.000000 1.668300 0.000000 
#    z 0.000000 0.000000 1.670960 
# 
# From -- ./inp_files/10761.got.cif
#   From: 2010.05.17/outbox.cif.g08.bks.cpg/sg132_6_cif.got.tgz:10761.got - 2010.05.20 12:30:18.
