data_PCOD9567088
_publ_section_title
;
Structure prediction by ZEFSAII (Michael W. Deem and Ramdas Pophale) SiO2 
 PCOD9567088
Probable space group: P 42/M C M
;
_chemical_formula_sum "Si O2"
_cell_formula_units_Z 80
_cell_length_a 18.725998
_cell_length_b 18.725998
_cell_length_c 12.931442
_cell_angle_alpha 90.000000
_cell_angle_beta 90.000000
_cell_angle_gamma 90.000000
_cell_volume 4534.578260
_symmetry_space_group_name_H-M "P 42/M C M"
_symmetry_group_IT_number 132
_symmetry_cell_setting 'tetragonal'
loop_
_space_group_symop_operation_xyz
x,y,z
-y,x,1/2+z
-x,-y,z
y,-x,1/2+z
x,-y,1/2-z
-x,y,1/2-z
y,x,-z
-y,-x,-z
-x,-y,-z
y,-x,1/2-z
x,y,-z
-y,x,1/2-z
-x,y,1/2+z
x,-y,1/2+z
-y,-x,z
y,x,z
loop_
_atom_site_type_symbol
_atom_site_label
_atom_site_fract_x
_atom_site_fract_y
_atom_site_fract_z
Si Si1 0.791635 0.900177 0.659435
Si Si2 0.937155 0.240976 0.615974
Si Si3 0.113725 0.449405 0.626187
Si Si4 0.782195 0.329634 0.878263
Si Si5 0.954775 0.404229 0.624076
O O1 0.864005 0.864005 0.620421
O O2 0.796695 0.905916 0.783802
O O3 0.727761 0.846350 0.631387
O O4 0.774953 0.978231 0.617423
O O5 0.909781 0.226187 0.500000
O O6 0.928278 0.324783 0.641650
O O7 0.116911 0.445926 0.500000
O O8 0.182318 0.403455 0.662067
O O9 0.099731 0.532494 0.653452
O O10 0.037518 0.413946 0.658392
O O11 0.711796 0.288205 0.834327
O O12 0.767762 0.340554 0.000000
O O13 0.960723 0.411535 0.500000
#
# Coordination Sequence:
#
# PCOD9567088 Si02
#       5
#    16  16  16  16  16
#     4  10  20  31  45  65  85 103 133 177 216 259
#     4  10  19  32  48  63  82 106 136 169 214 268
#     4   8  12  20  36  58  85 112 139 170 206 242
#     4   9  15  24  40  60  84 115 147 177 211 249
#     4   8  13  22  38  58  81 110 137 168 206 247
#
# _framework density 17.642213000000002
#
# number of rings (size 3 to 8) (size 9 to 14) (size 15 to 20)
#    0.000    3.000    2.000    1.800    0.000    1.600 
#    0.000    1.000    0.000    4.800    0.000    5.600 
#    0.000    0.000    0.000    0.000    0.000    1.000 
#
# Total GULP energy -445606.859071 kJ/mol
# GULP energy per Si atom -5570.085738 kJ/mol
# Density = 1.760206 g / cm^3
# Si number density = 17.642213 Si / 1000 Ang^3
#
#
#
# Elastic Constant Matrix: (Units=GPa)
#
#
# Indices 1 2 3 4 5 6 
#
# 1 53.8472 68.3400 10.1557 0.0000 0.0000 0.0000
# 2 68.3400 53.8472 10.1557 0.0000 0.0000 0.0000
# 3 10.1557 10.1557 74.3804 0.0000 0.0000 0.0000
# 4 0.0000 0.0000 0.0000 10.4142 0.0000 0.0000
# 5 0.0000 0.0000 0.0000 0.0000 10.4142 0.0000
# 6 0.0000 0.0000 0.0000 0.0000 0.0000 39.5587
#
#
#
# Elastic Compliance Matrix: (Units=1/GPa)
#
#
# Indices 1 2 3 4 5 6 
#
# 1 -0.030313 0.038687 -0.001143 0.000000 0.000000 0.000000
# 2 0.038687 -0.030313 -0.001143 0.000000 0.000000 0.000000
# 3 -0.001143 -0.001143 0.013757 0.000000 0.000000 0.000000
# 4 0.000000 0.000000 0.000000 0.096023 0.000000 0.000000
# 5 0.000000 0.000000 0.000000 0.000000 0.096023 0.000000
# 6 0.000000 0.000000 0.000000 0.000000 0.000000 0.025279
#
#
# Mechanical properties :
#
#
# Convention : Reuss Voigt Hill
#
# Bulk Modulus (GPa) = 38.56310 39.93083 39.24696
# Shear Modulus (GPa) = 47.03712 18.30565 32.67138
#
# Velocity S-wave (km/s) = 5.16910 3.22468 4.30802
# Velocity P-wave (km/s) = 7.58498 6.04546 6.85855
#
# Compressibility (1/GPa) = 0.02593153
#
# Stress axis : x y z
#
# Youngs Moduli (GPa) = -32.98954 -32.98954 72.69224
#
# Poissons Ratio (x) = 1.27626 0.08312
# Poissons Ratio (y) = 1.27626 0.08312
# Poissons Ratio (z) = -0.03772 -0.03772
#
# Static dielectric constant tensor:
#      x y z
#    x 1.608040 0.000000 0.000000 
#    y 0.000000 1.608040 0.000000 
#    z 0.000000 0.000000 1.712420 
# 
# From -- ./inp_files/4627.got.cif
#   From: 2010.05.17/outbox.cif.g08.bks.cpg/sg132_3_cif.got.tgz:4627.got - 2010.05.20 12:30:18.
