data_PCOD9567251
_publ_section_title
;
Structure prediction by ZEFSAII (Michael W. Deem and Ramdas Pophale) SiO2 
 PCOD9567251
Probable space group: P 42/M C M
;
_chemical_formula_sum "Si O2"
_cell_formula_units_Z 72
_cell_length_a 11.459631
_cell_length_b 11.459631
_cell_length_c 32.280404
_cell_angle_alpha 90.000000
_cell_angle_beta 90.000000
_cell_angle_gamma 90.000000
_cell_volume 4239.164099
_symmetry_space_group_name_H-M "P 42/M C M"
_symmetry_group_IT_number 132
_symmetry_cell_setting 'tetragonal'
loop_
_space_group_symop_operation_xyz
x,y,z
-y,x,1/2+z
-x,-y,z
y,-x,1/2+z
x,-y,1/2-z
-x,y,1/2-z
y,x,-z
-y,-x,-z
-x,-y,-z
y,-x,1/2-z
x,y,-z
-y,x,1/2-z
-x,y,1/2+z
x,-y,1/2+z
-y,-x,z
y,x,z
loop_
_atom_site_type_symbol
_atom_site_label
_atom_site_fract_x
_atom_site_fract_y
_atom_site_fract_z
Si Si1 0.652481 0.834986 0.850094
Si Si2 0.365887 0.988483 0.077458
Si Si3 0.620063 0.192966 0.847379
Si Si4 0.997519 0.194971 0.500000
Si Si5 0.783878 0.969227 0.701888
O O1 0.709668 0.709668 0.851419
O O2 0.657188 0.898402 0.894315
O O3 0.516944 0.821567 0.838724
O O4 0.732938 0.917486 0.821242
O O5 0.500000 0.000000 0.062877
O O6 0.356482 0.880281 0.110011
O O7 0.275576 0.985749 0.040259
O O8 0.679796 0.320205 0.851193
O O9 0.687540 0.126835 0.810497
O O10 0.096432 0.096432 0.500000
O O11 0.873955 0.126046 0.500000
O O12 0.905913 0.905913 0.688913
O O13 0.792359 0.000000 0.750000
#
# Coordination Sequence:
#
# PCOD9567251 Si02
#       5
#    16  16  16   8  16
#     4  10  20  33  51  75 101 128 161 205 251 292
#     4   9  18  34  52  69  94 129 166 199 236 286
#     4   9  19  35  53  72  97 131 167 203 244 292
#     4  11  21  30  46  74 103 127 154 194 244 295
#     4  10  20  34  52  73  98 130 168 205 243 292
#
# _framework density 16.984480999999999
#
# number of rings (size 3 to 8) (size 9 to 14) (size 15 to 20)
#    0.000    2.333    0.000    4.333    0.000    4.667 
#    0.000    0.000    0.000    0.000    0.000    3.111 
#    0.000   16.000    0.000    0.000    0.000    0.000 
#
# Total GULP energy -400898.491141 kJ/mol
# GULP energy per Si atom -5568.034599 kJ/mol
# Density = 1.694582 g / cm^3
# Si number density = 16.984481 Si / 1000 Ang^3
#
#
#
# Elastic Constant Matrix: (Units=GPa)
#
#
# Indices 1 2 3 4 5 6 
#
# 1 84.8984 89.6115 40.2289 0.0000 0.0000 0.0000
# 2 89.6115 84.8973 40.2285 0.0000 0.0000 0.0000
# 3 40.2289 40.2285 58.9309 0.0000 0.0000 0.0000
# 4 0.0000 0.0000 0.0000 -36.5330 0.0000 0.0000
# 5 0.0000 0.0000 0.0000 0.0000 -36.5320 0.0000
# 6 0.0000 0.0000 0.0000 0.0000 0.0000 24.1282
#
#
#
# Elastic Compliance Matrix: (Units=1/GPa)
#
#
# Indices 1 2 3 4 5 6 
#
# 1 -0.101893 0.110256 -0.005708 0.000000 0.000000 0.000000
# 2 0.110256 -0.101894 -0.005709 0.000000 0.000000 0.000000
# 3 -0.005708 -0.005709 0.024763 0.000000 0.000000 0.000000
# 4 0.000000 0.000000 0.000000 -0.027373 0.000000 0.000000
# 5 0.000000 0.000000 0.000000 0.000000 -0.027373 0.000000
# 6 0.000000 0.000000 0.000000 0.000000 0.000000 0.041445
#
#
# Mechanical properties :
#
#
# Convention : Reuss Voigt Hill
#
# Bulk Modulus (GPa) = 53.60943 63.20716 58.40829
# Shear Modulus (GPa) = -13.02808 -5.87684 -9.45246
#
# Velocity S-wave (km/s) = -2.77259 -1.86216 -2.36166
# Velocity P-wave (km/s) = 4.62414 5.71594 5.19878
#
# Compressibility (1/GPa) = 0.01865344
#
# Stress axis : x y z
#
# Youngs Moduli (GPa) = -9.81419 -9.81409 40.38351
#
# Poissons Ratio (x) = 1.08206 0.23051
# Poissons Ratio (y) = 1.08207 0.23054
# Poissons Ratio (z) = -0.05602 -0.05603
#
# Static dielectric constant tensor:
#      x y z
#    x 1.582520 0.000000 0.000000 
#    y 0.000000 1.582520 0.000000 
#    z 0.000000 0.000000 1.550750 
# 
# From -- ./inp_files/10464.got.cif
#   From: 2010.05.17/outbox.cif.g08.bks.cpg/sg132_6_cif.got.tgz:10464.got - 2010.05.20 12:30:18.
