data_PCOD9567807
_publ_section_title
;
Structure prediction by ZEFSAII (Michael W. Deem and Ramdas Pophale) SiO2 
 PCOD9567807
Probable space group: P 42/N B C
;
_chemical_formula_sum "Si O2"
_cell_formula_units_Z 72
_cell_length_a 13.798827
_cell_length_b 13.798827
_cell_length_c 17.778576
_cell_angle_alpha 90.000000
_cell_angle_beta 90.000000
_cell_angle_gamma 90.000000
_cell_volume 3385.176460
_symmetry_space_group_name_H-M "P 42/N B C"
_symmetry_group_IT_number 133
_space_group.IT_coordinate_system_code '2'
_symmetry_cell_setting 'tetragonal'
loop_
_space_group_symop_operation_xyz
x,y,z
1/2-y,x,1/2+z
1/2-x,1/2-y,z
y,1/2-x,1/2+z
x,1/2-y,-z
1/2-x,y,-z
y,x,1/2-z
1/2-y,1/2-x,1/2-z
-x,-y,-z
1/2+y,-x,1/2-z
1/2+x,1/2+y,-z
-y,1/2+x,1/2-z
-x,1/2+y,z
1/2+x,-y,z
-y,-x,1/2+z
1/2+y,1/2+x,1/2+z
loop_
_atom_site_type_symbol
_atom_site_label
_atom_site_fract_x
_atom_site_fract_y
_atom_site_fract_z
Si Si1 0.796979 0.511888 0.216449
Si Si2 0.965731 0.848098 0.548615
Si Si3 0.064293 0.897814 0.324763
Si Si4 0.862784 0.459495 0.487347
Si Si5 0.122579 0.122579 0.750000
O O1 0.829555 0.553842 0.136363
O O2 0.715227 0.430265 0.197976
O O3 0.879908 0.464967 0.265946
O O4 0.733511 0.593212 0.259994
O O5 0.964030 0.750000 0.500000
O O6 0.894203 0.928131 0.513827
O O7 0.071502 0.898239 0.544495
O O8 0.947620 0.911966 0.318142
O O9 0.104939 0.918898 0.406148
O O10 0.750000 0.447851 0.500000
#
# Coordination Sequence:
#
# PCOD9567807 Si02
#       5
#    16  16  16  16   8
#     4  10  22  38  69  93 131 167 224 274 339 392
#     4  11  23  46  67  95 134 179 221 282 337 402
#     4  10  21  40  63  95 127 171 214 279 329 398
#     4  11  26  42  67  97 137 179 225 272 340 410
#     4   8  20  40  58  96 128 168 212 274 340 388
#
# _framework density 21.269202
#
# number of rings (size 3 to 8) (size 9 to 14) (size 15 to 20)
#    1.333    0.444    2.222    1.333    3.111    4.889 
#    0.000    0.000    0.000    4.667    0.000    0.000 
#    0.000    0.000    0.000    0.000    0.000    0.000 
#
# Total GULP energy -401765.871480 kJ/mol
# GULP energy per Si atom -5580.081548 kJ/mol
# Density = 2.122079 g / cm^3
# Si number density = 21.269202 Si / 1000 Ang^3
#
#
#
# Elastic Constant Matrix: (Units=GPa)
#
#
# Indices 1 2 3 4 5 6 
#
# 1 89.9901 23.1748 23.6741 0.0000 0.0000 0.0000
# 2 23.1748 89.9901 23.6741 0.0000 0.0000 0.0000
# 3 23.6741 23.6741 67.1262 0.0000 0.0000 0.0000
# 4 0.0000 0.0000 0.0000 24.7015 0.0000 0.0000
# 5 0.0000 0.0000 0.0000 0.0000 24.7015 0.0000
# 6 0.0000 0.0000 0.0000 0.0000 0.0000 16.6865
#
#
#
# Elastic Compliance Matrix: (Units=1/GPa)
#
#
# Indices 1 2 3 4 5 6 
#
# 1 0.012666 -0.002300 -0.003656 0.000000 0.000000 0.000000
# 2 -0.002300 0.012666 -0.003656 0.000000 0.000000 0.000000
# 3 -0.003656 -0.003656 0.017476 0.000000 0.000000 0.000000
# 4 0.000000 0.000000 0.000000 0.040483 0.000000 0.000000
# 5 0.000000 0.000000 0.000000 0.000000 0.040483 0.000000
# 6 0.000000 0.000000 0.000000 0.000000 0.000000 0.059929
#
#
# Mechanical properties :
#
#
# Convention : Reuss Voigt Hill
#
# Bulk Modulus (GPa) = 42.40025 43.12805 42.76415
# Shear Modulus (GPa) = 23.72024 24.99012 24.35518
#
# Velocity S-wave (km/s) = 3.34314 3.43146 3.38759
# Velocity P-wave (km/s) = 5.90597 6.00176 5.95406
#
# Compressibility (1/GPa) = 0.02358477
#
# Stress axis : x y z
#
# Youngs Moduli (GPa) = 78.94846 78.94846 57.22094
#
# Poissons Ratio (x) = 0.18159 0.20920
# Poissons Ratio (y) = 0.18159 0.20920
# Poissons Ratio (z) = 0.28864 0.28864
#
# Static dielectric constant tensor:
#      x y z
#    x 1.788100 0.000000 0.000000 
#    y 0.000000 1.788100 0.000000 
#    z 0.000000 0.000000 1.774820 
# 
# From -- ./inp_files/5360.got.cif
#   From: 2010.05.17/outbox.cif.g08.bks.cpg/sg133_3_cif.got.tgz:5360.got - 2010.05.20 12:37:36.
