data_PCOD9567941
_publ_section_title
;
Structure prediction by ZEFSAII (Michael W. Deem and Ramdas Pophale) SiO2 
 PCOD9567941
Probable space group: P 42/N B C
;
_chemical_formula_sum "Si O2"
_cell_formula_units_Z 80
_cell_length_a 12.078688
_cell_length_b 12.078688
_cell_length_c 25.790648
_cell_angle_alpha 90.000000
_cell_angle_beta 90.000000
_cell_angle_gamma 90.000000
_cell_volume 3762.718951
_symmetry_space_group_name_H-M "P 42/N B C"
_symmetry_group_IT_number 133
_space_group.IT_coordinate_system_code '2'
_symmetry_cell_setting 'tetragonal'
loop_
_space_group_symop_operation_xyz
x,y,z
1/2-y,x,1/2+z
1/2-x,1/2-y,z
y,1/2-x,1/2+z
x,1/2-y,-z
1/2-x,y,-z
y,x,1/2-z
1/2-y,1/2-x,1/2-z
-x,-y,-z
1/2+y,-x,1/2-z
1/2+x,1/2+y,-z
-y,1/2+x,1/2-z
-x,1/2+y,z
1/2+x,-y,z
-y,-x,1/2+z
1/2+y,1/2+x,1/2+z
loop_
_atom_site_type_symbol
_atom_site_label
_atom_site_fract_x
_atom_site_fract_y
_atom_site_fract_z
Si Si1 0.375726 0.477588 0.867587
Si Si2 0.556545 0.769008 0.269097
Si Si3 0.278701 0.121570 0.439529
Si Si4 0.433468 0.614836 0.191770
Si Si5 0.774419 0.369266 0.399322
O O1 0.287047 0.432493 0.825601
O O2 0.383296 0.403999 0.919028
O O3 0.495233 0.472840 0.840487
O O4 0.351817 0.601436 0.881446
O O5 0.660645 0.839356 0.250000
O O6 0.520671 0.681419 0.226159
O O7 0.450592 0.849184 0.272869
O O8 0.250000 0.250000 0.421183
O O9 0.250000 0.123214 0.500000
O O10 0.233520 0.997705 0.421393
O O11 0.375464 0.694708 0.150699
O O12 0.750000 0.250000 0.428134
#
# Coordination Sequence:
#
# PCOD9567941 Si02
#       5
#    16  16  16  16  16
#     4  11  25  42  66  99 140 182 238 290 354 423
#     4  12  24  38  63  97 141 194 243 287 345 423
#     4  10  26  48  74 103 135 179 232 302 377 436
#     4  11  24  39  60  98 143 190 237 290 346 416
#     4  11  23  44  73 103 143 189 235 298 359 426
#
# _framework density 21.261223000000001
#
# number of rings (size 3 to 8) (size 9 to 14) (size 15 to 20)
#    0.000    1.000    2.000    4.200    8.400    2.000 
#    0.000    2.000    0.000    0.000    0.000    0.000 
#    0.000    0.000    0.000    0.000    0.000    0.000 
#
# Total GULP energy -445637.024262 kJ/mol
# GULP energy per Si atom -5570.462803 kJ/mol
# Density = 2.121283 g / cm^3
# Si number density = 21.261223 Si / 1000 Ang^3
#
#
#
# Elastic Constant Matrix: (Units=GPa)
#
#
# Indices 1 2 3 4 5 6 
#
# 1 49.4303 116.7749 39.8912 0.0000 0.0000 0.0000
# 2 116.7749 49.4174 39.8871 0.0000 0.0000 0.0000
# 3 39.8912 39.8871 57.1314 0.0000 0.0000 0.0000
# 4 0.0000 0.0000 0.0000 15.2102 0.0000 0.0000
# 5 0.0000 0.0000 0.0000 0.0000 15.2109 0.0000
# 6 0.0000 0.0000 0.0000 0.0000 0.0000 37.6200
#
#
#
# Elastic Compliance Matrix: (Units=1/GPa)
#
#
# Indices 1 2 3 4 5 6 
#
# 1 -0.002898 0.011949 -0.006318 0.000000 0.000000 0.000000
# 2 0.011949 -0.002899 -0.006319 0.000000 0.000000 0.000000
# 3 -0.006318 -0.006319 0.026327 0.000000 0.000000 0.000000
# 4 0.000000 0.000000 0.000000 0.065745 0.000000 0.000000
# 5 0.000000 0.000000 0.000000 0.000000 0.065742 0.000000
# 6 0.000000 0.000000 0.000000 0.000000 0.000000 0.026582
#
#
# Mechanical properties :
#
#
# Convention : Reuss Voigt Hill
#
# Bulk Modulus (GPa) = 52.21356 61.00949 56.61152
# Shear Modulus (GPa) = 26.82983 10.90329 18.86656
#
# Velocity S-wave (km/s) = 3.55620 2.26702 2.98211
# Velocity P-wave (km/s) = 6.43999 5.96741 6.20820
#
# Compressibility (1/GPa) = 0.01915211
#
# Stress axis : x y z
#
# Youngs Moduli (GPa) = -345.02745 -344.91196 37.98395
#
# Poissons Ratio (x) = 4.12128 0.24000
# Poissons Ratio (y) = 4.12266 0.24002
# Poissons Ratio (z) = -2.18005 -2.17946
#
# Static dielectric constant tensor:
#      x y z
#    x 1.807790 0.000000 0.000000 
#    y 0.000000 1.807790 0.000000 
#    z 0.000000 0.000000 1.746600 
# 
# From -- ./inp_files/7887.got.cif
#   From: 2010.05.17/outbox.cif.g08.bks.cpg/sg133_4_cif.got.tgz:7887.got - 2010.05.20 12:37:36.
