data_PCOD9567604
_publ_section_title
;
Structure prediction by ZEFSAII (Michael W. Deem and Ramdas Pophale) SiO2 
 PCOD9567604
Probable space group: P 42/N B C
;
_chemical_formula_sum "Si O2"
_cell_formula_units_Z 92
_cell_length_a 25.070140
_cell_length_b 25.070140
_cell_length_c 7.635671
_cell_angle_alpha 90.000000
_cell_angle_beta 90.000000
_cell_angle_gamma 90.000000
_cell_volume 4799.110238
_symmetry_space_group_name_H-M "P 42/N B C"
_symmetry_group_IT_number 133
_space_group.IT_coordinate_system_code '2'
_symmetry_cell_setting 'tetragonal'
loop_
_space_group_symop_operation_xyz
x,y,z
1/2-y,x,1/2+z
1/2-x,1/2-y,z
y,1/2-x,1/2+z
x,1/2-y,-z
1/2-x,y,-z
y,x,1/2-z
1/2-y,1/2-x,1/2-z
-x,-y,-z
1/2+y,-x,1/2-z
1/2+x,1/2+y,-z
-y,1/2+x,1/2-z
-x,1/2+y,z
1/2+x,-y,z
-y,-x,1/2+z
1/2+y,1/2+x,1/2+z
loop_
_atom_site_type_symbol
_atom_site_label
_atom_site_fract_x
_atom_site_fract_y
_atom_site_fract_z
Si Si1 0.146680 0.146680 0.250000
Si Si2 0.439705 0.521017 0.846211
Si Si3 0.250000 0.250000 0.000000
Si Si4 0.505031 0.250000 0.000000
Si Si5 0.752219 0.586011 0.790082
Si Si6 0.179906 0.320095 0.250000
Si Si7 0.023250 0.869529 0.016017
Si Si8 0.587947 0.913135 0.961236
O O1 0.207492 0.128857 0.274229
O O2 0.110230 0.133454 0.418281
O O3 0.489991 0.489991 0.750000
O O4 0.389989 0.526883 0.715306
O O5 0.423095 0.476437 0.990450
O O6 0.450806 0.580459 0.913109
O O7 0.210913 0.208482 0.906761
O O8 0.466627 0.250204 0.828461
O O9 0.536209 0.306988 0.004974
O O10 0.805896 0.618227 0.746893
O O11 0.750000 0.576202 0.000000
O O12 0.961074 0.877118 0.973180
O O13 0.588947 0.911054 0.750000
#
# Coordination Sequence:
#
# PCOD9567604 Si02
#       8
#     8  16   4   8  16   8  16  16
#     4  12  24  39  60  85 114 165 212 279 328 368
#     4   9  19  35  64  93 117 160 208 257 305 381
#     4  10  18  34  60  66  76 122 192 302 340 324
#     4  12  27  46  58  93 136 163 192 266 345 372
#     4  12  29  40  61  79 111 169 224 273 333 377
#     4  11  22  42  52  71  94 139 224 285 312 365
#     4  10  21  38  60  89 125 160 194 255 312 388
#     4   9  20  36  61  89 121 150 201 259 317 381
#
# _framework density 19.170221999999999
#
# number of rings (size 3 to 8) (size 9 to 14) (size 15 to 20)
#    0.000    1.913    2.609    3.652   10.957    0.000 
#    1.565    0.000    0.000    0.000    0.000    0.000 
#    0.000    2.087    0.000    0.000    0.000    0.000 
#
# Total GULP energy -512941.804637 kJ/mol
# GULP energy per Si atom -5575.454398 kJ/mol
# Density = 1.912659 g / cm^3
# Si number density = 19.170222 Si / 1000 Ang^3
#
#
#
# Elastic Constant Matrix: (Units=GPa)
#
#
# Indices 1 2 3 4 5 6 
#
# 1 95.2263 39.0261 21.9051 0.0000 0.0000 0.0000
# 2 39.0261 95.2281 21.9064 0.0000 0.0000 0.0000
# 3 21.9051 21.9064 77.1085 0.0000 0.0000 0.0000
# 4 0.0000 0.0000 0.0000 -9.5577 0.0000 0.0000
# 5 0.0000 0.0000 0.0000 0.0000 -9.5560 0.0000
# 6 0.0000 0.0000 0.0000 0.0000 0.0000 30.7417
#
#
#
# Elastic Compliance Matrix: (Units=1/GPa)
#
#
# Indices 1 2 3 4 5 6 
#
# 1 0.013002 -0.004792 -0.002332 0.000000 0.000000 0.000000
# 2 -0.004792 0.013001 -0.002332 0.000000 0.000000 0.000000
# 3 -0.002332 -0.002332 0.014294 0.000000 0.000000 0.000000
# 4 0.000000 0.000000 0.000000 -0.104627 0.000000 0.000000
# 5 0.000000 0.000000 0.000000 0.000000 -0.104646 0.000000
# 6 0.000000 0.000000 0.000000 0.000000 0.000000 0.032529
#
#
# Mechanical properties :
#
#
# Convention : Reuss Voigt Hill
#
# Bulk Modulus (GPa) = 46.76362 48.13757 47.45060
# Shear Modulus (GPa) = -45.28704 14.64063 -15.32321
#
# Velocity S-wave (km/s) = -4.86569 2.76654 -2.83030
# Velocity P-wave (km/s) = 2.66828 5.94728 3.75835
#
# Compressibility (1/GPa) = 0.02138414
#
# Stress axis : x y z
#
# Youngs Moduli (GPa) = 76.91383 76.91481 69.95995
#
# Poissons Ratio (x) = 0.36856 0.16316
# Poissons Ratio (y) = 0.36855 0.16318
# Poissons Ratio (z) = 0.17938 0.17940
#
# Static dielectric constant tensor:
#      x y z
#    x 1.725180 0.000000 0.000000 
#    y 0.000000 1.725170 0.000000 
#    z 0.000000 0.000000 1.805080 
# 
# From -- ./inp_files/1994.got.cif
#   From: 2010.05.17/outbox.cif.g08.bks.cpg/sg133_1_cif.got.tgz:1994.got - 2010.05.20 12:37:36.
