data_PCOD9567546
_publ_section_title
;
Structure prediction by ZEFSAII (Michael W. Deem and Ramdas Pophale) SiO2 
 PCOD9567546
Probable space group: P 42/M C M
;
_chemical_formula_sum "Si O2"
_cell_formula_units_Z 120
_cell_length_a 21.000000
_cell_length_b 21.000000
_cell_length_c 15.000000
_cell_angle_alpha 90.000000
_cell_angle_beta 90.000000
_cell_angle_gamma 90.000000
_cell_volume 6615.000000
_symmetry_space_group_name_H-M "P 42/M C M"
_symmetry_group_IT_number 132
_symmetry_cell_setting 'tetragonal'
loop_
_space_group_symop_operation_xyz
x,y,z
-y,x,1/2+z
-x,-y,z
y,-x,1/2+z
x,-y,1/2-z
-x,y,1/2-z
y,x,-z
-y,-x,-z
-x,-y,-z
y,-x,1/2-z
x,y,-z
-y,x,1/2-z
-x,y,1/2+z
x,-y,1/2+z
-y,-x,z
y,x,z
loop_
_atom_site_type_symbol
_atom_site_label
_atom_site_fract_x
_atom_site_fract_y
_atom_site_fract_z
Si Si1 0.988079 0.260416 0.144504
Si Si2 0.013278 0.402517 0.145764
Si Si3 0.225447 0.119553 0.100413
Si Si4 0.553160 0.660534 0.674622
Si Si5 0.847010 0.260837 0.801715
Si Si6 0.208175 0.389669 0.389971
Si Si7 0.491611 0.895287 0.898762
Si Si8 0.496053 0.395576 0.000000
O O1 0.912501 0.248175 0.142549
O O2 0.000000 0.260104 0.250000
O O3 0.006597 0.331222 0.109662
O O4 0.043178 0.215905 0.104995
O O5 0.079075 0.441598 0.139089
O O6 0.000000 0.398428 0.250000
O O7 0.956822 0.445170 0.105262
O O8 0.161053 0.161053 0.106181
O O9 0.263093 0.137631 0.193500
O O10 0.252774 0.133638 0.000000
O O11 0.500000 0.671358 0.750000
O O12 0.601338 0.601338 0.695220
O O13 0.594835 0.721919 0.647684
O O14 0.512258 0.643438 0.587378
O O15 0.795410 0.204590 0.813290
O O16 0.819289 0.326445 0.842343
O O17 0.208064 0.383652 0.500000
O O18 0.162733 0.449434 0.363105
O O19 0.505769 0.878736 0.000000
O O20 0.426775 0.426775 0.000000
O O21 0.546888 0.453113 0.000000
#
# Coordination Sequence:
#
# PCOD9567546 Si02
#       8
#    16  16  16  16  16  16  16   8
#     4   9  18  33  54  84 115 149 199 247 294 348
#     4  10  18  31  51  76 109 147 189 239 285 331
#     4   9  19  36  59  85 115 155 202 253 306 355
#     4  11  23  40  64  90 116 149 192 241 301 365
#     4  10  20  37  61  88 122 160 203 251 298 357
#     4  11  23  40  59  86 124 164 199 239 298 368
#     4  10  20  32  49  74 109 147 189 233 280 336
#     4   9  18  36  64  92 114 137 180 244 299 352
#
# _framework density 18.14059
#
# number of rings (size 3 to 8) (size 9 to 14) (size 15 to 20)
#    0.000    2.067    2.000    2.400    0.000    4.133 
#    0.000    0.000    1.467    0.400    0.000    3.733 
#    0.000    0.000    0.000    0.000    0.000    0.000 
#
# Total GULP energy -668056.686688 kJ/mol
# GULP energy per Si atom -5567.139056 kJ/mol
# Density = 1.809930 g / cm^3
# Si number density = 18.140590 Si / 1000 Ang^3
#
#
#
# Elastic Constant Matrix: (Units=GPa)
#
#
# Indices 1 2 3 4 5 6 
#
# 1 91.9323 44.7605 37.6801 0.0000 0.0000 0.0000
# 2 44.7605 91.9323 37.6798 0.0000 0.0000 0.0000
# 3 37.6801 37.6798 98.5875 0.0000 0.0000 0.0000
# 4 0.0000 0.0000 0.0000 68.5567 0.0000 0.0000
# 5 0.0000 0.0000 0.0000 0.0000 69.1619 0.0000
# 6 0.0000 0.0000 0.0000 0.0000 0.0000 25.3782
#
#
#
# Elastic Compliance Matrix: (Units=1/GPa)
#
#
# Indices 1 2 3 4 5 6 
#
# 1 0.015234 -0.005965 -0.003543 0.000000 0.000000 0.000000
# 2 -0.005965 0.015234 -0.003542 0.000000 0.000000 0.000000
# 3 -0.003543 -0.003542 0.012851 0.000000 0.000000 0.000000
# 4 0.000000 0.000000 0.000000 0.014586 0.000000 0.000000
# 5 0.000000 0.000000 0.000000 0.000000 0.014459 0.000000
# 6 0.000000 0.000000 0.000000 0.000000 0.000000 0.039404
#
#
# Mechanical properties :
#
#
# Convention : Reuss Voigt Hill
#
# Bulk Modulus (GPa) = 58.07678 58.07700 58.07689
# Shear Modulus (GPa) = 34.81701 43.44147 39.12924
#
# Velocity S-wave (km/s) = 4.38572 4.89889 4.64939
# Velocity P-wave (km/s) = 7.59805 8.00520 7.80428
#
# Compressibility (1/GPa) = 0.01721858
#
# Stress axis : x y z
#
# Youngs Moduli (GPa) = 65.64298 65.64318 77.81420
#
# Poissons Ratio (x) = 0.39158 0.27566
# Poissons Ratio (y) = 0.39158 0.27565
# Poissons Ratio (z) = 0.23254 0.23254
#
# Static dielectric constant tensor:
#      x y z
#    x 1.648480 0.000000 0.000000 
#    y 0.000000 1.648480 0.000000 
#    z 0.000000 0.000000 1.681780 
# 
# From -- ./inp_files/5131.got.cif
#   From: 2010.05.17/outbox.ucp.g08.bks.cvg/sg132_3_cif.got.tgz:5131.got - 2010.06.11 11:39:14.
