data_PCOD9567915
_publ_section_title
;
Structure prediction by ZEFSAII (Michael W. Deem and Ramdas Pophale) SiO2 
 PCOD9567915
Probable space group: P 42/N B C
;
_chemical_formula_sum "Si O2"
_cell_formula_units_Z 40
_cell_length_a 10.260701
_cell_length_b 10.260701
_cell_length_c 20.498637
_cell_angle_alpha 90.000000
_cell_angle_beta 90.000000
_cell_angle_gamma 90.000000
_cell_volume 2158.137193
_symmetry_space_group_name_H-M "P 42/N B C"
_symmetry_group_IT_number 133
_space_group.IT_coordinate_system_code '2'
_symmetry_cell_setting 'tetragonal'
loop_
_space_group_symop_operation_xyz
x,y,z
1/2-y,x,1/2+z
1/2-x,1/2-y,z
y,1/2-x,1/2+z
x,1/2-y,-z
1/2-x,y,-z
y,x,1/2-z
1/2-y,1/2-x,1/2-z
-x,-y,-z
1/2+y,-x,1/2-z
1/2+x,1/2+y,-z
-y,1/2+x,1/2-z
-x,1/2+y,z
1/2+x,-y,z
-y,-x,1/2+z
1/2+y,1/2+x,1/2+z
loop_
_atom_site_type_symbol
_atom_site_label
_atom_site_fract_x
_atom_site_fract_y
_atom_site_fract_z
Si Si1 0.750000 0.250000 0.750000
Si Si2 0.750000 0.750000 0.500000
Si Si3 0.075115 0.541186 0.813061
Si Si4 0.698831 0.884755 0.873836
O O1 0.677962 0.137301 0.709591
O O2 0.657180 0.675047 0.449082
O O3 0.180389 0.480843 0.862442
O O4 0.050433 0.449568 0.750000
O O5 0.932852 0.562777 0.843097
O O6 0.750000 0.750000 0.842097
#
# Coordination Sequence:
#
# PCOD9567915 Si02
#       4
#     4   4  16  16
#     4  12  24  36  60 110 124 172 212 264 370 412
#     4   8  24  44  62  92 128 188 232 256 342 392
#     4  12  23  39  67  96 136 168 220 286 353 397
#     4  10  24  42  62  94 131 174 221 276 324 415
#
# _framework density 18.534503000000001
#
# number of rings (size 3 to 8) (size 9 to 14) (size 15 to 20)
#    1.200    0.000    4.000    2.400    0.000    1.600 
#    0.000    0.000    0.000    2.400    0.000    0.000 
#    0.000    0.000    0.000    0.000    0.000    0.000 
#
# Total GULP energy -222719.921928 kJ/mol
# GULP energy per Si atom -5567.998048 kJ/mol
# Density = 1.849232 g / cm^3
# Si number density = 18.534503 Si / 1000 Ang^3
#
#
#
# Elastic Constant Matrix: (Units=GPa)
#
#
# Indices 1 2 3 4 5 6 
#
# 1 112.0163 41.1378 33.1113 0.0000 0.0000 0.0000
# 2 41.1378 112.0177 33.1116 0.0000 0.0000 0.0000
# 3 33.1113 33.1116 89.1991 0.0000 0.0000 0.0000
# 4 0.0000 0.0000 0.0000 32.9827 0.0000 0.0000
# 5 0.0000 0.0000 0.0000 0.0000 32.9828 0.0000
# 6 0.0000 0.0000 0.0000 0.0000 0.0000 41.9216
#
#
#
# Elastic Compliance Matrix: (Units=1/GPa)
#
#
# Indices 1 2 3 4 5 6 
#
# 1 0.010943 -0.003165 -0.002887 0.000000 0.000000 0.000000
# 2 -0.003165 0.010943 -0.002887 0.000000 0.000000 0.000000
# 3 -0.002887 -0.002887 0.013354 0.000000 0.000000 0.000000
# 4 0.000000 0.000000 0.000000 0.030319 0.000000 0.000000
# 5 0.000000 0.000000 0.000000 0.000000 0.030319 0.000000
# 6 0.000000 0.000000 0.000000 0.000000 0.000000 0.023854
#
#
# Mechanical properties :
#
#
# Convention : Reuss Voigt Hill
#
# Bulk Modulus (GPa) = 57.59980 58.66161 58.13070
# Shear Modulus (GPa) = 34.86779 35.30225 35.08502
#
# Velocity S-wave (km/s) = 4.34203 4.36900 4.35553
# Velocity P-wave (km/s) = 7.50214 7.56105 7.53165
#
# Compressibility (1/GPa) = 0.01736117
#
# Stress axis : x y z
#
# Youngs Moduli (GPa) = 91.38115 91.38213 74.88200
#
# Poissons Ratio (x) = 0.28926 0.21620
# Poissons Ratio (y) = 0.28926 0.21620
# Poissons Ratio (z) = 0.26383 0.26384
#
# Static dielectric constant tensor:
#      x y z
#    x 1.652830 0.000000 0.000000 
#    y 0.000000 1.652830 0.000000 
#    z 0.000000 0.000000 1.664390 
# 
# From -- ./inp_files/6863.got.cif
#   From: 2010.05.17/outbox.cif.g08.bks.cpg/sg133_4_cif.got.tgz:6863.got - 2010.05.20 12:37:36.
