data_PCOD9567437
_publ_section_title
;
Structure prediction by ZEFSAII (Michael W. Deem and Ramdas Pophale) SiO2 
 PCOD9567437
Probable space group: P 42/M C M
;
_chemical_formula_sum "Si O2"
_cell_formula_units_Z 68
_cell_length_a 10.305366
_cell_length_b 10.305366
_cell_length_c 31.227540
_cell_angle_alpha 90.000000
_cell_angle_beta 90.000000
_cell_angle_gamma 90.000000
_cell_volume 3316.382498
_symmetry_space_group_name_H-M "P 42/M C M"
_symmetry_group_IT_number 132
_symmetry_cell_setting 'tetragonal'
loop_
_space_group_symop_operation_xyz
x,y,z
-y,x,1/2+z
-x,-y,z
y,-x,1/2+z
x,-y,1/2-z
-x,y,1/2-z
y,x,-z
-y,-x,-z
-x,-y,-z
y,-x,1/2-z
x,y,-z
-y,x,1/2-z
-x,y,1/2+z
x,-y,1/2+z
-y,-x,z
y,x,z
loop_
_atom_site_type_symbol
_atom_site_label
_atom_site_fract_x
_atom_site_fract_y
_atom_site_fract_z
Si Si1 0.348349 0.651652 0.000000
Si Si2 0.006900 0.783774 0.299007
Si Si3 0.341230 0.867801 0.126985
Si Si4 0.549607 0.762587 0.070190
Si Si5 0.240631 0.026618 0.952827
O O1 0.277981 0.562236 0.962615
O O2 0.898524 0.898524 0.302233
O O3 0.965468 0.678301 0.333705
O O4 0.000000 0.737459 0.250000
O O5 0.143795 0.856206 0.307440
O O6 0.263834 0.736167 0.137543
O O7 0.483101 0.829438 0.110990
O O8 0.269048 0.932927 0.086261
O O9 0.636658 0.636658 0.080185
O O10 0.645456 0.867067 0.049195
O O11 0.107400 0.107400 0.948116
O O12 0.242697 0.963465 0.000000
#
# Coordination Sequence:
#
# PCOD9567437 Si02
#       5
#     4  16  16  16  16
#     4  12  21  36  58  76 101 156 209 246 264 306
#     4   8  15  31  54  79 109 142 175 217 270 335
#     4  11  22  32  53  83 113 142 182 224 275 334
#     4  11  22  36  54  75 107 148 198 241 271 306
#     4  10  22  37  51  72 108 148 183 222 272 325
#
# _framework density 20.504269000000001
#
# number of rings (size 3 to 8) (size 9 to 14) (size 15 to 20)
#    0.000    1.882    2.353    3.176    1.647    2.824 
#    0.000    1.176    0.000    2.824    0.000    0.000 
#    3.529    0.000    4.941    0.000    0.000    0.000 
#
# Total GULP energy -378992.057265 kJ/mol
# GULP energy per Si atom -5573.412607 kJ/mol
# Density = 2.045760 g / cm^3
# Si number density = 20.504269 Si / 1000 Ang^3
#
#
#
# Elastic Constant Matrix: (Units=GPa)
#
#
# Indices 1 2 3 4 5 6 
#
# 1 446.3914 -355.0400 44.4160 0.0000 0.0000 0.0000
# 2 -355.0400 446.4303 44.4246 0.0000 0.0000 0.0000
# 3 44.4160 44.4246 134.3150 0.0000 0.0000 0.0000
# 4 0.0000 0.0000 0.0000 13.0040 0.0000 0.0000
# 5 0.0000 0.0000 0.0000 0.0000 13.0039 0.0000
# 6 0.0000 0.0000 0.0000 0.0000 0.0000 35.7615
#
#
#
# Elastic Compliance Matrix: (Units=1/GPa)
#
#
# Indices 1 2 3 4 5 6 
#
# 1 0.008690 0.007442 -0.005335 0.000000 0.000000 0.000000
# 2 0.007442 0.008689 -0.005335 0.000000 0.000000 0.000000
# 3 -0.005335 -0.005335 0.010974 0.000000 0.000000 0.000000
# 4 0.000000 0.000000 0.000000 0.076899 0.000000 0.000000
# 5 0.000000 0.000000 0.000000 0.000000 0.076900 0.000000
# 6 0.000000 0.000000 0.000000 0.000000 0.000000 0.027963
#
#
# Mechanical properties :
#
#
# Convention : Reuss Voigt Hill
#
# Bulk Modulus (GPa) = 45.66789 54.97090 50.31940
# Shear Modulus (GPa) = 22.33428 98.57629 60.45529
#
# Velocity S-wave (km/s) = 3.30396 6.94121 5.43583
# Velocity P-wave (km/s) = 6.07253 9.54506 7.99949
#
# Compressibility (1/GPa) = 0.02189722
#
# Stress axis : x y z
#
# Youngs Moduli (GPa) = 115.07407 115.08293 91.12475
#
# Poissons Ratio (x) = -0.85645 0.48616
# Poissons Ratio (y) = -0.85638 0.48615
# Poissons Ratio (z) = 0.61393 0.61396
#
# Static dielectric constant tensor:
#      x y z
#    x 1.750510 0.000000 0.000000 
#    y 0.000000 1.750510 0.000000 
#    z 0.000000 0.000000 1.719890 
# 
# From -- ./inp_files/10501.got.cif
#   From: 2010.05.17/outbox.cif.g08.bks.cpg/sg132_6_cif.got.tgz:10501.got - 2010.05.20 12:30:18.
