data_PCOD9567650
_publ_section_title
;
Structure prediction by ZEFSAII (Michael W. Deem and Ramdas Pophale) SiO2 
 PCOD9567650
Probable space group: P 42/N B C
;
_chemical_formula_sum "Si O2"
_cell_formula_units_Z 96
_cell_length_a 23.874500
_cell_length_b 23.874500
_cell_length_c 7.598295
_cell_angle_alpha 90.000000
_cell_angle_beta 90.000000
_cell_angle_gamma 90.000000
_cell_volume 4330.965466
_symmetry_space_group_name_H-M "P 42/N B C"
_symmetry_group_IT_number 133
_space_group.IT_coordinate_system_code '2'
_symmetry_cell_setting 'tetragonal'
loop_
_space_group_symop_operation_xyz
x,y,z
1/2-y,x,1/2+z
1/2-x,1/2-y,z
y,1/2-x,1/2+z
x,1/2-y,-z
1/2-x,y,-z
y,x,1/2-z
1/2-y,1/2-x,1/2-z
-x,-y,-z
1/2+y,-x,1/2-z
1/2+x,1/2+y,-z
-y,1/2+x,1/2-z
-x,1/2+y,z
1/2+x,-y,z
-y,-x,1/2+z
1/2+y,1/2+x,1/2+z
loop_
_atom_site_type_symbol
_atom_site_label
_atom_site_fract_x
_atom_site_fract_y
_atom_site_fract_z
Si Si1 0.965171 0.965171 0.250000
Si Si2 0.264530 0.410718 0.791775
Si Si3 0.573200 0.630838 0.476505
Si Si4 0.611243 0.445393 0.411014
Si Si5 0.346669 0.541255 0.186824
Si Si6 0.465605 0.733387 0.189214
Si Si7 0.836728 0.663273 0.250000
O O1 0.944677 0.929540 0.415894
O O2 0.024639 0.942326 0.184918
O O3 0.251377 0.467850 0.692377
O O4 0.228085 0.356731 0.734672
O O5 0.250000 0.416392 0.000000
O O6 0.331219 0.414106 0.805001
O O7 0.519320 0.649152 0.592201
O O8 0.629326 0.637273 0.587978
O O9 0.589034 0.382337 0.409601
O O10 0.630007 0.463091 0.609516
O O11 0.667016 0.456786 0.293638
O O12 0.281178 0.557604 0.184357
O O13 0.442059 0.750000 0.000000
#
# Coordination Sequence:
#
# PCOD9567650 Si02
#       7
#     8  16  16  16  16  16   8
#     4  12  24  37  58  93 130 165 215 257 318 400
#     4  10  19  35  59  88 120 165 216 258 325 379
#     4  11  22  37  60  90 128 169 212 265 334 384
#     4  11  25  39  62  95 125 170 210 262 327 384
#     4  11  23  43  62  89 130 165 208 266 319 398
#     4  10  21  40  61  88 125 163 210 253 316 387
#     4  10  20  33  60  93 120 163 217 270 316 381
#
# _framework density 22.165958
#
# number of rings (size 3 to 8) (size 9 to 14) (size 15 to 20)
#    0.000    1.333    5.000    2.000    2.333    3.333 
#    0.000    0.000    0.000    1.000    0.000   11.667 
#    0.000    0.000    0.000    0.000    0.000    0.000 
#
# Total GULP energy -534724.462367 kJ/mol
# GULP energy per Si atom -5570.046483 kJ/mol
# Density = 2.211551 g / cm^3
# Si number density = 22.165958 Si / 1000 Ang^3
#
#
#
# Elastic Constant Matrix: (Units=GPa)
#
#
# Indices 1 2 3 4 5 6 
#
# 1 85.0387 73.4619 25.7330 0.0000 0.0000 0.0000
# 2 73.4619 85.0396 25.7333 0.0000 0.0000 0.0000
# 3 25.7330 25.7333 64.3839 0.0000 0.0000 0.0000
# 4 0.0000 0.0000 0.0000 30.8124 0.0000 0.0000
# 5 0.0000 0.0000 0.0000 0.0000 30.8129 0.0000
# 6 0.0000 0.0000 0.0000 0.0000 0.0000 24.4608
#
#
#
# Elastic Compliance Matrix: (Units=1/GPa)
#
#
# Indices 1 2 3 4 5 6 
#
# 1 0.046813 -0.039563 -0.002898 0.000000 0.000000 0.000000
# 2 -0.039563 0.046813 -0.002898 0.000000 0.000000 0.000000
# 3 -0.002898 -0.002898 0.017848 0.000000 0.000000 0.000000
# 4 0.000000 0.000000 0.000000 0.032454 0.000000 0.000000
# 5 0.000000 0.000000 0.000000 0.000000 0.032454 0.000000
# 6 0.000000 0.000000 0.000000 0.000000 0.000000 0.040882
#
#
# Mechanical properties :
#
#
# Convention : Reuss Voigt Hill
#
# Bulk Modulus (GPa) = 48.17567 53.81316 50.99441
# Shear Modulus (GPa) = 15.87802 24.51950 20.19876
#
# Velocity S-wave (km/s) = 2.67933 3.32953 3.02197
# Velocity P-wave (km/s) = 5.59937 6.25389 5.93566
#
# Compressibility (1/GPa) = 0.02075737
#
# Stress axis : x y z
#
# Youngs Moduli (GPa) = 21.36142 21.36162 56.02816
#
# Poissons Ratio (x) = 0.84513 0.16235
# Poissons Ratio (y) = 0.84512 0.16236
# Poissons Ratio (z) = 0.06190 0.06190
#
# Static dielectric constant tensor:
#      x y z
#    x 1.890600 0.000000 0.000000 
#    y 0.000000 1.890590 0.000000 
#    z 0.000000 0.000000 1.971770 
# 
# From -- ./inp_files/1949.got.cif
#   From: 2010.05.17/outbox.cif.g08.bks.cpg/sg133_1_cif.got.tgz:1949.got - 2010.05.20 12:37:36.
