data_PCOD9567070
_publ_section_title
;
Structure prediction by ZEFSAII (Michael W. Deem and Ramdas Pophale) SiO2 
 PCOD9567070
Probable space group: P 42/M C M
;
_chemical_formula_sum "Si O2"
_cell_formula_units_Z 112
_cell_length_a 17.290958
_cell_length_b 17.290958
_cell_length_c 24.673790
_cell_angle_alpha 90.000000
_cell_angle_beta 90.000000
_cell_angle_gamma 90.000000
_cell_volume 7376.901352
_symmetry_space_group_name_H-M "P 42/M C M"
_symmetry_group_IT_number 132
_symmetry_cell_setting 'tetragonal'
loop_
_space_group_symop_operation_xyz
x,y,z
-y,x,1/2+z
-x,-y,z
y,-x,1/2+z
x,-y,1/2-z
-x,y,1/2-z
y,x,-z
-y,-x,-z
-x,-y,-z
y,-x,1/2-z
x,y,-z
-y,x,1/2-z
-x,y,1/2+z
x,-y,1/2+z
-y,-x,z
y,x,z
loop_
_atom_site_type_symbol
_atom_site_label
_atom_site_fract_x
_atom_site_fract_y
_atom_site_fract_z
Si Si1 0.108928 0.765321 0.868944
Si Si2 0.423968 0.083577 0.221735
Si Si3 0.387208 0.074237 0.561953
Si Si4 0.939744 0.814548 0.138354
Si Si5 0.866239 0.257753 0.741087
Si Si6 0.094316 0.441199 0.904977
Si Si7 0.168924 0.292535 0.936100
O O1 0.182518 0.817483 0.885747
O O2 0.099510 0.682878 0.899021
O O3 0.114851 0.752911 0.804154
O O4 0.028932 0.811698 0.877357
O O5 0.500000 0.116615 0.250000
O O6 0.347982 0.133845 0.228943
O O7 0.440170 0.074584 0.158489
O O8 0.409574 0.000000 0.250000
O O9 0.366980 0.091974 0.500000
O O10 0.471212 0.109352 0.576841
O O11 0.405319 0.982369 0.567089
O O12 0.896866 0.896866 0.135026
O O13 0.926579 0.781534 0.199255
O O14 0.892645 0.756221 0.099199
O O15 0.786268 0.213733 0.729605
O O16 0.161945 0.381137 0.918303
O O17 0.250928 0.250928 0.926718
O O18 0.151247 0.286048 0.000000
#
# Coordination Sequence:
#
# PCOD9567070 Si02
#       7
#    16  16  16  16  16  16  16
#     4  11  22  34  48  66  95 131 168 207 240 283
#     4  11  19  28  46  70  99 124 151 191 241 300
#     4  11  21  33  48  68  93 123 163 200 241 287
#     4  10  19  32  50  68  91 124 163 210 251 288
#     4  10  19  32  48  68  95 125 161 202 247 292
#     4  11  19  31  51  72  94 121 158 196 245 299
#     4  10  19  31  48  71  96 120 150 194 248 294
#
# _framework density 15.182527
#
# number of rings (size 3 to 8) (size 9 to 14) (size 15 to 20)
#    0.000    1.429    2.857    6.429    0.000    0.571 
#    0.000    0.000    0.000    2.571    0.000    3.000 
#    0.000    0.857    0.000    9.000    0.000    3.857 
#
# Total GULP energy -624759.071868 kJ/mol
# GULP energy per Si atom -5578.205999 kJ/mol
# Density = 1.514797 g / cm^3
# Si number density = 15.182527 Si / 1000 Ang^3
#
#
#
# Elastic Constant Matrix: (Units=GPa)
#
#
# Indices 1 2 3 4 5 6 
#
# 1 83.9079 39.6564 21.6353 0.0000 0.0000 0.0000
# 2 39.6564 83.9079 21.6353 0.0000 0.0000 0.0000
# 3 21.6353 21.6353 91.9531 0.0000 0.0000 0.0000
# 4 0.0000 0.0000 0.0000 9.0487 0.0000 0.0000
# 5 0.0000 0.0000 0.0000 0.0000 9.0487 0.0000
# 6 0.0000 0.0000 0.0000 0.0000 0.0000 16.0416
#
#
#
# Elastic Compliance Matrix: (Units=1/GPa)
#
#
# Indices 1 2 3 4 5 6 
#
# 1 0.015709 -0.006889 -0.002075 0.000000 0.000000 0.000000
# 2 -0.006889 0.015709 -0.002075 0.000000 0.000000 0.000000
# 3 -0.002075 -0.002075 0.011852 0.000000 0.000000 0.000000
# 4 0.000000 0.000000 0.000000 0.110513 0.000000 0.000000
# 5 0.000000 0.000000 0.000000 0.000000 0.110513 0.000000
# 6 0.000000 0.000000 0.000000 0.000000 0.000000 0.062338
#
#
# Mechanical properties :
#
#
# Convention : Reuss Voigt Hill
#
# Bulk Modulus (GPa) = 47.19134 47.29144 47.24139
# Shear Modulus (GPa) = 14.05383 18.61727 16.33555
#
# Velocity S-wave (km/s) = 3.04576 3.50556 3.28372
# Velocity P-wave (km/s) = 6.59690 6.89938 6.74983
#
# Compressibility (1/GPa) = 0.02119033
#
# Stress axis : x y z
#
# Youngs Moduli (GPa) = 63.65829 63.65829 84.37670
#
# Poissons Ratio (x) = 0.43856 0.17509
# Poissons Ratio (y) = 0.43856 0.17509
# Poissons Ratio (z) = 0.13210 0.13210
#
# Static dielectric constant tensor:
#      x y z
#    x 1.503560 0.000000 0.000000 
#    y 0.000000 1.503560 0.000000 
#    z 0.000000 0.000000 1.531970 
# 
# From -- ./inp_files/9305.got.cif
#   From: 2010.05.17/outbox.cif.g08.bks.cpg/sg132_5_cif.got.tgz:9305.got - 2010.05.20 12:30:18.
