data_PCOD9567143
_publ_section_title
;
Structure prediction by ZEFSAII (Michael W. Deem and Ramdas Pophale) SiO2 
 PCOD9567143
Probable space group: P 42/M C M
;
_chemical_formula_sum "Si O2"
_cell_formula_units_Z 96
_cell_length_a 15.224130
_cell_length_b 15.224130
_cell_length_c 20.147501
_cell_angle_alpha 90.000000
_cell_angle_beta 90.000000
_cell_angle_gamma 90.000000
_cell_volume 4669.669602
_symmetry_space_group_name_H-M "P 42/M C M"
_symmetry_group_IT_number 132
_symmetry_cell_setting 'tetragonal'
loop_
_space_group_symop_operation_xyz
x,y,z
-y,x,1/2+z
-x,-y,z
y,-x,1/2+z
x,-y,1/2-z
-x,y,1/2-z
y,x,-z
-y,-x,-z
-x,-y,-z
y,-x,1/2-z
x,y,-z
-y,x,1/2-z
-x,y,1/2+z
x,-y,1/2+z
-y,-x,z
y,x,z
loop_
_atom_site_type_symbol
_atom_site_label
_atom_site_fract_x
_atom_site_fract_y
_atom_site_fract_z
Si Si1 0.223558 0.084129 0.891225
Si Si2 0.213277 0.568310 0.923525
Si Si3 0.903806 0.688007 0.751141
Si Si4 0.732466 0.406987 0.222897
Si Si5 0.885555 0.258863 0.101650
Si Si6 0.634083 0.227649 0.423656
O O1 0.132174 0.132174 0.905961
O O2 0.245007 0.091394 0.812373
O O3 0.301176 0.144883 0.919570
O O4 0.229908 0.984284 0.915376
O O5 0.265943 0.595635 0.857353
O O6 0.135863 0.641677 0.921874
O O7 0.198808 0.465159 0.905860
O O8 0.248230 0.573369 0.000000
O O9 0.827085 0.616758 0.754048
O O10 0.885599 0.736471 0.681887
O O11 0.000000 0.645064 0.750000
O O12 0.703286 0.500000 0.250000
O O13 0.668506 0.331495 0.245526
O O14 0.809299 0.190702 0.080399
O O15 0.623242 0.251705 0.500000
O O16 0.689456 0.310545 0.393127
#
# Coordination Sequence:
#
# PCOD9567143 Si02
#       6
#    16  16  16  16  16  16
#     4  10  19  33  56  81 110 150 188 230 289 351
#     4  10  21  38  62  87 113 151 195 240 293 348
#     4   9  18  34  56  80 106 140 186 239 294 344
#     4  11  23  38  58  85 119 155 190 233 284 341
#     4  10  21  35  52  79 114 150 191 237 281 334
#     4   9  19  36  57  82 108 133 173 230 284 335
#
# _framework density 20.558199999999999
#
# number of rings (size 3 to 8) (size 9 to 14) (size 15 to 20)
#    0.000    2.167    0.000    4.000    0.000    5.500 
#    0.000    6.667    0.000    4.500    0.000   14.000 
#    0.000    0.000    0.000    0.000    0.000    0.000 
#
# Total GULP energy -534425.669253 kJ/mol
# GULP energy per Si atom -5566.934055 kJ/mol
# Density = 2.051141 g / cm^3
# Si number density = 20.558200 Si / 1000 Ang^3
#
#
#
# Elastic Constant Matrix: (Units=GPa)
#
#
# Indices 1 2 3 4 5 6 
#
# 1 231.8362 -34.8689 22.2063 0.0000 0.0000 0.0000
# 2 -34.8689 231.8362 22.2063 0.0000 0.0000 0.0000
# 3 22.2063 22.2063 94.6897 0.0000 0.0000 0.0000
# 4 0.0000 0.0000 0.0000 -3.6032 0.0000 0.0000
# 5 0.0000 0.0000 0.0000 0.0000 -3.6032 0.0000
# 6 0.0000 0.0000 0.0000 0.0000 0.0000 2426.9717
#
#
#
# Elastic Compliance Matrix: (Units=1/GPa)
#
#
# Indices 1 2 3 4 5 6 
#
# 1 0.004555 0.000805 -0.001257 0.000000 0.000000 0.000000
# 2 0.000805 0.004555 -0.001257 0.000000 0.000000 0.000000
# 3 -0.001257 -0.001257 0.011150 0.000000 0.000000 0.000000
# 4 0.000000 0.000000 0.000000 -0.277535 0.000000 0.000000
# 5 0.000000 0.000000 0.000000 0.000000 -0.277535 0.000000
# 6 0.000000 0.000000 0.000000 0.000000 0.000000 0.000412
#
#
# Mechanical properties :
#
#
# Convention : Reuss Voigt Hill
#
# Bulk Modulus (GPa) = 59.37227 64.16102 61.76665
# Shear Modulus (GPa) = -9.51718 520.54099 255.51190
#
# Velocity S-wave (km/s) = -2.15393 15.92963 11.16051
# Velocity P-wave (km/s) = 4.77042 19.22537 14.00664
#
# Compressibility (1/GPa) = 0.01684288
#
# Stress axis : x y z
#
# Youngs Moduli (GPa) = 219.54134 219.54134 89.68260
#
# Poissons Ratio (x) = -0.17684 0.11274
# Poissons Ratio (y) = -0.17684 0.11274
# Poissons Ratio (z) = 0.27599 0.27599
#
# Static dielectric constant tensor:
#      x y z
#    x 1.885540 0.000000 0.000000 
#    y 0.000000 1.885540 0.000000 
#    z 0.000000 0.000000 1.824250 
# 
# From -- ./inp_files/7885.got.cif
#   From: 2010.05.17/outbox.cif.g08.bks.cpg/sg132_4_cif.got.tgz:7885.got - 2010.05.20 12:30:18.
