data_PCOD9567758
_publ_section_title
;
Structure prediction by ZEFSAII (Michael W. Deem and Ramdas Pophale) SiO2 
 PCOD9567758
Probable space group: P 42/N B C
;
_chemical_formula_sum "Si O2"
_cell_formula_units_Z 28
_cell_length_a 9.176507
_cell_length_b 9.176507
_cell_length_c 12.629498
_cell_angle_alpha 90.000000
_cell_angle_beta 90.000000
_cell_angle_gamma 90.000000
_cell_volume 1063.508313
_symmetry_space_group_name_H-M "P 42/N B C"
_symmetry_group_IT_number 133
_space_group.IT_coordinate_system_code '2'
_symmetry_cell_setting 'tetragonal'
loop_
_space_group_symop_operation_xyz
x,y,z
1/2-y,x,1/2+z
1/2-x,1/2-y,z
y,1/2-x,1/2+z
x,1/2-y,-z
1/2-x,y,-z
y,x,1/2-z
1/2-y,1/2-x,1/2-z
-x,-y,-z
1/2+y,-x,1/2-z
1/2+x,1/2+y,-z
-y,1/2+x,1/2-z
-x,1/2+y,z
1/2+x,-y,z
-y,-x,1/2+z
1/2+y,1/2+x,1/2+z
loop_
_atom_site_type_symbol
_atom_site_label
_atom_site_fract_x
_atom_site_fract_y
_atom_site_fract_z
Si Si1 0.606915 0.515882 0.359927
Si Si2 0.250000 0.934698 0.000000
Si Si3 0.750000 0.750000 0.250000
O O1 0.518015 0.518015 0.250000
O O2 0.637247 0.361207 0.413934
O O3 0.528404 0.631891 0.435915
O O4 0.748091 0.607676 0.323673
#
# Coordination Sequence:
#
# PCOD9567758 Si02
#       3
#    16   8   4
#     4   9  21  39  72 115 159 213 280 359 436 520
#     4  10  20  41  74 113 154 212 291 345 436 531
#     4   8  20  38  64 112 152 222 260 362 448 496
#
# _framework density 26.327954999999999
#
# number of rings (size 3 to 8) (size 9 to 14) (size 15 to 20)
#    1.714    1.143    0.000    0.000    4.000    1.143 
#    0.000    0.000    0.000   60.000    0.000    0.000 
#    0.000    0.000    0.000    0.000    0.000    0.000 
#
# Total GULP energy -156145.844308 kJ/mol
# GULP energy per Si atom -5576.637297 kJ/mol
# Density = 2.626803 g / cm^3
# Si number density = 26.327955 Si / 1000 Ang^3
#
#
#
# Elastic Constant Matrix: (Units=GPa)
#
#
# Indices 1 2 3 4 5 6 
#
# 1 189.3280 96.3014 87.3400 0.0000 0.0000 0.0000
# 2 96.3014 189.3280 87.3400 0.0000 0.0000 0.0000
# 3 87.3400 87.3400 167.3717 0.0000 0.0000 0.0000
# 4 0.0000 0.0000 0.0000 81.5217 0.0000 0.0000
# 5 0.0000 0.0000 0.0000 0.0000 81.5217 0.0000
# 6 0.0000 0.0000 0.0000 0.0000 0.0000 55.5332
#
#
#
# Elastic Compliance Matrix: (Units=1/GPa)
#
#
# Indices 1 2 3 4 5 6 
#
# 1 0.007946 -0.002804 -0.002683 0.000000 0.000000 0.000000
# 2 -0.002804 0.007946 -0.002683 0.000000 0.000000 0.000000
# 3 -0.002683 -0.002683 0.008775 0.000000 0.000000 0.000000
# 4 0.000000 0.000000 0.000000 0.012267 0.000000 0.000000
# 5 0.000000 0.000000 0.000000 0.000000 0.012267 0.000000
# 6 0.000000 0.000000 0.000000 0.000000 0.000000 0.018007
#
#
# Mechanical properties :
#
#
# Convention : Reuss Voigt Hill
#
# Bulk Modulus (GPa) = 120.10402 120.88784 120.49593
# Shear Modulus (GPa) = 57.92167 62.05174 59.98671
#
# Velocity S-wave (km/s) = 4.69551 4.86003 4.77848
# Velocity P-wave (km/s) = 8.66687 8.80392 8.73566
#
# Compressibility (1/GPa) = 0.00832612
#
# Stress axis : x y z
#
# Youngs Moduli (GPa) = 125.85233 125.85233 113.95788
#
# Poissons Ratio (x) = 0.35286 0.30578
# Poissons Ratio (y) = 0.35286 0.30578
# Poissons Ratio (z) = 0.33770 0.33770
#
# Static dielectric constant tensor:
#      x y z
#    x 2.136600 0.000000 0.000000 
#    y 0.000000 2.136600 0.000000 
#    z 0.000000 0.000000 2.169020 
# 
# From -- ./inp_files/2170.got.cif
#   From: 2010.05.17/outbox.cif.g08.bks.cpg/sg133_2_cif.got.tgz:2170.got - 2010.05.20 12:37:36.
