data_PCOD9567558
_publ_section_title
;
Structure prediction by ZEFSAII (Michael W. Deem and Ramdas Pophale) SiO2 
 PCOD9567558
Probable space group: P 42/M C M
;
_chemical_formula_sum "Si O2"
_cell_formula_units_Z 84
_cell_length_a 15.000000
_cell_length_b 15.000000
_cell_length_c 21.000000
_cell_angle_alpha 90.000000
_cell_angle_beta 90.000000
_cell_angle_gamma 90.000000
_cell_volume 4725.000000
_symmetry_space_group_name_H-M "P 42/M C M"
_symmetry_group_IT_number 132
_symmetry_cell_setting 'tetragonal'
loop_
_space_group_symop_operation_xyz
x,y,z
-y,x,1/2+z
-x,-y,z
y,-x,1/2+z
x,-y,1/2-z
-x,y,1/2-z
y,x,-z
-y,-x,-z
-x,-y,-z
y,-x,1/2-z
x,y,-z
-y,x,1/2-z
-x,y,1/2+z
x,-y,1/2+z
-y,-x,z
y,x,z
loop_
_atom_site_type_symbol
_atom_site_label
_atom_site_fract_x
_atom_site_fract_y
_atom_site_fract_z
Si Si1 0.000000 0.000000 0.880442
Si Si2 0.830981 0.684623 0.626119
Si Si3 0.996466 0.199842 0.074632
Si Si4 0.832449 0.317228 0.608868
Si Si5 0.107352 0.607073 0.744633
Si Si6 0.505681 0.101183 0.928063
O O1 0.890315 0.000476 0.885353
O O2 0.741063 0.741063 0.615569
O O3 0.912520 0.740070 0.595108
O O4 0.850835 0.667120 0.699925
O O5 0.839033 0.584107 0.600209
O O6 0.087142 0.254455 0.085109
O O7 0.988782 0.175099 0.000000
O O8 0.740844 0.259157 0.603575
O O9 0.855180 0.350067 0.680185
O O10 0.847391 0.411800 0.573337
O O11 0.127976 0.500000 0.750000
O O12 0.000000 0.614465 0.750000
O O13 0.500000 0.000000 0.897501
O O14 0.534141 0.084048 0.000000
#
# Coordination Sequence:
#
# PCOD9567558 Si02
#       6
#     4  16  16  16  16  16
#     4  12  25  40  56  85 138 189 208 228 289 374
#     4  12  24  39  62  92 124 160 208 258 309 364
#     4  12  23  36  58  88 127 171 210 244 287 359
#     4  12  24  39  62  92 124 160 208 258 309 364
#     4  11  21  40  66  89 119 161 207 262 316 360
#     4  11  22  39  63  94 127 161 207 264 308 355
#
# _framework density 17.777778000000001
#
# number of rings (size 3 to 8) (size 9 to 14) (size 15 to 20)
#    0.000    0.381    7.619    2.571    0.000    2.286 
#    0.000    0.000    0.000    1.714    0.000    2.667 
#    0.000    0.000    0.000    0.000    0.000    0.000 
#
# Total GULP energy -467748.883968 kJ/mol
# GULP energy per Si atom -5568.439095 kJ/mol
# Density = 1.773731 g / cm^3
# Si number density = 17.777778 Si / 1000 Ang^3
#
#
#
# Elastic Constant Matrix: (Units=GPa)
#
#
# Indices 1 2 3 4 5 6 
#
# 1 146.2308 28.3854 -2.6606 0.0000 0.0000 0.0000
# 2 28.3854 146.2308 -2.6606 0.0000 0.0000 0.0000
# 3 -2.6606 -2.6606 54.6191 0.0000 0.0000 0.0000
# 4 0.0000 0.0000 0.0000 -60.2925 0.0000 0.0000
# 5 0.0000 0.0000 0.0000 0.0000 -60.2925 0.0000
# 6 0.0000 0.0000 0.0000 0.0000 0.0000 32.7778
#
#
#
# Elastic Compliance Matrix: (Units=1/GPa)
#
#
# Indices 1 2 3 4 5 6 
#
# 1 0.007111 -0.001375 0.000279 0.000000 0.000000 0.000000
# 2 -0.001375 0.007111 0.000279 0.000000 0.000000 0.000000
# 3 0.000279 0.000279 0.018336 0.000000 0.000000 0.000000
# 4 0.000000 0.000000 0.000000 -0.016586 0.000000 0.000000
# 5 0.000000 0.000000 0.000000 0.000000 -0.016586 0.000000
# 6 0.000000 0.000000 0.000000 0.000000 0.000000 0.030508
#
#
# Mechanical properties :
#
#
# Convention : Reuss Voigt Hill
#
# Bulk Modulus (GPa) = 32.33726 43.68991 38.01359
# Shear Modulus (GPa) = 119.51837 4.03967 61.77902
#
# Velocity S-wave (km/s) = 8.20823 1.50905 5.90137
# Velocity P-wave (km/s) = 10.39531 5.25978 8.23796
#
# Compressibility (1/GPa) = 0.03092408
#
# Stress axis : x y z
#
# Youngs Moduli (GPa) = 140.63659 140.63659 54.53798
#
# Poissons Ratio (x) = 0.19340 -0.01524
# Poissons Ratio (y) = 0.19340 -0.01524
# Poissons Ratio (z) = -0.03929 -0.03929
#
# Static dielectric constant tensor:
#      x y z
#    x 1.596930 0.000000 0.000000 
#    y 0.000000 1.596930 0.000000 
#    z 0.000000 0.000000 1.692800 
# 
# From -- ./inp_files/7760.got.cif
#   From: 2010.05.17/outbox.ucp.g08.bks.cvg/sg132_4_cif.got.tgz:7760.got - 2010.06.11 11:39:14.
