data_PCOD9567759
_publ_section_title
;
Structure prediction by ZEFSAII (Michael W. Deem and Ramdas Pophale) SiO2 
 PCOD9567759
Probable space group: P 42/N B C
;
_chemical_formula_sum "Si O2"
_cell_formula_units_Z 44
_cell_length_a 10.839586
_cell_length_b 10.839586
_cell_length_c 15.682235
_cell_angle_alpha 90.000000
_cell_angle_beta 90.000000
_cell_angle_gamma 90.000000
_cell_volume 1842.609679
_symmetry_space_group_name_H-M "P 42/N B C"
_symmetry_group_IT_number 133
_space_group.IT_coordinate_system_code '2'
_symmetry_cell_setting 'tetragonal'
loop_
_space_group_symop_operation_xyz
x,y,z
1/2-y,x,1/2+z
1/2-x,1/2-y,z
y,1/2-x,1/2+z
x,1/2-y,-z
1/2-x,y,-z
y,x,1/2-z
1/2-y,1/2-x,1/2-z
-x,-y,-z
1/2+y,-x,1/2-z
1/2+x,1/2+y,-z
-y,1/2+x,1/2-z
-x,1/2+y,z
1/2+x,-y,z
-y,-x,1/2+z
1/2+y,1/2+x,1/2+z
loop_
_atom_site_type_symbol
_atom_site_label
_atom_site_fract_x
_atom_site_fract_y
_atom_site_fract_z
Si Si1 0.250000 0.250000 0.500000
Si Si2 0.615643 0.416294 0.630078
Si Si3 0.750000 0.250000 0.000000
Si Si4 0.654890 0.594584 0.346037
Si Si5 0.250000 0.750000 0.250000
O O1 0.334770 0.321712 0.568686
O O2 0.656755 0.345375 0.545447
O O3 0.722468 0.513911 0.647782
O O4 0.479095 0.468669 0.640718
O O5 0.637860 0.304987 0.696688
O O6 0.650267 0.650267 0.250000
#
# Coordination Sequence:
#
# PCOD9567759 Si02
#       5
#     4  16   4  16   4
#     4  12  30  48  72 118 158 220 260 346 408 490
#     4  11  24  46  74 111 147 210 259 339 399 496
#     4  10  24  42  76 106 154 198 278 332 396 498
#     4  12  27  49  79 111 160 207 274 333 414 486
#     4  10  20  42  72 102 144 190 264 302 408 458
#
# _framework density 23.879173999999999
#
# number of rings (size 3 to 8) (size 9 to 14) (size 15 to 20)
#    0.000    0.727    3.636    2.727    0.000   14.545 
#    0.000    0.000    0.000    0.000    0.000    0.000 
#    0.000    0.000    0.000    0.000    0.000    0.000 
#
# Total GULP energy -245329.109809 kJ/mol
# GULP energy per Si atom -5575.661587 kJ/mol
# Density = 2.382482 g / cm^3
# Si number density = 23.879174 Si / 1000 Ang^3
#
#
#
# Elastic Constant Matrix: (Units=GPa)
#
#
# Indices 1 2 3 4 5 6 
#
# 1 141.4878 49.1273 45.6332 0.0000 0.0000 0.0000
# 2 49.1273 141.4878 45.6332 0.0000 0.0000 0.0000
# 3 45.6332 45.6332 162.3041 0.0000 0.0000 0.0000
# 4 0.0000 0.0000 0.0000 -45.4394 0.0000 0.0000
# 5 0.0000 0.0000 0.0000 0.0000 -45.4394 0.0000
# 6 0.0000 0.0000 0.0000 0.0000 0.0000 37.6928
#
#
#
# Elastic Compliance Matrix: (Units=1/GPa)
#
#
# Indices 1 2 3 4 5 6 
#
# 1 0.008445 -0.002382 -0.001704 0.000000 0.000000 0.000000
# 2 -0.002382 0.008445 -0.001704 0.000000 0.000000 0.000000
# 3 -0.001704 -0.001704 0.007120 0.000000 0.000000 0.000000
# 4 0.000000 0.000000 0.000000 -0.022007 0.000000 0.000000
# 5 0.000000 0.000000 0.000000 0.000000 -0.022007 0.000000
# 6 0.000000 0.000000 0.000000 0.000000 0.000000 0.026530
#
#
# Mechanical properties :
#
#
# Convention : Reuss Voigt Hill
#
# Bulk Modulus (GPa) = 80.47368 80.67411 80.57390
# Shear Modulus (GPa) = 224.72316 9.68852 117.20584
#
# Velocity S-wave (km/s) = 9.71147 2.01646 7.01352
# Velocity P-wave (km/s) = 12.63027 6.26731 9.97003
#
# Compressibility (1/GPa) = 0.01242642
#
# Stress axis : x y z
#
# Youngs Moduli (GPa) = 118.41742 118.41742 140.45501
#
# Poissons Ratio (x) = 0.28212 0.23940
# Poissons Ratio (y) = 0.28212 0.23940
# Poissons Ratio (z) = 0.20184 0.20184
#
# Static dielectric constant tensor:
#      x y z
#    x 3.794470 0.000000 0.000000 
#    y 0.000000 3.794470 0.000000 
#    z 0.000000 0.000000 2.062270 
# 
# From -- ./inp_files/4941.got.cif
#   From: 2010.05.17/outbox.cif.g08.bks.cpg/sg133_3_cif.got.tgz:4941.got - 2010.05.20 12:37:36.
