data_PCOD9567737
_publ_section_title
;
Structure prediction by ZEFSAII (Michael W. Deem and Ramdas Pophale) SiO2 
 PCOD9567737
Probable space group: P 42/N B C
;
_chemical_formula_sum "Si O2"
_cell_formula_units_Z 68
_cell_length_a 13.079502
_cell_length_b 13.079502
_cell_length_c 19.606970
_cell_angle_alpha 90.000000
_cell_angle_beta 90.000000
_cell_angle_gamma 90.000000
_cell_volume 3354.230484
_symmetry_space_group_name_H-M "P 42/N B C"
_symmetry_group_IT_number 133
_space_group.IT_coordinate_system_code '2'
_symmetry_cell_setting 'tetragonal'
loop_
_space_group_symop_operation_xyz
x,y,z
1/2-y,x,1/2+z
1/2-x,1/2-y,z
y,1/2-x,1/2+z
x,1/2-y,-z
1/2-x,y,-z
y,x,1/2-z
1/2-y,1/2-x,1/2-z
-x,-y,-z
1/2+y,-x,1/2-z
1/2+x,1/2+y,-z
-y,1/2+x,1/2-z
-x,1/2+y,z
1/2+x,-y,z
-y,-x,1/2+z
1/2+y,1/2+x,1/2+z
loop_
_atom_site_type_symbol
_atom_site_label
_atom_site_fract_x
_atom_site_fract_y
_atom_site_fract_z
Si Si1 0.250000 0.750000 0.750000
Si Si2 0.447300 0.979690 0.141458
Si Si3 0.397870 0.304683 0.135198
Si Si4 0.383377 0.202002 0.425928
Si Si5 0.039347 0.833682 0.213883
O O1 0.148820 0.720563 0.792729
O O2 0.513988 0.884608 0.118156
O O3 0.364472 0.017441 0.087923
O O4 0.522429 0.073665 0.161160
O O5 0.384750 0.961947 0.211609
O O6 0.290223 0.365647 0.131804
O O7 0.244837 0.444873 0.299211
O O8 0.372798 0.213584 0.083031
O O9 0.384601 0.250000 0.500000
#
# Coordination Sequence:
#
# PCOD9567737 Si02
#       5
#     4  16  16  16  16
#     4  12  20  36  60  84 138 164 180 260 308 382
#     4  10  22  37  59  92 121 158 202 252 307 368
#     4  10  20  38  63  83 122 162 199 252 309 367
#     4  10  23  42  63  88 120 165 217 257 294 356
#     4  10  22  35  57  92 125 158 197 244 316 378
#
# _framework density 20.272907
#
# number of rings (size 3 to 8) (size 9 to 14) (size 15 to 20)
#    0.000    1.882    2.353    1.412    3.294    1.882 
#    0.000    4.706    0.000    0.000    0.000    8.235 
#    0.000    0.000    0.000    0.000    0.000    0.000 
#
# Total GULP energy -378927.646862 kJ/mol
# GULP energy per Si atom -5572.465395 kJ/mol
# Density = 2.022677 g / cm^3
# Si number density = 20.272907 Si / 1000 Ang^3
#
#
#
# Elastic Constant Matrix: (Units=GPa)
#
#
# Indices 1 2 3 4 5 6 
#
# 1 116.8308 82.5739 46.3949 0.0000 0.0000 0.0000
# 2 82.5739 116.8308 46.3949 0.0000 0.0000 0.0000
# 3 46.3949 46.3949 71.5189 0.0000 0.0000 0.0000
# 4 0.0000 0.0000 0.0000 10.4021 0.0000 0.0000
# 5 0.0000 0.0000 0.0000 0.0000 10.4021 0.0000
# 6 0.0000 0.0000 0.0000 0.0000 0.0000 56.0237
#
#
#
# Elastic Compliance Matrix: (Units=1/GPa)
#
#
# Indices 1 2 3 4 5 6 
#
# 1 0.018187 -0.011004 -0.004660 0.000000 0.000000 0.000000
# 2 -0.011004 0.018187 -0.004660 0.000000 0.000000 0.000000
# 3 -0.004660 -0.004660 0.020028 0.000000 0.000000 0.000000
# 4 0.000000 0.000000 0.000000 0.096134 0.000000 0.000000
# 5 0.000000 0.000000 0.000000 0.000000 0.096134 0.000000
# 6 0.000000 0.000000 0.000000 0.000000 0.000000 0.017850
#
#
# Mechanical properties :
#
#
# Convention : Reuss Voigt Hill
#
# Bulk Modulus (GPa) = 63.47091 72.87865 68.17478
# Shear Modulus (GPa) = 16.00408 24.02003 20.01206
#
# Velocity S-wave (km/s) = 2.81273 3.44588 3.14528
# Velocity P-wave (km/s) = 6.47494 7.20131 6.84776
#
# Compressibility (1/GPa) = 0.01575525
#
# Stress axis : x y z
#
# Youngs Moduli (GPa) = 54.98355 54.98355 49.92970
#
# Poissons Ratio (x) = 0.60503 0.23267
# Poissons Ratio (y) = 0.60503 0.23267
# Poissons Ratio (z) = 0.25622 0.25622
#
# Static dielectric constant tensor:
#      x y z
#    x 1.761010 0.000000 0.000000 
#    y 0.000000 1.761010 0.000000 
#    z 0.000000 0.000000 1.712390 
# 
# From -- ./inp_files/6266.got.cif
#   From: 2010.05.17/outbox.cif.g08.bks.cpg/sg133_4_cif.got.tgz:6266.got - 2010.05.20 12:37:36.
