data_PCOD9567524
_publ_section_title
;
Structure prediction by ZEFSAII (Michael W. Deem and Ramdas Pophale) SiO2 
 PCOD9567524
Probable space group: P 42/M C M
;
_chemical_formula_sum "Si O2"
_cell_formula_units_Z 88
_cell_length_a 17.277782
_cell_length_b 17.277782
_cell_length_c 14.634858
_cell_angle_alpha 90.000000
_cell_angle_beta 90.000000
_cell_angle_gamma 90.000000
_cell_volume 4368.823433
_symmetry_space_group_name_H-M "P 42/M C M"
_symmetry_group_IT_number 132
_symmetry_cell_setting 'tetragonal'
loop_
_space_group_symop_operation_xyz
x,y,z
-y,x,1/2+z
-x,-y,z
y,-x,1/2+z
x,-y,1/2-z
-x,y,1/2-z
y,x,-z
-y,-x,-z
-x,-y,-z
y,-x,1/2-z
x,y,-z
-y,x,1/2-z
-x,y,1/2+z
x,-y,1/2+z
-y,-x,z
y,x,z
loop_
_atom_site_type_symbol
_atom_site_label
_atom_site_fract_x
_atom_site_fract_y
_atom_site_fract_z
Si Si1 0.804144 0.393809 0.395483
Si Si2 0.218618 0.781383 0.358268
Si Si3 0.500000 0.214067 0.250000
Si Si4 0.589335 0.975700 0.894028
Si Si5 0.216669 0.216669 0.645897
Si Si6 0.911191 0.088810 0.609728
Si Si7 0.087672 0.912329 0.110257
Si Si8 0.139422 0.622062 0.893242
O O1 0.795513 0.422747 0.500000
O O2 0.800748 0.301837 0.398363
O O3 0.749903 0.437573 0.322103
O O4 0.890664 0.406153 0.354362
O O5 0.230593 0.769408 0.251673
O O6 0.153026 0.846975 0.368381
O O7 0.442319 0.174685 0.325958
O O8 0.500000 0.000000 0.887891
O O9 0.636026 0.050337 0.861194
O O10 0.611312 0.964498 0.000000
O O11 0.150813 0.150813 0.637377
O O12 0.185717 0.297778 0.607247
O O13 0.913891 0.086110 0.500000
O O14 0.999459 0.106695 0.640190
O O15 0.087258 0.912743 0.000000
O O16 0.134924 0.594761 0.000000
#
# Coordination Sequence:
#
# PCOD9567524 Si02
#       8
#    16   8   8  16   8   8   8  16
#     4  11  23  40  60  86 125 165 204 259 314 375
#     4  12  25  41  57  89 127 166 217 267 320 381
#     4  12  22  39  62  90 118 151 210 248 310 393
#     4   9  18  34  58  86 115 158 207 248 310 379
#     4  12  25  41  57  89 127 166 217 267 320 381
#     4   9  20  40  62  82 112 163 223 279 331 374
#     4   9  20  40  62  82 112 163 223 279 331 374
#     4  11  23  40  60  86 125 165 204 259 314 375
#
# _framework density 20.142724000000001
#
# number of rings (size 3 to 8) (size 9 to 14) (size 15 to 20)
#    0.000    1.455    3.636    2.727    2.545    2.182 
#    0.000    0.909    0.000    0.000    0.000    0.000 
#    0.000    5.818    0.000   14.545    0.000    0.000 
#
# Total GULP energy -490176.948611 kJ/mol
# GULP energy per Si atom -5570.192598 kJ/mol
# Density = 2.009688 g / cm^3
# Si number density = 20.142724 Si / 1000 Ang^3
#
#
#
# Elastic Constant Matrix: (Units=GPa)
#
#
# Indices 1 2 3 4 5 6 
#
# 1 87.0077 44.5034 13.4534 0.0000 0.0000 0.0000
# 2 44.5034 87.0077 13.4534 0.0000 0.0000 0.0000
# 3 13.4534 13.4534 127.3473 0.0000 0.0000 0.0000
# 4 0.0000 0.0000 0.0000 24.1367 0.0000 0.0000
# 5 0.0000 0.0000 0.0000 0.0000 24.1367 0.0000
# 6 0.0000 0.0000 0.0000 0.0000 0.0000 23.8270
#
#
#
# Elastic Compliance Matrix: (Units=1/GPa)
#
#
# Indices 1 2 3 4 5 6 
#
# 1 0.015649 -0.007878 -0.000821 0.000000 0.000000 0.000000
# 2 -0.007878 0.015649 -0.000821 0.000000 0.000000 0.000000
# 3 -0.000821 -0.000821 0.008026 0.000000 0.000000 0.000000
# 4 0.000000 0.000000 0.000000 0.041431 0.000000 0.000000
# 5 0.000000 0.000000 0.000000 0.000000 0.041431 0.000000
# 6 0.000000 0.000000 0.000000 0.000000 0.000000 0.041969
#
#
# Mechanical properties :
#
#
# Convention : Reuss Voigt Hill
#
# Bulk Modulus (GPa) = 49.29598 49.35368 49.32483
# Shear Modulus (GPa) = 26.32179 29.75024 28.03602
#
# Velocity S-wave (km/s) = 3.61884 3.84731 3.73482
# Velocity P-wave (km/s) = 6.47980 6.65514 6.56806
#
# Compressibility (1/GPa) = 0.02028563
#
# Stress axis : x y z
#
# Youngs Moduli (GPa) = 63.89995 63.89995 124.59473
#
# Poissons Ratio (x) = 0.50338 0.10230
# Poissons Ratio (y) = 0.50338 0.10230
# Poissons Ratio (z) = 0.05247 0.05247
#
# Static dielectric constant tensor:
#      x y z
#    x 1.754710 0.000000 0.000000 
#    y 0.000000 1.754710 0.000000 
#    z 0.000000 0.000000 1.788370 
# 
# From -- ./inp_files/4844.got.cif
#   From: 2010.05.17/outbox.cif.g08.bks.cpg/sg132_3_cif.got.tgz:4844.got - 2010.05.20 12:30:18.
