data_PCOD9567125
_publ_section_title
;
Structure prediction by ZEFSAII (Michael W. Deem and Ramdas Pophale) SiO2 
 PCOD9567125
Probable space group: P 42/M C M
;
_chemical_formula_sum "Si O2"
_cell_formula_units_Z 64
_cell_length_a 12.653943
_cell_length_b 12.653943
_cell_length_c 22.714115
_cell_angle_alpha 90.000000
_cell_angle_beta 90.000000
_cell_angle_gamma 90.000000
_cell_volume 3637.035733
_symmetry_space_group_name_H-M "P 42/M C M"
_symmetry_group_IT_number 132
_symmetry_cell_setting 'tetragonal'
loop_
_space_group_symop_operation_xyz
x,y,z
-y,x,1/2+z
-x,-y,z
y,-x,1/2+z
x,-y,1/2-z
-x,y,1/2-z
y,x,-z
-y,-x,-z
-x,-y,-z
y,-x,1/2-z
x,y,-z
-y,x,1/2-z
-x,y,1/2+z
x,-y,1/2+z
-y,-x,z
y,x,z
loop_
_atom_site_type_symbol
_atom_site_label
_atom_site_fract_x
_atom_site_fract_y
_atom_site_fract_z
Si Si1 0.000000 0.827082 0.250000
Si Si2 0.245852 0.931079 0.625833
Si Si3 0.692852 0.858331 0.429333
Si Si4 0.416429 0.583572 0.429032
Si Si5 0.827635 0.453160 0.428679
O O1 0.043188 0.761121 0.304861
O O2 0.905528 0.905528 0.270287
O O3 0.151323 0.848678 0.612226
O O4 0.356390 0.882693 0.604096
O O5 0.239823 0.043061 0.593147
O O6 0.691508 0.859080 0.500000
O O7 0.749957 0.749957 0.410355
O O8 0.570132 0.866122 0.411253
O O9 0.500000 0.500000 0.404735
O O10 0.421627 0.578374 0.500000
O O11 0.296559 0.554923 0.414504
O O12 0.841876 0.441054 0.500000
#
# Coordination Sequence:
#
# PCOD9567125 Si02
#       5
#     8  16  16   8  16
#     4   9  20  38  57  76 104 142 181 227 278 330
#     4  11  21  35  56  80 106 136 181 232 283 327
#     4  10  21  35  52  77 113 152 183 216 267 329
#     4   9  16  28  50  78 111 151 187 215 253 316
#     4  10  19  33  52  80 115 146 180 223 270 323
#
# _framework density 17.596747000000001
#
# number of rings (size 3 to 8) (size 9 to 14) (size 15 to 20)
#    0.000    2.000    1.250    3.000    0.000    8.000 
#    0.000    3.750    0.000    0.000    0.000    0.000 
#    0.000    0.000    0.000    0.000    0.000    0.000 
#
# Total GULP energy -356897.986767 kJ/mol
# GULP energy per Si atom -5576.531043 kJ/mol
# Density = 1.755670 g / cm^3
# Si number density = 17.596747 Si / 1000 Ang^3
#
#
#
# Elastic Constant Matrix: (Units=GPa)
#
#
# Indices 1 2 3 4 5 6 
#
# 1 76.8144 78.3207 42.9683 0.0000 0.0000 0.0000
# 2 78.3207 76.8150 42.9671 0.0000 0.0000 0.0000
# 3 42.9683 42.9671 38.4035 0.0000 0.0000 0.0000
# 4 0.0000 0.0000 0.0000 75.1699 0.0000 0.0000
# 5 0.0000 0.0000 0.0000 0.0000 75.1700 0.0000
# 6 0.0000 0.0000 0.0000 0.0000 0.0000 27.6887
#
#
#
# Elastic Compliance Matrix: (Units=1/GPa)
#
#
# Indices 1 2 3 4 5 6 
#
# 1 -0.323555 0.340490 -0.018938 0.000000 0.000000 0.000000
# 2 0.340490 -0.323519 -0.018998 0.000000 0.000000 0.000000
# 3 -0.018938 -0.018998 0.068484 0.000000 0.000000 0.000000
# 4 0.000000 0.000000 0.000000 0.013303 0.000000 0.000000
# 5 0.000000 0.000000 0.000000 0.000000 0.013303 0.000000
# 6 0.000000 0.000000 0.000000 0.000000 0.000000 0.036116
#
#
# Mechanical properties :
#
#
# Convention : Reuss Voigt Hill
#
# Bulk Modulus (GPa) = 37.70988 57.83835 47.77412
# Shear Modulus (GPa) = -4.49585 37.45753 16.48084
#
# Velocity S-wave (km/s) = -1.60015 4.61875 3.06369
# Velocity P-wave (km/s) = 4.25001 7.83479 6.30264
#
# Compressibility (1/GPa) = 0.02651825
#
# Stress axis : x y z
#
# Youngs Moduli (GPa) = -3.09067 -3.09101 14.60201
#
# Poissons Ratio (x) = 1.05246 0.27653
# Poissons Ratio (y) = 1.05234 0.27741
# Poissons Ratio (z) = -0.05853 -0.05872
#
# Static dielectric constant tensor:
#      x y z
#    x 1.620020 0.000000 0.000000 
#    y 0.000000 1.620020 0.000000 
#    z 0.000000 0.000000 1.570350 
# 
# From -- ./inp_files/8777.got.cif
#   From: 2010.05.17/outbox.cif.g08.bks.cpg/sg132_5_cif.got.tgz:8777.got - 2010.05.20 12:30:18.
