data_PCOD9567849
_publ_section_title
;
Structure prediction by ZEFSAII (Michael W. Deem and Ramdas Pophale) SiO2 
 PCOD9567849
Probable space group: P 42/N B C
;
_chemical_formula_sum "Si O2"
_cell_formula_units_Z 100
_cell_length_a 14.269203
_cell_length_b 14.269203
_cell_length_c 20.091014
_cell_angle_alpha 90.000000
_cell_angle_beta 90.000000
_cell_angle_gamma 90.000000
_cell_volume 4090.734460
_symmetry_space_group_name_H-M "P 42/N B C"
_symmetry_group_IT_number 133
_space_group.IT_coordinate_system_code '2'
_symmetry_cell_setting 'tetragonal'
loop_
_space_group_symop_operation_xyz
x,y,z
1/2-y,x,1/2+z
1/2-x,1/2-y,z
y,1/2-x,1/2+z
x,1/2-y,-z
1/2-x,y,-z
y,x,1/2-z
1/2-y,1/2-x,1/2-z
-x,-y,-z
1/2+y,-x,1/2-z
1/2+x,1/2+y,-z
-y,1/2+x,1/2-z
-x,1/2+y,z
1/2+x,-y,z
-y,-x,1/2+z
1/2+y,1/2+x,1/2+z
loop_
_atom_site_type_symbol
_atom_site_label
_atom_site_fract_x
_atom_site_fract_y
_atom_site_fract_z
Si Si1 0.815000 0.130413 0.778183
Si Si2 0.750000 0.750000 0.500000
Si Si3 0.375724 0.000258 0.676581
Si Si4 0.897046 0.548998 0.877171
Si Si5 0.564755 0.358470 0.489674
Si Si6 0.101016 0.314623 0.607833
Si Si7 0.446515 0.803670 0.896177
O O1 0.704448 0.147797 0.777877
O O2 0.836391 0.030302 0.747930
O O3 0.867575 0.157933 0.844681
O O4 0.819567 0.695515 0.449746
O O5 0.477728 0.953128 0.670077
O O6 0.304962 0.956820 0.620992
O O7 0.371689 0.109565 0.661975
O O8 0.788484 0.574564 0.865384
O O9 0.956224 0.644030 0.880341
O O10 0.895382 0.493262 0.947460
O O11 0.591608 0.250000 0.500000
O O12 0.489557 0.356538 0.429755
O O13 0.654627 0.416248 0.466851
#
# Coordination Sequence:
#
# PCOD9567849 Si02
#       7
#    16   4  16  16  16  16  16
#     4   9  22  44  68  98 134 176 232 286 346 404
#     4  12  20  40  72  96 144 194 220 256 362 412
#     4  11  25  40  72  99 126 185 233 282 340 407
#     4  11  23  42  64 100 144 174 223 279 342 410
#     4  10  22  41  62  96 142 176 208 281 340 396
#     4  11  23  41  65 100 139 181 224 275 333 412
#     4  11  23  43  69  98 136 181 229 279 345 409
#
# _framework density 24.445488000000001
#
# number of rings (size 3 to 8) (size 9 to 14) (size 15 to 20)
#    0.000    1.440    4.000    1.440    4.480    1.280 
#    0.000    2.400    0.000    0.000    0.000    0.000 
#    0.000    0.000    0.000    0.000    0.000    0.000 
#
# Total GULP energy -559787.398176 kJ/mol
# GULP energy per Si atom -5597.873982 kJ/mol
# Density = 2.438985 g / cm^3
# Si number density = 24.445488 Si / 1000 Ang^3
#
#
#
# Elastic Constant Matrix: (Units=GPa)
#
#
# Indices 1 2 3 4 5 6 
#
# 1 122.5151 27.7484 30.2013 0.0000 0.0000 0.0000
# 2 27.7484 122.5151 30.2013 0.0000 0.0000 0.0000
# 3 30.2013 30.2013 45.7152 0.0000 0.0000 0.0000
# 4 0.0000 0.0000 0.0000 37.4209 0.0000 0.0000
# 5 0.0000 0.0000 0.0000 0.0000 37.4209 0.0000
# 6 0.0000 0.0000 0.0000 0.0000 0.0000 19.3194
#
#
#
# Elastic Compliance Matrix: (Units=1/GPa)
#
#
# Indices 1 2 3 4 5 6 
#
# 1 0.009807 -0.000745 -0.005986 0.000000 0.000000 0.000000
# 2 -0.000745 0.009807 -0.005986 0.000000 0.000000 0.000000
# 3 -0.005986 -0.005986 0.029784 0.000000 0.000000 0.000000
# 4 0.000000 0.000000 0.000000 0.026723 0.000000 0.000000
# 5 0.000000 0.000000 0.000000 0.000000 0.026723 0.000000
# 6 0.000000 0.000000 0.000000 0.000000 0.000000 0.051761
#
#
# Mechanical properties :
#
#
# Convention : Reuss Voigt Hill
#
# Bulk Modulus (GPa) = 41.73335 51.89415 46.81375
# Shear Modulus (GPa) = 26.59173 32.33851 29.46512
#
# Velocity S-wave (km/s) = 3.30175 3.64109 3.47557
# Velocity P-wave (km/s) = 5.62535 6.24110 5.94121
#
# Compressibility (1/GPa) = 0.02396165
#
# Stress axis : x y z
#
# Youngs Moduli (GPa) = 101.97029 101.97029 33.57500
#
# Poissons Ratio (x) = 0.07601 0.20099
# Poissons Ratio (y) = 0.07601 0.20099
# Poissons Ratio (z) = 0.61042 0.61042
#
# Static dielectric constant tensor:
#      x y z
#    x 1.955370 0.000000 0.000000 
#    y 0.000000 1.955370 0.000000 
#    z 0.000000 0.000000 1.968180 
# 
# From -- ./inp_files/7204.got.cif
#   From: 2010.05.17/outbox.cif.g08.bks.cpg/sg133_4_cif.got.tgz:7204.got - 2010.05.20 12:37:36.
