data_PCOD9568315
_publ_section_title
;
Structure prediction by ZEFSAII (Michael W. Deem and Ramdas Pophale) SiO2 
 PCOD9568315
Probable space group: P 42/N N M
;
_chemical_formula_sum "Si O2"
_cell_formula_units_Z 64
_cell_length_a 11.307772
_cell_length_b 11.307772
_cell_length_c 21.812746
_cell_angle_alpha 90.000000
_cell_angle_beta 90.000000
_cell_angle_gamma 90.000000
_cell_volume 2789.102202
_symmetry_space_group_name_H-M "P 42/N N M"
_symmetry_group_IT_number 134
_space_group.IT_coordinate_system_code '2'
_symmetry_cell_setting 'tetragonal'
loop_
_space_group_symop_operation_xyz
x,y,z
1/2-y,x,1/2+z
1/2-x,1/2-y,z
y,1/2-x,1/2+z
x,1/2-y,1/2-z
1/2-x,y,1/2-z
y,x,-z
1/2-y,1/2-x,-z
-x,-y,-z
1/2+y,-x,1/2-z
1/2+x,1/2+y,-z
-y,1/2+x,1/2-z
-x,1/2+y,1/2+z
1/2+x,-y,1/2+z
-y,-x,z
1/2+y,1/2+x,z
loop_
_atom_site_type_symbol
_atom_site_label
_atom_site_fract_x
_atom_site_fract_y
_atom_site_fract_z
Si Si1 0.999963 0.697111 0.991544
Si Si2 0.493559 0.683932 0.115194
Si Si3 0.491326 0.805031 0.644128
Si Si4 0.645031 0.675692 0.312940
O O1 0.995883 0.797946 0.042848
O O2 0.111230 0.611230 0.003857
O O3 0.883067 0.616934 0.000000
O O4 0.012852 0.748524 0.923604
O O5 0.365592 0.634409 0.130758
O O6 0.586856 0.585860 0.139306
O O7 0.529213 0.806214 0.147412
O O8 0.367552 0.867552 0.660604
O O9 0.545864 0.701162 0.687118
O O10 0.750000 0.750000 0.346211
O O11 0.628587 0.750000 0.250000
#
# Coordination Sequence:
#
# PCOD9568315 Si02
#       4
#    16  16  16  16
#     4  11  22  35  54  85 124 163 198 245 310 373
#     4  10  20  35  57  83 112 154 199 240 298 368
#     4  10  20  35  59  87 113 152 203 248 302 373
#     4   9  18  35  58  81 112 153 193 256 309 352
#
# _framework density 22.946453000000002
#
# number of rings (size 3 to 8) (size 9 to 14) (size 15 to 20)
#    0.000    2.000    2.500    1.500    0.000    5.000 
#    0.000    2.500    0.000   18.000    0.000    0.000 
#    0.000    0.000    0.000    0.000    0.000    0.000 
#
# Total GULP energy -356689.029820 kJ/mol
# GULP energy per Si atom -5573.266091 kJ/mol
# Density = 2.289423 g / cm^3
# Si number density = 22.946453 Si / 1000 Ang^3
#
#
#
# Elastic Constant Matrix: (Units=GPa)
#
#
# Indices 1 2 3 4 5 6 
#
# 1 71.8793 55.2869 27.4980 0.0000 0.0000 0.0000
# 2 55.2869 71.8789 27.4981 0.0000 0.0000 0.0000
# 3 27.4980 27.4981 102.0193 0.0000 0.0000 0.0000
# 4 0.0000 0.0000 0.0000 -11.6147 0.0000 0.0000
# 5 0.0000 0.0000 0.0000 0.0000 -11.6133 0.0000
# 6 0.0000 0.0000 0.0000 0.0000 0.0000 42.5000
#
#
#
# Elastic Compliance Matrix: (Units=1/GPa)
#
#
# Indices 1 2 3 4 5 6 
#
# 1 0.034585 -0.025684 -0.002399 0.000000 0.000000 0.000000
# 2 -0.025684 0.034586 -0.002399 0.000000 0.000000 0.000000
# 3 -0.002399 -0.002399 0.011095 0.000000 0.000000 0.000000
# 4 0.000000 0.000000 0.000000 -0.086097 0.000000 0.000000
# 5 0.000000 0.000000 0.000000 0.000000 -0.086108 0.000000
# 6 0.000000 0.000000 0.000000 0.000000 0.000000 0.023529
#
#
# Mechanical properties :
#
#
# Convention : Reuss Voigt Hill
#
# Bulk Modulus (GPa) = 51.81039 51.81594 51.81317
# Shear Modulus (GPa) = -4944.42620 12.88736 -2465.76942
#
# Velocity S-wave (km/s) = -46.46983 2.37244 -32.81628
# Velocity P-wave (km/s) = 53.44747 5.48953 37.59320
#
# Compressibility (1/GPa) = 0.01930115
#
# Stress axis : x y z
#
# Youngs Moduli (GPa) = 28.91404 28.91384 90.12706
#
# Poissons Ratio (x) = 0.74262 0.21623
# Poissons Ratio (y) = 0.74263 0.21624
# Poissons Ratio (z) = 0.06937 0.06937
#
# Static dielectric constant tensor:
#      x y z
#    x 1.918830 0.000000 0.000000 
#    y 0.000000 1.918830 0.000000 
#    z 0.000000 0.000000 1.879390 
# 
# From -- ./inp_files/8668.got.cif
#   From: 2010.05.17/outbox.cif.g08.bks.cpg/sg134_5_cif.got.tgz:8668.got - 2010.05.20 12:42:49.
