data_PCOD9568225
_publ_section_title
;
Structure prediction by ZEFSAII (Michael W. Deem and Ramdas Pophale) SiO2 
 PCOD9568225
Probable space group: P 42/N N M
;
_chemical_formula_sum "Si O2"
_cell_formula_units_Z 64
_cell_length_a 15.046091
_cell_length_b 15.046091
_cell_length_c 15.349253
_cell_angle_alpha 90.000000
_cell_angle_beta 90.000000
_cell_angle_gamma 90.000000
_cell_volume 3474.838405
_symmetry_space_group_name_H-M "P 42/N N M"
_symmetry_group_IT_number 134
_space_group.IT_coordinate_system_code '2'
_symmetry_cell_setting 'tetragonal'
loop_
_space_group_symop_operation_xyz
x,y,z
1/2-y,x,1/2+z
1/2-x,1/2-y,z
y,1/2-x,1/2+z
x,1/2-y,1/2-z
1/2-x,y,1/2-z
y,x,-z
1/2-y,1/2-x,-z
-x,-y,-z
1/2+y,-x,1/2-z
1/2+x,1/2+y,-z
-y,1/2+x,1/2-z
-x,1/2+y,1/2+z
1/2+x,-y,1/2+z
-y,-x,z
1/2+y,1/2+x,z
loop_
_atom_site_type_symbol
_atom_site_label
_atom_site_fract_x
_atom_site_fract_y
_atom_site_fract_z
Si Si1 0.655800 0.010055 0.963545
Si Si2 0.658024 0.852275 0.693211
Si Si3 0.452725 0.695670 0.159266
Si Si4 0.095735 0.329662 0.127431
O O1 0.564964 0.064964 0.953133
O O2 0.734242 0.062659 0.917316
O O3 0.648276 0.914267 0.913881
O O4 0.674747 0.988245 0.063982
O O5 0.750000 0.845246 0.750000
O O6 0.584777 0.851158 0.770530
O O7 0.643087 0.767275 0.631455
O O8 0.658489 0.947352 0.648650
O O9 0.450406 0.750000 0.250000
O O10 0.618361 0.381640 0.838146
#
# Coordination Sequence:
#
# PCOD9568225 Si02
#       4
#    16  16  16  16
#     4  11  23  37  57  87 118 156 202 241 281 344
#     4  10  20  37  57  88 117 149 188 240 298 357
#     4  11  23  39  59  86 119 156 194 238 292 349
#     4  10  19  35  58  81 116 150 187 237 298 337
#
# _framework density 18.418122
#
# number of rings (size 3 to 8) (size 9 to 14) (size 15 to 20)
#    0.000    1.500    5.000    3.750    0.000    3.750 
#    4.500    2.500    0.000    3.000    0.000    0.000 
#    0.000    0.000    0.000    0.000    0.000    0.000 
#
# Total GULP energy -356501.690456 kJ/mol
# GULP energy per Si atom -5570.338913 kJ/mol
# Density = 1.837620 g / cm^3
# Si number density = 18.418122 Si / 1000 Ang^3
#
#
#
# Elastic Constant Matrix: (Units=GPa)
#
#
# Indices 1 2 3 4 5 6 
#
# 1 101.0346 72.6164 29.9074 0.0000 0.0000 0.0000
# 2 72.6164 101.0346 29.9074 0.0000 0.0000 0.0000
# 3 29.9074 29.9074 61.5562 0.0000 0.0000 0.0000
# 4 0.0000 0.0000 0.0000 14.3991 0.0000 0.0000
# 5 0.0000 0.0000 0.0000 0.0000 14.3991 0.0000
# 6 0.0000 0.0000 0.0000 0.0000 0.0000 27.4289
#
#
#
# Elastic Compliance Matrix: (Units=1/GPa)
#
#
# Indices 1 2 3 4 5 6 
#
# 1 0.021052 -0.014136 -0.003360 0.000000 0.000000 0.000000
# 2 -0.014136 0.021052 -0.003360 0.000000 0.000000 0.000000
# 3 -0.003360 -0.003360 0.019510 0.000000 0.000000 0.000000
# 4 0.000000 0.000000 0.000000 0.069449 0.000000 0.000000
# 5 0.000000 0.000000 0.000000 0.000000 0.069449 0.000000
# 6 0.000000 0.000000 0.000000 0.000000 0.000000 0.036458
#
#
# Mechanical properties :
#
#
# Convention : Reuss Voigt Hill
#
# Bulk Modulus (GPa) = 50.24669 58.72086 54.48378
# Shear Modulus (GPa) = 17.52427 19.99169 18.75798
#
# Velocity S-wave (km/s) = 3.08794 3.29817 3.19478
# Velocity P-wave (km/s) = 6.32883 6.81581 6.57683
#
# Compressibility (1/GPa) = 0.01990181
#
# Stress axis : x y z
#
# Youngs Moduli (GPa) = 47.50043 47.50043 51.25451
#
# Poissons Ratio (x) = 0.67148 0.17223
# Poissons Ratio (y) = 0.67148 0.17223
# Poissons Ratio (z) = 0.15961 0.15961
#
# Static dielectric constant tensor:
#      x y z
#    x 1.671580 0.000000 0.000000 
#    y 0.000000 1.671580 0.000000 
#    z 0.000000 0.000000 1.675750 
# 
# From -- ./inp_files/6128.got.cif
#   From: 2010.05.17/outbox.cif.g08.bks.cpg/sg134_4_cif.got.tgz:6128.got - 2010.05.20 12:42:49.
