data_PCOD9568020
_publ_section_title
;
Structure prediction by ZEFSAII (Michael W. Deem and Ramdas Pophale) SiO2 
 PCOD9568020
Probable space group: P 42/N B C
;
_chemical_formula_sum "Si O2"
_cell_formula_units_Z 48
_cell_length_a 12.106268
_cell_length_b 12.106268
_cell_length_c 14.894853
_cell_angle_alpha 90.000000
_cell_angle_beta 90.000000
_cell_angle_gamma 90.000000
_cell_volume 2183.015348
_symmetry_space_group_name_H-M "P 42/N B C"
_symmetry_group_IT_number 133
_space_group.IT_coordinate_system_code '2'
_symmetry_cell_setting 'tetragonal'
loop_
_space_group_symop_operation_xyz
x,y,z
1/2-y,x,1/2+z
1/2-x,1/2-y,z
y,1/2-x,1/2+z
x,1/2-y,-z
1/2-x,y,-z
y,x,1/2-z
1/2-y,1/2-x,1/2-z
-x,-y,-z
1/2+y,-x,1/2-z
1/2+x,1/2+y,-z
-y,1/2+x,1/2-z
-x,1/2+y,z
1/2+x,-y,z
-y,-x,1/2+z
1/2+y,1/2+x,1/2+z
loop_
_atom_site_type_symbol
_atom_site_label
_atom_site_fract_x
_atom_site_fract_y
_atom_site_fract_z
Si Si1 0.580294 0.216116 0.148899
Si Si2 0.161357 0.174905 0.909563
Si Si3 0.210525 0.924724 0.866494
O O1 0.460882 0.173912 0.126087
O O2 0.577838 0.215745 0.257543
O O3 0.674859 0.135948 0.109815
O O4 0.610868 0.339012 0.114057
O O5 0.250000 0.250000 0.856504
O O6 0.199731 0.047155 0.906483
O O7 0.149245 0.250000 0.000000
#
# Coordination Sequence:
#
# PCOD9568020 Si02
#       3
#    16  16  16
#     4   9  20  41  68  95 120 168 216 274 321 376
#     4  11  25  41  57  94 133 170 209 258 323 391
#     4   9  20  41  67  94 126 160 222 271 322 378
#
# _framework density 21.987933999999999
#
# number of rings (size 3 to 8) (size 9 to 14) (size 15 to 20)
#    0.000    2.333    0.000    3.000    4.667    4.000 
#    6.000    1.667    0.000    0.000    0.000    0.000 
#    0.000    0.000    0.000    0.000    0.000    0.000 
#
# Total GULP energy -267390.587784 kJ/mol
# GULP energy per Si atom -5570.637246 kJ/mol
# Density = 2.193789 g / cm^3
# Si number density = 21.987934 Si / 1000 Ang^3
#
#
#
# Elastic Constant Matrix: (Units=GPa)
#
#
# Indices 1 2 3 4 5 6 
#
# 1 177.6003 73.2502 20.3063 0.0000 0.0000 0.0000
# 2 73.2502 177.6003 20.3063 0.0000 0.0000 0.0000
# 3 20.3063 20.3063 56.1461 0.0000 0.0000 0.0000
# 4 0.0000 0.0000 0.0000 14.8383 0.0000 0.0000
# 5 0.0000 0.0000 0.0000 0.0000 14.8383 0.0000
# 6 0.0000 0.0000 0.0000 0.0000 0.0000 21.9616
#
#
#
# Elastic Compliance Matrix: (Units=1/GPa)
#
#
# Indices 1 2 3 4 5 6 
#
# 1 0.006909 -0.002674 -0.001531 0.000000 0.000000 0.000000
# 2 -0.002674 0.006909 -0.001531 0.000000 0.000000 0.000000
# 3 -0.001531 -0.001531 0.018918 0.000000 0.000000 0.000000
# 4 0.000000 0.000000 0.000000 0.067393 0.000000 0.000000
# 5 0.000000 0.000000 0.000000 0.000000 0.067393 0.000000
# 6 0.000000 0.000000 0.000000 0.000000 0.000000 0.045534
#
#
# Mechanical properties :
#
#
# Convention : Reuss Voigt Hill
#
# Bulk Modulus (GPa) = 47.03358 71.00803 59.02080
# Shear Modulus (GPa) = 21.58731 30.15992 25.87362
#
# Velocity S-wave (km/s) = 3.13674 3.70761 3.43406
# Velocity P-wave (km/s) = 5.87843 7.11988 6.52873
#
# Compressibility (1/GPa) = 0.02126141
#
# Stress axis : x y z
#
# Youngs Moduli (GPa) = 144.74393 144.74393 52.85855
#
# Poissons Ratio (x) = 0.38710 0.08095
# Poissons Ratio (y) = 0.38710 0.08095
# Poissons Ratio (z) = 0.22167 0.22167
#
# Static dielectric constant tensor:
#      x y z
#    x 1.862520 0.000000 0.000000 
#    y 0.000000 1.862520 0.000000 
#    z 0.000000 0.000000 2.684840 
# 
# From -- ./inp_files/4972.got.cif
#   From: 2010.05.17/outbox.cif.g08.bks.cpg/sg133_3_cif.got.tgz:4972.got - 2010.05.20 12:37:36.
