data_PCOD9568049
_publ_section_title
;
Structure prediction by ZEFSAII (Michael W. Deem and Ramdas Pophale) SiO2 
 PCOD9568049
Probable space group: P 42/N B C
;
_chemical_formula_sum "Si O2"
_cell_formula_units_Z 52
_cell_length_a 15.189263
_cell_length_b 15.189263
_cell_length_c 9.065595
_cell_angle_alpha 90.000000
_cell_angle_beta 90.000000
_cell_angle_gamma 90.000000
_cell_volume 2091.557060
_symmetry_space_group_name_H-M "P 42/N B C"
_symmetry_group_IT_number 133
_space_group.IT_coordinate_system_code '2'
_symmetry_cell_setting 'tetragonal'
loop_
_space_group_symop_operation_xyz
x,y,z
1/2-y,x,1/2+z
1/2-x,1/2-y,z
y,1/2-x,1/2+z
x,1/2-y,-z
1/2-x,y,-z
y,x,1/2-z
1/2-y,1/2-x,1/2-z
-x,-y,-z
1/2+y,-x,1/2-z
1/2+x,1/2+y,-z
-y,1/2+x,1/2-z
-x,1/2+y,z
1/2+x,-y,z
-y,-x,1/2+z
1/2+y,1/2+x,1/2+z
loop_
_atom_site_type_symbol
_atom_site_label
_atom_site_fract_x
_atom_site_fract_y
_atom_site_fract_z
Si Si1 0.250000 0.750000 0.750000
Si Si2 0.214010 0.561601 0.348011
Si Si3 0.589396 0.700299 0.373649
Si Si4 0.005901 0.579883 0.388712
O O1 0.257984 0.842353 0.666260
O O2 0.250000 0.523654 0.500000
O O3 0.240910 0.489023 0.228006
O O4 0.108993 0.579806 0.343221
O O5 0.647601 0.750000 0.500000
O O6 0.645086 0.645086 0.250000
O O7 0.530629 0.650923 0.497091
O O8 0.943763 0.556238 0.250000
O O9 0.000000 0.500000 0.500000
#
# Coordination Sequence:
#
# PCOD9568049 Si02
#       4
#     4  16  16  16
#     4  12  26  40  64 118 166 204 240 306 390 464
#     4  12  25  44  70 111 158 201 248 310 388 465
#     4  12  27  47  76 109 146 200 263 327 391 463
#     4  12  23  47  78 111 149 203 259 304 377 480
#
# _framework density 24.861861000000001
#
# number of rings (size 3 to 8) (size 9 to 14) (size 15 to 20)
#    0.000    0.000    6.154    4.154    4.308    0.000 
#    0.000    0.000    0.000   14.769    0.000    0.000 
#    0.000    0.000    0.000    0.000    0.000    0.000 
#
# Total GULP energy -289583.393753 kJ/mol
# GULP energy per Si atom -5568.911418 kJ/mol
# Density = 2.480527 g / cm^3
# Si number density = 24.861861 Si / 1000 Ang^3
#
#
#
# Elastic Constant Matrix: (Units=GPa)
#
#
# Indices 1 2 3 4 5 6 
#
# 1 67.4361 34.1334 69.7080 0.0000 0.0000 0.0000
# 2 34.1334 67.4382 69.7085 0.0000 0.0000 0.0000
# 3 69.7080 69.7085 283.7896 0.0000 0.0000 0.0000
# 4 0.0000 0.0000 0.0000 51.2940 0.0000 0.0000
# 5 0.0000 0.0000 0.0000 0.0000 51.2941 0.0000
# 6 0.0000 0.0000 0.0000 0.0000 0.0000 91.5443
#
#
#
# Elastic Compliance Matrix: (Units=1/GPa)
#
#
# Indices 1 2 3 4 5 6 
#
# 1 0.022440 -0.007587 -0.003649 0.000000 0.000000 0.000000
# 2 -0.007587 0.022440 -0.003648 0.000000 0.000000 0.000000
# 3 -0.003649 -0.003648 0.005316 0.000000 0.000000 0.000000
# 4 0.000000 0.000000 0.000000 0.019495 0.000000 0.000000
# 5 0.000000 0.000000 0.000000 0.000000 0.019495 0.000000
# 6 0.000000 0.000000 0.000000 0.000000 0.000000 0.010924
#
#
# Mechanical properties :
#
#
# Convention : Reuss Voigt Hill
#
# Bulk Modulus (GPa) = 48.95043 85.08485 67.01764
# Shear Modulus (GPa) = 36.57983 55.16743 45.87363
#
# Velocity S-wave (km/s) = 3.83994 4.71569 4.30017
# Velocity P-wave (km/s) = 6.27630 7.99673 7.18817
#
# Compressibility (1/GPa) = 0.02042883
#
# Stress axis : x y z
#
# Youngs Moduli (GPa) = 44.56249 44.56425 188.10751
#
# Poissons Ratio (x) = 0.33809 0.68632
# Poissons Ratio (y) = 0.33808 0.68629
# Poissons Ratio (z) = 0.16259 0.16259
#
# Static dielectric constant tensor:
#      x y z
#    x 1.820810 0.000000 0.000000 
#    y 0.000000 1.820880 0.000000 
#    z 0.000000 0.000000 1.851420 
# 
# From -- ./inp_files/1206.got.cif
#   From: 2010.05.17/outbox.cif.g08.bks.cpg/sg133_1_cif.got.tgz:1206.got - 2010.05.20 12:37:36.
