data_PCOD9568843
_publ_section_title
;
Structure prediction by ZEFSAII (Michael W. Deem and Ramdas Pophale) SiO2 
 PCOD9568843
Probable space group: P 42/M B C
;
_chemical_formula_sum "Si O2"
_cell_formula_units_Z 96
_cell_length_a 23.580913
_cell_length_b 23.580913
_cell_length_c 8.695273
_cell_angle_alpha 90.000000
_cell_angle_beta 90.000000
_cell_angle_gamma 90.000000
_cell_volume 4835.088791
_symmetry_space_group_name_H-M "P 42/M B C"
_symmetry_group_IT_number 135
_symmetry_cell_setting 'tetragonal'
loop_
_space_group_symop_operation_xyz
x,y,z
-y,x,1/2+z
-x,-y,z
y,-x,1/2+z
1/2+x,1/2-y,-z
1/2-x,1/2+y,-z
1/2+y,1/2+x,1/2-z
1/2-y,1/2-x,1/2-z
-x,-y,-z
y,-x,1/2-z
x,y,-z
-y,x,1/2-z
1/2-x,1/2+y,z
1/2+x,1/2-y,z
1/2-y,1/2-x,1/2+z
1/2+y,1/2+x,1/2+z
loop_
_atom_site_type_symbol
_atom_site_label
_atom_site_fract_x
_atom_site_fract_y
_atom_site_fract_z
Si Si1 0.173278 0.586539 0.181799
Si Si2 0.128173 0.800840 0.685684
Si Si3 0.660769 0.250108 0.683700
Si Si4 0.489350 0.327350 0.824634
Si Si5 0.217617 0.468688 0.817447
Si Si6 0.533026 0.425509 0.325631
O O1 0.121879 0.621879 0.250000
O O2 0.234252 0.615647 0.228053
O O3 0.170309 0.517977 0.207610
O O4 0.171916 0.594100 0.000000
O O5 0.123591 0.805816 0.500000
O O6 0.188073 0.826566 0.741119
O O7 0.075352 0.832404 0.767017
O O8 0.708129 0.208129 0.750000
O O9 0.666712 0.256727 0.500000
O O10 0.598980 0.220186 0.710221
O O11 0.507013 0.263700 0.798662
O O12 0.534490 0.360925 0.720616
O O13 0.494886 0.344738 0.000000
O O14 0.233307 0.475699 0.000000
O O15 0.466635 0.439456 0.298462
O O16 0.548899 0.436307 0.500000
#
# Coordination Sequence:
#
# PCOD9568843 Si02
#       6
#    16  16  16  16  16  16
#     4   9  18  34  57  83 111 144 182 231 286 337
#     4  10  21  37  56  82 117 153 190 234 286 340
#     4  11  23  39  60  85 117 154 194 236 288 348
#     4  11  22  36  56  82 111 147 191 238 287 339
#     4   9  21  40  57  79 114 152 187 232 288 346
#     4  11  22  37  53  72 101 140 189 239 287 335
#
# _framework density 19.854858
#
# number of rings (size 3 to 8) (size 9 to 14) (size 15 to 20)
#    0.000    1.833    0.000    6.000    2.333    6.000 
#    0.000    0.000    0.000    0.500    0.000    3.500 
#    0.000    0.000    0.000    0.000    0.000    0.000 
#
# Total GULP energy -534430.806406 kJ/mol
# GULP energy per Si atom -5566.987567 kJ/mol
# Density = 1.980967 g / cm^3
# Si number density = 19.854858 Si / 1000 Ang^3
#
#
#
# Elastic Constant Matrix: (Units=GPa)
#
#
# Indices 1 2 3 4 5 6 
#
# 1 59.0425 14.9942 12.9685 0.0000 0.0000 0.0000
# 2 14.9942 59.0425 12.9685 0.0000 0.0000 0.0000
# 3 12.9685 12.9685 52.5314 0.0000 0.0000 0.0000
# 4 0.0000 0.0000 0.0000 12.8150 0.0000 0.0000
# 5 0.0000 0.0000 0.0000 0.0000 12.8150 0.0000
# 6 0.0000 0.0000 0.0000 0.0000 0.0000 26.7533
#
#
#
# Elastic Compliance Matrix: (Units=1/GPa)
#
#
# Indices 1 2 3 4 5 6 
#
# 1 0.018744 -0.003958 -0.003650 0.000000 0.000000 0.000000
# 2 -0.003958 0.018744 -0.003650 0.000000 0.000000 0.000000
# 3 -0.003650 -0.003650 0.020838 0.000000 0.000000 0.000000
# 4 0.000000 0.000000 0.000000 0.078034 0.000000 0.000000
# 5 0.000000 0.000000 0.000000 0.000000 0.078034 0.000000
# 6 0.000000 0.000000 0.000000 0.000000 0.000000 0.037379
#
#
# Mechanical properties :
#
#
# Convention : Reuss Voigt Hill
#
# Bulk Modulus (GPa) = 27.92589 28.05318 27.98954
# Shear Modulus (GPa) = 17.46873 19.12235 18.29554
#
# Velocity S-wave (km/s) = 2.96940 3.10676 3.03886
# Velocity P-wave (km/s) = 5.08448 5.19895 5.14204
#
# Compressibility (1/GPa) = 0.03580906
#
# Stress axis : x y z
#
# Youngs Moduli (GPa) = 53.35054 53.35054 47.98826
#
# Poissons Ratio (x) = 0.21118 0.17516
# Poissons Ratio (y) = 0.21118 0.17516
# Poissons Ratio (z) = 0.19474 0.19474
#
# Static dielectric constant tensor:
#      x y z
#    x 1.783640 0.000000 0.000000 
#    y 0.000000 1.783640 0.000000 
#    z 0.000000 0.000000 1.704970 
# 
# From -- ./inp_files/1268.got.cif
#   From: 2010.05.17/outbox.cif.g08.bks.cpg/sg135_1_cif.got.tgz:1268.got - 2010.05.20 12:50:20.
