data_PCOD9568592
_publ_section_title
;
Structure prediction by ZEFSAII (Michael W. Deem and Ramdas Pophale) SiO2 
 PCOD9568592
Probable space group: P 42/M B C
;
_chemical_formula_sum "Si O2"
_cell_formula_units_Z 128
_cell_length_a 19.630254
_cell_length_b 19.630254
_cell_length_c 17.856452
_cell_angle_alpha 90.000000
_cell_angle_beta 90.000000
_cell_angle_gamma 90.000000
_cell_volume 6880.927925
_symmetry_space_group_name_H-M "P 42/M B C"
_symmetry_group_IT_number 135
_symmetry_cell_setting 'tetragonal'
loop_
_space_group_symop_operation_xyz
x,y,z
-y,x,1/2+z
-x,-y,z
y,-x,1/2+z
1/2+x,1/2-y,-z
1/2-x,1/2+y,-z
1/2+y,1/2+x,1/2-z
1/2-y,1/2-x,1/2-z
-x,-y,-z
y,-x,1/2-z
x,y,-z
-y,x,1/2-z
1/2-x,1/2+y,z
1/2+x,1/2-y,z
1/2-y,1/2-x,1/2+z
1/2+y,1/2+x,1/2+z
loop_
_atom_site_type_symbol
_atom_site_label
_atom_site_fract_x
_atom_site_fract_y
_atom_site_fract_z
Si Si1 0.740287 0.930026 0.758863
Si Si2 0.628450 0.025016 0.262367
Si Si3 0.075206 0.322816 0.916378
Si Si4 0.215081 0.034862 0.084245
Si Si5 0.208154 0.398556 0.870901
Si Si6 0.554707 0.557490 0.587284
Si Si7 0.308029 0.702352 0.284207
Si Si8 0.061495 0.191085 0.821249
O O1 0.761089 0.864073 0.712129
O O2 0.661449 0.953083 0.758826
O O3 0.761886 0.919781 0.845279
O O4 0.781563 0.995151 0.724167
O O5 0.552643 0.052643 0.250000
O O6 0.642037 0.032230 0.350532
O O7 0.673749 0.076683 0.208836
O O8 0.147020 0.362248 0.913928
O O9 0.080209 0.246014 0.885470
O O10 0.047146 0.325029 0.000000
O O11 0.258004 0.965212 0.093409
O O12 0.133953 0.024754 0.094111
O O13 0.225819 0.062119 0.000000
O O14 0.266752 0.343169 0.857402
O O15 0.500000 0.500000 0.605244
O O16 0.574824 0.549152 0.500000
O O17 0.619166 0.549039 0.640450
O O18 0.262922 0.762922 0.250000
O O19 0.373186 0.685754 0.232338
#
# Coordination Sequence:
#
# PCOD9568592 Si02
#       8
#    16  16  16  16  16  16  16  16
#     4  10  21  32  53  79  99 140 182 217 281 320
#     4   8  15  31  50  71  98 127 170 221 260 310
#     4  10  17  28  50  76  97 131 177 221 267 320
#     4  10  19  32  48  72 105 137 180 226 268 320
#     4  10  17  31  49  72 100 136 172 226 271 304
#     4  10  22  36  48  69 108 149 179 225 273 315
#     4  12  20  35  56  77 110 140 183 235 275 320
#     4  11  20  35  53  76 101 142 188 223 259 335
#
# _framework density 18.602142000000001
#
# number of rings (size 3 to 8) (size 9 to 14) (size 15 to 20)
#    0.000    1.875    6.250    1.125    1.750    0.000 
#    0.000    0.000    0.000    1.125    0.000    0.000 
#    0.000    0.000    0.000   27.000    0.000    0.000 
#
# Total GULP energy -712931.002640 kJ/mol
# GULP energy per Si atom -5569.773458 kJ/mol
# Density = 1.855980 g / cm^3
# Si number density = 18.602142 Si / 1000 Ang^3
#
#
#
# Elastic Constant Matrix: (Units=GPa)
#
#
# Indices 1 2 3 4 5 6 
#
# 1 24.4921 28.1704 4.7124 0.0000 0.0000 0.0000
# 2 28.1704 24.4921 4.7124 0.0000 0.0000 0.0000
# 3 4.7124 4.7124 80.5708 0.0000 0.0000 0.0000
# 4 0.0000 0.0000 0.0000 11.6863 0.0000 0.0000
# 5 0.0000 0.0000 0.0000 0.0000 11.6863 0.0000
# 6 0.0000 0.0000 0.0000 0.0000 0.0000 32.6219
#
#
#
# Elastic Compliance Matrix: (Units=1/GPa)
#
#
# Indices 1 2 3 4 5 6 
#
# 1 -0.126337 0.145527 -0.001122 0.000000 0.000000 0.000000
# 2 0.145527 -0.126337 -0.001122 0.000000 0.000000 0.000000
# 3 -0.001122 -0.001122 0.012543 0.000000 0.000000 0.000000
# 4 0.000000 0.000000 0.000000 0.085570 0.000000 0.000000
# 5 0.000000 0.000000 0.000000 0.000000 0.085570 0.000000
# 6 0.000000 0.000000 0.000000 0.000000 0.000000 0.030654
#
#
# Mechanical properties :
#
#
# Convention : Reuss Voigt Hill
#
# Bulk Modulus (GPa) = 21.53655 22.74949 22.14302
# Shear Modulus (GPa) = -16.15910 17.32955 0.58523
#
# Velocity S-wave (km/s) = -2.95052 3.05551 0.56150
# Velocity P-wave (km/s) = 0.06928 4.97033 3.51421
#
# Compressibility (1/GPa) = 0.04643269
#
# Stress axis : x y z
#
# Youngs Moduli (GPa) = -7.91532 -7.91532 79.72750
#
# Poissons Ratio (x) = 1.15189 0.08948
# Poissons Ratio (y) = 1.15189 0.08948
# Poissons Ratio (z) = -0.00888 -0.00888
#
# Static dielectric constant tensor:
#      x y z
#    x 1.661930 0.000000 0.000000 
#    y 0.000000 1.661930 0.000000 
#    z 0.000000 0.000000 1.656580 
# 
# From -- ./inp_files/4741.got.cif
#   From: 2010.05.17/outbox.cif.g08.bks.cpg/sg135_3_cif.got.tgz:4741.got - 2010.05.20 12:50:20.
