data_PCOD9568136
_publ_section_title
;
Structure prediction by ZEFSAII (Michael W. Deem and Ramdas Pophale) SiO2 
 PCOD9568136
Probable space group: P 42/N N M
;
_chemical_formula_sum "Si O2"
_cell_formula_units_Z 96
_cell_length_a 17.856871
_cell_length_b 17.856871
_cell_length_c 18.160756
_cell_angle_alpha 90.000000
_cell_angle_beta 90.000000
_cell_angle_gamma 90.000000
_cell_volume 5790.881073
_symmetry_space_group_name_H-M "P 42/N N M"
_symmetry_group_IT_number 134
_space_group.IT_coordinate_system_code '2'
_symmetry_cell_setting 'tetragonal'
loop_
_space_group_symop_operation_xyz
x,y,z
1/2-y,x,1/2+z
1/2-x,1/2-y,z
y,1/2-x,1/2+z
x,1/2-y,1/2-z
1/2-x,y,1/2-z
y,x,-z
1/2-y,1/2-x,-z
-x,-y,-z
1/2+y,-x,1/2-z
1/2+x,1/2+y,-z
-y,1/2+x,1/2-z
-x,1/2+y,1/2+z
1/2+x,-y,1/2+z
-y,-x,z
1/2+y,1/2+x,z
loop_
_atom_site_type_symbol
_atom_site_label
_atom_site_fract_x
_atom_site_fract_y
_atom_site_fract_z
Si Si1 0.667816 0.728872 0.163630
Si Si2 0.008280 0.991721 0.315794
Si Si3 0.554280 0.445721 0.159582
Si Si4 0.399540 0.600460 0.605417
Si Si5 0.077054 0.142493 0.076375
Si Si6 0.974511 0.811060 0.547338
Si Si7 0.838805 0.161196 0.243805
Si Si8 0.363795 0.072013 0.112122
O O1 0.750000 0.750000 0.132083
O O2 0.671331 0.750000 0.250000
O O3 0.651374 0.645010 0.135638
O O4 0.603678 0.784087 0.135805
O O5 0.979952 0.020049 0.236150
O O6 0.962846 0.037155 0.379761
O O7 0.093667 0.015370 0.332979
O O8 0.487864 0.406789 0.113764
O O9 0.617228 0.382773 0.179523
O O10 0.440522 0.669169 0.567305
O O11 0.373807 0.626194 0.684040
O O12 0.045749 0.224609 0.055392
O O13 0.107233 0.107233 0.000000
O O14 0.962451 0.847844 0.467626
O O15 0.918265 0.856091 0.601683
O O16 0.851985 0.250000 0.250000
#
# Coordination Sequence:
#
# PCOD9568136 Si02
#       8
#    16   8   8   8  16  16   8  16
#     4  11  22  35  53  82 114 151 192 237 284 347
#     4   9  19  34  53  75 109 142 181 240 291 339
#     4  11  24  39  54  80 112 156 197 234 282 364
#     4   9  18  32  49  82 103 139 180 225 287 340
#     4  12  23  38  56  79 115 160 196 234 293 355
#     4  10  19  31  55  78 110 141 182 238 283 348
#     4  10  20  37  58  78 107 143 185 236 287 334
#     4  10  18  33  52  79 107 143 185 234 293 336
#
# _framework density 16.577788000000002
#
# number of rings (size 3 to 8) (size 9 to 14) (size 15 to 20)
#    0.000    1.583    3.333    2.750    0.000    2.333 
#    3.000    0.000    0.000    0.000    0.000    0.000 
#    0.000    0.667    0.000    4.833    0.000    0.000 
#
# Total GULP energy -534764.910193 kJ/mol
# GULP energy per Si atom -5570.467815 kJ/mol
# Density = 1.654006 g / cm^3
# Si number density = 16.577788 Si / 1000 Ang^3
#
#
#
# Elastic Constant Matrix: (Units=GPa)
#
#
# Indices 1 2 3 4 5 6 
#
# 1 95.4257 77.1844 37.3463 0.0000 0.0000 0.0000
# 2 77.1844 95.4257 37.3463 0.0000 0.0000 0.0000
# 3 37.3463 37.3463 67.1397 0.0000 0.0000 0.0000
# 4 0.0000 0.0000 0.0000 20.8628 0.0000 0.0000
# 5 0.0000 0.0000 0.0000 0.0000 20.8628 0.0000
# 6 0.0000 0.0000 0.0000 0.0000 0.0000 34.0866
#
#
#
# Elastic Compliance Matrix: (Units=1/GPa)
#
#
# Indices 1 2 3 4 5 6 
#
# 1 0.031225 -0.023595 -0.004244 0.000000 0.000000 0.000000
# 2 -0.023595 0.031225 -0.004244 0.000000 0.000000 0.000000
# 3 -0.004244 -0.004244 0.019616 0.000000 0.000000 0.000000
# 4 0.000000 0.000000 0.000000 0.047932 0.000000 0.000000
# 5 0.000000 0.000000 0.000000 0.000000 0.047932 0.000000
# 6 0.000000 0.000000 0.000000 0.000000 0.000000 0.029337
#
#
# Mechanical properties :
#
#
# Convention : Reuss Voigt Hill
#
# Bulk Modulus (GPa) = 55.86827 62.41610 59.14218
# Shear Modulus (GPa) = 18.02439 22.23673 20.13056
#
# Velocity S-wave (km/s) = 3.30094 3.66643 3.48847
# Velocity P-wave (km/s) = 6.94997 7.46028 7.20964
#
# Compressibility (1/GPa) = 0.01789925
#
# Stress axis : x y z
#
# Youngs Moduli (GPa) = 32.02521 32.02521 50.97906
#
# Poissons Ratio (x) = 0.75565 0.21636
# Poissons Ratio (y) = 0.75565 0.21636
# Poissons Ratio (z) = 0.13592 0.13592
#
# Static dielectric constant tensor:
#      x y z
#    x 1.590210 0.000000 0.000000 
#    y 0.000000 1.590210 0.000000 
#    z 0.000000 0.000000 1.221030 
# 
# From -- ./inp_files/7979.got.cif
#   From: 2010.05.17/outbox.cif.g08.bks.cpg/sg134_4_cif.got.tgz:7979.got - 2010.05.20 12:42:49.
