data_PCOD9568005
_publ_section_title
;
Structure prediction by ZEFSAII (Michael W. Deem and Ramdas Pophale) SiO2 
 PCOD9568005
Probable space group: P 42/N B C
;
_chemical_formula_sum "Si O2"
_cell_formula_units_Z 56
_cell_length_a 10.623669
_cell_length_b 10.623669
_cell_length_c 22.340724
_cell_angle_alpha 90.000000
_cell_angle_beta 90.000000
_cell_angle_gamma 90.000000
_cell_volume 2521.426455
_symmetry_space_group_name_H-M "P 42/N B C"
_symmetry_group_IT_number 133
_space_group.IT_coordinate_system_code '2'
_symmetry_cell_setting 'tetragonal'
loop_
_space_group_symop_operation_xyz
x,y,z
1/2-y,x,1/2+z
1/2-x,1/2-y,z
y,1/2-x,1/2+z
x,1/2-y,-z
1/2-x,y,-z
y,x,1/2-z
1/2-y,1/2-x,1/2-z
-x,-y,-z
1/2+y,-x,1/2-z
1/2+x,1/2+y,-z
-y,1/2+x,1/2-z
-x,1/2+y,z
1/2+x,-y,z
-y,-x,1/2+z
1/2+y,1/2+x,1/2+z
loop_
_atom_site_type_symbol
_atom_site_label
_atom_site_fract_x
_atom_site_fract_y
_atom_site_fract_z
Si Si1 0.014474 0.706322 0.824247
Si Si2 0.055606 0.750000 0.500000
Si Si3 0.617770 0.673221 0.051884
Si Si4 0.250000 0.750000 0.602574
Si Si5 0.052130 0.052130 0.250000
O O1 0.135374 0.774314 0.853345
O O2 0.936646 0.666696 0.882576
O O3 0.048258 0.578447 0.788481
O O4 0.949903 0.816242 0.785983
O O5 0.138065 0.785476 0.557326
O O6 0.962612 0.643099 0.524157
O O7 0.750000 0.750000 0.058462
O O8 0.543766 0.750000 0.000000
#
# Coordination Sequence:
#
# PCOD9568005 Si02
#       5
#    16   8  16   8   8
#     4  12  27  46  73 101 145 192 242 306 345 446
#     4   9  21  42  66 108 143 181 224 288 378 449
#     4   9  22  41  70 100 134 176 235 289 350 430
#     4  11  24  41  68 102 148 177 225 300 380 416
#     4  12  30  46  72 102 144 198 252 290 364 414
#
# _framework density 22.20965
#
# number of rings (size 3 to 8) (size 9 to 14) (size 15 to 20)
#    0.000    1.714    0.000    3.429   16.000    1.143 
#    0.000    0.000    0.000    0.000    0.000    0.000 
#    0.000    0.000    0.000    0.000    0.000    0.000 
#
# Total GULP energy -312798.459704 kJ/mol
# GULP energy per Si atom -5585.686780 kJ/mol
# Density = 2.215910 g / cm^3
# Si number density = 22.209650 Si / 1000 Ang^3
#
#
#
# Elastic Constant Matrix: (Units=GPa)
#
#
# Indices 1 2 3 4 5 6 
#
# 1 91.7243 7.6929 42.4852 0.0000 0.0000 0.0000
# 2 7.6929 91.7243 42.4852 0.0000 0.0000 0.0000
# 3 42.4852 42.4852 135.6396 0.0000 0.0000 0.0000
# 4 0.0000 0.0000 0.0000 26.1261 0.0000 0.0000
# 5 0.0000 0.0000 0.0000 0.0000 26.1261 0.0000
# 6 0.0000 0.0000 0.0000 0.0000 0.0000 10.5912
#
#
#
# Elastic Compliance Matrix: (Units=1/GPa)
#
#
# Indices 1 2 3 4 5 6 
#
# 1 0.012818 0.000918 -0.004302 0.000000 0.000000 0.000000
# 2 0.000918 0.012818 -0.004302 0.000000 0.000000 0.000000
# 3 -0.004302 -0.004302 0.010068 0.000000 0.000000 0.000000
# 4 0.000000 0.000000 0.000000 0.038276 0.000000 0.000000
# 5 0.000000 0.000000 0.000000 0.000000 0.038276 0.000000
# 6 0.000000 0.000000 0.000000 0.000000 0.000000 0.094418
#
#
# Mechanical properties :
#
#
# Convention : Reuss Voigt Hill
#
# Bulk Modulus (GPa) = 49.18878 56.04608 52.61743
# Shear Modulus (GPa) = 21.85089 27.66370 24.75729
#
# Velocity S-wave (km/s) = 3.14004 3.53309 3.34235
# Velocity P-wave (km/s) = 5.94491 6.47561 6.21593
#
# Compressibility (1/GPa) = 0.02032984
#
# Stress axis : x y z
#
# Youngs Moduli (GPa) = 78.01506 78.01506 99.32820
#
# Poissons Ratio (x) = -0.07160 0.42734
# Poissons Ratio (y) = -0.07160 0.42734
# Poissons Ratio (z) = 0.33565 0.33565
#
# Static dielectric constant tensor:
#      x y z
#    x 1.893790 0.000000 0.000000 
#    y 0.000000 1.893790 0.000000 
#    z 0.000000 0.000000 1.800600 
# 
# From -- ./inp_files/6082.got.cif
#   From: 2010.05.17/outbox.cif.g08.bks.cpg/sg133_4_cif.got.tgz:6082.got - 2010.05.20 12:37:36.
