data_PCOD9568727
_publ_section_title
;
Structure prediction by ZEFSAII (Michael W. Deem and Ramdas Pophale) SiO2 
 PCOD9568727
Probable space group: P 42/M B C
;
_chemical_formula_sum "Si O2"
_cell_formula_units_Z 80
_cell_length_a 13.682988
_cell_length_b 13.682988
_cell_length_c 17.140474
_cell_angle_alpha 90.000000
_cell_angle_beta 90.000000
_cell_angle_gamma 90.000000
_cell_volume 3209.110857
_symmetry_space_group_name_H-M "P 42/M B C"
_symmetry_group_IT_number 135
_symmetry_cell_setting 'tetragonal'
loop_
_space_group_symop_operation_xyz
x,y,z
-y,x,1/2+z
-x,-y,z
y,-x,1/2+z
1/2+x,1/2-y,-z
1/2-x,1/2+y,-z
1/2+y,1/2+x,1/2-z
1/2-y,1/2-x,1/2-z
-x,-y,-z
y,-x,1/2-z
x,y,-z
-y,x,1/2-z
1/2-x,1/2+y,z
1/2+x,1/2-y,z
1/2-y,1/2-x,1/2+z
1/2+y,1/2+x,1/2+z
loop_
_atom_site_type_symbol
_atom_site_label
_atom_site_fract_x
_atom_site_fract_y
_atom_site_fract_z
Si Si1 0.916615 0.603502 0.586225
Si Si2 0.221816 0.552100 0.818480
Si Si3 0.692926 0.282736 0.908614
Si Si4 0.251888 0.520200 0.638327
Si Si5 0.105579 0.948143 0.911006
O O1 0.960298 0.606744 0.500000
O O2 0.992759 0.627270 0.652982
O O3 0.834619 0.689523 0.591810
O O4 0.849631 0.507200 0.595554
O O5 0.228418 0.657437 0.860041
O O6 0.230678 0.550770 0.726268
O O7 0.315665 0.494460 0.853215
O O8 0.588213 0.302255 0.866924
O O9 0.691495 0.311406 0.000000
O O10 0.332204 0.588967 0.599838
O O11 0.136084 0.967377 0.000000
O O12 0.000000 0.000000 0.899789
#
# Coordination Sequence:
#
# PCOD9568727 Si02
#       5
#    16  16  16  16  16
#     4   9  19  35  50  66 101 139 170 210 256 313
#     4  12  20  30  52  78  97 134 181 210 255 316
#     4   9  18  33  49  68 102 135 169 214 257 306
#     4  10  20  32  45  70 105 133 164 214 264 294
#     4  11  20  30  47  71 104 140 171 204 256 324
#
# _framework density 24.929024999999999
#
# number of rings (size 3 to 8) (size 9 to 14) (size 15 to 20)
#    1.200    0.600    2.000    4.800    0.000    0.000 
#    0.000    0.000    0.000    0.000    0.000    1.400 
#    0.000    9.600    0.000    0.200    0.000    0.000 
#
# Total GULP energy -447274.300930 kJ/mol
# GULP energy per Si atom -5590.928762 kJ/mol
# Density = 2.487229 g / cm^3
# Si number density = 24.929025 Si / 1000 Ang^3
#
#
#
# Elastic Constant Matrix: (Units=GPa)
#
#
# Indices 1 2 3 4 5 6 
#
# 1 78.1354 43.2886 30.3432 0.0000 0.0000 0.0000
# 2 43.2886 78.1354 30.3432 0.0000 0.0000 0.0000
# 3 30.3432 30.3432 156.2006 0.0000 0.0000 0.0000
# 4 0.0000 0.0000 0.0000 -384.4026 0.0000 0.0000
# 5 0.0000 0.0000 0.0000 0.0000 -384.4026 0.0000
# 6 0.0000 0.0000 0.0000 0.0000 0.0000 59.4588
#
#
#
# Elastic Compliance Matrix: (Units=1/GPa)
#
#
# Indices 1 2 3 4 5 6 
#
# 1 0.018909 -0.009788 -0.001772 0.000000 0.000000 0.000000
# 2 -0.009788 0.018909 -0.001772 0.000000 0.000000 0.000000
# 3 -0.001772 -0.001772 0.007090 0.000000 0.000000 0.000000
# 4 0.000000 0.000000 0.000000 -0.002601 0.000000 0.000000
# 5 0.000000 0.000000 0.000000 0.000000 -0.002601 0.000000
# 6 0.000000 0.000000 0.000000 0.000000 0.000000 0.016818
#
#
# Mechanical properties :
#
#
# Convention : Reuss Voigt Hill
#
# Bulk Modulus (GPa) = 54.80863 57.82462 56.31663
# Shear Modulus (GPa) = 56.01043 -127.96952 -35.97955
#
# Velocity S-wave (km/s) = 4.74518 -7.17252 -3.80317
# Velocity P-wave (km/s) = 7.21498 6.73404 1.83148
#
# Compressibility (1/GPa) = 0.01824530
#
# Stress axis : x y z
#
# Youngs Moduli (GPa) = 52.88467 52.88467 141.03535
#
# Poissons Ratio (x) = 0.51763 0.24989
# Poissons Ratio (y) = 0.51763 0.24989
# Poissons Ratio (z) = 0.09370 0.09370
#
# Static dielectric constant tensor:
#      x y z
#    x 2.055660 0.000000 0.000000 
#    y 0.000000 2.055660 0.000000 
#    z 0.000000 0.000000 1.817060 
# 
# From -- ./inp_files/3435.got.cif
#   From: 2010.05.17/outbox.cif.g08.bks.cpg/sg135_2_cif.got.tgz:3435.got - 2010.05.20 12:50:20.
