data_PCOD9568814
_publ_section_title
;
Structure prediction by ZEFSAII (Michael W. Deem and Ramdas Pophale) SiO2 
 PCOD9568814
Probable space group: P 42/M B C
;
_chemical_formula_sum "Si O2"
_cell_formula_units_Z 116
_cell_length_a 18.196299
_cell_length_b 18.196299
_cell_length_c 16.256002
_cell_angle_alpha 90.000000
_cell_angle_beta 90.000000
_cell_angle_gamma 90.000000
_cell_volume 5382.448375
_symmetry_space_group_name_H-M "P 42/M B C"
_symmetry_group_IT_number 135
_symmetry_cell_setting 'tetragonal'
loop_
_space_group_symop_operation_xyz
x,y,z
-y,x,1/2+z
-x,-y,z
y,-x,1/2+z
1/2+x,1/2-y,-z
1/2-x,1/2+y,-z
1/2+y,1/2+x,1/2-z
1/2-y,1/2-x,1/2-z
-x,-y,-z
y,-x,1/2-z
x,y,-z
-y,x,1/2-z
1/2-x,1/2+y,z
1/2+x,1/2-y,z
1/2-y,1/2-x,1/2+z
1/2+y,1/2+x,1/2+z
loop_
_atom_site_type_symbol
_atom_site_label
_atom_site_fract_x
_atom_site_fract_y
_atom_site_fract_z
Si Si1 0.362150 0.405513 0.293704
Si Si2 0.011639 0.700260 0.597979
Si Si3 0.252457 0.989350 0.598187
Si Si4 0.147077 0.346124 0.402311
Si Si5 0.740302 0.277141 0.163912
Si Si6 0.014787 0.128582 0.363673
Si Si7 0.127831 0.657058 0.906615
Si Si8 0.500000 0.500000 0.000000
O O1 0.317085 0.466520 0.346163
O O2 0.328744 0.330094 0.328612
O O3 0.354844 0.417390 0.196621
O O4 0.447921 0.402274 0.309793
O O5 0.016394 0.689526 0.500000
O O6 0.080941 0.655267 0.633544
O O7 0.936113 0.662971 0.626468
O O8 0.008955 0.788760 0.608137
O O9 0.231644 0.993662 0.500000
O O10 0.291469 0.063818 0.628214
O O11 0.313555 0.924932 0.606083
O O12 0.149769 0.328125 0.500000
O O13 0.196276 0.289652 0.351828
O O14 0.781829 0.281829 0.250000
O O15 0.796370 0.298323 0.093459
O O16 0.022251 0.063687 0.429944
O O17 0.101816 0.642442 0.000000
#
# Coordination Sequence:
#
# PCOD9568814 Si02
#       8
#    16  16  16  16  16  16  16   4
#     4  11  25  42  66  91 133 173 220 279 332 404
#     4  10  20  38  65  93 129 171 222 275 338 402
#     4   9  21  40  64  98 135 177 226 274 337 393
#     4   9  19  38  62  91 127 170 217 275 334 400
#     4  11  22  38  60  90 123 169 219 274 338 389
#     4  12  24  45  63  96 126 175 222 275 343 406
#     4  10  21  38  62  96 130 172 227 278 325 402
#     4  12  28  46  68  92 134 170 228 274 350 414
#
# _framework density 21.55153
#
# number of rings (size 3 to 8) (size 9 to 14) (size 15 to 20)
#    0.000    1.655    2.069    2.069    2.897    1.103 
#    2.483    2.759    0.000    0.000    0.000    3.862 
#    0.000    0.000    0.000    0.000    0.000    0.000 
#
# Total GULP energy -645837.030579 kJ/mol
# GULP energy per Si atom -5567.560608 kJ/mol
# Density = 2.150248 g / cm^3
# Si number density = 21.551530 Si / 1000 Ang^3
#
#
#
# Elastic Constant Matrix: (Units=GPa)
#
#
# Indices 1 2 3 4 5 6 
#
# 1 70.7395 21.0305 12.8715 0.0000 0.0000 0.0000
# 2 21.0305 70.7395 12.8715 0.0000 0.0000 0.0000
# 3 12.8715 12.8715 49.5014 0.0000 0.0000 0.0000
# 4 0.0000 0.0000 0.0000 12.5861 0.0000 0.0000
# 5 0.0000 0.0000 0.0000 0.0000 12.5861 0.0000
# 6 0.0000 0.0000 0.0000 0.0000 0.0000 28.1436
#
#
#
# Elastic Compliance Matrix: (Units=1/GPa)
#
#
# Indices 1 2 3 4 5 6 
#
# 1 0.015936 -0.004181 -0.003056 0.000000 0.000000 0.000000
# 2 -0.004181 0.015936 -0.003056 0.000000 0.000000 0.000000
# 3 -0.003056 -0.003056 0.021791 0.000000 0.000000 0.000000
# 4 0.000000 0.000000 0.000000 0.079453 0.000000 0.000000
# 5 0.000000 0.000000 0.000000 0.000000 0.079453 0.000000
# 6 0.000000 0.000000 0.000000 0.000000 0.000000 0.035532
#
#
# Mechanical properties :
#
#
# Convention : Reuss Voigt Hill
#
# Bulk Modulus (GPa) = 30.23539 31.61415 30.92477
# Shear Modulus (GPa) = 17.87547 20.27695 19.07621
#
# Velocity S-wave (km/s) = 2.88311 3.07067 2.97836
# Velocity P-wave (km/s) = 5.01427 5.22235 5.11937
#
# Compressibility (1/GPa) = 0.03307383
#
# Stress axis : x y z
#
# Youngs Moduli (GPa) = 62.75249 62.75249 45.89075
#
# Poissons Ratio (x) = 0.26240 0.14026
# Poissons Ratio (y) = 0.26240 0.14026
# Poissons Ratio (z) = 0.19179 0.19179
#
# Static dielectric constant tensor:
#      x y z
#    x 1.789810 0.000000 0.000000 
#    y 0.000000 1.789810 0.000000 
#    z 0.000000 0.000000 1.787480 
# 
# From -- ./inp_files/4613.got.cif
#   From: 2010.05.17/outbox.cif.g08.bks.cpg/sg135_3_cif.got.tgz:4613.got - 2010.05.20 12:50:20.
