data_PCOD9568519
_publ_section_title
;
Structure prediction by ZEFSAII (Michael W. Deem and Ramdas Pophale) SiO2 
 PCOD9568519
Probable space group: P 42/N N M
;
_chemical_formula_sum "Si O2"
_cell_formula_units_Z 88
_cell_length_a 12.354350
_cell_length_b 12.354350
_cell_length_c 29.697384
_cell_angle_alpha 90.000000
_cell_angle_beta 90.000000
_cell_angle_gamma 90.000000
_cell_volume 4532.710649
_symmetry_space_group_name_H-M "P 42/N N M"
_symmetry_group_IT_number 134
_space_group.IT_coordinate_system_code '2'
_symmetry_cell_setting 'tetragonal'
loop_
_space_group_symop_operation_xyz
x,y,z
1/2-y,x,1/2+z
1/2-x,1/2-y,z
y,1/2-x,1/2+z
x,1/2-y,1/2-z
1/2-x,y,1/2-z
y,x,-z
1/2-y,1/2-x,-z
-x,-y,-z
1/2+y,-x,1/2-z
1/2+x,1/2+y,-z
-y,1/2+x,1/2-z
-x,1/2+y,1/2+z
1/2+x,-y,1/2+z
-y,-x,z
1/2+y,1/2+x,z
loop_
_atom_site_type_symbol
_atom_site_label
_atom_site_fract_x
_atom_site_fract_y
_atom_site_fract_z
Si Si1 0.913150 0.769674 0.801651
Si Si2 0.470830 0.344305 0.568230
Si Si3 0.840591 0.159410 0.078650
Si Si4 0.840447 0.159554 0.185595
Si Si5 0.779691 0.579456 0.833652
Si Si6 0.805110 0.008254 0.469684
Si Si7 0.750000 0.425180 0.750000
O O1 0.879406 0.750000 0.750000
O O2 0.883238 0.659216 0.827617
O O3 0.831688 0.856363 0.823554
O O4 0.038269 0.805529 0.800521
O O5 0.564971 0.435030 0.572664
O O6 0.463110 0.283328 0.615452
O O7 0.359999 0.406577 0.554863
O O8 0.493361 0.278852 0.522310
O O9 0.750000 0.250000 0.067027
O O10 0.845006 0.154995 0.131751
O O11 0.796776 0.050051 0.057562
O O12 0.750000 0.250000 0.198288
O O13 0.785442 0.493807 0.793259
O O14 0.901099 0.098902 0.468846
O O15 0.848981 0.348981 0.735898
#
# Coordination Sequence:
#
# PCOD9568519 Si02
#       7
#    16  16   8   8  16  16   8
#     4  11  24  41  61  87 119 162 207 251 315 384
#     4   9  17  31  56  87 112 155 205 251 294 359
#     4   9  16  32  53  83 119 148 177 241 312 364
#     4  11  26  40  65  99 122 152 207 266 324 383
#     4  11  21  41  62  83 121 167 208 243 310 372
#     4   8  15  29  52  84 122 151 193 247 308 360
#     4  11  24  39  58  88 118 157 208 257 294 352
#
# _framework density 19.414432000000001
#
# number of rings (size 3 to 8) (size 9 to 14) (size 15 to 20)
#    0.000    2.091    1.818    3.273    2.545    2.909 
#    1.636    0.000    0.000   19.636    0.000    0.000 
#    0.000    0.000    0.000    0.000    0.000    0.000 
#
# Total GULP energy -490698.303617 kJ/mol
# GULP energy per Si atom -5576.117087 kJ/mol
# Density = 1.937024 g / cm^3
# Si number density = 19.414432 Si / 1000 Ang^3
#
#
#
# Elastic Constant Matrix: (Units=GPa)
#
#
# Indices 1 2 3 4 5 6 
#
# 1 70.4456 29.9244 26.1062 0.0000 0.0000 0.0000
# 2 29.9244 70.4456 26.1062 0.0000 0.0000 0.0000
# 3 26.1062 26.1062 141.7526 0.0000 0.0000 0.0000
# 4 0.0000 0.0000 0.0000 27.7684 0.0000 0.0000
# 5 0.0000 0.0000 0.0000 0.0000 27.7684 0.0000
# 6 0.0000 0.0000 0.0000 0.0000 0.0000 10.3744
#
#
#
# Elastic Compliance Matrix: (Units=1/GPa)
#
#
# Indices 1 2 3 4 5 6 
#
# 1 0.017849 -0.006830 -0.002029 0.000000 0.000000 0.000000
# 2 -0.006830 0.017849 -0.002029 0.000000 0.000000 0.000000
# 3 -0.002029 -0.002029 0.007802 0.000000 0.000000 0.000000
# 4 0.000000 0.000000 0.000000 0.036012 0.000000 0.000000
# 5 0.000000 0.000000 0.000000 0.000000 0.036012 0.000000
# 6 0.000000 0.000000 0.000000 0.000000 0.000000 0.096391
#
#
# Mechanical properties :
#
#
# Convention : Reuss Voigt Hill
#
# Bulk Modulus (GPa) = 46.03553 49.65751 47.84652
# Shear Modulus (GPa) = 20.75274 26.54938 23.65106
#
# Velocity S-wave (km/s) = 3.27300 3.70199 3.49409
# Velocity P-wave (km/s) = 6.16822 6.62617 6.40129
#
# Compressibility (1/GPa) = 0.02172235
#
# Stress axis : x y z
#
# Youngs Moduli (GPa) = 56.02675 56.02675 128.17215
#
# Poissons Ratio (x) = 0.38265 0.26010
# Poissons Ratio (y) = 0.38265 0.26010
# Poissons Ratio (z) = 0.11370 0.11370
#
# Static dielectric constant tensor:
#      x y z
#    x 1.640250 0.000000 0.000000 
#    y 0.000000 1.640250 0.000000 
#    z 0.000000 0.000000 1.665800 
# 
# From -- ./inp_files/11487.got.cif
#   From: 2010.05.17/outbox.cif.g08.bks.cpg/sg134_6_cif.got.tgz:11487.got - 2010.05.20 12:42:49.
