data_PCOD9568197
_publ_section_title
;
Structure prediction by ZEFSAII (Michael W. Deem and Ramdas Pophale) SiO2 
 PCOD9568197
Probable space group: P 42/N N M
;
_chemical_formula_sum "Si O2"
_cell_formula_units_Z 80
_cell_length_a 13.539292
_cell_length_b 13.539292
_cell_length_c 22.915032
_cell_angle_alpha 90.000000
_cell_angle_beta 90.000000
_cell_angle_gamma 90.000000
_cell_volume 4200.610150
_symmetry_space_group_name_H-M "P 42/N N M"
_symmetry_group_IT_number 134
_space_group.IT_coordinate_system_code '2'
_symmetry_cell_setting 'tetragonal'
loop_
_space_group_symop_operation_xyz
x,y,z
1/2-y,x,1/2+z
1/2-x,1/2-y,z
y,1/2-x,1/2+z
x,1/2-y,1/2-z
1/2-x,y,1/2-z
y,x,-z
1/2-y,1/2-x,-z
-x,-y,-z
1/2+y,-x,1/2-z
1/2+x,1/2+y,-z
-y,1/2+x,1/2-z
-x,1/2+y,1/2+z
1/2+x,-y,1/2+z
-y,-x,z
1/2+y,1/2+x,z
loop_
_atom_site_type_symbol
_atom_site_label
_atom_site_fract_x
_atom_site_fract_y
_atom_site_fract_z
Si Si1 0.043634 0.797395 0.916601
Si Si2 0.116750 0.038212 0.115243
Si Si3 0.829046 0.494795 0.198325
Si Si4 0.635386 0.525810 0.748563
Si Si5 0.746056 0.588630 0.517160
O O1 0.150458 0.849543 0.915470
O O2 0.025455 0.722393 0.863431
O O3 0.963835 0.884798 0.908206
O O4 0.009556 0.751978 0.977851
O O5 0.114734 0.055078 0.184358
O O6 0.220265 0.058913 0.082720
O O7 0.070547 0.929454 0.103481
O O8 0.750000 0.487716 0.250000
O O9 0.911863 0.411863 0.208486
O O10 0.886265 0.598764 0.206432
O O11 0.750000 0.504174 0.750000
O O12 0.569783 0.430218 0.734587
O O13 0.645475 0.645475 0.500000
O O14 0.830919 0.669082 0.500000
#
# Coordination Sequence:
#
# PCOD9568197 Si02
#       5
#    16  16  16  16  16
#     4  10  19  33  52  77 112 152 191 232 287 351
#     4   9  17  33  53  77 109 144 185 236 287 337
#     4  11  22  37  55  83 118 152 191 235 284 349
#     4  10  22  38  58  84 114 148 191 239 291 349
#     4   9  18  30  49  79 111 143 188 239 287 341
#
# _framework density 19.044851999999999
#
# number of rings (size 3 to 8) (size 9 to 14) (size 15 to 20)
#    0.000    2.200    2.000    1.200    2.800    4.400 
#    0.000    0.000    0.000    1.800    0.000    2.800 
#    0.000    0.000    0.000    0.000    0.000    0.000 
#
# Total GULP energy -445476.910327 kJ/mol
# GULP energy per Si atom -5568.461379 kJ/mol
# Density = 1.900150 g / cm^3
# Si number density = 19.044852 Si / 1000 Ang^3
#
#
#
# Elastic Constant Matrix: (Units=GPa)
#
#
# Indices 1 2 3 4 5 6 
#
# 1 74.3772 34.7992 20.9602 0.0000 0.0000 0.0000
# 2 34.7992 74.3770 20.9600 0.0000 0.0000 0.0000
# 3 20.9602 20.9600 34.1761 0.0000 0.0000 0.0000
# 4 0.0000 0.0000 0.0000 10.0245 0.0000 0.0000
# 5 0.0000 0.0000 0.0000 0.0000 10.0244 0.0000
# 6 0.0000 0.0000 0.0000 0.0000 0.0000 3.8570
#
#
#
# Elastic Compliance Matrix: (Units=1/GPa)
#
#
# Indices 1 2 3 4 5 6 
#
# 1 0.018624 -0.006643 -0.007348 0.000000 0.000000 0.000000
# 2 -0.006643 0.018624 -0.007348 0.000000 0.000000 0.000000
# 3 -0.007348 -0.007348 0.038273 0.000000 0.000000 0.000000
# 4 0.000000 0.000000 0.000000 0.099755 0.000000 0.000000
# 5 0.000000 0.000000 0.000000 0.000000 0.099757 0.000000
# 6 0.000000 0.000000 0.000000 0.000000 0.000000 0.259270
#
#
# Mechanical properties :
#
#
# Convention : Reuss Voigt Hill
#
# Bulk Modulus (GPa) = 30.44749 37.37435 33.91092
# Shear Modulus (GPa) = 8.50445 11.86191 10.18318
#
# Velocity S-wave (km/s) = 2.11546 2.49838 2.31485
# Velocity P-wave (km/s) = 4.68923 5.29052 4.99892
#
# Compressibility (1/GPa) = 0.03284343
#
# Stress axis : x y z
#
# Youngs Moduli (GPa) = 53.69498 53.69500 26.12802
#
# Poissons Ratio (x) = 0.35669 0.19199
# Poissons Ratio (y) = 0.35669 0.19198
# Poissons Ratio (z) = 0.39454 0.39454
#
# Static dielectric constant tensor:
#      x y z
#    x 1.708500 0.000000 0.000000 
#    y 0.000000 1.708500 0.000000 
#    z 0.000000 0.000000 1.695810 
# 
# From -- ./inp_files/8881.got.cif
#   From: 2010.05.17/outbox.cif.g08.bks.cpg/sg134_5_cif.got.tgz:8881.got - 2010.05.20 12:42:49.
