data_PCOD9568135
_publ_section_title
;
Structure prediction by ZEFSAII (Michael W. Deem and Ramdas Pophale) SiO2 
 PCOD9568135
Probable space group: P 42/N N M
;
_chemical_formula_sum "Si O2"
_cell_formula_units_Z 96
_cell_length_a 21.143398
_cell_length_b 21.143398
_cell_length_c 11.715444
_cell_angle_alpha 90.000000
_cell_angle_beta 90.000000
_cell_angle_gamma 90.000000
_cell_volume 5237.310501
_symmetry_space_group_name_H-M "P 42/N N M"
_symmetry_group_IT_number 134
_space_group.IT_coordinate_system_code '2'
_symmetry_cell_setting 'tetragonal'
loop_
_space_group_symop_operation_xyz
x,y,z
1/2-y,x,1/2+z
1/2-x,1/2-y,z
y,1/2-x,1/2+z
x,1/2-y,1/2-z
1/2-x,y,1/2-z
y,x,-z
1/2-y,1/2-x,-z
-x,-y,-z
1/2+y,-x,1/2-z
1/2+x,1/2+y,-z
-y,1/2+x,1/2-z
-x,1/2+y,1/2+z
1/2+x,-y,1/2+z
-y,-x,z
1/2+y,1/2+x,z
loop_
_atom_site_type_symbol
_atom_site_label
_atom_site_fract_x
_atom_site_fract_y
_atom_site_fract_z
Si Si1 0.094160 0.005087 0.124395
Si Si2 0.814785 0.665320 0.306750
Si Si3 0.710517 0.916063 0.531789
Si Si4 0.178946 0.581806 0.208712
Si Si5 0.490610 0.342183 0.517724
Si Si6 0.071101 0.404606 0.180382
O O1 0.043528 0.956473 0.070574
O O2 0.137058 0.963183 0.209831
O O3 0.146326 0.042837 0.050539
O O4 0.057665 0.055682 0.204949
O O5 0.750000 0.687022 0.250000
O O6 0.796237 0.621780 0.414681
O O7 0.865212 0.713127 0.364252
O O8 0.851753 0.621681 0.217125
O O9 0.774131 0.956547 0.526663
O O10 0.250000 0.575369 0.250000
O O11 0.151667 0.651667 0.220644
O O12 0.167748 0.557041 0.080248
O O13 0.451989 0.391872 0.596005
O O14 0.484634 0.371161 0.390929
#
# Coordination Sequence:
#
# PCOD9568135 Si02
#       6
#    16  16  16  16  16  16
#     4   9  18  32  51  76 101 129 170 213 260 311
#     4  10  19  32  48  72  99 130 173 215 255 301
#     4  10  19  32  53  71  96 139 175 210 264 311
#     4  10  19  31  50  75 100 130 164 206 254 309
#     4  10  18  33  51  69  97 137 173 202 255 315
#     4   9  19  31  50  70  97 134 167 210 256 301
#
# _framework density 18.330019
#
# number of rings (size 3 to 8) (size 9 to 14) (size 15 to 20)
#    0.000    2.333    3.333    0.000    0.000    0.833 
#    0.000   11.667    0.000    0.000    0.000    0.000 
#    0.000    0.000    0.000    0.000    0.333    0.000 
#
# Total GULP energy -535175.547520 kJ/mol
# GULP energy per Si atom -5574.745287 kJ/mol
# Density = 1.828830 g / cm^3
# Si number density = 18.330019 Si / 1000 Ang^3
#
#
#
# Elastic Constant Matrix: (Units=GPa)
#
#
# Indices 1 2 3 4 5 6 
#
# 1 63.5430 42.3957 18.9836 0.0000 0.0000 0.0000
# 2 42.3957 63.5430 18.9836 0.0000 0.0000 0.0000
# 3 18.9836 18.9836 53.4139 0.0000 0.0000 0.0000
# 4 0.0000 0.0000 0.0000 14.0256 0.0000 0.0000
# 5 0.0000 0.0000 0.0000 0.0000 14.0256 0.0000
# 6 0.0000 0.0000 0.0000 0.0000 0.0000 17.0072
#
#
#
# Elastic Compliance Matrix: (Units=1/GPa)
#
#
# Indices 1 2 3 4 5 6 
#
# 1 0.029052 -0.018235 -0.003844 0.000000 0.000000 0.000000
# 2 -0.018235 0.029052 -0.003844 0.000000 0.000000 0.000000
# 3 -0.003844 -0.003844 0.021454 0.000000 0.000000 0.000000
# 4 0.000000 0.000000 0.000000 0.071298 0.000000 0.000000
# 5 0.000000 0.000000 0.000000 0.000000 0.071298 0.000000
# 6 0.000000 0.000000 0.000000 0.000000 0.000000 0.058799
#
#
# Mechanical properties :
#
#
# Convention : Reuss Voigt Hill
#
# Bulk Modulus (GPa) = 36.08689 37.91396 37.00042
# Shear Modulus (GPa) = 14.61820 15.68748 15.15284
#
# Velocity S-wave (km/s) = 2.82707 2.92864 2.87830
# Velocity P-wave (km/s) = 5.51239 5.67141 5.59247
#
# Compressibility (1/GPa) = 0.02771090
#
# Stress axis : x y z
#
# Youngs Moduli (GPa) = 34.42073 34.42073 46.61045
#
# Poissons Ratio (x) = 0.62766 0.17919
# Poissons Ratio (y) = 0.62766 0.17919
# Poissons Ratio (z) = 0.13233 0.13233
#
# Static dielectric constant tensor:
#      x y z
#    x 1.637830 0.000000 0.000000 
#    y 0.000000 1.637830 0.000000 
#    z 0.000000 0.000000 1.658620 
# 
# From -- ./inp_files/5087.got.cif
#   From: 2010.05.17/outbox.cif.g08.bks.cpg/sg134_3_cif.got.tgz:5087.got - 2010.05.20 12:42:49.
