data_PCOD9568776
_publ_section_title
;
Structure prediction by ZEFSAII (Michael W. Deem and Ramdas Pophale) SiO2 
 PCOD9568776
Probable space group: P 42/M B C
;
_chemical_formula_sum "Si O2"
_cell_formula_units_Z 80
_cell_length_a 17.962415
_cell_length_b 17.962415
_cell_length_c 13.801107
_cell_angle_alpha 90.000000
_cell_angle_beta 90.000000
_cell_angle_gamma 90.000000
_cell_volume 4452.904438
_symmetry_space_group_name_H-M "P 42/M B C"
_symmetry_group_IT_number 135
_symmetry_cell_setting 'tetragonal'
loop_
_space_group_symop_operation_xyz
x,y,z
-y,x,1/2+z
-x,-y,z
y,-x,1/2+z
1/2+x,1/2-y,-z
1/2-x,1/2+y,-z
1/2+y,1/2+x,1/2-z
1/2-y,1/2-x,1/2-z
-x,-y,-z
y,-x,1/2-z
x,y,-z
-y,x,1/2-z
1/2-x,1/2+y,z
1/2+x,1/2-y,z
1/2-y,1/2-x,1/2+z
1/2+y,1/2+x,1/2+z
loop_
_atom_site_type_symbol
_atom_site_label
_atom_site_fract_x
_atom_site_fract_y
_atom_site_fract_z
Si Si1 0.880572 0.020741 0.739970
Si Si2 0.985338 0.362885 0.236597
Si Si3 0.367853 0.900599 0.886567
Si Si4 0.123903 0.205957 0.612236
Si Si5 0.270726 0.567614 0.387892
O O1 0.825894 0.061509 0.815273
O O2 0.947328 0.078422 0.717037
O O3 0.832991 0.991206 0.649218
O O4 0.935770 0.435770 0.250000
O O5 0.940041 0.297946 0.184925
O O6 0.018950 0.346915 0.342347
O O7 0.058386 0.374408 0.169049
O O8 0.291757 0.855208 0.867634
O O9 0.382764 0.902373 0.000000
O O10 0.097573 0.203611 0.500000
O O11 0.192168 0.148813 0.619311
O O12 0.250496 0.553579 0.500000
#
# Coordination Sequence:
#
# PCOD9568776 Si02
#       5
#    16  16  16  16  16
#     4   9  17  31  53  83 116 150 190 234 283 340
#     4  11  23  38  56  85 114 145 190 234 281 337
#     4  10  20  37  60  82 108 146 191 235 279 331
#     4   9  18  34  57  83 115 151 188 233 286 338
#     4  10  20  36  56  83 118 152 186 232 288 343
#
# _framework density 17.965802
#
# number of rings (size 3 to 8) (size 9 to 14) (size 15 to 20)
#    0.000    2.200    2.000    1.800    0.000    3.200 
#    3.600    4.000    0.000    0.000    0.000    0.000 
#    0.000    0.000    0.000    0.000    0.000    0.000 
#
# Total GULP energy -445584.504260 kJ/mol
# GULP energy per Si atom -5569.806303 kJ/mol
# Density = 1.792491 g / cm^3
# Si number density = 17.965802 Si / 1000 Ang^3
#
#
#
# Elastic Constant Matrix: (Units=GPa)
#
#
# Indices 1 2 3 4 5 6 
#
# 1 74.6877 23.1249 22.7104 0.0000 0.0000 0.0000
# 2 23.1249 74.6877 22.7104 0.0000 0.0000 0.0000
# 3 22.7104 22.7104 55.8542 0.0000 0.0000 0.0000
# 4 0.0000 0.0000 0.0000 21.4483 0.0000 0.0000
# 5 0.0000 0.0000 0.0000 0.0000 21.4483 0.0000
# 6 0.0000 0.0000 0.0000 0.0000 0.0000 16.1716
#
#
#
# Elastic Compliance Matrix: (Units=1/GPa)
#
#
# Indices 1 2 3 4 5 6 
#
# 1 0.015999 -0.003395 -0.005125 0.000000 0.000000 0.000000
# 2 -0.003395 0.015999 -0.005125 0.000000 0.000000 0.000000
# 3 -0.005125 -0.005125 0.022071 0.000000 0.000000 0.000000
# 4 0.000000 0.000000 0.000000 0.046624 0.000000 0.000000
# 5 0.000000 0.000000 0.000000 0.000000 0.046624 0.000000
# 6 0.000000 0.000000 0.000000 0.000000 0.000000 0.061837
#
#
# Mechanical properties :
#
#
# Convention : Reuss Voigt Hill
#
# Bulk Modulus (GPa) = 37.34194 38.03566 37.68880
# Shear Modulus (GPa) = 20.37758 20.92589 20.65173
#
# Velocity S-wave (km/s) = 3.37151 3.41656 3.39411
# Velocity P-wave (km/s) = 5.99885 6.06473 6.03188
#
# Compressibility (1/GPa) = 0.02677954
#
# Stress axis : x y z
#
# Youngs Moduli (GPa) = 62.50562 62.50562 45.30827
#
# Poissons Ratio (x) = 0.21222 0.23218
# Poissons Ratio (y) = 0.21222 0.23218
# Poissons Ratio (z) = 0.32031 0.32031
#
# Static dielectric constant tensor:
#      x y z
#    x 1.641600 0.000000 0.000000 
#    y 0.000000 1.641600 0.000000 
#    z 0.000000 0.000000 1.614140 
# 
# From -- ./inp_files/3363.got.cif
#   From: 2010.05.17/outbox.cif.g08.bks.cpg/sg135_2_cif.got.tgz:3363.got - 2010.05.20 12:50:20.
