data_PCOD9568394
_publ_section_title
;
Structure prediction by ZEFSAII (Michael W. Deem and Ramdas Pophale) SiO2 
 PCOD9568394
Probable space group: P 42/N N M
;
_chemical_formula_sum "Si O2"
_cell_formula_units_Z 88
_cell_length_a 15.140221
_cell_length_b 15.140221
_cell_length_c 20.639792
_cell_angle_alpha 90.000000
_cell_angle_beta 90.000000
_cell_angle_gamma 90.000000
_cell_volume 4731.182986
_symmetry_space_group_name_H-M "P 42/N N M"
_symmetry_group_IT_number 134
_space_group.IT_coordinate_system_code '2'
_symmetry_cell_setting 'tetragonal'
loop_
_space_group_symop_operation_xyz
x,y,z
1/2-y,x,1/2+z
1/2-x,1/2-y,z
y,1/2-x,1/2+z
x,1/2-y,1/2-z
1/2-x,y,1/2-z
y,x,-z
1/2-y,1/2-x,-z
-x,-y,-z
1/2+y,-x,1/2-z
1/2+x,1/2+y,-z
-y,1/2+x,1/2-z
-x,1/2+y,1/2+z
1/2+x,-y,1/2+z
-y,-x,z
1/2+y,1/2+x,z
loop_
_atom_site_type_symbol
_atom_site_label
_atom_site_fract_x
_atom_site_fract_y
_atom_site_fract_z
Si Si1 0.840153 0.931795 0.289385
Si Si2 0.039963 0.678173 0.917304
Si Si3 0.384951 0.384951 0.500000
Si Si4 0.990232 0.870183 0.961518
Si Si5 0.913596 0.950811 0.834996
Si Si6 0.265534 0.356380 0.380047
O O1 0.750000 0.915862 0.250000
O O2 0.914558 0.941041 0.235043
O O3 0.865472 0.845956 0.330425
O O4 0.823065 0.008544 0.342208
O O5 0.136525 0.636525 0.922642
O O6 0.023745 0.771298 0.952779
O O7 0.970029 0.617160 0.954938
O O8 0.301370 0.381847 0.451167
O O9 0.969603 0.898556 0.888451
O O10 0.901695 0.901695 0.000000
O O11 0.068208 0.931793 0.989282
O O12 0.814862 0.917260 0.853973
O O13 0.947420 0.052581 0.840276
O O14 0.250000 0.250000 0.381784
#
# Coordination Sequence:
#
# PCOD9568394 Si02
#       6
#    16  16   8  16  16  16
#     4  11  20  35  55  83 116 153 198 243 298 352
#     4  11  22  37  58  83 119 155 192 242 302 361
#     4  10  22  36  54  82 115 148 193 242 303 356
#     4  10  21  37  57  80 111 150 197 247 293 349
#     4  11  21  34  53  82 119 152 191 245 302 358
#     4  11  20  33  59  85 115 153 201 251 298 359
#
# _framework density 18.600000000000001
#
# number of rings (size 3 to 8) (size 9 to 14) (size 15 to 20)
#    0.000    1.273    3.636    3.818    0.000    0.364 
#    0.000    0.000    0.000    0.000    0.000    0.000 
#    0.000   48.727    0.000    0.000    0.000    0.182 
#
# Total GULP energy -490135.266462 kJ/mol
# GULP energy per Si atom -5569.718937 kJ/mol
# Density = 1.855767 g / cm^3
# Si number density = 18.600000 Si / 1000 Ang^3
#
#
#
# Elastic Constant Matrix: (Units=GPa)
#
#
# Indices 1 2 3 4 5 6 
#
# 1 90.1157 65.0666 32.5614 0.0000 0.0000 0.0000
# 2 65.0666 90.1157 32.5614 0.0000 0.0000 0.0000
# 3 32.5614 32.5614 113.6168 0.0000 0.0000 0.0000
# 4 0.0000 0.0000 0.0000 11.3212 0.0000 0.0000
# 5 0.0000 0.0000 0.0000 0.0000 11.3212 0.0000
# 6 0.0000 0.0000 0.0000 0.0000 0.0000 30.6634
#
#
#
# Elastic Compliance Matrix: (Units=1/GPa)
#
#
# Indices 1 2 3 4 5 6 
#
# 1 0.023623 -0.016298 -0.002099 0.000000 0.000000 0.000000
# 2 -0.016298 0.023623 -0.002099 0.000000 0.000000 0.000000
# 3 -0.002099 -0.002099 0.010005 0.000000 0.000000 0.000000
# 4 0.000000 0.000000 0.000000 0.088330 0.000000 0.000000
# 5 0.000000 0.000000 0.000000 0.000000 0.088330 0.000000
# 6 0.000000 0.000000 0.000000 0.000000 0.000000 0.032612
#
#
# Mechanical properties :
#
#
# Convention : Reuss Voigt Hill
#
# Bulk Modulus (GPa) = 61.50931 61.58076 61.54503
# Shear Modulus (GPa) = 15.97770 21.57175 18.77472
#
# Velocity S-wave (km/s) = 2.93408 3.40924 3.18054
# Velocity P-wave (km/s) = 6.67980 6.97689 6.82996
#
# Compressibility (1/GPa) = 0.01625770
#
# Stress axis : x y z
#
# Youngs Moduli (GPa) = 42.33112 42.33112 99.95237
#
# Poissons Ratio (x) = 0.68992 0.20983
# Poissons Ratio (y) = 0.68992 0.20983
# Poissons Ratio (z) = 0.08886 0.08886
#
# Static dielectric constant tensor:
#      x y z
#    x 1.689800 0.000000 0.000000 
#    y 0.000000 1.689800 0.000000 
#    z 0.000000 0.000000 1.658110 
# 
# From -- ./inp_files/9008.got.cif
#   From: 2010.05.17/outbox.cif.g08.bks.cpg/sg134_5_cif.got.tgz:9008.got - 2010.05.20 12:42:49.
