data_PCOD9568226
_publ_section_title
;
Structure prediction by ZEFSAII (Michael W. Deem and Ramdas Pophale) SiO2 
 PCOD9568226
Probable space group: P 42/N N M
;
_chemical_formula_sum "Si O2"
_cell_formula_units_Z 72
_cell_length_a 13.993376
_cell_length_b 13.993376
_cell_length_c 19.499700
_cell_angle_alpha 90.000000
_cell_angle_beta 90.000000
_cell_angle_gamma 90.000000
_cell_volume 3818.325407
_symmetry_space_group_name_H-M "P 42/N N M"
_symmetry_group_IT_number 134
_space_group.IT_coordinate_system_code '2'
_symmetry_cell_setting 'tetragonal'
loop_
_space_group_symop_operation_xyz
x,y,z
1/2-y,x,1/2+z
1/2-x,1/2-y,z
y,1/2-x,1/2+z
x,1/2-y,1/2-z
1/2-x,y,1/2-z
y,x,-z
1/2-y,1/2-x,-z
-x,-y,-z
1/2+y,-x,1/2-z
1/2+x,1/2+y,-z
-y,1/2+x,1/2-z
-x,1/2+y,1/2+z
1/2+x,-y,1/2+z
-y,-x,z
1/2+y,1/2+x,z
loop_
_atom_site_type_symbol
_atom_site_label
_atom_site_fract_x
_atom_site_fract_y
_atom_site_fract_z
Si Si1 0.024471 0.365739 0.833743
Si Si2 0.202792 0.144631 0.573641
Si Si3 0.998535 0.349671 0.671285
Si Si4 0.093294 0.750000 0.750000
Si Si5 0.499850 0.349007 0.117809
O O1 0.946469 0.446469 0.851431
O O2 0.126566 0.382350 0.868113
O O3 0.028221 0.358871 0.751242
O O4 0.998571 0.257785 0.854885
O O5 0.250000 0.250000 0.588746
O O6 0.154723 0.154723 0.500000
O O7 0.277012 0.057522 0.570042
O O8 0.072213 0.419380 0.634309
O O9 0.893970 0.393970 0.665625
O O10 0.163829 0.836172 0.726161
O O11 0.032247 0.793742 0.812559
O O12 0.593118 0.406883 0.092457
#
# Coordination Sequence:
#
# PCOD9568226 Si02
#       5
#    16  16  16   8  16
#     4  10  20  35  56  82 112 147 183 227 282 336
#     4  11  23  39  55  79 114 150 196 240 274 323
#     4   9  18  33  55  86 114 139 180 227 282 347
#     4   9  18  32  55  90 126 152 181 230 287 342
#     4  10  19  35  58  83 112 148 185 228 286 341
#
# _framework density 18.856434
#
# number of rings (size 3 to 8) (size 9 to 14) (size 15 to 20)
#    0.000    2.111    2.222    1.333    0.000    3.556 
#    0.000    5.556    0.000    0.000    0.000    0.000 
#    0.000    0.000    0.000    0.000    0.000    0.000 
#
# Total GULP energy -401280.744640 kJ/mol
# GULP energy per Si atom -5573.343676 kJ/mol
# Density = 1.881352 g / cm^3
# Si number density = 18.856434 Si / 1000 Ang^3
#
#
#
# Elastic Constant Matrix: (Units=GPa)
#
#
# Indices 1 2 3 4 5 6 
#
# 1 90.1921 40.7691 19.1249 0.0000 0.0000 0.0000
# 2 40.7691 90.1921 19.1249 0.0000 0.0000 0.0000
# 3 19.1249 19.1249 7.5202 0.0000 0.0000 0.0000
# 4 0.0000 0.0000 0.0000 14.3353 0.0000 0.0000
# 5 0.0000 0.0000 0.0000 0.0000 14.3353 0.0000
# 6 0.0000 0.0000 0.0000 0.0000 0.0000 39.3964
#
#
#
# Elastic Compliance Matrix: (Units=1/GPa)
#
#
# Indices 1 2 3 4 5 6 
#
# 1 0.024959 0.004726 -0.075491 0.000000 0.000000 0.000000
# 2 0.004726 0.024959 -0.075491 0.000000 0.000000 0.000000
# 3 -0.075491 -0.075491 0.516942 0.000000 0.000000 0.000000
# 4 0.000000 0.000000 0.000000 0.069758 0.000000 0.000000
# 5 0.000000 0.000000 0.000000 0.000000 0.069758 0.000000
# 6 0.000000 0.000000 0.000000 0.000000 0.000000 0.025383
#
#
# Mechanical properties :
#
#
# Convention : Reuss Voigt Hill
#
# Bulk Modulus (GPa) = 3.64504 38.43800 21.04152
# Shear Modulus (GPa) = 4.48141 20.87246 12.67693
#
# Velocity S-wave (km/s) = 1.54329 3.33064 2.59566
# Velocity P-wave (km/s) = 2.26118 5.93462 4.49069
#
# Compressibility (1/GPa) = 0.27434547
#
# Stress axis : x y z
#
# Youngs Moduli (GPa) = 40.06566 40.06566 1.93445
#
# Poissons Ratio (x) = -0.18933 0.14603
# Poissons Ratio (y) = -0.18933 0.14603
# Poissons Ratio (z) = 3.02461 3.02461
#
# Static dielectric constant tensor:
#      x y z
#    x 1.676880 0.000000 0.000000 
#    y 0.000000 1.676880 0.000000 
#    z 0.000000 0.000000 1.608800 
# 
# From -- ./inp_files/7603.got.cif
#   From: 2010.05.17/outbox.cif.g08.bks.cpg/sg134_4_cif.got.tgz:7603.got - 2010.05.20 12:42:49.
