data_PCOD9568450
_publ_section_title
;
Structure prediction by ZEFSAII (Michael W. Deem and Ramdas Pophale) SiO2 
 PCOD9568450
Probable space group: P 42/N N M
;
_chemical_formula_sum "Si O2"
_cell_formula_units_Z 80
_cell_length_a 11.248515
_cell_length_b 11.248515
_cell_length_c 31.297674
_cell_angle_alpha 90.000000
_cell_angle_beta 90.000000
_cell_angle_gamma 90.000000
_cell_volume 3960.066201
_symmetry_space_group_name_H-M "P 42/N N M"
_symmetry_group_IT_number 134
_space_group.IT_coordinate_system_code '2'
_symmetry_cell_setting 'tetragonal'
loop_
_space_group_symop_operation_xyz
x,y,z
1/2-y,x,1/2+z
1/2-x,1/2-y,z
y,1/2-x,1/2+z
x,1/2-y,1/2-z
1/2-x,y,1/2-z
y,x,-z
1/2-y,1/2-x,-z
-x,-y,-z
1/2+y,-x,1/2-z
1/2+x,1/2+y,-z
-y,1/2+x,1/2-z
-x,1/2+y,1/2+z
1/2+x,-y,1/2+z
-y,-x,z
1/2+y,1/2+x,z
loop_
_atom_site_type_symbol
_atom_site_label
_atom_site_fract_x
_atom_site_fract_y
_atom_site_fract_z
Si Si1 0.429780 0.390112 0.752790
Si Si2 0.569988 0.866918 0.908806
Si Si3 0.893885 0.748710 0.821613
Si Si4 0.746171 0.059826 0.578322
Si Si5 0.000172 0.809100 0.983592
O O1 0.425969 0.250000 0.750000
O O2 0.559766 0.440235 0.749562
O O3 0.352249 0.431753 0.712420
O O4 0.369077 0.427825 0.797228
O O5 0.557223 0.783295 0.867659
O O6 0.550072 0.786578 0.950608
O O7 0.470074 0.970074 0.909002
O O8 0.698770 0.934277 0.906400
O O9 0.750000 0.750000 0.824384
O O10 0.840811 0.159190 0.592482
O O11 0.615413 0.115413 0.589155
O O12 0.749244 0.050009 0.526881
O O13 0.105226 0.894775 0.965694
O O14 0.895764 0.895764 0.000000
#
# Coordination Sequence:
#
# PCOD9568450 Si02
#       5
#    16  16  16  16  16
#     4   9  18  37  61  86 119 154 188 232 290 350
#     4  11  22  35  58  88 114 151 200 250 302 357
#     4   9  20  36  57  85 116 154 193 234 284 347
#     4   9  19  36  54  75 110 152 192 241 301 359
#     4  10  22  37  53  77 110 152 200 250 300 357
#
# _framework density 20.201682000000002
#
# number of rings (size 3 to 8) (size 9 to 14) (size 15 to 20)
#    0.000    2.400    0.000    3.000    2.800    4.600 
#    0.000    4.000    0.000   14.400    0.000    0.000 
#    0.000    0.000    0.000    0.000    0.000    0.000 
#
# Total GULP energy -445857.064224 kJ/mol
# GULP energy per Si atom -5573.213303 kJ/mol
# Density = 2.015570 g / cm^3
# Si number density = 20.201682 Si / 1000 Ang^3
#
#
#
# Elastic Constant Matrix: (Units=GPa)
#
#
# Indices 1 2 3 4 5 6 
#
# 1 52.3953 28.4179 16.3447 0.0000 0.0000 0.0000
# 2 28.4179 52.3953 16.3447 0.0000 0.0000 0.0000
# 3 16.3447 16.3447 63.8683 0.0000 0.0000 0.0000
# 4 0.0000 0.0000 0.0000 3.3594 0.0000 0.0000
# 5 0.0000 0.0000 0.0000 0.0000 3.3594 0.0000
# 6 0.0000 0.0000 0.0000 0.0000 0.0000 4.5395
#
#
#
# Elastic Compliance Matrix: (Units=1/GPa)
#
#
# Indices 1 2 3 4 5 6 
#
# 1 0.027755 -0.013951 -0.003532 0.000000 0.000000 0.000000
# 2 -0.013951 0.027755 -0.003532 0.000000 0.000000 0.000000
# 3 -0.003532 -0.003532 0.017465 0.000000 0.000000 0.000000
# 4 0.000000 0.000000 0.000000 0.297673 0.000000 0.000000
# 5 0.000000 0.000000 0.000000 0.000000 0.297673 0.000000
# 6 0.000000 0.000000 0.000000 0.000000 0.000000 0.220287
#
#
# Mechanical properties :
#
#
# Convention : Reuss Voigt Hill
#
# Bulk Modulus (GPa) = 32.31870 32.31926 32.31898
# Shear Modulus (GPa) = 5.31376 9.42177 7.36776
#
# Velocity S-wave (km/s) = 1.62360 2.16194 1.91181
# Velocity P-wave (km/s) = 4.42126 4.71858 4.57234
#
# Compressibility (1/GPa) = 0.03094183
#
# Stress axis : x y z
#
# Youngs Moduli (GPa) = 36.03018 36.03018 57.25676
#
# Poissons Ratio (x) = 0.50267 0.20225
# Poissons Ratio (y) = 0.50267 0.20225
# Poissons Ratio (z) = 0.12727 0.12727
#
# Static dielectric constant tensor:
#      x y z
#    x 1.752500 0.000000 0.000000 
#    y 0.000000 1.752500 0.000000 
#    z 0.000000 0.000000 1.704110 
# 
# From -- ./inp_files/11334.got.cif
#   From: 2010.05.17/outbox.cif.g08.bks.cpg/sg134_6_cif.got.tgz:11334.got - 2010.05.20 12:42:49.
