data_PCOD9568813
_publ_section_title
;
Structure prediction by ZEFSAII (Michael W. Deem and Ramdas Pophale) SiO2 
 PCOD9568813
Probable space group: P 42/M B C
;
_chemical_formula_sum "Si O2"
_cell_formula_units_Z 112
_cell_length_a 14.768790
_cell_length_b 14.768790
_cell_length_c 25.830582
_cell_angle_alpha 90.000000
_cell_angle_beta 90.000000
_cell_angle_gamma 90.000000
_cell_volume 5634.093137
_symmetry_space_group_name_H-M "P 42/M B C"
_symmetry_group_IT_number 135
_symmetry_cell_setting 'tetragonal'
loop_
_space_group_symop_operation_xyz
x,y,z
-y,x,1/2+z
-x,-y,z
y,-x,1/2+z
1/2+x,1/2-y,-z
1/2-x,1/2+y,-z
1/2+y,1/2+x,1/2-z
1/2-y,1/2-x,1/2-z
-x,-y,-z
y,-x,1/2-z
x,y,-z
-y,x,1/2-z
1/2-x,1/2+y,z
1/2+x,1/2-y,z
1/2-y,1/2-x,1/2+z
1/2+y,1/2+x,1/2+z
loop_
_atom_site_type_symbol
_atom_site_label
_atom_site_fract_x
_atom_site_fract_y
_atom_site_fract_z
Si Si1 0.013081 0.142786 0.259545
Si Si2 0.892892 0.017812 0.442118
Si Si3 0.051530 0.704585 0.057755
Si Si4 0.312132 0.044885 0.940765
Si Si5 0.065600 0.419630 0.868861
Si Si6 0.602754 0.667882 0.361155
Si Si7 0.147447 0.271159 0.201299
O O1 0.058807 0.220651 0.225210
O O2 0.932450 0.090339 0.229879
O O3 0.966308 0.169165 0.313246
O O4 0.876282 0.060135 0.500000
O O5 0.877921 0.074319 0.390192
O O6 0.813431 0.941935 0.438519
O O7 0.000000 0.000000 0.441873
O O8 0.141301 0.644222 0.059988
O O9 0.989105 0.659270 0.101301
O O10 0.012765 0.685473 0.000000
O O11 0.224882 0.057580 0.906313
O O12 0.375632 0.972714 0.911777
O O13 0.296150 0.018863 0.000000
O O14 0.122199 0.365858 0.825818
O O15 0.000000 0.500000 0.847860
O O16 0.700368 0.694143 0.337863
O O17 0.210782 0.289219 0.250000
#
# Coordination Sequence:
#
# PCOD9568813 Si02
#       7
#    16  16  16  16  16  16  16
#     4   9  21  40  64  90 114 159 213 260 314 374
#     4  10  21  37  61  93 123 158 206 253 304 379
#     4   9  18  37  61  86 119 159 202 247 306 376
#     4  10  21  39  61  93 127 158 204 254 315 387
#     4  10  20  38  64  91 115 161 206 257 315 368
#     4  11  22  40  61  86 121 163 196 257 316 370
#     4  11  23  41  58  88 122 159 210 261 312 378
#
# _framework density 19.878976000000002
#
# number of rings (size 3 to 8) (size 9 to 14) (size 15 to 20)
#    0.000    2.000    1.429    1.714    4.000    2.000 
#   15.429    0.000    0.000    0.000    0.000    0.000 
#    0.000    0.000    0.000    0.000    0.000    0.000 
#
# Total GULP energy -623581.546231 kJ/mol
# GULP energy per Si atom -5567.692377 kJ/mol
# Density = 1.983373 g / cm^3
# Si number density = 19.878976 Si / 1000 Ang^3
#
#
#
# Elastic Constant Matrix: (Units=GPa)
#
#
# Indices 1 2 3 4 5 6 
#
# 1 68.3034 9.0983 19.0316 0.0000 0.0000 0.0000
# 2 9.0983 68.3040 19.0318 0.0000 0.0000 0.0000
# 3 19.0316 19.0318 74.7238 0.0000 0.0000 0.0000
# 4 0.0000 0.0000 0.0000 36.3055 0.0000 0.0000
# 5 0.0000 0.0000 0.0000 0.0000 36.3058 0.0000
# 6 0.0000 0.0000 0.0000 0.0000 0.0000 11.1731
#
#
#
# Elastic Compliance Matrix: (Units=1/GPa)
#
#
# Indices 1 2 3 4 5 6 
#
# 1 0.015830 -0.001060 -0.003762 0.000000 0.000000 0.000000
# 2 -0.001060 0.015830 -0.003762 0.000000 0.000000 0.000000
# 3 -0.003762 -0.003762 0.015299 0.000000 0.000000 0.000000
# 4 0.000000 0.000000 0.000000 0.027544 0.000000 0.000000
# 5 0.000000 0.000000 0.000000 0.000000 0.027544 0.000000
# 6 0.000000 0.000000 0.000000 0.000000 0.000000 0.089501
#
#
# Mechanical properties :
#
#
# Convention : Reuss Voigt Hill
#
# Bulk Modulus (GPa) = 33.56733 33.96163 33.76448
# Shear Modulus (GPa) = 22.86813 27.70152 25.28483
#
# Velocity S-wave (km/s) = 3.39539 3.73702 3.57029
# Velocity P-wave (km/s) = 5.68278 5.97844 5.83249
#
# Compressibility (1/GPa) = 0.02979087
#
# Stress axis : x y z
#
# Youngs Moduli (GPa) = 63.17146 63.17192 65.36472
#
# Poissons Ratio (x) = 0.06699 0.24588
# Poissons Ratio (y) = 0.06699 0.24588
# Poissons Ratio (z) = 0.23763 0.23763
#
# Static dielectric constant tensor:
#      x y z
#    x 1.775280 0.000000 0.000000 
#    y 0.000000 1.775270 0.000000 
#    z 0.000000 0.000000 1.735740 
# 
# From -- ./inp_files/6159.got.cif
#   From: 2010.05.17/outbox.cif.g08.bks.cpg/sg135_4_cif.got.tgz:6159.got - 2010.05.20 12:50:20.
