data_PCOD9568260
_publ_section_title
;
Structure prediction by ZEFSAII (Michael W. Deem and Ramdas Pophale) SiO2 
 PCOD9568260
Probable space group: P 42/N N M
;
_chemical_formula_sum "Si O2"
_cell_formula_units_Z 88
_cell_length_a 16.931622
_cell_length_b 16.931622
_cell_length_c 17.532153
_cell_angle_alpha 90.000000
_cell_angle_beta 90.000000
_cell_angle_gamma 90.000000
_cell_volume 5026.114529
_symmetry_space_group_name_H-M "P 42/N N M"
_symmetry_group_IT_number 134
_space_group.IT_coordinate_system_code '2'
_symmetry_cell_setting 'tetragonal'
loop_
_space_group_symop_operation_xyz
x,y,z
1/2-y,x,1/2+z
1/2-x,1/2-y,z
y,1/2-x,1/2+z
x,1/2-y,1/2-z
1/2-x,y,1/2-z
y,x,-z
1/2-y,1/2-x,-z
-x,-y,-z
1/2+y,-x,1/2-z
1/2+x,1/2+y,-z
-y,1/2+x,1/2-z
-x,1/2+y,1/2+z
1/2+x,-y,1/2+z
-y,-x,z
1/2+y,1/2+x,z
loop_
_atom_site_type_symbol
_atom_site_label
_atom_site_fract_x
_atom_site_fract_y
_atom_site_fract_z
Si Si1 0.961531 0.750000 0.250000
Si Si2 0.119712 0.752806 0.539843
Si Si3 0.658172 0.894986 0.235644
Si Si4 0.187560 0.563645 0.122110
Si Si5 0.068954 0.441587 0.911587
Si Si6 0.183700 0.948888 0.814131
O O1 0.903019 0.675181 0.250331
O O2 0.021081 0.752365 0.321442
O O3 0.172497 0.827504 0.566698
O O4 0.181851 0.681851 0.527225
O O5 0.080317 0.776469 0.460599
O O6 0.059070 0.725024 0.603987
O O7 0.750000 0.871523 0.250000
O O8 0.638530 0.928075 0.149995
O O9 0.645586 0.967250 0.293951
O O10 0.144905 0.644905 0.148691
O O11 0.117870 0.499842 0.114175
O O12 0.029511 0.529511 0.910364
O O13 0.082125 0.417876 0.000000
O O14 0.250000 0.936151 0.750000
O O15 0.119099 0.880902 0.809185
#
# Coordination Sequence:
#
# PCOD9568260 Si02
#       6
#     8  16  16  16  16  16
#     4  10  21  40  56  75 108 142 186 246 294 333
#     4   9  18  33  52  79 115 146 176 222 279 342
#     4  10  21  35  55  77 109 150 190 230 280 345
#     4   9  19  34  56  79 100 133 180 230 285 336
#     4   9  18  32  54  80 105 135 181 237 282 324
#     4  10  20  32  52  82 116 151 186 221 274 344
#
# _framework density 17.508552999999999
#
# number of rings (size 3 to 8) (size 9 to 14) (size 15 to 20)
#    0.000    2.545    0.000    1.364    5.091    2.364 
#    0.000    0.909    0.000    3.273    0.000    0.000 
#    0.000    0.000    0.000    0.000    0.000    0.000 
#
# Total GULP energy -490183.349420 kJ/mol
# GULP energy per Si atom -5570.265334 kJ/mol
# Density = 1.746870 g / cm^3
# Si number density = 17.508553 Si / 1000 Ang^3
#
#
#
# Elastic Constant Matrix: (Units=GPa)
#
#
# Indices 1 2 3 4 5 6 
#
# 1 86.9749 41.8702 57.2367 0.0000 0.0000 0.0000
# 2 41.8702 86.9751 57.2369 0.0000 0.0000 0.0000
# 3 57.2367 57.2369 102.8829 0.0000 0.0000 0.0000
# 4 0.0000 0.0000 0.0000 27.3276 0.0000 0.0000
# 5 0.0000 0.0000 0.0000 0.0000 27.3276 0.0000
# 6 0.0000 0.0000 0.0000 0.0000 0.0000 -22.1374
#
#
#
# Elastic Compliance Matrix: (Units=1/GPa)
#
#
# Indices 1 2 3 4 5 6 
#
# 1 0.018759 -0.003412 -0.008538 0.000000 0.000000 0.000000
# 2 -0.003412 0.018759 -0.008538 0.000000 0.000000 0.000000
# 3 -0.008538 -0.008538 0.019220 0.000000 0.000000 0.000000
# 4 0.000000 0.000000 0.000000 0.036593 0.000000 0.000000
# 5 0.000000 0.000000 0.000000 0.000000 0.036593 0.000000
# 6 0.000000 0.000000 0.000000 0.000000 0.000000 -0.045172
#
#
# Mechanical properties :
#
#
# Convention : Reuss Voigt Hill
#
# Bulk Modulus (GPa) = 63.44523 65.50227 64.47375
# Shear Modulus (GPa) = 38.17381 14.53616 26.35499
#
# Velocity S-wave (km/s) = 4.67443 2.88450 3.88398
# Velocity P-wave (km/s) = 8.09006 6.97041 7.55102
#
# Compressibility (1/GPa) = 0.01576163
#
# Stress axis : x y z
#
# Youngs Moduli (GPa) = 53.30857 53.30866 52.03037
#
# Poissons Ratio (x) = 0.18188 0.44423
# Poissons Ratio (y) = 0.18188 0.44423
# Poissons Ratio (z) = 0.45514 0.45514
#
# Static dielectric constant tensor:
#      x y z
#    x 1.614620 0.000000 0.000000 
#    y 0.000000 1.614620 0.000000 
#    z 0.000000 0.000000 1.583610 
# 
# From -- ./inp_files/6473.got.cif
#   From: 2010.05.17/outbox.cif.g08.bks.cpg/sg134_4_cif.got.tgz:6473.got - 2010.05.20 12:42:49.
