data_PCOD9568584
_publ_section_title
;
Structure prediction by ZEFSAII (Michael W. Deem and Ramdas Pophale) SiO2 
 PCOD9568584
Probable space group: P 42/N N M
;
_chemical_formula_sum "Si O2"
_cell_formula_units_Z 88
_cell_length_a 12.000000
_cell_length_b 12.000000
_cell_length_c 30.000000
_cell_angle_alpha 90.000000
_cell_angle_beta 90.000000
_cell_angle_gamma 90.000000
_cell_volume 4320.000000
_symmetry_space_group_name_H-M "P 42/N N M"
_symmetry_group_IT_number 134
_space_group.IT_coordinate_system_code '2'
_symmetry_cell_setting 'tetragonal'
loop_
_space_group_symop_operation_xyz
x,y,z
1/2-y,x,1/2+z
1/2-x,1/2-y,z
y,1/2-x,1/2+z
x,1/2-y,1/2-z
1/2-x,y,1/2-z
y,x,-z
1/2-y,1/2-x,-z
-x,-y,-z
1/2+y,-x,1/2-z
1/2+x,1/2+y,-z
-y,1/2+x,1/2-z
-x,1/2+y,1/2+z
1/2+x,-y,1/2+z
-y,-x,z
1/2+y,1/2+x,z
loop_
_atom_site_type_symbol
_atom_site_label
_atom_site_fract_x
_atom_site_fract_y
_atom_site_fract_z
Si Si1 0.507818 0.817802 0.956726
Si Si2 0.345999 0.654002 0.309078
Si Si3 0.843525 0.966839 0.213485
Si Si4 0.960760 0.750000 0.250000
Si Si5 0.543742 0.639676 0.890183
Si Si6 0.260171 0.436104 0.445434
Si Si7 0.659599 0.340402 0.594368
O O1 0.475334 0.727944 0.919910
O O2 0.620312 0.876770 0.938931
O O3 0.412204 0.912204 0.965767
O O4 0.550050 0.752248 0.000981
O O5 0.250000 0.750000 0.305063
O O6 0.455748 0.700193 0.286266
O O7 0.381272 0.618729 0.358253
O O8 0.750000 0.998726 0.250000
O O9 0.889102 0.848053 0.229430
O O10 0.816026 0.951004 0.160751
O O11 0.941313 0.058688 0.215453
O O12 0.477071 0.522930 0.888962
O O13 0.660855 0.618203 0.916567
O O14 0.279608 0.561674 0.430520
O O15 0.750000 0.250000 0.605334
#
# Coordination Sequence:
#
# PCOD9568584 Si02
#       7
#    16   8  16   8  16  16   8
#     4  11  23  43  67  95 135 178 226 266 324 399
#     4  11  20  34  59  95 132 172 196 251 349 412
#     4  11  26  47  67  94 131 172 225 279 333 398
#     4  12  20  40  66  92 128 163 207 276 334 402
#     4  11  26  44  65  97 133 171 220 280 333 389
#     4  11  21  43  65  95 135 174 214 269 331 395
#     4  11  22  33  59  95 130 167 215 260 318 402
#
# _framework density 20.370370000000001
#
# number of rings (size 3 to 8) (size 9 to 14) (size 15 to 20)
#    0.000    0.909    3.636    3.545    0.000   12.182 
#    0.000    1.818    0.000    0.000    0.000    0.000 
#    0.000    0.000    0.000    0.000    0.000    0.000 
#
# Total GULP energy -490937.889201 kJ/mol
# GULP energy per Si atom -5578.839650 kJ/mol
# Density = 2.032401 g / cm^3
# Si number density = 20.370370 Si / 1000 Ang^3
#
#
#
# Elastic Constant Matrix: (Units=GPa)
#
#
# Indices 1 2 3 4 5 6 
#
# 1 27.4294 61.2180 47.7372 0.0000 0.0000 0.0000
# 2 61.2180 27.4294 47.7372 0.0000 0.0000 0.0000
# 3 47.7372 47.7372 102.0117 0.0000 0.0000 0.0000
# 4 0.0000 0.0000 0.0000 -7.0816 0.0000 0.0000
# 5 0.0000 0.0000 0.0000 0.0000 -7.0816 0.0000
# 6 0.0000 0.0000 0.0000 0.0000 0.0000 -123.0516
#
#
#
# Elastic Compliance Matrix: (Units=1/GPa)
#
#
# Indices 1 2 3 4 5 6 
#
# 1 -0.003426 0.026169 -0.010643 0.000000 0.000000 0.000000
# 2 0.026169 -0.003426 -0.010643 0.000000 0.000000 0.000000
# 3 -0.010643 -0.010643 0.019764 0.000000 0.000000 0.000000
# 4 0.000000 0.000000 0.000000 -0.141212 0.000000 0.000000
# 5 0.000000 0.000000 0.000000 0.000000 -0.141212 0.000000
# 6 0.000000 0.000000 0.000000 0.000000 0.000000 -0.008127
#
#
# Mechanical properties :
#
#
# Convention : Reuss Voigt Hill
#
# Bulk Modulus (GPa) = 44.09460 52.25057 48.17258
# Shear Modulus (GPa) = -17.86689 -27.43107 -22.64898
#
# Velocity S-wave (km/s) = -2.96480 -3.67361 -3.33807
# Velocity P-wave (km/s) = 3.15806 2.77707 2.97367
#
# Compressibility (1/GPa) = 0.02267851
#
# Stress axis : x y z
#
# Youngs Moduli (GPa) = -291.85581 -291.85581 50.59813
#
# Poissons Ratio (x) = 7.63770 0.53851
# Poissons Ratio (y) = 7.63770 0.53851
# Poissons Ratio (z) = -3.10617 -3.10617
#
# Static dielectric constant tensor:
#      x y z
#    x 1.704340 0.000000 0.000000 
#    y 0.000000 1.704340 0.000000 
#    z 0.000000 0.000000 1.876180 
# 
# From -- ./inp_files/11517.got.cif
#   From: 2010.05.17/outbox.ucp.g08.bks.cvg/sg134_6_cif.got.tgz:11517.got - 2010.06.11 11:39:54.
