data_PCOD9568969
_publ_section_title
;
Structure prediction by ZEFSAII (Michael W. Deem and Ramdas Pophale) SiO2 
 PCOD9568969
Probable space group: P 42/M B C
;
_chemical_formula_sum "Si O2"
_cell_formula_units_Z 96
_cell_length_a 15.619495
_cell_length_b 15.619495
_cell_length_c 20.032568
_cell_angle_alpha 90.000000
_cell_angle_beta 90.000000
_cell_angle_gamma 90.000000
_cell_volume 4887.318051
_symmetry_space_group_name_H-M "P 42/M B C"
_symmetry_group_IT_number 135
_symmetry_cell_setting 'tetragonal'
loop_
_space_group_symop_operation_xyz
x,y,z
-y,x,1/2+z
-x,-y,z
y,-x,1/2+z
1/2+x,1/2-y,-z
1/2-x,1/2+y,-z
1/2+y,1/2+x,1/2-z
1/2-y,1/2-x,1/2-z
-x,-y,-z
y,-x,1/2-z
x,y,-z
-y,x,1/2-z
1/2-x,1/2+y,z
1/2+x,1/2-y,z
1/2-y,1/2-x,1/2+z
1/2+y,1/2+x,1/2+z
loop_
_atom_site_type_symbol
_atom_site_label
_atom_site_fract_x
_atom_site_fract_y
_atom_site_fract_z
Si Si1 0.417306 0.562634 0.664336
Si Si2 0.904286 0.243492 0.077301
Si Si3 0.196889 0.391814 0.311219
Si Si4 0.791997 0.985596 0.781562
Si Si5 0.741073 0.811038 0.174556
Si Si6 0.964512 0.595605 0.924669
O O1 0.500000 0.500000 0.654857
O O2 0.342393 0.554064 0.609198
O O3 0.447858 0.661359 0.669637
O O4 0.370585 0.548941 0.735900
O O5 0.823703 0.268823 0.122992
O O6 0.965579 0.327409 0.078588
O O7 0.882038 0.228057 0.000000
O O8 0.160736 0.339265 0.250000
O O9 0.229297 0.477037 0.274718
O O10 0.275950 0.336646 0.338314
O O11 0.124625 0.401647 0.366453
O O12 0.746293 0.913035 0.824186
O O13 0.712824 0.787177 0.250000
O O14 0.000000 0.500000 0.912856
O O15 0.928814 0.596295 0.000000
#
# Coordination Sequence:
#
# PCOD9568969 Si02
#       6
#    16  16  16  16  16  16
#     4  12  20  37  68 101 134 170 217 279 350 420
#     4  11  25  45  64  90 134 182 225 279 349 418
#     4  11  22  36  60  96 123 155 215 275 327 396
#     4  12  20  37  63 102 132 167 217 281 343 408
#     4  11  21  39  65  90 129 172 215 272 335 400
#     4  10  23  43  62  83 120 170 217 269 333 400
#
# _framework density 19.642676000000002
#
# number of rings (size 3 to 8) (size 9 to 14) (size 15 to 20)
#    0.000    0.833    6.667    1.000    2.333    1.333 
#    0.000    0.833    0.000    0.000    0.000    0.000 
#    0.000    0.000    0.000    0.000    0.000    0.000 
#
# Total GULP energy -535414.663336 kJ/mol
# GULP energy per Si atom -5577.236076 kJ/mol
# Density = 1.959797 g / cm^3
# Si number density = 19.642676 Si / 1000 Ang^3
#
#
#
# Elastic Constant Matrix: (Units=GPa)
#
#
# Indices 1 2 3 4 5 6 
#
# 1 62.8451 17.1675 21.8138 0.0000 0.0000 0.0000
# 2 17.1675 62.8436 21.8142 0.0000 0.0000 0.0000
# 3 21.8138 21.8142 86.0707 0.0000 0.0000 0.0000
# 4 0.0000 0.0000 0.0000 -30.2162 0.0000 0.0000
# 5 0.0000 0.0000 0.0000 0.0000 -30.2062 0.0000
# 6 0.0000 0.0000 0.0000 0.0000 0.0000 33.6717
#
#
#
# Elastic Compliance Matrix: (Units=1/GPa)
#
#
# Indices 1 2 3 4 5 6 
#
# 1 0.018197 -0.003695 -0.003675 0.000000 0.000000 0.000000
# 2 -0.003695 0.018198 -0.003676 0.000000 0.000000 0.000000
# 3 -0.003675 -0.003676 0.013481 0.000000 0.000000 0.000000
# 4 0.000000 0.000000 0.000000 -0.033095 0.000000 0.000000
# 5 0.000000 0.000000 0.000000 0.000000 -0.033106 0.000000
# 6 0.000000 0.000000 0.000000 0.000000 0.000000 0.029699
#
#
# Mechanical properties :
#
#
# Convention : Reuss Voigt Hill
#
# Bulk Modulus (GPa) = 35.99196 37.03893 36.51545
# Shear Modulus (GPa) = 111.78535 4.71411 58.24973
#
# Velocity S-wave (km/s) = 7.55202 1.55085 5.45152
# Velocity P-wave (km/s) = 9.71633 4.70151 7.63254
#
# Compressibility (1/GPa) = 0.02778398
#
# Stress axis : x y z
#
# Youngs Moduli (GPa) = 54.95307 54.95148 74.17616
#
# Poissons Ratio (x) = 0.20306 0.27263
# Poissons Ratio (y) = 0.20307 0.27264
# Poissons Ratio (z) = 0.20197 0.20198
#
# Static dielectric constant tensor:
#      x y z
#    x 1.782660 0.000000 0.000000 
#    y 0.000000 1.782660 0.000000 
#    z 0.000000 0.000000 1.674670 
# 
# From -- ./inp_files/5474.got.cif
#   From: 2010.05.17/outbox.cif.g08.bks.cpg/sg135_3_cif.got.tgz:5474.got - 2010.05.20 12:50:20.
