data_PCOD9568510
_publ_section_title
;
Structure prediction by ZEFSAII (Michael W. Deem and Ramdas Pophale) SiO2 
 PCOD9568510
Probable space group: P 42/N N M
;
_chemical_formula_sum "Si O2"
_cell_formula_units_Z 112
_cell_length_a 15.499539
_cell_length_b 15.499539
_cell_length_c 26.914251
_cell_angle_alpha 90.000000
_cell_angle_beta 90.000000
_cell_angle_gamma 90.000000
_cell_volume 6465.764177
_symmetry_space_group_name_H-M "P 42/N N M"
_symmetry_group_IT_number 134
_space_group.IT_coordinate_system_code '2'
_symmetry_cell_setting 'tetragonal'
loop_
_space_group_symop_operation_xyz
x,y,z
1/2-y,x,1/2+z
1/2-x,1/2-y,z
y,1/2-x,1/2+z
x,1/2-y,1/2-z
1/2-x,y,1/2-z
y,x,-z
1/2-y,1/2-x,-z
-x,-y,-z
1/2+y,-x,1/2-z
1/2+x,1/2+y,-z
-y,1/2+x,1/2-z
-x,1/2+y,1/2+z
1/2+x,-y,1/2+z
-y,-x,z
1/2+y,1/2+x,z
loop_
_atom_site_type_symbol
_atom_site_label
_atom_site_fract_x
_atom_site_fract_y
_atom_site_fract_z
Si Si1 0.322173 0.822173 0.548496
Si Si2 0.501492 0.251883 0.569899
Si Si3 0.933115 0.920304 0.912577
Si Si4 0.150844 0.988850 0.812516
Si Si5 0.354007 0.992911 0.801306
Si Si6 0.247587 0.000409 0.547215
Si Si7 0.932310 0.923599 0.602295
Si Si8 0.178532 0.678532 0.435138
O O1 0.250000 0.750000 0.547763
O O2 0.407906 0.777943 0.569986
O O3 0.348092 0.848092 0.491671
O O4 0.449444 0.164292 0.579464
O O5 0.509892 0.271465 0.511028
O O6 0.458135 0.336733 0.592262
O O7 0.596337 0.224147 0.589001
O O8 0.946733 0.835576 0.945923
O O9 0.953447 0.889730 0.856146
O O10 0.002693 0.997308 0.924288
O O11 0.103859 0.896142 0.817280
O O12 0.253865 0.985568 0.815231
O O13 0.133849 0.019788 0.756021
O O14 0.400229 0.055492 0.839966
O O15 0.400684 0.900684 0.806967
O O16 0.164067 0.041909 0.572951
O O17 0.002138 0.997863 0.589128
O O18 0.250000 0.750000 0.441038
#
# Coordination Sequence:
#
# PCOD9568510 Si02
#       8
#     8  16  16  16  16  16  16   8
#     4   9  18  31  51  77 109 146 191 227 273 333
#     4  11  23  36  56  79 110 151 196 238 282 330
#     4  11  21  37  58  83 114 148 192 235 280 334
#     4   9  18  34  58  84 113 147 185 231 277 333
#     4   9  18  35  57  83 115 147 183 229 283 335
#     4  11  21  35  54  81 113 154 189 232 280 332
#     4  11  23  39  57  82 117 152 189 233 288 344
#     4   9  18  35  55  77 101 140 193 245 283 323
#
# _framework density 17.322005000000001
#
# number of rings (size 3 to 8) (size 9 to 14) (size 15 to 20)
#    0.000    1.857    2.857    1.714    0.000    3.714 
#    0.000    3.571    0.000    1.714    0.000    0.000 
#    0.000    0.000    0.000    0.000    0.000    0.000 
#
# Total GULP energy -624225.560747 kJ/mol
# GULP energy per Si atom -5573.442507 kJ/mol
# Density = 1.728258 g / cm^3
# Si number density = 17.322005 Si / 1000 Ang^3
#
#
#
# Elastic Constant Matrix: (Units=GPa)
#
#
# Indices 1 2 3 4 5 6 
#
# 1 107.7535 55.0003 16.0852 0.0000 0.0000 0.0000
# 2 55.0003 107.7535 16.0852 0.0000 0.0000 0.0000
# 3 16.0852 16.0852 50.9762 0.0000 0.0000 0.0000
# 4 0.0000 0.0000 0.0000 15.5248 0.0000 0.0000
# 5 0.0000 0.0000 0.0000 0.0000 15.5248 0.0000
# 6 0.0000 0.0000 0.0000 0.0000 0.0000 25.5266
#
#
#
# Elastic Compliance Matrix: (Units=1/GPa)
#
#
# Indices 1 2 3 4 5 6 
#
# 1 0.012755 -0.006202 -0.002068 0.000000 0.000000 0.000000
# 2 -0.006202 0.012755 -0.002068 0.000000 0.000000 0.000000
# 3 -0.002068 -0.002068 0.020922 0.000000 0.000000 0.000000
# 4 0.000000 0.000000 0.000000 0.064413 0.000000 0.000000
# 5 0.000000 0.000000 0.000000 0.000000 0.064413 0.000000
# 6 0.000000 0.000000 0.000000 0.000000 0.000000 0.039175
#
#
# Mechanical properties :
#
#
# Convention : Reuss Voigt Hill
#
# Bulk Modulus (GPa) = 38.82456 48.98049 43.90253
# Shear Modulus (GPa) = 20.51773 23.26942 21.89357
#
# Velocity S-wave (km/s) = 3.44537 3.66914 3.55902
# Velocity P-wave (km/s) = 6.18786 6.80353 6.50298
#
# Compressibility (1/GPa) = 0.02575689
#
# Stress axis : x y z
#
# Youngs Moduli (GPa) = 78.40321 78.40321 47.79673
#
# Poissons Ratio (x) = 0.48623 0.09883
# Poissons Ratio (y) = 0.48623 0.09883
# Poissons Ratio (z) = 0.16212 0.16212
#
# Static dielectric constant tensor:
#      x y z
#    x 1.597200 0.000000 0.000000 
#    y 0.000000 1.597200 0.000000 
#    z 0.000000 0.000000 1.619300 
# 
# From -- ./inp_files/10911.got.cif
#   From: 2010.05.17/outbox.cif.g08.bks.cpg/sg134_6_cif.got.tgz:10911.got - 2010.05.20 12:42:49.
