data_PCOD9568057
_publ_section_title
;
Structure prediction by ZEFSAII (Michael W. Deem and Ramdas Pophale) SiO2 
 PCOD9568057
Probable space group: P 42/N B C
;
_chemical_formula_sum "Si O2"
_cell_formula_units_Z 48
_cell_length_a 15.406068
_cell_length_b 15.406068
_cell_length_c 8.388801
_cell_angle_alpha 90.000000
_cell_angle_beta 90.000000
_cell_angle_gamma 90.000000
_cell_volume 1991.056174
_symmetry_space_group_name_H-M "P 42/N B C"
_symmetry_group_IT_number 133
_space_group.IT_coordinate_system_code '2'
_symmetry_cell_setting 'tetragonal'
loop_
_space_group_symop_operation_xyz
x,y,z
1/2-y,x,1/2+z
1/2-x,1/2-y,z
y,1/2-x,1/2+z
x,1/2-y,-z
1/2-x,y,-z
y,x,1/2-z
1/2-y,1/2-x,1/2-z
-x,-y,-z
1/2+y,-x,1/2-z
1/2+x,1/2+y,-z
-y,1/2+x,1/2-z
-x,1/2+y,z
1/2+x,-y,z
-y,-x,1/2+z
1/2+y,1/2+x,1/2+z
loop_
_atom_site_type_symbol
_atom_site_label
_atom_site_fract_x
_atom_site_fract_y
_atom_site_fract_z
Si Si1 0.107713 0.345000 0.521790
Si Si2 0.178219 0.989050 0.340694
Si Si3 0.939327 0.321079 0.359422
O O1 0.151606 0.250000 0.500000
O O2 0.043144 0.338938 0.675684
O O3 0.162637 0.431635 0.538158
O O4 0.038951 0.349029 0.381325
O O5 0.268976 0.939844 0.306800
O O6 0.113448 0.909408 0.364859
O O7 0.915129 0.250000 0.500000
#
# Coordination Sequence:
#
# PCOD9568057 Si02
#       3
#    16  16  16
#     4   8  16  30  51  77 105 145 195 247 301 350
#     4   9  16  30  48  74 115 149 190 247 293 356
#     4   9  18  30  48  76 109 155 197 238 298 354
#
# _framework density 24.107809
#
# number of rings (size 3 to 8) (size 9 to 14) (size 15 to 20)
#    0.000    4.000    0.000    1.000    0.000    0.667 
#    0.000   13.333    0.000    0.000    0.000    9.333 
#    0.000  184.000    0.000  124.000    0.000   10.667 
#
# Total GULP energy -267237.489173 kJ/mol
# GULP energy per Si atom -5567.447691 kJ/mol
# Density = 2.405294 g / cm^3
# Si number density = 24.107809 Si / 1000 Ang^3
#
#
#
# Elastic Constant Matrix: (Units=GPa)
#
#
# Indices 1 2 3 4 5 6 
#
# 1 183.3728 119.5359 41.1491 0.0000 0.0000 0.0000
# 2 119.5359 183.3728 41.1491 0.0000 0.0000 0.0000
# 3 41.1491 41.1491 37.0397 0.0000 0.0000 0.0000
# 4 0.0000 0.0000 0.0000 29.0373 0.0000 0.0000
# 5 0.0000 0.0000 0.0000 0.0000 29.0373 0.0000
# 6 0.0000 0.0000 0.0000 0.0000 0.0000 -861.9338
#
#
#
# Elastic Compliance Matrix: (Units=1/GPa)
#
#
# Indices 1 2 3 4 5 6 
#
# 1 0.010197 -0.005468 -0.005253 0.000000 0.000000 0.000000
# 2 -0.005468 0.010197 -0.005253 0.000000 0.000000 0.000000
# 3 -0.005253 -0.005253 0.038670 0.000000 0.000000 0.000000
# 4 0.000000 0.000000 0.000000 0.034438 0.000000 0.000000
# 5 0.000000 0.000000 0.000000 0.000000 0.034438 0.000000
# 6 0.000000 0.000000 0.000000 0.000000 0.000000 -0.001160
#
#
# Mechanical properties :
#
#
# Convention : Reuss Voigt Hill
#
# Bulk Modulus (GPa) = 36.88067 89.71702 63.29885
# Shear Modulus (GPa) = 29.80313 -147.30842 -58.75264
#
# Velocity S-wave (km/s) = 3.51984 -7.82539 -4.94203
# Velocity P-wave (km/s) = 5.64362 6.65982 2.50027
#
# Compressibility (1/GPa) = 0.02711448
#
# Stress axis : x y z
#
# Youngs Moduli (GPa) = 98.07044 98.07044 25.85978
#
# Poissons Ratio (x) = 0.53627 0.13585
# Poissons Ratio (y) = 0.53627 0.13585
# Poissons Ratio (z) = 0.51518 0.51518
#
# Static dielectric constant tensor:
#      x y z
#    x 1.921290 0.000000 0.000000 
#    y 0.000000 1.921290 0.000000 
#    z 0.000000 0.000000 2.187560 
# 
# From -- ./inp_files/2631.got.cif
#   From: 2010.05.17/outbox.cif.g08.bks.cpg/sg133_2_cif.got.tgz:2631.got - 2010.05.20 12:37:36.
