data_PCOD9568017
_publ_section_title
;
Structure prediction by ZEFSAII (Michael W. Deem and Ramdas Pophale) SiO2 
 PCOD9568017
Probable space group: P 42/N B C
;
_chemical_formula_sum "Si O2"
_cell_formula_units_Z 48
_cell_length_a 9.215853
_cell_length_b 9.215853
_cell_length_c 24.296053
_cell_angle_alpha 90.000000
_cell_angle_beta 90.000000
_cell_angle_gamma 90.000000
_cell_volume 2063.511074
_symmetry_space_group_name_H-M "P 42/N B C"
_symmetry_group_IT_number 133
_space_group.IT_coordinate_system_code '2'
_symmetry_cell_setting 'tetragonal'
loop_
_space_group_symop_operation_xyz
x,y,z
1/2-y,x,1/2+z
1/2-x,1/2-y,z
y,1/2-x,1/2+z
x,1/2-y,-z
1/2-x,y,-z
y,x,1/2-z
1/2-y,1/2-x,1/2-z
-x,-y,-z
1/2+y,-x,1/2-z
1/2+x,1/2+y,-z
-y,1/2+x,1/2-z
-x,1/2+y,z
1/2+x,-y,z
-y,-x,1/2+z
1/2+y,1/2+x,1/2+z
loop_
_atom_site_type_symbol
_atom_site_label
_atom_site_fract_x
_atom_site_fract_y
_atom_site_fract_z
Si Si1 0.968013 0.185259 0.227943
Si Si2 0.091742 0.679746 0.100712
Si Si3 0.395271 0.097081 0.036775
O O1 0.836801 0.076430 0.244530
O O2 0.964520 0.200840 0.162351
O O3 0.115115 0.115115 0.250000
O O4 0.250000 0.750000 0.093110
O O5 0.121439 0.510500 0.088753
O O6 0.977192 0.760963 0.060210
O O7 0.250000 0.108691 0.000000
O O8 0.500000 0.000000 0.000000
#
# Coordination Sequence:
#
# PCOD9568017 Si02
#       3
#    16  16  16
#     4  11  24  46  74 109 149 193 243 308 373 442
#     4  12  25  48  75 109 151 200 245 309 375 447
#     4  12  27  47  74 107 149 196 252 305 373 446
#
# _framework density 23.261323999999998
#
# number of rings (size 3 to 8) (size 9 to 14) (size 15 to 20)
#    0.000    0.333    6.667    3.000    0.000    3.333 
#    0.000    3.333    0.000    0.000    0.000    0.000 
#    0.000    0.000    0.000    0.000    0.000    0.000 
#
# Total GULP energy -268464.921123 kJ/mol
# GULP energy per Si atom -5593.019190 kJ/mol
# Density = 2.320838 g / cm^3
# Si number density = 23.261324 Si / 1000 Ang^3
#
#
#
# Elastic Constant Matrix: (Units=GPa)
#
#
# Indices 1 2 3 4 5 6 
#
# 1 126.5311 70.2505 53.6315 0.0000 0.0000 0.0000
# 2 70.2505 126.5311 53.6315 0.0000 0.0000 0.0000
# 3 53.6315 53.6315 162.7972 0.0000 0.0000 0.0000
# 4 0.0000 0.0000 0.0000 21.5212 0.0000 0.0000
# 5 0.0000 0.0000 0.0000 0.0000 21.5212 0.0000
# 6 0.0000 0.0000 0.0000 0.0000 0.0000 42.2271
#
#
#
# Elastic Compliance Matrix: (Units=1/GPa)
#
#
# Indices 1 2 3 4 5 6 
#
# 1 0.011981 -0.005787 -0.002041 0.000000 0.000000 0.000000
# 2 -0.005787 0.011981 -0.002041 0.000000 0.000000 0.000000
# 3 -0.002041 -0.002041 0.007487 0.000000 0.000000 0.000000
# 4 0.000000 0.000000 0.000000 0.046466 0.000000 0.000000
# 5 0.000000 0.000000 0.000000 0.000000 0.046466 0.000000
# 6 0.000000 0.000000 0.000000 0.000000 0.000000 0.023681
#
#
# Mechanical properties :
#
#
# Convention : Reuss Voigt Hill
#
# Bulk Modulus (GPa) = 85.37540 85.65404 85.51472
# Shear Modulus (GPa) = 29.12004 32.94361 31.03183
#
# Velocity S-wave (km/s) = 3.54201 3.76738 3.65643
# Velocity P-wave (km/s) = 7.31506 7.47172 7.39381
#
# Compressibility (1/GPa) = 0.01171298
#
# Stress axis : x y z
#
# Youngs Moduli (GPa) = 83.46489 83.46489 133.56336
#
# Poissons Ratio (x) = 0.48301 0.27254
# Poissons Ratio (y) = 0.48301 0.27254
# Poissons Ratio (z) = 0.17031 0.17031
#
# Static dielectric constant tensor:
#      x y z
#    x 1.855730 0.000000 0.000000 
#    y 0.000000 1.855730 0.000000 
#    z 0.000000 0.000000 1.896490 
# 
# From -- ./inp_files/7753.got.cif
#   From: 2010.05.17/outbox.cif.g08.bks.cpg/sg133_4_cif.got.tgz:7753.got - 2010.05.20 12:37:36.
