data_PCOD9568498
_publ_section_title
;
Structure prediction by ZEFSAII (Michael W. Deem and Ramdas Pophale) SiO2 
 PCOD9568498
Probable space group: P 42/N N M
;
_chemical_formula_sum "Si O2"
_cell_formula_units_Z 88
_cell_length_a 11.636399
_cell_length_b 11.636399
_cell_length_c 30.542385
_cell_angle_alpha 90.000000
_cell_angle_beta 90.000000
_cell_angle_gamma 90.000000
_cell_volume 4135.615516
_symmetry_space_group_name_H-M "P 42/N N M"
_symmetry_group_IT_number 134
_space_group.IT_coordinate_system_code '2'
_symmetry_cell_setting 'tetragonal'
loop_
_space_group_symop_operation_xyz
x,y,z
1/2-y,x,1/2+z
1/2-x,1/2-y,z
y,1/2-x,1/2+z
x,1/2-y,1/2-z
1/2-x,y,1/2-z
y,x,-z
1/2-y,1/2-x,-z
-x,-y,-z
1/2+y,-x,1/2-z
1/2+x,1/2+y,-z
-y,1/2+x,1/2-z
-x,1/2+y,1/2+z
1/2+x,-y,1/2+z
-y,-x,z
1/2+y,1/2+x,z
loop_
_atom_site_type_symbol
_atom_site_label
_atom_site_fract_x
_atom_site_fract_y
_atom_site_fract_z
Si Si1 0.845388 0.964982 0.373048
Si Si2 0.567364 0.741466 0.169915
Si Si3 0.068439 0.750000 0.250000
Si Si4 0.653042 0.153042 0.619248
Si Si5 0.182326 0.010759 0.795856
Si Si6 0.982433 0.680438 0.974315
Si Si7 0.152347 0.847654 0.015535
O O1 0.864649 0.835840 0.356769
O O2 0.762833 0.022734 0.337042
O O3 0.800815 0.962885 0.422712
O O4 0.965258 0.034743 0.373522
O O5 0.506780 0.801520 0.211473
O O6 0.466975 0.691997 0.139601
O O7 0.636247 0.636813 0.191320
O O8 0.151387 0.848614 0.231329
O O9 0.750000 0.250000 0.628541
O O10 0.641183 0.141183 0.567367
O O11 0.250000 0.013011 0.750000
O O12 0.076657 0.923344 0.792173
O O13 0.081165 0.581165 0.977674
O O14 0.036513 0.794851 0.995327
O O15 0.873303 0.626698 0.000000
O O16 0.250000 0.750000 0.007516
#
# Coordination Sequence:
#
# PCOD9568498 Si02
#       7
#    16  16   8   8  16  16   8
#     4  11  24  40  68  99 133 177 231 288 345 410
#     4  12  23  41  62  96 135 176 223 274 353 420
#     4  11  20  32  55  88 126 160 205 263 322 398
#     4  11  20  36  65 101 140 182 225 283 351 424
#     4  12  27  48  69  95 132 182 231 287 343 416
#     4   9  18  35  59  96 135 173 226 290 352 418
#     4   9  18  32  59  93 135 182 229 289 353 413
#
# _framework density 21.278573000000002
#
# number of rings (size 3 to 8) (size 9 to 14) (size 15 to 20)
#    0.000    1.182    1.818    4.909    1.273    4.909 
#    0.000    0.000    0.000    8.727    0.000    0.000 
#    0.000    0.000    0.000    0.000    0.000    0.000 
#
# Total GULP energy -492061.812625 kJ/mol
# GULP energy per Si atom -5591.611507 kJ/mol
# Density = 2.123014 g / cm^3
# Si number density = 21.278573 Si / 1000 Ang^3
#
#
#
# Elastic Constant Matrix: (Units=GPa)
#
#
# Indices 1 2 3 4 5 6 
#
# 1 82.5094 37.5119 49.7732 0.0000 0.0000 0.0000
# 2 37.5119 82.5096 49.7740 0.0000 0.0000 0.0000
# 3 49.7732 49.7740 142.7043 0.0000 0.0000 0.0000
# 4 0.0000 0.0000 0.0000 16.6696 0.0000 0.0000
# 5 0.0000 0.0000 0.0000 0.0000 16.6696 0.0000
# 6 0.0000 0.0000 0.0000 0.0000 0.0000 28.9021
#
#
#
# Elastic Compliance Matrix: (Units=1/GPa)
#
#
# Indices 1 2 3 4 5 6 
#
# 1 0.016973 -0.005250 -0.004089 0.000000 0.000000 0.000000
# 2 -0.005250 0.016973 -0.004089 0.000000 0.000000 0.000000
# 3 -0.004089 -0.004089 0.009860 0.000000 0.000000 0.000000
# 4 0.000000 0.000000 0.000000 0.059989 0.000000 0.000000
# 5 0.000000 0.000000 0.000000 0.000000 0.059990 0.000000
# 6 0.000000 0.000000 0.000000 0.000000 0.000000 0.034600
#
#
# Mechanical properties :
#
#
# Convention : Reuss Voigt Hill
#
# Bulk Modulus (GPa) = 58.99491 64.64905 61.82198
# Shear Modulus (GPa) = 21.65523 23.82587 22.74055
#
# Velocity S-wave (km/s) = 3.19360 3.34984 3.27265
# Velocity P-wave (km/s) = 6.43304 6.73870 6.58764
#
# Compressibility (1/GPa) = 0.01695062
#
# Stress axis : x y z
#
# Youngs Moduli (GPa) = 58.91612 58.91573 101.42148
#
# Poissons Ratio (x) = 0.30931 0.41470
# Poissons Ratio (y) = 0.30931 0.41471
# Poissons Ratio (z) = 0.24090 0.24091
#
# Static dielectric constant tensor:
#      x y z
#    x 1.788020 0.000000 0.000000 
#    y 0.000000 1.788020 0.000000 
#    z 0.000000 0.000000 1.751250 
# 
# From -- ./inp_files/11523.got.cif
#   From: 2010.05.17/outbox.cif.g08.bks.cpg/sg134_6_cif.got.tgz:11523.got - 2010.05.20 12:42:49.
