data_PCOD9568766
_publ_section_title
;
Structure prediction by ZEFSAII (Michael W. Deem and Ramdas Pophale) SiO2 
 PCOD9568766
Probable space group: P 42/M B C
;
_chemical_formula_sum "Si O2"
_cell_formula_units_Z 96
_cell_length_a 24.506682
_cell_length_b 24.506682
_cell_length_c 8.551999
_cell_angle_alpha 90.000000
_cell_angle_beta 90.000000
_cell_angle_gamma 90.000000
_cell_volume 5136.137860
_symmetry_space_group_name_H-M "P 42/M B C"
_symmetry_group_IT_number 135
_symmetry_cell_setting 'tetragonal'
loop_
_space_group_symop_operation_xyz
x,y,z
-y,x,1/2+z
-x,-y,z
y,-x,1/2+z
1/2+x,1/2-y,-z
1/2-x,1/2+y,-z
1/2+y,1/2+x,1/2-z
1/2-y,1/2-x,1/2-z
-x,-y,-z
y,-x,1/2-z
x,y,-z
-y,x,1/2-z
1/2-x,1/2+y,z
1/2+x,1/2-y,z
1/2-y,1/2-x,1/2+z
1/2+y,1/2+x,1/2+z
loop_
_atom_site_type_symbol
_atom_site_label
_atom_site_fract_x
_atom_site_fract_y
_atom_site_fract_z
Si Si1 0.367833 0.216267 0.187679
Si Si2 0.529398 0.419630 0.311786
Si Si3 0.305605 0.722075 0.688357
Si Si4 0.800640 0.071453 0.190756
Si Si5 0.511853 0.793724 0.687494
Si Si6 0.000914 0.585225 0.186438
O O1 0.337864 0.162137 0.250000
O O2 0.328529 0.266567 0.233472
O O3 0.427446 0.221504 0.258652
O O4 0.371165 0.213912 0.000000
O O5 0.468735 0.432726 0.250158
O O6 0.528777 0.421693 0.500000
O O7 0.550870 0.360456 0.260498
O O8 0.276517 0.776517 0.750000
O O9 0.305916 0.724430 0.500000
O O10 0.367098 0.712295 0.743341
O O11 0.752921 0.030326 0.239630
O O12 0.801183 0.072009 0.000000
O O13 0.510033 0.797260 0.500000
O O14 0.498161 0.852854 0.756945
O O15 0.055184 0.555184 0.250000
O O16 0.950552 0.549449 0.250000
O O17 0.001580 0.582730 0.000000
#
# Coordination Sequence:
#
# PCOD9568766 Si02
#       6
#    16  16  16  16  16  16
#     4  10  20  35  58  84 111 144 186 233 282 331
#     4  10  20  37  59  84 113 149 189 236 289 343
#     4   9  19  38  59  80 108 145 185 228 278 331
#     4   9  21  38  57  82 115 153 188 232 288 336
#     4  11  22  37  56  82 116 150 188 232 281 336
#     4  11  22  39  61  86 115 150 191 233 283 336
#
# _framework density 18.691085999999999
#
# number of rings (size 3 to 8) (size 9 to 14) (size 15 to 20)
#    0.000    2.000    0.000    4.500    2.333    1.333 
#    0.000    7.500    0.000    0.000    0.000    0.000 
#    0.000    0.000    0.000    0.000    0.000    0.000 
#
# Total GULP energy -536304.150157 kJ/mol
# GULP energy per Si atom -5586.501564 kJ/mol
# Density = 1.864854 g / cm^3
# Si number density = 18.691086 Si / 1000 Ang^3
#
#
#
# Elastic Constant Matrix: (Units=GPa)
#
#
# Indices 1 2 3 4 5 6 
#
# 1 111.2277 177.8472 39.5413 0.0000 0.0000 0.0000
# 2 177.8472 111.1775 39.5434 0.0000 0.0000 0.0000
# 3 39.5413 39.5434 68.9790 0.0000 0.0000 0.0000
# 4 0.0000 0.0000 0.0000 22.0736 0.0000 0.0000
# 5 0.0000 0.0000 0.0000 0.0000 22.0733 0.0000
# 6 0.0000 0.0000 0.0000 0.0000 0.0000 17.3152
#
#
#
# Elastic Compliance Matrix: (Units=1/GPa)
#
#
# Indices 1 2 3 4 5 6 
#
# 1 -0.005449 0.009554 -0.002353 0.000000 0.000000 0.000000
# 2 0.009554 -0.005453 -0.002351 0.000000 0.000000 0.000000
# 3 -0.002353 -0.002351 0.017194 0.000000 0.000000 0.000000
# 4 0.000000 0.000000 0.000000 0.045303 0.000000 0.000000
# 5 0.000000 0.000000 0.000000 0.000000 0.045304 0.000000
# 6 0.000000 0.000000 0.000000 0.000000 0.000000 0.057753
#
#
# Mechanical properties :
#
#
# Convention : Reuss Voigt Hill
#
# Bulk Modulus (GPa) = 62.53266 89.47201 76.00234
# Shear Modulus (GPa) = 33.27072 14.58925 23.92998
#
# Velocity S-wave (km/s) = 4.22362 2.79686 3.58199
# Velocity P-wave (km/s) = 7.57059 7.64216 7.60646
#
# Compressibility (1/GPa) = 0.01599164
#
# Stress axis : x y z
#
# Youngs Moduli (GPa) = -183.51047 -183.40153 58.16015
#
# Poissons Ratio (x) = 1.75223 0.13687
# Poissons Ratio (y) = 1.75327 0.13673
# Poissons Ratio (z) = -0.43186 -0.43118
#
# Static dielectric constant tensor:
#      x y z
#    x 1.633920 0.000000 0.000000 
#    y 0.000000 1.633920 0.000000 
#    z 0.000000 0.000000 1.635830 
# 
# From -- ./inp_files/1229.got.cif
#   From: 2010.05.17/outbox.cif.g08.bks.cpg/sg135_1_cif.got.tgz:1229.got - 2010.05.20 12:50:20.
