data_PCOD9568262
_publ_section_title
;
Structure prediction by ZEFSAII (Michael W. Deem and Ramdas Pophale) SiO2 
 PCOD9568262
Probable space group: P 42/N N M
;
_chemical_formula_sum "Si O2"
_cell_formula_units_Z 88
_cell_length_a 16.762010
_cell_length_b 16.762010
_cell_length_c 16.822946
_cell_angle_alpha 90.000000
_cell_angle_beta 90.000000
_cell_angle_gamma 90.000000
_cell_volume 4726.658674
_symmetry_space_group_name_H-M "P 42/N N M"
_symmetry_group_IT_number 134
_space_group.IT_coordinate_system_code '2'
_symmetry_cell_setting 'tetragonal'
loop_
_space_group_symop_operation_xyz
x,y,z
1/2-y,x,1/2+z
1/2-x,1/2-y,z
y,1/2-x,1/2+z
x,1/2-y,1/2-z
1/2-x,y,1/2-z
y,x,-z
1/2-y,1/2-x,-z
-x,-y,-z
1/2+y,-x,1/2-z
1/2+x,1/2+y,-z
-y,1/2+x,1/2-z
-x,1/2+y,1/2+z
1/2+x,-y,1/2+z
-y,-x,z
1/2+y,1/2+x,z
loop_
_atom_site_type_symbol
_atom_site_label
_atom_site_fract_x
_atom_site_fract_y
_atom_site_fract_z
Si Si1 0.573564 0.299664 0.087850
Si Si2 0.841026 0.026677 0.506461
Si Si3 0.559419 0.929982 0.595053
Si Si4 0.750000 0.117134 0.250000
Si Si5 0.566073 0.565810 0.369299
Si Si6 0.154267 0.343499 0.732000
O O1 0.659410 0.340591 0.074375
O O2 0.545419 0.249673 0.012576
O O3 0.512136 0.368248 0.108459
O O4 0.573690 0.244414 0.166184
O O5 0.892126 0.107875 0.503656
O O6 0.876351 0.971399 0.436231
O O7 0.863329 0.982659 0.587476
O O8 0.574779 0.925222 0.500000
O O9 0.629505 0.890193 0.649280
O O10 0.518417 0.018417 0.611400
O O11 0.672939 0.172939 0.256465
O O12 0.503029 0.496971 0.347680
O O13 0.612424 0.599410 0.295501
O O14 0.139009 0.250000 0.750000
O O15 0.250000 0.354383 0.750000
#
# Coordination Sequence:
#
# PCOD9568262 Si02
#       6
#    16  16  16   8  16  16
#     4  10  20  32  53  81 113 153 184 222 282 343
#     4   9  18  32  55  84 113 143 183 225 275 338
#     4  10  23  41  60  83 114 154 196 237 286 351
#     4   9  18  30  46  80 121 148 176 214 267 334
#     4   9  19  36  58  82 107 145 187 235 282 329
#     4  11  24  40  58  87 114 148 194 242 296 343
#
# _framework density 18.617804
#
# number of rings (size 3 to 8) (size 9 to 14) (size 15 to 20)
#    0.000    2.273    0.000    3.273    6.364    1.091 
#    0.000    0.909    0.000    0.000    0.000    0.000 
#    0.000    3.273    0.000    0.000    0.000    0.000 
#
# Total GULP energy -489999.078506 kJ/mol
# GULP energy per Si atom -5568.171347 kJ/mol
# Density = 1.857543 g / cm^3
# Si number density = 18.617804 Si / 1000 Ang^3
#
#
#
# Elastic Constant Matrix: (Units=GPa)
#
#
# Indices 1 2 3 4 5 6 
#
# 1 58.5660 38.5094 38.7255 0.0000 0.0000 0.0000
# 2 38.5094 58.5669 38.7258 0.0000 0.0000 0.0000
# 3 38.7255 38.7258 76.7457 0.0000 0.0000 0.0000
# 4 0.0000 0.0000 0.0000 21.1910 0.0000 0.0000
# 5 0.0000 0.0000 0.0000 0.0000 21.1913 0.0000
# 6 0.0000 0.0000 0.0000 0.0000 0.0000 22.7229
#
#
#
# Elastic Compliance Matrix: (Units=1/GPa)
#
#
# Indices 1 2 3 4 5 6 
#
# 1 0.033551 -0.016307 -0.008701 0.000000 0.000000 0.000000
# 2 -0.016307 0.033550 -0.008701 0.000000 0.000000 0.000000
# 3 -0.008701 -0.008701 0.021811 0.000000 0.000000 0.000000
# 4 0.000000 0.000000 0.000000 0.047190 0.000000 0.000000
# 5 0.000000 0.000000 0.000000 0.000000 0.047189 0.000000
# 6 0.000000 0.000000 0.000000 0.000000 0.000000 0.044009
#
#
# Mechanical properties :
#
#
# Convention : Reuss Voigt Hill
#
# Bulk Modulus (GPa) = 46.52503 47.31110 46.91807
# Shear Modulus (GPa) = 16.56277 18.21556 17.38917
#
# Velocity S-wave (km/s) = 2.98589 3.13132 3.05947
# Velocity P-wave (km/s) = 6.07710 6.20810 6.14295
#
# Compressibility (1/GPa) = 0.02149381
#
# Stress axis : x y z
#
# Youngs Moduli (GPa) = 29.80562 29.80607 45.84872
#
# Poissons Ratio (x) = 0.48606 0.39892
# Poissons Ratio (y) = 0.48605 0.39892
# Poissons Ratio (z) = 0.25933 0.25934
#
# Static dielectric constant tensor:
#      x y z
#    x 1.673210 0.000000 0.000000 
#    y 0.000000 1.673210 0.000000 
#    z 0.000000 0.000000 1.693580 
# 
# From -- ./inp_files/6494.got.cif
#   From: 2010.05.17/outbox.cif.g08.bks.cpg/sg134_4_cif.got.tgz:6494.got - 2010.05.20 12:42:49.
