data_PCOD9568490
_publ_section_title
;
Structure prediction by ZEFSAII (Michael W. Deem and Ramdas Pophale) SiO2 
 PCOD9568490
Probable space group: P 42/N N M
;
_chemical_formula_sum "Si O2"
_cell_formula_units_Z 96
_cell_length_a 15.240223
_cell_length_b 15.240223
_cell_length_c 22.252597
_cell_angle_alpha 90.000000
_cell_angle_beta 90.000000
_cell_angle_gamma 90.000000
_cell_volume 5168.486026
_symmetry_space_group_name_H-M "P 42/N N M"
_symmetry_group_IT_number 134
_space_group.IT_coordinate_system_code '2'
_symmetry_cell_setting 'tetragonal'
loop_
_space_group_symop_operation_xyz
x,y,z
1/2-y,x,1/2+z
1/2-x,1/2-y,z
y,1/2-x,1/2+z
x,1/2-y,1/2-z
1/2-x,y,1/2-z
y,x,-z
1/2-y,1/2-x,-z
-x,-y,-z
1/2+y,-x,1/2-z
1/2+x,1/2+y,-z
-y,1/2+x,1/2-z
-x,1/2+y,1/2+z
1/2+x,-y,1/2+z
-y,-x,z
1/2+y,1/2+x,z
loop_
_atom_site_type_symbol
_atom_site_label
_atom_site_fract_x
_atom_site_fract_y
_atom_site_fract_z
Si Si1 0.501763 0.222605 0.567214
Si Si2 0.677498 0.177498 0.075460
Si Si3 0.006760 0.263173 0.430695
Si Si4 0.853298 0.847011 0.736303
Si Si5 0.072499 0.431243 0.647846
Si Si6 0.176992 0.328813 0.099854
Si Si7 0.821857 0.178144 0.569910
O O1 0.516034 0.198959 0.496942
O O2 0.483219 0.139035 0.609147
O O3 0.411241 0.275283 0.571523
O O4 0.582846 0.284133 0.587969
O O5 0.750000 0.250000 0.093682
O O6 0.579830 0.211550 0.092631
O O7 0.675128 0.175128 0.002729
O O8 0.043861 0.338222 0.386826
O O9 0.091589 0.200985 0.436160
O O10 0.888809 0.750000 0.750000
O O11 0.750000 0.847346 0.750000
O O12 0.895354 0.909738 0.785498
O O13 0.858172 0.858691 0.665265
O O14 0.019150 0.519150 0.652274
O O15 0.250000 0.250000 0.106357
O O16 0.750000 0.250000 0.588255
#
# Coordination Sequence:
#
# PCOD9568490 Si02
#       7
#    16   8  16  16  16  16   8
#     4  11  22  37  61  90 122 158 195 248 312 366
#     4   9  20  39  57  79 121 168 199 229 287 364
#     4  11  22  37  61  90 122 158 195 248 312 366
#     4  11  18  40  62  77 109 159 196 241 301 344
#     4  12  24  37  59  92 121 155 211 256 294 362
#     4  12  21  37  63  90 122 152 196 255 306 359
#     4   9  20  39  57  79 121 168 199 229 287 364
#
# _framework density 18.574104999999999
#
# number of rings (size 3 to 8) (size 9 to 14) (size 15 to 20)
#    0.000    1.000    6.667    2.000    0.000    4.000 
#    3.000    2.500    0.000    0.000    0.000    0.000 
#    0.000    0.000    0.000    0.000    0.000    0.000 
#
# Total GULP energy -535276.219582 kJ/mol
# GULP energy per Si atom -5575.793954 kJ/mol
# Density = 1.853183 g / cm^3
# Si number density = 18.574105 Si / 1000 Ang^3
#
#
#
# Elastic Constant Matrix: (Units=GPa)
#
#
# Indices 1 2 3 4 5 6 
#
# 1 83.1655 33.1099 0.8548 0.0000 0.0000 0.0000
# 2 33.1099 83.1655 0.8548 0.0000 0.0000 0.0000
# 3 0.8548 0.8548 76.7897 0.0000 0.0000 0.0000
# 4 0.0000 0.0000 0.0000 -1.6591 0.0000 0.0000
# 5 0.0000 0.0000 0.0000 0.0000 -1.6591 0.0000
# 6 0.0000 0.0000 0.0000 0.0000 0.0000 34.8065
#
#
#
# Elastic Compliance Matrix: (Units=1/GPa)
#
#
# Indices 1 2 3 4 5 6 
#
# 1 0.014290 -0.005688 -0.000096 0.000000 0.000000 0.000000
# 2 -0.005688 0.014290 -0.000096 0.000000 0.000000 0.000000
# 3 -0.000096 -0.000096 0.013025 0.000000 0.000000 0.000000
# 4 0.000000 0.000000 0.000000 -0.602725 0.000000 0.000000
# 5 0.000000 0.000000 0.000000 0.000000 -0.602725 0.000000
# 6 0.000000 0.000000 0.000000 0.000000 0.000000 0.028730
#
#
# Mechanical properties :
#
#
# Convention : Reuss Voigt Hill
#
# Bulk Modulus (GPa) = 33.50638 34.75108 34.12873
# Shear Modulus (GPa) = -4.49072 20.18440 7.84684
#
# Velocity S-wave (km/s) = -1.55659 3.30008 2.05762
# Velocity P-wave (km/s) = 3.85329 5.76808 4.90503
#
# Compressibility (1/GPa) = 0.02984506
#
# Stress axis : x y z
#
# Youngs Moduli (GPa) = 69.98034 69.98034 76.77714
#
# Poissons Ratio (x) = 0.39805 0.00735
# Poissons Ratio (y) = 0.39805 0.00735
# Poissons Ratio (z) = 0.00670 0.00670
#
# Static dielectric constant tensor:
#      x y z
#    x 1.651730 0.000000 0.000000 
#    y 0.000000 1.651730 0.000000 
#    z 0.000000 0.000000 1.705690 
# 
# From -- ./inp_files/9199.got.cif
#   From: 2010.05.17/outbox.cif.g08.bks.cpg/sg134_5_cif.got.tgz:9199.got - 2010.05.20 12:42:49.
