data_PCOD9568055
_publ_section_title
;
Structure prediction by ZEFSAII (Michael W. Deem and Ramdas Pophale) SiO2 
 PCOD9568055
Probable space group: P 42/N B C
;
_chemical_formula_sum "Si O2"
_cell_formula_units_Z 40
_cell_length_a 9.641089
_cell_length_b 9.641089
_cell_length_c 17.759937
_cell_angle_alpha 90.000000
_cell_angle_beta 90.000000
_cell_angle_gamma 90.000000
_cell_volume 1650.796749
_symmetry_space_group_name_H-M "P 42/N B C"
_symmetry_group_IT_number 133
_space_group.IT_coordinate_system_code '2'
_symmetry_cell_setting 'tetragonal'
loop_
_space_group_symop_operation_xyz
x,y,z
1/2-y,x,1/2+z
1/2-x,1/2-y,z
y,1/2-x,1/2+z
x,1/2-y,-z
1/2-x,y,-z
y,x,1/2-z
1/2-y,1/2-x,1/2-z
-x,-y,-z
1/2+y,-x,1/2-z
1/2+x,1/2+y,-z
-y,1/2+x,1/2-z
-x,1/2+y,z
1/2+x,-y,z
-y,-x,1/2+z
1/2+y,1/2+x,1/2+z
loop_
_atom_site_type_symbol
_atom_site_label
_atom_site_fract_x
_atom_site_fract_y
_atom_site_fract_z
Si Si1 0.750000 0.250000 0.250000
Si Si2 0.945605 0.805733 0.819483
Si Si3 0.074024 0.976131 0.579836
Si Si4 0.750000 0.250000 0.000000
O O1 0.732124 0.100552 0.290592
O O2 0.916328 0.680416 0.879271
O O3 0.845891 0.845891 0.750000
O O4 0.953328 0.949183 0.863827
O O5 0.162137 0.842935 0.556607
O O6 0.000000 0.000000 0.500000
#
# Coordination Sequence:
#
# PCOD9568055 Si02
#       4
#     4  16  16   4
#     4  12  26  52  78 112 182 216 270 372 450 500
#     4  12  26  47  83 117 166 221 288 358 438 533
#     4  12  26  48  78 118 160 224 283 351 451 532
#     4  12  26  48  84 102 174 212 272 372 428 528
#
# _framework density 24.230726000000001
#
# number of rings (size 3 to 8) (size 9 to 14) (size 15 to 20)
#    0.000    0.000    8.000    1.200    0.000    0.000 
#    0.000   16.000    0.000    0.000    0.000    0.000 
#    0.000    0.000    0.000    0.000    0.000    0.000 
#
# Total GULP energy -223443.327900 kJ/mol
# GULP energy per Si atom -5586.083197 kJ/mol
# Density = 2.417558 g / cm^3
# Si number density = 24.230726 Si / 1000 Ang^3
#
#
#
# Elastic Constant Matrix: (Units=GPa)
#
#
# Indices 1 2 3 4 5 6 
#
# 1 118.7794 69.6423 78.0031 0.0000 0.0000 0.0000
# 2 69.6423 118.7794 78.0031 0.0000 0.0000 0.0000
# 3 78.0031 78.0031 165.5192 0.0000 0.0000 0.0000
# 4 0.0000 0.0000 0.0000 57.7211 0.0000 0.0000
# 5 0.0000 0.0000 0.0000 0.0000 57.7211 0.0000
# 6 0.0000 0.0000 0.0000 0.0000 0.0000 139.1363
#
#
#
# Elastic Compliance Matrix: (Units=1/GPa)
#
#
# Indices 1 2 3 4 5 6 
#
# 1 0.014527 -0.005824 -0.004101 0.000000 0.000000 0.000000
# 2 -0.005824 0.014527 -0.004101 0.000000 0.000000 0.000000
# 3 -0.004101 -0.004101 0.009907 0.000000 0.000000 0.000000
# 4 0.000000 0.000000 0.000000 0.017325 0.000000 0.000000
# 5 0.000000 0.000000 0.000000 0.000000 0.017325 0.000000
# 6 0.000000 0.000000 0.000000 0.000000 0.000000 0.007187
#
#
# Mechanical properties :
#
#
# Convention : Reuss Voigt Hill
#
# Bulk Modulus (GPa) = 91.67824 94.93056 93.30440
# Shear Modulus (GPa) = 44.44917 62.74434 53.59675
#
# Velocity S-wave (km/s) = 4.28765 5.09419 4.70822
# Velocity P-wave (km/s) = 7.90124 8.59441 8.25510
#
# Compressibility (1/GPa) = 0.01090771
#
# Stress axis : x y z
#
# Youngs Moduli (GPa) = 68.83658 68.83658 100.93549
#
# Poissons Ratio (x) = 0.40091 0.41398
# Poissons Ratio (y) = 0.40091 0.41398
# Poissons Ratio (z) = 0.28233 0.28233
#
# Static dielectric constant tensor:
#      x y z
#    x 1.881860 0.000000 0.000000 
#    y 0.000000 1.881860 0.000000 
#    z 0.000000 0.000000 2.020840 
# 
# From -- ./inp_files/4832.got.cif
#   From: 2010.05.17/outbox.cif.g08.bks.cpg/sg133_3_cif.got.tgz:4832.got - 2010.05.20 12:37:36.
