data_PCOD9568149
_publ_section_title
;
Structure prediction by ZEFSAII (Michael W. Deem and Ramdas Pophale) SiO2 
 PCOD9568149
Probable space group: P 42/N N M
;
_chemical_formula_sum "Si O2"
_cell_formula_units_Z 80
_cell_length_a 10.553655
_cell_length_b 10.553655
_cell_length_c 34.420170
_cell_angle_alpha 90.000000
_cell_angle_beta 90.000000
_cell_angle_gamma 90.000000
_cell_volume 3833.705932
_symmetry_space_group_name_H-M "P 42/N N M"
_symmetry_group_IT_number 134
_space_group.IT_coordinate_system_code '2'
_symmetry_cell_setting 'tetragonal'
loop_
_space_group_symop_operation_xyz
x,y,z
1/2-y,x,1/2+z
1/2-x,1/2-y,z
y,1/2-x,1/2+z
x,1/2-y,1/2-z
1/2-x,y,1/2-z
y,x,-z
1/2-y,1/2-x,-z
-x,-y,-z
1/2+y,-x,1/2-z
1/2+x,1/2+y,-z
-y,1/2+x,1/2-z
-x,1/2+y,1/2+z
1/2+x,-y,1/2+z
-y,-x,z
1/2+y,1/2+x,z
loop_
_atom_site_type_symbol
_atom_site_label
_atom_site_fract_x
_atom_site_fract_y
_atom_site_fract_z
Si Si1 0.299647 0.486948 0.946920
Si Si2 0.851767 0.570614 0.131513
Si Si3 0.279391 0.508735 0.029373
Si Si4 0.451139 0.750070 0.384956
Si Si5 0.462301 0.756326 0.707468
O O1 0.387616 0.612385 0.940873
O O2 0.226094 0.452358 0.908057
O O3 0.394048 0.373607 0.959211
O O4 0.218310 0.496521 0.986886
O O5 0.771396 0.544966 0.169929
O O6 0.964808 0.464808 0.130951
O O7 0.917144 0.708800 0.133488
O O8 0.369331 0.630670 0.024436
O O9 0.211804 0.529289 0.069905
O O10 0.342719 0.657282 0.368874
O O11 0.391563 0.891563 0.383440
O O12 0.525307 0.750000 0.750000
O O13 0.352673 0.647328 0.708607
O O14 0.388273 0.888273 0.702979
#
# Coordination Sequence:
#
# PCOD9568149 Si02
#       5
#    16  16  16  16  16
#     4   9  17  29  45  66  93 123 158 201 244 295
#     4  10  19  28  43  70  98 127 164 200 240 292
#     4   8  16  31  46  61  87 125 163 198 246 296
#     4   9  18  32  46  60  85 124 170 214 246 277
#     4   8  14  26  44  67  99 132 151 172 223 299
#
# _framework density 20.867538
#
# number of rings (size 3 to 8) (size 9 to 14) (size 15 to 20)
#    0.000    3.200    0.000    2.400    0.000    3.600 
#    0.000    6.000    0.000    0.000    0.000    2.800 
#    0.000    4.800    0.000   24.000    0.000    5.600 
#
# Total GULP energy -445453.810592 kJ/mol
# GULP energy per Si atom -5568.172632 kJ/mol
# Density = 2.082004 g / cm^3
# Si number density = 20.867538 Si / 1000 Ang^3
#
#
#
# Elastic Constant Matrix: (Units=GPa)
#
#
# Indices 1 2 3 4 5 6 
#
# 1 52.8933 37.1551 50.8463 0.0000 0.0000 0.0000
# 2 37.1551 52.8933 50.8463 0.0000 0.0000 0.0000
# 3 50.8463 50.8463 163.2132 0.0000 0.0000 0.0000
# 4 0.0000 0.0000 0.0000 30.4496 0.0000 0.0000
# 5 0.0000 0.0000 0.0000 0.0000 30.4496 0.0000
# 6 0.0000 0.0000 0.0000 0.0000 0.0000 24.6829
#
#
#
# Elastic Compliance Matrix: (Units=1/GPa)
#
#
# Indices 1 2 3 4 5 6 
#
# 1 0.040336 -0.023204 -0.005337 0.000000 0.000000 0.000000
# 2 -0.023204 0.040336 -0.005337 0.000000 0.000000 0.000000
# 3 -0.005337 -0.005337 0.009453 0.000000 0.000000 0.000000
# 4 0.000000 0.000000 0.000000 0.032841 0.000000 0.000000
# 5 0.000000 0.000000 0.000000 0.000000 0.032841 0.000000
# 6 0.000000 0.000000 0.000000 0.000000 0.000000 0.040514
#
#
# Mechanical properties :
#
#
# Convention : Reuss Voigt Hill
#
# Bulk Modulus (GPa) = 44.70607 60.74393 52.72500
# Shear Modulus (GPa) = 18.41389 25.79322 22.10355
#
# Velocity S-wave (km/s) = 2.97377 3.51956 3.25811
# Velocity P-wave (km/s) = 5.76727 6.75935 6.28292
#
# Compressibility (1/GPa) = 0.02236833
#
# Stress axis : x y z
#
# Youngs Moduli (GPa) = 24.79157 24.79157 105.79190
#
# Poissons Ratio (x) = 0.57525 0.56466
# Poissons Ratio (y) = 0.57525 0.56466
# Poissons Ratio (z) = 0.13232 0.13232
#
# Static dielectric constant tensor:
#      x y z
#    x 1.806550 0.000000 0.000000 
#    y 0.000000 1.806550 0.000000 
#    z 0.000000 0.000000 1.822690 
# 
# From -- ./inp_files/11280.got.cif
#   From: 2010.05.17/outbox.cif.g08.bks.cpg/sg134_6_cif.got.tgz:11280.got - 2010.05.20 12:42:49.
