data_PCOD9568215
_publ_section_title
;
Structure prediction by ZEFSAII (Michael W. Deem and Ramdas Pophale) SiO2 
 PCOD9568215
Probable space group: P 42/N N M
;
_chemical_formula_sum "Si O2"
_cell_formula_units_Z 96
_cell_length_a 29.925811
_cell_length_b 29.925811
_cell_length_c 5.625893
_cell_angle_alpha 90.000000
_cell_angle_beta 90.000000
_cell_angle_gamma 90.000000
_cell_volume 5038.291902
_symmetry_space_group_name_H-M "P 42/N N M"
_symmetry_group_IT_number 134
_space_group.IT_coordinate_system_code '2'
_symmetry_cell_setting 'tetragonal'
loop_
_space_group_symop_operation_xyz
x,y,z
1/2-y,x,1/2+z
1/2-x,1/2-y,z
y,1/2-x,1/2+z
x,1/2-y,1/2-z
1/2-x,y,1/2-z
y,x,-z
1/2-y,1/2-x,-z
-x,-y,-z
1/2+y,-x,1/2-z
1/2+x,1/2+y,-z
-y,1/2+x,1/2-z
-x,1/2+y,1/2+z
1/2+x,-y,1/2+z
-y,-x,z
1/2+y,1/2+x,z
loop_
_atom_site_type_symbol
_atom_site_label
_atom_site_fract_x
_atom_site_fract_y
_atom_site_fract_z
Si Si1 0.836036 0.801496 0.761756
Si Si2 0.858595 0.917671 0.328829
Si Si3 0.418498 0.581503 0.085158
Si Si4 0.499037 0.366089 0.037936
Si Si5 0.120756 0.620756 0.918101
Si Si6 0.799095 0.060714 0.350779
Si Si7 0.473936 0.297275 0.652378
O O1 0.849764 0.750000 0.750000
O O2 0.815903 0.815903 0.500000
O O3 0.878048 0.833933 0.808060
O O4 0.805934 0.805934 0.000000
O O5 0.893238 0.893238 0.500000
O O6 0.882842 0.958822 0.200561
O O7 0.816428 0.942078 0.452052
O O8 0.399743 0.600258 0.336952
O O9 0.404407 0.529944 0.070595
O O10 0.398137 0.601864 0.836121
O O11 0.532293 0.331057 0.172021
O O12 0.474736 0.335875 0.845394
O O13 0.104451 0.672228 0.918743
O O14 0.750000 0.070575 0.250000
O O15 0.792665 0.024990 0.561872
O O16 0.458611 0.250000 0.750000
#
# Coordination Sequence:
#
# PCOD9568215 Si02
#       7
#    16  16   8  16   8  16  16
#     4  11  26  45  67  93 122 160 205 254 310 377
#     4  10  26  40  57  89 124 163 204 254 320 386
#     4  10  20  38  59  91 119 161 208 254 310 364
#     4  10  21  36  61  85 123 159 202 261 312 372
#     4  10  20  34  56  85 128 167 198 252 314 370
#     4  10  19  34  53  91 124 157 207 256 313 369
#     4  11  21  34  63  91 117 156 205 266 319 369
#
# _framework density 19.054076999999999
#
# number of rings (size 3 to 8) (size 9 to 14) (size 15 to 20)
#    0.000    1.667    3.333    0.500    7.000    1.000 
#    0.000    0.417    0.000    1.250    0.000    0.000 
#    0.000    1.667    0.000    0.000    0.000    0.417 
#
# Total GULP energy -534785.675407 kJ/mol
# GULP energy per Si atom -5570.684119 kJ/mol
# Density = 1.901071 g / cm^3
# Si number density = 19.054077 Si / 1000 Ang^3
#
#
#
# Elastic Constant Matrix: (Units=GPa)
#
#
# Indices 1 2 3 4 5 6 
#
# 1 84.7669 52.7111 17.4723 0.0000 0.0000 0.0000
# 2 52.7111 84.7669 17.4723 0.0000 0.0000 0.0000
# 3 17.4723 17.4723 56.9527 0.0000 0.0000 0.0000
# 4 0.0000 0.0000 0.0000 33.8937 0.0000 0.0000
# 5 0.0000 0.0000 0.0000 0.0000 33.8937 0.0000
# 6 0.0000 0.0000 0.0000 0.0000 0.0000 25.0284
#
#
#
# Elastic Compliance Matrix: (Units=1/GPa)
#
#
# Indices 1 2 3 4 5 6 
#
# 1 0.019542 -0.011653 -0.002420 0.000000 0.000000 0.000000
# 2 -0.011653 0.019542 -0.002420 0.000000 0.000000 0.000000
# 3 -0.002420 -0.002420 0.019043 0.000000 0.000000 0.000000
# 4 0.000000 0.000000 0.000000 0.029504 0.000000 0.000000
# 5 0.000000 0.000000 0.000000 0.000000 0.029504 0.000000
# 6 0.000000 0.000000 0.000000 0.000000 0.000000 0.039955
#
#
# Mechanical properties :
#
#
# Convention : Reuss Voigt Hill
#
# Bulk Modulus (GPa) = 39.77634 44.64419 42.21027
# Shear Modulus (GPa) = 25.19416 27.81854 26.50635
#
# Velocity S-wave (km/s) = 3.64021 3.82511 3.73381
# Velocity P-wave (km/s) = 6.21201 6.55666 6.38666
#
# Compressibility (1/GPa) = 0.02514057
#
# Stress axis : x y z
#
# Youngs Moduli (GPa) = 51.17085 51.17085 52.51151
#
# Poissons Ratio (x) = 0.59631 0.12709
# Poissons Ratio (y) = 0.59631 0.12709
# Poissons Ratio (z) = 0.12385 0.12385
#
# Static dielectric constant tensor:
#      x y z
#    x 1.649500 0.000000 0.000000 
#    y 0.000000 1.649500 0.000000 
#    z 0.000000 0.000000 1.391630 
# 
# From -- ./inp_files/1313.got.cif
#   From: 2010.05.17/outbox.cif.g08.bks.cpg/sg134_1_cif.got.tgz:1313.got - 2010.05.20 12:42:49.
