data_PCOD9568940
_publ_section_title
;
Structure prediction by ZEFSAII (Michael W. Deem and Ramdas Pophale) SiO2 
 PCOD9568940
Probable space group: P 42/M B C
;
_chemical_formula_sum "Si O2"
_cell_formula_units_Z 112
_cell_length_a 15.245805
_cell_length_b 15.245805
_cell_length_c 22.369432
_cell_angle_alpha 90.000000
_cell_angle_beta 90.000000
_cell_angle_gamma 90.000000
_cell_volume 5199.429310
_symmetry_space_group_name_H-M "P 42/M B C"
_symmetry_group_IT_number 135
_symmetry_cell_setting 'tetragonal'
loop_
_space_group_symop_operation_xyz
x,y,z
-y,x,1/2+z
-x,-y,z
y,-x,1/2+z
1/2+x,1/2-y,-z
1/2-x,1/2+y,-z
1/2+y,1/2+x,1/2-z
1/2-y,1/2-x,1/2-z
-x,-y,-z
y,-x,1/2-z
x,y,-z
-y,x,1/2-z
1/2-x,1/2+y,z
1/2+x,1/2-y,z
1/2-y,1/2-x,1/2+z
1/2+y,1/2+x,1/2+z
loop_
_atom_site_type_symbol
_atom_site_label
_atom_site_fract_x
_atom_site_fract_y
_atom_site_fract_z
Si Si1 0.533072 0.900008 0.065132
Si Si2 0.237116 0.003334 0.135731
Si Si3 0.069923 0.873620 0.744785
Si Si4 0.768243 0.824895 0.929385
Si Si5 0.962993 0.780898 0.068525
Si Si6 0.051401 0.591247 0.313220
Si Si7 0.854266 0.180567 0.866839
O O1 0.459592 0.825371 0.068117
O O2 0.581587 0.888735 0.128195
O O3 0.500000 0.000000 0.064003
O O4 0.577341 0.884276 0.000000
O O5 0.180764 0.055920 0.184950
O O6 0.252393 0.072522 0.082652
O O7 0.329074 0.987573 0.170120
O O8 0.189510 0.913935 0.118318
O O9 0.126721 0.825121 0.795558
O O10 0.969960 0.890341 0.767456
O O11 0.869644 0.813922 0.910287
O O12 0.709421 0.756120 0.892131
O O13 0.762407 0.803954 0.000000
O O14 0.049972 0.809581 0.103209
O O15 0.974422 0.810136 0.000000
O O16 0.100234 0.600234 0.250000
O O17 0.000000 0.500000 0.309965
#
# Coordination Sequence:
#
# PCOD9568940 Si02
#       7
#    16  16  16  16  16  16  16
#     4   9  19  37  65  92 122 177 232 276 340 408
#     4  11  25  43  66  99 133 179 229 277 348 408
#     4   9  20  41  67  97 132 175 227 279 338 412
#     4  11  26  44  66 102 138 177 232 282 339 416
#     4  10  22  41  65  96 135 175 222 285 345 401
#     4  10  23  40  61  93 135 174 223 283 343 410
#     4  11  24  43  69  99 135 179 230 286 338 411
#
# _framework density 21.540825999999999
#
# number of rings (size 3 to 8) (size 9 to 14) (size 15 to 20)
#    0.000    1.857    0.000    2.143    8.000    4.571 
#    0.000    1.429    0.000    0.000    0.000    0.000 
#    0.000    0.000    0.000    0.000    0.000    0.000 
#
# Total GULP energy -624582.907330 kJ/mol
# GULP energy per Si atom -5576.633101 kJ/mol
# Density = 2.149180 g / cm^3
# Si number density = 21.540826 Si / 1000 Ang^3
#
#
#
# Elastic Constant Matrix: (Units=GPa)
#
#
# Indices 1 2 3 4 5 6 
#
# 1 117.3507 53.6063 34.2045 0.0000 0.0000 0.0000
# 2 53.6063 117.3507 34.2045 0.0000 0.0000 0.0000
# 3 34.2045 34.2045 112.3177 0.0000 0.0000 0.0000
# 4 0.0000 0.0000 0.0000 27.8953 0.0000 0.0000
# 5 0.0000 0.0000 0.0000 0.0000 27.8953 0.0000
# 6 0.0000 0.0000 0.0000 0.0000 0.0000 35.4872
#
#
#
# Elastic Compliance Matrix: (Units=1/GPa)
#
#
# Indices 1 2 3 4 5 6 
#
# 1 0.011174 -0.004513 -0.002029 0.000000 0.000000 0.000000
# 2 -0.004513 0.011174 -0.002029 0.000000 0.000000 0.000000
# 3 -0.002029 -0.002029 0.010139 0.000000 0.000000 0.000000
# 4 0.000000 0.000000 0.000000 0.035848 0.000000 0.000000
# 5 0.000000 0.000000 0.000000 0.000000 0.035848 0.000000
# 6 0.000000 0.000000 0.000000 0.000000 0.000000 0.028179
#
#
# Mechanical properties :
#
#
# Convention : Reuss Voigt Hill
#
# Bulk Modulus (GPa) = 65.15945 65.67217 65.41581
# Shear Modulus (GPa) = 32.33737 33.25580 32.79659
#
# Velocity S-wave (km/s) = 3.87875 3.93345 3.90620
# Velocity P-wave (km/s) = 7.09751 7.15422 7.12592
#
# Compressibility (1/GPa) = 0.01534697
#
# Stress axis : x y z
#
# Youngs Moduli (GPa) = 89.49023 89.49023 98.63062
#
# Poissons Ratio (x) = 0.40389 0.20008
# Poissons Ratio (y) = 0.40389 0.20008
# Poissons Ratio (z) = 0.18154 0.18154
#
# Static dielectric constant tensor:
#      x y z
#    x 2.103360 0.000000 0.000000 
#    y 0.000000 2.103360 0.000000 
#    z 0.000000 0.000000 1.838980 
# 
# From -- ./inp_files/6156.got.cif
#   From: 2010.05.17/outbox.cif.g08.bks.cpg/sg135_4_cif.got.tgz:6156.got - 2010.05.20 12:50:20.
