data_PCOD9568104
_publ_section_title
;
Structure prediction by ZEFSAII (Michael W. Deem and Ramdas Pophale) SiO2 
 PCOD9568104
Probable space group: P 42/N N M
;
_chemical_formula_sum "Si O2"
_cell_formula_units_Z 56
_cell_length_a 18.729221
_cell_length_b 18.729221
_cell_length_c 8.010110
_cell_angle_alpha 90.000000
_cell_angle_beta 90.000000
_cell_angle_gamma 90.000000
_cell_volume 2809.816178
_symmetry_space_group_name_H-M "P 42/N N M"
_symmetry_group_IT_number 134
_space_group.IT_coordinate_system_code '2'
_symmetry_cell_setting 'tetragonal'
loop_
_space_group_symop_operation_xyz
x,y,z
1/2-y,x,1/2+z
1/2-x,1/2-y,z
y,1/2-x,1/2+z
x,1/2-y,1/2-z
1/2-x,y,1/2-z
y,x,-z
1/2-y,1/2-x,-z
-x,-y,-z
1/2+y,-x,1/2-z
1/2+x,1/2+y,-z
-y,1/2+x,1/2-z
-x,1/2+y,1/2+z
1/2+x,-y,1/2+z
-y,-x,z
1/2+y,1/2+x,z
loop_
_atom_site_type_symbol
_atom_site_label
_atom_site_fract_x
_atom_site_fract_y
_atom_site_fract_z
Si Si1 0.250000 0.639379 0.750000
Si Si2 0.473281 0.087007 0.174807
Si Si3 0.981974 0.219750 0.492255
Si Si4 0.133018 0.512793 0.340048
O O1 0.188464 0.688464 0.679107
O O2 0.278721 0.592941 0.599840
O O3 0.551423 0.051423 0.207717
O O4 0.419570 0.054335 0.310381
O O5 0.447194 0.052807 0.000000
O O6 0.472273 0.170971 0.135733
O O7 0.977246 0.175483 0.664415
O O8 0.000091 0.302490 0.530228
O O9 0.081122 0.581122 0.371901
#
# Coordination Sequence:
#
# PCOD9568104 Si02
#       4
#     8  16  16  16
#     4  11  22  32  42  64 104 145 170 198 252 317
#     4   8  14  27  47  69  94 125 162 212 269 310
#     4  10  18  30  48  68  97 135 170 210 262 315
#     4   9  17  30  50  73  94 125 175 222 257 309
#
# _framework density 19.930128
#
# number of rings (size 3 to 8) (size 9 to 14) (size 15 to 20)
#    0.000    2.714    0.000    5.143    0.000    0.000 
#    0.000    1.429    0.000   15.429    0.000    0.000 
#    0.000  102.857    0.000    0.000    0.000    0.000 
#
# Total GULP energy -311952.276411 kJ/mol
# GULP energy per Si atom -5570.576364 kJ/mol
# Density = 1.988477 g / cm^3
# Si number density = 19.930128 Si / 1000 Ang^3
#
#
#
# Elastic Constant Matrix: (Units=GPa)
#
#
# Indices 1 2 3 4 5 6 
#
# 1 127.3363 71.5902 32.5071 0.0000 0.0000 0.0000
# 2 71.5902 127.3370 32.5071 0.0000 0.0000 0.0000
# 3 32.5071 32.5071 78.5020 0.0000 0.0000 0.0000
# 4 0.0000 0.0000 0.0000 21.8027 0.0000 0.0000
# 5 0.0000 0.0000 0.0000 0.0000 21.8032 0.0000
# 6 0.0000 0.0000 0.0000 0.0000 0.0000 -16.7580
#
#
#
# Elastic Compliance Matrix: (Units=1/GPa)
#
#
# Indices 1 2 3 4 5 6 
#
# 1 0.011876 -0.006062 -0.002407 0.000000 0.000000 0.000000
# 2 -0.006062 0.011876 -0.002407 0.000000 0.000000 0.000000
# 3 -0.002407 -0.002407 0.014732 0.000000 0.000000 0.000000
# 4 0.000000 0.000000 0.000000 0.045866 0.000000 0.000000
# 5 0.000000 0.000000 0.000000 0.000000 0.045865 0.000000
# 6 0.000000 0.000000 0.000000 0.000000 0.000000 -0.059673
#
#
# Mechanical properties :
#
#
# Convention : Reuss Voigt Hill
#
# Bulk Modulus (GPa) = 59.77240 67.37600 63.57420
# Shear Modulus (GPa) = 51.08658 18.47433 34.78046
#
# Velocity S-wave (km/s) = 5.06838 3.04790 4.18199
# Velocity P-wave (km/s) = 8.01919 6.80189 7.43549
#
# Compressibility (1/GPa) = 0.01673013
#
# Stress axis : x y z
#
# Youngs Moduli (GPa) = 84.20269 84.20321 67.87791
#
# Poissons Ratio (x) = 0.51046 0.16341
# Poissons Ratio (y) = 0.51046 0.16341
# Poissons Ratio (z) = 0.20271 0.20271
#
# Static dielectric constant tensor:
#      x y z
#    x 1.724230 0.000000 0.000000 
#    y 0.000000 1.724240 0.000000 
#    z 0.000000 0.000000 1.618480 
# 
# From -- ./inp_files/2400.got.cif
#   From: 2010.05.17/outbox.cif.g08.bks.cpg/sg134_2_cif.got.tgz:2400.got - 2010.05.20 12:42:49.
