data_PCOD9568335
_publ_section_title
;
Structure prediction by ZEFSAII (Michael W. Deem and Ramdas Pophale) SiO2 
 PCOD9568335
Probable space group: P 42/N N M
;
_chemical_formula_sum "Si O2"
_cell_formula_units_Z 72
_cell_length_a 14.467689
_cell_length_b 14.467689
_cell_length_c 17.650695
_cell_angle_alpha 90.000000
_cell_angle_beta 90.000000
_cell_angle_gamma 90.000000
_cell_volume 3694.538015
_symmetry_space_group_name_H-M "P 42/N N M"
_symmetry_group_IT_number 134
_space_group.IT_coordinate_system_code '2'
_symmetry_cell_setting 'tetragonal'
loop_
_space_group_symop_operation_xyz
x,y,z
1/2-y,x,1/2+z
1/2-x,1/2-y,z
y,1/2-x,1/2+z
x,1/2-y,1/2-z
1/2-x,y,1/2-z
y,x,-z
1/2-y,1/2-x,-z
-x,-y,-z
1/2+y,-x,1/2-z
1/2+x,1/2+y,-z
-y,1/2+x,1/2-z
-x,1/2+y,1/2+z
1/2+x,-y,1/2+z
-y,-x,z
1/2+y,1/2+x,z
loop_
_atom_site_type_symbol
_atom_site_label
_atom_site_fract_x
_atom_site_fract_y
_atom_site_fract_z
Si Si1 0.972204 0.750000 0.250000
Si Si2 0.214162 0.428818 0.532619
Si Si3 0.436499 0.936499 0.600826
Si Si4 0.525062 0.474939 0.353036
Si Si5 0.857619 0.357619 0.245368
Si Si6 0.061270 0.561270 0.300299
Si Si7 0.842077 0.883551 0.604981
O O1 0.908391 0.705313 0.184651
O O2 0.034129 0.669153 0.289483
O O3 0.136077 0.363924 0.500000
O O4 0.154200 0.516441 0.561839
O O5 0.283975 0.433003 0.461507
O O6 0.275263 0.367883 0.592248
O O7 0.402484 0.902484 0.681730
O O8 0.514450 0.014450 0.624569
O O9 0.600354 0.399647 0.330320
O O10 0.485002 0.514999 0.274116
O O11 0.570291 0.558114 0.396205
O O12 0.875897 0.250000 0.250000
#
# Coordination Sequence:
#
# PCOD9568335 Si02
#       7
#     8  16   8   8   8   8  16
#     4  10  20  39  61  88 116 156 204 251 315 370
#     4  11  23  38  56  85 119 154 197 248 301 365
#     4  11  22  40  61  84 121 165 196 240 316 371
#     4   9  19  37  56  82 112 149 192 238 297 352
#     4  10  20  36  60  88 117 148 195 249 293 353
#     4   9  20  35  59  85 113 149 194 244 293 363
#     4  10  21  38  60  85 119 154 200 254 303 367
#
# _framework density 19.488226999999998
#
# number of rings (size 3 to 8) (size 9 to 14) (size 15 to 20)
#    0.000    1.889    0.000    4.333    0.000    2.889 
#    0.000   21.111    0.000    1.333    0.000    0.000 
#    0.000    0.000    0.000    0.000    0.000    0.000 
#
# Total GULP energy -400956.329027 kJ/mol
# GULP energy per Si atom -5568.837903 kJ/mol
# Density = 1.944387 g / cm^3
# Si number density = 19.488227 Si / 1000 Ang^3
#
#
#
# Elastic Constant Matrix: (Units=GPa)
#
#
# Indices 1 2 3 4 5 6 
#
# 1 120.2965 33.0423 44.7066 0.0000 0.0000 0.0000
# 2 33.0423 120.2952 44.7054 0.0000 0.0000 0.0000
# 3 44.7066 44.7054 84.8840 0.0000 0.0000 0.0000
# 4 0.0000 0.0000 0.0000 9.0584 0.0000 0.0000
# 5 0.0000 0.0000 0.0000 0.0000 9.0566 0.0000
# 6 0.0000 0.0000 0.0000 0.0000 0.0000 30.5878
#
#
#
# Elastic Compliance Matrix: (Units=1/GPa)
#
#
# Indices 1 2 3 4 5 6 
#
# 1 0.010436 -0.001024 -0.004957 0.000000 0.000000 0.000000
# 2 -0.001024 0.010436 -0.004957 0.000000 0.000000 0.000000
# 3 -0.004957 -0.004957 0.017002 0.000000 0.000000 0.000000
# 4 0.000000 0.000000 0.000000 0.110395 0.000000 0.000000
# 5 0.000000 0.000000 0.000000 0.000000 0.110417 0.000000
# 6 0.000000 0.000000 0.000000 0.000000 0.000000 0.032693
#
#
# Mechanical properties :
#
#
# Convention : Reuss Voigt Hill
#
# Bulk Modulus (GPa) = 62.50738 63.37602 62.94170
# Shear Modulus (GPa) = 15.69416 23.27531 19.48474
#
# Velocity S-wave (km/s) = 2.84089 3.45965 3.16542
# Velocity P-wave (km/s) = 6.55018 6.96776 6.76220
#
# Compressibility (1/GPa) = 0.01599811
#
# Stress axis : x y z
#
# Youngs Moduli (GPa) = 95.81833 95.81832 58.81579
#
# Poissons Ratio (x) = 0.09816 0.29156
# Poissons Ratio (y) = 0.09816 0.29155
# Poissons Ratio (z) = 0.47498 0.47497
#
# Static dielectric constant tensor:
#      x y z
#    x 1.717910 0.000000 0.000000 
#    y 0.000000 1.717900 0.000000 
#    z 0.000000 0.000000 1.702430 
# 
# From -- ./inp_files/7722.got.cif
#   From: 2010.05.17/outbox.cif.g08.bks.cpg/sg134_4_cif.got.tgz:7722.got - 2010.05.20 12:42:49.
