data_PCOD9568899
_publ_section_title
;
Structure prediction by ZEFSAII (Michael W. Deem and Ramdas Pophale) SiO2 
 PCOD9568899
Probable space group: P 42/M B C
;
_chemical_formula_sum "Si O2"
_cell_formula_units_Z 68
_cell_length_a 13.480240
_cell_length_b 13.480240
_cell_length_c 14.861947
_cell_angle_alpha 90.000000
_cell_angle_beta 90.000000
_cell_angle_gamma 90.000000
_cell_volume 2700.666498
_symmetry_space_group_name_H-M "P 42/M B C"
_symmetry_group_IT_number 135
_symmetry_cell_setting 'tetragonal'
loop_
_space_group_symop_operation_xyz
x,y,z
-y,x,1/2+z
-x,-y,z
y,-x,1/2+z
1/2+x,1/2-y,-z
1/2-x,1/2+y,-z
1/2+y,1/2+x,1/2-z
1/2-y,1/2-x,1/2-z
-x,-y,-z
y,-x,1/2-z
x,y,-z
-y,x,1/2-z
1/2-x,1/2+y,z
1/2+x,1/2-y,z
1/2-y,1/2-x,1/2+z
1/2+y,1/2+x,1/2+z
loop_
_atom_site_type_symbol
_atom_site_label
_atom_site_fract_x
_atom_site_fract_y
_atom_site_fract_z
Si Si1 0.450913 0.260638 0.327610
Si Si2 0.500000 0.000000 0.750000
Si Si3 0.606882 0.104775 0.108601
Si Si4 0.806681 0.171793 0.820793
Si Si5 0.914938 0.148191 0.000000
Si Si6 0.089601 0.873186 0.500000
O O1 0.498988 0.162433 0.372373
O O2 0.370647 0.267636 0.250207
O O3 0.553308 0.316272 0.298041
O O4 0.397896 0.313542 0.410143
O O5 0.516929 0.092912 0.819917
O O6 0.689473 0.179000 0.151546
O O7 0.591152 0.115040 0.000000
O O8 0.863037 0.190197 0.913434
O O9 0.031666 0.158733 0.000000
O O10 0.897431 0.028972 0.000000
#
# Coordination Sequence:
#
# PCOD9568899 Si02
#       6
#    16   4  16  16   8   8
#     4   9  16  29  53  90 132 163 182 227 290 378
#     4  12  26  44  80  74  92 160 238 288 304 362
#     4  10  21  43  65  92 116 156 211 265 312 346
#     4   9  16  29  53  90 132 163 182 227 290 378
#     4   9  14  22  42  82 129 178 183 200 262 361
#     4   9  14  22  42  82 129 178 183 200 262 361
#
# _framework density 25.178968000000001
#
# number of rings (size 3 to 8) (size 9 to 14) (size 15 to 20)
#    1.412    1.176    2.353    1.765    0.000    2.353 
#    0.000    1.176   10.353    2.824    0.000    0.000 
#    0.000    0.000    0.000    0.000    0.000    0.000 
#
# Total GULP energy -378780.226699 kJ/mol
# GULP energy per Si atom -5570.297451 kJ/mol
# Density = 2.512166 g / cm^3
# Si number density = 25.178968 Si / 1000 Ang^3
#
#
#
# Elastic Constant Matrix: (Units=GPa)
#
#
# Indices 1 2 3 4 5 6 
#
# 1 80.1919 37.0677 44.5353 0.0000 0.0000 0.0000
# 2 37.0677 80.1919 44.5353 0.0000 0.0000 0.0000
# 3 44.5353 44.5353 208.6045 0.0000 0.0000 0.0000
# 4 0.0000 0.0000 0.0000 163.0559 0.0000 0.0000
# 5 0.0000 0.0000 0.0000 0.0000 163.0559 0.0000
# 6 0.0000 0.0000 0.0000 0.0000 0.0000 20.2104
#
#
#
# Elastic Compliance Matrix: (Units=1/GPa)
#
#
# Indices 1 2 3 4 5 6 
#
# 1 0.016684 -0.006505 -0.002173 0.000000 0.000000 0.000000
# 2 -0.006505 0.016684 -0.002173 0.000000 0.000000 0.000000
# 3 -0.002173 -0.002173 0.005722 0.000000 0.000000 0.000000
# 4 0.000000 0.000000 0.000000 0.006133 0.000000 0.000000
# 5 0.000000 0.000000 0.000000 0.000000 0.006133 0.000000
# 6 0.000000 0.000000 0.000000 0.000000 0.000000 0.049479
#
#
# Mechanical properties :
#
#
# Convention : Reuss Voigt Hill
#
# Bulk Modulus (GPa) = 57.51477 69.02941 63.27209
# Shear Modulus (GPa) = 38.96130 85.45445 62.20787
#
# Velocity S-wave (km/s) = 3.93794 5.83202 4.97593
# Velocity P-wave (km/s) = 6.60064 8.53376 7.62868
#
# Compressibility (1/GPa) = 0.01738684
#
# Stress axis : x y z
#
# Youngs Moduli (GPa) = 59.93833 59.93833 174.77546
#
# Poissons Ratio (x) = 0.38990 0.37980
# Poissons Ratio (y) = 0.38990 0.37980
# Poissons Ratio (z) = 0.13025 0.13025
#
# Static dielectric constant tensor:
#      x y z
#    x 2.034270 0.000000 0.000000 
#    y 0.000000 2.034270 0.000000 
#    z 0.000000 0.000000 1.910320 
# 
# From -- ./inp_files/3337.got.cif
#   From: 2010.05.17/outbox.cif.g08.bks.cpg/sg135_2_cif.got.tgz:3337.got - 2010.05.20 12:50:20.
