data_PCOD9568027
_publ_section_title
;
Structure prediction by ZEFSAII (Michael W. Deem and Ramdas Pophale) SiO2 
 PCOD9568027
Probable space group: P 42/N B C
;
_chemical_formula_sum "Si O2"
_cell_formula_units_Z 56
_cell_length_a 9.943034
_cell_length_b 9.943034
_cell_length_c 20.081332
_cell_angle_alpha 90.000000
_cell_angle_beta 90.000000
_cell_angle_gamma 90.000000
_cell_volume 1985.319303
_symmetry_space_group_name_H-M "P 42/N B C"
_symmetry_group_IT_number 133
_space_group.IT_coordinate_system_code '2'
_symmetry_cell_setting 'tetragonal'
loop_
_space_group_symop_operation_xyz
x,y,z
1/2-y,x,1/2+z
1/2-x,1/2-y,z
y,1/2-x,1/2+z
x,1/2-y,-z
1/2-x,y,-z
y,x,1/2-z
1/2-y,1/2-x,1/2-z
-x,-y,-z
1/2+y,-x,1/2-z
1/2+x,1/2+y,-z
-y,1/2+x,1/2-z
-x,1/2+y,z
1/2+x,-y,z
-y,-x,1/2+z
1/2+y,1/2+x,1/2+z
loop_
_atom_site_type_symbol
_atom_site_label
_atom_site_fract_x
_atom_site_fract_y
_atom_site_fract_z
Si Si1 0.750000 0.250000 0.750000
Si Si2 0.052398 0.169855 0.852859
Si Si3 0.250000 0.250000 0.750000
Si Si4 0.946772 0.750000 0.000000
Si Si5 0.269232 0.552595 0.142005
Si Si6 0.501080 0.250000 0.500000
O O1 0.858495 0.195714 0.697519
O O2 0.107010 0.251966 0.789862
O O3 0.012320 0.244236 0.921406
O O4 0.307090 0.411468 0.862464
O O5 0.926107 0.071904 0.840347
O O6 0.872607 0.604413 0.002350
O O7 0.253971 0.592189 0.064858
#
# Coordination Sequence:
#
# PCOD9568027 Si02
#       6
#     4  16   4   8  16   8
#     4  12  28  42  60 104 160 198 248 312 384 466
#     4  11  25  46  75 107 146 195 255 315 385 463
#     4  12  24  42  76 108 148 206 252 304 380 478
#     4   9  20  42  72 103 134 185 248 307 376 467
#     4  11  26  46  72 109 151 199 253 321 388 463
#     4   9  20  43  74 102 138 185 246 311 380 450
#
# _framework density 28.207052000000001
#
# number of rings (size 3 to 8) (size 9 to 14) (size 15 to 20)
#    0.000    1.429    0.000    5.143    0.000   15.429 
#    0.000    0.000    0.000    8.571    0.000    0.000 
#    0.000    0.000    0.000    0.000    0.000    0.000 
#
# Total GULP energy -312269.637060 kJ/mol
# GULP energy per Si atom -5576.243519 kJ/mol
# Density = 2.814285 g / cm^3
# Si number density = 28.207052 Si / 1000 Ang^3
#
#
#
# Elastic Constant Matrix: (Units=GPa)
#
#
# Indices 1 2 3 4 5 6 
#
# 1 134.5573 50.9674 56.3244 0.0000 0.0000 0.0000
# 2 50.9674 134.5573 56.3244 0.0000 0.0000 0.0000
# 3 56.3244 56.3244 242.3153 0.0000 0.0000 0.0000
# 4 0.0000 0.0000 0.0000 14.8392 0.0000 0.0000
# 5 0.0000 0.0000 0.0000 0.0000 14.8392 0.0000
# 6 0.0000 0.0000 0.0000 0.0000 0.0000 30.3068
#
#
#
# Elastic Compliance Matrix: (Units=1/GPa)
#
#
# Indices 1 2 3 4 5 6 
#
# 1 0.009120 -0.002844 -0.001459 0.000000 0.000000 0.000000
# 2 -0.002844 0.009120 -0.001459 0.000000 0.000000 0.000000
# 3 -0.001459 -0.001459 0.004805 0.000000 0.000000 0.000000
# 4 0.000000 0.000000 0.000000 0.067389 0.000000 0.000000
# 5 0.000000 0.000000 0.000000 0.000000 0.067389 0.000000
# 6 0.000000 0.000000 0.000000 0.000000 0.000000 0.032996
#
#
# Mechanical properties :
#
#
# Convention : Reuss Voigt Hill
#
# Bulk Modulus (GPa) = 86.79314 93.18471 89.98892
# Shear Modulus (GPa) = 24.25052 35.18460 29.71756
#
# Velocity S-wave (km/s) = 2.93530 3.53564 3.24937
# Velocity P-wave (km/s) = 6.50575 7.05517 6.78602
#
# Compressibility (1/GPa) = 0.01152165
#
# Stress axis : x y z
#
# Youngs Moduli (GPa) = 109.65480 109.65480 208.11564
#
# Poissons Ratio (x) = 0.31182 0.30360
# Poissons Ratio (y) = 0.31182 0.30360
# Poissons Ratio (z) = 0.15996 0.15996
#
# Static dielectric constant tensor:
#      x y z
#    x 2.246690 0.000000 0.000000 
#    y 0.000000 2.246690 0.000000 
#    z 0.000000 0.000000 2.463020 
# 
# From -- ./inp_files/6108.got.cif
#   From: 2010.05.17/outbox.cif.g08.bks.cpg/sg133_4_cif.got.tgz:6108.got - 2010.05.20 12:37:36.
