data_PCOD9568913
_publ_section_title
;
Structure prediction by ZEFSAII (Michael W. Deem and Ramdas Pophale) SiO2 
 PCOD9568913
Probable space group: P 42/M B C
;
_chemical_formula_sum "Si O2"
_cell_formula_units_Z 96
_cell_length_a 13.947515
_cell_length_b 13.947515
_cell_length_c 26.695582
_cell_angle_alpha 90.000000
_cell_angle_beta 90.000000
_cell_angle_gamma 90.000000
_cell_volume 5193.176316
_symmetry_space_group_name_H-M "P 42/M B C"
_symmetry_group_IT_number 135
_symmetry_cell_setting 'tetragonal'
loop_
_space_group_symop_operation_xyz
x,y,z
-y,x,1/2+z
-x,-y,z
y,-x,1/2+z
1/2+x,1/2-y,-z
1/2-x,1/2+y,-z
1/2+y,1/2+x,1/2-z
1/2-y,1/2-x,1/2-z
-x,-y,-z
y,-x,1/2-z
x,y,-z
-y,x,1/2-z
1/2-x,1/2+y,z
1/2+x,1/2-y,z
1/2-y,1/2-x,1/2+z
1/2+y,1/2+x,1/2+z
loop_
_atom_site_type_symbol
_atom_site_label
_atom_site_fract_x
_atom_site_fract_y
_atom_site_fract_z
Si Si1 0.273057 0.116418 0.605097
Si Si2 0.914020 0.756211 0.849082
Si Si3 0.843397 1.000000 0.750000
Si Si4 0.370558 0.902950 0.000000
Si Si5 0.402950 0.129442 0.000000
Si Si6 0.273057 0.883582 0.894903
Si Si7 0.756211 0.914020 0.150918
O O1 0.318576 0.130975 0.550359
O O2 0.175005 0.175005 0.609003
O O3 0.346945 0.163182 0.644958
O O4 0.256801 0.005394 0.615723
O O5 0.955745 0.780345 0.794348
O O6 0.846945 0.663182 0.855042
O O7 0.845763 0.845763 0.863354
O O8 0.914966 0.085034 0.768516
O O9 0.780345 0.955745 0.794348
O O10 0.481128 0.871158 0.000000
O O11 0.318576 0.869025 0.050359
O O12 0.371158 0.018872 0.000000
O O13 0.256801 0.994606 0.884277
#
# Coordination Sequence:
#
# PCOD9568913 Si02
#       7
#    16  16  16   8   8  16  16
#     4  11  22  38  61  86 118 155 195 245 294 346
#     4  10  22  38  59  88 118 154 198 240 290 351
#     4   9  18  36  60  85 120 160 194 235 288 347
#     4  11  21  38  62  83 114 158 194 245 296 350
#     4  11  21  38  62  83 114 158 194 245 296 350
#     4  11  22  38  61  86 118 155 195 245 294 346
#     4  10  22  38  59  88 118 154 198 240 290 351
#
# _framework density 18.485795
#
# number of rings (size 3 to 8) (size 9 to 14) (size 15 to 20)
#    0.000    1.667    3.333    1.500    0.000    4.000 
#    0.000    5.833    0.000    4.000    0.000    0.000 
#    0.000    0.000    0.000    0.000    0.000    0.000 
#
# Total GULP energy -535841.742736 kJ/mol
# GULP energy per Si atom -5581.684820 kJ/mol
# Density = 1.844372 g / cm^3
# Si number density = 18.485795 Si / 1000 Ang^3
#
#
#
# Elastic Constant Matrix: (Units=GPa)
#
#
# Indices 1 2 3 4 5 6 
#
# 1 83.3812 31.6392 19.2914 0.0000 0.0000 0.0000
# 2 31.6392 83.3812 19.2914 0.0000 0.0000 0.0000
# 3 19.2914 19.2914 68.5288 0.0000 0.0000 0.0000
# 4 0.0000 0.0000 0.0000 29.4976 0.0000 0.0000
# 5 0.0000 0.0000 0.0000 0.0000 29.4976 0.0000
# 6 0.0000 0.0000 0.0000 0.0000 0.0000 11.4630
#
#
#
# Elastic Compliance Matrix: (Units=1/GPa)
#
#
# Indices 1 2 3 4 5 6 
#
# 1 0.014464 -0.004863 -0.002703 0.000000 0.000000 0.000000
# 2 -0.004863 0.014464 -0.002703 0.000000 0.000000 0.000000
# 3 -0.002703 -0.002703 0.016114 0.000000 0.000000 0.000000
# 4 0.000000 0.000000 0.000000 0.033901 0.000000 0.000000
# 5 0.000000 0.000000 0.000000 0.000000 0.033901 0.000000
# 6 0.000000 0.000000 0.000000 0.000000 0.000000 0.087237
#
#
# Mechanical properties :
#
#
# Convention : Reuss Voigt Hill
#
# Bulk Modulus (GPa) = 40.80837 41.74834 41.27836
# Shear Modulus (GPa) = 21.85452 25.09626 23.47539
#
# Velocity S-wave (km/s) = 3.44209 3.68856 3.56745
# Velocity P-wave (km/s) = 6.15799 6.38542 6.27274
#
# Compressibility (1/GPa) = 0.02450478
#
# Stress axis : x y z
#
# Youngs Moduli (GPa) = 69.13877 69.13877 62.05761
#
# Poissons Ratio (x) = 0.33622 0.16772
# Poissons Ratio (y) = 0.33622 0.16772
# Poissons Ratio (z) = 0.18686 0.18686
#
# Static dielectric constant tensor:
#      x y z
#    x 1.619070 0.000000 0.000000 
#    y 0.000000 1.619070 0.000000 
#    z 0.000000 0.000000 1.626530 
# 
# From -- ./inp_files/6072.got.cif
#   From: 2010.05.17/outbox.cif.g08.bks.cpg/sg135_4_cif.got.tgz:6072.got - 2010.05.20 12:50:20.
