data_PCOD9568709
_publ_section_title
;
Structure prediction by ZEFSAII (Michael W. Deem and Ramdas Pophale) SiO2 
 PCOD9568709
Probable space group: P 42/M B C
;
_chemical_formula_sum "Si O2"
_cell_formula_units_Z 120
_cell_length_a 20.310785
_cell_length_b 20.310785
_cell_length_c 16.021410
_cell_angle_alpha 90.000000
_cell_angle_beta 90.000000
_cell_angle_gamma 90.000000
_cell_volume 6609.280021
_symmetry_space_group_name_H-M "P 42/M B C"
_symmetry_group_IT_number 135
_symmetry_cell_setting 'tetragonal'
loop_
_space_group_symop_operation_xyz
x,y,z
-y,x,1/2+z
-x,-y,z
y,-x,1/2+z
1/2+x,1/2-y,-z
1/2-x,1/2+y,-z
1/2+y,1/2+x,1/2-z
1/2-y,1/2-x,1/2-z
-x,-y,-z
y,-x,1/2-z
x,y,-z
-y,x,1/2-z
1/2-x,1/2+y,z
1/2+x,1/2-y,z
1/2-y,1/2-x,1/2+z
1/2+y,1/2+x,1/2+z
loop_
_atom_site_type_symbol
_atom_site_label
_atom_site_fract_x
_atom_site_fract_y
_atom_site_fract_z
Si Si1 0.475128 0.124864 0.728750
Si Si2 0.644932 0.691155 0.694885
Si Si3 0.367970 0.766828 0.100893
Si Si4 0.307484 0.506635 0.593850
Si Si5 0.196143 0.595518 0.095037
Si Si6 0.381166 0.218157 0.842290
Si Si7 0.629879 0.129879 0.250000
Si Si8 0.912443 0.952214 0.732040
O O1 0.447407 0.052594 0.750000
O O2 0.453767 0.144416 0.636007
O O3 0.430599 0.172567 0.787290
O O4 0.551576 0.137840 0.738073
O O5 0.707051 0.676098 0.636995
O O6 0.593665 0.735197 0.643120
O O7 0.657617 0.734638 0.777964
O O8 0.607154 0.626328 0.724717
O O9 0.442852 0.738508 0.111339
O O10 0.355057 0.827176 0.166049
O O11 0.358343 0.778989 0.000000
O O12 0.332807 0.498490 0.500000
O O13 0.262059 0.571523 0.601285
O O14 0.366453 0.519545 0.658536
O O15 0.166659 0.668546 0.110554
O O16 0.794159 0.417907 0.000000
O O17 0.984860 0.925959 0.708386
#
# Coordination Sequence:
#
# PCOD9568709 Si02
#       8
#    16  16  16  16  16  16   8  16
#     4   9  19  36  56  82 110 149 199 242 294 343
#     4  10  20  36  58  82 117 150 195 237 287 349
#     4  11  24  39  59  88 119 158 198 236 294 357
#     4  10  19  36  58  84 114 146 193 245 288 343
#     4  10  20  34  57  85 115 150 196 246 292 346
#     4   9  18  35  58  82 109 152 197 238 285 349
#     4  12  23  38  62  82 122 164 192 243 300 358
#     4  10  20  37  61  85 110 150 194 236 293 356
#
# _framework density 18.156289999999998
#
# number of rings (size 3 to 8) (size 9 to 14) (size 15 to 20)
#    0.000    2.000    2.667    2.200    1.867    0.533 
#    0.000    2.667    0.000    2.400    0.000    0.000 
#    0.000    0.000    0.000    0.000    0.000    0.000 
#
# Total GULP energy -668290.992158 kJ/mol
# GULP energy per Si atom -5569.091601 kJ/mol
# Density = 1.811497 g / cm^3
# Si number density = 18.156290 Si / 1000 Ang^3
#
#
#
# Elastic Constant Matrix: (Units=GPa)
#
#
# Indices 1 2 3 4 5 6 
#
# 1 64.6652 11.8845 15.3538 0.0000 0.0000 0.0000
# 2 11.8845 64.6667 15.3543 0.0000 0.0000 0.0000
# 3 15.3538 15.3543 84.1441 0.0000 0.0000 0.0000
# 4 0.0000 0.0000 0.0000 18.0625 0.0000 0.0000
# 5 0.0000 0.0000 0.0000 0.0000 18.0618 0.0000
# 6 0.0000 0.0000 0.0000 0.0000 0.0000 25.1814
#
#
#
# Elastic Compliance Matrix: (Units=1/GPa)
#
#
# Indices 1 2 3 4 5 6 
#
# 1 0.016521 -0.002426 -0.002572 0.000000 0.000000 0.000000
# 2 -0.002426 0.016520 -0.002572 0.000000 0.000000 0.000000
# 3 -0.002572 -0.002572 0.012823 0.000000 0.000000 0.000000
# 4 0.000000 0.000000 0.000000 0.055363 0.000000 0.000000
# 5 0.000000 0.000000 0.000000 0.000000 0.055366 0.000000
# 6 0.000000 0.000000 0.000000 0.000000 0.000000 0.039712
#
#
# Mechanical properties :
#
#
# Convention : Reuss Voigt Hill
#
# Bulk Modulus (GPa) = 32.54660 33.18458 32.86559
# Shear Modulus (GPa) = 22.55446 23.65335 23.10390
#
# Velocity S-wave (km/s) = 3.52837 3.61330 3.57108
# Velocity P-wave (km/s) = 5.87910 5.97702 5.92826
#
# Compressibility (1/GPa) = 0.03072518
#
# Stress axis : x y z
#
# Youngs Moduli (GPa) = 60.53011 60.53142 77.98481
#
# Poissons Ratio (x) = 0.14682 0.20057
# Poissons Ratio (y) = 0.14682 0.20058
# Poissons Ratio (z) = 0.15568 0.15569
#
# Static dielectric constant tensor:
#      x y z
#    x 1.644020 0.000000 0.000000 
#    y 0.000000 1.644020 0.000000 
#    z 0.000000 0.000000 1.625050 
# 
# From -- ./inp_files/3716.got.cif
#   From: 2010.05.17/outbox.cif.g08.bks.cpg/sg135_2_cif.got.tgz:3716.got - 2010.05.20 12:50:20.
