data_PCOD9568403
_publ_section_title
;
Structure prediction by ZEFSAII (Michael W. Deem and Ramdas Pophale) SiO2 
 PCOD9568403
Probable space group: P 42/N N M
;
_chemical_formula_sum "Si O2"
_cell_formula_units_Z 36
_cell_length_a 9.910877
_cell_length_b 9.910877
_cell_length_c 16.535662
_cell_angle_alpha 90.000000
_cell_angle_beta 90.000000
_cell_angle_gamma 90.000000
_cell_volume 1624.223385
_symmetry_space_group_name_H-M "P 42/N N M"
_symmetry_group_IT_number 134
_space_group.IT_coordinate_system_code '2'
_symmetry_cell_setting 'tetragonal'
loop_
_space_group_symop_operation_xyz
x,y,z
1/2-y,x,1/2+z
1/2-x,1/2-y,z
y,1/2-x,1/2+z
x,1/2-y,1/2-z
1/2-x,y,1/2-z
y,x,-z
1/2-y,1/2-x,-z
-x,-y,-z
1/2+y,-x,1/2-z
1/2+x,1/2+y,-z
-y,1/2+x,1/2-z
-x,1/2+y,1/2+z
1/2+x,-y,1/2+z
-y,-x,z
1/2+y,1/2+x,z
loop_
_atom_site_type_symbol
_atom_site_label
_atom_site_fract_x
_atom_site_fract_y
_atom_site_fract_z
Si Si1 0.750000 0.250000 0.250000
Si Si2 0.544084 0.455917 0.199963
Si Si3 0.250000 0.750000 0.250000
Si Si4 0.060950 0.939051 0.360466
Si Si5 0.176967 0.040587 0.073226
O O1 0.656697 0.343304 0.193881
O O2 0.521757 0.478244 0.294781
O O3 0.404964 0.416305 0.154320
O O4 0.156956 0.843045 0.305154
O O5 0.973930 0.834168 0.411531
O O6 0.134994 0.134994 0.000000
O O7 0.105695 0.894305 0.055153
#
# Coordination Sequence:
#
# PCOD9568403 Si02
#       5
#     2   8   2   8  16
#     4  12  28  44  54  76 128 156 222 276 324 380
#     4  10  21  37  60  83 117 178 212 256 328 381
#     4  12  12  24  62  92 120 144 192 278 272 380
#     4  12  16  32  64  95 130 160 215 258 303 401
#     4   9  18  31  58 102 126 157 197 252 334 381
#
# _framework density 22.164437
#
# number of rings (size 3 to 8) (size 9 to 14) (size 15 to 20)
#    1.333    0.444    6.667    0.000    0.000    1.778 
#    0.000    4.444    0.000   10.667    0.000    0.000 
#    0.000    0.000    0.000    0.000    0.000    0.000 
#
# Total GULP energy -201008.750922 kJ/mol
# GULP energy per Si atom -5583.576415 kJ/mol
# Density = 2.211399 g / cm^3
# Si number density = 22.164437 Si / 1000 Ang^3
#
#
#
# Elastic Constant Matrix: (Units=GPa)
#
#
# Indices 1 2 3 4 5 6 
#
# 1 64.7066 72.1329 51.8101 0.0000 0.0000 0.0000
# 2 72.1329 64.7066 51.8101 0.0000 0.0000 0.0000
# 3 51.8101 51.8101 112.9653 0.0000 0.0000 0.0000
# 4 0.0000 0.0000 0.0000 10.7859 0.0000 0.0000
# 5 0.0000 0.0000 0.0000 0.0000 10.7859 0.0000
# 6 0.0000 0.0000 0.0000 0.0000 0.0000 46.0808
#
#
#
# Elastic Compliance Matrix: (Units=1/GPa)
#
#
# Indices 1 2 3 4 5 6 
#
# 1 -0.061730 0.072927 -0.005135 0.000000 0.000000 0.000000
# 2 0.072927 -0.061730 -0.005135 0.000000 0.000000 0.000000
# 3 -0.005135 -0.005135 0.013563 0.000000 0.000000 0.000000
# 4 0.000000 0.000000 0.000000 0.092713 0.000000 0.000000
# 5 0.000000 0.000000 0.000000 0.000000 0.092713 0.000000
# 6 0.000000 0.000000 0.000000 0.000000 0.000000 0.021701
#
#
# Mechanical properties :
#
#
# Convention : Reuss Voigt Hill
#
# Bulk Modulus (GPa) = 64.87209 65.98716 65.42962
# Shear Modulus (GPa) = -217.90938 17.97223 -99.96857
#
# Velocity S-wave (km/s) = -9.92614 2.85065 -6.72317
# Velocity P-wave (km/s) = 10.10143 6.37740 5.53930
#
# Compressibility (1/GPa) = 0.01541495
#
# Stress axis : x y z
#
# Youngs Moduli (GPa) = -16.19948 -16.19948 73.73267
#
# Poissons Ratio (x) = 1.18137 0.37862
# Poissons Ratio (y) = 1.18137 0.37862
# Poissons Ratio (z) = -0.08318 -0.08318
#
# Static dielectric constant tensor:
#      x y z
#    x 1.862210 0.000000 0.000000 
#    y 0.000000 1.862210 0.000000 
#    z 0.000000 0.000000 1.806170 
# 
# From -- ./inp_files/5677.got.cif
#   From: 2010.05.17/outbox.cif.g08.bks.cpg/sg134_3_cif.got.tgz:5677.got - 2010.05.20 12:42:49.
