data_PCOD9568721
_publ_section_title
;
Structure prediction by ZEFSAII (Michael W. Deem and Ramdas Pophale) SiO2 
 PCOD9568721
Probable space group: P 42/M B C
;
_chemical_formula_sum "Si O2"
_cell_formula_units_Z 84
_cell_length_a 13.939379
_cell_length_b 13.939379
_cell_length_c 19.840867
_cell_angle_alpha 90.000000
_cell_angle_beta 90.000000
_cell_angle_gamma 90.000000
_cell_volume 3855.205196
_symmetry_space_group_name_H-M "P 42/M B C"
_symmetry_group_IT_number 135
_symmetry_cell_setting 'tetragonal'
loop_
_space_group_symop_operation_xyz
x,y,z
-y,x,1/2+z
-x,-y,z
y,-x,1/2+z
1/2+x,1/2-y,-z
1/2-x,1/2+y,-z
1/2+y,1/2+x,1/2-z
1/2-y,1/2-x,1/2-z
-x,-y,-z
y,-x,1/2-z
x,y,-z
-y,x,1/2-z
1/2-x,1/2+y,z
1/2+x,1/2-y,z
1/2-y,1/2-x,1/2+z
1/2+y,1/2+x,1/2+z
loop_
_atom_site_type_symbol
_atom_site_label
_atom_site_fract_x
_atom_site_fract_y
_atom_site_fract_z
Si Si1 0.993312 0.713894 0.350122
Si Si2 0.000000 0.000000 0.250000
Si Si3 0.790254 0.528955 0.000000
Si Si4 0.725877 0.260302 0.648002
Si Si5 0.084217 0.893166 0.500000
Si Si6 0.760659 0.753294 0.500000
Si Si7 0.141509 0.641509 0.750000
Si Si8 0.880731 0.095816 0.355242
O O1 0.008656 0.675857 0.427157
O O2 0.882451 0.732721 0.337481
O O3 0.045945 0.652100 0.293520
O O4 0.042476 0.818023 0.349213
O O5 0.978364 0.909031 0.202275
O O6 0.673746 0.510920 0.000000
O O7 0.809520 0.642293 0.000000
O O8 0.736054 0.302468 0.572412
O O9 0.772110 0.337443 0.697650
O O10 0.783955 0.158576 0.650660
O O11 0.165920 0.810719 0.500000
O O12 0.102384 0.946887 0.430049
#
# Coordination Sequence:
#
# PCOD9568721 Si02
#       8
#    16   4   8  16   8   8   8  16
#     4   9  18  33  55  83 117 151 200 240 295 348
#     4  12  24  34  48  88 120 154 188 232 304 370
#     4   8  14  28  51  79 108 149 192 247 285 339
#     4   9  18  34  54  82 119 161 195 248 295 349
#     4   8  14  31  50  74 111 148 195 237 290 336
#     4   8  14  28  53  77 107 153 208 236 288 347
#     4  10  20  30  52  94 118 154 192 236 298 364
#     4   9  20  33  53  82 115 157 192 243 291 349
#
# _framework density 21.788724999999999
#
# number of rings (size 3 to 8) (size 9 to 14) (size 15 to 20)
#    0.000    3.048    0.000    1.143    5.333    0.381 
#    0.000    0.000    0.000    0.571    4.952    5.333 
#    0.000    4.571    1.143    0.000    0.000    0.571 
#
# Total GULP energy -468265.622463 kJ/mol
# GULP energy per Si atom -5574.590744 kJ/mol
# Density = 2.173913 g / cm^3
# Si number density = 21.788725 Si / 1000 Ang^3
#
#
#
# Elastic Constant Matrix: (Units=GPa)
#
#
# Indices 1 2 3 4 5 6 
#
# 1 87.2812 13.6460 23.0173 0.0000 0.0000 0.0000
# 2 13.6460 87.2812 23.0173 0.0000 0.0000 0.0000
# 3 23.0173 23.0173 116.0256 0.0000 0.0000 0.0000
# 4 0.0000 0.0000 0.0000 2.1857 0.0000 0.0000
# 5 0.0000 0.0000 0.0000 0.0000 2.1857 0.0000
# 6 0.0000 0.0000 0.0000 0.0000 0.0000 12.5943
#
#
#
# Elastic Compliance Matrix: (Units=1/GPa)
#
#
# Indices 1 2 3 4 5 6 
#
# 1 0.012237 -0.001343 -0.002161 0.000000 0.000000 0.000000
# 2 -0.001343 0.012237 -0.002161 0.000000 0.000000 0.000000
# 3 -0.002161 -0.002161 0.009476 0.000000 0.000000 0.000000
# 4 0.000000 0.000000 0.000000 0.457526 0.000000 0.000000
# 5 0.000000 0.000000 0.000000 0.000000 0.457526 0.000000
# 6 0.000000 0.000000 0.000000 0.000000 0.000000 0.079401
#
#
# Mechanical properties :
#
#
# Convention : Reuss Voigt Hill
#
# Bulk Modulus (GPa) = 44.20981 45.54992 44.87986
# Shear Modulus (GPa) = 4.77429 18.78695 11.78062
#
# Velocity S-wave (km/s) = 1.48187 2.93957 2.32776
# Velocity P-wave (km/s) = 4.82309 5.69842 5.27893
#
# Compressibility (1/GPa) = 0.02261942
#
# Stress axis : x y z
#
# Youngs Moduli (GPa) = 81.71830 81.71830 105.52698
#
# Poissons Ratio (x) = 0.10977 0.22806
# Poissons Ratio (y) = 0.10977 0.22806
# Poissons Ratio (z) = 0.17660 0.17660
#
# Static dielectric constant tensor:
#      x y z
#    x 1.793290 0.000000 0.000000 
#    y 0.000000 1.793290 0.000000 
#    z 0.000000 0.000000 1.906880 
# 
# From -- ./inp_files/5401.got.cif
#   From: 2010.05.17/outbox.cif.g08.bks.cpg/sg135_3_cif.got.tgz:5401.got - 2010.05.20 12:50:20.
