data_PCOD9568901
_publ_section_title
;
Structure prediction by ZEFSAII (Michael W. Deem and Ramdas Pophale) SiO2 
 PCOD9568901
Probable space group: P 42/M B C
;
_chemical_formula_sum "Si O2"
_cell_formula_units_Z 44
_cell_length_a 9.565281
_cell_length_b 9.565281
_cell_length_c 21.749913
_cell_angle_alpha 90.000000
_cell_angle_beta 90.000000
_cell_angle_gamma 90.000000
_cell_volume 1989.999603
_symmetry_space_group_name_H-M "P 42/M B C"
_symmetry_group_IT_number 135
_symmetry_cell_setting 'tetragonal'
loop_
_space_group_symop_operation_xyz
x,y,z
-y,x,1/2+z
-x,-y,z
y,-x,1/2+z
1/2+x,1/2-y,-z
1/2-x,1/2+y,-z
1/2+y,1/2+x,1/2-z
1/2-y,1/2-x,1/2-z
-x,-y,-z
y,-x,1/2-z
x,y,-z
-y,x,1/2-z
1/2-x,1/2+y,z
1/2+x,1/2-y,z
1/2-y,1/2-x,1/2+z
1/2+y,1/2+x,1/2+z
loop_
_atom_site_type_symbol
_atom_site_label
_atom_site_fract_x
_atom_site_fract_y
_atom_site_fract_z
Si Si1 0.500000 0.500000 0.750000
Si Si2 0.149106 0.750767 0.571388
Si Si3 0.470995 0.301409 0.855679
Si Si4 0.500000 0.000000 0.124186
O O1 0.434824 0.386413 0.795353
O O2 0.164917 0.782804 0.500000
O O3 0.135749 0.893343 0.609910
O O4 0.278028 0.658097 0.598109
O O5 0.025526 0.637845 0.582894
O O6 0.512195 0.142317 0.838436
#
# Coordination Sequence:
#
# PCOD9568901 Si02
#       4
#     4  16  16   8
#     4  12  28  48  62 100 156 184 256 270 352 452
#     4  10  21  43  72 106 136 175 241 301 368 419
#     4  10  25  44  69 100 137 194 228 302 349 425
#     4   8  23  44  71 100 134 183 229 286 376 402
#
# _framework density 22.110558999999999
#
# number of rings (size 3 to 8) (size 9 to 14) (size 15 to 20)
#    2.182    0.000    0.000    1.636    5.091    1.455 
#    0.000    3.636    0.000    0.000    0.000    0.000 
#    0.000    0.000    0.000    0.000    0.000    0.000 
#
# Total GULP energy -245208.398096 kJ/mol
# GULP energy per Si atom -5572.918139 kJ/mol
# Density = 2.206023 g / cm^3
# Si number density = 22.110559 Si / 1000 Ang^3
#
#
#
# Elastic Constant Matrix: (Units=GPa)
#
#
# Indices 1 2 3 4 5 6 
#
# 1 86.3077 -15.2853 12.1061 0.0000 0.0000 0.0000
# 2 -15.2853 86.3077 12.1061 0.0000 0.0000 0.0000
# 3 12.1061 12.1061 61.2086 0.0000 0.0000 0.0000
# 4 0.0000 0.0000 0.0000 17.6611 0.0000 0.0000
# 5 0.0000 0.0000 0.0000 0.0000 17.6611 0.0000
# 6 0.0000 0.0000 0.0000 0.0000 0.0000 39.1633
#
#
#
# Elastic Compliance Matrix: (Units=1/GPa)
#
#
# Indices 1 2 3 4 5 6 
#
# 1 0.012471 0.002627 -0.002986 0.000000 0.000000 0.000000
# 2 0.002627 0.012471 -0.002986 0.000000 0.000000 0.000000
# 3 -0.002986 -0.002986 0.017519 0.000000 0.000000 0.000000
# 4 0.000000 0.000000 0.000000 0.056622 0.000000 0.000000
# 5 0.000000 0.000000 0.000000 0.000000 0.056622 0.000000
# 6 0.000000 0.000000 0.000000 0.000000 0.000000 0.025534
#
#
# Mechanical properties :
#
#
# Convention : Reuss Voigt Hill
#
# Bulk Modulus (GPa) = 27.95613 27.96418 27.96015
# Shear Modulus (GPa) = 25.01865 29.89021 27.45443
#
# Velocity S-wave (km/s) = 3.36746 3.68074 3.52758
# Velocity P-wave (km/s) = 5.27172 5.54425 5.40970
#
# Compressibility (1/GPa) = 0.03577033
#
# Stress axis : x y z
#
# Youngs Moduli (GPa) = 80.18835 80.18835 57.08151
#
# Poissons Ratio (x) = -0.21069 0.17045
# Poissons Ratio (y) = -0.21069 0.17045
# Poissons Ratio (z) = 0.23946 0.23946
#
# Static dielectric constant tensor:
#      x y z
#    x 1.896470 0.000000 0.000000 
#    y 0.000000 1.896470 0.000000 
#    z 0.000000 0.000000 1.710830 
# 
# From -- ./inp_files/3954.got.cif
#   From: 2010.05.17/outbox.cif.g08.bks.cpg/sg135_2_cif.got.tgz:3954.got - 2010.05.20 12:50:20.
