data_PCOD9568004
_publ_section_title
;
Structure prediction by ZEFSAII (Michael W. Deem and Ramdas Pophale) SiO2 
 PCOD9568004
Probable space group: P 42/N B C
;
_chemical_formula_sum "Si O2"
_cell_formula_units_Z 64
_cell_length_a 12.766720
_cell_length_b 12.766720
_cell_length_c 18.240122
_cell_angle_alpha 90.000000
_cell_angle_beta 90.000000
_cell_angle_gamma 90.000000
_cell_volume 2972.941790
_symmetry_space_group_name_H-M "P 42/N B C"
_symmetry_group_IT_number 133
_space_group.IT_coordinate_system_code '2'
_symmetry_cell_setting 'tetragonal'
loop_
_space_group_symop_operation_xyz
x,y,z
1/2-y,x,1/2+z
1/2-x,1/2-y,z
y,1/2-x,1/2+z
x,1/2-y,-z
1/2-x,y,-z
y,x,1/2-z
1/2-y,1/2-x,1/2-z
-x,-y,-z
1/2+y,-x,1/2-z
1/2+x,1/2+y,-z
-y,1/2+x,1/2-z
-x,1/2+y,z
1/2+x,-y,z
-y,-x,1/2+z
1/2+y,1/2+x,1/2+z
loop_
_atom_site_type_symbol
_atom_site_label
_atom_site_fract_x
_atom_site_fract_y
_atom_site_fract_z
Si Si1 0.122660 0.750988 0.178143
Si Si2 0.149406 0.070436 0.961323
Si Si3 0.580302 0.143069 0.033959
Si Si4 0.880192 0.021010 0.195875
O O1 0.250000 0.750000 0.177439
O O2 0.095124 0.840017 0.119880
O O3 0.063190 0.786774 0.251930
O O4 0.081906 0.633185 0.162085
O O5 0.043143 0.131266 0.978620
O O6 0.154099 0.048898 0.873709
O O7 0.250000 0.119257 0.000000
O O8 0.134467 0.957946 0.000955
O O9 0.622288 0.250000 0.000000
O O10 0.960795 0.960795 0.250000
#
# Coordination Sequence:
#
# PCOD9568004 Si02
#       4
#    16  16  16  16
#     4  12  23  40  66  98 131 174 225 278 340 404
#     4  11  25  41  66  95 134 177 222 283 348 409
#     4  11  24  41  64  97 127 170 226 281 337 405
#     4  12  23  40  66  97 133 172 224 283 342 402
#
# _framework density 21.5275
#
# number of rings (size 3 to 8) (size 9 to 14) (size 15 to 20)
#    0.000    0.500    7.500    1.500    0.000    0.500 
#    0.000    0.000    0.000    0.750    0.000    0.000 
#    0.000    0.000    0.000    0.000    0.000    0.000 
#
# Total GULP energy -357078.582186 kJ/mol
# GULP energy per Si atom -5579.352847 kJ/mol
# Density = 2.147850 g / cm^3
# Si number density = 21.527500 Si / 1000 Ang^3
#
#
#
# Elastic Constant Matrix: (Units=GPa)
#
#
# Indices 1 2 3 4 5 6 
#
# 1 102.4313 23.6494 16.3931 0.0000 0.0000 0.0000
# 2 23.6494 102.4313 16.3931 0.0000 0.0000 0.0000
# 3 16.3931 16.3931 106.8395 0.0000 0.0000 0.0000
# 4 0.0000 0.0000 0.0000 30.9445 0.0000 0.0000
# 5 0.0000 0.0000 0.0000 0.0000 30.9445 0.0000
# 6 0.0000 0.0000 0.0000 0.0000 0.0000 -4.7641
#
#
#
# Elastic Compliance Matrix: (Units=1/GPa)
#
#
# Indices 1 2 3 4 5 6 
#
# 1 0.010477 -0.002216 -0.001268 0.000000 0.000000 0.000000
# 2 -0.002216 0.010477 -0.001268 0.000000 0.000000 0.000000
# 3 -0.001268 -0.001268 0.009749 0.000000 0.000000 0.000000
# 4 0.000000 0.000000 0.000000 0.032316 0.000000 0.000000
# 5 0.000000 0.000000 0.000000 0.000000 0.032316 0.000000
# 6 0.000000 0.000000 0.000000 0.000000 0.000000 -0.209904
#
#
# Mechanical properties :
#
#
# Convention : Reuss Voigt Hill
#
# Bulk Modulus (GPa) = 47.16824 47.17482 47.17153
# Shear Modulus (GPa) = -51.02057 28.44276 -11.28891
#
# Velocity S-wave (km/s) = -4.87356 3.63881 -2.29245
# Velocity P-wave (km/s) = 3.11618 6.29412 3.86687
#
# Compressibility (1/GPa) = 0.02120071
#
# Stress axis : x y z
#
# Youngs Moduli (GPa) = 95.44572 95.44572 102.57660
#
# Poissons Ratio (x) = 0.21152 0.13002
# Poissons Ratio (y) = 0.21152 0.13002
# Poissons Ratio (z) = 0.12098 0.12098
#
# Static dielectric constant tensor:
#      x y z
#    x 1.791380 0.000000 0.000000 
#    y 0.000000 1.791380 0.000000 
#    z 0.000000 0.000000 1.908370 
# 
# From -- ./inp_files/6173.got.cif
#   From: 2010.05.17/outbox.cif.g08.bks.cpg/sg133_4_cif.got.tgz:6173.got - 2010.05.20 12:37:36.
