data_PCOD9568812
_publ_section_title
;
Structure prediction by ZEFSAII (Michael W. Deem and Ramdas Pophale) SiO2 
 PCOD9568812
Probable space group: P 42/M B C
;
_chemical_formula_sum "Si O2"
_cell_formula_units_Z 64
_cell_length_a 14.277139
_cell_length_b 14.277139
_cell_length_c 15.674793
_cell_angle_alpha 90.000000
_cell_angle_beta 90.000000
_cell_angle_gamma 90.000000
_cell_volume 3195.098047
_symmetry_space_group_name_H-M "P 42/M B C"
_symmetry_group_IT_number 135
_symmetry_cell_setting 'tetragonal'
loop_
_space_group_symop_operation_xyz
x,y,z
-y,x,1/2+z
-x,-y,z
y,-x,1/2+z
1/2+x,1/2-y,-z
1/2-x,1/2+y,-z
1/2+y,1/2+x,1/2-z
1/2-y,1/2-x,1/2-z
-x,-y,-z
y,-x,1/2-z
x,y,-z
-y,x,1/2-z
1/2-x,1/2+y,z
1/2+x,1/2-y,z
1/2-y,1/2-x,1/2+z
1/2+y,1/2+x,1/2+z
loop_
_atom_site_type_symbol
_atom_site_label
_atom_site_fract_x
_atom_site_fract_y
_atom_site_fract_z
Si Si1 0.402241 0.041499 0.152018
Si Si2 0.904669 0.114390 0.250011
Si Si3 0.720089 0.144095 0.159516
Si Si4 0.239749 0.155702 0.093272
O O1 0.426000 0.074001 0.250000
O O2 0.348873 0.128588 0.108647
O O3 0.500000 0.000000 0.117586
O O4 0.331651 0.953190 0.141345
O O5 0.829726 0.130902 0.176670
O O6 0.890070 0.186562 0.326673
O O7 0.009961 0.116445 0.216936
O O8 0.676766 0.176766 0.250000
O O9 0.714538 0.234243 0.099106
O O10 0.212453 0.119716 0.000000
#
# Coordination Sequence:
#
# PCOD9568812 Si02
#       4
#    16  16  16  16
#     4  11  21  40  70  96 125 171 226 272 316 386
#     4  10  20  39  67  90 115 166 221 263 308 387
#     4  10  20  38  63  90 125 166 217 260 313 392
#     4  11  25  40  61  97 138 169 206 271 336 385
#
# _framework density 20.030685999999999
#
# number of rings (size 3 to 8) (size 9 to 14) (size 15 to 20)
#    0.000    1.500    5.000    2.250    0.000    1.500 
#    0.000    6.250    0.000    0.000    0.000    0.000 
#    0.000    0.000    0.000    0.000    0.000    0.000 
#
# Total GULP energy -356591.269498 kJ/mol
# GULP energy per Si atom -5571.738586 kJ/mol
# Density = 1.998510 g / cm^3
# Si number density = 20.030686 Si / 1000 Ang^3
#
#
#
# Elastic Constant Matrix: (Units=GPa)
#
#
# Indices 1 2 3 4 5 6 
#
# 1 86.3611 24.8921 14.2569 0.0000 0.0000 0.0000
# 2 24.8921 86.3613 14.2569 0.0000 0.0000 0.0000
# 3 14.2569 14.2569 42.6938 0.0000 0.0000 0.0000
# 4 0.0000 0.0000 0.0000 4.4239 0.0000 0.0000
# 5 0.0000 0.0000 0.0000 0.0000 4.4239 0.0000
# 6 0.0000 0.0000 0.0000 0.0000 0.0000 32.5200
#
#
#
# Elastic Compliance Matrix: (Units=1/GPa)
#
#
# Indices 1 2 3 4 5 6 
#
# 1 0.013049 -0.003219 -0.003282 0.000000 0.000000 0.000000
# 2 -0.003219 0.013049 -0.003283 0.000000 0.000000 0.000000
# 3 -0.003282 -0.003283 0.025615 0.000000 0.000000 0.000000
# 4 0.000000 0.000000 0.000000 0.226044 0.000000 0.000000
# 5 0.000000 0.000000 0.000000 0.000000 0.226045 0.000000
# 6 0.000000 0.000000 0.000000 0.000000 0.000000 0.030750
#
#
# Mechanical properties :
#
#
# Convention : Reuss Voigt Hill
#
# Bulk Modulus (GPa) = 31.10956 35.80312 33.45634
# Shear Modulus (GPa) = 8.85213 19.07425 13.96319
#
# Velocity S-wave (km/s) = 2.10449 3.08920 2.64311
# Velocity P-wave (km/s) = 4.63356 5.53509 5.10426
#
# Compressibility (1/GPa) = 0.03214446
#
# Stress axis : x y z
#
# Youngs Moduli (GPa) = 76.63379 76.63386 39.03978
#
# Poissons Ratio (x) = 0.24671 0.12815
# Poissons Ratio (y) = 0.24671 0.12815
# Poissons Ratio (z) = 0.25155 0.25155
#
# Static dielectric constant tensor:
#      x y z
#    x 1.747500 0.000000 0.000000 
#    y 0.000000 1.747500 0.000000 
#    z 0.000000 0.000000 1.689210 
# 
# From -- ./inp_files/3134.got.cif
#   From: 2010.05.17/outbox.cif.g08.bks.cpg/sg135_2_cif.got.tgz:3134.got - 2010.05.20 12:50:20.
