data_PCOD9568067
_publ_section_title
;
Structure prediction by ZEFSAII (Michael W. Deem and Ramdas Pophale) SiO2 
 PCOD9568067
Probable space group: P 42/N N M
;
_chemical_formula_sum "Si O2"
_cell_formula_units_Z 128
_cell_length_a 24.485853
_cell_length_b 24.485853
_cell_length_c 11.659742
_cell_angle_alpha 90.000000
_cell_angle_beta 90.000000
_cell_angle_gamma 90.000000
_cell_volume 6990.679901
_symmetry_space_group_name_H-M "P 42/N N M"
_symmetry_group_IT_number 134
_space_group.IT_coordinate_system_code '2'
_symmetry_cell_setting 'tetragonal'
loop_
_space_group_symop_operation_xyz
x,y,z
1/2-y,x,1/2+z
1/2-x,1/2-y,z
y,1/2-x,1/2+z
x,1/2-y,1/2-z
1/2-x,y,1/2-z
y,x,-z
1/2-y,1/2-x,-z
-x,-y,-z
1/2+y,-x,1/2-z
1/2+x,1/2+y,-z
-y,1/2+x,1/2-z
-x,1/2+y,1/2+z
1/2+x,-y,1/2+z
-y,-x,z
1/2+y,1/2+x,z
loop_
_atom_site_type_symbol
_atom_site_label
_atom_site_fract_x
_atom_site_fract_y
_atom_site_fract_z
Si Si1 0.136478 0.548687 0.097435
Si Si2 0.937005 0.653203 0.982637
Si Si3 0.941193 0.241285 0.882827
Si Si4 0.034348 0.185304 0.228174
Si Si5 0.616228 0.892738 0.621851
Si Si6 0.557955 0.146253 0.452159
Si Si7 0.071962 0.236246 0.880458
Si Si8 0.008086 0.592544 0.325084
O O1 0.091956 0.591956 0.057496
O O2 0.197970 0.564617 0.066401
O O3 0.129454 0.541870 0.234853
O O4 0.128607 0.488040 0.051192
O O5 0.959461 0.659433 0.853990
O O6 0.885750 0.614251 0.000000
O O7 0.921248 0.712699 0.034903
O O8 0.922993 0.250000 0.750000
O O9 0.006319 0.226922 0.881095
O O10 0.918259 0.196499 0.970933
O O11 0.032922 0.250000 0.250000
O O12 0.088766 0.162430 0.165169
O O13 0.983178 0.166814 0.148034
O O14 0.591455 0.908546 0.500000
O O15 0.680816 0.895024 0.598033
O O16 0.601036 0.944474 0.700073
O O17 0.606170 0.106170 0.410451
O O18 0.523920 0.112383 0.548025
O O19 0.086132 0.250000 0.750000
O O20 0.031551 0.531551 0.309622
#
# Coordination Sequence:
#
# PCOD9568067 Si02
#       8
#    16  16  16  16  16  16  16  16
#     4  10  20  34  56  86 120 157 198 248 302 367
#     4  11  23  39  59  84 119 162 209 255 310 379
#     4  10  16  31  57  85 117 149 193 247 301 362
#     4  12  25  41  59  87 126 165 207 261 312 376
#     4  12  20  35  58  82 111 151 195 246 306 362
#     4  11  22  38  60  91 126 160 202 252 313 379
#     4  10  19  35  58  83 107 147 200 248 299 364
#     4  10  19  33  55  90 123 149 191 245 305 371
#
# _framework density 18.310092999999998
#
# number of rings (size 3 to 8) (size 9 to 14) (size 15 to 20)
#    0.000    1.250    3.750    5.250    0.000    1.500 
#    0.000    0.000    0.000    7.875    0.000    0.875 
#    0.000    0.000    0.000    0.000    0.000    0.000 
#
# Total GULP energy -713141.670540 kJ/mol
# GULP energy per Si atom -5571.419301 kJ/mol
# Density = 1.826842 g / cm^3
# Si number density = 18.310093 Si / 1000 Ang^3
#
#
#
# Elastic Constant Matrix: (Units=GPa)
#
#
# Indices 1 2 3 4 5 6 
#
# 1 100.3900 73.4647 33.8712 0.0000 0.0000 0.0000
# 2 73.4647 100.3861 33.8705 0.0000 0.0000 0.0000
# 3 33.8712 33.8705 103.8029 0.0000 0.0000 0.0000
# 4 0.0000 0.0000 0.0000 22.1972 0.0000 0.0000
# 5 0.0000 0.0000 0.0000 0.0000 22.1970 0.0000
# 6 0.0000 0.0000 0.0000 0.0000 0.0000 6.9685
#
#
#
# Elastic Compliance Matrix: (Units=1/GPa)
#
#
# Indices 1 2 3 4 5 6 
#
# 1 0.021866 -0.015276 -0.002150 0.000000 0.000000 0.000000
# 2 -0.015276 0.021867 -0.002150 0.000000 0.000000 0.000000
# 3 -0.002150 -0.002150 0.011037 0.000000 0.000000 0.000000
# 4 0.000000 0.000000 0.000000 0.045051 0.000000 0.000000
# 5 0.000000 0.000000 0.000000 0.000000 0.045051 0.000000
# 6 0.000000 0.000000 0.000000 0.000000 0.000000 0.143503
#
#
# Mechanical properties :
#
#
# Convention : Reuss Voigt Hill
#
# Bulk Modulus (GPa) = 64.03877 65.22129 64.63003
# Shear Modulus (GPa) = 15.02706 21.16404 18.09555
#
# Velocity S-wave (km/s) = 2.86789 3.40349 3.14711
# Velocity P-wave (km/s) = 6.78358 7.15142 6.96992
#
# Compressibility (1/GPa) = 0.01561554
#
# Stress axis : x y z
#
# Youngs Moduli (GPa) = 45.73367 45.73189 90.60508
#
# Poissons Ratio (x) = 0.69861 0.19482
# Poissons Ratio (y) = 0.69864 0.19483
# Poissons Ratio (z) = 0.09834 0.09834
#
# Static dielectric constant tensor:
#      x y z
#    x 1.662200 0.000000 0.000000 
#    y 0.000000 1.662200 0.000000 
#    z 0.000000 0.000000 1.748110 
# 
# From -- ./inp_files/5313.got.cif
#   From: 2010.05.17/outbox.cif.g08.bks.cpg/sg134_3_cif.got.tgz:5313.got - 2010.05.20 12:42:49.
