data_PCOD9568679
_publ_section_title
;
Structure prediction by ZEFSAII (Michael W. Deem and Ramdas Pophale) SiO2 
 PCOD9568679
Probable space group: P 42/M B C
;
_chemical_formula_sum "Si O2"
_cell_formula_units_Z 96
_cell_length_a 14.127446
_cell_length_b 14.127446
_cell_length_c 23.990934
_cell_angle_alpha 90.000000
_cell_angle_beta 90.000000
_cell_angle_gamma 90.000000
_cell_volume 4788.224096
_symmetry_space_group_name_H-M "P 42/M B C"
_symmetry_group_IT_number 135
_symmetry_cell_setting 'tetragonal'
loop_
_space_group_symop_operation_xyz
x,y,z
-y,x,1/2+z
-x,-y,z
y,-x,1/2+z
1/2+x,1/2-y,-z
1/2-x,1/2+y,-z
1/2+y,1/2+x,1/2-z
1/2-y,1/2-x,1/2-z
-x,-y,-z
y,-x,1/2-z
x,y,-z
-y,x,1/2-z
1/2-x,1/2+y,z
1/2+x,1/2-y,z
1/2-y,1/2-x,1/2+z
1/2+y,1/2+x,1/2+z
loop_
_atom_site_type_symbol
_atom_site_label
_atom_site_fract_x
_atom_site_fract_y
_atom_site_fract_z
Si Si1 0.496172 0.840339 0.247593
Si Si2 0.171032 0.821028 0.439117
Si Si3 0.378452 0.871150 0.933300
Si Si4 0.894221 0.967827 0.437730
Si Si5 0.452134 0.204142 0.366445
Si Si6 0.783848 0.444860 0.370844
O O1 0.577496 0.922505 0.250000
O O2 0.511543 0.782034 0.303937
O O3 0.508771 0.781958 0.190858
O O4 0.397484 0.897484 0.250000
O O5 0.158068 0.774589 0.500000
O O6 0.280265 0.810697 0.421352
O O7 0.158934 0.932682 0.445328
O O8 0.086687 0.793928 0.398570
O O9 0.480584 0.840530 0.909741
O O10 0.344796 0.964498 0.901452
O O11 0.380834 0.884392 0.000000
O O12 0.901687 0.922042 0.500000
O O13 0.819694 0.919270 0.395524
O O14 0.000000 0.000000 0.420313
O O15 0.356421 0.141626 0.366115
#
# Coordination Sequence:
#
# PCOD9568679 Si02
#       6
#    16  16  16  16  16  16
#     4   9  17  32  54  80 108 144 178 226 293 345
#     4   9  20  35  50  76 112 143 179 232 282 336
#     4  10  20  33  51  80 115 145 181 239 296 341
#     4   9  19  37  60  79 107 152 189 227 284 346
#     4  11  20  32  57  81 111 151 188 235 294 354
#     4  10  19  33  56  82 111 144 189 235 285 356
#
# _framework density 20.049188000000001
#
# number of rings (size 3 to 8) (size 9 to 14) (size 15 to 20)
#    0.000    2.333    1.667    2.500    0.000    4.667 
#    0.000    3.333   29.333    0.000    0.000    0.000 
#    0.000    0.000    0.000    0.000    0.000    0.000 
#
# Total GULP energy -534469.620476 kJ/mol
# GULP energy per Si atom -5567.391880 kJ/mol
# Density = 2.000355 g / cm^3
# Si number density = 20.049188 Si / 1000 Ang^3
#
#
#
# Elastic Constant Matrix: (Units=GPa)
#
#
# Indices 1 2 3 4 5 6 
#
# 1 62.4150 -8.8599 16.3386 0.0000 0.0000 0.0000
# 2 -8.8599 62.4152 16.3385 0.0000 0.0000 0.0000
# 3 16.3386 16.3385 83.0056 0.0000 0.0000 0.0000
# 4 0.0000 0.0000 0.0000 16.0920 0.0000 0.0000
# 5 0.0000 0.0000 0.0000 0.0000 16.0920 0.0000
# 6 0.0000 0.0000 0.0000 0.0000 0.0000 22.2696
#
#
#
# Elastic Compliance Matrix: (Units=1/GPa)
#
#
# Indices 1 2 3 4 5 6 
#
# 1 0.017626 0.003595 -0.004177 0.000000 0.000000 0.000000
# 2 0.003595 0.017626 -0.004177 0.000000 0.000000 0.000000
# 3 -0.004177 -0.004177 0.013692 0.000000 0.000000 0.000000
# 4 0.000000 0.000000 0.000000 0.062143 0.000000 0.000000
# 5 0.000000 0.000000 0.000000 0.000000 0.062142 0.000000
# 6 0.000000 0.000000 0.000000 0.000000 0.000000 0.044904
#
#
# Mechanical properties :
#
#
# Convention : Reuss Voigt Hill
#
# Bulk Modulus (GPa) = 25.36432 28.38559 26.87495
# Shear Modulus (GPa) = 20.76483 23.15863 21.96173
#
# Velocity S-wave (km/s) = 3.22171 3.40235 3.31326
# Velocity P-wave (km/s) = 5.14954 5.44273 5.29816
#
# Compressibility (1/GPa) = 0.03942546
#
# Stress axis : x y z
#
# Youngs Moduli (GPa) = 56.73564 56.73584 73.03653
#
# Poissons Ratio (x) = -0.20399 0.30508
# Poissons Ratio (y) = -0.20399 0.30508
# Poissons Ratio (z) = 0.23699 0.23699
#
# Static dielectric constant tensor:
#      x y z
#    x 1.752400 0.000000 0.000000 
#    y 0.000000 1.752400 0.000000 
#    z 0.000000 0.000000 1.774710 
# 
# From -- ./inp_files/5482.got.cif
#   From: 2010.05.17/outbox.cif.g08.bks.cpg/sg135_3_cif.got.tgz:5482.got - 2010.05.20 12:50:20.
