data_PCOD9568512
_publ_section_title
;
Structure prediction by ZEFSAII (Michael W. Deem and Ramdas Pophale) SiO2 
 PCOD9568512
Probable space group: P 42/N N M
;
_chemical_formula_sum "Si O2"
_cell_formula_units_Z 64
_cell_length_a 12.174445
_cell_length_b 12.174445
_cell_length_c 21.545676
_cell_angle_alpha 90.000000
_cell_angle_beta 90.000000
_cell_angle_gamma 90.000000
_cell_volume 3193.437853
_symmetry_space_group_name_H-M "P 42/N N M"
_symmetry_group_IT_number 134
_space_group.IT_coordinate_system_code '2'
_symmetry_cell_setting 'tetragonal'
loop_
_space_group_symop_operation_xyz
x,y,z
1/2-y,x,1/2+z
1/2-x,1/2-y,z
y,1/2-x,1/2+z
x,1/2-y,1/2-z
1/2-x,y,1/2-z
y,x,-z
1/2-y,1/2-x,-z
-x,-y,-z
1/2+y,-x,1/2-z
1/2+x,1/2+y,-z
-y,1/2+x,1/2-z
-x,1/2+y,1/2+z
1/2+x,-y,1/2+z
-y,-x,z
1/2+y,1/2+x,z
loop_
_atom_site_type_symbol
_atom_site_label
_atom_site_fract_x
_atom_site_fract_y
_atom_site_fract_z
Si Si1 0.513616 0.191471 0.184599
Si Si2 0.781419 0.878479 0.678825
Si Si3 0.250119 0.563289 0.081290
Si Si4 0.253619 0.931892 0.944450
O O1 0.493868 0.250000 0.250000
O O2 0.628953 0.128953 0.189711
O O3 0.412626 0.110697 0.174792
O O4 0.512084 0.263957 0.122002
O O5 0.750000 0.750000 0.666066
O O6 0.750000 0.900370 0.750000
O O7 0.736058 0.967660 0.631281
O O8 0.350666 0.649335 0.085777
O O9 0.140036 0.640036 0.088059
O O10 0.249480 0.511958 0.011532
O O11 0.163924 0.836077 0.948378
O O12 0.372341 0.872341 0.940579
#
# Coordination Sequence:
#
# PCOD9568512 Si02
#       4
#    16  16  16  16
#     4  11  21  36  61  87 115 155 196 239 291 349
#     4  11  23  42  56  79 122 160 196 239 293 352
#     4   9  19  38  65  92 116 149 196 250 300 346
#     4   8  16  33  57  89 122 145 184 246 298 345
#
# _framework density 20.041098000000002
#
# number of rings (size 3 to 8) (size 9 to 14) (size 15 to 20)
#    0.000    2.250    2.500    3.000    0.000    4.250 
#    0.000    7.500    0.000    3.000    0.000    0.000 
#    0.000    0.000    0.000    0.000    0.000    0.000 
#
# Total GULP energy -356370.065325 kJ/mol
# GULP energy per Si atom -5568.282271 kJ/mol
# Density = 1.999548 g / cm^3
# Si number density = 20.041098 Si / 1000 Ang^3
#
#
#
# Elastic Constant Matrix: (Units=GPa)
#
#
# Indices 1 2 3 4 5 6 
#
# 1 61.1869 -4.2031 54.1982 0.0000 0.0000 0.0000
# 2 -4.2031 61.1869 54.1982 0.0000 0.0000 0.0000
# 3 54.1982 54.1982 189.3576 0.0000 0.0000 0.0000
# 4 0.0000 0.0000 0.0000 95.8718 0.0000 0.0000
# 5 0.0000 0.0000 0.0000 0.0000 95.8718 0.0000
# 6 0.0000 0.0000 0.0000 0.0000 0.0000 30.9144
#
#
#
# Elastic Compliance Matrix: (Units=1/GPa)
#
#
# Indices 1 2 3 4 5 6 
#
# 1 0.026908 0.011615 -0.011026 0.000000 0.000000 0.000000
# 2 0.011615 0.026908 -0.011026 0.000000 0.000000 0.000000
# 3 -0.011026 -0.011026 0.011593 0.000000 0.000000 0.000000
# 4 0.000000 0.000000 0.000000 0.010431 0.000000 0.000000
# 5 0.000000 0.000000 0.000000 0.000000 0.010431 0.000000
# 6 0.000000 0.000000 0.000000 0.000000 0.000000 0.032347
#
#
# Mechanical properties :
#
#
# Convention : Reuss Voigt Hill
#
# Bulk Modulus (GPa) = 22.45449 57.79089 40.12269
# Shear Modulus (GPa) = 32.39673 58.36746 45.38209
#
# Velocity S-wave (km/s) = 4.02495 5.40251 4.76379
# Velocity P-wave (km/s) = 5.72965 8.23498 7.09379
#
# Compressibility (1/GPa) = 0.04453452
#
# Stress axis : x y z
#
# Youngs Moduli (GPa) = 37.16368 37.16368 86.26008
#
# Poissons Ratio (x) = -0.43166 0.95112
# Poissons Ratio (y) = -0.43166 0.95112
# Poissons Ratio (z) = 0.40977 0.40977
#
# Static dielectric constant tensor:
#      x y z
#    x 1.729610 0.000000 0.000000 
#    y 0.000000 1.729610 0.000000 
#    z 0.000000 0.000000 1.761370 
# 
# From -- ./inp_files/8675.got.cif
#   From: 2010.05.17/outbox.cif.g08.bks.cpg/sg134_5_cif.got.tgz:8675.got - 2010.05.20 12:42:49.
