data_PCOD9568109
_publ_section_title
;
Structure prediction by ZEFSAII (Michael W. Deem and Ramdas Pophale) SiO2 
 PCOD9568109
Probable space group: P 42/N N M
;
_chemical_formula_sum "Si O2"
_cell_formula_units_Z 72
_cell_length_a 14.475845
_cell_length_b 14.475845
_cell_length_c 17.413843
_cell_angle_alpha 90.000000
_cell_angle_beta 90.000000
_cell_angle_gamma 90.000000
_cell_volume 3649.072341
_symmetry_space_group_name_H-M "P 42/N N M"
_symmetry_group_IT_number 134
_space_group.IT_coordinate_system_code '2'
_symmetry_cell_setting 'tetragonal'
loop_
_space_group_symop_operation_xyz
x,y,z
1/2-y,x,1/2+z
1/2-x,1/2-y,z
y,1/2-x,1/2+z
x,1/2-y,1/2-z
1/2-x,y,1/2-z
y,x,-z
1/2-y,1/2-x,-z
-x,-y,-z
1/2+y,-x,1/2-z
1/2+x,1/2+y,-z
-y,1/2+x,1/2-z
-x,1/2+y,1/2+z
1/2+x,-y,1/2+z
-y,-x,z
1/2+y,1/2+x,z
loop_
_atom_site_type_symbol
_atom_site_label
_atom_site_fract_x
_atom_site_fract_y
_atom_site_fract_z
Si Si1 0.754374 0.401256 0.952134
Si Si2 0.894682 0.250000 0.250000
Si Si3 0.046527 0.104383 0.913299
Si Si4 0.143779 0.258693 0.341448
Si Si5 0.345089 0.986896 0.896371
O O1 0.673810 0.326191 0.968255
O O2 0.839832 0.339832 0.917056
O O3 0.699132 0.485519 0.911185
O O4 0.794121 0.443338 0.030664
O O5 0.828346 0.171655 0.215158
O O6 0.948689 0.203427 0.319138
O O7 0.140125 0.108562 0.865170
O O8 0.079383 0.079383 0.000000
O O9 0.977963 0.022038 0.888272
O O10 0.250000 0.250000 0.360539
O O11 0.133073 0.250000 0.250000
O O12 0.093317 0.177672 0.388680
O O13 0.449393 0.949393 0.897725
#
# Coordination Sequence:
#
# PCOD9568109 Si02
#       5
#    16   8  16  16  16
#     4   9  17  31  53  85 121 152 193 251 301 347
#     4   9  16  24  41  74 112 150 185 222 284 361
#     4  10  20  36  62  91 119 161 211 251 300 377
#     4  11  24  40  55  79 119 163 205 253 309 377
#     4  10  18  30  50  78 113 151 188 239 303 367
#
# _framework density 19.731041999999999
#
# number of rings (size 3 to 8) (size 9 to 14) (size 15 to 20)
#    0.000    2.111    3.333    0.667    0.000    4.889 
#    0.000    1.111    0.000    4.000    0.000    0.000 
#    0.000    0.000    0.000    0.000    0.000    0.000 
#
# Total GULP energy -401244.400644 kJ/mol
# GULP energy per Si atom -5572.838898 kJ/mol
# Density = 1.968613 g / cm^3
# Si number density = 19.731042 Si / 1000 Ang^3
#
#
#
# Elastic Constant Matrix: (Units=GPa)
#
#
# Indices 1 2 3 4 5 6 
#
# 1 112.4092 47.3667 23.2450 0.0000 0.0000 0.0000
# 2 47.3667 112.4092 23.2450 0.0000 0.0000 0.0000
# 3 23.2450 23.2450 28.3284 0.0000 0.0000 0.0000
# 4 0.0000 0.0000 0.0000 17.3118 0.0000 0.0000
# 5 0.0000 0.0000 0.0000 0.0000 17.3118 0.0000
# 6 0.0000 0.0000 0.0000 0.0000 0.0000 31.6652
#
#
#
# Elastic Compliance Matrix: (Units=1/GPa)
#
#
# Indices 1 2 3 4 5 6 
#
# 1 0.011798 -0.003576 -0.006746 0.000000 0.000000 0.000000
# 2 -0.003576 0.011798 -0.006746 0.000000 0.000000 0.000000
# 3 -0.006746 -0.006746 0.046372 0.000000 0.000000 0.000000
# 4 0.000000 0.000000 0.000000 0.057764 0.000000 0.000000
# 5 0.000000 0.000000 0.000000 0.000000 0.057764 0.000000
# 6 0.000000 0.000000 0.000000 0.000000 0.000000 0.031580
#
#
# Mechanical properties :
#
#
# Convention : Reuss Voigt Hill
#
# Bulk Modulus (GPa) = 27.90978 48.98445 38.44712
# Shear Modulus (GPa) = 18.99996 23.87708 21.43852
#
# Velocity S-wave (km/s) = 3.10651 3.48246 3.29984
# Velocity P-wave (km/s) = 5.20029 6.40703 5.83494
#
# Compressibility (1/GPa) = 0.03582973
#
# Stress axis : x y z
#
# Youngs Moduli (GPa) = 84.75892 84.75892 21.56485
#
# Poissons Ratio (x) = 0.30313 0.14548
# Poissons Ratio (y) = 0.30313 0.14548
# Poissons Ratio (z) = 0.57182 0.57182
#
# Static dielectric constant tensor:
#      x y z
#    x 1.757870 0.000000 0.000000 
#    y 0.000000 1.757870 0.000000 
#    z 0.000000 0.000000 1.653450 
# 
# From -- ./inp_files/7596.got.cif
#   From: 2010.05.17/outbox.cif.g08.bks.cpg/sg134_4_cif.got.tgz:7596.got - 2010.05.20 12:42:49.
