data_PCOD9568770
_publ_section_title
;
Structure prediction by ZEFSAII (Michael W. Deem and Ramdas Pophale) SiO2 
 PCOD9568770
Probable space group: P 42/M B C
;
_chemical_formula_sum "Si O2"
_cell_formula_units_Z 48
_cell_length_a 14.659697
_cell_length_b 14.659697
_cell_length_c 10.577349
_cell_angle_alpha 90.000000
_cell_angle_beta 90.000000
_cell_angle_gamma 90.000000
_cell_volume 2273.143339
_symmetry_space_group_name_H-M "P 42/M B C"
_symmetry_group_IT_number 135
_symmetry_cell_setting 'tetragonal'
loop_
_space_group_symop_operation_xyz
x,y,z
-y,x,1/2+z
-x,-y,z
y,-x,1/2+z
1/2+x,1/2-y,-z
1/2-x,1/2+y,-z
1/2+y,1/2+x,1/2-z
1/2-y,1/2-x,1/2-z
-x,-y,-z
y,-x,1/2-z
x,y,-z
-y,x,1/2-z
1/2-x,1/2+y,z
1/2+x,1/2-y,z
1/2-y,1/2-x,1/2+z
1/2+y,1/2+x,1/2+z
loop_
_atom_site_type_symbol
_atom_site_label
_atom_site_fract_x
_atom_site_fract_y
_atom_site_fract_z
Si Si1 0.139308 0.076620 0.500000
Si Si2 0.064245 0.872935 0.500000
Si Si3 0.386747 0.256624 0.261177
Si Si4 0.892572 0.531336 0.140981
O O1 0.199462 0.089421 0.373966
O O2 0.046209 0.136352 0.500000
O O3 0.097846 0.975932 0.500000
O O4 0.103320 0.828517 0.626869
O O5 0.287687 0.212314 0.250000
O O6 0.453224 0.174550 0.308354
O O7 0.893005 0.606996 0.250000
O O8 0.000000 0.500000 0.130478
O O9 0.865748 0.559470 0.000000
#
# Coordination Sequence:
#
# PCOD9568770 Si02
#       4
#     8   8  16  16
#     4  11  27  46  77  96 135 201 237 284 354 418
#     4  11  25  52  69  98 139 193 247 280 348 426
#     4  12  23  42  75 104 140 176 236 306 353 409
#     4  10  20  35  61  97 133 187 220 258 347 444
#
# _framework density 21.116136000000001
#
# number of rings (size 3 to 8) (size 9 to 14) (size 15 to 20)
#    0.000    1.000    5.000    3.000    2.333    2.667 
#    0.000   10.000    0.000    0.000    0.000    0.000 
#    0.000    0.000    0.000    0.000    0.000    0.000 
#
# Total GULP energy -267870.008685 kJ/mol
# GULP energy per Si atom -5580.625181 kJ/mol
# Density = 2.106807 g / cm^3
# Si number density = 21.116136 Si / 1000 Ang^3
#
#
#
# Elastic Constant Matrix: (Units=GPa)
#
#
# Indices 1 2 3 4 5 6 
#
# 1 90.6043 34.6743 61.4626 0.0000 0.0000 0.0000
# 2 34.6743 90.6000 61.4617 0.0000 0.0000 0.0000
# 3 61.4626 61.4617 266.3116 0.0000 0.0000 0.0000
# 4 0.0000 0.0000 0.0000 30.8731 0.0000 0.0000
# 5 0.0000 0.0000 0.0000 0.0000 30.8747 0.0000
# 6 0.0000 0.0000 0.0000 0.0000 0.0000 38.1634
#
#
#
# Elastic Compliance Matrix: (Units=1/GPa)
#
#
# Indices 1 2 3 4 5 6 
#
# 1 0.014099 -0.003780 -0.002382 0.000000 0.000000 0.000000
# 2 -0.003780 0.014100 -0.002382 0.000000 0.000000 0.000000
# 3 -0.002382 -0.002382 0.004854 0.000000 0.000000 0.000000
# 4 0.000000 0.000000 0.000000 0.032391 0.000000 0.000000
# 5 0.000000 0.000000 0.000000 0.000000 0.032389 0.000000
# 6 0.000000 0.000000 0.000000 0.000000 0.000000 0.026203
#
#
# Mechanical properties :
#
#
# Convention : Reuss Voigt Hill
#
# Bulk Modulus (GPa) = 62.63148 84.74588 73.68868
# Shear Modulus (GPa) = 34.14232 39.31006 36.72619
#
# Velocity S-wave (km/s) = 4.02541 4.31932 4.17495
# Velocity P-wave (km/s) = 7.16450 8.06819 7.62974
#
# Compressibility (1/GPa) = 0.01596641
#
# Stress axis : x y z
#
# Youngs Moduli (GPa) = 70.92531 70.92175 206.00336
#
# Poissons Ratio (x) = 0.26812 0.49060
# Poissons Ratio (y) = 0.26813 0.49062
# Poissons Ratio (z) = 0.16891 0.16891
#
# Static dielectric constant tensor:
#      x y z
#    x 1.799510 0.000000 0.000000 
#    y 0.000000 1.799510 0.000000 
#    z 0.000000 0.000000 1.768960 
# 
# From -- ./inp_files/2010.got.cif
#   From: 2010.05.17/outbox.cif.g08.bks.cpg/sg135_2_cif.got.tgz:2010.got - 2010.05.20 12:50:20.
