data_PCOD9568128
_publ_section_title
;
Structure prediction by ZEFSAII (Michael W. Deem and Ramdas Pophale) SiO2 
 PCOD9568128
Probable space group: P 42/N N M
;
_chemical_formula_sum "Si O2"
_cell_formula_units_Z 96
_cell_length_a 15.079638
_cell_length_b 15.079638
_cell_length_c 25.860505
_cell_angle_alpha 90.000000
_cell_angle_beta 90.000000
_cell_angle_gamma 90.000000
_cell_volume 5880.562005
_symmetry_space_group_name_H-M "P 42/N N M"
_symmetry_group_IT_number 134
_space_group.IT_coordinate_system_code '2'
_symmetry_cell_setting 'tetragonal'
loop_
_space_group_symop_operation_xyz
x,y,z
1/2-y,x,1/2+z
1/2-x,1/2-y,z
y,1/2-x,1/2+z
x,1/2-y,1/2-z
1/2-x,y,1/2-z
y,x,-z
1/2-y,1/2-x,-z
-x,-y,-z
1/2+y,-x,1/2-z
1/2+x,1/2+y,-z
-y,1/2+x,1/2-z
-x,1/2+y,1/2+z
1/2+x,-y,1/2+z
-y,-x,z
1/2+y,1/2+x,z
loop_
_atom_site_type_symbol
_atom_site_label
_atom_site_fract_x
_atom_site_fract_y
_atom_site_fract_z
Si Si1 0.676208 0.176208 0.549421
Si Si2 0.239098 0.143389 0.308028
Si Si3 0.167614 0.319139 0.588070
Si Si4 0.823203 0.176798 0.075112
Si Si5 0.919607 0.561404 0.871890
Si Si6 0.228928 0.499767 0.927001
Si Si7 0.497620 0.270956 0.547050
O O1 0.750000 0.250000 0.561138
O O2 0.668351 0.168351 0.487169
O O3 0.581167 0.213507 0.566963
O O4 0.250000 0.250000 0.304101
O O5 0.250000 0.107707 0.250000
O O6 0.308313 0.124468 0.354600
O O7 0.146037 0.108160 0.330814
O O8 0.250000 0.250000 0.584633
O O9 0.208402 0.414181 0.577926
O O10 0.091306 0.287998 0.549442
O O11 0.750000 0.250000 0.086324
O O12 0.916678 0.215327 0.093232
O O13 0.978804 0.639469 0.896315
O O14 0.855506 0.521828 0.916838
O O15 0.983265 0.483265 0.852148
O O16 0.204447 0.514512 0.987360
#
# Coordination Sequence:
#
# PCOD9568128 Si02
#       7
#     8  16  16   8  16  16  16
#     4   9  18  33  45  63  99 146 187 209 245 309
#     4   9  17  35  59  75  97 133 169 215 281 324
#     4  10  18  32  50  81 103 131 172 225 271 315
#     4   9  20  33  45  63 101 152 183 205 247 303
#     4  11  21  32  53  85 107 132 182 227 262 312
#     4  11  19  32  49  75 109 148 177 216 257 311
#     4  10  20  30  50  73 109 146 177 212 265 313
#
# _framework density 16.324968999999999
#
# number of rings (size 3 to 8) (size 9 to 14) (size 15 to 20)
#    0.000    2.000    5.000    2.000    0.000    4.000 
#    0.000    2.500    9.167    0.000    0.000    0.000 
#    0.000    0.000    0.000    0.000    0.000    0.000 
#
# Total GULP energy -534586.606669 kJ/mol
# GULP energy per Si atom -5568.610486 kJ/mol
# Density = 1.628781 g / cm^3
# Si number density = 16.324969 Si / 1000 Ang^3
#
#
#
# Elastic Constant Matrix: (Units=GPa)
#
#
# Indices 1 2 3 4 5 6 
#
# 1 95.1986 45.5989 9.3041 0.0000 0.0000 0.0000
# 2 45.5989 95.1986 9.3041 0.0000 0.0000 0.0000
# 3 9.3041 9.3041 63.4823 0.0000 0.0000 0.0000
# 4 0.0000 0.0000 0.0000 3.5796 0.0000 0.0000
# 5 0.0000 0.0000 0.0000 0.0000 3.5796 0.0000
# 6 0.0000 0.0000 0.0000 0.0000 0.0000 21.9868
#
#
#
# Elastic Compliance Matrix: (Units=1/GPa)
#
#
# Indices 1 2 3 4 5 6 
#
# 1 0.013702 -0.006459 -0.001061 0.000000 0.000000 0.000000
# 2 -0.006459 0.013702 -0.001061 0.000000 0.000000 0.000000
# 3 -0.001061 -0.001061 0.016064 0.000000 0.000000 0.000000
# 4 0.000000 0.000000 0.000000 0.279364 0.000000 0.000000
# 5 0.000000 0.000000 0.000000 0.000000 0.279364 0.000000
# 6 0.000000 0.000000 0.000000 0.000000 0.000000 0.045482
#
#
# Mechanical properties :
#
#
# Convention : Reuss Voigt Hill
#
# Bulk Modulus (GPa) = 38.01853 42.47706 40.24779
# Shear Modulus (GPa) = 7.42270 18.47401 12.94835
#
# Velocity S-wave (km/s) = 2.13464 3.36764 2.81937
# Velocity P-wave (km/s) = 5.42354 6.41853 5.94189
#
# Compressibility (1/GPa) = 0.02630296
#
# Stress axis : x y z
#
# Youngs Moduli (GPa) = 72.98170 72.98170 62.25262
#
# Poissons Ratio (x) = 0.47142 0.06608
# Poissons Ratio (y) = 0.47142 0.06608
# Poissons Ratio (z) = 0.07747 0.07747
#
# Static dielectric constant tensor:
#      x y z
#    x 1.566170 0.000000 0.000000 
#    y 0.000000 1.566170 0.000000 
#    z 0.000000 0.000000 1.568020 
# 
# From -- ./inp_files/10775.got.cif
#   From: 2010.05.17/outbox.cif.g08.bks.cpg/sg134_6_cif.got.tgz:10775.got - 2010.05.20 12:42:49.
