data_PCOD9568783
_publ_section_title
;
Structure prediction by ZEFSAII (Michael W. Deem and Ramdas Pophale) SiO2 
 PCOD9568783
Probable space group: P 42/M B C
;
_chemical_formula_sum "Si O2"
_cell_formula_units_Z 80
_cell_length_a 13.532947
_cell_length_b 13.532947
_cell_length_c 22.780258
_cell_angle_alpha 90.000000
_cell_angle_beta 90.000000
_cell_angle_gamma 90.000000
_cell_volume 4171.991360
_symmetry_space_group_name_H-M "P 42/M B C"
_symmetry_group_IT_number 135
_symmetry_cell_setting 'tetragonal'
loop_
_space_group_symop_operation_xyz
x,y,z
-y,x,1/2+z
-x,-y,z
y,-x,1/2+z
1/2+x,1/2-y,-z
1/2-x,1/2+y,-z
1/2+y,1/2+x,1/2-z
1/2-y,1/2-x,1/2-z
-x,-y,-z
y,-x,1/2-z
x,y,-z
-y,x,1/2-z
1/2-x,1/2+y,z
1/2+x,1/2-y,z
1/2-y,1/2-x,1/2+z
1/2+y,1/2+x,1/2+z
loop_
_atom_site_type_symbol
_atom_site_label
_atom_site_fract_x
_atom_site_fract_y
_atom_site_fract_z
Si Si1 0.192486 0.886321 0.123132
Si Si2 0.888184 0.308812 0.069679
Si Si3 0.308812 0.888184 0.430321
Si Si4 0.886321 0.192486 0.623132
Si Si5 0.384067 0.384067 0.250000
O O1 0.131178 0.805619 0.086606
O O2 0.305262 0.870458 0.103533
O O3 0.177642 0.862476 0.191813
O O4 0.161769 1.000000 0.114022
O O5 0.805262 0.370458 0.103533
O O6 1.000000 0.336385 0.084746
O O7 0.873950 0.321002 0.000000
O O8 0.321002 0.873950 0.500000
O O9 0.194381 0.868822 0.413394
O O10 0.862476 0.177642 0.691813
O O11 0.370350 0.500000 0.265017
#
# Coordination Sequence:
#
# PCOD9568783 Si02
#       5
#    16  16  16  16  16
#     4  10  20  36  58  80 106 145 186 223 272 329
#     4  10  22  37  53  81 117 146 180 228 273 317
#     4  10  22  37  53  81 117 146 180 228 273 317
#     4  10  20  36  58  80 106 145 186 223 272 329
#     4   9  18  33  56  86 112 136 178 234 280 320
#
# _framework density 19.175497
#
# number of rings (size 3 to 8) (size 9 to 14) (size 15 to 20)
#    0.000    2.200    0.000    3.600    0.000    9.600 
#    0.000    4.000    0.000    0.000    0.000   11.200 
#    0.000    0.000    0.000    0.000    0.000    0.000 
#
# Total GULP energy -446628.923610 kJ/mol
# GULP energy per Si atom -5582.861545 kJ/mol
# Density = 1.913185 g / cm^3
# Si number density = 19.175497 Si / 1000 Ang^3
#
#
#
# Elastic Constant Matrix: (Units=GPa)
#
#
# Indices 1 2 3 4 5 6 
#
# 1 58.2891 -2.3981 41.1539 0.0000 0.0000 0.0000
# 2 -2.3981 58.2891 41.1539 0.0000 0.0000 0.0000
# 3 41.1539 41.1539 105.9001 0.0000 0.0000 0.0000
# 4 0.0000 0.0000 0.0000 124.0843 0.0000 0.0000
# 5 0.0000 0.0000 0.0000 0.0000 124.0843 0.0000
# 6 0.0000 0.0000 0.0000 0.0000 0.0000 9.7410
#
#
#
# Elastic Compliance Matrix: (Units=1/GPa)
#
#
# Indices 1 2 3 4 5 6 
#
# 1 0.029155 0.012677 -0.016256 0.000000 0.000000 0.000000
# 2 0.012677 0.029155 -0.016256 0.000000 0.000000 0.000000
# 3 -0.016256 -0.016256 0.022078 0.000000 0.000000 0.000000
# 4 0.000000 0.000000 0.000000 0.008059 0.000000 0.000000
# 5 0.000000 0.000000 0.000000 0.000000 0.008059 0.000000
# 6 0.000000 0.000000 0.000000 0.000000 0.000000 0.102659
#
#
# Mechanical properties :
#
#
# Convention : Reuss Voigt Hill
#
# Bulk Modulus (GPa) = 24.56035 42.47754 33.51894
# Shear Modulus (GPa) = 19.80921 61.08646 40.44784
#
# Velocity S-wave (km/s) = 3.21759 5.65028 4.59775
# Velocity P-wave (km/s) = 5.16138 8.04784 6.76046
#
# Compressibility (1/GPa) = 0.04071604
#
# Stress axis : x y z
#
# Youngs Moduli (GPa) = 34.29957 34.29957 45.29476
#
# Poissons Ratio (x) = -0.43481 0.73633
# Poissons Ratio (y) = -0.43481 0.73633
# Poissons Ratio (z) = 0.55758 0.55758
#
# Static dielectric constant tensor:
#      x y z
#    x 1.634130 0.000000 0.000000 
#    y 0.000000 1.634130 0.000000 
#    z 0.000000 0.000000 1.642730 
# 
# From -- ./inp_files/5198.got.cif
#   From: 2010.05.17/outbox.cif.g08.bks.cpg/sg135_3_cif.got.tgz:5198.got - 2010.05.20 12:50:20.
