data_PCOD9568129
_publ_section_title
;
Structure prediction by ZEFSAII (Michael W. Deem and Ramdas Pophale) SiO2 
 PCOD9568129
Probable space group: P 42/N N M
;
_chemical_formula_sum "Si O2"
_cell_formula_units_Z 112
_cell_length_a 15.380785
_cell_length_b 15.380785
_cell_length_c 26.359493
_cell_angle_alpha 90.000000
_cell_angle_beta 90.000000
_cell_angle_gamma 90.000000
_cell_volume 6235.826964
_symmetry_space_group_name_H-M "P 42/N N M"
_symmetry_group_IT_number 134
_space_group.IT_coordinate_system_code '2'
_symmetry_cell_setting 'tetragonal'
loop_
_space_group_symop_operation_xyz
x,y,z
1/2-y,x,1/2+z
1/2-x,1/2-y,z
y,1/2-x,1/2+z
x,1/2-y,1/2-z
1/2-x,y,1/2-z
y,x,-z
1/2-y,1/2-x,-z
-x,-y,-z
1/2+y,-x,1/2-z
1/2+x,1/2+y,-z
-y,1/2+x,1/2-z
-x,1/2+y,1/2+z
1/2+x,-y,1/2+z
-y,-x,z
1/2+y,1/2+x,z
loop_
_atom_site_type_symbol
_atom_site_label
_atom_site_fract_x
_atom_site_fract_y
_atom_site_fract_z
Si Si1 0.973041 0.330571 0.788325
Si Si2 0.783957 0.420210 0.305393
Si Si3 0.187318 0.321442 0.358020
Si Si4 0.823289 0.946101 0.604433
Si Si5 0.855621 0.998254 0.497403
Si Si6 0.928810 0.566919 0.288777
Si Si7 0.696480 0.967359 0.110462
O O1 0.969112 0.250000 0.750000
O O2 0.884141 0.384141 0.786729
O O3 0.997446 0.308542 0.845515
O O4 0.047613 0.394972 0.766008
O O5 0.750000 0.393964 0.250000
O O6 0.840199 0.340199 0.327398
O O7 0.852017 0.497076 0.291440
O O8 0.715769 0.461247 0.345703
O O9 0.250000 0.250000 0.331276
O O10 0.250416 0.370726 0.396794
O O11 0.146451 0.393647 0.321719
O O12 0.107272 0.268768 0.381416
O O13 0.816840 0.002267 0.553590
O O14 0.916602 0.896493 0.611817
O O15 0.904990 0.904990 0.500000
O O16 0.797763 0.002325 0.447047
O O17 0.928734 0.071266 0.491722
O O18 0.015566 0.515566 0.306881
#
# Coordination Sequence:
#
# PCOD9568129 Si02
#       7
#    16  16  16  16  16  16  16
#     4  11  21  33  51  74 102 138 176 215 259 311
#     4  10  20  34  52  75 105 139 176 215 261 319
#     4   9  17  30  50  79 106 132 168 219 269 311
#     4  10  18  32  52  78 107 134 174 216 269 318
#     4   9  18  32  51  75 103 136 172 214 260 318
#     4   9  18  33  50  72 105 142 173 208 261 325
#     4   9  19  33  52  78 106 136 171 215 270 315
#
# _framework density 17.960728
#
# number of rings (size 3 to 8) (size 9 to 14) (size 15 to 20)
#    0.000    2.429    1.429    1.286    0.000    2.000 
#    0.000    5.000    0.000    1.714    0.000    4.000 
#    0.000    0.000    0.000    0.000    0.000    0.000 
#
# Total GULP energy -623492.778801 kJ/mol
# GULP energy per Si atom -5566.899811 kJ/mol
# Density = 1.791985 g / cm^3
# Si number density = 17.960728 Si / 1000 Ang^3
#
#
#
# Elastic Constant Matrix: (Units=GPa)
#
#
# Indices 1 2 3 4 5 6 
#
# 1 45.1892 22.1701 36.7317 0.0000 0.0000 0.0000
# 2 22.1701 45.1892 36.7317 0.0000 0.0000 0.0000
# 3 36.7317 36.7317 142.1573 0.0000 0.0000 0.0000
# 4 0.0000 0.0000 0.0000 8.4768 0.0000 0.0000
# 5 0.0000 0.0000 0.0000 0.0000 8.4768 0.0000
# 6 0.0000 0.0000 0.0000 0.0000 0.0000 14.1699
#
#
#
# Elastic Compliance Matrix: (Units=1/GPa)
#
#
# Indices 1 2 3 4 5 6 
#
# 1 0.032057 -0.011386 -0.005341 0.000000 0.000000 0.000000
# 2 -0.011386 0.032057 -0.005341 0.000000 0.000000 0.000000
# 3 -0.005341 -0.005341 0.009795 0.000000 0.000000 0.000000
# 4 0.000000 0.000000 0.000000 0.117968 0.000000 0.000000
# 5 0.000000 0.000000 0.000000 0.000000 0.117968 0.000000
# 6 0.000000 0.000000 0.000000 0.000000 0.000000 0.070572
#
#
# Mechanical properties :
#
#
# Convention : Reuss Voigt Hill
#
# Bulk Modulus (GPa) = 33.58868 47.08918 40.33893
# Shear Modulus (GPa) = 11.50811 15.35153 13.42982
#
# Velocity S-wave (km/s) = 2.53402 2.92674 2.73744
# Velocity P-wave (km/s) = 5.22527 6.13970 5.70085
#
# Compressibility (1/GPa) = 0.02977194
#
# Stress axis : x y z
#
# Youngs Moduli (GPa) = 31.19491 31.19491 102.09700
#
# Poissons Ratio (x) = 0.35517 0.54531
# Poissons Ratio (y) = 0.35517 0.54531
# Poissons Ratio (z) = 0.16661 0.16661
#
# Static dielectric constant tensor:
#      x y z
#    x 1.635860 0.000000 0.000000 
#    y 0.000000 1.635860 0.000000 
#    z 0.000000 0.000000 1.623100 
# 
# From -- ./inp_files/10861.got.cif
#   From: 2010.05.17/outbox.cif.g08.bks.cpg/sg134_6_cif.got.tgz:10861.got - 2010.05.20 12:42:49.
