data_PCOD9568310
_publ_section_title
;
Structure prediction by ZEFSAII (Michael W. Deem and Ramdas Pophale) SiO2 
 PCOD9568310
Probable space group: P 42/N N M
;
_chemical_formula_sum "Si O2"
_cell_formula_units_Z 64
_cell_length_a 13.775070
_cell_length_b 13.775070
_cell_length_c 16.953968
_cell_angle_alpha 90.000000
_cell_angle_beta 90.000000
_cell_angle_gamma 90.000000
_cell_volume 3217.058720
_symmetry_space_group_name_H-M "P 42/N N M"
_symmetry_group_IT_number 134
_space_group.IT_coordinate_system_code '2'
_symmetry_cell_setting 'tetragonal'
loop_
_space_group_symop_operation_xyz
x,y,z
1/2-y,x,1/2+z
1/2-x,1/2-y,z
y,1/2-x,1/2+z
x,1/2-y,1/2-z
1/2-x,y,1/2-z
y,x,-z
1/2-y,1/2-x,-z
-x,-y,-z
1/2+y,-x,1/2-z
1/2+x,1/2+y,-z
-y,1/2+x,1/2-z
-x,1/2+y,1/2+z
1/2+x,-y,1/2+z
-y,-x,z
1/2+y,1/2+x,z
loop_
_atom_site_type_symbol
_atom_site_label
_atom_site_fract_x
_atom_site_fract_y
_atom_site_fract_z
Si Si1 0.867293 0.856186 0.262019
Si Si2 0.969000 0.630495 0.075052
Si Si3 0.975032 0.180254 0.174516
Si Si4 0.499781 0.335046 0.998301
O O1 0.909381 0.750000 0.250000
O O2 0.750000 0.847470 0.250000
O O3 0.902232 0.886487 0.348105
O O4 0.892523 0.937121 0.197840
O O5 0.067417 0.567417 0.082860
O O6 0.911258 0.588743 0.000000
O O7 0.989454 0.744894 0.061104
O O8 0.967882 0.250000 0.250000
O O9 0.875747 0.124254 0.171135
O O10 0.993345 0.213805 0.085680
O O11 0.592937 0.407064 0.986590
O O12 0.405780 0.405780 0.000000
#
# Coordination Sequence:
#
# PCOD9568310 Si02
#       4
#    16  16  16  16
#     4  10  20  35  55  82 114 148 190 241 297 356
#     4  11  23  38  60  91 124 157 198 254 314 370
#     4  10  20  35  56  82 112 145 185 236 293 354
#     4  10  22  40  61  85 118 162 208 253 308 380
#
# _framework density 19.893948999999999
#
# number of rings (size 3 to 8) (size 9 to 14) (size 15 to 20)
#    0.000    1.750    0.000    5.250    0.000    6.250 
#    0.000    3.750    0.000    0.000    0.000    0.000 
#    0.000    0.000    0.000    0.000    0.000    0.000 
#
# Total GULP energy -356374.178595 kJ/mol
# GULP energy per Si atom -5568.346541 kJ/mol
# Density = 1.984867 g / cm^3
# Si number density = 19.893949 Si / 1000 Ang^3
#
#
#
# Elastic Constant Matrix: (Units=GPa)
#
#
# Indices 1 2 3 4 5 6 
#
# 1 81.1144 31.1044 13.9360 0.0000 0.0000 0.0000
# 2 31.1044 81.1143 13.9356 0.0000 0.0000 0.0000
# 3 13.9360 13.9356 84.3312 0.0000 0.0000 0.0000
# 4 0.0000 0.0000 0.0000 31.9036 0.0000 0.0000
# 5 0.0000 0.0000 0.0000 0.0000 31.9036 0.0000
# 6 0.0000 0.0000 0.0000 0.0000 0.0000 3.4283
#
#
#
# Elastic Compliance Matrix: (Units=1/GPa)
#
#
# Indices 1 2 3 4 5 6 
#
# 1 0.014644 -0.005352 -0.001536 0.000000 0.000000 0.000000
# 2 -0.005352 0.014644 -0.001536 0.000000 0.000000 0.000000
# 3 -0.001536 -0.001536 0.012366 0.000000 0.000000 0.000000
# 4 0.000000 0.000000 0.000000 0.031344 0.000000 0.000000
# 5 0.000000 0.000000 0.000000 0.000000 0.031344 0.000000
# 6 0.000000 0.000000 0.000000 0.000000 0.000000 0.291691
#
#
# Mechanical properties :
#
#
# Convention : Reuss Voigt Hill
#
# Bulk Modulus (GPa) = 40.30921 40.50134 40.40528
# Shear Modulus (GPa) = 11.87226 25.95268 18.91247
#
# Velocity S-wave (km/s) = 2.44555 3.61578 3.08663
# Velocity P-wave (km/s) = 5.31793 6.15098 5.74956
#
# Compressibility (1/GPa) = 0.02480823
#
# Stress axis : x y z
#
# Youngs Moduli (GPa) = 68.28595 68.28599 80.86999
#
# Poissons Ratio (x) = 0.36545 0.12419
# Poissons Ratio (y) = 0.36545 0.12418
# Poissons Ratio (z) = 0.10486 0.10486
#
# Static dielectric constant tensor:
#      x y z
#    x 1.747870 0.000000 0.000000 
#    y 0.000000 1.747870 0.000000 
#    z 0.000000 0.000000 1.780980 
# 
# From -- ./inp_files/6135.got.cif
#   From: 2010.05.17/outbox.cif.g08.bks.cpg/sg134_4_cif.got.tgz:6135.got - 2010.05.20 12:42:49.
