data_PCOD9568656
_publ_section_title
;
Structure prediction by ZEFSAII (Michael W. Deem and Ramdas Pophale) SiO2 
 PCOD9568656
Probable space group: P 42/M B C
;
_chemical_formula_sum "Si O2"
_cell_formula_units_Z 64
_cell_length_a 10.074578
_cell_length_b 10.074578
_cell_length_c 22.602954
_cell_angle_alpha 90.000000
_cell_angle_beta 90.000000
_cell_angle_gamma 90.000000
_cell_volume 2294.134777
_symmetry_space_group_name_H-M "P 42/M B C"
_symmetry_group_IT_number 135
_symmetry_cell_setting 'tetragonal'
loop_
_space_group_symop_operation_xyz
x,y,z
-y,x,1/2+z
-x,-y,z
y,-x,1/2+z
1/2+x,1/2-y,-z
1/2-x,1/2+y,-z
1/2+y,1/2+x,1/2-z
1/2-y,1/2-x,1/2-z
-x,-y,-z
y,-x,1/2-z
x,y,-z
-y,x,1/2-z
1/2-x,1/2+y,z
1/2+x,1/2-y,z
1/2-y,1/2-x,1/2+z
1/2+y,1/2+x,1/2+z
loop_
_atom_site_type_symbol
_atom_site_label
_atom_site_fract_x
_atom_site_fract_y
_atom_site_fract_z
Si Si1 0.013810 0.797941 0.000000
Si Si2 0.013705 0.777789 0.245498
Si Si3 0.239305 0.906379 0.377097
Si Si4 0.735200 0.007390 0.871415
Si Si5 0.737967 0.497665 0.000000
O O1 0.984131 0.732415 0.937147
O O2 0.161033 0.860429 0.000000
O O3 0.890757 0.902866 0.000000
O O4 0.989095 0.723482 0.180540
O O5 0.026075 0.689115 0.304373
O O6 0.135189 0.880449 0.242770
O O7 0.332710 0.776310 0.374165
O O8 0.083423 0.868266 0.372477
O O9 0.685981 0.976302 0.938470
#
# Coordination Sequence:
#
# PCOD9568656 Si02
#       5
#     8  16  16  16   8
#     4   9  17  30  49  71  94 125 170 220 262 305
#     4   9  17  30  50  74  97 127 172 218 254 299
#     4  10  19  31  49  73 101 131 166 212 266 322
#     4  10  19  31  49  73 101 131 166 212 266 322
#     4   9  17  30  49  71  94 125 170 220 262 305
#
# _framework density 27.897227000000001
#
# number of rings (size 3 to 8) (size 9 to 14) (size 15 to 20)
#    0.000    2.500    0.000    3.000    0.000    6.000 
#    0.000    0.000    0.000    7.500    0.000   14.000 
#    0.000    0.000    0.000    0.000    0.000    0.000 
#
# Total GULP energy -356669.542068 kJ/mol
# GULP energy per Si atom -5572.961595 kJ/mol
# Density = 2.783373 g / cm^3
# Si number density = 27.897227 Si / 1000 Ang^3
#
#
#
# Elastic Constant Matrix: (Units=GPa)
#
#
# Indices 1 2 3 4 5 6 
#
# 1 82.7996 98.4467 44.1069 0.0000 0.0000 0.0000
# 2 98.4467 82.7996 44.1069 0.0000 0.0000 0.0000
# 3 44.1069 44.1069 390.3382 0.0000 0.0000 0.0000
# 4 0.0000 0.0000 0.0000 -28.9232 0.0000 0.0000
# 5 0.0000 0.0000 0.0000 0.0000 -28.9232 0.0000
# 6 0.0000 0.0000 0.0000 0.0000 0.0000 68.9719
#
#
#
# Elastic Compliance Matrix: (Units=1/GPa)
#
#
# Indices 1 2 3 4 5 6 
#
# 1 -0.029036 0.034874 -0.000660 0.000000 0.000000 0.000000
# 2 0.034874 -0.029036 -0.000660 0.000000 0.000000 0.000000
# 3 -0.000660 -0.000660 0.002711 0.000000 0.000000 0.000000
# 4 0.000000 0.000000 0.000000 -0.034574 0.000000 0.000000
# 5 0.000000 0.000000 0.000000 0.000000 -0.034574 0.000000
# 6 0.000000 0.000000 0.000000 0.000000 0.000000 0.014499
#
#
# Mechanical properties :
#
#
# Convention : Reuss Voigt Hill
#
# Bulk Modulus (GPa) = 85.11385 103.25094 94.18240
# Shear Modulus (GPa) = -28.86776 26.84357 -1.01210
#
# Velocity S-wave (km/s) = -3.22030 3.10535 -0.60298
# Velocity P-wave (km/s) = 4.09254 7.06747 5.77486
#
# Compressibility (1/GPa) = 0.01174897
#
# Stress axis : x y z
#
# Youngs Moduli (GPa) = -34.44033 -34.44033 368.87110
#
# Poissons Ratio (x) = 1.20108 0.24335
# Poissons Ratio (y) = 1.20108 0.24335
# Poissons Ratio (z) = -0.02272 -0.02272
#
# Static dielectric constant tensor:
#      x y z
#    x 2.148110 0.000000 0.000000 
#    y 0.000000 2.148110 0.000000 
#    z 0.000000 0.000000 2.183220 
# 
# From -- ./inp_files/4220.got.cif
#   From: 2010.05.17/outbox.cif.g08.bks.cpg/sg135_3_cif.got.tgz:4220.got - 2010.05.20 12:50:20.
