data_PCOD9568242
_publ_section_title
;
Structure prediction by ZEFSAII (Michael W. Deem and Ramdas Pophale) SiO2 
 PCOD9568242
Probable space group: P 42/N N M
;
_chemical_formula_sum "Si O2"
_cell_formula_units_Z 88
_cell_length_a 11.613799
_cell_length_b 11.613799
_cell_length_c 29.856494
_cell_angle_alpha 90.000000
_cell_angle_beta 90.000000
_cell_angle_gamma 90.000000
_cell_volume 4027.053680
_symmetry_space_group_name_H-M "P 42/N N M"
_symmetry_group_IT_number 134
_space_group.IT_coordinate_system_code '2'
_symmetry_cell_setting 'tetragonal'
loop_
_space_group_symop_operation_xyz
x,y,z
1/2-y,x,1/2+z
1/2-x,1/2-y,z
y,1/2-x,1/2+z
x,1/2-y,1/2-z
1/2-x,y,1/2-z
y,x,-z
1/2-y,1/2-x,-z
-x,-y,-z
1/2+y,-x,1/2-z
1/2+x,1/2+y,-z
-y,1/2+x,1/2-z
-x,1/2+y,1/2+z
1/2+x,-y,1/2+z
-y,-x,z
1/2+y,1/2+x,z
loop_
_atom_site_type_symbol
_atom_site_label
_atom_site_fract_x
_atom_site_fract_y
_atom_site_fract_z
Si Si1 0.499483 0.818118 0.980466
Si Si2 0.347412 0.652589 0.303755
Si Si3 0.833564 0.973227 0.209992
Si Si4 0.942647 0.750000 0.250000
Si Si5 0.511533 0.687099 0.893376
Si Si6 0.174094 0.481924 0.440663
Si Si7 0.653715 0.346286 0.590870
O O1 0.498563 0.792356 0.927735
O O2 0.376742 0.876742 0.991258
O O3 0.596127 0.903874 0.000000
O O4 0.522347 0.698739 0.006311
O O5 0.250000 0.750000 0.294280
O O6 0.469698 0.687954 0.283833
O O7 0.352060 0.647941 0.356354
O O8 0.750000 0.013898 0.250000
O O9 0.870034 0.844320 0.223409
O O10 0.785062 0.978323 0.159309
O O11 0.947006 0.052995 0.209533
O O12 0.403239 0.596762 0.898386
O O13 0.626697 0.624133 0.912326
O O14 0.296445 0.531611 0.424217
O O15 0.078698 0.578698 0.432324
O O16 0.750000 0.250000 0.577893
#
# Coordination Sequence:
#
# PCOD9568242 Si02
#       7
#    16   8  16   8  16  16   8
#     4  11  24  42  61  93 133 168 213 268 328 390
#     4  11  18  32  60  95 132 182 215 261 341 416
#     4  11  25  47  69  98 136 180 235 290 340 399
#     4  12  20  40  62  96 136 173 221 282 344 414
#     4  10  23  43  69  95 127 174 225 268 325 402
#     4  10  19  37  62  92 123 162 211 265 316 383
#     4   9  18  30  53  89 127 162 209 256 315 385
#
# _framework density 21.852202999999999
#
# number of rings (size 3 to 8) (size 9 to 14) (size 15 to 20)
#    0.000    1.455    2.727    2.455    0.000    7.818 
#    9.818    1.818    0.000    0.000    0.000    0.000 
#    0.000    0.000    0.000    0.000    0.000    0.000 
#
# Total GULP energy -491180.552322 kJ/mol
# GULP energy per Si atom -5581.597185 kJ/mol
# Density = 2.180247 g / cm^3
# Si number density = 21.852203 Si / 1000 Ang^3
#
#
#
# Elastic Constant Matrix: (Units=GPa)
#
#
# Indices 1 2 3 4 5 6 
#
# 1 54.1320 19.2993 32.5567 0.0000 0.0000 0.0000
# 2 19.2993 54.1312 32.5566 0.0000 0.0000 0.0000
# 3 32.5567 32.5566 167.3045 0.0000 0.0000 0.0000
# 4 0.0000 0.0000 0.0000 23.5839 0.0000 0.0000
# 5 0.0000 0.0000 0.0000 0.0000 23.5849 0.0000
# 6 0.0000 0.0000 0.0000 0.0000 0.0000 20.2901
#
#
#
# Elastic Compliance Matrix: (Units=1/GPa)
#
#
# Indices 1 2 3 4 5 6 
#
# 1 0.022583 -0.006125 -0.003203 0.000000 0.000000 0.000000
# 2 -0.006125 0.022584 -0.003203 0.000000 0.000000 0.000000
# 3 -0.003203 -0.003203 0.007224 0.000000 0.000000 0.000000
# 4 0.000000 0.000000 0.000000 0.042402 0.000000 0.000000
# 5 0.000000 0.000000 0.000000 0.000000 0.042400 0.000000
# 6 0.000000 0.000000 0.000000 0.000000 0.000000 0.049285
#
#
# Mechanical properties :
#
#
# Convention : Reuss Voigt Hill
#
# Bulk Modulus (GPa) = 36.59093 49.37698 42.98396
# Shear Modulus (GPa) = 22.66043 26.23545 24.44794
#
# Velocity S-wave (km/s) = 3.22372 3.46871 3.34845
# Velocity P-wave (km/s) = 5.53512 6.21993 5.88749
#
# Compressibility (1/GPa) = 0.02732917
#
# Stress axis : x y z
#
# Youngs Moduli (GPa) = 44.28034 44.27966 138.43559
#
# Poissons Ratio (x) = 0.27123 0.44336
# Poissons Ratio (y) = 0.27124 0.44337
# Poissons Ratio (z) = 0.14181 0.14181
#
# Static dielectric constant tensor:
#      x y z
#    x 1.805500 0.000000 0.000000 
#    y 0.000000 1.805500 0.000000 
#    z 0.000000 0.000000 1.934640 
# 
# From -- ./inp_files/11516.got.cif
#   From: 2010.05.17/outbox.cif.g08.bks.cpg/sg134_6_cif.got.tgz:11516.got - 2010.05.20 12:42:49.
