data_PCOD9568731
_publ_section_title
;
Structure prediction by ZEFSAII (Michael W. Deem and Ramdas Pophale) SiO2 
 PCOD9568731
Probable space group: P 42/M B C
;
_chemical_formula_sum "Si O2"
_cell_formula_units_Z 64
_cell_length_a 13.476445
_cell_length_b 13.476445
_cell_length_c 15.855518
_cell_angle_alpha 90.000000
_cell_angle_beta 90.000000
_cell_angle_gamma 90.000000
_cell_volume 2879.593081
_symmetry_space_group_name_H-M "P 42/M B C"
_symmetry_group_IT_number 135
_symmetry_cell_setting 'tetragonal'
loop_
_space_group_symop_operation_xyz
x,y,z
-y,x,1/2+z
-x,-y,z
y,-x,1/2+z
1/2+x,1/2-y,-z
1/2-x,1/2+y,-z
1/2+y,1/2+x,1/2-z
1/2-y,1/2-x,1/2-z
-x,-y,-z
y,-x,1/2-z
x,y,-z
-y,x,1/2-z
1/2-x,1/2+y,z
1/2+x,1/2-y,z
1/2-y,1/2-x,1/2+z
1/2+y,1/2+x,1/2+z
loop_
_atom_site_type_symbol
_atom_site_label
_atom_site_fract_x
_atom_site_fract_y
_atom_site_fract_z
Si Si1 0.811326 0.211615 0.591456
Si Si2 0.287973 0.051283 0.592310
Si Si3 0.871245 0.587865 0.904801
Si Si4 0.059675 0.726043 0.272416
O O1 0.850635 0.179692 0.500000
O O2 0.803006 0.331331 0.588486
O O3 0.700222 0.171434 0.601571
O O4 0.882677 0.194571 0.670314
O O5 0.245641 0.023181 0.500000
O O6 0.234209 0.028318 0.680558
O O7 0.390297 0.989029 0.600103
O O8 0.822903 0.524834 0.830458
O O9 0.848295 0.550300 0.000000
O O10 0.137762 0.637762 0.250000
#
# Coordination Sequence:
#
# PCOD9568731 Si02
#       4
#    16  16  16  16
#     4   9  19  35  53  76 105 139 182 230 279 332
#     4   9  19  32  47  72 105 139 175 216 266 323
#     4  10  20  35  56  79 109 147 184 229 284 335
#     4  10  20  32  51  79 108 139 178 226 274 330
#
# _framework density 22.225360999999999
#
# number of rings (size 3 to 8) (size 9 to 14) (size 15 to 20)
#    0.000    2.500    0.000    1.500    0.000   14.000 
#    0.000   11.250    0.000    1.500    0.000   15.750 
#    0.000    0.000    0.000    0.000    0.000    0.000 
#
# Total GULP energy -356706.341985 kJ/mol
# GULP energy per Si atom -5573.536594 kJ/mol
# Density = 2.217478 g / cm^3
# Si number density = 22.225361 Si / 1000 Ang^3
#
#
#
# Elastic Constant Matrix: (Units=GPa)
#
#
# Indices 1 2 3 4 5 6 
#
# 1 40.2569 22.4690 18.3206 0.0000 0.0000 0.0000
# 2 22.4690 40.2569 18.3206 0.0000 0.0000 0.0000
# 3 18.3206 18.3206 251.4618 0.0000 0.0000 0.0000
# 4 0.0000 0.0000 0.0000 12.7288 0.0000 0.0000
# 5 0.0000 0.0000 0.0000 0.0000 12.7288 0.0000
# 6 0.0000 0.0000 0.0000 0.0000 0.0000 17.9518
#
#
#
# Elastic Compliance Matrix: (Units=1/GPa)
#
#
# Indices 1 2 3 4 5 6 
#
# 1 0.036435 -0.019783 -0.001213 0.000000 0.000000 0.000000
# 2 -0.019783 0.036435 -0.001213 0.000000 0.000000 0.000000
# 3 -0.001213 -0.001213 0.004154 0.000000 0.000000 0.000000
# 4 0.000000 0.000000 0.000000 0.078562 0.000000 0.000000
# 5 0.000000 0.000000 0.000000 0.000000 0.078562 0.000000
# 6 0.000000 0.000000 0.000000 0.000000 0.000000 0.055705
#
#
# Mechanical properties :
#
#
# Convention : Reuss Voigt Hill
#
# Bulk Modulus (GPa) = 30.67200 50.02179 40.34689
# Shear Modulus (GPa) = 14.48695 26.87291 20.67993
#
# Velocity S-wave (km/s) = 2.55585 3.48100 3.05366
# Velocity P-wave (km/s) = 4.74765 6.22189 5.53408
#
# Compressibility (1/GPa) = 0.03260303
#
# Stress axis : x y z
#
# Youngs Moduli (GPa) = 27.44650 27.44650 240.75982
#
# Poissons Ratio (x) = 0.54299 0.29207
# Poissons Ratio (y) = 0.54299 0.29207
# Poissons Ratio (z) = 0.03330 0.03330
#
# Static dielectric constant tensor:
#      x y z
#    x 1.838400 0.000000 0.000000 
#    y 0.000000 1.838400 0.000000 
#    z 0.000000 0.000000 1.982470 
# 
# From -- ./inp_files/3135.got.cif
#   From: 2010.05.17/outbox.cif.g08.bks.cpg/sg135_2_cif.got.tgz:3135.got - 2010.05.20 12:50:20.
