data_PCOD9568078
_publ_section_title
;
Structure prediction by ZEFSAII (Michael W. Deem and Ramdas Pophale) SiO2 
 PCOD9568078
Probable space group: P 42/N N M
;
_chemical_formula_sum "Si O2"
_cell_formula_units_Z 64
_cell_length_a 17.146816
_cell_length_b 17.146816
_cell_length_c 12.903969
_cell_angle_alpha 90.000000
_cell_angle_beta 90.000000
_cell_angle_gamma 90.000000
_cell_volume 3793.938495
_symmetry_space_group_name_H-M "P 42/N N M"
_symmetry_group_IT_number 134
_space_group.IT_coordinate_system_code '2'
_symmetry_cell_setting 'tetragonal'
loop_
_space_group_symop_operation_xyz
x,y,z
1/2-y,x,1/2+z
1/2-x,1/2-y,z
y,1/2-x,1/2+z
x,1/2-y,1/2-z
1/2-x,y,1/2-z
y,x,-z
1/2-y,1/2-x,-z
-x,-y,-z
1/2+y,-x,1/2-z
1/2+x,1/2+y,-z
-y,1/2+x,1/2-z
-x,1/2+y,1/2+z
1/2+x,-y,1/2+z
-y,-x,z
1/2+y,1/2+x,z
loop_
_atom_site_type_symbol
_atom_site_label
_atom_site_fract_x
_atom_site_fract_y
_atom_site_fract_z
Si Si1 0.860781 0.838415 0.209952
Si Si2 0.284436 0.116230 0.918721
Si Si3 0.964630 0.160115 0.757569
Si Si4 0.006600 0.625390 0.017240
O O1 0.848451 0.750000 0.250000
O O2 0.801455 0.859688 0.118448
O O3 0.834850 0.885494 0.312405
O O4 0.951948 0.846576 0.185182
O O5 0.321791 0.178210 0.000000
O O6 0.297094 0.031227 0.969087
O O7 0.939352 0.250000 0.750000
O O8 0.898203 0.101798 0.797035
O O9 0.983307 0.137592 0.638907
O O10 0.086750 0.586750 0.976220
O O11 0.940020 0.559981 0.000000
#
# Coordination Sequence:
#
# PCOD9568078 Si02
#       4
#    16  16  16  16
#     4  10  20  30  43  73 108 138 167 202 258 306
#     4  10  17  29  45  73 104 138 171 198 239 314
#     4  10  20  36  52  73 101 129 173 224 264 309
#     4   9  16  30  51  72  97 131 170 213 253 297
#
# _framework density 16.869012999999999
#
# number of rings (size 3 to 8) (size 9 to 14) (size 15 to 20)
#    0.000    2.250    5.000    1.500    0.000    2.250 
#    0.000    0.000    0.000    3.000    0.000    0.000 
#    0.000    0.000    0.000    0.000    0.000    0.000 
#
# Total GULP energy -356367.665329 kJ/mol
# GULP energy per Si atom -5568.244771 kJ/mol
# Density = 1.683062 g / cm^3
# Si number density = 16.869013 Si / 1000 Ang^3
#
#
#
# Elastic Constant Matrix: (Units=GPa)
#
#
# Indices 1 2 3 4 5 6 
#
# 1 94.3877 73.7420 19.6323 0.0000 0.0000 0.0000
# 2 73.7420 94.3860 19.6321 0.0000 0.0000 0.0000
# 3 19.6323 19.6321 53.4284 0.0000 0.0000 0.0000
# 4 0.0000 0.0000 0.0000 11.9396 0.0000 0.0000
# 5 0.0000 0.0000 0.0000 0.0000 11.9404 0.0000
# 6 0.0000 0.0000 0.0000 0.0000 0.0000 28.2533
#
#
#
# Elastic Compliance Matrix: (Units=1/GPa)
#
#
# Indices 1 2 3 4 5 6 
#
# 1 0.027472 -0.020966 -0.002391 0.000000 0.000000 0.000000
# 2 -0.020966 0.027472 -0.002391 0.000000 0.000000 0.000000
# 3 -0.002391 -0.002391 0.020474 0.000000 0.000000 0.000000
# 4 0.000000 0.000000 0.000000 0.083755 0.000000 0.000000
# 5 0.000000 0.000000 0.000000 0.000000 0.083749 0.000000
# 6 0.000000 0.000000 0.000000 0.000000 0.000000 0.035394
#
#
# Mechanical properties :
#
#
# Convention : Reuss Voigt Hill
#
# Bulk Modulus (GPa) = 41.80056 52.02387 46.91221
# Shear Modulus (GPa) = 14.80232 19.03973 16.92102
#
# Velocity S-wave (km/s) = 2.96545 3.36323 3.17058
# Velocity P-wave (km/s) = 6.04636 6.78149 6.42445
#
# Compressibility (1/GPa) = 0.02392313
#
# Stress axis : x y z
#
# Youngs Moduli (GPa) = 36.40087 36.40020 48.84353
#
# Poissons Ratio (x) = 0.76317 0.11677
# Poissons Ratio (y) = 0.76318 0.11677
# Poissons Ratio (z) = 0.08702 0.08702
#
# Static dielectric constant tensor:
#      x y z
#    x 1.628860 0.000000 0.000000 
#    y 0.000000 1.628860 0.000000 
#    z 0.000000 0.000000 1.607630 
# 
# From -- ./inp_files/4548.got.cif
#   From: 2010.05.17/outbox.cif.g08.bks.cpg/sg134_3_cif.got.tgz:4548.got - 2010.05.20 12:42:49.
