data_PCOD9568924
_publ_section_title
;
Structure prediction by ZEFSAII (Michael W. Deem and Ramdas Pophale) SiO2 
 PCOD9568924
Probable space group: P 42/M B C
;
_chemical_formula_sum "Si O2"
_cell_formula_units_Z 112
_cell_length_a 13.655052
_cell_length_b 13.655052
_cell_length_c 26.417456
_cell_angle_alpha 90.000000
_cell_angle_beta 90.000000
_cell_angle_gamma 90.000000
_cell_volume 4925.810605
_symmetry_space_group_name_H-M "P 42/M B C"
_symmetry_group_IT_number 135
_symmetry_cell_setting 'tetragonal'
loop_
_space_group_symop_operation_xyz
x,y,z
-y,x,1/2+z
-x,-y,z
y,-x,1/2+z
1/2+x,1/2-y,-z
1/2-x,1/2+y,-z
1/2+y,1/2+x,1/2-z
1/2-y,1/2-x,1/2-z
-x,-y,-z
y,-x,1/2-z
x,y,-z
-y,x,1/2-z
1/2-x,1/2+y,z
1/2+x,1/2-y,z
1/2-y,1/2-x,1/2+z
1/2+y,1/2+x,1/2+z
loop_
_atom_site_type_symbol
_atom_site_label
_atom_site_fract_x
_atom_site_fract_y
_atom_site_fract_z
Si Si1 0.594044 0.072146 0.806212
Si Si2 0.976808 0.703017 0.104030
Si Si3 0.688917 0.227770 0.445358
Si Si4 0.369712 0.602688 0.248230
Si Si5 0.608786 0.838470 0.443841
Si Si6 0.954873 0.219586 0.346730
Si Si7 0.126166 0.862543 0.140777
O O1 0.610103 0.110103 0.750000
O O2 0.566583 0.156994 0.845091
O O3 0.690452 0.013082 0.821415
O O4 0.500000 0.000000 0.806296
O O5 0.884646 0.713729 0.066911
O O6 0.054560 0.625890 0.080288
O O7 0.037629 0.801338 0.116703
O O8 0.636851 0.234583 0.500000
O O9 0.785150 0.292129 0.450761
O O10 0.644021 0.280208 0.396342
O O11 0.483847 0.632413 0.244274
O O12 0.312473 0.624019 0.195877
O O13 0.326972 0.642872 0.301384
O O14 0.563486 0.845131 0.500000
O O15 0.568827 0.765000 0.401204
O O16 0.020301 0.121559 0.353455
#
# Coordination Sequence:
#
# PCOD9568924 Si02
#       7
#    16  16  16  16  16  16  16
#     4  11  22  38  60  91 130 163 204 265 325 381
#     4  11  21  41  63  91 126 170 213 262 330 385
#     4  10  22  41  63  90 127 169 215 269 319 381
#     4   9  20  38  62  91 128 168 205 262 330 389
#     4  10  23  41  62  92 127 165 214 268 321 385
#     4  11  21  41  63  94 125 166 214 265 320 391
#     4  10  22  39  64  95 124 165 218 260 318 393
#
# _framework density 22.737373000000002
#
# number of rings (size 3 to 8) (size 9 to 14) (size 15 to 20)
#    0.000    1.714    2.857    1.286    2.000    1.143 
#    0.000    0.714    0.000    1.714    0.000    0.000 
#    0.000    0.000    0.000    0.000    0.000    0.000 
#
# Total GULP energy -624564.681956 kJ/mol
# GULP energy per Si atom -5576.470375 kJ/mol
# Density = 2.268562 g / cm^3
# Si number density = 22.737373 Si / 1000 Ang^3
#
#
#
# Elastic Constant Matrix: (Units=GPa)
#
#
# Indices 1 2 3 4 5 6 
#
# 1 47.8021 24.8334 32.2809 0.0000 0.0000 0.0000
# 2 24.8334 47.8021 32.2809 0.0000 0.0000 0.0000
# 3 32.2809 32.2809 203.4730 0.0000 0.0000 0.0000
# 4 0.0000 0.0000 0.0000 -25.3130 0.0000 0.0000
# 5 0.0000 0.0000 0.0000 0.0000 -25.3130 0.0000
# 6 0.0000 0.0000 0.0000 0.0000 0.0000 28.8827
#
#
#
# Elastic Compliance Matrix: (Units=1/GPa)
#
#
# Indices 1 2 3 4 5 6 
#
# 1 0.029782 -0.013755 -0.002543 0.000000 0.000000 0.000000
# 2 -0.013755 0.029782 -0.002543 0.000000 0.000000 0.000000
# 3 -0.002543 -0.002543 0.005721 0.000000 0.000000 0.000000
# 4 0.000000 0.000000 0.000000 -0.039505 0.000000 0.000000
# 5 0.000000 0.000000 0.000000 0.000000 -0.039505 0.000000
# 6 0.000000 0.000000 0.000000 0.000000 0.000000 0.034623
#
#
# Mechanical properties :
#
#
# Convention : Reuss Voigt Hill
#
# Bulk Modulus (GPa) = 36.22479 53.09642 44.66061
# Shear Modulus (GPa) = 73.76647 9.63012 41.69829
#
# Velocity S-wave (km/s) = 5.70204 2.06023 4.28706
# Velocity P-wave (km/s) = 7.70178 5.39093 6.64754
#
# Compressibility (1/GPa) = 0.02760540
#
# Stress axis : x y z
#
# Youngs Moduli (GPa) = 33.57678 33.57678 174.78020
#
# Poissons Ratio (x) = 0.46185 0.44442
# Poissons Ratio (y) = 0.46185 0.44442
# Poissons Ratio (z) = 0.08538 0.08538
#
# Static dielectric constant tensor:
#      x y z
#    x 1.896350 0.000000 0.000000 
#    y 0.000000 1.896350 0.000000 
#    z 0.000000 0.000000 2.286600 
# 
# From -- ./inp_files/6143.got.cif
#   From: 2010.05.17/outbox.cif.g08.bks.cpg/sg135_4_cif.got.tgz:6143.got - 2010.05.20 12:50:20.
