data_PCOD9568418
_publ_section_title
;
Structure prediction by ZEFSAII (Michael W. Deem and Ramdas Pophale) SiO2 
 PCOD9568418
Probable space group: P 42/N N M
;
_chemical_formula_sum "Si O2"
_cell_formula_units_Z 112
_cell_length_a 14.305337
_cell_length_b 14.305337
_cell_length_c 24.165297
_cell_angle_alpha 90.000000
_cell_angle_beta 90.000000
_cell_angle_gamma 90.000000
_cell_volume 4945.250819
_symmetry_space_group_name_H-M "P 42/N N M"
_symmetry_group_IT_number 134
_space_group.IT_coordinate_system_code '2'
_symmetry_cell_setting 'tetragonal'
loop_
_space_group_symop_operation_xyz
x,y,z
1/2-y,x,1/2+z
1/2-x,1/2-y,z
y,1/2-x,1/2+z
x,1/2-y,1/2-z
1/2-x,y,1/2-z
y,x,-z
1/2-y,1/2-x,-z
-x,-y,-z
1/2+y,-x,1/2-z
1/2+x,1/2+y,-z
-y,1/2+x,1/2-z
-x,1/2+y,1/2+z
1/2+x,-y,1/2+z
-y,-x,z
1/2+y,1/2+x,z
loop_
_atom_site_type_symbol
_atom_site_label
_atom_site_fract_x
_atom_site_fract_y
_atom_site_fract_z
Si Si1 0.518369 0.165180 0.664239
Si Si2 0.899089 0.250699 0.979132
Si Si3 0.903917 0.833987 0.441333
Si Si4 0.002897 0.796897 0.590789
Si Si5 0.479385 0.130510 0.794265
Si Si6 0.866540 0.873708 0.931644
Si Si7 0.164913 0.514845 0.790705
O O1 0.623443 0.123443 0.657091
O O2 0.490955 0.138915 0.727599
O O3 0.501592 0.276494 0.670916
O O4 0.457903 0.121003 0.613636
O O5 0.854104 0.145897 0.975626
O O6 0.819115 0.319115 0.958335
O O7 0.924202 0.276848 0.042287
O O8 0.993875 0.287356 0.950102
O O9 0.858107 0.858107 0.500000
O O10 0.889448 0.936218 0.414894
O O11 0.850493 0.742211 0.421476
O O12 0.931869 0.710504 0.586479
O O13 0.049369 0.801568 0.649852
O O14 0.553779 0.053779 0.813476
O O15 0.376223 0.088899 0.799721
O O16 0.884821 0.884821 0.000000
O O17 0.250000 0.514004 0.750000
O O18 0.081120 0.581120 0.770335
#
# Coordination Sequence:
#
# PCOD9568418 Si02
#       7
#    16  16  16  16  16  16  16
#     4  10  22  39  64  98 134 177 224 274 338 415
#     4  10  22  39  58  84 121 164 212 267 326 393
#     4  10  21  38  60  89 124 169 221 273 325 392
#     4  11  23  39  66  92 124 170 221 272 332 401
#     4   9  20  43  68  95 133 169 221 289 348 410
#     4  12  22  38  61  95 136 176 221 278 339 404
#     4  11  24  43  68  98 130 170 221 284 355 424
#
# _framework density 22.64799
#
# number of rings (size 3 to 8) (size 9 to 14) (size 15 to 20)
#    0.000    1.571    2.857    2.571    0.000    5.571 
#    0.000    6.429    0.000    0.000    0.000    0.000 
#    0.000    0.000    0.000    0.000    0.000    0.000 
#
# Total GULP energy -623513.789691 kJ/mol
# GULP energy per Si atom -5567.087408 kJ/mol
# Density = 2.259644 g / cm^3
# Si number density = 22.647990 Si / 1000 Ang^3
#
#
#
# Elastic Constant Matrix: (Units=GPa)
#
#
# Indices 1 2 3 4 5 6 
#
# 1 113.0579 59.8942 27.3355 0.0000 0.0000 0.0000
# 2 59.8942 113.0579 27.3355 0.0000 0.0000 0.0000
# 3 27.3355 27.3355 109.2755 0.0000 0.0000 0.0000
# 4 0.0000 0.0000 0.0000 -144.0774 0.0000 0.0000
# 5 0.0000 0.0000 0.0000 0.0000 -144.0774 0.0000
# 6 0.0000 0.0000 0.0000 0.0000 0.0000 38.9044
#
#
#
# Elastic Compliance Matrix: (Units=1/GPa)
#
#
# Indices 1 2 3 4 5 6 
#
# 1 0.012544 -0.006266 -0.001571 0.000000 0.000000 0.000000
# 2 -0.006266 0.012544 -0.001571 0.000000 0.000000 0.000000
# 3 -0.001571 -0.001571 0.009937 0.000000 0.000000 0.000000
# 4 0.000000 0.000000 0.000000 -0.006941 0.000000 0.000000
# 5 0.000000 0.000000 0.000000 0.000000 -0.006941 0.000000
# 6 0.000000 0.000000 0.000000 0.000000 0.000000 0.025704
#
#
# Mechanical properties :
#
#
# Convention : Reuss Voigt Hill
#
# Bulk Modulus (GPa) = 61.68449 62.72462 62.20455
# Shear Modulus (GPa) = 70.35791 -35.12832 17.61479
#
# Velocity S-wave (km/s) = 5.57972 -3.94262 2.79187
# Velocity P-wave (km/s) = 8.29496 2.65140 6.15777
#
# Compressibility (1/GPa) = 0.01621153
#
# Stress axis : x y z
#
# Youngs Moduli (GPa) = 79.71870 79.71870 100.63463
#
# Poissons Ratio (x) = 0.49949 0.15805
# Poissons Ratio (y) = 0.49949 0.15805
# Poissons Ratio (z) = 0.12520 0.12520
#
# Static dielectric constant tensor:
#      x y z
#    x 1.898230 0.000000 0.000000 
#    y 0.000000 1.898230 0.000000 
#    z 0.000000 0.000000 1.928530 
# 
# From -- ./inp_files/10147.got.cif
#   From: 2010.05.17/outbox.cif.g08.bks.cpg/sg134_6_cif.got.tgz:10147.got - 2010.05.20 12:42:49.
