data_PCOD9568031
_publ_section_title
;
Structure prediction by ZEFSAII (Michael W. Deem and Ramdas Pophale) SiO2 
 PCOD9568031
Probable space group: P 42/N B C
;
_chemical_formula_sum "Si O2"
_cell_formula_units_Z 32
_cell_length_a 9.194358
_cell_length_b 9.194358
_cell_length_c 12.131309
_cell_angle_alpha 90.000000
_cell_angle_beta 90.000000
_cell_angle_gamma 90.000000
_cell_volume 1025.534995
_symmetry_space_group_name_H-M "P 42/N B C"
_symmetry_group_IT_number 133
_space_group.IT_coordinate_system_code '2'
_symmetry_cell_setting 'tetragonal'
loop_
_space_group_symop_operation_xyz
x,y,z
1/2-y,x,1/2+z
1/2-x,1/2-y,z
y,1/2-x,1/2+z
x,1/2-y,-z
1/2-x,y,-z
y,x,1/2-z
1/2-y,1/2-x,1/2-z
-x,-y,-z
1/2+y,-x,1/2-z
1/2+x,1/2+y,-z
-y,1/2+x,1/2-z
-x,1/2+y,z
1/2+x,-y,z
-y,-x,1/2+z
1/2+y,1/2+x,1/2+z
loop_
_atom_site_type_symbol
_atom_site_label
_atom_site_fract_x
_atom_site_fract_y
_atom_site_fract_z
Si Si1 0.314906 0.544312 0.301676
Si Si2 0.595205 0.930840 0.948363
O O1 0.421584 0.421584 0.250000
O O2 0.403136 0.704621 0.306115
O O3 0.408075 0.522897 0.445072
O O4 0.179399 0.457295 0.360444
O O5 0.750000 0.914452 0.000000
#
# Coordination Sequence:
#
# PCOD9568031 Si02
#       2
#    16  16
#     4  11  25  49  79 117 166 217 275 351 424 503
#     4  12  27  50  81 120 164 217 280 348 424 509
#
# _framework density 31.203223000000001
#
# number of rings (size 3 to 8) (size 9 to 14) (size 15 to 20)
#    0.000    0.500    0.000    9.000    0.000    6.000 
#    0.000    5.000    0.000    0.000    0.000    0.000 
#    0.000    0.000    0.000    0.000    0.000    0.000 
#
# Total GULP energy -178379.642959 kJ/mol
# GULP energy per Si atom -5574.363842 kJ/mol
# Density = 3.113220 g / cm^3
# Si number density = 31.203223 Si / 1000 Ang^3
#
#
#
# Elastic Constant Matrix: (Units=GPa)
#
#
# Indices 1 2 3 4 5 6 
#
# 1 5088.3239-4728.5252 73.7234 0.0000 0.0000 0.0000
# 2 -4728.5252 5088.3239 73.7234 0.0000 0.0000 0.0000
# 3 73.7234 73.7234 160.9252 0.0000 0.0000 0.0000
# 4 0.0000 0.0000 0.0000 24.1222 0.0000 0.0000
# 5 0.0000 0.0000 0.0000 0.0000 24.1222 0.0000
# 6 0.0000 0.0000 0.0000 0.0000 0.0000 92.2780
#
#
#
# Elastic Compliance Matrix: (Units=1/GPa)
#
#
# Indices 1 2 3 4 5 6 
#
# 1 0.001762 0.001660 -0.001568 0.000000 0.000000 0.000000
# 2 0.001660 0.001762 -0.001568 0.000000 0.000000 0.000000
# 3 -0.001568 -0.001568 0.007650 0.000000 0.000000 0.000000
# 4 0.000000 0.000000 0.000000 0.041456 0.000000 0.000000
# 5 0.000000 0.000000 0.000000 0.000000 0.041456 0.000000
# 6 0.000000 0.000000 0.000000 0.000000 0.000000 0.010837
#
#
# Mechanical properties :
#
#
# Convention : Reuss Voigt Hill
#
# Bulk Modulus (GPa) = 121.60242 130.60180 126.10211
# Shear Modulus (GPa) = 45.20246 1022.68125 533.94186
#
# Velocity S-wave (km/s) = 3.81024 18.12347 13.09538
# Velocity P-wave (km/s) = 7.64284 21.90646 16.40588
#
# Compressibility (1/GPa) = 0.00822352
#
# Stress axis : x y z
#
# Youngs Moduli (GPa) = 567.60231 567.60231 130.71310
#
# Poissons Ratio (x) = -0.94218 0.20490
# Poissons Ratio (y) = -0.94218 0.20490
# Poissons Ratio (z) = 0.88976 0.88976
#
# Static dielectric constant tensor:
#      x y z
#    x 3.997490 0.000000 0.000000 
#    y 0.000000 3.997490 0.000000 
#    z 0.000000 0.000000 4.485870 
# 
# From -- ./inp_files/2233.got.cif
#   From: 2010.05.17/outbox.cif.g08.bks.cpg/sg133_2_cif.got.tgz:2233.got - 2010.05.20 12:37:36.
