data_PCOD9568835
_publ_section_title
;
Structure prediction by ZEFSAII (Michael W. Deem and Ramdas Pophale) SiO2 
 PCOD9568835
Probable space group: P 42/M B C
;
_chemical_formula_sum "Si O2"
_cell_formula_units_Z 36
_cell_length_a 13.419187
_cell_length_b 13.419187
_cell_length_c 9.097148
_cell_angle_alpha 90.000000
_cell_angle_beta 90.000000
_cell_angle_gamma 90.000000
_cell_volume 1638.165103
_symmetry_space_group_name_H-M "P 42/M B C"
_symmetry_group_IT_number 135
_symmetry_cell_setting 'tetragonal'
loop_
_space_group_symop_operation_xyz
x,y,z
-y,x,1/2+z
-x,-y,z
y,-x,1/2+z
1/2+x,1/2-y,-z
1/2-x,1/2+y,-z
1/2+y,1/2+x,1/2-z
1/2-y,1/2-x,1/2-z
-x,-y,-z
y,-x,1/2-z
x,y,-z
-y,x,1/2-z
1/2-x,1/2+y,z
1/2+x,1/2-y,z
1/2-y,1/2-x,1/2+z
1/2+y,1/2+x,1/2+z
loop_
_atom_site_type_symbol
_atom_site_label
_atom_site_fract_x
_atom_site_fract_y
_atom_site_fract_z
Si Si1 0.216729 0.476648 0.000000
Si Si2 0.500000 0.500000 0.250000
Si Si3 0.321901 0.821901 0.750000
Si Si4 0.379412 0.578004 0.500000
Si Si5 0.297914 0.236316 0.500000
O O1 0.180376 0.417385 0.144509
O O2 0.335803 0.463903 0.000000
O O3 0.194628 0.592035 0.000000
O O4 0.404511 0.516095 0.354817
O O5 0.305032 0.729441 0.860719
O O6 0.278788 0.642356 0.500000
#
# Coordination Sequence:
#
# PCOD9568835 Si02
#       5
#     8   4   8   8   8
#     4  10  21  39  68  93 138 173 219 273 329 404
#     4  10  20  42  60 106 136 150 228 278 340 390
#     4   8  20  42  62 104 126 170 222 274 322 398
#     4   9  22  36  65 104 127 175 206 282 330 397
#     4  10  21  41  67  99 132 180 222 269 340 391
#
# _framework density 21.975808000000001
#
# number of rings (size 3 to 8) (size 9 to 14) (size 15 to 20)
#    0.000    3.111    0.000    0.000   12.444    0.000 
#    0.000    8.889    0.000    4.000   23.111    0.000 
#    0.000    0.000    0.000    0.000    0.000    0.000 
#
# Total GULP energy -200988.221263 kJ/mol
# GULP energy per Si atom -5583.006146 kJ/mol
# Density = 2.192579 g / cm^3
# Si number density = 21.975808 Si / 1000 Ang^3
#
#
#
# Elastic Constant Matrix: (Units=GPa)
#
#
# Indices 1 2 3 4 5 6 
#
# 1 132.2668 54.5072 69.1668 0.0000 0.0000 0.0000
# 2 54.5072 132.2668 69.1668 0.0000 0.0000 0.0000
# 3 69.1668 69.1668 185.7033 0.0000 0.0000 0.0000
# 4 0.0000 0.0000 0.0000 6.5720 0.0000 0.0000
# 5 0.0000 0.0000 0.0000 0.0000 6.5720 0.0000
# 6 0.0000 0.0000 0.0000 0.0000 0.0000 31.6903
#
#
#
# Elastic Compliance Matrix: (Units=1/GPa)
#
#
# Indices 1 2 3 4 5 6 
#
# 1 0.010127 -0.002733 -0.002754 0.000000 0.000000 0.000000
# 2 -0.002733 0.010127 -0.002754 0.000000 0.000000 0.000000
# 3 -0.002754 -0.002754 0.007436 0.000000 0.000000 0.000000
# 4 0.000000 0.000000 0.000000 0.152160 0.000000 0.000000
# 5 0.000000 0.000000 0.000000 0.000000 0.152160 0.000000
# 6 0.000000 0.000000 0.000000 0.000000 0.000000 0.031555
#
#
# Mechanical properties :
#
#
# Convention : Reuss Voigt Hill
#
# Bulk Modulus (GPa) = 89.21940 92.87983 91.04962
# Shear Modulus (GPa) = 13.02815 26.12660 19.57737
#
# Velocity S-wave (km/s) = 2.43747 3.45175 2.98797
# Velocity P-wave (km/s) = 6.97200 7.63168 7.30928
#
# Compressibility (1/GPa) = 0.01120832
#
# Stress axis : x y z
#
# Youngs Moduli (GPa) = 98.74666 98.74666 134.47508
#
# Poissons Ratio (x) = 0.26990 0.37032
# Poissons Ratio (y) = 0.26990 0.37032
# Poissons Ratio (z) = 0.27193 0.27193
#
# Static dielectric constant tensor:
#      x y z
#    x 1.805150 0.000000 0.000000 
#    y 0.000000 1.805150 0.000000 
#    z 0.000000 0.000000 1.907550 
# 
# From -- ./inp_files/389.got.cif
#   From: 2010.05.17/outbox.cif.g08.bks.cpg/sg135_1_cif.got.tgz:389.got - 2010.05.20 12:50:20.
