data_PCOD9568609
_publ_section_title
;
Structure prediction by ZEFSAII (Michael W. Deem and Ramdas Pophale) SiO2 
 PCOD9568609
Probable space group: P 42/M B C
;
_chemical_formula_sum "Si O2"
_cell_formula_units_Z 88
_cell_length_a 13.925330
_cell_length_b 13.925330
_cell_length_c 19.682608
_cell_angle_alpha 90.000000
_cell_angle_beta 90.000000
_cell_angle_gamma 90.000000
_cell_volume 3816.749301
_symmetry_space_group_name_H-M "P 42/M B C"
_symmetry_group_IT_number 135
_symmetry_cell_setting 'tetragonal'
loop_
_space_group_symop_operation_xyz
x,y,z
-y,x,1/2+z
-x,-y,z
y,-x,1/2+z
1/2+x,1/2-y,-z
1/2-x,1/2+y,-z
1/2+y,1/2+x,1/2-z
1/2-y,1/2-x,1/2-z
-x,-y,-z
y,-x,1/2-z
x,y,-z
-y,x,1/2-z
1/2-x,1/2+y,z
1/2+x,1/2-y,z
1/2-y,1/2-x,1/2+z
1/2+y,1/2+x,1/2+z
loop_
_atom_site_type_symbol
_atom_site_label
_atom_site_fract_x
_atom_site_fract_y
_atom_site_fract_z
Si Si1 0.260995 0.753307 0.366675
Si Si2 0.950778 0.797350 0.923110
Si Si3 0.865544 0.959387 0.218056
Si Si4 0.568098 0.373251 0.576524
Si Si5 0.372866 0.872866 0.750000
Si Si6 0.304649 0.067391 0.308850
O O1 0.202511 0.839974 0.401199
O O2 0.337437 0.694299 0.412866
O O3 0.330151 0.807508 0.311515
O O4 0.184434 0.673191 0.340979
O O5 0.004821 0.725466 0.873402
O O6 0.016811 0.892823 0.920527
O O7 0.955005 0.762939 0.000000
O O8 0.954646 0.889004 0.228480
O O9 0.855434 0.003629 0.143633
O O10 0.779948 0.908987 0.256037
O O11 0.528552 0.356673 0.500000
O O12 0.360997 0.986333 0.734317
#
# Coordination Sequence:
#
# PCOD9568609 Si02
#       6
#    16  16  16  16   8  16
#     4  10  18  31  52  77 110 155 202 241 304 355
#     4   9  18  31  49  77 114 153 201 246 287 356
#     4  11  19  32  50  75 112 159 189 234 301 369
#     4  10  19  33  51  78 115 156 203 246 298 360
#     4  10  18  30  54  80 114 152 200 248 294 364
#     4  10  18  33  51  81 113 156 200 243 301 361
#
# _framework density 23.056270999999999
#
# number of rings (size 3 to 8) (size 9 to 14) (size 15 to 20)
#    0.000    2.000    5.455    0.545    0.000    0.727 
#    0.000    2.727    0.000    0.545    0.000    0.000 
#    0.000    0.000    0.000   29.273    0.000    0.364 
#
# Total GULP energy -490636.754656 kJ/mol
# GULP energy per Si atom -5575.417667 kJ/mol
# Density = 2.300379 g / cm^3
# Si number density = 23.056271 Si / 1000 Ang^3
#
#
#
# Elastic Constant Matrix: (Units=GPa)
#
#
# Indices 1 2 3 4 5 6 
#
# 1 74.1666 27.1069 28.3582 0.0000 0.0000 0.0000
# 2 27.1069 74.1666 28.3582 0.0000 0.0000 0.0000
# 3 28.3582 28.3582 145.1760 0.0000 0.0000 0.0000
# 4 0.0000 0.0000 0.0000 27.8756 0.0000 0.0000
# 5 0.0000 0.0000 0.0000 0.0000 27.8756 0.0000
# 6 0.0000 0.0000 0.0000 0.0000 0.0000 -3.3527
#
#
#
# Elastic Compliance Matrix: (Units=1/GPa)
#
#
# Indices 1 2 3 4 5 6 
#
# 1 0.016168 -0.005081 -0.002166 0.000000 0.000000 0.000000
# 2 -0.005081 0.016168 -0.002166 0.000000 0.000000 0.000000
# 3 -0.002166 -0.002166 0.007734 0.000000 0.000000 0.000000
# 4 0.000000 0.000000 0.000000 0.035874 0.000000 0.000000
# 5 0.000000 0.000000 0.000000 0.000000 0.035874 0.000000
# 6 0.000000 0.000000 0.000000 0.000000 0.000000 -0.298265
#
#
# Mechanical properties :
#
#
# Convention : Reuss Voigt Hill
#
# Bulk Modulus (GPa) = 47.06845 51.23950 49.15398
# Shear Modulus (GPa) = -31.14506 24.45874 -3.34316
#
# Velocity S-wave (km/s) = -3.67935 3.26057 -1.20547
# Velocity P-wave (km/s) = 1.55202 6.03714 4.40771
#
# Compressibility (1/GPa) = 0.02124565
#
# Stress axis : x y z
#
# Youngs Moduli (GPa) = 61.84922 61.84922 129.29450
#
# Poissons Ratio (x) = 0.31427 0.28002
# Poissons Ratio (y) = 0.31427 0.28002
# Poissons Ratio (z) = 0.13395 0.13395
#
# Static dielectric constant tensor:
#      x y z
#    x 1.972250 0.000000 0.000000 
#    y 0.000000 1.972250 0.000000 
#    z 0.000000 0.000000 1.859030 
# 
# From -- ./inp_files/5337.got.cif
#   From: 2010.05.17/outbox.cif.g08.bks.cpg/sg135_3_cif.got.tgz:5337.got - 2010.05.20 12:50:20.
