data_PCOD9568881
_publ_section_title
;
Structure prediction by ZEFSAII (Michael W. Deem and Ramdas Pophale) SiO2 
 PCOD9568881
Probable space group: P 42/M B C
;
_chemical_formula_sum "Si O2"
_cell_formula_units_Z 112
_cell_length_a 13.799149
_cell_length_b 13.799149
_cell_length_c 26.114434
_cell_angle_alpha 90.000000
_cell_angle_beta 90.000000
_cell_angle_gamma 90.000000
_cell_volume 4972.619464
_symmetry_space_group_name_H-M "P 42/M B C"
_symmetry_group_IT_number 135
_symmetry_cell_setting 'tetragonal'
loop_
_space_group_symop_operation_xyz
x,y,z
-y,x,1/2+z
-x,-y,z
y,-x,1/2+z
1/2+x,1/2-y,-z
1/2-x,1/2+y,-z
1/2+y,1/2+x,1/2-z
1/2-y,1/2-x,1/2-z
-x,-y,-z
y,-x,1/2-z
x,y,-z
-y,x,1/2-z
1/2-x,1/2+y,z
1/2+x,1/2-y,z
1/2-y,1/2-x,1/2+z
1/2+y,1/2+x,1/2+z
loop_
_atom_site_type_symbol
_atom_site_label
_atom_site_fract_x
_atom_site_fract_y
_atom_site_fract_z
Si Si1 0.304601 0.052952 0.942213
Si Si2 0.377234 0.862003 0.608444
Si Si3 0.722672 0.489881 0.627654
Si Si4 0.283750 0.687524 0.557299
Si Si5 0.769201 0.605402 0.783489
Si Si6 0.594597 0.746214 0.240786
Si Si7 0.924193 0.087143 0.441961
O O1 0.304820 0.167907 0.936453
O O2 0.191271 0.025395 0.936413
O O3 0.366180 0.990609 0.903127
O O4 0.336580 0.030889 0.000000
O O5 0.329596 0.792366 0.565991
O O6 0.361189 0.801077 0.660381
O O7 0.324868 0.964489 0.610726
O O8 0.689514 0.393847 0.598076
O O9 0.733544 0.462159 0.686864
O O10 0.647436 0.569783 0.605906
O O11 0.306006 0.653044 0.500000
O O12 0.862425 0.637576 0.750000
O O13 0.744667 0.491873 0.781776
O O14 0.676966 0.663239 0.760700
O O15 0.655177 0.844824 0.250000
O O16 0.878586 0.088714 0.500000
O O17 0.000000 0.000000 0.441596
#
# Coordination Sequence:
#
# PCOD9568881 Si02
#       7
#    16  16  16  16  16  16  16
#     4  10  23  40  62  98 141 182 219 276 340 403
#     4  12  24  42  72  99 136 179 234 278 348 413
#     4  12  24  43  70 103 133 185 232 284 349 416
#     4  11  24  43  66 100 142 184 227 275 338 407
#     4  11  25  48  71 102 134 181 234 295 350 420
#     4  11  27  48  72 100 142 177 235 297 356 420
#     4  10  21  39  65 100 139 177 230 282 333 406
#
# _framework density 22.523342
#
# number of rings (size 3 to 8) (size 9 to 14) (size 15 to 20)
#    0.000    1.000    4.286    1.714    2.000    5.143 
#    0.000    1.429    0.000    0.000    0.000    0.000 
#    0.000    0.000    0.000    0.000    0.000    0.000 
#
# Total GULP energy -625775.447790 kJ/mol
# GULP energy per Si atom -5587.280784 kJ/mol
# Density = 2.247208 g / cm^3
# Si number density = 22.523342 Si / 1000 Ang^3
#
#
#
# Elastic Constant Matrix: (Units=GPa)
#
#
# Indices 1 2 3 4 5 6 
#
# 1 61.1248 5.8303 -0.4964 0.0000 0.0000 0.0000
# 2 5.8303 61.1247 -0.4964 0.0000 0.0000 0.0000
# 3 -0.4964 -0.4964 54.3043 0.0000 0.0000 0.0000
# 4 0.0000 0.0000 0.0000 18.1211 0.0000 0.0000
# 5 0.0000 0.0000 0.0000 0.0000 18.1227 0.0000
# 6 0.0000 0.0000 0.0000 0.0000 0.0000 37.1929
#
#
#
# Elastic Compliance Matrix: (Units=1/GPa)
#
#
# Indices 1 2 3 4 5 6 
#
# 1 0.016511 -0.001574 0.000137 0.000000 0.000000 0.000000
# 2 -0.001574 0.016511 0.000137 0.000000 0.000000 0.000000
# 3 0.000137 0.000137 0.018417 0.000000 0.000000 0.000000
# 4 0.000000 0.000000 0.000000 0.055184 0.000000 0.000000
# 5 0.000000 0.000000 0.000000 0.000000 0.055180 0.000000
# 6 0.000000 0.000000 0.000000 0.000000 0.000000 0.026887
#
#
# Mechanical properties :
#
#
# Convention : Reuss Voigt Hill
#
# Bulk Modulus (GPa) = 20.47574 20.69208 20.58391
# Shear Modulus (GPa) = 24.08813 26.13509 25.11161
#
# Velocity S-wave (km/s) = 3.27383 3.41009 3.34266
# Velocity P-wave (km/s) = 4.83748 4.97111 4.90475
#
# Compressibility (1/GPa) = 0.04883828
#
# Stress axis : x y z
#
# Youngs Moduli (GPa) = 60.56499 60.56489 54.29690
#
# Poissons Ratio (x) = 0.09532 -0.00741
# Poissons Ratio (y) = 0.09532 -0.00741
# Poissons Ratio (z) = -0.00827 -0.00827
#
# Static dielectric constant tensor:
#      x y z
#    x 1.835940 0.000000 0.000000 
#    y 0.000000 1.835940 0.000000 
#    z 0.000000 0.000000 1.845620 
# 
# From -- ./inp_files/6108.got.cif
#   From: 2010.05.17/outbox.cif.g08.bks.cpg/sg135_4_cif.got.tgz:6108.got - 2010.05.20 12:50:20.
