data_PCOD9568789
_publ_section_title
;
Structure prediction by ZEFSAII (Michael W. Deem and Ramdas Pophale) SiO2 
 PCOD9568789
Probable space group: P 42/M B C
;
_chemical_formula_sum "Si O2"
_cell_formula_units_Z 120
_cell_length_a 13.897188
_cell_length_b 13.897188
_cell_length_c 27.065325
_cell_angle_alpha 90.000000
_cell_angle_beta 90.000000
_cell_angle_gamma 90.000000
_cell_volume 5227.175863
_symmetry_space_group_name_H-M "P 42/M B C"
_symmetry_group_IT_number 135
_symmetry_cell_setting 'tetragonal'
loop_
_space_group_symop_operation_xyz
x,y,z
-y,x,1/2+z
-x,-y,z
y,-x,1/2+z
1/2+x,1/2-y,-z
1/2-x,1/2+y,-z
1/2+y,1/2+x,1/2-z
1/2-y,1/2-x,1/2-z
-x,-y,-z
y,-x,1/2-z
x,y,-z
-y,x,1/2-z
1/2-x,1/2+y,z
1/2+x,1/2-y,z
1/2-y,1/2-x,1/2+z
1/2+y,1/2+x,1/2+z
loop_
_atom_site_type_symbol
_atom_site_label
_atom_site_fract_x
_atom_site_fract_y
_atom_site_fract_z
Si Si1 0.382481 0.998449 0.135262
Si Si2 0.776002 0.781294 0.946523
Si Si3 0.690989 0.422856 0.555485
Si Si4 0.803502 0.692535 0.344633
Si Si5 0.000000 0.000000 0.158644
Si Si6 0.479354 0.696179 0.164665
Si Si7 0.642791 0.808458 0.195211
Si Si8 0.994026 0.179500 0.416985
O O1 0.357367 0.903444 0.167251
O O2 0.500000 0.000000 0.123292
O O3 0.351696 0.094946 0.163484
O O4 0.292507 0.990146 0.096211
O O5 0.659359 0.773704 0.941397
O O6 0.814991 0.715411 0.903123
O O7 0.815973 0.889476 0.942343
O O8 0.799701 0.741371 0.000000
O O9 0.697456 0.467850 0.500000
O O10 0.696523 0.487320 0.605802
O O11 0.588938 0.364830 0.557005
O O12 0.713515 0.631820 0.325428
O O13 0.781604 0.800161 0.328826
O O14 0.901900 0.984188 0.126386
O O15 0.012940 0.903042 0.187323
O O16 0.532543 0.781049 0.191806
O O17 0.677177 0.822824 0.250000
#
# Coordination Sequence:
#
# PCOD9568789 Si02
#       8
#    16  16  16  16   8  16  16  16
#     4  12  24  44  75 100 139 187 232 289 359 429
#     4  11  21  37  64  95 133 181 229 280 339 411
#     4  10  21  37  62  94 134 181 230 285 337 410
#     4  12  23  44  70  99 138 180 228 287 353 414
#     4  10  20  36  71  95 134 182 224 284 350 410
#     4  11  21  42  65  97 136 177 228 277 347 414
#     4  12  27  47  72 101 134 177 231 292 356 423
#     4  11  20  39  63  96 136 180 234 284 345 410
#
# _framework density 22.956948000000001
#
# number of rings (size 3 to 8) (size 9 to 14) (size 15 to 20)
#    0.000    0.800    6.667    1.200    0.000    1.867 
#    0.000    1.667    0.000    2.800    0.000    0.000 
#    0.000    0.000    0.000    0.000    0.000    0.000 
#
# Total GULP energy -668137.859769 kJ/mol
# GULP energy per Si atom -5567.815498 kJ/mol
# Density = 2.290470 g / cm^3
# Si number density = 22.956948 Si / 1000 Ang^3
#
#
#
# Elastic Constant Matrix: (Units=GPa)
#
#
# Indices 1 2 3 4 5 6 
#
# 1 81.3288 14.6844 -4.9118 0.0000 0.0000 0.0000
# 2 14.6844 81.3300 -4.9106 0.0000 0.0000 0.0000
# 3 -4.9118 -4.9106 30.4395 0.0000 0.0000 0.0000
# 4 0.0000 0.0000 0.0000 -5.6771 0.0000 0.0000
# 5 0.0000 0.0000 0.0000 0.0000 -5.6775 0.0000
# 6 0.0000 0.0000 0.0000 0.0000 0.0000 39.1244
#
#
#
# Elastic Compliance Matrix: (Units=1/GPa)
#
#
# Indices 1 2 3 4 5 6 
#
# 1 0.012798 -0.002207 0.001709 0.000000 0.000000 0.000000
# 2 -0.002207 0.012797 0.001708 0.000000 0.000000 0.000000
# 3 0.001709 0.001708 0.033403 0.000000 0.000000 0.000000
# 4 0.000000 0.000000 0.000000 -0.176147 0.000000 0.000000
# 5 0.000000 0.000000 0.000000 0.000000 -0.176135 0.000000
# 6 0.000000 0.000000 0.000000 0.000000 0.000000 0.025559
#
#
# Mechanical properties :
#
#
# Convention : Reuss Voigt Hill
#
# Bulk Modulus (GPa) = 16.28196 22.53583 19.40889
# Shear Modulus (GPa) = -20.02636 18.10306 -0.96165
#
# Velocity S-wave (km/s) = -2.95675 2.81119 -0.64792
# Velocity P-wave (km/s) = 2.13277 4.51386 2.81302
#
# Compressibility (1/GPa) = 0.06141767
#
# Stress axis : x y z
#
# Youngs Moduli (GPa) = 78.13996 78.14158 29.93712
#
# Poissons Ratio (x) = 0.17249 -0.05116
# Poissons Ratio (y) = 0.17249 -0.05114
# Poissons Ratio (z) = -0.13353 -0.13349
#
# Static dielectric constant tensor:
#      x y z
#    x 1.907220 0.000000 0.000000 
#    y 0.000000 1.907220 0.000000 
#    z 0.000000 0.000000 1.880200 
# 
# From -- ./inp_files/6910.got.cif
#   From: 2010.05.17/outbox.cif.g08.bks.cpg/sg135_4_cif.got.tgz:6910.got - 2010.05.20 12:50:20.
