data_PCOD9568590
_publ_section_title
;
Structure prediction by ZEFSAII (Michael W. Deem and Ramdas Pophale) SiO2 
 PCOD9568590
Probable space group: P 42/M B C
;
_chemical_formula_sum "Si O2"
_cell_formula_units_Z 112
_cell_length_a 21.143581
_cell_length_b 21.143581
_cell_length_c 17.040281
_cell_angle_alpha 90.000000
_cell_angle_beta 90.000000
_cell_angle_gamma 90.000000
_cell_volume 7617.874960
_symmetry_space_group_name_H-M "P 42/M B C"
_symmetry_group_IT_number 135
_symmetry_cell_setting 'tetragonal'
loop_
_space_group_symop_operation_xyz
x,y,z
-y,x,1/2+z
-x,-y,z
y,-x,1/2+z
1/2+x,1/2-y,-z
1/2-x,1/2+y,-z
1/2+y,1/2+x,1/2-z
1/2-y,1/2-x,1/2-z
-x,-y,-z
y,-x,1/2-z
x,y,-z
-y,x,1/2-z
1/2-x,1/2+y,z
1/2+x,1/2-y,z
1/2-y,1/2-x,1/2+z
1/2+y,1/2+x,1/2+z
loop_
_atom_site_type_symbol
_atom_site_label
_atom_site_fract_x
_atom_site_fract_y
_atom_site_fract_z
Si Si1 0.231644 0.647836 0.407396
Si Si2 0.699997 0.092646 0.238911
Si Si3 0.447623 0.053826 0.411296
Si Si4 0.540497 0.823220 0.815578
Si Si5 0.695570 0.302140 0.735258
Si Si6 0.990972 0.692599 0.411936
Si Si7 0.774091 0.387550 0.837034
O O1 0.240898 0.655321 0.500000
O O2 0.218377 0.575578 0.381717
O O3 0.288618 0.672799 0.352195
O O4 0.167690 0.685882 0.380030
O O5 0.642069 0.142069 0.250000
O O6 0.765509 0.130581 0.247768
O O7 0.699109 0.063286 0.151912
O O8 0.693375 0.031771 0.295332
O O9 0.420015 0.050062 0.500000
O O10 0.394362 0.044547 0.346667
O O11 0.480970 0.121594 0.405129
O O12 0.500000 0.000000 0.403878
O O13 0.582528 0.811531 0.737495
O O14 0.749657 0.249657 0.750000
O O15 0.712229 0.356376 0.798206
O O16 0.968485 0.702778 0.500000
O O17 0.052147 0.735602 0.392429
#
# Coordination Sequence:
#
# PCOD9568590 Si02
#       7
#    16  16  16  16  16  16  16
#     4  10  17  28  48  67  83 109 149 199 237 257
#     4  10  20  32  44  62  92 129 156 179 221 272
#     4  10  19  28  39  62  94 125 157 190 218 251
#     4  10  18  28  43  65  88 120 156 190 218 262
#     4   8  17  31  45  62  84 113 154 192 224 271
#     4  10  19  29  45  66  90 119 155 193 224 259
#     4   9  17  29  46  64  85 108 152 201 230 255
#
# _framework density 14.702263
#
# number of rings (size 3 to 8) (size 9 to 14) (size 15 to 20)
#    0.000    2.429    1.429    3.000    2.000    0.571 
#    0.000    2.857    0.000    8.571    0.000    0.000 
#    0.000   46.286    0.000   23.143    0.000    0.000 
#
# Total GULP energy -623850.620348 kJ/mol
# GULP energy per Si atom -5570.094825 kJ/mol
# Density = 1.466880 g / cm^3
# Si number density = 14.702263 Si / 1000 Ang^3
#
#
#
# Elastic Constant Matrix: (Units=GPa)
#
#
# Indices 1 2 3 4 5 6 
#
# 1 57.1440 46.8192 32.9867 0.0000 0.0000 0.0000
# 2 46.8192 57.1440 32.9867 0.0000 0.0000 0.0000
# 3 32.9867 32.9867 80.7690 0.0000 0.0000 0.0000
# 4 0.0000 0.0000 0.0000 10.2682 0.0000 0.0000
# 5 0.0000 0.0000 0.0000 0.0000 10.2682 0.0000
# 6 0.0000 0.0000 0.0000 0.0000 0.0000 22.6968
#
#
#
# Elastic Compliance Matrix: (Units=1/GPa)
#
#
# Indices 1 2 3 4 5 6 
#
# 1 0.054919 -0.041935 -0.005303 0.000000 0.000000 0.000000
# 2 -0.041935 0.054919 -0.005303 0.000000 0.000000 0.000000
# 3 -0.005303 -0.005303 0.016712 0.000000 0.000000 0.000000
# 4 0.000000 0.000000 0.000000 0.097388 0.000000 0.000000
# 5 0.000000 0.000000 0.000000 0.000000 0.097388 0.000000
# 6 0.000000 0.000000 0.000000 0.000000 0.000000 0.044059
#
#
# Mechanical properties :
#
#
# Convention : Reuss Voigt Hill
#
# Bulk Modulus (GPa) = 46.57848 46.73804 46.65826
# Shear Modulus (GPa) = 10.46851 14.13093 12.29972
#
# Velocity S-wave (km/s) = 2.67129 3.10359 2.89552
# Velocity P-wave (km/s) = 6.42373 6.68593 6.55614
#
# Compressibility (1/GPa) = 0.02146914
#
# Stress axis : x y z
#
# Youngs Moduli (GPa) = 18.20867 18.20867 59.83617
#
# Poissons Ratio (x) = 0.76358 0.31729
# Poissons Ratio (y) = 0.76358 0.31729
# Poissons Ratio (z) = 0.09655 0.09655
#
# Static dielectric constant tensor:
#      x y z
#    x 1.486750 0.000000 0.000000 
#    y 0.000000 1.486750 0.000000 
#    z 0.000000 0.000000 1.525750 
# 
# From -- ./inp_files/4688.got.cif
#   From: 2010.05.17/outbox.cif.g08.bks.cpg/sg135_3_cif.got.tgz:4688.got - 2010.05.20 12:50:20.
