data_PCOD9568575
_publ_section_title
;
Structure prediction by ZEFSAII (Michael W. Deem and Ramdas Pophale) SiO2 
 PCOD9568575
Probable space group: P 42/N N M
;
_chemical_formula_sum "Si O2"
_cell_formula_units_Z 120
_cell_length_a 18.000000
_cell_length_b 18.000000
_cell_length_c 21.000000
_cell_angle_alpha 90.000000
_cell_angle_beta 90.000000
_cell_angle_gamma 90.000000
_cell_volume 6804.000000
_symmetry_space_group_name_H-M "P 42/N N M"
_symmetry_group_IT_number 134
_space_group.IT_coordinate_system_code '2'
_symmetry_cell_setting 'tetragonal'
loop_
_space_group_symop_operation_xyz
x,y,z
1/2-y,x,1/2+z
1/2-x,1/2-y,z
y,1/2-x,1/2+z
x,1/2-y,1/2-z
1/2-x,y,1/2-z
y,x,-z
1/2-y,1/2-x,-z
-x,-y,-z
1/2+y,-x,1/2-z
1/2+x,1/2+y,-z
-y,1/2+x,1/2-z
-x,1/2+y,1/2+z
1/2+x,-y,1/2+z
-y,-x,z
1/2+y,1/2+x,z
loop_
_atom_site_type_symbol
_atom_site_label
_atom_site_fract_x
_atom_site_fract_y
_atom_site_fract_z
Si Si1 0.670666 0.051195 0.069166
Si Si2 0.444963 0.824772 0.083803
Si Si3 0.840682 0.034945 0.079671
Si Si4 0.865600 0.867999 0.875594
Si Si5 0.250000 0.250000 0.858867
Si Si6 0.534176 0.343285 0.925203
Si Si7 0.061136 0.064049 0.367144
Si Si8 0.871662 0.671756 0.767940
O O1 0.620351 0.120351 0.091735
O O2 0.754756 0.055219 0.094536
O O3 0.624855 0.976750 0.086559
O O4 0.673089 0.053960 0.992824
O O5 0.375066 0.875066 0.105391
O O6 0.439602 0.737712 0.099348
O O7 0.519554 0.866626 0.107710
O O8 0.903800 0.096201 0.099399
O O9 0.851882 0.951742 0.107120
O O10 0.844650 0.031988 0.002424
O O11 0.806159 0.804379 0.897403
O O12 0.852575 0.864407 0.799586
O O13 0.851421 0.949846 0.901922
O O14 0.300003 0.196150 0.813203
O O15 0.590216 0.409785 0.905545
O O16 0.081713 0.112025 0.306075
O O17 0.998982 0.001019 0.356139
O O18 0.911210 0.750000 0.750000
#
# Coordination Sequence:
#
# PCOD9568575 Si02
#       8
#    16  16  16  16   8  16  16  16
#     4   9  17  31  52  76 102 133 165 202 251 299
#     4   9  18  32  52  76 101 131 165 205 254 301
#     4  10  21  35  50  71 101 135 170 207 242 286
#     4  11  20  34  54  73  99 131 164 203 250 300
#     4  10  21  36  55  78 101 126 160 206 255 302
#     4  10  21  35  51  72 100 135 171 206 243 289
#     4  10  19  32  51  78 107 129 161 210 257 301
#     4  10  20  34  52  74 100 131 164 200 244 297
#
# _framework density 17.636683999999999
#
# number of rings (size 3 to 8) (size 9 to 14) (size 15 to 20)
#    0.000    2.133    0.000    5.400    0.000    4.267 
#    0.000    5.333    0.000    0.000    0.000    0.000 
#    0.000    7.467    0.000    0.000    0.000    0.000 
#
# Total GULP energy -668381.910403 kJ/mol
# GULP energy per Si atom -5569.849253 kJ/mol
# Density = 1.759654 g / cm^3
# Si number density = 17.636684 Si / 1000 Ang^3
#
#
#
# Elastic Constant Matrix: (Units=GPa)
#
#
# Indices 1 2 3 4 5 6 
#
# 1 127.3729 65.8880 19.3217 0.0000 0.0000 0.0000
# 2 65.8880 127.3729 19.3217 0.0000 0.0000 0.0000
# 3 19.3217 19.3217 16.7068 0.0000 0.0000 0.0000
# 4 0.0000 0.0000 0.0000 26.6112 0.0000 0.0000
# 5 0.0000 0.0000 0.0000 0.0000 26.6112 0.0000
# 6 0.0000 0.0000 0.0000 0.0000 0.0000 26.6941
#
#
#
# Elastic Compliance Matrix: (Units=1/GPa)
#
#
# Indices 1 2 3 4 5 6 
#
# 1 0.011498 -0.004767 -0.007784 0.000000 0.000000 0.000000
# 2 -0.004767 0.011498 -0.007784 0.000000 0.000000 0.000000
# 3 -0.007784 -0.007784 0.077861 0.000000 0.000000 0.000000
# 4 0.000000 0.000000 0.000000 0.037578 0.000000 0.000000
# 5 0.000000 0.000000 0.000000 0.000000 0.037578 0.000000
# 6 0.000000 0.000000 0.000000 0.000000 0.000000 0.037461
#
#
# Mechanical properties :
#
#
# Convention : Reuss Voigt Hill
#
# Bulk Modulus (GPa) = 16.61529 53.39060 35.00295
# Shear Modulus (GPa) = 18.23443 27.11139 22.67291
#
# Velocity S-wave (km/s) = 3.21891 3.92499 3.58935
# Velocity P-wave (km/s) = 4.82250 7.13294 6.08832
#
# Compressibility (1/GPa) = 0.06018553
#
# Stress axis : x y z
#
# Youngs Moduli (GPa) = 86.97534 86.97534 12.84337
#
# Poissons Ratio (x) = 0.41458 0.09998
# Poissons Ratio (y) = 0.41458 0.09998
# Poissons Ratio (z) = 0.67705 0.67705
#
# Static dielectric constant tensor:
#      x y z
#    x 1.623220 0.000000 0.000000 
#    y 0.000000 1.623220 0.000000 
#    z 0.000000 0.000000 1.605960 
# 
# From -- ./inp_files/9415.got.cif
#   From: 2010.05.17/outbox.ucp.g08.bks.cvg/sg134_5_cif.got.tgz:9415.got - 2010.06.11 11:39:54.
