data_PCOD9568119
_publ_section_title
;
Structure prediction by ZEFSAII (Michael W. Deem and Ramdas Pophale) SiO2 
 PCOD9568119
Probable space group: P 42/N N M
;
_chemical_formula_sum "Si O2"
_cell_formula_units_Z 112
_cell_length_a 14.880641
_cell_length_b 14.880641
_cell_length_c 28.504139
_cell_angle_alpha 90.000000
_cell_angle_beta 90.000000
_cell_angle_gamma 90.000000
_cell_volume 6311.770595
_symmetry_space_group_name_H-M "P 42/N N M"
_symmetry_group_IT_number 134
_space_group.IT_coordinate_system_code '2'
_symmetry_cell_setting 'tetragonal'
loop_
_space_group_symop_operation_xyz
x,y,z
1/2-y,x,1/2+z
1/2-x,1/2-y,z
y,1/2-x,1/2+z
x,1/2-y,1/2-z
1/2-x,y,1/2-z
y,x,-z
1/2-y,1/2-x,-z
-x,-y,-z
1/2+y,-x,1/2-z
1/2+x,1/2+y,-z
-y,1/2+x,1/2-z
-x,1/2+y,1/2+z
1/2+x,-y,1/2+z
-y,-x,z
1/2+y,1/2+x,z
loop_
_atom_site_type_symbol
_atom_site_label
_atom_site_fract_x
_atom_site_fract_y
_atom_site_fract_z
Si Si1 0.899408 0.253060 0.957449
Si Si2 0.427735 0.419996 0.703386
Si Si3 0.642212 0.987326 0.473551
Si Si4 0.134050 0.485258 0.632573
Si Si5 0.716498 0.067751 0.197439
Si Si6 0.454178 0.695551 0.353957
Si Si7 0.978949 0.631735 0.302643
O O1 0.829872 0.170129 0.950039
O O2 0.838002 0.338002 0.971545
O O3 0.944502 0.274945 0.907625
O O4 0.970651 0.222764 0.996205
O O5 0.500349 0.499652 0.708042
O O6 0.335451 0.472717 0.700306
O O7 0.458813 0.364337 0.658298
O O8 0.438520 0.361681 0.750448
O O9 0.595947 0.904054 0.500000
O O10 0.666941 0.965004 0.419948
O O11 0.566112 0.066112 0.472717
O O12 0.202878 0.546973 0.661951
O O13 0.100897 0.399468 0.662393
O O14 0.044763 0.544763 0.626378
O O15 0.750000 0.089146 0.250000
O O16 0.647151 0.147151 0.183031
O O17 0.366650 0.633351 0.342731
O O18 0.467842 0.782388 0.321638
O O19 0.051003 0.551003 0.301337
#
# Coordination Sequence:
#
# PCOD9568119 Si02
#       7
#    16  16  16  16  16  16  16
#     4   9  17  29  46  71 104 136 168 216 270 314
#     4   9  19  34  50  70 102 139 173 215 266 316
#     4   9  17  30  49  75 105 138 175 213 261 323
#     4  10  20  33  53  81 109 140 177 219 270 324
#     4  11  21  36  56  78 107 141 178 220 271 329
#     4  10  19  31  50  74  99 136 181 217 260 318
#     4  10  18  31  50  73 106 140 171 215 267 317
#
# _framework density 17.744624000000002
#
# number of rings (size 3 to 8) (size 9 to 14) (size 15 to 20)
#    0.000    2.286    1.429    2.143    0.000    4.714 
#    0.000    2.857    0.000    6.000    0.000    5.000 
#    0.000    0.000    0.000    0.000    0.000    0.000 
#
# Total GULP energy -623908.105598 kJ/mol
# GULP energy per Si atom -5570.608086 kJ/mol
# Density = 1.770424 g / cm^3
# Si number density = 17.744624 Si / 1000 Ang^3
#
#
#
# Elastic Constant Matrix: (Units=GPa)
#
#
# Indices 1 2 3 4 5 6 
#
# 1 34.1892 22.4800 27.2851 0.0000 0.0000 0.0000
# 2 22.4800 34.1877 27.2846 0.0000 0.0000 0.0000
# 3 27.2851 27.2846 97.8311 0.0000 0.0000 0.0000
# 4 0.0000 0.0000 0.0000 18.6809 0.0000 0.0000
# 5 0.0000 0.0000 0.0000 0.0000 18.6809 0.0000
# 6 0.0000 0.0000 0.0000 0.0000 0.0000 22.7862
#
#
#
# Elastic Compliance Matrix: (Units=1/GPa)
#
#
# Indices 1 2 3 4 5 6 
#
# 1 0.054766 -0.030641 -0.006728 0.000000 0.000000 0.000000
# 2 -0.030641 0.054769 -0.006729 0.000000 0.000000 0.000000
# 3 -0.006728 -0.006729 0.013975 0.000000 0.000000 0.000000
# 4 0.000000 0.000000 0.000000 0.053531 0.000000 0.000000
# 5 0.000000 0.000000 0.000000 0.000000 0.053531 0.000000
# 6 0.000000 0.000000 0.000000 0.000000 0.000000 0.043886
#
#
# Mechanical properties :
#
#
# Convention : Reuss Voigt Hill
#
# Bulk Modulus (GPa) = 28.31887 35.58972 31.95430
# Shear Modulus (GPa) = 13.35381 17.97347 15.66364
#
# Velocity S-wave (km/s) = 2.74625 3.18606 2.97429
# Velocity P-wave (km/s) = 5.10388 5.79955 5.46280
#
# Compressibility (1/GPa) = 0.03531214
#
# Stress axis : x y z
#
# Youngs Moduli (GPa) = 18.25955 18.25866 71.55677
#
# Poissons Ratio (x) = 0.55947 0.48147
# Poissons Ratio (y) = 0.55950 0.48150
# Poissons Ratio (z) = 0.12286 0.12286
#
# Static dielectric constant tensor:
#      x y z
#    x 1.619220 0.000000 0.000000 
#    y 0.000000 1.619220 0.000000 
#    z 0.000000 0.000000 1.610950 
# 
# From -- ./inp_files/10814.got.cif
#   From: 2010.05.17/outbox.cif.g08.bks.cpg/sg134_6_cif.got.tgz:10814.got - 2010.05.20 12:42:49.
