data_PCOD9568204
_publ_section_title
;
Structure prediction by ZEFSAII (Michael W. Deem and Ramdas Pophale) SiO2 
 PCOD9568204
Probable space group: P 42/N N M
;
_chemical_formula_sum "Si O2"
_cell_formula_units_Z 96
_cell_length_a 14.408235
_cell_length_b 14.408235
_cell_length_c 23.078466
_cell_angle_alpha 90.000000
_cell_angle_beta 90.000000
_cell_angle_gamma 90.000000
_cell_volume 4791.025748
_symmetry_space_group_name_H-M "P 42/N N M"
_symmetry_group_IT_number 134
_space_group.IT_coordinate_system_code '2'
_symmetry_cell_setting 'tetragonal'
loop_
_space_group_symop_operation_xyz
x,y,z
1/2-y,x,1/2+z
1/2-x,1/2-y,z
y,1/2-x,1/2+z
x,1/2-y,1/2-z
1/2-x,y,1/2-z
y,x,-z
1/2-y,1/2-x,-z
-x,-y,-z
1/2+y,-x,1/2-z
1/2+x,1/2+y,-z
-y,1/2+x,1/2-z
-x,1/2+y,1/2+z
1/2+x,-y,1/2+z
-y,-x,z
1/2+y,1/2+x,z
loop_
_atom_site_type_symbol
_atom_site_label
_atom_site_fract_x
_atom_site_fract_y
_atom_site_fract_z
Si Si1 0.921018 0.578630 0.201656
Si Si2 0.572435 0.223618 0.816440
Si Si3 0.502643 0.856134 0.410323
Si Si4 0.205062 0.553941 0.866457
Si Si5 0.539087 0.614554 0.828138
Si Si6 0.755947 0.403769 0.000547
O O1 0.853315 0.535305 0.154204
O O2 0.875831 0.586437 0.265336
O O3 0.002617 0.502617 0.207595
O O4 0.974509 0.669933 0.183248
O O5 0.591156 0.250000 0.750000
O O6 0.655579 0.155579 0.835593
O O7 0.554877 0.309610 0.857710
O O8 0.447924 0.947924 0.431315
O O9 0.599016 0.889523 0.381470
O O10 0.487983 0.780707 0.460944
O O11 0.145060 0.645060 0.848319
O O12 0.303939 0.534670 0.837657
O O13 0.220971 0.563104 0.934839
O O14 0.480576 0.519425 0.827243
O O15 0.673142 0.326859 0.003206
O O16 0.846341 0.346341 0.978527
#
# Coordination Sequence:
#
# PCOD9568204 Si02
#       6
#    16  16  16  16  16  16
#     4   9  19  35  52  76 111 143 179 234 284 335
#     4  11  20  33  55  82 111 145 184 227 279 347
#     4  10  20  34  53  81 117 149 178 228 294 349
#     4  10  20  35  55  75 104 149 192 234 283 328
#     4  10  19  33  54  80 111 142 181 234 289 345
#     4   9  18  33  53  81 115 148 191 241 284 341
#
# _framework density 20.037462000000001
#
# number of rings (size 3 to 8) (size 9 to 14) (size 15 to 20)
#    0.000    2.167    1.667    2.000    0.000    3.500 
#    0.000    5.000    0.000   10.000    0.000    2.333 
#    0.000    0.000    0.000    0.000    0.000    0.000 
#
# Total GULP energy -534833.438408 kJ/mol
# GULP energy per Si atom -5571.181650 kJ/mol
# Density = 1.999186 g / cm^3
# Si number density = 20.037462 Si / 1000 Ang^3
#
#
#
# Elastic Constant Matrix: (Units=GPa)
#
#
# Indices 1 2 3 4 5 6 
#
# 1 56.6680 25.5300 20.2585 0.0000 0.0000 0.0000
# 2 25.5300 56.6680 20.2585 0.0000 0.0000 0.0000
# 3 20.2585 20.2585 53.6073 0.0000 0.0000 0.0000
# 4 0.0000 0.0000 0.0000 -103.0239 0.0000 0.0000
# 5 0.0000 0.0000 0.0000 0.0000 -103.0239 0.0000
# 6 0.0000 0.0000 0.0000 0.0000 0.0000 29.4083
#
#
#
# Elastic Compliance Matrix: (Units=1/GPa)
#
#
# Indices 1 2 3 4 5 6 
#
# 1 0.023533 -0.008582 -0.005650 0.000000 0.000000 0.000000
# 2 -0.008582 0.023533 -0.005650 0.000000 0.000000 0.000000
# 3 -0.005650 -0.005650 0.022924 0.000000 0.000000 0.000000
# 4 0.000000 0.000000 0.000000 -0.009706 0.000000 0.000000
# 5 0.000000 0.000000 0.000000 0.000000 -0.009706 0.000000
# 6 0.000000 0.000000 0.000000 0.000000 0.000000 0.034004
#
#
# Mechanical properties :
#
#
# Convention : Reuss Voigt Hill
#
# Bulk Modulus (GPa) = 33.08405 33.22640 33.15522
# Shear Modulus (GPa) = 37.19660 -28.60149 4.29756
#
# Velocity S-wave (km/s) = 4.31322 -3.78219 1.46609
# Velocity P-wave (km/s) = 6.43056 1.56690 4.41004
#
# Compressibility (1/GPa) = 0.03022605
#
# Stress axis : x y z
#
# Youngs Moduli (GPa) = 42.49369 42.49369 43.62152
#
# Poissons Ratio (x) = 0.36469 0.24646
# Poissons Ratio (y) = 0.36469 0.24646
# Poissons Ratio (z) = 0.24009 0.24009
#
# Static dielectric constant tensor:
#      x y z
#    x 1.750780 0.000000 0.000000 
#    y 0.000000 1.750780 0.000000 
#    z 0.000000 0.000000 1.731790 
# 
# From -- ./inp_files/9138.got.cif
#   From: 2010.05.17/outbox.cif.g08.bks.cpg/sg134_5_cif.got.tgz:9138.got - 2010.05.20 12:42:49.
