data_PCOD9568332
_publ_section_title
;
Structure prediction by ZEFSAII (Michael W. Deem and Ramdas Pophale) SiO2 
 PCOD9568332
Probable space group: P 42/N N M
;
_chemical_formula_sum "Si O2"
_cell_formula_units_Z 64
_cell_length_a 19.983950
_cell_length_b 19.983950
_cell_length_c 9.288467
_cell_angle_alpha 90.000000
_cell_angle_beta 90.000000
_cell_angle_gamma 90.000000
_cell_volume 3709.425997
_symmetry_space_group_name_H-M "P 42/N N M"
_symmetry_group_IT_number 134
_space_group.IT_coordinate_system_code '2'
_symmetry_cell_setting 'tetragonal'
loop_
_space_group_symop_operation_xyz
x,y,z
1/2-y,x,1/2+z
1/2-x,1/2-y,z
y,1/2-x,1/2+z
x,1/2-y,1/2-z
1/2-x,y,1/2-z
y,x,-z
1/2-y,1/2-x,-z
-x,-y,-z
1/2+y,-x,1/2-z
1/2+x,1/2+y,-z
-y,1/2+x,1/2-z
-x,1/2+y,1/2+z
1/2+x,-y,1/2+z
-y,-x,z
1/2+y,1/2+x,z
loop_
_atom_site_type_symbol
_atom_site_label
_atom_site_fract_x
_atom_site_fract_y
_atom_site_fract_z
Si Si1 0.917642 0.818752 0.316509
Si Si2 0.173257 0.563296 0.701632
Si Si3 0.685420 0.937797 0.145451
Si Si4 0.995660 0.608038 0.430108
O O1 0.892008 0.750000 0.250000
O O2 0.942517 0.801027 0.476357
O O3 0.859459 0.873209 0.329362
O O4 0.971989 0.851588 0.209796
O O5 0.250000 0.575090 0.750000
O O6 0.129707 0.629707 0.711451
O O7 0.147338 0.505150 0.808069
O O8 0.158346 0.529915 0.545671
O O9 0.750000 0.933954 0.250000
O O10 0.931769 0.568232 0.500000
O O11 0.050530 0.550530 0.397959
#
# Coordination Sequence:
#
# PCOD9568332 Si02
#       4
#    16  16  16  16
#     4  11  22  34  56  80 110 152 190 245 292 341
#     4  10  20  36  59  83 115 153 190 241 293 349
#     4  10  22  37  52  79 113 149 197 242 289 346
#     4  10  20  37  59  82 113 153 194 239 293 354
#
# _framework density 17.253343000000001
#
# number of rings (size 3 to 8) (size 9 to 14) (size 15 to 20)
#    0.000    1.750    2.500    3.000    0.000    1.750 
#    0.000    5.000    0.000    0.000    0.000    0.000 
#    0.000   10.000    0.000    0.000    0.000    0.000 
#
# Total GULP energy -356644.649182 kJ/mol
# GULP energy per Si atom -5572.572643 kJ/mol
# Density = 1.721407 g / cm^3
# Si number density = 17.253343 Si / 1000 Ang^3
#
#
#
# Elastic Constant Matrix: (Units=GPa)
#
#
# Indices 1 2 3 4 5 6 
#
# 1 101.1023 45.1008 56.1567 0.0000 0.0000 0.0000
# 2 45.1008 101.1008 56.1571 0.0000 0.0000 0.0000
# 3 56.1567 56.1571 139.7618 0.0000 0.0000 0.0000
# 4 0.0000 0.0000 0.0000 17.5202 0.0000 0.0000
# 5 0.0000 0.0000 0.0000 0.0000 17.5203 0.0000
# 6 0.0000 0.0000 0.0000 0.0000 0.0000 24.0291
#
#
#
# Elastic Compliance Matrix: (Units=1/GPa)
#
#
# Indices 1 2 3 4 5 6 
#
# 1 0.013875 -0.003982 -0.003975 0.000000 0.000000 0.000000
# 2 -0.003982 0.013875 -0.003975 0.000000 0.000000 0.000000
# 3 -0.003975 -0.003975 0.010350 0.000000 0.000000 0.000000
# 4 0.000000 0.000000 0.000000 0.057077 0.000000 0.000000
# 5 0.000000 0.000000 0.000000 0.000000 0.057077 0.000000
# 6 0.000000 0.000000 0.000000 0.000000 0.000000 0.041616
#
#
# Mechanical properties :
#
#
# Convention : Reuss Voigt Hill
#
# Bulk Modulus (GPa) = 70.24579 72.97714 71.61147
# Shear Modulus (GPa) = 22.47396 24.11729 23.29563
#
# Velocity S-wave (km/s) = 3.61305 3.74282 3.67851
# Velocity P-wave (km/s) = 7.62943 7.81457 7.72255
#
# Compressibility (1/GPa) = 0.01423573
#
# Stress axis : x y z
#
# Youngs Moduli (GPa) = 72.07132 72.06964 96.62172
#
# Poissons Ratio (x) = 0.28695 0.38409
# Poissons Ratio (y) = 0.28696 0.38411
# Poissons Ratio (z) = 0.28650 0.28651
#
# Static dielectric constant tensor:
#      x y z
#    x 1.590270 0.000000 0.000000 
#    y 0.000000 1.590270 0.000000 
#    z 0.000000 0.000000 1.614820 
# 
# From -- ./inp_files/2727.got.cif
#   From: 2010.05.17/outbox.cif.g08.bks.cpg/sg134_2_cif.got.tgz:2727.got - 2010.05.20 12:42:49.
