data_PCOD9568038
_publ_section_title
;
Structure prediction by ZEFSAII (Michael W. Deem and Ramdas Pophale) SiO2 
 PCOD9568038
Probable space group: P 42/N B C
;
_chemical_formula_sum "Si O2"
_cell_formula_units_Z 48
_cell_length_a 11.226417
_cell_length_b 11.226417
_cell_length_c 16.593357
_cell_angle_alpha 90.000000
_cell_angle_beta 90.000000
_cell_angle_gamma 90.000000
_cell_volume 2091.301248
_symmetry_space_group_name_H-M "P 42/N B C"
_symmetry_group_IT_number 133
_space_group.IT_coordinate_system_code '2'
_symmetry_cell_setting 'tetragonal'
loop_
_space_group_symop_operation_xyz
x,y,z
1/2-y,x,1/2+z
1/2-x,1/2-y,z
y,1/2-x,1/2+z
x,1/2-y,-z
1/2-x,y,-z
y,x,1/2-z
1/2-y,1/2-x,1/2-z
-x,-y,-z
1/2+y,-x,1/2-z
1/2+x,1/2+y,-z
-y,1/2+x,1/2-z
-x,1/2+y,z
1/2+x,-y,z
-y,-x,1/2+z
1/2+y,1/2+x,1/2+z
loop_
_atom_site_type_symbol
_atom_site_label
_atom_site_fract_x
_atom_site_fract_y
_atom_site_fract_z
Si Si1 0.271628 0.460577 0.279582
Si Si2 0.250000 0.046922 0.000000
Si Si3 0.175103 0.627462 0.132940
Si Si4 0.250000 0.250000 0.882011
O O1 0.382886 0.382886 0.250000
O O2 0.220997 0.547724 0.209715
O O3 0.323227 0.547199 0.346366
O O4 0.198231 0.357871 0.327640
O O5 0.301044 0.142344 0.935729
O O6 0.174879 0.957172 0.944858
O O7 0.250000 0.750000 0.122623
#
# Coordination Sequence:
#
# PCOD9568038 Si02
#       4
#    16   8  16   8
#     4  12  25  46  79 105 149 202 263 310 375 474
#     4  11  27  48  70 110 161 187 252 314 396 465
#     4  12  26  50  73 112 149 202 256 323 391 457
#     4  11  27  48  72 116 146 204 252 320 394 454
#
# _framework density 22.952216
#
# number of rings (size 3 to 8) (size 9 to 14) (size 15 to 20)
#    0.000    0.333    6.667    1.000    4.667    1.333 
#   12.000    0.000    0.000    0.000    0.000    0.000 
#    0.000    0.000    0.000    0.000    0.000    0.000 
#
# Total GULP energy -267539.628895 kJ/mol
# GULP energy per Si atom -5573.742269 kJ/mol
# Density = 2.289998 g / cm^3
# Si number density = 22.952216 Si / 1000 Ang^3
#
#
#
# Elastic Constant Matrix: (Units=GPa)
#
#
# Indices 1 2 3 4 5 6 
#
# 1 118.8028 24.4439 38.3169 0.0000 0.0000 0.0000
# 2 24.4439 118.8028 38.3169 0.0000 0.0000 0.0000
# 3 38.3169 38.3169 132.2441 0.0000 0.0000 0.0000
# 4 0.0000 0.0000 0.0000 59.5622 0.0000 0.0000
# 5 0.0000 0.0000 0.0000 0.0000 59.5622 0.0000
# 6 0.0000 0.0000 0.0000 0.0000 0.0000 27.1021
#
#
#
# Elastic Compliance Matrix: (Units=1/GPa)
#
#
# Indices 1 2 3 4 5 6 
#
# 1 0.009430 -0.001168 -0.002394 0.000000 0.000000 0.000000
# 2 -0.001168 0.009430 -0.002394 0.000000 0.000000 0.000000
# 3 -0.002394 -0.002394 0.008949 0.000000 0.000000 0.000000
# 4 0.000000 0.000000 0.000000 0.016789 0.000000 0.000000
# 5 0.000000 0.000000 0.000000 0.000000 0.016789 0.000000
# 6 0.000000 0.000000 0.000000 0.000000 0.000000 0.036898
#
#
# Mechanical properties :
#
#
# Convention : Reuss Voigt Hill
#
# Bulk Modulus (GPa) = 62.90458 63.55611 63.23034
# Shear Modulus (GPa) = 43.29213 47.16343 45.22778
#
# Velocity S-wave (km/s) = 4.34774 4.53797 4.44387
# Velocity P-wave (km/s) = 7.25741 7.43023 7.34433
#
# Compressibility (1/GPa) = 0.01589709
#
# Stress axis : x y z
#
# Youngs Moduli (GPa) = 106.04793 106.04793 111.74544
#
# Poissons Ratio (x) = 0.12388 0.26749
# Poissons Ratio (y) = 0.12388 0.26749
# Poissons Ratio (z) = 0.25385 0.25385
#
# Static dielectric constant tensor:
#      x y z
#    x 1.888480 0.000000 0.000000 
#    y 0.000000 1.888480 0.000000 
#    z 0.000000 0.000000 1.974140 
# 
# From -- ./inp_files/5012.got.cif
#   From: 2010.05.17/outbox.cif.g08.bks.cpg/sg133_3_cif.got.tgz:5012.got - 2010.05.20 12:37:36.
