data_PCOD9568375
_publ_section_title
;
Structure prediction by ZEFSAII (Michael W. Deem and Ramdas Pophale) SiO2 
 PCOD9568375
Probable space group: P 42/N N M
;
_chemical_formula_sum "Si O2"
_cell_formula_units_Z 56
_cell_length_a 25.589114
_cell_length_b 25.589114
_cell_length_c 5.066835
_cell_angle_alpha 90.000000
_cell_angle_beta 90.000000
_cell_angle_gamma 90.000000
_cell_volume 3317.777519
_symmetry_space_group_name_H-M "P 42/N N M"
_symmetry_group_IT_number 134
_space_group.IT_coordinate_system_code '2'
_symmetry_cell_setting 'tetragonal'
loop_
_space_group_symop_operation_xyz
x,y,z
1/2-y,x,1/2+z
1/2-x,1/2-y,z
y,1/2-x,1/2+z
x,1/2-y,1/2-z
1/2-x,y,1/2-z
y,x,-z
1/2-y,1/2-x,-z
-x,-y,-z
1/2+y,-x,1/2-z
1/2+x,1/2+y,-z
-y,1/2+x,1/2-z
-x,1/2+y,1/2+z
1/2+x,-y,1/2+z
-y,-x,z
1/2+y,1/2+x,z
loop_
_atom_site_type_symbol
_atom_site_label
_atom_site_fract_x
_atom_site_fract_y
_atom_site_fract_z
Si Si1 0.468330 0.750000 0.250000
Si Si2 0.304738 0.611948 0.856499
Si Si3 0.981096 0.346205 0.036311
Si Si4 0.998567 0.413321 0.517356
O O1 0.430763 0.786416 0.429064
O O2 0.500026 0.710039 0.431339
O O3 0.250000 0.634754 0.750000
O O4 0.344135 0.655866 0.955747
O O5 0.333226 0.578422 0.627166
O O6 0.006703 0.369045 0.298856
O O7 0.988984 0.387938 0.803235
O O8 0.046069 0.453932 0.500000
O O9 0.946616 0.446616 0.446533
#
# Coordination Sequence:
#
# PCOD9568375 Si02
#       4
#     8  16  16  16
#     4  10  22  36  54  77  92 140 182 221 268 328
#     4  10  21  35  51  70  95 131 177 229 279 319
#     4  11  21  36  55  73 104 133 174 221 261 319
#     4  11  22  34  53  80 106 135 169 215 276 324
#
# _framework density 16.878769999999999
#
# number of rings (size 3 to 8) (size 9 to 14) (size 15 to 20)
#    0.000    1.429    2.857    3.429    0.000    8.286 
#    0.000    0.000    0.000    0.000    0.000    0.000 
#    0.000    0.000    0.000    0.000    0.000   20.000 
#
# Total GULP energy -312312.123066 kJ/mol
# GULP energy per Si atom -5577.002198 kJ/mol
# Density = 1.684035 g / cm^3
# Si number density = 16.878770 Si / 1000 Ang^3
#
#
#
# Elastic Constant Matrix: (Units=GPa)
#
#
# Indices 1 2 3 4 5 6 
#
# 1 54.5809 37.2178 29.1161 0.0000 0.0000 0.0000
# 2 37.2178 54.5818 29.1167 0.0000 0.0000 0.0000
# 3 29.1161 29.1167 104.5316 0.0000 0.0000 0.0000
# 4 0.0000 0.0000 0.0000 22.6316 0.0000 0.0000
# 5 0.0000 0.0000 0.0000 0.0000 22.6345 0.0000
# 6 0.0000 0.0000 0.0000 0.0000 0.0000 25.7348
#
#
#
# Elastic Compliance Matrix: (Units=1/GPa)
#
#
# Indices 1 2 3 4 5 6 
#
# 1 0.035412 -0.022180 -0.003685 0.000000 0.000000 0.000000
# 2 -0.022180 0.035411 -0.003686 0.000000 0.000000 0.000000
# 3 -0.003685 -0.003686 0.011620 0.000000 0.000000 0.000000
# 4 0.000000 0.000000 0.000000 0.044186 0.000000 0.000000
# 5 0.000000 0.000000 0.000000 0.000000 0.044180 0.000000
# 6 0.000000 0.000000 0.000000 0.000000 0.000000 0.038858
#
#
# Mechanical properties :
#
#
# Convention : Reuss Voigt Hill
#
# Bulk Modulus (GPa) = 42.84448 44.95506 43.89977
# Shear Modulus (GPa) = 18.07995 22.08308 20.08152
#
# Velocity S-wave (km/s) = 3.27642 3.62102 3.45302
# Velocity P-wave (km/s) = 6.30492 6.64637 6.47789
#
# Compressibility (1/GPa) = 0.02334023
#
# Stress axis : x y z
#
# Youngs Moduli (GPa) = 28.23924 28.23954 86.06156
#
# Poissons Ratio (x) = 0.62636 0.31717
# Poissons Ratio (y) = 0.62636 0.31718
# Poissons Ratio (z) = 0.10407 0.10408
#
# Static dielectric constant tensor:
#      x y z
#    x 1.588280 0.000000 0.000000 
#    y 0.000000 1.588280 0.000000 
#    z 0.000000 0.000000 1.653030 
# 
# From -- ./inp_files/861.got.cif
#   From: 2010.05.17/outbox.cif.g08.bks.cpg/sg134_1_cif.got.tgz:861.got - 2010.05.20 12:42:49.
