data_PCOD9568854
_publ_section_title
;
Structure prediction by ZEFSAII (Michael W. Deem and Ramdas Pophale) SiO2 
 PCOD9568854
Probable space group: P 42/M B C
;
_chemical_formula_sum "Si O2"
_cell_formula_units_Z 116
_cell_length_a 18.647722
_cell_length_b 18.647722
_cell_length_c 14.691642
_cell_angle_alpha 90.000000
_cell_angle_beta 90.000000
_cell_angle_gamma 90.000000
_cell_volume 5108.835386
_symmetry_space_group_name_H-M "P 42/M B C"
_symmetry_group_IT_number 135
_symmetry_cell_setting 'tetragonal'
loop_
_space_group_symop_operation_xyz
x,y,z
-y,x,1/2+z
-x,-y,z
y,-x,1/2+z
1/2+x,1/2-y,-z
1/2-x,1/2+y,-z
1/2+y,1/2+x,1/2-z
1/2-y,1/2-x,1/2-z
-x,-y,-z
y,-x,1/2-z
x,y,-z
-y,x,1/2-z
1/2-x,1/2+y,z
1/2+x,1/2-y,z
1/2-y,1/2-x,1/2+z
1/2+y,1/2+x,1/2+z
loop_
_atom_site_type_symbol
_atom_site_label
_atom_site_fract_x
_atom_site_fract_y
_atom_site_fract_z
Si Si1 0.499684 0.344152 0.335135
Si Si2 0.888402 0.960304 0.636827
Si Si3 0.312394 0.953354 0.111054
Si Si4 0.348610 0.289986 0.608740
Si Si5 0.133560 0.602929 0.111243
Si Si6 0.974125 0.277572 0.892676
Si Si7 0.000000 0.000000 0.500000
Si Si8 0.204833 0.364113 0.388470
O O1 0.563441 0.389473 0.381173
O O2 0.490840 0.380779 0.237516
O O3 0.526645 0.262529 0.342330
O O4 0.418434 0.337476 0.371287
O O5 0.804642 0.947544 0.613888
O O6 0.936999 0.012983 0.577540
O O7 0.336956 0.873910 0.136955
O O8 0.367602 0.018213 0.132829
O O9 0.301583 0.955146 0.000000
O O10 0.342015 0.286283 0.500000
O O11 0.366885 0.210496 0.641702
O O12 0.273399 0.319364 0.645015
O O13 0.074734 0.658882 0.146366
O O14 0.132495 0.605929 0.000000
O O15 0.054680 0.283073 0.857429
O O16 0.978827 0.292188 0.000000
O O17 0.206741 0.362704 0.500000
#
# Coordination Sequence:
#
# PCOD9568854 Si02
#       8
#    16  16  16  16  16  16   4  16
#     4  11  25  43  63  95 132 170 224 276 333 403
#     4  12  27  42  65  95 129 174 220 276 337 417
#     4   9  19  39  67  97 131 182 227 274 338 397
#     4   9  19  36  64  93 131 179 224 280 337 393
#     4   8  16  33  58  92 131 168 221 281 333 390
#     4  10  21  37  60  94 129 172 227 280 333 399
#     4  12  28  46  68  92 130 186 220 266 362 406
#     4   9  19  33  60  98 131 172 233 279 325 399
#
# _framework density 22.705760999999999
#
# number of rings (size 3 to 8) (size 9 to 14) (size 15 to 20)
#    0.000    2.207    0.690    2.069    7.724    0.552 
#    0.000    6.207    0.000    0.000    0.000    3.862 
#    0.000    0.000    0.000    0.000    0.000    0.000 
#
# Total GULP energy -646335.681983 kJ/mol
# GULP energy per Si atom -5571.859327 kJ/mol
# Density = 2.265408 g / cm^3
# Si number density = 22.705761 Si / 1000 Ang^3
#
#
#
# Elastic Constant Matrix: (Units=GPa)
#
#
# Indices 1 2 3 4 5 6 
#
# 1 114.5797 69.8782 1.4974 0.0000 0.0000 0.0000
# 2 69.8782 114.5797 1.4974 0.0000 0.0000 0.0000
# 3 1.4974 1.4974 29.3406 0.0000 0.0000 0.0000
# 4 0.0000 0.0000 0.0000 101.6929 0.0000 0.0000
# 5 0.0000 0.0000 0.0000 0.0000 101.6929 0.0000
# 6 0.0000 0.0000 0.0000 0.0000 0.0000 39.0728
#
#
#
# Elastic Compliance Matrix: (Units=1/GPa)
#
#
# Indices 1 2 3 4 5 6 
#
# 1 0.013898 -0.008472 -0.000277 0.000000 0.000000 0.000000
# 2 -0.008472 0.013898 -0.000277 0.000000 0.000000 0.000000
# 3 -0.000277 -0.000277 0.034111 0.000000 0.000000 0.000000
# 4 0.000000 0.000000 0.000000 0.009834 0.000000 0.000000
# 5 0.000000 0.000000 0.000000 0.000000 0.009834 0.000000
# 6 0.000000 0.000000 0.000000 0.000000 0.000000 0.025593
#
#
# Mechanical properties :
#
#
# Convention : Reuss Voigt Hill
#
# Bulk Modulus (GPa) = 22.80255 44.91620 33.85938
# Shear Modulus (GPa) = 35.75563 60.86686 48.31125
#
# Velocity S-wave (km/s) = 3.97260 5.18314 4.61771
# Velocity P-wave (km/s) = 5.57732 7.45954 6.58602
#
# Compressibility (1/GPa) = 0.04385474
#
# Stress axis : x y z
#
# Youngs Moduli (GPa) = 71.95180 71.95180 29.31625
#
# Poissons Ratio (x) = 0.60960 0.00812
# Poissons Ratio (y) = 0.60960 0.00812
# Poissons Ratio (z) = 0.01992 0.01992
#
# Static dielectric constant tensor:
#      x y z
#    x 1.864340 0.000000 0.000000 
#    y 0.000000 1.864340 0.000000 
#    z 0.000000 0.000000 1.918600 
# 
# From -- ./inp_files/4614.got.cif
#   From: 2010.05.17/outbox.cif.g08.bks.cpg/sg135_3_cif.got.tgz:4614.got - 2010.05.20 12:50:20.
