data_PCOD9568579
_publ_section_title
;
Structure prediction by ZEFSAII (Michael W. Deem and Ramdas Pophale) SiO2 
 PCOD9568579
Probable space group: P 42/N N M
;
_chemical_formula_sum "Si O2"
_cell_formula_units_Z 112
_cell_length_a 15.000000
_cell_length_b 15.000000
_cell_length_c 27.000000
_cell_angle_alpha 90.000000
_cell_angle_beta 90.000000
_cell_angle_gamma 90.000000
_cell_volume 6075.000000
_symmetry_space_group_name_H-M "P 42/N N M"
_symmetry_group_IT_number 134
_space_group.IT_coordinate_system_code '2'
_symmetry_cell_setting 'tetragonal'
loop_
_space_group_symop_operation_xyz
x,y,z
1/2-y,x,1/2+z
1/2-x,1/2-y,z
y,1/2-x,1/2+z
x,1/2-y,1/2-z
1/2-x,y,1/2-z
y,x,-z
1/2-y,1/2-x,-z
-x,-y,-z
1/2+y,-x,1/2-z
1/2+x,1/2+y,-z
-y,1/2+x,1/2-z
-x,1/2+y,1/2+z
1/2+x,-y,1/2+z
-y,-x,z
1/2+y,1/2+x,z
loop_
_atom_site_type_symbol
_atom_site_label
_atom_site_fract_x
_atom_site_fract_y
_atom_site_fract_z
Si Si1 0.717657 0.519731 0.607426
Si Si2 0.152118 0.403805 0.946669
Si Si3 0.562256 0.694207 0.871791
Si Si4 0.776742 0.647471 0.692838
Si Si5 0.899190 0.252412 0.192593
Si Si6 0.904680 0.951598 0.945537
Si Si7 0.424546 0.924546 0.985922
Si Si8 0.326515 0.826515 0.078341
O O1 0.632173 0.564259 0.581354
O O2 0.730806 0.572332 0.658859
O O3 0.804482 0.542550 0.574363
O O4 0.710052 0.413173 0.607658
O O5 0.234874 0.389389 0.909149
O O6 0.143989 0.509884 0.957512
O O7 0.147848 0.352152 0.000000
O O8 0.621822 0.652788 0.827155
O O9 0.478758 0.740488 0.845786
O O10 0.541948 0.612106 0.908005
O O11 0.750000 0.750000 0.682396
O O12 0.750000 0.631512 0.750000
O O13 0.930719 0.250000 0.250000
O O14 0.828715 0.171286 0.187290
O O15 0.842650 0.342650 0.185124
O O16 0.910360 0.910360 0.000000
O O17 0.952600 0.047401 0.947153
O O18 0.369660 0.869660 0.027681
O O19 0.500000 0.000000 0.000000
O O20 0.250000 0.750000 0.071161
#
# Coordination Sequence:
#
# PCOD9568579 Si02
#       8
#    16  16  16  16  16  16   8   8
#     4  11  21  40  63  91 122 171 213 262 332 383
#     4  11  20  35  58  87 124 160 203 260 309 377
#     4  11  22  35  63  88 116 164 205 254 314 385
#     4  10  22  40  63  92 126 154 206 279 332 382
#     4   9  20  39  59  84 122 158 196 249 308 378
#     4  10  22  38  56  85 126 165 205 254 312 384
#     4  10  20  38  58  88 130 162 202 270 312 368
#     4  12  24  42  70  96 130 180 226 270 323 398
#
# _framework density 18.436214
#
# number of rings (size 3 to 8) (size 9 to 14) (size 15 to 20)
#    0.000    1.571    4.286    2.143    3.000    0.000 
#    0.000    2.857    9.429    0.000    0.000    0.000 
#    0.000    0.000    0.000    0.000    0.000    0.000 
#
# Total GULP energy -624184.342778 kJ/mol
# GULP energy per Si atom -5573.074489 kJ/mol
# Density = 1.839425 g / cm^3
# Si number density = 18.436214 Si / 1000 Ang^3
#
#
#
# Elastic Constant Matrix: (Units=GPa)
#
#
# Indices 1 2 3 4 5 6 
#
# 1 80.5318 30.6844 56.4033 0.0000 0.0000 0.0000
# 2 30.6844 80.5318 56.4033 0.0000 0.0000 0.0000
# 3 56.4033 56.4033 140.5881 0.0000 0.0000 0.0000
# 4 0.0000 0.0000 0.0000 26.7344 0.0000 0.0000
# 5 0.0000 0.0000 0.0000 0.0000 26.7344 0.0000
# 6 0.0000 0.0000 0.0000 0.0000 0.0000 24.5201
#
#
#
# Elastic Compliance Matrix: (Units=1/GPa)
#
#
# Indices 1 2 3 4 5 6 
#
# 1 0.017611 -0.002450 -0.006083 0.000000 0.000000 0.000000
# 2 -0.002450 0.017611 -0.006083 0.000000 0.000000 0.000000
# 3 -0.006083 -0.006083 0.011994 0.000000 0.000000 0.000000
# 4 0.000000 0.000000 0.000000 0.037405 0.000000 0.000000
# 5 0.000000 0.000000 0.000000 0.000000 0.037405 0.000000
# 6 0.000000 0.000000 0.000000 0.000000 0.000000 0.040783
#
#
# Mechanical properties :
#
#
# Convention : Reuss Voigt Hill
#
# Bulk Modulus (GPa) = 55.60051 65.40375 60.50213
# Shear Modulus (GPa) = 25.24817 26.14181 25.69499
#
# Velocity S-wave (km/s) = 3.70467 3.76967 3.73731
# Velocity P-wave (km/s) = 6.96586 7.38240 7.17716
#
# Compressibility (1/GPa) = 0.01798545
#
# Stress axis : x y z
#
# Youngs Moduli (GPa) = 56.78232 56.78238 83.37816
#
# Poissons Ratio (x) = 0.13912 0.50715
# Poissons Ratio (y) = 0.13912 0.50715
# Poissons Ratio (z) = 0.34538 0.34538
#
# Static dielectric constant tensor:
#      x y z
#    x 1.665310 0.000000 0.000000 
#    y 0.000000 1.665310 0.000000 
#    z 0.000000 0.000000 1.639160 
# 
# From -- ./inp_files/10908.got.cif
#   From: 2010.05.17/outbox.ucp.g08.bks.cvg/sg134_6_cif.got.tgz:10908.got - 2010.06.11 11:39:54.
