data_PCOD9568699
_publ_section_title
;
Structure prediction by ZEFSAII (Michael W. Deem and Ramdas Pophale) SiO2 
 PCOD9568699
Probable space group: P 42/M B C
;
_chemical_formula_sum "Si O2"
_cell_formula_units_Z 80
_cell_length_a 16.597031
_cell_length_b 16.597031
_cell_length_c 13.229248
_cell_angle_alpha 90.000000
_cell_angle_beta 90.000000
_cell_angle_gamma 90.000000
_cell_volume 3644.147678
_symmetry_space_group_name_H-M "P 42/M B C"
_symmetry_group_IT_number 135
_symmetry_cell_setting 'tetragonal'
loop_
_space_group_symop_operation_xyz
x,y,z
-y,x,1/2+z
-x,-y,z
y,-x,1/2+z
1/2+x,1/2-y,-z
1/2-x,1/2+y,-z
1/2+y,1/2+x,1/2-z
1/2-y,1/2-x,1/2-z
-x,-y,-z
y,-x,1/2-z
x,y,-z
-y,x,1/2-z
1/2-x,1/2+y,z
1/2+x,1/2-y,z
1/2-y,1/2-x,1/2+z
1/2+y,1/2+x,1/2+z
loop_
_atom_site_type_symbol
_atom_site_label
_atom_site_fract_x
_atom_site_fract_y
_atom_site_fract_z
Si Si1 0.078778 0.169321 0.616050
Si Si2 0.638655 0.078603 0.118856
Si Si3 0.811977 0.927887 0.230214
Si Si4 0.100852 0.655262 0.617787
Si Si5 0.795465 0.507598 0.617081
O O1 0.097954 0.145140 0.500000
O O2 0.093590 0.265867 0.622366
O O3 0.131413 0.126488 0.701569
O O4 0.984464 0.153399 0.641417
O O5 0.579987 0.148317 0.156898
O O6 0.626156 0.987169 0.154658
O O7 0.615329 0.074959 0.000000
O O8 0.735623 0.880849 0.181379
O O9 0.778532 0.994185 0.309561
O O10 0.093972 0.679469 0.500000
O O11 0.158343 0.578431 0.621111
O O12 0.773466 0.522495 0.500000
#
# Coordination Sequence:
#
# PCOD9568699 Si02
#       5
#    16  16  16  16  16
#     4  10  23  44  66  90 126 164 212 274 327 384
#     4   8  16  34  60  87 123 166 199 246 317 381
#     4  11  22  40  61  89 121 171 220 265 320 375
#     4   9  18  34  57  89 127 163 207 257 312 382
#     4  10  19  34  57  92 129 164 205 253 308 379
#
# _framework density 21.953006999999999
#
# number of rings (size 3 to 8) (size 9 to 14) (size 15 to 20)
#    0.000    2.400    0.000    3.600    0.000    6.000 
#    7.200    9.000    0.000    0.000    0.000    0.000 
#    0.000    0.000    0.000    0.000    0.000    0.000 
#
# Total GULP energy -446560.074852 kJ/mol
# GULP energy per Si atom -5582.000936 kJ/mol
# Density = 2.190304 g / cm^3
# Si number density = 21.953007 Si / 1000 Ang^3
#
#
#
# Elastic Constant Matrix: (Units=GPa)
#
#
# Indices 1 2 3 4 5 6 
#
# 1 23.7431 19.1566 19.4858 0.0000 0.0000 0.0000
# 2 19.1566 23.7431 19.4858 0.0000 0.0000 0.0000
# 3 19.4858 19.4858 112.2165 0.0000 0.0000 0.0000
# 4 0.0000 0.0000 0.0000 40.0765 0.0000 0.0000
# 5 0.0000 0.0000 0.0000 0.0000 40.0765 0.0000
# 6 0.0000 0.0000 0.0000 0.0000 0.0000 41.7390
#
#
#
# Elastic Compliance Matrix: (Units=1/GPa)
#
#
# Indices 1 2 3 4 5 6 
#
# 1 0.122854 -0.095178 -0.004806 0.000000 0.000000 0.000000
# 2 -0.095178 0.122854 -0.004806 0.000000 0.000000 0.000000
# 3 -0.004806 -0.004806 0.010580 0.000000 0.000000 0.000000
# 4 0.000000 0.000000 0.000000 0.024952 0.000000 0.000000
# 5 0.000000 0.000000 0.000000 0.000000 0.024952 0.000000
# 6 0.000000 0.000000 0.000000 0.000000 0.000000 0.023958
#
#
# Mechanical properties :
#
#
# Convention : Reuss Voigt Hill
#
# Bulk Modulus (GPa) = 21.40909 30.66212 26.03560
# Shear Modulus (GPa) = 9.00417 31.15005 20.07711
#
# Velocity S-wave (km/s) = 2.02743 3.77097 3.02743
# Velocity P-wave (km/s) = 3.90564 5.74089 4.90978
#
# Compressibility (1/GPa) = 0.04670914
#
# Stress axis : x y z
#
# Youngs Moduli (GPa) = 8.13977 8.13977 94.51491
#
# Poissons Ratio (x) = 0.77472 0.45422
# Poissons Ratio (y) = 0.77472 0.45422
# Poissons Ratio (z) = 0.03912 0.03912
#
# Static dielectric constant tensor:
#      x y z
#    x 1.806630 0.000000 0.000000 
#    y 0.000000 1.806630 0.000000 
#    z 0.000000 0.000000 1.939060 
# 
# From -- ./inp_files/3411.got.cif
#   From: 2010.05.17/outbox.cif.g08.bks.cpg/sg135_2_cif.got.tgz:3411.got - 2010.05.20 12:50:20.
