data_PCOD9568100
_publ_section_title
;
Structure prediction by ZEFSAII (Michael W. Deem and Ramdas Pophale) SiO2 
 PCOD9568100
Probable space group: P 42/N N M
;
_chemical_formula_sum "Si O2"
_cell_formula_units_Z 128
_cell_length_a 18.369247
_cell_length_b 18.369247
_cell_length_c 26.298985
_cell_angle_alpha 90.000000
_cell_angle_beta 90.000000
_cell_angle_gamma 90.000000
_cell_volume 8874.046399
_symmetry_space_group_name_H-M "P 42/N N M"
_symmetry_group_IT_number 134
_space_group.IT_coordinate_system_code '2'
_symmetry_cell_setting 'tetragonal'
loop_
_space_group_symop_operation_xyz
x,y,z
1/2-y,x,1/2+z
1/2-x,1/2-y,z
y,1/2-x,1/2+z
x,1/2-y,1/2-z
1/2-x,y,1/2-z
y,x,-z
1/2-y,1/2-x,-z
-x,-y,-z
1/2+y,-x,1/2-z
1/2+x,1/2+y,-z
-y,1/2+x,1/2-z
-x,1/2+y,1/2+z
1/2+x,-y,1/2+z
-y,-x,z
1/2+y,1/2+x,z
loop_
_atom_site_type_symbol
_atom_site_label
_atom_site_fract_x
_atom_site_fract_y
_atom_site_fract_z
Si Si1 0.663708 0.454908 0.464073
Si Si2 0.184933 0.561169 0.708240
Si Si3 0.155271 0.136042 0.697153
Si Si4 0.953802 0.926491 0.616700
Si Si5 0.368147 0.752668 0.889602
Si Si6 0.915475 0.677903 0.038806
Si Si7 0.233001 0.335372 0.380225
Si Si8 0.394794 0.172417 0.308218
O O1 0.599382 0.400619 0.482689
O O2 0.630101 0.496564 0.415019
O O3 0.729267 0.409053 0.441267
O O4 0.689010 0.513073 0.505110
O O5 0.250000 0.560709 0.750000
O O6 0.122031 0.622031 0.719307
O O7 0.223569 0.582786 0.655561
O O8 0.154303 0.479834 0.699161
O O9 0.106836 0.075344 0.669118
O O10 0.147051 0.210310 0.665497
O O11 0.142412 0.143236 0.757033
O O12 0.239557 0.111621 0.692420
O O13 0.884677 0.935588 0.579668
O O14 0.001065 0.998936 0.623291
O O15 0.307213 0.692788 0.898451
O O16 0.326756 0.826756 0.873465
O O17 0.882463 0.744147 0.070977
O O18 0.855652 0.644349 0.000000
O O19 0.250000 0.250000 0.391640
O O20 0.152245 0.347991 0.357923
#
# Coordination Sequence:
#
# PCOD9568100 Si02
#       8
#    16  16  16  16  16  16  16  16
#     4   9  16  26  44  65  89 116 139 175 222 269
#     4  11  21  32  46  65  91 118 146 181 217 259
#     4   9  16  28  43  62  84 114 149 183 215 255
#     4   9  16  25  41  65  93 116 137 171 221 279
#     4   9  18  31  45  62  84 112 144 174 208 251
#     4   9  17  29  43  65  89 112 143 179 226 273
#     4   9  18  30  46  60  83 113 147 189 225 254
#     4  10  18  30  42  62  84 114 153 183 215 252
#
# _framework density 14.424084000000001
#
# number of rings (size 3 to 8) (size 9 to 14) (size 15 to 20)
#    0.000    2.625    1.250    1.875    0.000    5.375 
#    0.000    0.000    0.000    0.750    0.000    1.750 
#    0.000    0.000    0.000    0.000    0.000    0.000 
#
# Total GULP energy -712539.771628 kJ/mol
# GULP energy per Si atom -5566.716966 kJ/mol
# Density = 1.439125 g / cm^3
# Si number density = 14.424084 Si / 1000 Ang^3
#
#
#
# Elastic Constant Matrix: (Units=GPa)
#
#
# Indices 1 2 3 4 5 6 
#
# 1 54.9209 24.4786 37.7839 0.0000 0.0000 0.0000
# 2 24.4786 54.9207 37.7843 0.0000 0.0000 0.0000
# 3 37.7839 37.7843 75.6719 0.0000 0.0000 0.0000
# 4 0.0000 0.0000 0.0000 18.2321 0.0000 0.0000
# 5 0.0000 0.0000 0.0000 0.0000 18.2323 0.0000
# 6 0.0000 0.0000 0.0000 0.0000 0.0000 12.3139
#
#
#
# Elastic Compliance Matrix: (Units=1/GPa)
#
#
# Indices 1 2 3 4 5 6 
#
# 1 0.028424 -0.004425 -0.011983 0.000000 0.000000 0.000000
# 2 -0.004425 0.028425 -0.011984 0.000000 0.000000 0.000000
# 3 -0.011983 -0.011984 0.025182 0.000000 0.000000 0.000000
# 4 0.000000 0.000000 0.000000 0.054848 0.000000 0.000000
# 5 0.000000 0.000000 0.000000 0.000000 0.054848 0.000000
# 6 0.000000 0.000000 0.000000 0.000000 0.000000 0.081209
#
#
# Mechanical properties :
#
#
# Convention : Reuss Voigt Hill
#
# Bulk Modulus (GPa) = 39.60749 42.84521 41.22635
# Shear Modulus (GPa) = 14.78701 15.45346 15.12023
#
# Velocity S-wave (km/s) = 3.20529 3.27672 3.24120
# Velocity P-wave (km/s) = 6.42008 6.63960 6.53076
#
# Compressibility (1/GPa) = 0.02524775
#
# Stress axis : x y z
#
# Youngs Moduli (GPa) = 35.18126 35.18068 39.71103
#
# Poissons Ratio (x) = 0.15566 0.47587
# Poissons Ratio (y) = 0.15567 0.47588
# Poissons Ratio (z) = 0.42158 0.42159
#
# Static dielectric constant tensor:
#      x y z
#    x 1.495500 0.000000 0.000000 
#    y 0.000000 1.495500 0.000000 
#    z 0.000000 0.000000 1.491080 
# 
# From -- ./inp_files/10320.got.cif
#   From: 2010.05.17/outbox.cif.g08.bks.cpg/sg134_6_cif.got.tgz:10320.got - 2010.05.20 12:42:49.
