data_PCOD9568326
_publ_section_title
;
Structure prediction by ZEFSAII (Michael W. Deem and Ramdas Pophale) SiO2 
 PCOD9568326
Probable space group: P 42/N N M
;
_chemical_formula_sum "Si O2"
_cell_formula_units_Z 112
_cell_length_a 14.325127
_cell_length_b 14.325127
_cell_length_c 29.260592
_cell_angle_alpha 90.000000
_cell_angle_beta 90.000000
_cell_angle_gamma 90.000000
_cell_volume 6004.544536
_symmetry_space_group_name_H-M "P 42/N N M"
_symmetry_group_IT_number 134
_space_group.IT_coordinate_system_code '2'
_symmetry_cell_setting 'tetragonal'
loop_
_space_group_symop_operation_xyz
x,y,z
1/2-y,x,1/2+z
1/2-x,1/2-y,z
y,1/2-x,1/2+z
x,1/2-y,1/2-z
1/2-x,y,1/2-z
y,x,-z
1/2-y,1/2-x,-z
-x,-y,-z
1/2+y,-x,1/2-z
1/2+x,1/2+y,-z
-y,1/2+x,1/2-z
-x,1/2+y,1/2+z
1/2+x,-y,1/2+z
-y,-x,z
1/2+y,1/2+x,z
loop_
_atom_site_type_symbol
_atom_site_label
_atom_site_fract_x
_atom_site_fract_y
_atom_site_fract_z
Si Si1 0.858339 0.506782 0.629486
Si Si2 0.692501 0.467318 0.361977
Si Si3 0.914774 0.573479 0.212591
Si Si4 0.259747 0.410865 0.552205
Si Si5 0.131976 0.476309 0.689032
Si Si6 0.403849 0.256023 0.948650
Si Si7 0.929591 0.219385 0.700204
O O1 0.896153 0.602391 0.652927
O O2 0.782625 0.524119 0.590351
O O3 0.806761 0.449239 0.668744
O O4 0.946541 0.446541 0.612125
O O5 0.622749 0.377252 0.364571
O O6 0.639724 0.548750 0.333529
O O7 0.726521 0.507752 0.410713
O O8 0.784269 0.460066 0.330029
O O9 0.857394 0.565126 0.259923
O O10 0.993440 0.493440 0.215868
O O11 0.971214 0.668244 0.207660
O O12 0.254224 0.444642 0.499662
O O13 0.345650 0.338705 0.558641
O O14 0.169462 0.342771 0.554698
O O15 0.041357 0.541357 0.690821
O O16 0.897653 0.250000 0.750000
O O17 0.854809 0.145192 0.681247
#
# Coordination Sequence:
#
# PCOD9568326 Si02
#       7
#    16  16  16  16  16  16  16
#     4  11  21  35  56  83 117 154 191 234 284 347
#     4  11  21  35  57  83 113 147 188 244 301 350
#     4   9  19  35  54  79 113 149 187 236 287 340
#     4   9  18  35  59  83 107 140 189 244 290 344
#     4  10  20  36  54  77 114 152 191 236 283 349
#     4   9  18  36  59  80 109 146 186 237 293 342
#     4  11  21  35  55  81 114 153 193 230 279 343
#
# _framework density 18.652539999999998
#
# number of rings (size 3 to 8) (size 9 to 14) (size 15 to 20)
#    0.000    2.000    2.857    2.571    0.000    1.286 
#    0.000    4.286    0.000    2.571    0.000    0.000 
#    0.000    0.000    0.000    0.000    0.000    0.000 
#
# Total GULP energy -623664.181665 kJ/mol
# GULP energy per Si atom -5568.430193 kJ/mol
# Density = 1.861009 g / cm^3
# Si number density = 18.652540 Si / 1000 Ang^3
#
#
#
# Elastic Constant Matrix: (Units=GPa)
#
#
# Indices 1 2 3 4 5 6 
#
# 1 43.1491 9.8859 30.3234 0.0000 0.0000 0.0000
# 2 9.8859 43.1491 30.3234 0.0000 0.0000 0.0000
# 3 30.3234 30.3234 109.3200 0.0000 0.0000 0.0000
# 4 0.0000 0.0000 0.0000 17.5914 0.0000 0.0000
# 5 0.0000 0.0000 0.0000 0.0000 17.5914 0.0000
# 6 0.0000 0.0000 0.0000 0.0000 0.0000 29.2205
#
#
#
# Elastic Compliance Matrix: (Units=1/GPa)
#
#
# Indices 1 2 3 4 5 6 
#
# 1 0.028839 -0.001224 -0.007660 0.000000 0.000000 0.000000
# 2 -0.001224 0.028839 -0.007660 0.000000 0.000000 0.000000
# 3 -0.007660 -0.007660 0.013397 0.000000 0.000000 0.000000
# 4 0.000000 0.000000 0.000000 0.056846 0.000000 0.000000
# 5 0.000000 0.000000 0.000000 0.000000 0.056846 0.000000
# 6 0.000000 0.000000 0.000000 0.000000 0.000000 0.034223
#
#
# Mechanical properties :
#
#
# Convention : Reuss Voigt Hill
#
# Bulk Modulus (GPa) = 26.32487 37.40931 31.86709
# Shear Modulus (GPa) = 18.88650 21.21969 20.05310
#
# Velocity S-wave (km/s) = 3.18550 3.37654 3.28241
# Velocity P-wave (km/s) = 5.26059 5.94144 5.61135
#
# Compressibility (1/GPa) = 0.03798690
#
# Stress axis : x y z
#
# Youngs Moduli (GPa) = 34.67527 34.67527 74.64432
#
# Poissons Ratio (x) = 0.04245 0.57176
# Poissons Ratio (y) = 0.04245 0.57176
# Poissons Ratio (z) = 0.26561 0.26561
#
# Static dielectric constant tensor:
#      x y z
#    x 1.668900 0.000000 0.000000 
#    y 0.000000 1.668900 0.000000 
#    z 0.000000 0.000000 1.671570 
# 
# From -- ./inp_files/10870.got.cif
#   From: 2010.05.17/outbox.cif.g08.bks.cpg/sg134_6_cif.got.tgz:10870.got - 2010.05.20 12:42:49.
