data_PCOD9568114
_publ_section_title
;
Structure prediction by ZEFSAII (Michael W. Deem and Ramdas Pophale) SiO2 
 PCOD9568114
Probable space group: P 42/N N M
;
_chemical_formula_sum "Si O2"
_cell_formula_units_Z 48
_cell_length_a 10.720472
_cell_length_b 10.720472
_cell_length_c 20.066242
_cell_angle_alpha 90.000000
_cell_angle_beta 90.000000
_cell_angle_gamma 90.000000
_cell_volume 2306.183493
_symmetry_space_group_name_H-M "P 42/N N M"
_symmetry_group_IT_number 134
_space_group.IT_coordinate_system_code '2'
_symmetry_cell_setting 'tetragonal'
loop_
_space_group_symop_operation_xyz
x,y,z
1/2-y,x,1/2+z
1/2-x,1/2-y,z
y,1/2-x,1/2+z
x,1/2-y,1/2-z
1/2-x,y,1/2-z
y,x,-z
1/2-y,1/2-x,-z
-x,-y,-z
1/2+y,-x,1/2-z
1/2+x,1/2+y,-z
-y,1/2+x,1/2-z
-x,1/2+y,1/2+z
1/2+x,-y,1/2+z
-y,-x,z
1/2+y,1/2+x,z
loop_
_atom_site_type_symbol
_atom_site_label
_atom_site_fract_x
_atom_site_fract_y
_atom_site_fract_z
Si Si1 0.595715 0.404286 0.031942
Si Si2 0.152074 0.847927 0.111844
Si Si3 0.336727 0.049889 0.934211
Si Si4 0.965984 0.817209 0.318306
O O1 0.517659 0.296401 0.067269
O O2 0.500000 0.500000 0.000000
O O3 0.657011 0.342989 0.966903
O O4 0.250000 0.750000 0.141167
O O5 0.023275 0.795623 0.137806
O O6 0.362757 0.122303 0.865710
O O7 0.441301 0.941301 0.938545
O O8 0.364044 0.135957 0.000000
O O9 0.929383 0.750000 0.250000
O O10 0.073795 0.926206 0.307193
#
# Coordination Sequence:
#
# PCOD9568114 Si02
#       4
#     8   8  16  16
#     4  12  24  38  58  86 134 177 215 272 337 397
#     4  10  18  32  58  92 129 167 214 268 321 397
#     4  10  20  36  60  93 128 171 219 274 332 396
#     4  10  18  30  57  98 134 171 219 273 339 406
#
# _framework density 20.813609
#
# number of rings (size 3 to 8) (size 9 to 14) (size 15 to 20)
#    0.000    1.667    5.000    1.500    0.000    0.667 
#    0.000    0.000    0.000    4.000    0.000    0.000 
#   15.000    0.000    0.000    0.167    0.000    0.167 
#
# Total GULP energy -267760.844323 kJ/mol
# GULP energy per Si atom -5578.350923 kJ/mol
# Density = 2.076624 g / cm^3
# Si number density = 20.813609 Si / 1000 Ang^3
#
#
#
# Elastic Constant Matrix: (Units=GPa)
#
#
# Indices 1 2 3 4 5 6 
#
# 1 75.0338 107.3108 75.8748 0.0000 0.0000 0.0000
# 2 107.3108 75.0319 75.8744 0.0000 0.0000 0.0000
# 3 75.8748 75.8744 150.7707 0.0000 0.0000 0.0000
# 4 0.0000 0.0000 0.0000 12.5818 0.0000 0.0000
# 5 0.0000 0.0000 0.0000 0.0000 12.5813 0.0000
# 6 0.0000 0.0000 0.0000 0.0000 0.0000 41.8688
#
#
#
# Elastic Compliance Matrix: (Units=1/GPa)
#
#
# Indices 1 2 3 4 5 6 
#
# 1 -0.010772 0.020208 -0.004749 0.000000 0.000000 0.000000
# 2 0.020208 -0.010773 -0.004749 0.000000 0.000000 0.000000
# 3 -0.004749 -0.004749 0.011412 0.000000 0.000000 0.000000
# 4 0.000000 0.000000 0.000000 0.079480 0.000000 0.000000
# 5 0.000000 0.000000 0.000000 0.000000 0.079483 0.000000
# 6 0.000000 0.000000 0.000000 0.000000 0.000000 0.023884
#
#
# Mechanical properties :
#
#
# Convention : Reuss Voigt Hill
#
# Bulk Modulus (GPa) = 88.57733 90.99514 89.78624
# Shear Modulus (GPa) = 32.24658 16.19147 24.21903
#
# Velocity S-wave (km/s) = 3.94039 2.79216 3.41488
# Velocity P-wave (km/s) = 7.95940 7.36267 7.66684
#
# Compressibility (1/GPa) = 0.01128957
#
# Stress axis : x y z
#
# Youngs Moduli (GPa) = -92.83145 -92.82769 87.62672
#
# Poissons Ratio (x) = 1.87591 0.41611
# Poissons Ratio (y) = 1.87598 0.41610
# Poissons Ratio (z) = -0.44083 -0.44080
#
# Static dielectric constant tensor:
#      x y z
#    x 1.779350 0.000000 0.000000 
#    y 0.000000 1.779350 0.000000 
#    z 0.000000 0.000000 1.736200 
# 
# From -- ./inp_files/7264.got.cif
#   From: 2010.05.17/outbox.cif.g08.bks.cpg/sg134_4_cif.got.tgz:7264.got - 2010.05.20 12:42:49.
