data_PCOD9568080
_publ_section_title
;
Structure prediction by ZEFSAII (Michael W. Deem and Ramdas Pophale) SiO2 
 PCOD9568080
Probable space group: P 42/N N M
;
_chemical_formula_sum "Si O2"
_cell_formula_units_Z 96
_cell_length_a 18.664547
_cell_length_b 18.664547
_cell_length_c 17.467629
_cell_angle_alpha 90.000000
_cell_angle_beta 90.000000
_cell_angle_gamma 90.000000
_cell_volume 6085.116074
_symmetry_space_group_name_H-M "P 42/N N M"
_symmetry_group_IT_number 134
_space_group.IT_coordinate_system_code '2'
_symmetry_cell_setting 'tetragonal'
loop_
_space_group_symop_operation_xyz
x,y,z
1/2-y,x,1/2+z
1/2-x,1/2-y,z
y,1/2-x,1/2+z
x,1/2-y,1/2-z
1/2-x,y,1/2-z
y,x,-z
1/2-y,1/2-x,-z
-x,-y,-z
1/2+y,-x,1/2-z
1/2+x,1/2+y,-z
-y,1/2+x,1/2-z
-x,1/2+y,1/2+z
1/2+x,-y,1/2+z
-y,-x,z
1/2+y,1/2+x,z
loop_
_atom_site_type_symbol
_atom_site_label
_atom_site_fract_x
_atom_site_fract_y
_atom_site_fract_z
Si Si1 0.331377 0.227567 0.839906
Si Si2 0.209108 0.588197 0.831601
Si Si3 0.176309 0.427207 0.797593
Si Si4 0.424318 0.172906 0.553440
Si Si5 0.043945 0.429101 0.335282
Si Si6 0.945835 0.330605 0.443758
O O1 0.250000 0.250000 0.858431
O O2 0.342857 0.250000 0.750000
O O3 0.333624 0.141985 0.849555
O O4 0.387575 0.267444 0.894070
O O5 0.250000 0.597027 0.750000
O O6 0.145417 0.645417 0.835997
O O7 0.181374 0.505987 0.833458
O O8 0.266368 0.593710 0.900010
O O9 0.250000 0.416064 0.750000
O O10 0.112032 0.426883 0.737486
O O11 0.362936 0.137065 0.500000
O O12 0.448428 0.107385 0.607542
O O13 0.493569 0.194306 0.503645
O O14 0.997119 0.497119 0.314170
O O15 0.991632 0.373387 0.379231
O O16 0.888066 0.388066 0.474813
#
# Coordination Sequence:
#
# PCOD9568080 Si02
#       6
#    16  16  16  16  16  16
#     4  11  20  33  53  77 104 143 183 221 261 318
#     4  11  22  35  55  81 109 141 180 222 272 331
#     4  11  18  31  51  73 108 138 172 216 260 317
#     4  10  21  34  50  78 106 136 177 224 266 315
#     4  10  17  30  51  75 103 134 164 209 272 320
#     4  10  20  34  52  76 106 136 172 222 274 320
#
# _framework density 15.776198000000001
#
# number of rings (size 3 to 8) (size 9 to 14) (size 15 to 20)
#    0.000    1.500    6.667    1.500    2.333    3.500 
#    0.000    0.000    0.000    3.000    0.000    0.000 
#    0.000    0.000    0.000    0.000    0.000    0.000 
#
# Total GULP energy -535477.771159 kJ/mol
# GULP energy per Si atom -5577.893450 kJ/mol
# Density = 1.574029 g / cm^3
# Si number density = 15.776198 Si / 1000 Ang^3
#
#
#
# Elastic Constant Matrix: (Units=GPa)
#
#
# Indices 1 2 3 4 5 6 
#
# 1 91.1317 63.6262 40.0272 0.0000 0.0000 0.0000
# 2 63.6262 91.1314 40.0274 0.0000 0.0000 0.0000
# 3 40.0272 40.0274 49.6092 0.0000 0.0000 0.0000
# 4 0.0000 0.0000 0.0000 9.6236 0.0000 0.0000
# 5 0.0000 0.0000 0.0000 0.0000 9.6243 0.0000
# 6 0.0000 0.0000 0.0000 0.0000 0.0000 -45.2105
#
#
#
# Elastic Compliance Matrix: (Units=1/GPa)
#
#
# Indices 1 2 3 4 5 6 
#
# 1 0.023724 -0.012633 -0.008948 0.000000 0.000000 0.000000
# 2 -0.012633 0.023724 -0.008949 0.000000 0.000000 0.000000
# 3 -0.008948 -0.008949 0.034598 0.000000 0.000000 0.000000
# 4 0.000000 0.000000 0.000000 0.103911 0.000000 0.000000
# 5 0.000000 0.000000 0.000000 0.000000 0.103904 0.000000
# 6 0.000000 0.000000 0.000000 0.000000 0.000000 -0.022119
#
#
# Mechanical properties :
#
#
# Convention : Reuss Voigt Hill
#
# Bulk Modulus (GPa) = 47.65297 57.69266 52.67281
# Shear Modulus (GPa) = 14.88994 0.68690 7.78842
#
# Velocity S-wave (km/s) = 3.07550 0.66057 2.22431
# Velocity P-wave (km/s) = 6.54850 6.10169 6.32904
#
# Compressibility (1/GPa) = 0.02098505
#
# Stress axis : x y z
#
# Youngs Moduli (GPa) = 42.15221 42.15174 28.90345
#
# Poissons Ratio (x) = 0.53250 0.25864
# Poissons Ratio (y) = 0.53251 0.25865
# Poissons Ratio (z) = 0.37720 0.37721
#
# Static dielectric constant tensor:
#      x y z
#    x 1.527330 0.000000 0.000000 
#    y 0.000000 1.527330 0.000000 
#    z 0.000000 0.000000 1.536430 
# 
# From -- ./inp_files/7887.got.cif
#   From: 2010.05.17/outbox.cif.g08.bks.cpg/sg134_4_cif.got.tgz:7887.got - 2010.05.20 12:42:49.
