data_PCOD9568414
_publ_section_title
;
Structure prediction by ZEFSAII (Michael W. Deem and Ramdas Pophale) SiO2 
 PCOD9568414
Probable space group: P 42/N N M
;
_chemical_formula_sum "Si O2"
_cell_formula_units_Z 112
_cell_length_a 13.779231
_cell_length_b 13.779231
_cell_length_c 31.886945
_cell_angle_alpha 90.000000
_cell_angle_beta 90.000000
_cell_angle_gamma 90.000000
_cell_volume 6054.285185
_symmetry_space_group_name_H-M "P 42/N N M"
_symmetry_group_IT_number 134
_space_group.IT_coordinate_system_code '2'
_symmetry_cell_setting 'tetragonal'
loop_
_space_group_symop_operation_xyz
x,y,z
1/2-y,x,1/2+z
1/2-x,1/2-y,z
y,1/2-x,1/2+z
x,1/2-y,1/2-z
1/2-x,y,1/2-z
y,x,-z
1/2-y,1/2-x,-z
-x,-y,-z
1/2+y,-x,1/2-z
1/2+x,1/2+y,-z
-y,1/2+x,1/2-z
-x,1/2+y,1/2+z
1/2+x,-y,1/2+z
-y,-x,z
1/2+y,1/2+x,z
loop_
_atom_site_type_symbol
_atom_site_label
_atom_site_fract_x
_atom_site_fract_y
_atom_site_fract_z
Si Si1 0.138267 0.483950 0.834610
Si Si2 0.512690 0.858927 0.332465
Si Si3 0.998190 0.657697 0.119919
Si Si4 0.153556 0.488665 0.022984
Si Si5 0.502812 0.656335 0.878433
Si Si6 0.847707 0.512492 0.475814
Si Si7 0.363905 0.133105 0.750767
O O1 0.083791 0.421365 0.869691
O O2 0.250530 0.490097 0.847981
O O3 0.108376 0.424766 0.792596
O O4 0.089422 0.589422 0.832180
O O5 0.508777 0.748000 0.348016
O O6 0.566967 0.885705 0.288838
O O7 0.406572 0.906572 0.331441
O O8 0.578194 0.916551 0.365529
O O9 0.978813 0.683949 0.071613
O O10 0.100838 0.600838 0.123800
O O11 0.072554 0.572554 0.021589
O O12 0.104194 0.395807 0.000000
O O13 0.249688 0.516940 0.998551
O O14 0.399444 0.600557 0.874781
O O15 0.524587 0.678436 0.926906
O O16 0.928273 0.428273 0.477877
O O17 0.895540 0.604461 0.500000
O O18 0.365834 0.250000 0.750000
O O19 0.250000 0.106493 0.750000
#
# Coordination Sequence:
#
# PCOD9568414 Si02
#       7
#    16  16  16  16  16  16  16
#     4  11  22  39  62  86 119 158 195 242 296 352
#     4  11  22  39  62  86 119 158 195 242 296 352
#     4  10  22  38  59  88 119 154 200 248 297 353
#     4  10  21  38  58  84 119 157 199 247 298 354
#     4  10  22  38  59  88 119 154 200 248 297 353
#     4  10  21  38  58  84 119 157 199 247 298 354
#     4  11  21  38  62  90 119 151 190 242 290 350
#
# _framework density 18.499293000000002
#
# number of rings (size 3 to 8) (size 9 to 14) (size 15 to 20)
#    0.000    1.571    2.857    2.143    0.000    5.143 
#    0.000    5.714    0.000    0.000    0.000    0.000 
#    0.000    0.000    0.000    0.000    0.000    0.000 
#
# Total GULP energy -623840.255677 kJ/mol
# GULP energy per Si atom -5570.002283 kJ/mol
# Density = 1.845719 g / cm^3
# Si number density = 18.499293 Si / 1000 Ang^3
#
#
#
# Elastic Constant Matrix: (Units=GPa)
#
#
# Indices 1 2 3 4 5 6 
#
# 1 86.5103 -11.0421 23.4100 0.0000 0.0000 0.0000
# 2 -11.0421 86.5094 23.4092 0.0000 0.0000 0.0000
# 3 23.4100 23.4092 114.8512 0.0000 0.0000 0.0000
# 4 0.0000 0.0000 0.0000 20.1937 0.0000 0.0000
# 5 0.0000 0.0000 0.0000 0.0000 20.1938 0.0000
# 6 0.0000 0.0000 0.0000 0.0000 0.0000 11.7318
#
#
#
# Elastic Compliance Matrix: (Units=1/GPa)
#
#
# Indices 1 2 3 4 5 6 
#
# 1 0.012710 0.002459 -0.003092 0.000000 0.000000 0.000000
# 2 0.002459 0.012710 -0.003092 0.000000 0.000000 0.000000
# 3 -0.003092 -0.003092 0.009967 0.000000 0.000000 0.000000
# 4 0.000000 0.000000 0.000000 0.049521 0.000000 0.000000
# 5 0.000000 0.000000 0.000000 0.000000 0.049520 0.000000
# 6 0.000000 0.000000 0.000000 0.000000 0.000000 0.085238
#
#
# Mechanical properties :
#
#
# Convention : Reuss Voigt Hill
#
# Bulk Modulus (GPa) = 35.79390 39.93612 37.86501
# Shear Modulus (GPa) = 21.14809 27.23010 24.18910
#
# Velocity S-wave (km/s) = 3.38477 3.84077 3.61996
# Velocity P-wave (km/s) = 5.88781 6.42678 6.16319
#
# Compressibility (1/GPa) = 0.02793772
#
# Stress axis : x y z
#
# Youngs Moduli (GPa) = 78.67929 78.67880 100.32819
#
# Poissons Ratio (x) = -0.19346 0.31020
# Poissons Ratio (y) = -0.19347 0.31019
# Poissons Ratio (z) = 0.24326 0.24326
#
# Static dielectric constant tensor:
#      x y z
#    x 1.628010 0.000000 0.000000 
#    y 0.000000 1.628010 0.000000 
#    z 0.000000 0.000000 1.711210 
# 
# From -- ./inp_files/10866.got.cif
#   From: 2010.05.17/outbox.cif.g08.bks.cpg/sg134_6_cif.got.tgz:10866.got - 2010.05.20 12:42:49.
