data_PCOD9568639
_publ_section_title
;
Structure prediction by ZEFSAII (Michael W. Deem and Ramdas Pophale) SiO2 
 PCOD9568639
Probable space group: P 42/M B C
;
_chemical_formula_sum "Si O2"
_cell_formula_units_Z 96
_cell_length_a 24.430244
_cell_length_b 24.430244
_cell_length_c 8.663294
_cell_angle_alpha 90.000000
_cell_angle_beta 90.000000
_cell_angle_gamma 90.000000
_cell_volume 5170.572858
_symmetry_space_group_name_H-M "P 42/M B C"
_symmetry_group_IT_number 135
_symmetry_cell_setting 'tetragonal'
loop_
_space_group_symop_operation_xyz
x,y,z
-y,x,1/2+z
-x,-y,z
y,-x,1/2+z
1/2+x,1/2-y,-z
1/2-x,1/2+y,-z
1/2+y,1/2+x,1/2-z
1/2-y,1/2-x,1/2-z
-x,-y,-z
y,-x,1/2-z
x,y,-z
-y,x,1/2-z
1/2-x,1/2+y,z
1/2+x,1/2-y,z
1/2-y,1/2-x,1/2+z
1/2+y,1/2+x,1/2+z
loop_
_atom_site_type_symbol
_atom_site_label
_atom_site_fract_x
_atom_site_fract_y
_atom_site_fract_z
Si Si1 0.052269 0.638478 0.314558
Si Si2 0.933747 0.960380 0.828745
Si Si3 0.151403 0.434117 0.684362
Si Si4 0.856064 0.857428 0.178302
Si Si5 0.057070 0.226860 0.314798
Si Si6 0.234702 0.067007 0.187481
O O1 0.096012 0.596012 0.250000
O O2 0.049278 0.635236 0.500000
O O3 0.068013 0.701164 0.273095
O O4 0.992246 0.628662 0.244648
O O5 0.888430 0.914784 0.821493
O O6 0.991493 0.931084 0.794822
O O7 0.932716 0.985081 0.000000
O O8 0.114435 0.385566 0.750000
O O9 0.151578 0.433121 0.500000
O O10 0.213316 0.430427 0.747233
O O11 0.895637 0.814828 0.262815
O O12 0.798174 0.879344 0.244059
O O13 0.849688 0.838890 0.000000
O O14 0.056286 0.229545 0.500000
O O15 0.993945 0.213206 0.265368
O O16 0.230033 0.068535 0.000000
#
# Coordination Sequence:
#
# PCOD9568639 Si02
#       6
#    16  16  16  16  16  16
#     4  10  20  37  60  87 116 148 182 222 272 327
#     4  10  19  29  43  64  94 130 174 227 286 339
#     4  11  22  39  62  88 116 146 179 219 267 326
#     4  10  19  32  50  73 100 140 188 232 275 325
#     4  10  20  36  56  80 110 147 186 230 280 329
#     4   8  17  34  54  74 105 145 185 228 278 327
#
# _framework density 18.566609
#
# number of rings (size 3 to 8) (size 9 to 14) (size 15 to 20)
#    0.000    2.167    0.000    5.500    0.000    3.000 
#    0.000    7.500    0.000    2.000    0.000    0.000 
#    0.000    0.000    0.000    0.000    0.000    0.000 
#
# Total GULP energy -535316.399182 kJ/mol
# GULP energy per Si atom -5576.212491 kJ/mol
# Density = 1.852435 g / cm^3
# Si number density = 18.566609 Si / 1000 Ang^3
#
#
#
# Elastic Constant Matrix: (Units=GPa)
#
#
# Indices 1 2 3 4 5 6 
#
# 1 79.6784 64.4869 27.9781 0.0000 0.0000 0.0000
# 2 64.4869 79.6840 27.9795 0.0000 0.0000 0.0000
# 3 27.9781 27.9795 72.6598 0.0000 0.0000 0.0000
# 4 0.0000 0.0000 0.0000 24.7107 0.0000 0.0000
# 5 0.0000 0.0000 0.0000 0.0000 24.7109 0.0000
# 6 0.0000 0.0000 0.0000 0.0000 0.0000 39.5443
#
#
#
# Elastic Compliance Matrix: (Units=1/GPa)
#
#
# Indices 1 2 3 4 5 6 
#
# 1 0.036986 -0.028830 -0.003140 0.000000 0.000000 0.000000
# 2 -0.028830 0.036984 -0.003140 0.000000 0.000000 0.000000
# 3 -0.003140 -0.003140 0.016181 0.000000 0.000000 0.000000
# 4 0.000000 0.000000 0.000000 0.040468 0.000000 0.000000
# 5 0.000000 0.000000 0.000000 0.000000 0.040468 0.000000
# 6 0.000000 0.000000 0.000000 0.000000 0.000000 0.025288
#
#
# Mechanical properties :
#
#
# Convention : Reuss Voigt Hill
#
# Bulk Modulus (GPa) = 50.17439 52.54566 51.36003
# Shear Modulus (GPa) = 18.29902 25.23169 21.76535
#
# Velocity S-wave (km/s) = 3.14281 3.69044 3.42758
# Velocity P-wave (km/s) = 6.34447 6.82068 6.58688
#
# Compressibility (1/GPa) = 0.01993048
#
# Stress axis : x y z
#
# Youngs Moduli (GPa) = 27.03729 27.03908 61.80006
#
# Poissons Ratio (x) = 0.77952 0.19406
# Poissons Ratio (y) = 0.77947 0.19408
# Poissons Ratio (z) = 0.08490 0.08491
#
# Static dielectric constant tensor:
#      x y z
#    x 1.657520 0.000000 0.000000 
#    y 0.000000 1.657520 0.000000 
#    z 0.000000 0.000000 1.638620 
# 
# From -- ./inp_files/1276.got.cif
#   From: 2010.05.17/outbox.cif.g08.bks.cpg/sg135_1_cif.got.tgz:1276.got - 2010.05.20 12:50:20.
