data_PCOD9568673
_publ_section_title
;
Structure prediction by ZEFSAII (Michael W. Deem and Ramdas Pophale) SiO2 
 PCOD9568673
Probable space group: P 42/M B C
;
_chemical_formula_sum "Si O2"
_cell_formula_units_Z 96
_cell_length_a 24.630618
_cell_length_b 24.630618
_cell_length_c 8.378362
_cell_angle_alpha 90.000000
_cell_angle_beta 90.000000
_cell_angle_gamma 90.000000
_cell_volume 5082.878614
_symmetry_space_group_name_H-M "P 42/M B C"
_symmetry_group_IT_number 135
_symmetry_cell_setting 'tetragonal'
loop_
_space_group_symop_operation_xyz
x,y,z
-y,x,1/2+z
-x,-y,z
y,-x,1/2+z
1/2+x,1/2-y,-z
1/2-x,1/2+y,-z
1/2+y,1/2+x,1/2-z
1/2-y,1/2-x,1/2-z
-x,-y,-z
y,-x,1/2-z
x,y,-z
-y,x,1/2-z
1/2-x,1/2+y,z
1/2+x,1/2-y,z
1/2-y,1/2-x,1/2+z
1/2+y,1/2+x,1/2+z
loop_
_atom_site_type_symbol
_atom_site_label
_atom_site_fract_x
_atom_site_fract_y
_atom_site_fract_z
Si Si1 0.636370 0.220056 0.808715
Si Si2 0.698655 0.428919 0.304783
Si Si3 0.513074 0.209399 0.805062
Si Si4 0.967052 0.079212 0.808922
Si Si5 0.777051 0.806921 0.309109
Si Si6 0.999581 0.585810 0.191397
O O1 0.665085 0.165085 0.750000
O O2 0.574339 0.223094 0.754912
O O3 0.673242 0.269120 0.746268
O O4 0.637906 0.220674 0.000000
O O5 0.698388 0.429167 0.500000
O O6 0.744831 0.470993 0.251823
O O7 0.638335 0.446948 0.254411
O O8 0.713757 0.368203 0.252479
O O9 0.499141 0.148135 0.753829
O O10 0.512408 0.209355 0.000000
O O11 0.932408 0.029518 0.737373
O O12 0.962468 0.076500 0.000000
O O13 0.722404 0.777597 0.250000
O O14 0.775926 0.806924 0.500000
O O15 0.050694 0.550694 0.250000
O O16 0.946101 0.553900 0.250000
O O17 0.999087 0.585031 0.000000
#
# Coordination Sequence:
#
# PCOD9568673 Si02
#       6
#    16  16  16  16  16  16
#     4  10  19  33  56  80 105 136 175 217 262 309
#     4   9  20  36  54  78 109 144 177 216 268 318
#     4   9  19  34  52  77 105 139 175 212 259 312
#     4  10  20  36  58  81 108 141 178 222 271 322
#     4  10  20  36  56  77 105 139 176 216 262 313
#     4  10  19  33  54  77 105 138 176 215 260 311
#
# _framework density 18.886935000000001
#
# number of rings (size 3 to 8) (size 9 to 14) (size 15 to 20)
#    0.000    2.333    0.000    4.500    2.333    0.667 
#    0.000    5.000    0.000   11.000    0.000    0.000 
#    0.000    0.000    0.000    0.000    0.000    0.000 
#
# Total GULP energy -535930.113225 kJ/mol
# GULP energy per Si atom -5582.605346 kJ/mol
# Density = 1.884395 g / cm^3
# Si number density = 18.886935 Si / 1000 Ang^3
#
#
#
# Elastic Constant Matrix: (Units=GPa)
#
#
# Indices 1 2 3 4 5 6 
#
# 1 166.1028 109.3630 13.6288 0.0000 0.0000 0.0000
# 2 109.3630 166.1017 13.6259 0.0000 0.0000 0.0000
# 3 13.6288 13.6259 32.1591 0.0000 0.0000 0.0000
# 4 0.0000 0.0000 0.0000 10.7039 0.0000 0.0000
# 5 0.0000 0.0000 0.0000 0.0000 10.7046 0.0000
# 6 0.0000 0.0000 0.0000 0.0000 0.0000 15.0075
#
#
#
# Elastic Compliance Matrix: (Units=1/GPa)
#
#
# Indices 1 2 3 4 5 6 
#
# 1 0.010707 -0.006918 -0.001606 0.000000 0.000000 0.000000
# 2 -0.006918 0.010707 -0.001605 0.000000 0.000000 0.000000
# 3 -0.001606 -0.001605 0.032456 0.000000 0.000000 0.000000
# 4 0.000000 0.000000 0.000000 0.093424 0.000000 0.000000
# 5 0.000000 0.000000 0.000000 0.000000 0.093418 0.000000
# 6 0.000000 0.000000 0.000000 0.000000 0.000000 0.066633
#
#
# Mechanical properties :
#
#
# Convention : Reuss Voigt Hill
#
# Bulk Modulus (GPa) = 29.75139 70.84433 50.29786
# Shear Modulus (GPa) = 14.75768 22.46626 18.61197
#
# Velocity S-wave (km/s) = 2.79833 3.45267 3.14258
# Velocity P-wave (km/s) = 5.12127 7.31339 6.31321
#
# Compressibility (1/GPa) = 0.03361187
#
# Stress axis : x y z
#
# Youngs Moduli (GPa) = 93.39843 93.39919 30.81077
#
# Poissons Ratio (x) = 0.64611 0.04950
# Poissons Ratio (y) = 0.64610 0.04945
# Poissons Ratio (z) = 0.15004 0.14989
#
# Static dielectric constant tensor:
#      x y z
#    x 1.639030 0.000000 0.000000 
#    y 0.000000 1.639030 0.000000 
#    z 0.000000 0.000000 1.650460 
# 
# From -- ./inp_files/1235.got.cif
#   From: 2010.05.17/outbox.cif.g08.bks.cpg/sg135_1_cif.got.tgz:1235.got - 2010.05.20 12:50:20.
