data_PCOD9568451
_publ_section_title
;
Structure prediction by ZEFSAII (Michael W. Deem and Ramdas Pophale) SiO2 
 PCOD9568451
Probable space group: P 42/N N M
;
_chemical_formula_sum "Si O2"
_cell_formula_units_Z 64
_cell_length_a 14.044266
_cell_length_b 14.044266
_cell_length_c 19.886067
_cell_angle_alpha 90.000000
_cell_angle_beta 90.000000
_cell_angle_gamma 90.000000
_cell_volume 3922.355844
_symmetry_space_group_name_H-M "P 42/N N M"
_symmetry_group_IT_number 134
_space_group.IT_coordinate_system_code '2'
_symmetry_cell_setting 'tetragonal'
loop_
_space_group_symop_operation_xyz
x,y,z
1/2-y,x,1/2+z
1/2-x,1/2-y,z
y,1/2-x,1/2+z
x,1/2-y,1/2-z
1/2-x,y,1/2-z
y,x,-z
1/2-y,1/2-x,-z
-x,-y,-z
1/2+y,-x,1/2-z
1/2+x,1/2+y,-z
-y,1/2+x,1/2-z
-x,1/2+y,1/2+z
1/2+x,-y,1/2+z
-y,-x,z
1/2+y,1/2+x,z
loop_
_atom_site_type_symbol
_atom_site_label
_atom_site_fract_x
_atom_site_fract_y
_atom_site_fract_z
Si Si1 0.600413 0.751489 0.971493
Si Si2 0.907201 0.250390 0.949792
Si Si3 0.172702 0.514388 0.191117
Si Si4 0.210111 0.358091 0.820046
O O1 0.598735 0.756194 0.890733
O O2 0.665246 0.665246 0.000000
O O3 0.654216 0.845785 0.000000
O O4 0.495385 0.743611 0.000422
O O5 0.845421 0.154580 0.945920
O O6 0.834685 0.334685 0.969710
O O7 0.949027 0.278325 0.877163
O O8 0.250000 0.522153 0.250000
O O9 0.082250 0.582250 0.204369
O O10 0.144217 0.404144 0.183068
O O11 0.250000 0.250000 0.822536
O O12 0.250000 0.400265 0.750000
#
# Coordination Sequence:
#
# PCOD9568451 Si02
#       4
#    16  16  16  16
#     4  11  20  35  57  85 109 142 187 231 275 322
#     4  10  22  38  56  81 114 149 184 228 281 332
#     4  11  21  34  55  83 114 148 181 223 279 339
#     4  11  20  36  58  79 113 149 185 227 275 323
#
# _framework density 16.316725000000002
#
# number of rings (size 3 to 8) (size 9 to 14) (size 15 to 20)
#    0.000    1.250    7.500    0.750    0.000    3.250 
#    0.000    1.250    0.000    0.000    0.000    1.750 
#    0.000    0.000    0.000    0.000    0.000    0.000 
#
# Total GULP energy -357142.244619 kJ/mol
# GULP energy per Si atom -5580.347572 kJ/mol
# Density = 1.627959 g / cm^3
# Si number density = 16.316725 Si / 1000 Ang^3
#
#
#
# Elastic Constant Matrix: (Units=GPa)
#
#
# Indices 1 2 3 4 5 6 
#
# 1 127.1662 60.5549 66.6610 0.0000 0.0000 0.0000
# 2 60.5549 127.1655 66.6609 0.0000 0.0000 0.0000
# 3 66.6610 66.6609 151.2631 0.0000 0.0000 0.0000
# 4 0.0000 0.0000 0.0000 -3.7509 0.0000 0.0000
# 5 0.0000 0.0000 0.0000 0.0000 -3.7655 0.0000
# 6 0.0000 0.0000 0.0000 0.0000 0.0000 3.6331
#
#
#
# Elastic Compliance Matrix: (Units=1/GPa)
#
#
# Indices 1 2 3 4 5 6 
#
# 1 0.011383 -0.003629 -0.003417 0.000000 0.000000 0.000000
# 2 -0.003629 0.011383 -0.003417 0.000000 0.000000 0.000000
# 3 -0.003417 -0.003417 0.009623 0.000000 0.000000 0.000000
# 4 0.000000 0.000000 0.000000 -0.266602 0.000000 0.000000
# 5 0.000000 0.000000 0.000000 0.000000 -0.265570 0.000000
# 6 0.000000 0.000000 0.000000 0.000000 0.000000 0.275246
#
#
# Mechanical properties :
#
#
# Convention : Reuss Voigt Hill
#
# Bulk Modulus (GPa) = 87.24320 88.14980 87.69650
# Shear Modulus (GPa) = -25.02634 13.33788 -5.84423
#
# Velocity S-wave (km/s) = -3.92060 2.86219 -1.89460
# Velocity P-wave (km/s) = 5.75237 8.06624 7.00550
#
# Compressibility (1/GPa) = 0.01146221
#
# Stress axis : x y z
#
# Youngs Moduli (GPa) = 87.84865 87.84815 103.91955
#
# Poissons Ratio (x) = 0.31883 0.35511
# Poissons Ratio (y) = 0.31883 0.35511
# Poissons Ratio (z) = 0.30019 0.30019
#
# Static dielectric constant tensor:
#      x y z
#    x 1.528440 0.000000 0.000000 
#    y 0.000000 1.528440 0.000000 
#    z 0.000000 0.000000 1.562740 
# 
# From -- ./inp_files/7423.got.cif
#   From: 2010.05.17/outbox.cif.g08.bks.cpg/sg134_4_cif.got.tgz:7423.got - 2010.05.20 12:42:49.
