data_PCOD9568330
_publ_section_title
;
Structure prediction by ZEFSAII (Michael W. Deem and Ramdas Pophale) SiO2 
 PCOD9568330
Probable space group: P 42/N N M
;
_chemical_formula_sum "Si O2"
_cell_formula_units_Z 80
_cell_length_a 11.664381
_cell_length_b 11.664381
_cell_length_c 31.722652
_cell_angle_alpha 90.000000
_cell_angle_beta 90.000000
_cell_angle_gamma 90.000000
_cell_volume 4316.113737
_symmetry_space_group_name_H-M "P 42/N N M"
_symmetry_group_IT_number 134
_space_group.IT_coordinate_system_code '2'
_symmetry_cell_setting 'tetragonal'
loop_
_space_group_symop_operation_xyz
x,y,z
1/2-y,x,1/2+z
1/2-x,1/2-y,z
y,1/2-x,1/2+z
x,1/2-y,1/2-z
1/2-x,y,1/2-z
y,x,-z
1/2-y,1/2-x,-z
-x,-y,-z
1/2+y,-x,1/2-z
1/2+x,1/2+y,-z
-y,1/2+x,1/2-z
-x,1/2+y,1/2+z
1/2+x,-y,1/2+z
-y,-x,z
1/2+y,1/2+x,z
loop_
_atom_site_type_symbol
_atom_site_label
_atom_site_fract_x
_atom_site_fract_y
_atom_site_fract_z
Si Si1 0.136326 0.045383 0.044950
Si Si2 0.978684 0.206874 0.097715
Si Si3 0.376451 0.064154 0.248593
Si Si4 0.245464 0.379064 0.821981
Si Si5 0.080185 0.403057 0.949538
O O1 0.267305 0.068978 0.057547
O O2 0.061637 0.109119 0.079763
O O3 0.105597 0.105597 0.000000
O O4 0.084442 0.915559 0.041330
O O5 0.851162 0.148838 0.094920
O O6 0.020300 0.235107 0.144808
O O7 0.020121 0.317495 0.070463
O O8 0.250000 0.012054 0.250000
O O9 0.380033 0.157997 0.285763
O O10 0.392102 0.128149 0.203978
O O11 0.473034 0.973034 0.255580
O O12 0.250000 0.250000 0.841519
O O13 0.963939 0.463939 0.935190
O O14 0.089009 0.410992 0.000000
#
# Coordination Sequence:
#
# PCOD9568330 Si02
#       5
#    16  16  16  16  16
#     4  10  20  36  58  81 103 136 186 239 285 338
#     4  11  22  36  59  85 110 147 197 244 285 339
#     4   9  18  33  55  83 115 147 183 225 280 338
#     4   9  18  34  56  81 109 149 190 231 276 330
#     4  11  23  36  53  77 110 148 178 225 293 350
#
# _framework density 18.535191999999999
#
# number of rings (size 3 to 8) (size 9 to 14) (size 15 to 20)
#    0.000    2.000    2.000    3.600    0.000    1.800 
#    0.000    2.000    0.000    9.600    0.000    5.600 
#    0.000    0.000    0.000    0.000    0.000    0.000 
#
# Total GULP energy -445398.575048 kJ/mol
# GULP energy per Si atom -5567.482188 kJ/mol
# Density = 1.849300 g / cm^3
# Si number density = 18.535192 Si / 1000 Ang^3
#
#
#
# Elastic Constant Matrix: (Units=GPa)
#
#
# Indices 1 2 3 4 5 6 
#
# 1 80.0548 75.1891 13.4302 0.0000 0.0000 0.0000
# 2 75.1891 80.0553 13.4303 0.0000 0.0000 0.0000
# 3 13.4302 13.4303 64.4359 0.0000 0.0000 0.0000
# 4 0.0000 0.0000 0.0000 0.5003 0.0000 0.0000
# 5 0.0000 0.0000 0.0000 0.0000 0.5002 0.0000
# 6 0.0000 0.0000 0.0000 0.0000 0.0000 30.0936
#
#
#
# Elastic Compliance Matrix: (Units=1/GPa)
#
#
# Indices 1 2 3 4 5 6 
#
# 1 0.106096 -0.099414 -0.001393 0.000000 0.000000 0.000000
# 2 -0.099414 0.106096 -0.001393 0.000000 0.000000 0.000000
# 3 -0.001393 -0.001393 0.016100 0.000000 0.000000 0.000000
# 4 0.000000 0.000000 0.000000 1.998989 0.000000 0.000000
# 5 0.000000 0.000000 0.000000 0.000000 1.999039 0.000000
# 6 0.000000 0.000000 0.000000 0.000000 0.000000 0.033230
#
#
# Mechanical properties :
#
#
# Convention : Reuss Voigt Hill
#
# Bulk Modulus (GPa) = 41.85229 47.62725 44.73977
# Shear Modulus (GPa) = 1.11809 14.38525 7.75167
#
# Velocity S-wave (km/s) = 0.77752 2.78889 2.04725
# Velocity P-wave (km/s) = 4.84097 6.01015 5.45696
#
# Compressibility (1/GPa) = 0.02389356
#
# Stress axis : x y z
#
# Youngs Moduli (GPa) = 9.42538 9.42544 62.11224
#
# Poissons Ratio (x) = 0.93702 0.08651
# Poissons Ratio (y) = 0.93701 0.08651
# Poissons Ratio (z) = 0.01313 0.01313
#
# Static dielectric constant tensor:
#      x y z
#    x 1.674110 0.000000 0.000000 
#    y 0.000000 1.674110 0.000000 
#    z 0.000000 0.000000 1.630910 
# 
# From -- ./inp_files/11319.got.cif
#   From: 2010.05.17/outbox.cif.g08.bks.cpg/sg134_6_cif.got.tgz:11319.got - 2010.05.20 12:42:49.
