data_PCOD9568124
_publ_section_title
;
Structure prediction by ZEFSAII (Michael W. Deem and Ramdas Pophale) SiO2 
 PCOD9568124
Probable space group: P 42/N N M
;
_chemical_formula_sum "Si O2"
_cell_formula_units_Z 80
_cell_length_a 11.601838
_cell_length_b 11.601838
_cell_length_c 28.986091
_cell_angle_alpha 90.000000
_cell_angle_beta 90.000000
_cell_angle_gamma 90.000000
_cell_volume 3901.604516
_symmetry_space_group_name_H-M "P 42/N N M"
_symmetry_group_IT_number 134
_space_group.IT_coordinate_system_code '2'
_symmetry_cell_setting 'tetragonal'
loop_
_space_group_symop_operation_xyz
x,y,z
1/2-y,x,1/2+z
1/2-x,1/2-y,z
y,1/2-x,1/2+z
x,1/2-y,1/2-z
1/2-x,y,1/2-z
y,x,-z
1/2-y,1/2-x,-z
-x,-y,-z
1/2+y,-x,1/2-z
1/2+x,1/2+y,-z
-y,1/2+x,1/2-z
-x,1/2+y,1/2+z
1/2+x,-y,1/2+z
-y,-x,z
1/2+y,1/2+x,z
loop_
_atom_site_type_symbol
_atom_site_label
_atom_site_fract_x
_atom_site_fract_y
_atom_site_fract_z
Si Si1 0.186600 0.996051 0.391090
Si Si2 0.885697 0.719726 0.303146
Si Si3 0.151678 0.148725 0.053771
Si Si4 0.815591 0.490818 0.103033
Si Si5 0.980933 0.297655 0.301155
O O1 0.218078 0.030275 0.338609
O O2 0.295360 0.036214 0.421606
O O3 0.085806 0.085768 0.405241
O O4 0.130099 0.869902 0.395480
O O5 0.750000 0.750000 0.313365
O O6 0.907406 0.750000 0.250000
O O7 0.888189 0.583100 0.309793
O O8 0.250000 0.250000 0.057630
O O9 0.039543 0.201418 0.078851
O O10 0.129720 0.129720 0.000000
O O11 0.793569 0.486564 0.157872
O O12 0.868823 0.368823 0.087769
O O13 0.001850 0.250000 0.250000
O O14 0.859120 0.359120 0.302329
#
# Coordination Sequence:
#
# PCOD9568124 Si02
#       5
#    16  16  16  16  16
#     4  10  18  31  55  82 109 147 196 241 290 349
#     4  11  18  34  56  75 108 148 189 230 279 347
#     4   9  17  31  52  80 116 149 187 245 297 341
#     4  10  19  32  51  77 113 150 182 228 293 358
#     4  12  23  35  54  82 114 148 185 228 288 353
#
# _framework density 20.504386
#
# number of rings (size 3 to 8) (size 9 to 14) (size 15 to 20)
#    0.000    1.600    6.000    1.200    0.000    4.600 
#    0.000    4.000    0.000    1.200    0.000    1.400 
#    0.000    0.000    0.000    0.000    0.000    0.000 
#
# Total GULP energy -446262.609938 kJ/mol
# GULP energy per Si atom -5578.282624 kJ/mol
# Density = 2.045772 g / cm^3
# Si number density = 20.504386 Si / 1000 Ang^3
#
#
#
# Elastic Constant Matrix: (Units=GPa)
#
#
# Indices 1 2 3 4 5 6 
#
# 1 54.7382 60.9067 41.0812 0.0000 0.0000 0.0000
# 2 60.9067 54.7382 41.0812 0.0000 0.0000 0.0000
# 3 41.0812 41.0812 120.3458 0.0000 0.0000 0.0000
# 4 0.0000 0.0000 0.0000 -9.9858 0.0000 0.0000
# 5 0.0000 0.0000 0.0000 0.0000 -9.9858 0.0000
# 6 0.0000 0.0000 0.0000 0.0000 0.0000 35.9733
#
#
#
# Elastic Compliance Matrix: (Units=1/GPa)
#
#
# Indices 1 2 3 4 5 6 
#
# 1 -0.075349 0.086765 -0.003897 0.000000 0.000000 0.000000
# 2 0.086765 -0.075349 -0.003897 0.000000 0.000000 0.000000
# 3 -0.003897 -0.003897 0.010970 0.000000 0.000000 0.000000
# 4 0.000000 0.000000 0.000000 -0.100142 0.000000 0.000000
# 5 0.000000 0.000000 0.000000 0.000000 -0.100142 0.000000
# 6 0.000000 0.000000 0.000000 0.000000 0.000000 0.027798
#
#
# Mechanical properties :
#
#
# Convention : Reuss Voigt Hill
#
# Bulk Modulus (GPa) = 54.90318 57.32896 56.11607
# Shear Modulus (GPa) = -10.77388 8.98390 -0.89499
#
# Velocity S-wave (km/s) = -2.29474 2.09546 -0.66139
# Velocity P-wave (km/s) = 4.45122 5.82020 5.18112
#
# Compressibility (1/GPa) = 0.01821388
#
# Stress axis : x y z
#
# Youngs Moduli (GPa) = -13.27157 -13.27157 91.15879
#
# Poissons Ratio (x) = 1.15151 0.35524
# Poissons Ratio (y) = 1.15151 0.35524
# Poissons Ratio (z) = -0.05172 -0.05172
#
# Static dielectric constant tensor:
#      x y z
#    x 1.764050 0.000000 0.000000 
#    y 0.000000 1.764050 0.000000 
#    z 0.000000 0.000000 1.715840 
# 
# From -- ./inp_files/11290.got.cif
#   From: 2010.05.17/outbox.cif.g08.bks.cpg/sg134_6_cif.got.tgz:11290.got - 2010.05.20 12:42:49.
