data_PCOD9568748
_publ_section_title
;
Structure prediction by ZEFSAII (Michael W. Deem and Ramdas Pophale) SiO2 
 PCOD9568748
Probable space group: P 42/M B C
;
_chemical_formula_sum "Si O2"
_cell_formula_units_Z 64
_cell_length_a 12.516608
_cell_length_b 12.516608
_cell_length_c 16.054534
_cell_angle_alpha 90.000000
_cell_angle_beta 90.000000
_cell_angle_gamma 90.000000
_cell_volume 2515.191208
_symmetry_space_group_name_H-M "P 42/M B C"
_symmetry_group_IT_number 135
_symmetry_cell_setting 'tetragonal'
loop_
_space_group_symop_operation_xyz
x,y,z
-y,x,1/2+z
-x,-y,z
y,-x,1/2+z
1/2+x,1/2-y,-z
1/2-x,1/2+y,-z
1/2+y,1/2+x,1/2-z
1/2-y,1/2-x,1/2-z
-x,-y,-z
y,-x,1/2-z
x,y,-z
-y,x,1/2-z
1/2-x,1/2+y,z
1/2+x,1/2-y,z
1/2-y,1/2-x,1/2+z
1/2+y,1/2+x,1/2+z
loop_
_atom_site_type_symbol
_atom_site_label
_atom_site_fract_x
_atom_site_fract_y
_atom_site_fract_z
Si Si1 0.478306 0.268699 0.092107
Si Si2 0.097294 0.361129 0.337914
Si Si3 0.773406 0.385865 0.908522
Si Si4 0.856612 0.191297 0.240028
O O1 0.572105 0.182960 0.109357
O O2 0.362806 0.207132 0.088642
O O3 0.456473 0.328157 0.180230
O O4 0.490247 0.317940 0.000000
O O5 0.080320 0.419681 0.250000
O O6 0.136207 0.244606 0.304295
O O7 0.992288 0.340376 0.389701
O O8 0.680974 0.378659 0.838431
O O9 0.724904 0.391710 0.000000
O O10 0.816387 0.316387 0.250000
#
# Coordination Sequence:
#
# PCOD9568748 Si02
#       4
#    16  16  16  16
#     4  10  20  34  55  88 124 156 196 253 316 377
#     4  11  20  33  58  88 117 161 209 249 312 380
#     4  10  20  36  59  88 125 161 202 261 320 383
#     4   9  20  36  55  84 122 161 202 246 307 370
#
# _framework density 25.445381000000001
#
# number of rings (size 3 to 8) (size 9 to 14) (size 15 to 20)
#    0.000    2.000    2.500    1.500    0.000    5.000 
#    0.000    7.500    0.000    0.750    0.000    1.750 
#    0.000    0.000    0.000    0.000    0.000    0.000 
#
# Total GULP energy -356799.930374 kJ/mol
# GULP energy per Si atom -5574.998912 kJ/mol
# Density = 2.538747 g / cm^3
# Si number density = 25.445381 Si / 1000 Ang^3
#
#
#
# Elastic Constant Matrix: (Units=GPa)
#
#
# Indices 1 2 3 4 5 6 
#
# 1 70.0962 17.1613 18.8684 0.0000 0.0000 0.0000
# 2 17.1613 70.0956 18.8684 0.0000 0.0000 0.0000
# 3 18.8684 18.8684 206.5851 0.0000 0.0000 0.0000
# 4 0.0000 0.0000 0.0000 9.9686 0.0000 0.0000
# 5 0.0000 0.0000 0.0000 0.0000 9.9687 0.0000
# 6 0.0000 0.0000 0.0000 0.0000 0.0000 28.8840
#
#
#
# Elastic Compliance Matrix: (Units=1/GPa)
#
#
# Indices 1 2 3 4 5 6 
#
# 1 0.015411 -0.003480 -0.001090 0.000000 0.000000 0.000000
# 2 -0.003480 0.015412 -0.001090 0.000000 0.000000 0.000000
# 3 -0.001090 -0.001090 0.005040 0.000000 0.000000 0.000000
# 4 0.000000 0.000000 0.000000 0.100315 0.000000 0.000000
# 5 0.000000 0.000000 0.000000 0.000000 0.100314 0.000000
# 6 0.000000 0.000000 0.000000 0.000000 0.000000 0.034621
#
#
# Mechanical properties :
#
#
# Convention : Reuss Voigt Hill
#
# Bulk Modulus (GPa) = 40.74327 50.73035 45.73681
# Shear Modulus (GPa) = 17.20506 29.22286 23.21396
#
# Velocity S-wave (km/s) = 2.60312 3.39256 3.02372
# Velocity P-wave (km/s) = 5.00817 5.94359 5.49582
#
# Compressibility (1/GPa) = 0.02454393
#
# Stress axis : x y z
#
# Youngs Moduli (GPa) = 64.88714 64.88652 198.42489
#
# Poissons Ratio (x) = 0.22579 0.21624
# Poissons Ratio (y) = 0.22579 0.21624
# Poissons Ratio (z) = 0.07071 0.07071
#
# Static dielectric constant tensor:
#      x y z
#    x 2.089170 0.000000 0.000000 
#    y 0.000000 2.089170 0.000000 
#    z 0.000000 0.000000 2.342420 
# 
# From -- ./inp_files/3163.got.cif
#   From: 2010.05.17/outbox.cif.g08.bks.cpg/sg135_2_cif.got.tgz:3163.got - 2010.05.20 12:50:20.
