data_PCOD9568828
_publ_section_title
;
Structure prediction by ZEFSAII (Michael W. Deem and Ramdas Pophale) SiO2 
 PCOD9568828
Probable space group: P 42/M B C
;
_chemical_formula_sum "Si O2"
_cell_formula_units_Z 64
_cell_length_a 13.296798
_cell_length_b 13.296798
_cell_length_c 18.558929
_cell_angle_alpha 90.000000
_cell_angle_beta 90.000000
_cell_angle_gamma 90.000000
_cell_volume 3281.308418
_symmetry_space_group_name_H-M "P 42/M B C"
_symmetry_group_IT_number 135
_symmetry_cell_setting 'tetragonal'
loop_
_space_group_symop_operation_xyz
x,y,z
-y,x,1/2+z
-x,-y,z
y,-x,1/2+z
1/2+x,1/2-y,-z
1/2-x,1/2+y,-z
1/2+y,1/2+x,1/2-z
1/2-y,1/2-x,1/2-z
-x,-y,-z
y,-x,1/2-z
x,y,-z
-y,x,1/2-z
1/2-x,1/2+y,z
1/2+x,1/2-y,z
1/2-y,1/2-x,1/2+z
1/2+y,1/2+x,1/2+z
loop_
_atom_site_type_symbol
_atom_site_label
_atom_site_fract_x
_atom_site_fract_y
_atom_site_fract_z
Si Si1 0.736507 0.835066 0.673784
Si Si2 0.608876 0.456475 0.584111
Si Si3 0.753685 0.155544 0.581641
Si Si4 0.396710 0.964151 0.671220
O O1 0.723403 0.776598 0.750000
O O2 0.842475 0.875905 0.639716
O O3 0.697034 0.753797 0.616308
O O4 0.671585 0.936623 0.678591
O O5 0.500000 0.500000 0.604435
O O6 0.605684 0.419629 0.500000
O O7 0.677793 0.556288 0.583924
O O8 0.726342 0.176707 0.500000
O O9 0.657754 0.123304 0.628020
O O10 0.423602 0.923602 0.750000
O O11 0.500000 0.000000 0.635192
#
# Coordination Sequence:
#
# PCOD9568828 Si02
#       4
#    16  16  16  16
#     4  11  21  38  63  90 122 163 203 260 316 375
#     4   9  20  41  62  86 124 167 211 257 309 375
#     4  10  22  38  60  91 122 162 211 256 309 371
#     4  10  20  40  64  88 123 163 207 254 312 369
#
# _framework density 19.504414000000001
#
# number of rings (size 3 to 8) (size 9 to 14) (size 15 to 20)
#    0.000    2.000    2.500    1.500    0.000    3.500 
#    9.000    2.500    0.000    0.000    0.000    0.000 
#    0.000    0.000    0.000    0.000    0.000    0.000 
#
# Total GULP energy -356515.686540 kJ/mol
# GULP energy per Si atom -5570.557602 kJ/mol
# Density = 1.946002 g / cm^3
# Si number density = 19.504414 Si / 1000 Ang^3
#
#
#
# Elastic Constant Matrix: (Units=GPa)
#
#
# Indices 1 2 3 4 5 6 
#
# 1 70.0129 13.4443 49.6861 0.0000 0.0000 0.0000
# 2 13.4443 70.0126 49.6860 0.0000 0.0000 0.0000
# 3 49.6861 49.6860 128.6571 0.0000 0.0000 0.0000
# 4 0.0000 0.0000 0.0000 19.4630 0.0000 0.0000
# 5 0.0000 0.0000 0.0000 0.0000 19.4630 0.0000
# 6 0.0000 0.0000 0.0000 0.0000 0.0000 28.2076
#
#
#
# Elastic Compliance Matrix: (Units=1/GPa)
#
#
# Indices 1 2 3 4 5 6 
#
# 1 0.019930 0.002252 -0.008567 0.000000 0.000000 0.000000
# 2 0.002252 0.019930 -0.008567 0.000000 0.000000 0.000000
# 3 -0.008567 -0.008567 0.014389 0.000000 0.000000 0.000000
# 4 0.000000 0.000000 0.000000 0.051380 0.000000 0.000000
# 5 0.000000 0.000000 0.000000 0.000000 0.051380 0.000000
# 6 0.000000 0.000000 0.000000 0.000000 0.000000 0.035451
#
#
# Mechanical properties :
#
#
# Convention : Reuss Voigt Hill
#
# Bulk Modulus (GPa) = 40.83680 54.92392 47.88036
# Shear Modulus (GPa) = 21.70284 23.81780 22.76032
#
# Velocity S-wave (km/s) = 3.33936 3.49829 3.41974
# Velocity P-wave (km/s) = 5.98758 6.67369 6.33992
#
# Compressibility (1/GPa) = 0.02448772
#
# Stress axis : x y z
#
# Youngs Moduli (GPa) = 50.17547 50.17520 69.49603
#
# Poissons Ratio (x) = -0.11302 0.59535
# Poissons Ratio (y) = -0.11302 0.59535
# Poissons Ratio (z) = 0.42984 0.42983
#
# Static dielectric constant tensor:
#      x y z
#    x 1.719630 0.000000 0.000000 
#    y 0.000000 1.719630 0.000000 
#    z 0.000000 0.000000 1.694220 
# 
# From -- ./inp_files/4149.got.cif
#   From: 2010.05.17/outbox.cif.g08.bks.cpg/sg135_3_cif.got.tgz:4149.got - 2010.05.20 12:50:20.
