data_PCOD9568200
_publ_section_title
;
Structure prediction by ZEFSAII (Michael W. Deem and Ramdas Pophale) SiO2 
 PCOD9568200
Probable space group: P 42/N N M
;
_chemical_formula_sum "Si O2"
_cell_formula_units_Z 72
_cell_length_a 28.325869
_cell_length_b 28.325869
_cell_length_c 5.240400
_cell_angle_alpha 90.000000
_cell_angle_beta 90.000000
_cell_angle_gamma 90.000000
_cell_volume 4204.660380
_symmetry_space_group_name_H-M "P 42/N N M"
_symmetry_group_IT_number 134
_space_group.IT_coordinate_system_code '2'
_symmetry_cell_setting 'tetragonal'
loop_
_space_group_symop_operation_xyz
x,y,z
1/2-y,x,1/2+z
1/2-x,1/2-y,z
y,1/2-x,1/2+z
x,1/2-y,1/2-z
1/2-x,y,1/2-z
y,x,-z
1/2-y,1/2-x,-z
-x,-y,-z
1/2+y,-x,1/2-z
1/2+x,1/2+y,-z
-y,1/2+x,1/2-z
-x,1/2+y,1/2+z
1/2+x,-y,1/2+z
-y,-x,z
1/2+y,1/2+x,z
loop_
_atom_site_type_symbol
_atom_site_label
_atom_site_fract_x
_atom_site_fract_y
_atom_site_fract_z
Si Si1 0.523260 0.023260 0.250000
Si Si2 0.096780 0.449464 0.750000
Si Si3 0.696579 0.050667 0.750000
Si Si4 0.306210 0.693791 0.750000
Si Si5 0.852242 0.352242 0.750000
Si Si6 0.014099 0.303248 0.250000
O O1 0.503837 0.076698 0.250000
O O2 0.500000 0.000000 0.500000
O O3 0.500000 0.000000 0.000000
O O4 0.075882 0.424119 0.500000
O O5 0.153072 0.450397 0.750000
O O6 0.075882 0.424119 0.000000
O O7 0.750000 0.071353 0.750000
O O8 0.659460 0.092619 0.750000
O O9 0.692250 0.018450 0.500331
O O10 0.692250 0.018450 0.999669
O O11 0.314463 0.750000 0.750000
O O12 0.329060 0.670941 0.500017
O O13 0.329060 0.670941 0.999983
O O14 0.034386 0.250000 0.250000
#
# Coordination Sequence:
#
# PCOD9568200 Si02
#       6
#     8  16  16   8   8  16
#     4   8  16  28  44  68  99 130 159 199 246 291
#     4  10  19  33  53  78 105 135 172 213 255 304
#     4  10  21  35  50  70  98 133 170 212 262 310
#     4  11  22  34  49  68  91 121 162 223 290 331
#     4  12  22  35  53  72  92 127 177 225 260 315
#     4  10  21  37  54  75 106 139 169 207 258 313
#
# _framework density 17.123857000000001
#
# number of rings (size 3 to 8) (size 9 to 14) (size 15 to 20)
#    0.000    1.889    0.000    4.667    0.000    4.444 
#    0.000    2.222    0.000    0.000    0.000    0.000 
#    0.000    2.667    0.000    0.000    0.000    0.000 
#
# Total GULP energy -401899.416977 kJ/mol
# GULP energy per Si atom -5581.936347 kJ/mol
# Density = 1.708488 g / cm^3
# Si number density = 17.123857 Si / 1000 Ang^3
#
#
#
# Elastic Constant Matrix: (Units=GPa)
#
#
# Indices 1 2 3 4 5 6 
#
# 1 82.3912 46.1601 25.6763 0.0000 0.0000 0.0000
# 2 46.1601 82.3907 25.6764 0.0000 0.0000 0.0000
# 3 25.6763 25.6764 147.0791 0.0000 0.0000 0.0000
# 4 0.0000 0.0000 0.0000 19.3946 0.0000 0.0000
# 5 0.0000 0.0000 0.0000 0.0000 19.3963 0.0000
# 6 0.0000 0.0000 0.0000 0.0000 0.0000 25.9590
#
#
#
# Elastic Compliance Matrix: (Units=1/GPa)
#
#
# Indices 1 2 3 4 5 6 
#
# 1 0.017981 -0.009619 -0.001460 0.000000 0.000000 0.000000
# 2 -0.009619 0.017982 -0.001460 0.000000 0.000000 0.000000
# 3 -0.001460 -0.001460 0.007309 0.000000 0.000000 0.000000
# 4 0.000000 0.000000 0.000000 0.051561 0.000000 0.000000
# 5 0.000000 0.000000 0.000000 0.000000 0.051556 0.000000
# 6 0.000000 0.000000 0.000000 0.000000 0.000000 0.038522
#
#
# Mechanical properties :
#
#
# Convention : Reuss Voigt Hill
#
# Bulk Modulus (GPa) = 54.96381 56.32075 55.64228
# Shear Modulus (GPa) = 23.14241 27.23985 25.19113
#
# Velocity S-wave (km/s) = 3.68022 3.99275 3.83967
# Velocity P-wave (km/s) = 7.08705 7.36327 7.22648
#
# Compressibility (1/GPa) = 0.01819379
#
# Stress axis : x y z
#
# Youngs Moduli (GPa) = 55.61288 55.61255 136.82203
#
# Poissons Ratio (x) = 0.53496 0.19973
# Poissons Ratio (y) = 0.53496 0.19974
# Poissons Ratio (z) = 0.08118 0.08119
#
# Static dielectric constant tensor:
#      x y z
#    x 1.584120 0.000000 0.000000 
#    y 0.000000 1.584120 0.000000 
#    z 0.000000 0.000000 1.562370 
# 
# From -- ./inp_files/1112.got.cif
#   From: 2010.05.17/outbox.cif.g08.bks.cpg/sg134_1_cif.got.tgz:1112.got - 2010.05.20 12:42:49.
