data_PCOD9568910
_publ_section_title
;
Structure prediction by ZEFSAII (Michael W. Deem and Ramdas Pophale) SiO2 
 PCOD9568910
Probable space group: P 42/M B C
;
_chemical_formula_sum "Si O2"
_cell_formula_units_Z 112
_cell_length_a 14.332464
_cell_length_b 14.332464
_cell_length_c 24.720559
_cell_angle_alpha 90.000000
_cell_angle_beta 90.000000
_cell_angle_gamma 90.000000
_cell_volume 5078.085470
_symmetry_space_group_name_H-M "P 42/M B C"
_symmetry_group_IT_number 135
_symmetry_cell_setting 'tetragonal'
loop_
_space_group_symop_operation_xyz
x,y,z
-y,x,1/2+z
-x,-y,z
y,-x,1/2+z
1/2+x,1/2-y,-z
1/2-x,1/2+y,-z
1/2+y,1/2+x,1/2-z
1/2-y,1/2-x,1/2-z
-x,-y,-z
y,-x,1/2-z
x,y,-z
-y,x,1/2-z
1/2-x,1/2+y,z
1/2+x,1/2-y,z
1/2-y,1/2-x,1/2+z
1/2+y,1/2+x,1/2+z
loop_
_atom_site_type_symbol
_atom_site_label
_atom_site_fract_x
_atom_site_fract_y
_atom_site_fract_z
Si Si1 0.377921 0.742177 0.060591
Si Si2 0.632815 0.789106 0.396965
Si Si3 0.181918 0.066284 0.791367
Si Si4 0.099714 0.313057 0.699055
Si Si5 0.601578 0.513538 0.360490
Si Si6 0.152683 0.779696 0.821453
Si Si7 0.101995 0.459295 0.089495
O O1 0.272286 0.703665 0.067925
O O2 0.438567 0.681816 0.103248
O O3 0.384387 0.854332 0.067719
O O4 0.410332 0.720138 0.000000
O O5 0.593212 0.723507 0.349654
O O6 0.690814 0.862986 0.360216
O O7 0.543594 0.829491 0.428142
O O8 0.073493 0.081459 0.805501
O O9 0.222990 0.126036 0.741789
O O10 0.227581 0.965388 0.782301
O O11 0.126655 0.373346 0.750000
O O12 0.190960 0.261154 0.675359
O O13 0.052271 0.374938 0.653305
O O14 0.500000 0.500000 0.387443
O O15 0.639910 0.412792 0.344922
O O16 0.000000 0.500000 0.079715
#
# Coordination Sequence:
#
# PCOD9568910 Si02
#       7
#    16  16  16  16  16  16  16
#     4  11  26  49  74  99 131 180 239 303 367 418
#     4  10  23  42  67  96 133 179 228 287 341 409
#     4  10  22  37  59  96 141 181 220 270 335 405
#     4  11  23  37  62  99 139 187 225 266 329 406
#     4  11  24  41  66 103 139 179 231 289 345 419
#     4  12  21  37  65  97 140 184 226 275 337 422
#     4  11  25  46  67 100 142 179 226 290 349 425
#
# _framework density 22.055557
#
# number of rings (size 3 to 8) (size 9 to 14) (size 15 to 20)
#    0.000    1.143    2.857    3.000    6.000    1.429 
#    0.000    2.143    0.000    0.000    0.000    0.000 
#    0.000    0.000    0.000    0.000    0.000    0.000 
#
# Total GULP energy -625010.756028 kJ/mol
# GULP energy per Si atom -5580.453179 kJ/mol
# Density = 2.200536 g / cm^3
# Si number density = 22.055557 Si / 1000 Ang^3
#
#
#
# Elastic Constant Matrix: (Units=GPa)
#
#
# Indices 1 2 3 4 5 6 
#
# 1 105.0490 32.7107 20.1872 0.0000 0.0000 0.0000
# 2 32.7107 105.0478 20.1868 0.0000 0.0000 0.0000
# 3 20.1872 20.1868 62.8379 0.0000 0.0000 0.0000
# 4 0.0000 0.0000 0.0000 6.5625 0.0000 0.0000
# 5 0.0000 0.0000 0.0000 0.0000 6.5628 0.0000
# 6 0.0000 0.0000 0.0000 0.0000 0.0000 32.7882
#
#
#
# Elastic Compliance Matrix: (Units=1/GPa)
#
#
# Indices 1 2 3 4 5 6 
#
# 1 0.010919 -0.002905 -0.002574 0.000000 0.000000 0.000000
# 2 -0.002905 0.010919 -0.002574 0.000000 0.000000 0.000000
# 3 -0.002574 -0.002574 0.017568 0.000000 0.000000 0.000000
# 4 0.000000 0.000000 0.000000 0.152381 0.000000 0.000000
# 5 0.000000 0.000000 0.000000 0.000000 0.152375 0.000000
# 6 0.000000 0.000000 0.000000 0.000000 0.000000 0.030499
#
#
# Mechanical properties :
#
#
# Convention : Reuss Voigt Hill
#
# Bulk Modulus (GPa) = 42.92296 46.56712 44.74504
# Shear Modulus (GPa) = 12.54599 22.50604 17.52602
#
# Velocity S-wave (km/s) = 2.38762 3.19787 2.82198
# Velocity P-wave (km/s) = 5.20620 5.89869 5.56323
#
# Compressibility (1/GPa) = 0.02329755
#
# Stress axis : x y z
#
# Youngs Moduli (GPa) = 91.58568 91.58473 56.92157
#
# Poissons Ratio (x) = 0.26608 0.14654
# Poissons Ratio (y) = 0.26608 0.14654
# Poissons Ratio (z) = 0.23578 0.23577
#
# Static dielectric constant tensor:
#      x y z
#    x 1.903710 0.000000 0.000000 
#    y 0.000000 1.903710 0.000000 
#    z 0.000000 0.000000 1.781200 
# 
# From -- ./inp_files/6120.got.cif
#   From: 2010.05.17/outbox.cif.g08.bks.cpg/sg135_4_cif.got.tgz:6120.got - 2010.05.20 12:50:20.
