data_PCOD9568902
_publ_section_title
;
Structure prediction by ZEFSAII (Michael W. Deem and Ramdas Pophale) SiO2 
 PCOD9568902
Probable space group: P 42/M B C
;
_chemical_formula_sum "Si O2"
_cell_formula_units_Z 56
_cell_length_a 14.066034
_cell_length_b 14.066034
_cell_length_c 12.682362
_cell_angle_alpha 90.000000
_cell_angle_beta 90.000000
_cell_angle_gamma 90.000000
_cell_volume 2509.247332
_symmetry_space_group_name_H-M "P 42/M B C"
_symmetry_group_IT_number 135
_symmetry_cell_setting 'tetragonal'
loop_
_space_group_symop_operation_xyz
x,y,z
-y,x,1/2+z
-x,-y,z
y,-x,1/2+z
1/2+x,1/2-y,-z
1/2-x,1/2+y,-z
1/2+y,1/2+x,1/2-z
1/2-y,1/2-x,1/2-z
-x,-y,-z
y,-x,1/2-z
x,y,-z
-y,x,1/2-z
1/2-x,1/2+y,z
1/2+x,1/2-y,z
1/2-y,1/2-x,1/2+z
1/2+y,1/2+x,1/2+z
loop_
_atom_site_type_symbol
_atom_site_label
_atom_site_fract_x
_atom_site_fract_y
_atom_site_fract_z
Si Si1 0.158160 0.426986 0.500000
Si Si2 0.679993 0.853415 0.500000
Si Si3 0.867746 0.147299 0.155155
Si Si4 0.019831 0.252055 0.500000
Si Si5 0.656885 0.588133 0.615725
O O1 0.140844 0.538965 0.500000
O O2 0.074626 0.353491 0.500000
O O3 0.229498 0.407981 0.597468
O O4 0.753088 0.841473 0.598337
O O5 0.589131 0.786823 0.500000
O O6 0.805445 0.063960 0.100642
O O7 0.862188 0.147382 0.280734
O O8 0.978607 0.129229 0.132159
O O9 0.615127 0.610831 0.500000
#
# Coordination Sequence:
#
# PCOD9568902 Si02
#       5
#     8   8  16   8  16
#     4   8  19  40  67  99 140 185 231 304 366 430
#     4   9  20  43  70 105 144 180 254 300 371 448
#     4  10  21  44  68 101 147 188 245 302 373 432
#     4  11  20  41  71 111 134 193 242 307 374 436
#     4   9  20  45  66  98 147 184 245 297 365 449
#
# _framework density 22.317447999999999
#
# number of rings (size 3 to 8) (size 9 to 14) (size 15 to 20)
#    0.857    1.714    2.857    0.429    0.000    1.714 
#   20.571    5.714    0.000    6.857    0.000    0.000 
#    0.000    3.143    0.000    0.000    0.000    0.000 
#
# Total GULP energy -312551.898064 kJ/mol
# GULP energy per Si atom -5581.283894 kJ/mol
# Density = 2.226665 g / cm^3
# Si number density = 22.317448 Si / 1000 Ang^3
#
#
#
# Elastic Constant Matrix: (Units=GPa)
#
#
# Indices 1 2 3 4 5 6 
#
# 1 131.7357 76.5626 75.8777 0.0000 0.0000 0.0000
# 2 76.5626 131.7357 75.8777 0.0000 0.0000 0.0000
# 3 75.8777 75.8777 200.1612 0.0000 0.0000 0.0000
# 4 0.0000 0.0000 0.0000 71.7417 0.0000 0.0000
# 5 0.0000 0.0000 0.0000 0.0000 71.7417 0.0000
# 6 0.0000 0.0000 0.0000 0.0000 0.0000 16.5169
#
#
#
# Elastic Compliance Matrix: (Units=1/GPa)
#
#
# Indices 1 2 3 4 5 6 
#
# 1 0.012379 -0.005746 -0.002514 0.000000 0.000000 0.000000
# 2 -0.005746 0.012379 -0.002514 0.000000 0.000000 0.000000
# 3 -0.002514 -0.002514 0.006902 0.000000 0.000000 0.000000
# 4 0.000000 0.000000 0.000000 0.013939 0.000000 0.000000
# 5 0.000000 0.000000 0.000000 0.000000 0.013939 0.000000
# 6 0.000000 0.000000 0.000000 0.000000 0.000000 0.060544
#
#
# Mechanical properties :
#
#
# Convention : Reuss Voigt Hill
#
# Bulk Modulus (GPa) = 98.90991 102.25207 100.58099
# Shear Modulus (GPa) = 34.48259 47.68772 41.08515
#
# Velocity S-wave (km/s) = 3.93503 4.62756 4.29528
# Velocity P-wave (km/s) = 8.06609 8.62954 8.35257
#
# Compressibility (1/GPa) = 0.01011021
#
# Stress axis : x y z
#
# Youngs Moduli (GPa) = 80.78405 80.78405 144.88060
#
# Poissons Ratio (x) = 0.46419 0.36427
# Poissons Ratio (y) = 0.46419 0.36427
# Poissons Ratio (z) = 0.20312 0.20312
#
# Static dielectric constant tensor:
#      x y z
#    x 1.861050 0.000000 0.000000 
#    y 0.000000 1.861050 0.000000 
#    z 0.000000 0.000000 1.839900 
# 
# From -- ./inp_files/2095.got.cif
#   From: 2010.05.17/outbox.cif.g08.bks.cpg/sg135_2_cif.got.tgz:2095.got - 2010.05.20 12:50:20.
