data_PCOD9568634
_publ_section_title
;
Structure prediction by ZEFSAII (Michael W. Deem and Ramdas Pophale) SiO2 
 PCOD9568634
Probable space group: P 42/M B C
;
_chemical_formula_sum "Si O2"
_cell_formula_units_Z 88
_cell_length_a 14.008890
_cell_length_b 14.008890
_cell_length_c 20.866876
_cell_angle_alpha 90.000000
_cell_angle_beta 90.000000
_cell_angle_gamma 90.000000
_cell_volume 4095.103528
_symmetry_space_group_name_H-M "P 42/M B C"
_symmetry_group_IT_number 135
_symmetry_cell_setting 'tetragonal'
loop_
_space_group_symop_operation_xyz
x,y,z
-y,x,1/2+z
-x,-y,z
y,-x,1/2+z
1/2+x,1/2-y,-z
1/2-x,1/2+y,-z
1/2+y,1/2+x,1/2-z
1/2-y,1/2-x,1/2-z
-x,-y,-z
y,-x,1/2-z
x,y,-z
-y,x,1/2-z
1/2-x,1/2+y,z
1/2+x,1/2-y,z
1/2-y,1/2-x,1/2+z
1/2+y,1/2+x,1/2+z
loop_
_atom_site_type_symbol
_atom_site_label
_atom_site_fract_x
_atom_site_fract_y
_atom_site_fract_z
Si Si1 0.213510 0.555422 0.729476
Si Si2 0.733273 0.077409 0.500000
Si Si3 0.231171 0.139020 0.500000
Si Si4 0.602140 0.127665 0.864781
Si Si5 0.950524 0.281994 0.632536
Si Si6 0.779224 0.799868 0.362000
Si Si7 0.731139 0.404851 0.000000
O O1 0.129042 0.629042 0.750000
O O2 0.163653 0.476513 0.685163
O O3 0.257931 0.523201 0.797211
O O4 0.289510 0.613335 0.686979
O O5 0.670973 0.085481 0.564563
O O6 0.818539 0.154723 0.500000
O O7 0.778081 0.973270 0.500000
O O8 0.189179 0.178889 0.434312
O O9 0.344480 0.168696 0.500000
O O10 0.702056 0.173460 0.841313
O O11 0.621829 0.014403 0.870132
O O12 0.835792 0.289540 0.633535
O O13 0.965315 0.227583 0.565320
#
# Coordination Sequence:
#
# PCOD9568634 Si02
#       7
#    16   8   8  16  16  16   8
#     4  10  23  39  59  95 133 167 212 273 338 404
#     4  12  21  37  70  97 123 182 224 273 343 404
#     4  10  18  37  61  92 123 167 218 275 315 399
#     4  12  22  39  67  96 128 176 220 270 350 402
#     4  10  22  37  59  88 126 166 213 271 323 400
#     4  10  21  40  60  89 133 168 213 268 330 399
#     4  10  21  44  58  90 138 167 224 282 326 408
#
# _framework density 21.489077999999999
#
# number of rings (size 3 to 8) (size 9 to 14) (size 15 to 20)
#    0.000    1.455    5.455    1.091    0.000    9.455 
#    0.000    1.818    0.000    5.455    0.000    7.636 
#    0.000    0.000    0.000    0.000    0.000    0.000 
#
# Total GULP energy -490705.456460 kJ/mol
# GULP energy per Si atom -5576.198369 kJ/mol
# Density = 2.144017 g / cm^3
# Si number density = 21.489078 Si / 1000 Ang^3
#
#
#
# Elastic Constant Matrix: (Units=GPa)
#
#
# Indices 1 2 3 4 5 6 
#
# 1 49.2671 11.9273 36.1021 0.0000 0.0000 0.0000
# 2 11.9273 49.2671 36.1021 0.0000 0.0000 0.0000
# 3 36.1021 36.1021 191.3866 0.0000 0.0000 0.0000
# 4 0.0000 0.0000 0.0000 33.3819 0.0000 0.0000
# 5 0.0000 0.0000 0.0000 0.0000 33.3819 0.0000
# 6 0.0000 0.0000 0.0000 0.0000 0.0000 18.5839
#
#
#
# Elastic Compliance Matrix: (Units=1/GPa)
#
#
# Indices 1 2 3 4 5 6 
#
# 1 0.023900 -0.002881 -0.003965 0.000000 0.000000 0.000000
# 2 -0.002881 0.023900 -0.003965 0.000000 0.000000 0.000000
# 3 -0.003965 -0.003965 0.006721 0.000000 0.000000 0.000000
# 4 0.000000 0.000000 0.000000 0.029956 0.000000 0.000000
# 5 0.000000 0.000000 0.000000 0.000000 0.029956 0.000000
# 6 0.000000 0.000000 0.000000 0.000000 0.000000 0.053810
#
#
# Mechanical properties :
#
#
# Convention : Reuss Voigt Hill
#
# Bulk Modulus (GPa) = 30.39487 50.90929 40.65208
# Shear Modulus (GPa) = 24.89634 30.78883 27.84259
#
# Velocity S-wave (km/s) = 3.40745 3.78930 3.60344
# Velocity P-wave (km/s) = 5.44573 6.54883 6.02259
#
# Compressibility (1/GPa) = 0.03290029
#
# Stress axis : x y z
#
# Youngs Moduli (GPa) = 41.84029 41.84029 148.78923
#
# Poissons Ratio (x) = 0.12053 0.58996
# Poissons Ratio (y) = 0.12053 0.58996
# Poissons Ratio (z) = 0.16590 0.16590
#
# Static dielectric constant tensor:
#      x y z
#    x 1.790630 0.000000 0.000000 
#    y 0.000000 1.790630 0.000000 
#    z 0.000000 0.000000 1.906810 
# 
# From -- ./inp_files/5376.got.cif
#   From: 2010.05.17/outbox.cif.g08.bks.cpg/sg135_3_cif.got.tgz:5376.got - 2010.05.20 12:50:20.
