data_PCOD9568663
_publ_section_title
;
Structure prediction by ZEFSAII (Michael W. Deem and Ramdas Pophale) SiO2 
 PCOD9568663
Probable space group: P 42/M B C
;
_chemical_formula_sum "Si O2"
_cell_formula_units_Z 96
_cell_length_a 25.903811
_cell_length_b 25.903811
_cell_length_c 8.975097
_cell_angle_alpha 90.000000
_cell_angle_beta 90.000000
_cell_angle_gamma 90.000000
_cell_volume 6022.356721
_symmetry_space_group_name_H-M "P 42/M B C"
_symmetry_group_IT_number 135
_symmetry_cell_setting 'tetragonal'
loop_
_space_group_symop_operation_xyz
x,y,z
-y,x,1/2+z
-x,-y,z
y,-x,1/2+z
1/2+x,1/2-y,-z
1/2-x,1/2+y,-z
1/2+y,1/2+x,1/2-z
1/2-y,1/2-x,1/2-z
-x,-y,-z
y,-x,1/2-z
x,y,-z
-y,x,1/2-z
1/2-x,1/2+y,z
1/2+x,1/2-y,z
1/2-y,1/2-x,1/2+z
1/2+y,1/2+x,1/2+z
loop_
_atom_site_type_symbol
_atom_site_label
_atom_site_fract_x
_atom_site_fract_y
_atom_site_fract_z
Si Si1 0.057790 0.362549 0.679621
Si Si2 0.358492 0.439186 0.322524
Si Si3 0.060437 0.863746 0.176985
Si Si4 0.556199 0.864704 0.823018
Si Si5 0.750158 0.949495 0.675560
Si Si6 0.439976 0.747125 0.324263
O O1 0.094770 0.405231 0.750000
O O2 0.054921 0.367108 0.500000
O O3 0.078786 0.304733 0.715499
O O4 0.000455 0.367781 0.748707
O O5 0.356771 0.437428 0.500000
O O6 0.365845 0.499727 0.280140
O O7 0.404636 0.404511 0.261476
O O8 0.303514 0.419861 0.259011
O O9 0.078533 0.804404 0.203396
O O10 0.063736 0.873651 0.000000
O O11 0.594571 0.905430 0.750000
O O12 0.576007 0.805542 0.802161
O O13 0.551549 0.873835 0.000000
O O14 0.752057 0.966029 0.500000
O O15 0.750645 0.999788 0.778721
O O16 0.434004 0.739840 0.500000
#
# Coordination Sequence:
#
# PCOD9568663 Si02
#       6
#    16  16  16  16  16  16
#     4  10  20  33  50  73  98 126 159 194 236 283
#     4  10  20  32  48  71  97 126 159 194 235 281
#     4   9  18  32  48  68  95 125 158 195 236 281
#     4  10  19  32  50  72  99 128 159 196 237 282
#     4   8  16  31  49  68  92 124 159 195 234 277
#     4   9  17  30  49  70  92 121 158 196 232 276
#
# _framework density 15.940604
#
# number of rings (size 3 to 8) (size 9 to 14) (size 15 to 20)
#    0.000    2.667    0.000    3.000    0.000    6.667 
#    0.000    3.333    0.000    1.000    0.000    2.333 
#    0.000    0.000    0.000    0.000    0.000    0.000 
#
# Total GULP energy -534440.371029 kJ/mol
# GULP energy per Si atom -5567.087198 kJ/mol
# Density = 1.590432 g / cm^3
# Si number density = 15.940604 Si / 1000 Ang^3
#
#
#
# Elastic Constant Matrix: (Units=GPa)
#
#
# Indices 1 2 3 4 5 6 
#
# 1 101.1211 72.1168 49.6245 0.0000 0.0000 0.0000
# 2 72.1168 101.1176 49.6209 0.0000 0.0000 0.0000
# 3 49.6245 49.6209 56.9124 0.0000 0.0000 0.0000
# 4 0.0000 0.0000 0.0000 25.1392 0.0000 0.0000
# 5 0.0000 0.0000 0.0000 0.0000 25.1399 0.0000
# 6 0.0000 0.0000 0.0000 0.0000 0.0000 -3.2989
#
#
#
# Elastic Compliance Matrix: (Units=1/GPa)
#
#
# Indices 1 2 3 4 5 6 
#
# 1 0.023007 -0.011473 -0.010058 0.000000 0.000000 0.000000
# 2 -0.011473 0.023006 -0.010055 0.000000 0.000000 0.000000
# 3 -0.010058 -0.010055 0.035107 0.000000 0.000000 0.000000
# 4 0.000000 0.000000 0.000000 0.039778 0.000000 0.000000
# 5 0.000000 0.000000 0.000000 0.000000 0.039777 0.000000
# 6 0.000000 0.000000 0.000000 0.000000 0.000000 -0.303127
#
#
# Mechanical properties :
#
#
# Convention : Reuss Voigt Hill
#
# Bulk Modulus (GPa) = 55.71250 66.87508 61.29379
# Shear Modulus (GPa) = -68.21677 15.24862 -26.48407
#
# Velocity S-wave (km/s) = -6.54884 3.09623 -4.08048
# Velocity P-wave (km/s) = 4.70713 7.40446 4.04159
#
# Compressibility (1/GPa) = 0.01794929
#
# Stress axis : x y z
#
# Youngs Moduli (GPa) = 43.46449 43.46667 28.48403
#
# Poissons Ratio (x) = 0.49870 0.28649
# Poissons Ratio (y) = 0.49867 0.28640
# Poissons Ratio (z) = 0.43716 0.43705
#
# Static dielectric constant tensor:
#      x y z
#    x 1.533860 0.000000 0.000000 
#    y 0.000000 1.533860 0.000000 
#    z 0.000000 0.000000 1.530530 
# 
# From -- ./inp_files/1209.got.cif
#   From: 2010.05.17/outbox.cif.g08.bks.cpg/sg135_1_cif.got.tgz:1209.got - 2010.05.20 12:50:20.
