data_PCOD9568208
_publ_section_title
;
Structure prediction by ZEFSAII (Michael W. Deem and Ramdas Pophale) SiO2 
 PCOD9568208
Probable space group: P 42/N N M
;
_chemical_formula_sum "Si O2"
_cell_formula_units_Z 64
_cell_length_a 13.840429
_cell_length_b 13.840429
_cell_length_c 19.381584
_cell_angle_alpha 90.000000
_cell_angle_beta 90.000000
_cell_angle_gamma 90.000000
_cell_volume 3712.687291
_symmetry_space_group_name_H-M "P 42/N N M"
_symmetry_group_IT_number 134
_space_group.IT_coordinate_system_code '2'
_symmetry_cell_setting 'tetragonal'
loop_
_space_group_symop_operation_xyz
x,y,z
1/2-y,x,1/2+z
1/2-x,1/2-y,z
y,1/2-x,1/2+z
x,1/2-y,1/2-z
1/2-x,y,1/2-z
y,x,-z
1/2-y,1/2-x,-z
-x,-y,-z
1/2+y,-x,1/2-z
1/2+x,1/2+y,-z
-y,1/2+x,1/2-z
-x,1/2+y,1/2+z
1/2+x,-y,1/2+z
-y,-x,z
1/2+y,1/2+x,z
loop_
_atom_site_type_symbol
_atom_site_label
_atom_site_fract_x
_atom_site_fract_y
_atom_site_fract_z
Si Si1 0.606395 0.556259 0.078252
Si Si2 0.754608 0.406810 0.037242
Si Si3 0.365549 0.241985 0.670416
Si Si4 0.970454 0.627228 0.063982
O O1 0.515855 0.484146 0.087429
O O2 0.703592 0.490761 0.081385
O O3 0.606626 0.641827 0.133100
O O4 0.598135 0.598135 0.000000
O O5 0.670259 0.329742 0.022511
O O6 0.845097 0.345097 0.067136
O O7 0.794282 0.456040 0.968032
O O8 0.250000 0.250000 0.667120
O O9 0.395643 0.250000 0.750000
O O10 0.412423 0.327522 0.626121
O O11 0.032838 0.532838 0.082428
O O12 0.902172 0.597829 0.000000
#
# Coordination Sequence:
#
# PCOD9568208 Si02
#       4
#    16  16  16  16
#     4  10  19  33  57  85 109 145 192 231 272 331
#     4   9  17  30  51  82 112 136 178 234 274 312
#     4  11  24  37  52  79 112 145 181 226 286 343
#     4  10  20  34  54  78 103 139 181 221 270 327
#
# _framework density 17.238187
#
# number of rings (size 3 to 8) (size 9 to 14) (size 15 to 20)
#    0.000    2.000    2.500    1.500    0.000    1.000 
#    0.000    0.000    0.000    1.500    0.000    1.750 
#    0.000    8.000    0.000    0.000    0.000    0.000 
#
# Total GULP energy -356893.059184 kJ/mol
# GULP energy per Si atom -5576.454050 kJ/mol
# Density = 1.719895 g / cm^3
# Si number density = 17.238187 Si / 1000 Ang^3
#
#
#
# Elastic Constant Matrix: (Units=GPa)
#
#
# Indices 1 2 3 4 5 6 
#
# 1 87.4538 37.9052 70.0083 0.0000 0.0000 0.0000
# 2 37.9052 87.4529 70.0082 0.0000 0.0000 0.0000
# 3 70.0083 70.0082 136.8890 0.0000 0.0000 0.0000
# 4 0.0000 0.0000 0.0000 16.3820 0.0000 0.0000
# 5 0.0000 0.0000 0.0000 0.0000 16.3826 0.0000
# 6 0.0000 0.0000 0.0000 0.0000 0.0000 20.4324
#
#
#
# Elastic Compliance Matrix: (Units=1/GPa)
#
#
# Indices 1 2 3 4 5 6 
#
# 1 0.019393 -0.000789 -0.009515 0.000000 0.000000 0.000000
# 2 -0.000789 0.019394 -0.009515 0.000000 0.000000 0.000000
# 3 -0.009515 -0.009515 0.017037 0.000000 0.000000 0.000000
# 4 0.000000 0.000000 0.000000 0.061043 0.000000 0.000000
# 5 0.000000 0.000000 0.000000 0.000000 0.061040 0.000000
# 6 0.000000 0.000000 0.000000 0.000000 0.000000 0.048942
#
#
# Mechanical properties :
#
#
# Convention : Reuss Voigt Hill
#
# Bulk Modulus (GPa) = 61.77734 74.18212 67.97973
# Shear Modulus (GPa) = 18.39037 19.56434 18.97736
#
# Velocity S-wave (km/s) = 3.26979 3.37254 3.32157
# Velocity P-wave (km/s) = 7.08313 7.63495 7.36421
#
# Compressibility (1/GPa) = 0.01618717
#
# Stress axis : x y z
#
# Youngs Moduli (GPa) = 51.56446 51.56361 58.69484
#
# Poissons Ratio (x) = 0.04068 0.55846
# Poissons Ratio (y) = 0.04069 0.55847
# Poissons Ratio (z) = 0.49062 0.49062
#
# Static dielectric constant tensor:
#      x y z
#    x 1.618080 0.000000 0.000000 
#    y 0.000000 1.618080 0.000000 
#    z 0.000000 0.000000 1.535180 
# 
# From -- ./inp_files/6081.got.cif
#   From: 2010.05.17/outbox.cif.g08.bks.cpg/sg134_4_cif.got.tgz:6081.got - 2010.05.20 12:42:49.
