data_PCOD9568989
_publ_section_title
;
Structure prediction by ZEFSAII (Michael W. Deem and Ramdas Pophale) SiO2 
 PCOD9568989
Probable space group: P 42/M B C
;
_chemical_formula_sum "Si O2"
_cell_formula_units_Z 88
_cell_length_a 17.661039
_cell_length_b 17.661039
_cell_length_c 13.164680
_cell_angle_alpha 90.000000
_cell_angle_beta 90.000000
_cell_angle_gamma 90.000000
_cell_volume 4106.225599
_symmetry_space_group_name_H-M "P 42/M B C"
_symmetry_group_IT_number 135
_symmetry_cell_setting 'tetragonal'
loop_
_space_group_symop_operation_xyz
x,y,z
-y,x,1/2+z
-x,-y,z
y,-x,1/2+z
1/2+x,1/2-y,-z
1/2-x,1/2+y,-z
1/2+y,1/2+x,1/2-z
1/2-y,1/2-x,1/2-z
-x,-y,-z
y,-x,1/2-z
x,y,-z
-y,x,1/2-z
1/2-x,1/2+y,z
1/2+x,1/2-y,z
1/2-y,1/2-x,1/2+z
1/2+y,1/2+x,1/2+z
loop_
_atom_site_type_symbol
_atom_site_label
_atom_site_fract_x
_atom_site_fract_y
_atom_site_fract_z
Si Si1 0.187708 0.801992 0.786353
Si Si2 0.446823 0.240459 0.670528
Si Si3 0.882603 0.164026 0.000000
Si Si4 0.507006 0.647991 0.500000
Si Si5 0.164813 0.941355 0.500000
Si Si6 0.922779 0.720826 0.177291
Si Si7 0.066736 0.617002 0.500000
Si Si8 0.893792 0.559073 0.500000
O O1 0.224092 0.724092 0.750000
O O2 0.112716 0.799215 0.718802
O O3 0.161855 0.807722 0.901709
O O4 0.251542 0.864038 0.762511
O O5 0.491922 0.295329 0.595025
O O6 0.498459 0.211779 0.763023
O O7 0.418398 0.170682 0.598963
O O8 0.969827 0.185966 0.000000
O O9 0.891302 0.073337 0.000000
O O10 0.579377 0.591390 0.500000
O O11 0.208409 0.915132 0.600293
O O12 0.913489 0.649645 0.101931
O O13 0.106343 0.533893 0.500000
O O14 0.977829 0.593523 0.500000
#
# Coordination Sequence:
#
# PCOD9568989 Si02
#       8
#    16  16   8   8   8  16   8   8
#     4  12  28  43  71 103 138 181 231 288 350 421
#     4  11  24  43  69  98 140 181 229 285 351 404
#     4  12  25  44  66 102 138 180 237 284 344 414
#     4  11  22  41  68  97 136 183 228 278 340 416
#     4  11  22  41  68  97 136 183 228 278 340 416
#     4  11  24  43  69  98 140 181 229 285 351 404
#     4  10  26  46  71 102 137 182 240 290 341 417
#     4  10  26  46  71 102 137 182 240 290 341 417
#
# _framework density 21.430872000000001
#
# number of rings (size 3 to 8) (size 9 to 14) (size 15 to 20)
#    0.000    0.909    5.455    0.273    5.091    2.909 
#    0.000    1.818    0.000    0.000    0.000    0.000 
#    0.000    0.000    0.000    0.000    0.000    0.000 
#
# Total GULP energy -490661.607919 kJ/mol
# GULP energy per Si atom -5575.700090 kJ/mol
# Density = 2.138209 g / cm^3
# Si number density = 21.430872 Si / 1000 Ang^3
#
#
#
# Elastic Constant Matrix: (Units=GPa)
#
#
# Indices 1 2 3 4 5 6 
#
# 1 131.0405 -56.8915 34.1932 0.0000 0.0000 0.0000
# 2 -56.8915 131.0405 34.1932 0.0000 0.0000 0.0000
# 3 34.1932 34.1932 122.2252 0.0000 0.0000 0.0000
# 4 0.0000 0.0000 0.0000 38.2328 0.0000 0.0000
# 5 0.0000 0.0000 0.0000 0.0000 38.2328 0.0000
# 6 0.0000 0.0000 0.0000 0.0000 0.0000 32.9916
#
#
#
# Elastic Compliance Matrix: (Units=1/GPa)
#
#
# Indices 1 2 3 4 5 6 
#
# 1 0.011749 0.006427 -0.005085 0.000000 0.000000 0.000000
# 2 0.006427 0.011749 -0.005085 0.000000 0.000000 0.000000
# 3 -0.005085 -0.005085 0.011027 0.000000 0.000000 0.000000
# 4 0.000000 0.000000 0.000000 0.026156 0.000000 0.000000
# 5 0.000000 0.000000 0.000000 0.000000 0.026156 0.000000
# 6 0.000000 0.000000 0.000000 0.000000 0.000000 0.030311
#
#
# Mechanical properties :
#
#
# Convention : Reuss Voigt Hill
#
# Bulk Modulus (GPa) = 36.98322 45.25515 41.11918
# Shear Modulus (GPa) = 37.41307 46.74552 42.07930
#
# Velocity S-wave (km/s) = 4.18276 4.67542 4.43594
# Velocity P-wave (km/s) = 6.37352 7.09287 6.74279
#
# Compressibility (1/GPa) = 0.02703929
#
# Stress axis : x y z
#
# Youngs Moduli (GPa) = 85.11693 85.11693 90.68939
#
# Poissons Ratio (x) = -0.54709 0.46114
# Poissons Ratio (y) = -0.54709 0.46114
# Poissons Ratio (z) = 0.43281 0.43281
#
# Static dielectric constant tensor:
#      x y z
#    x 1.772930 0.000000 0.000000 
#    y 0.000000 1.772930 0.000000 
#    z 0.000000 0.000000 1.747980 
# 
# From -- ./inp_files/3562.got.cif
#   From: 2010.05.17/outbox.cif.g08.bks.cpg/sg135_2_cif.got.tgz:3562.got - 2010.05.20 12:50:20.
