data_PCOD9568235
_publ_section_title
;
Structure prediction by ZEFSAII (Michael W. Deem and Ramdas Pophale) SiO2 
 PCOD9568235
Probable space group: P 42/N N M
;
_chemical_formula_sum "Si O2"
_cell_formula_units_Z 96
_cell_length_a 23.910835
_cell_length_b 23.910835
_cell_length_c 9.079622
_cell_angle_alpha 90.000000
_cell_angle_beta 90.000000
_cell_angle_gamma 90.000000
_cell_volume 5191.074403
_symmetry_space_group_name_H-M "P 42/N N M"
_symmetry_group_IT_number 134
_space_group.IT_coordinate_system_code '2'
_symmetry_cell_setting 'tetragonal'
loop_
_space_group_symop_operation_xyz
x,y,z
1/2-y,x,1/2+z
1/2-x,1/2-y,z
y,1/2-x,1/2+z
x,1/2-y,1/2-z
1/2-x,y,1/2-z
y,x,-z
1/2-y,1/2-x,-z
-x,-y,-z
1/2+y,-x,1/2-z
1/2+x,1/2+y,-z
-y,1/2+x,1/2-z
-x,1/2+y,1/2+z
1/2+x,-y,1/2+z
-y,-x,z
1/2+y,1/2+x,z
loop_
_atom_site_type_symbol
_atom_site_label
_atom_site_fract_x
_atom_site_fract_y
_atom_site_fract_z
Si Si1 0.566030 0.974529 0.836855
Si Si2 0.302620 0.010750 0.183198
Si Si3 0.668069 0.423003 0.921447
Si Si4 0.103105 0.989227 0.831284
Si Si5 0.852821 0.266943 0.081944
Si Si6 0.531114 0.200662 0.131634
O O1 0.632850 0.970532 0.823618
O O2 0.539841 0.939853 0.698182
O O3 0.535985 0.035985 0.828074
O O4 0.548002 0.951999 0.000000
O O5 0.250000 0.044685 0.250000
O O6 0.307469 0.954696 0.281945
O O7 0.283901 0.998049 0.018203
O O8 0.618035 0.381966 0.879069
O O9 0.640481 0.471006 0.027559
O O10 0.714379 0.383081 0.001607
O O11 0.065165 0.934836 0.805893
O O12 0.147051 0.996288 0.701408
O O13 0.839056 0.250000 0.250000
O O14 0.798902 0.298902 0.016934
O O15 0.903994 0.310307 0.096738
O O16 0.529697 0.250000 0.250000
#
# Coordination Sequence:
#
# PCOD9568235 Si02
#       6
#    16  16  16  16  16  16
#     4  10  21  36  61  91 115 154 210 257 300 368
#     4  12  23  39  56  83 118 154 187 244 310 382
#     4  11  23  37  53  80 116 155 198 253 315 360
#     4  10  19  36  59  83 113 150 199 255 307 359
#     4  11  21  34  54  78 105 154 213 261 291 331
#     4  11  20  36  58  79 106 153 202 241 294 361
#
# _framework density 18.493282000000001
#
# number of rings (size 3 to 8) (size 9 to 14) (size 15 to 20)
#    0.000    1.167    6.667    1.500    0.000    3.833 
#    0.000    2.500    0.000    0.000    0.000    0.000 
#    0.000    0.667    1.333    0.000    0.000    0.000 
#
# Total GULP energy -534583.885566 kJ/mol
# GULP energy per Si atom -5568.582141 kJ/mol
# Density = 1.845119 g / cm^3
# Si number density = 18.493282 Si / 1000 Ang^3
#
#
#
# Elastic Constant Matrix: (Units=GPa)
#
#
# Indices 1 2 3 4 5 6 
#
# 1 77.0792 31.3637 21.9802 0.0000 0.0000 0.0000
# 2 31.3637 77.0806 21.9806 0.0000 0.0000 0.0000
# 3 21.9802 21.9806 80.7330 0.0000 0.0000 0.0000
# 4 0.0000 0.0000 0.0000 14.3306 0.0000 0.0000
# 5 0.0000 0.0000 0.0000 0.0000 14.3307 0.0000
# 6 0.0000 0.0000 0.0000 0.0000 0.0000 20.7187
#
#
#
# Elastic Compliance Matrix: (Units=1/GPa)
#
#
# Indices 1 2 3 4 5 6 
#
# 1 0.016120 -0.005754 -0.002822 0.000000 0.000000 0.000000
# 2 -0.005754 0.016120 -0.002822 0.000000 0.000000 0.000000
# 3 -0.002822 -0.002822 0.013923 0.000000 0.000000 0.000000
# 4 0.000000 0.000000 0.000000 0.069781 0.000000 0.000000
# 5 0.000000 0.000000 0.000000 0.000000 0.069780 0.000000
# 6 0.000000 0.000000 0.000000 0.000000 0.000000 0.048265
#
#
# Mechanical properties :
#
#
# Convention : Reuss Voigt Hill
#
# Bulk Modulus (GPa) = 42.79788 42.83797 42.81793
# Shear Modulus (GPa) = 18.89823 20.51388 19.70606
#
# Velocity S-wave (km/s) = 3.20018 3.33417 3.26786
# Velocity P-wave (km/s) = 6.07021 6.16738 6.11899
#
# Compressibility (1/GPa) = 0.02336564
#
# Stress axis : x y z
#
# Youngs Moduli (GPa) = 62.03529 62.03622 71.82259
#
# Poissons Ratio (x) = 0.35698 0.20269
# Poissons Ratio (y) = 0.35697 0.20269
# Poissons Ratio (z) = 0.17507 0.17507
#
# Static dielectric constant tensor:
#      x y z
#    x 1.686090 0.000000 0.000000 
#    y 0.000000 1.686090 0.000000 
#    z 0.000000 0.000000 1.696920 
# 
# From -- ./inp_files/3203.got.cif
#   From: 2010.05.17/outbox.cif.g08.bks.cpg/sg134_2_cif.got.tgz:3203.got - 2010.05.20 12:42:49.
