data_PCOD9568655
_publ_section_title
;
Structure prediction by ZEFSAII (Michael W. Deem and Ramdas Pophale) SiO2 
 PCOD9568655
Probable space group: P 42/M B C
;
_chemical_formula_sum "Si O2"
_cell_formula_units_Z 96
_cell_length_a 25.766438
_cell_length_b 25.766438
_cell_length_c 8.965405
_cell_angle_alpha 90.000000
_cell_angle_beta 90.000000
_cell_angle_gamma 90.000000
_cell_volume 5952.216002
_symmetry_space_group_name_H-M "P 42/M B C"
_symmetry_group_IT_number 135
_symmetry_cell_setting 'tetragonal'
loop_
_space_group_symop_operation_xyz
x,y,z
-y,x,1/2+z
-x,-y,z
y,-x,1/2+z
1/2+x,1/2-y,-z
1/2-x,1/2+y,-z
1/2+y,1/2+x,1/2-z
1/2-y,1/2-x,1/2-z
-x,-y,-z
y,-x,1/2-z
x,y,-z
-y,x,1/2-z
1/2-x,1/2+y,z
1/2+x,1/2-y,z
1/2-y,1/2-x,1/2+z
1/2+y,1/2+x,1/2+z
loop_
_atom_site_type_symbol
_atom_site_label
_atom_site_fract_x
_atom_site_fract_y
_atom_site_fract_z
Si Si1 0.807275 0.112527 0.820053
Si Si2 0.998331 0.187339 0.670732
Si Si3 0.507727 0.186976 0.670937
Si Si4 0.891795 0.311747 0.679623
Si Si5 0.193675 0.386057 0.322691
Si Si6 0.106842 0.801777 0.177478
O O1 0.752088 0.119920 0.740720
O O2 0.847369 0.158148 0.785636
O O3 0.829867 0.055619 0.779260
O O4 0.798761 0.111257 0.000000
O O5 0.989024 0.170671 0.500000
O O6 0.003133 0.250207 0.669578
O O7 0.948692 0.175567 0.770709
O O8 0.517793 0.170575 0.500000
O O9 0.450363 0.169404 0.718650
O O10 0.556697 0.174412 0.772756
O O11 0.849237 0.349237 0.750000
O O12 0.888392 0.310713 0.500000
O O13 0.885460 0.253365 0.741434
O O14 0.156884 0.343117 0.250000
O O15 0.193846 0.381548 0.500000
O O16 0.106331 0.793376 0.000000
#
# Coordination Sequence:
#
# PCOD9568655 Si02
#       6
#    16  16  16  16  16  16
#     4   9  19  34  49  68  97 129 158 194 239 283
#     4   8  15  30  49  67  91 123 158 196 237 279
#     4   8  16  32  50  68  93 124 158 195 234 276
#     4  10  20  33  50  72  99 129 158 193 236 280
#     4  11  21  32  50  73  97 126 159 195 235 281
#     4  10  19  31  49  72  97 125 159 197 237 283
#
# _framework density 16.128446
#
# number of rings (size 3 to 8) (size 9 to 14) (size 15 to 20)
#    0.000    2.667    0.000    4.500    0.000    8.667 
#    0.000    0.000    0.000    1.000    0.000    7.000 
#    0.000    0.000    0.000    0.000    0.000    0.000 
#
# Total GULP energy -534858.979759 kJ/mol
# GULP energy per Si atom -5571.447706 kJ/mol
# Density = 1.609174 g / cm^3
# Si number density = 16.128446 Si / 1000 Ang^3
#
#
#
# Elastic Constant Matrix: (Units=GPa)
#
#
# Indices 1 2 3 4 5 6 
#
# 1 101.5581 69.0567 59.4896 0.0000 0.0000 0.0000
# 2 69.0567 101.5615 59.4897 0.0000 0.0000 0.0000
# 3 59.4896 59.4897 78.4963 0.0000 0.0000 0.0000
# 4 0.0000 0.0000 0.0000 18.6324 0.0000 0.0000
# 5 0.0000 0.0000 0.0000 0.0000 18.6313 0.0000
# 6 0.0000 0.0000 0.0000 0.0000 0.0000 -3.6718
#
#
#
# Elastic Compliance Matrix: (Units=1/GPa)
#
#
# Indices 1 2 3 4 5 6 
#
# 1 0.021599 -0.009168 -0.009421 0.000000 0.000000 0.000000
# 2 -0.009168 0.021598 -0.009420 0.000000 0.000000 0.000000
# 3 -0.009421 -0.009420 0.027019 0.000000 0.000000 0.000000
# 4 0.000000 0.000000 0.000000 0.053670 0.000000 0.000000
# 5 0.000000 0.000000 0.000000 0.000000 0.053673 0.000000
# 6 0.000000 0.000000 0.000000 0.000000 0.000000 -0.272345
#
#
# Mechanical properties :
#
#
# Convention : Reuss Voigt Hill
#
# Bulk Modulus (GPa) = 70.43719 73.07645 71.75682
# Shear Modulus (GPa) = -146.90837 12.95704 -66.97566
#
# Velocity S-wave (km/s) = -9.55428 2.83745 -6.45109
# Velocity P-wave (km/s) = 8.82864 7.49281 3.30172
#
# Compressibility (1/GPa) = 0.01419705
#
# Stress axis : x y z
#
# Youngs Moduli (GPa) = 46.29830 46.30089 37.01125
#
# Poissons Ratio (x) = 0.42448 0.34869
# Poissons Ratio (y) = 0.42445 0.34866
# Poissons Ratio (z) = 0.43619 0.43617
#
# Static dielectric constant tensor:
#      x y z
#    x 1.540280 0.000000 0.000000 
#    y 0.000000 1.540280 0.000000 
#    z 0.000000 0.000000 1.540510 
# 
# From -- ./inp_files/1384.got.cif
#   From: 2010.05.17/outbox.cif.g08.bks.cpg/sg135_1_cif.got.tgz:1384.got - 2010.05.20 12:50:20.
