data_PCOD9568087
_publ_section_title
;
Structure prediction by ZEFSAII (Michael W. Deem and Ramdas Pophale) SiO2 
 PCOD9568087
Probable space group: P 42/N N M
;
_chemical_formula_sum "Si O2"
_cell_formula_units_Z 112
_cell_length_a 14.618354
_cell_length_b 14.618354
_cell_length_c 29.683279
_cell_angle_alpha 90.000000
_cell_angle_beta 90.000000
_cell_angle_gamma 90.000000
_cell_volume 6343.206113
_symmetry_space_group_name_H-M "P 42/N N M"
_symmetry_group_IT_number 134
_space_group.IT_coordinate_system_code '2'
_symmetry_cell_setting 'tetragonal'
loop_
_space_group_symop_operation_xyz
x,y,z
1/2-y,x,1/2+z
1/2-x,1/2-y,z
y,1/2-x,1/2+z
x,1/2-y,1/2-z
1/2-x,y,1/2-z
y,x,-z
1/2-y,1/2-x,-z
-x,-y,-z
1/2+y,-x,1/2-z
1/2+x,1/2+y,-z
-y,1/2+x,1/2-z
-x,1/2+y,1/2+z
1/2+x,-y,1/2+z
-y,-x,z
1/2+y,1/2+x,z
loop_
_atom_site_type_symbol
_atom_site_label
_atom_site_fract_x
_atom_site_fract_y
_atom_site_fract_z
Si Si1 0.869604 0.520907 0.536367
Si Si2 0.257771 0.897568 0.168273
Si Si3 0.150198 0.133421 0.884146
Si Si4 0.343567 0.147171 0.771693
Si Si5 0.352125 0.348574 0.379962
Si Si6 0.884492 0.967388 0.799800
Si Si7 0.325141 0.527328 0.427678
O O1 0.904537 0.595464 0.500000
O O2 0.897427 0.569652 0.583177
O O3 0.760793 0.499290 0.540229
O O4 0.928794 0.428794 0.529789
O O5 0.180973 0.819028 0.166748
O O6 0.349032 0.849032 0.187223
O O7 0.278994 0.930785 0.117772
O O8 0.212589 0.980947 0.194704
O O9 0.154143 0.243190 0.888967
O O10 0.253019 0.101908 0.894476
O O11 0.117939 0.114345 0.833670
O O12 0.346642 0.250000 0.750000
O O13 0.250000 0.108557 0.750000
O O14 0.349129 0.142415 0.825451
O O15 0.430673 0.099471 0.749795
O O16 0.378886 0.438291 0.408205
O O17 0.960945 0.039056 0.813656
O O18 0.396597 0.603404 0.445157
#
# Coordination Sequence:
#
# PCOD9568087 Si02
#       7
#    16  16  16  16  16  16  16
#     4  10  20  34  55  82 110 135 168 218 268 318
#     4   9  16  27  44  67 102 144 175 200 239 299
#     4  10  17  32  49  72  97 132 173 214 259 312
#     4  11  17  29  45  67  97 136 180 225 266 299
#     4  10  18  30  50  69  99 139 178 217 264 306
#     4  11  19  28  46  71 100 137 179 220 259 305
#     4  10  19  32  51  77 108 143 176 209 262 332
#
# _framework density 17.656686000000001
#
# number of rings (size 3 to 8) (size 9 to 14) (size 15 to 20)
#    0.000    1.857    5.714    1.714    0.000    1.429 
#    0.000    6.429    0.000    1.714    0.000    6.000 
#    0.000    3.143    0.000    0.000    0.000    0.000 
#
# Total GULP energy -623527.033304 kJ/mol
# GULP energy per Si atom -5567.205654 kJ/mol
# Density = 1.761650 g / cm^3
# Si number density = 17.656686 Si / 1000 Ang^3
#
#
#
# Elastic Constant Matrix: (Units=GPa)
#
#
# Indices 1 2 3 4 5 6 
#
# 1 79.2756 35.7629 16.8282 0.0000 0.0000 0.0000
# 2 35.7629 79.2754 16.8283 0.0000 0.0000 0.0000
# 3 16.8282 16.8283 28.0174 0.0000 0.0000 0.0000
# 4 0.0000 0.0000 0.0000 18.2060 0.0000 0.0000
# 5 0.0000 0.0000 0.0000 0.0000 18.2060 0.0000
# 6 0.0000 0.0000 0.0000 0.0000 0.0000 7.2208
#
#
#
# Elastic Compliance Matrix: (Units=1/GPa)
#
#
# Indices 1 2 3 4 5 6 
#
# 1 0.016764 -0.006218 -0.006334 0.000000 0.000000 0.000000
# 2 -0.006218 0.016764 -0.006334 0.000000 0.000000 0.000000
# 3 -0.006334 -0.006334 0.043301 0.000000 0.000000 0.000000
# 4 0.000000 0.000000 0.000000 0.054927 0.000000 0.000000
# 5 0.000000 0.000000 0.000000 0.000000 0.054927 0.000000
# 6 0.000000 0.000000 0.000000 0.000000 0.000000 0.138489
#
#
# Mechanical properties :
#
#
# Convention : Reuss Voigt Hill
#
# Bulk Modulus (GPa) = 25.60419 36.15637 30.88028
# Shear Modulus (GPa) = 13.29914 16.53647 14.91780
#
# Velocity S-wave (km/s) = 2.74744 3.06364 2.90984
# Velocity P-wave (km/s) = 4.95955 5.74773 5.36813
#
# Compressibility (1/GPa) = 0.03905611
#
# Stress axis : x y z
#
# Youngs Moduli (GPa) = 59.65203 59.65175 23.09395
#
# Poissons Ratio (x) = 0.37091 0.14628
# Poissons Ratio (y) = 0.37091 0.14629
# Poissons Ratio (z) = 0.37785 0.37786
#
# Static dielectric constant tensor:
#      x y z
#    x 1.655480 0.000000 0.000000 
#    y 0.000000 1.655480 0.000000 
#    z 0.000000 0.000000 1.642180 
# 
# From -- ./inp_files/10858.got.cif
#   From: 2010.05.17/outbox.cif.g08.bks.cpg/sg134_6_cif.got.tgz:10858.got - 2010.05.20 12:42:49.
