data_PCOD9568035
_publ_section_title
;
Structure prediction by ZEFSAII (Michael W. Deem and Ramdas Pophale) SiO2 
 PCOD9568035
Probable space group: P 42/N B C
;
_chemical_formula_sum "Si O2"
_cell_formula_units_Z 64
_cell_length_a 11.724837
_cell_length_b 11.724837
_cell_length_c 20.849794
_cell_angle_alpha 90.000000
_cell_angle_beta 90.000000
_cell_angle_gamma 90.000000
_cell_volume 2866.258767
_symmetry_space_group_name_H-M "P 42/N B C"
_symmetry_group_IT_number 133
_space_group.IT_coordinate_system_code '2'
_symmetry_cell_setting 'tetragonal'
loop_
_space_group_symop_operation_xyz
x,y,z
1/2-y,x,1/2+z
1/2-x,1/2-y,z
y,1/2-x,1/2+z
x,1/2-y,-z
1/2-x,y,-z
y,x,1/2-z
1/2-y,1/2-x,1/2-z
-x,-y,-z
1/2+y,-x,1/2-z
1/2+x,1/2+y,-z
-y,1/2+x,1/2-z
-x,1/2+y,z
1/2+x,-y,z
-y,-x,1/2+z
1/2+y,1/2+x,1/2+z
loop_
_atom_site_type_symbol
_atom_site_label
_atom_site_fract_x
_atom_site_fract_y
_atom_site_fract_z
Si Si1 0.641941 0.826708 0.589072
Si Si2 0.949609 0.316722 0.169128
Si Si3 0.750000 0.250000 0.903432
Si Si4 0.033445 0.193330 0.292192
Si Si5 0.250000 0.547341 0.000000
O O1 0.750000 0.750000 0.568276
O O2 0.590864 0.758492 0.649456
O O3 0.542347 0.834530 0.535258
O O4 0.678282 0.947538 0.618550
O O5 0.857747 0.226990 0.141505
O O6 0.888729 0.437850 0.178409
O O7 0.984016 0.280375 0.240235
O O8 0.715737 0.360141 0.945684
O O9 0.121879 0.121879 0.250000
#
# Coordination Sequence:
#
# PCOD9568035 Si02
#       5
#    16  16   8  16   8
#     4  12  26  49  72 109 147 196 244 303 367 439
#     4  12  26  45  79 106 151 188 243 309 378 435
#     4  11  26  53  70 108 141 193 250 300 358 441
#     4  12  24  44  73 112 146 188 243 306 376 447
#     4  11  27  52  70 100 149 191 256 290 350 435
#
# _framework density 22.328758000000001
#
# number of rings (size 3 to 8) (size 9 to 14) (size 15 to 20)
#    0.000    0.250    5.000    4.125    3.500    1.000 
#    9.000    0.000    0.000    0.000    0.000    0.000 
#    0.000    0.000    0.000    0.000    0.000    0.000 
#
# Total GULP energy -357729.481524 kJ/mol
# GULP energy per Si atom -5589.523149 kJ/mol
# Density = 2.227794 g / cm^3
# Si number density = 22.328758 Si / 1000 Ang^3
#
#
#
# Elastic Constant Matrix: (Units=GPa)
#
#
# Indices 1 2 3 4 5 6 
#
# 1 103.1145 40.2371 42.0247 0.0000 0.0000 0.0000
# 2 40.2371 103.1145 42.0247 0.0000 0.0000 0.0000
# 3 42.0247 42.0247 114.0186 0.0000 0.0000 0.0000
# 4 0.0000 0.0000 0.0000 -7.1622 0.0000 0.0000
# 5 0.0000 0.0000 0.0000 0.0000 -7.1622 0.0000
# 6 0.0000 0.0000 0.0000 0.0000 0.0000 34.4636
#
#
#
# Elastic Compliance Matrix: (Units=1/GPa)
#
#
# Indices 1 2 3 4 5 6 
#
# 1 0.012401 -0.003503 -0.003280 0.000000 0.000000 0.000000
# 2 -0.003503 0.012401 -0.003280 0.000000 0.000000 0.000000
# 3 -0.003280 -0.003280 0.011188 0.000000 0.000000 0.000000
# 4 0.000000 0.000000 0.000000 -0.139622 0.000000 0.000000
# 5 0.000000 0.000000 0.000000 0.000000 -0.139622 0.000000
# 6 0.000000 0.000000 0.000000 0.000000 0.000000 0.029016
#
#
# Mechanical properties :
#
#
# Convention : Reuss Voigt Hill
#
# Bulk Modulus (GPa) = 63.02620 63.20228 63.11424
# Shear Modulus (GPa) = -26.47984 17.09192 -4.69396
#
# Velocity S-wave (km/s) = -3.44744 2.76971 -1.45147
# Velocity P-wave (km/s) = 3.52723 6.21250 5.05156
#
# Compressibility (1/GPa) = 0.01586642
#
# Stress axis : x y z
#
# Youngs Moduli (GPa) = 80.63574 80.63574 89.37887
#
# Poissons Ratio (x) = 0.28243 0.29316
# Poissons Ratio (y) = 0.28243 0.29316
# Poissons Ratio (z) = 0.26448 0.26448
#
# Static dielectric constant tensor:
#      x y z
#    x 1.825410 0.000000 0.000000 
#    y 0.000000 1.825410 0.000000 
#    z 0.000000 0.000000 1.819400 
# 
# From -- ./inp_files/7024.got.cif
#   From: 2010.05.17/outbox.cif.g08.bks.cpg/sg133_4_cif.got.tgz:7024.got - 2010.05.20 12:37:36.
