data_PCOD9568961
_publ_section_title
;
Structure prediction by ZEFSAII (Michael W. Deem and Ramdas Pophale) SiO2 
 PCOD9568961
Probable space group: P 42/M B C
;
_chemical_formula_sum "Si O2"
_cell_formula_units_Z 72
_cell_length_a 11.426085
_cell_length_b 11.426085
_cell_length_c 28.682071
_cell_angle_alpha 90.000000
_cell_angle_beta 90.000000
_cell_angle_gamma 90.000000
_cell_volume 3744.599781
_symmetry_space_group_name_H-M "P 42/M B C"
_symmetry_group_IT_number 135
_symmetry_cell_setting 'tetragonal'
loop_
_space_group_symop_operation_xyz
x,y,z
-y,x,1/2+z
-x,-y,z
y,-x,1/2+z
1/2+x,1/2-y,-z
1/2-x,1/2+y,-z
1/2+y,1/2+x,1/2-z
1/2-y,1/2-x,1/2-z
-x,-y,-z
y,-x,1/2-z
x,y,-z
-y,x,1/2-z
1/2-x,1/2+y,z
1/2+x,1/2-y,z
1/2-y,1/2-x,1/2+z
1/2+y,1/2+x,1/2+z
loop_
_atom_site_type_symbol
_atom_site_label
_atom_site_fract_x
_atom_site_fract_y
_atom_site_fract_z
Si Si1 0.076141 0.116109 0.948140
Si Si2 0.976988 0.336467 0.554578
Si Si3 0.685288 0.045174 0.713715
Si Si4 0.718233 0.781768 0.250000
Si Si5 0.041478 0.337918 0.894331
O O1 0.209668 0.078493 0.942570
O O2 0.040209 0.203322 0.907842
O O3 0.060693 0.171137 0.000000
O O4 0.000000 0.000000 0.947139
O O5 0.988906 0.365567 0.500000
O O6 0.896726 0.429246 0.581534
O O7 0.101531 0.348093 0.580149
O O8 0.585997 0.085997 0.750000
O O9 0.772393 0.159476 0.719878
O O10 0.643606 0.044593 0.660512
O O11 0.723602 0.911383 0.725968
#
# Coordination Sequence:
#
# PCOD9568961 Si02
#       5
#    16  16  16   8  16
#     4  10  23  40  61  94 135 172 211 266 324 387
#     4  10  23  39  64  95 129 170 214 264 319 386
#     4  10  26  43  72  93 131 171 221 278 343 395
#     4  10  25  47  66  98 132 170 216 283 339 394
#     4  11  23  40  66  93 122 171 218 263 321 399
#
# _framework density 19.227689000000002
#
# number of rings (size 3 to 8) (size 9 to 14) (size 15 to 20)
#    0.667    1.111    0.000    3.000   12.444    0.444 
#    4.000    0.000    0.000    0.000    0.000    0.000 
#    0.000    0.000    0.000    0.000    0.000    0.000 
#
# Total GULP energy -401011.849060 kJ/mol
# GULP energy per Si atom -5569.609015 kJ/mol
# Density = 1.918393 g / cm^3
# Si number density = 19.227689 Si / 1000 Ang^3
#
#
#
# Elastic Constant Matrix: (Units=GPa)
#
#
# Indices 1 2 3 4 5 6 
#
# 1 86.6328 31.5621 50.6738 0.0000 0.0000 0.0000
# 2 31.5621 86.6329 50.6738 0.0000 0.0000 0.0000
# 3 50.6738 50.6738 172.9689 0.0000 0.0000 0.0000
# 4 0.0000 0.0000 0.0000 19.9216 0.0000 0.0000
# 5 0.0000 0.0000 0.0000 0.0000 19.9216 0.0000
# 6 0.0000 0.0000 0.0000 0.0000 0.0000 21.0536
#
#
#
# Elastic Compliance Matrix: (Units=1/GPa)
#
#
# Indices 1 2 3 4 5 6 
#
# 1 0.014729 -0.003430 -0.003310 0.000000 0.000000 0.000000
# 2 -0.003430 0.014729 -0.003310 0.000000 0.000000 0.000000
# 3 -0.003310 -0.003310 0.007721 0.000000 0.000000 0.000000
# 4 0.000000 0.000000 0.000000 0.050197 0.000000 0.000000
# 5 0.000000 0.000000 0.000000 0.000000 0.050197 0.000000
# 6 0.000000 0.000000 0.000000 0.000000 0.000000 0.047498
#
#
# Mechanical properties :
#
#
# Convention : Reuss Voigt Hill
#
# Bulk Modulus (GPa) = 58.55466 68.00601 63.28034
# Shear Modulus (GPa) = 23.71210 26.40101 25.05655
#
# Velocity S-wave (km/s) = 3.51554 3.70952 3.61383
# Velocity P-wave (km/s) = 6.85552 7.33437 7.09898
#
# Compressibility (1/GPa) = 0.01707806
#
# Stress axis : x y z
#
# Youngs Moduli (GPa) = 67.89449 67.89465 129.51807
#
# Poissons Ratio (x) = 0.23286 0.42873
# Poissons Ratio (y) = 0.23286 0.42873
# Poissons Ratio (z) = 0.22474 0.22474
#
# Static dielectric constant tensor:
#      x y z
#    x 1.660900 0.000000 0.000000 
#    y 0.000000 1.660890 0.000000 
#    z 0.000000 0.000000 1.648270 
# 
# From -- ./inp_files/6392.got.cif
#   From: 2010.05.17/outbox.cif.g08.bks.cpg/sg135_4_cif.got.tgz:6392.got - 2010.05.20 12:50:20.
