data_PCOD9568738
_publ_section_title
;
Structure prediction by ZEFSAII (Michael W. Deem and Ramdas Pophale) SiO2 
 PCOD9568738
Probable space group: P 42/M B C
;
_chemical_formula_sum "Si O2"
_cell_formula_units_Z 80
_cell_length_a 16.201905
_cell_length_b 16.201905
_cell_length_c 14.083015
_cell_angle_alpha 90.000000
_cell_angle_beta 90.000000
_cell_angle_gamma 90.000000
_cell_volume 3696.815740
_symmetry_space_group_name_H-M "P 42/M B C"
_symmetry_group_IT_number 135
_symmetry_cell_setting 'tetragonal'
loop_
_space_group_symop_operation_xyz
x,y,z
-y,x,1/2+z
-x,-y,z
y,-x,1/2+z
1/2+x,1/2-y,-z
1/2-x,1/2+y,-z
1/2+y,1/2+x,1/2-z
1/2-y,1/2-x,1/2-z
-x,-y,-z
y,-x,1/2-z
x,y,-z
-y,x,1/2-z
1/2-x,1/2+y,z
1/2+x,1/2-y,z
1/2-y,1/2-x,1/2+z
1/2+y,1/2+x,1/2+z
loop_
_atom_site_type_symbol
_atom_site_label
_atom_site_fract_x
_atom_site_fract_y
_atom_site_fract_z
Si Si1 0.954986 0.089054 0.889614
Si Si2 0.067003 0.190185 0.240779
Si Si3 0.502859 0.207076 0.397770
Si Si4 0.890429 0.678289 0.107181
Si Si5 0.950311 0.420137 0.861073
O O1 0.878737 0.097723 0.815699
O O2 0.024015 0.149771 0.849622
O O3 0.933179 0.103195 0.000000
O O4 0.000000 0.000000 0.881730
O O5 0.999464 0.236175 0.306561
O O6 0.126930 0.256987 0.191035
O O7 0.505915 0.250597 0.500000
O O8 0.590957 0.158630 0.385133
O O9 0.429156 0.141197 0.400260
O O10 0.987764 0.654070 0.118643
O O11 0.875624 0.708852 0.000000
O O12 0.935884 0.435884 0.750000
O O13 0.000000 0.500000 0.897432
#
# Coordination Sequence:
#
# PCOD9568738 Si02
#       5
#    16  16  16  16  16
#     4  11  24  44  66  87 106 138 197 258 304 346
#     4  12  20  39  61  88 110 149 187 251 297 350
#     4  10  20  33  57  91 125 160 196 235 286 347
#     4  10  20  33  57  91 124 160 198 237 285 347
#     4   9  15  29  51  80 120 160 198 235 270 326
#
# _framework density 21.640246000000001
#
# number of rings (size 3 to 8) (size 9 to 14) (size 15 to 20)
#    0.000    1.600    4.000    2.400    0.000    2.400 
#    0.000    0.000    8.800    0.000    0.000    0.000 
#    0.000    0.000    0.000    0.000    0.000    0.000 
#
# Total GULP energy -445760.440408 kJ/mol
# GULP energy per Si atom -5572.005505 kJ/mol
# Density = 2.159099 g / cm^3
# Si number density = 21.640246 Si / 1000 Ang^3
#
#
#
# Elastic Constant Matrix: (Units=GPa)
#
#
# Indices 1 2 3 4 5 6 
#
# 1 47.8280 -6.5185 24.9307 0.0000 0.0000 0.0000
# 2 -6.5185 47.8280 24.9307 0.0000 0.0000 0.0000
# 3 24.9307 24.9307 159.1387 0.0000 0.0000 0.0000
# 4 0.0000 0.0000 0.0000 11.0167 0.0000 0.0000
# 5 0.0000 0.0000 0.0000 0.0000 11.0167 0.0000
# 6 0.0000 0.0000 0.0000 0.0000 0.0000 14.2703
#
#
#
# Elastic Compliance Matrix: (Units=1/GPa)
#
#
# Indices 1 2 3 4 5 6 
#
# 1 0.024126 0.005726 -0.004677 0.000000 0.000000 0.000000
# 2 0.005726 0.024126 -0.004677 0.000000 0.000000 0.000000
# 3 -0.004677 -0.004677 0.007749 0.000000 0.000000 0.000000
# 4 0.000000 0.000000 0.000000 0.090771 0.000000 0.000000
# 5 0.000000 0.000000 0.000000 0.000000 0.090771 0.000000
# 6 0.000000 0.000000 0.000000 0.000000 0.000000 0.070076
#
#
# Mechanical properties :
#
#
# Convention : Reuss Voigt Hill
#
# Bulk Modulus (GPa) = 20.51401 37.94227 29.22814
# Shear Modulus (GPa) = 15.10011 21.35754 18.22883
#
# Velocity S-wave (km/s) = 2.64442 3.14496 2.90549
# Velocity P-wave (km/s) = 4.33867 5.54608 4.97911
#
# Compressibility (1/GPa) = 0.04874717
#
# Stress axis : x y z
#
# Youngs Moduli (GPa) = 41.44835 41.44835 129.04680
#
# Poissons Ratio (x) = -0.23733 0.60351
# Poissons Ratio (y) = -0.23733 0.60351
# Poissons Ratio (z) = 0.19384 0.19384
#
# Static dielectric constant tensor:
#      x y z
#    x 1.851170 0.000000 0.000000 
#    y 0.000000 1.851170 0.000000 
#    z 0.000000 0.000000 1.837800 
# 
# From -- ./inp_files/3394.got.cif
#   From: 2010.05.17/outbox.cif.g08.bks.cpg/sg135_2_cif.got.tgz:3394.got - 2010.05.20 12:50:20.
