data_PCOD9568434
_publ_section_title
;
Structure prediction by ZEFSAII (Michael W. Deem and Ramdas Pophale) SiO2 
 PCOD9568434
Probable space group: P 42/N N M
;
_chemical_formula_sum "Si O2"
_cell_formula_units_Z 64
_cell_length_a 14.030575
_cell_length_b 14.030575
_cell_length_c 14.899569
_cell_angle_alpha 90.000000
_cell_angle_beta 90.000000
_cell_angle_gamma 90.000000
_cell_volume 2933.084974
_symmetry_space_group_name_H-M "P 42/N N M"
_symmetry_group_IT_number 134
_space_group.IT_coordinate_system_code '2'
_symmetry_cell_setting 'tetragonal'
loop_
_space_group_symop_operation_xyz
x,y,z
1/2-y,x,1/2+z
1/2-x,1/2-y,z
y,1/2-x,1/2+z
x,1/2-y,1/2-z
1/2-x,y,1/2-z
y,x,-z
1/2-y,1/2-x,-z
-x,-y,-z
1/2+y,-x,1/2-z
1/2+x,1/2+y,-z
-y,1/2+x,1/2-z
-x,1/2+y,1/2+z
1/2+x,-y,1/2+z
-y,-x,z
1/2+y,1/2+x,z
loop_
_atom_site_type_symbol
_atom_site_label
_atom_site_fract_x
_atom_site_fract_y
_atom_site_fract_z
Si Si1 0.079850 0.728160 0.144785
Si Si2 0.074365 0.370814 0.599438
Si Si3 0.352496 0.004462 0.763472
Si Si4 0.620224 0.836327 0.102697
O O1 0.091706 0.750000 0.250000
O O2 0.175102 0.675102 0.112044
O O3 0.031286 0.823745 0.105444
O O4 0.991810 0.655987 0.129089
O O5 0.091574 0.408427 0.500000
O O6 0.101716 0.446668 0.674869
O O7 0.138952 0.276026 0.615971
O O8 0.250000 0.956363 0.750000
O O9 0.330186 0.089480 0.832751
O O10 0.429132 0.929132 0.798968
O O11 0.638758 0.861243 0.000000
#
# Coordination Sequence:
#
# PCOD9568434 Si02
#       4
#    16  16  16  16
#     4  10  21  40  66 100 141 183 230 289 351 414
#     4  10  22  41  64 100 138 177 225 285 352 422
#     4  12  26  44  66  93 130 183 237 293 357 421
#     4  10  21  39  67  98 135 171 225 280 350 418
#
# _framework density 21.820029999999999
#
# number of rings (size 3 to 8) (size 9 to 14) (size 15 to 20)
#    1.500    0.000    2.500    3.000    0.000    7.500 
#    0.000    0.000    0.000    0.000    0.000    0.000 
#    0.000    0.000    0.000    0.000    0.000    0.000 
#
# Total GULP energy -356754.194699 kJ/mol
# GULP energy per Si atom -5574.284292 kJ/mol
# Density = 2.177037 g / cm^3
# Si number density = 21.820030 Si / 1000 Ang^3
#
#
#
# Elastic Constant Matrix: (Units=GPa)
#
#
# Indices 1 2 3 4 5 6 
#
# 1 9.4533 126.6967 15.4394 0.0000 0.0000 0.0000
# 2 126.6967 9.4516 15.4386 0.0000 0.0000 0.0000
# 3 15.4394 15.4386 79.9952 0.0000 0.0000 0.0000
# 4 0.0000 0.0000 0.0000 -32.1754 0.0000 0.0000
# 5 0.0000 0.0000 0.0000 0.0000 -32.1867 0.0000
# 6 0.0000 0.0000 0.0000 0.0000 0.0000 31.2957
#
#
#
# Elastic Compliance Matrix: (Units=1/GPa)
#
#
# Indices 1 2 3 4 5 6 
#
# 1 -0.000424 0.008105 -0.001482 0.000000 0.000000 0.000000
# 2 0.008105 -0.000424 -0.001482 0.000000 0.000000 0.000000
# 3 -0.001482 -0.001482 0.013073 0.000000 0.000000 0.000000
# 4 0.000000 0.000000 0.000000 -0.031080 0.000000 0.000000
# 5 0.000000 0.000000 0.000000 0.000000 -0.031069 0.000000
# 6 0.000000 0.000000 0.000000 0.000000 0.000000 0.031953
#
#
# Mechanical properties :
#
#
# Convention : Reuss Voigt Hill
#
# Bulk Modulus (GPa) = 44.43381 46.00550 45.21966
# Shear Modulus (GPa) = -240.97587 -10.52492 -125.75039
#
# Velocity S-wave (km/s) = -10.52035 -2.19863 -7.59973
# Velocity P-wave (km/s) = 11.27662 3.83204 7.49926
#
# Compressibility (1/GPa) = 0.02250538
#
# Stress axis : x y z
#
# Youngs Moduli (GPa) = -2358.45102 -2357.96112 76.49369
#
# Poissons Ratio (x) = 19.11164 0.11340
# Poissons Ratio (y) = 19.11561 0.11340
# Poissons Ratio (z) = -3.49620 -3.49564
#
# Static dielectric constant tensor:
#      x y z
#    x 1.919440 0.000000 0.000000 
#    y 0.000000 1.919430 0.000000 
#    z 0.000000 0.000000 1.727400 
# 
# From -- ./inp_files/6124.got.cif
#   From: 2010.05.17/outbox.cif.g08.bks.cpg/sg134_4_cif.got.tgz:6124.got - 2010.05.20 12:42:49.
