data_PCOD9568531
_publ_section_title
;
Structure prediction by ZEFSAII (Michael W. Deem and Ramdas Pophale) SiO2 
 PCOD9568531
Probable space group: P 42/N N M
;
_chemical_formula_sum "Si O2"
_cell_formula_units_Z 96
_cell_length_a 14.580872
_cell_length_b 14.580872
_cell_length_c 20.533961
_cell_angle_alpha 90.000000
_cell_angle_beta 90.000000
_cell_angle_gamma 90.000000
_cell_volume 4365.557650
_symmetry_space_group_name_H-M "P 42/N N M"
_symmetry_group_IT_number 134
_space_group.IT_coordinate_system_code '2'
_symmetry_cell_setting 'tetragonal'
loop_
_space_group_symop_operation_xyz
x,y,z
1/2-y,x,1/2+z
1/2-x,1/2-y,z
y,1/2-x,1/2+z
x,1/2-y,1/2-z
1/2-x,y,1/2-z
y,x,-z
1/2-y,1/2-x,-z
-x,-y,-z
1/2+y,-x,1/2-z
1/2+x,1/2+y,-z
-y,1/2+x,1/2-z
-x,1/2+y,1/2+z
1/2+x,-y,1/2+z
-y,-x,z
1/2+y,1/2+x,z
loop_
_atom_site_type_symbol
_atom_site_label
_atom_site_fract_x
_atom_site_fract_y
_atom_site_fract_z
Si Si1 0.247074 0.599381 0.461977
Si Si2 0.766008 0.596538 0.034607
Si Si3 0.175267 0.167924 0.852228
Si Si4 0.018525 0.740880 0.175468
Si Si5 0.555432 0.581291 0.640295
Si Si6 0.017981 0.658955 0.725002
O O1 0.339285 0.660716 0.472275
O O2 0.161779 0.661779 0.486045
O O3 0.252341 0.498401 0.495450
O O4 0.233896 0.584032 0.384306
O O5 0.679110 0.642159 0.071134
O O6 0.833117 0.576993 0.095879
O O7 0.825837 0.674164 0.000000
O O8 0.250000 0.250000 0.839292
O O9 0.075870 0.202018 0.830170
O O10 0.187031 0.071871 0.814926
O O11 0.052730 0.750000 0.250000
O O12 0.984402 0.639655 0.156548
O O13 0.477939 0.522062 0.605252
O O14 0.519980 0.613378 0.709746
O O15 0.068661 0.750000 0.750000
O O16 0.086854 0.586854 0.691911
#
# Coordination Sequence:
#
# PCOD9568531 Si02
#       6
#    16  16  16  16  16  16
#     4  11  27  49  69  95 136 184 234 286 346 420
#     4  12  24  42  70  99 129 179 231 282 337 416
#     4  12  24  41  68 103 141 178 227 291 365 421
#     4  12  24  41  70 102 135 175 222 286 360 423
#     4  11  22  39  66  98 129 169 228 283 333 407
#     4  11  23  41  65  99 139 185 234 290 355 426
#
# _framework density 21.990317999999998
#
# number of rings (size 3 to 8) (size 9 to 14) (size 15 to 20)
#    0.000    0.500    6.667    1.000    0.000    5.833 
#    0.000    1.667    0.000    0.000    0.000    0.000 
#    0.000    0.000    0.000    0.000    0.000    0.000 
#
# Total GULP energy -536027.755391 kJ/mol
# GULP energy per Si atom -5583.622452 kJ/mol
# Density = 2.194027 g / cm^3
# Si number density = 21.990318 Si / 1000 Ang^3
#
#
#
# Elastic Constant Matrix: (Units=GPa)
#
#
# Indices 1 2 3 4 5 6 
#
# 1 91.6186 57.4314 26.7317 0.0000 0.0000 0.0000
# 2 57.4314 91.6175 26.7320 0.0000 0.0000 0.0000
# 3 26.7317 26.7320 106.3809 0.0000 0.0000 0.0000
# 4 0.0000 0.0000 0.0000 -39.1267 0.0000 0.0000
# 5 0.0000 0.0000 0.0000 0.0000 -39.1184 0.0000
# 6 0.0000 0.0000 0.0000 0.0000 0.0000 19.7358
#
#
#
# Elastic Compliance Matrix: (Units=1/GPa)
#
#
# Indices 1 2 3 4 5 6 
#
# 1 0.018312 -0.010939 -0.001853 0.000000 0.000000 0.000000
# 2 -0.010939 0.018313 -0.001853 0.000000 0.000000 0.000000
# 3 -0.001853 -0.001853 0.010331 0.000000 0.000000 0.000000
# 4 0.000000 0.000000 0.000000 -0.025558 0.000000 0.000000
# 5 0.000000 0.000000 0.000000 0.000000 -0.025563 0.000000
# 6 0.000000 0.000000 0.000000 0.000000 0.000000 0.050669
#
#
# Mechanical properties :
#
#
# Convention : Reuss Voigt Hill
#
# Bulk Modulus (GPa) = 56.60158 56.82302 56.71230
# Shear Modulus (GPa) = 61.21251 0.21293 30.71272
#
# Velocity S-wave (km/s) = 5.28172 0.31151 3.74123
# Velocity P-wave (km/s) = 7.93666 5.10152 6.67144
#
# Compressibility (1/GPa) = 0.01766735
#
# Stress axis : x y z
#
# Youngs Moduli (GPa) = 54.60782 54.60705 96.79223
#
# Poissons Ratio (x) = 0.59733 0.17934
# Poissons Ratio (y) = 0.59734 0.17936
# Poissons Ratio (z) = 0.10118 0.10119
#
# Static dielectric constant tensor:
#      x y z
#    x 1.895780 0.000000 0.000000 
#    y 0.000000 1.895780 0.000000 
#    z 0.000000 0.000000 1.740700 
# 
# From -- ./inp_files/9121.got.cif
#   From: 2010.05.17/outbox.cif.g08.bks.cpg/sg134_5_cif.got.tgz:9121.got - 2010.05.20 12:42:49.
