data_PCOD9568559
_publ_section_title
;
Structure prediction by ZEFSAII (Michael W. Deem and Ramdas Pophale) SiO2 
 PCOD9568559
Probable space group: P 42/N N M
;
_chemical_formula_sum "Si O2"
_cell_formula_units_Z 58
_cell_length_a 16.815343
_cell_length_b 16.815343
_cell_length_c 9.410082
_cell_angle_alpha 90.000000
_cell_angle_beta 90.000000
_cell_angle_gamma 90.000000
_cell_volume 2660.754890
_symmetry_space_group_name_H-M "P 42/N N M"
_symmetry_group_IT_number 134
_space_group.IT_coordinate_system_code '2'
_symmetry_cell_setting 'tetragonal'
loop_
_space_group_symop_operation_xyz
x,y,z
1/2-y,x,1/2+z
1/2-x,1/2-y,z
y,1/2-x,1/2+z
x,1/2-y,1/2-z
1/2-x,y,1/2-z
y,x,-z
1/2-y,1/2-x,-z
-x,-y,-z
1/2+y,-x,1/2-z
1/2+x,1/2+y,-z
-y,1/2+x,1/2-z
-x,1/2+y,1/2+z
1/2+x,-y,1/2+z
-y,-x,z
1/2+y,1/2+x,z
loop_
_atom_site_type_symbol
_atom_site_label
_atom_site_fract_x
_atom_site_fract_y
_atom_site_fract_z
Si Si1 0.517767 0.777492 0.989407
Si Si2 0.647601 0.923865 0.302362
Si Si3 0.750000 0.868899 0.750000
Si Si4 0.529874 0.029874 0.654975
Si Si5 0.870989 0.129012 0.627430
Si Si6 0.250000 0.750000 0.250000
O O1 0.577702 0.780940 0.120282
O O2 0.439313 0.823596 0.041096
O O3 0.523202 0.685703 0.930864
O O4 0.547285 0.819698 0.847666
O O5 0.670061 0.830191 0.314424
O O6 0.553898 0.936196 0.290721
O O7 0.592914 0.092914 0.724095
O O8 0.500000 0.000000 0.500000
O O9 0.805795 0.194206 0.659497
#
# Coordination Sequence:
#
# PCOD9568559 Si02
#       6
#    16  16   8   8   8   2
#     4  11  25  45  69 109 146 196 243 310 374 443
#     4  11  26  43  72 108 152 196 251 307 377 441
#     4  12  21  41  70 102 150 190 248 302 363 445
#     4  12  25  43  78 106 143 199 258 311 363 463
#     4  12  27  48  79 105 152 192 258 312 378 446
#     4  12  32  48  72 118 140 192 236 330 376 436
#
# _framework density 21.798327
#
# number of rings (size 3 to 8) (size 9 to 14) (size 15 to 20)
#    0.000    0.552    2.759    4.966    3.862    3.310 
#    0.000    6.897    0.000    0.000    0.000    0.000 
#    0.000    0.000    0.000    0.000    0.000    0.000 
#
# Total GULP energy -323269.881238 kJ/mol
# GULP energy per Si atom -5573.618642 kJ/mol
# Density = 2.174871 g / cm^3
# Si number density = 21.798327 Si / 1000 Ang^3
#
#
#
# Elastic Constant Matrix: (Units=GPa)
#
#
# Indices 1 2 3 4 5 6 
#
# 1 122.4324 62.0523 34.3082 0.0000 0.0000 0.0000
# 2 62.0523 122.4324 34.3082 0.0000 0.0000 0.0000
# 3 34.3082 34.3082 131.8398 0.0000 0.0000 0.0000
# 4 0.0000 0.0000 0.0000 36.2842 0.0000 0.0000
# 5 0.0000 0.0000 0.0000 0.0000 36.2842 0.0000
# 6 0.0000 0.0000 0.0000 0.0000 0.0000 30.8002
#
#
#
# Elastic Compliance Matrix: (Units=1/GPa)
#
#
# Indices 1 2 3 4 5 6 
#
# 1 0.011282 -0.005280 -0.001562 0.000000 0.000000 0.000000
# 2 -0.005280 0.011282 -0.001562 0.000000 0.000000 0.000000
# 3 -0.001562 -0.001562 0.008398 0.000000 0.000000 0.000000
# 4 0.000000 0.000000 0.000000 0.027560 0.000000 0.000000
# 5 0.000000 0.000000 0.000000 0.000000 0.027560 0.000000
# 6 0.000000 0.000000 0.000000 0.000000 0.000000 0.032467
#
#
# Mechanical properties :
#
#
# Convention : Reuss Voigt Hill
#
# Bulk Modulus (GPa) = 70.65326 70.89357 70.77341
# Shear Modulus (GPa) = 35.69549 37.07611 36.38580
#
# Velocity S-wave (km/s) = 4.05103 4.12863 4.09002
# Velocity P-wave (km/s) = 7.37318 7.43778 7.40555
#
# Compressibility (1/GPa) = 0.01415363
#
# Stress axis : x y z
#
# Youngs Moduli (GPa) = 88.64031 88.64031 119.07933
#
# Poissons Ratio (x) = 0.46804 0.18597
# Poissons Ratio (y) = 0.46804 0.18597
# Poissons Ratio (z) = 0.13843 0.13843
#
# Static dielectric constant tensor:
#      x y z
#    x 1.913390 0.000000 0.000000 
#    y 0.000000 1.913390 0.000000 
#    z 0.000000 0.000000 1.784190 
# 
# From -- ./inp_files/2470.got.cif
#   From: 2010.05.17/outbox.cif.g08.bks.cpg/sg134_2_cif.got.tgz:2470.got - 2010.05.20 12:42:49.
