data_PCOD9568006
_publ_section_title
;
Structure prediction by ZEFSAII (Michael W. Deem and Ramdas Pophale) SiO2 
 PCOD9568006
Probable space group: P 42/N B C
;
_chemical_formula_sum "Si O2"
_cell_formula_units_Z 56
_cell_length_a 10.442752
_cell_length_b 10.442752
_cell_length_c 22.154279
_cell_angle_alpha 90.000000
_cell_angle_beta 90.000000
_cell_angle_gamma 90.000000
_cell_volume 2415.947815
_symmetry_space_group_name_H-M "P 42/N B C"
_symmetry_group_IT_number 133
_space_group.IT_coordinate_system_code '2'
_symmetry_cell_setting 'tetragonal'
loop_
_space_group_symop_operation_xyz
x,y,z
1/2-y,x,1/2+z
1/2-x,1/2-y,z
y,1/2-x,1/2+z
x,1/2-y,-z
1/2-x,y,-z
y,x,1/2-z
1/2-y,1/2-x,1/2-z
-x,-y,-z
1/2+y,-x,1/2-z
1/2+x,1/2+y,-z
-y,1/2+x,1/2-z
-x,1/2+y,z
1/2+x,-y,z
-y,-x,1/2+z
1/2+y,1/2+x,1/2+z
loop_
_atom_site_type_symbol
_atom_site_label
_atom_site_fract_x
_atom_site_fract_y
_atom_site_fract_z
Si Si1 0.980829 0.796596 0.826529
Si Si2 0.681556 0.112255 0.556361
Si Si3 0.449570 0.250000 0.500000
Si Si4 0.750000 0.750000 0.096819
Si Si5 0.545589 0.545589 0.250000
O O1 0.846846 0.821490 0.859261
O O2 0.030399 0.929839 0.798824
O O3 0.054846 0.720520 0.879768
O O4 0.967417 0.688332 0.775875
O O5 0.750000 0.250000 0.560037
O O6 0.750000 0.043021 0.500000
O O7 0.538744 0.145558 0.533733
O O8 0.358786 0.193963 0.447602
#
# Coordination Sequence:
#
# PCOD9568006 Si02
#       5
#    16  16   8   8   8
#     4  12  27  46  73 101 145 193 246 306 353 443
#     4   9  22  41  70 100 135 175 237 290 353 435
#     4   9  21  42  66 110 145 183 226 288 382 455
#     4  11  24  41  68 102 150 179 227 302 382 424
#     4  12  30  46  72 102 144 198 254 298 362 422
#
# _framework density 23.179307999999999
#
# number of rings (size 3 to 8) (size 9 to 14) (size 15 to 20)
#    0.000    1.714    0.000    3.429   16.000    1.143 
#    0.000    0.000    0.000    0.000    0.000    0.000 
#    0.000    0.000    0.000    0.000    0.000    0.000 
#
# Total GULP energy -312526.482226 kJ/mol
# GULP energy per Si atom -5580.830040 kJ/mol
# Density = 2.312655 g / cm^3
# Si number density = 23.179308 Si / 1000 Ang^3
#
#
#
# Elastic Constant Matrix: (Units=GPa)
#
#
# Indices 1 2 3 4 5 6 
#
# 1 74.8544 1.4501 21.7625 0.0000 0.0000 0.0000
# 2 1.4501 74.8544 21.7625 0.0000 0.0000 0.0000
# 3 21.7625 21.7625 91.0078 0.0000 0.0000 0.0000
# 4 0.0000 0.0000 0.0000 40.5320 0.0000 0.0000
# 5 0.0000 0.0000 0.0000 0.0000 40.5320 0.0000
# 6 0.0000 0.0000 0.0000 0.0000 0.0000 21.1797
#
#
#
# Elastic Compliance Matrix: (Units=1/GPa)
#
#
# Indices 1 2 3 4 5 6 
#
# 1 0.014399 0.000776 -0.003629 0.000000 0.000000 0.000000
# 2 0.000776 0.014399 -0.003629 0.000000 0.000000 0.000000
# 3 -0.003629 -0.003629 0.012724 0.000000 0.000000 0.000000
# 4 0.000000 0.000000 0.000000 0.024672 0.000000 0.000000
# 5 0.000000 0.000000 0.000000 0.000000 0.024672 0.000000
# 6 0.000000 0.000000 0.000000 0.000000 0.000000 0.047215
#
#
# Mechanical properties :
#
#
# Convention : Reuss Voigt Hill
#
# Bulk Modulus (GPa) = 35.01539 36.74074 35.87807
# Shear Modulus (GPa) = 31.14030 33.49817 32.31924
#
# Velocity S-wave (km/s) = 3.66929 3.80567 3.73810
# Velocity P-wave (km/s) = 5.75245 5.93261 5.84323
#
# Compressibility (1/GPa) = 0.02855887
#
# Stress axis : x y z
#
# Youngs Moduli (GPa) = 69.44806 69.44806 78.59426
#
# Poissons Ratio (x) = -0.05390 0.28521
# Poissons Ratio (y) = -0.05390 0.28521
# Poissons Ratio (z) = 0.25202 0.25202
#
# Static dielectric constant tensor:
#      x y z
#    x 1.903430 0.000000 0.000000 
#    y 0.000000 1.903430 0.000000 
#    z 0.000000 0.000000 1.885550 
# 
# From -- ./inp_files/6071.got.cif
#   From: 2010.05.17/outbox.cif.g08.bks.cpg/sg133_4_cif.got.tgz:6071.got - 2010.05.20 12:37:36.
