data_PCOD9568857
_publ_section_title
;
Structure prediction by ZEFSAII (Michael W. Deem and Ramdas Pophale) SiO2 
 PCOD9568857
Probable space group: P 42/M B C
;
_chemical_formula_sum "Si O2"
_cell_formula_units_Z 68
_cell_length_a 17.758756
_cell_length_b 17.758756
_cell_length_c 9.711996
_cell_angle_alpha 90.000000
_cell_angle_beta 90.000000
_cell_angle_gamma 90.000000
_cell_volume 3062.905342
_symmetry_space_group_name_H-M "P 42/M B C"
_symmetry_group_IT_number 135
_symmetry_cell_setting 'tetragonal'
loop_
_space_group_symop_operation_xyz
x,y,z
-y,x,1/2+z
-x,-y,z
y,-x,1/2+z
1/2+x,1/2-y,-z
1/2-x,1/2+y,-z
1/2+y,1/2+x,1/2-z
1/2-y,1/2-x,1/2-z
-x,-y,-z
y,-x,1/2-z
x,y,-z
-y,x,1/2-z
1/2-x,1/2+y,z
1/2+x,1/2-y,z
1/2-y,1/2-x,1/2+z
1/2+y,1/2+x,1/2+z
loop_
_atom_site_type_symbol
_atom_site_label
_atom_site_fract_x
_atom_site_fract_y
_atom_site_fract_z
Si Si1 0.120612 0.379389 0.750000
Si Si2 0.195965 0.520418 0.696937
Si Si3 0.772387 0.445232 0.000000
Si Si4 0.523853 0.600724 0.500000
Si Si5 0.568371 0.298545 0.000000
Si Si6 0.206826 0.317761 0.000000
Si Si7 0.500000 0.500000 0.750000
Si Si8 0.209708 0.659605 0.500000
O O1 0.130851 0.458554 0.671635
O O2 0.135130 0.314292 0.636160
O O3 0.269069 0.479045 0.631884
O O4 0.197402 0.601944 0.626440
O O5 0.191220 0.530392 0.858660
O O6 0.778337 0.355298 0.000000
O O7 0.689276 0.477630 0.000000
O O8 0.612379 0.577718 0.500000
O O9 0.488986 0.567477 0.640619
O O10 0.646422 0.251712 0.000000
O O11 0.291919 0.286204 0.000000
#
# Coordination Sequence:
#
# PCOD9568857 Si02
#       8
#     8  16   8   8   8   8   4   8
#     4  10  22  44  67  94 126 173 210 268 320 404
#     4  10  23  40  63  92 131 162 218 261 332 380
#     4  12  23  38  63  92 126 168 210 274 322 382
#     4  11  21  40  60  89 131 166 225 259 334 385
#     4   9  19  40  61  91 123 171 203 278 317 388
#     4  10  21  37  68  93 124 161 220 258 335 380
#     4  10  24  38  60  90 128 182 216 270 320 410
#     4  11  24  41  60  99 132 167 212 281 318 392
#
# _framework density 22.201142999999998
#
# number of rings (size 3 to 8) (size 9 to 14) (size 15 to 20)
#    0.000    1.647    1.176    3.529    3.294    0.000 
#    0.000   15.294    0.000    0.000    0.000    0.000 
#    0.000    0.000    0.000    0.000    0.000    0.000 
#
# Total GULP energy -379335.817214 kJ/mol
# GULP energy per Si atom -5578.467900 kJ/mol
# Density = 2.215061 g / cm^3
# Si number density = 22.201143 Si / 1000 Ang^3
#
#
#
# Elastic Constant Matrix: (Units=GPa)
#
#
# Indices 1 2 3 4 5 6 
#
# 1 68.8103 -2.1251 15.3903 0.0000 0.0000 0.0000
# 2 -2.1251 68.8098 15.3897 0.0000 0.0000 0.0000
# 3 15.3903 15.3897 150.7511 0.0000 0.0000 0.0000
# 4 0.0000 0.0000 0.0000 19.4697 0.0000 0.0000
# 5 0.0000 0.0000 0.0000 0.0000 19.4701 0.0000
# 6 0.0000 0.0000 0.0000 0.0000 0.0000 20.2405
#
#
#
# Elastic Compliance Matrix: (Units=1/GPa)
#
#
# Indices 1 2 3 4 5 6 
#
# 1 0.014917 0.000820 -0.001607 0.000000 0.000000 0.000000
# 2 0.000820 0.014917 -0.001607 0.000000 0.000000 0.000000
# 3 -0.001607 -0.001607 0.006961 0.000000 0.000000 0.000000
# 4 0.000000 0.000000 0.000000 0.051362 0.000000 0.000000
# 5 0.000000 0.000000 0.000000 0.000000 0.051361 0.000000
# 6 0.000000 0.000000 0.000000 0.000000 0.000000 0.049406
#
#
# Mechanical properties :
#
#
# Convention : Reuss Voigt Hill
#
# Bulk Modulus (GPa) = 31.24030 38.40899 34.82465
# Shear Modulus (GPa) = 24.46407 29.15047 26.80727
#
# Velocity S-wave (km/s) = 3.32313 3.62749 3.47864
# Velocity P-wave (km/s) = 5.36901 5.90618 5.64399
#
# Compressibility (1/GPa) = 0.03200993
#
# Stress axis : x y z
#
# Youngs Moduli (GPa) = 67.03588 67.03554 143.64754
#
# Poissons Ratio (x) = -0.05497 0.23079
# Poissons Ratio (y) = -0.05497 0.23078
# Poissons Ratio (z) = 0.10770 0.10770
#
# Static dielectric constant tensor:
#      x y z
#    x 1.831390 0.000000 0.000000 
#    y 0.000000 1.831390 0.000000 
#    z 0.000000 0.000000 1.832080 
# 
# From -- ./inp_files/2381.got.cif
#   From: 2010.05.17/outbox.cif.g08.bks.cpg/sg135_2_cif.got.tgz:2381.got - 2010.05.20 12:50:20.
