data_PCOD9568925
_publ_section_title
;
Structure prediction by ZEFSAII (Michael W. Deem and Ramdas Pophale) SiO2 
 PCOD9568925
Probable space group: P 42/M B C
;
_chemical_formula_sum "Si O2"
_cell_formula_units_Z 40
_cell_length_a 14.289243
_cell_length_b 14.289243
_cell_length_c 9.874378
_cell_angle_alpha 90.000000
_cell_angle_beta 90.000000
_cell_angle_gamma 90.000000
_cell_volume 2016.174845
_symmetry_space_group_name_H-M "P 42/M B C"
_symmetry_group_IT_number 135
_symmetry_cell_setting 'tetragonal'
loop_
_space_group_symop_operation_xyz
x,y,z
-y,x,1/2+z
-x,-y,z
y,-x,1/2+z
1/2+x,1/2-y,-z
1/2-x,1/2+y,-z
1/2+y,1/2+x,1/2-z
1/2-y,1/2-x,1/2-z
-x,-y,-z
y,-x,1/2-z
x,y,-z
-y,x,1/2-z
1/2-x,1/2+y,z
1/2+x,1/2-y,z
1/2-y,1/2-x,1/2+z
1/2+y,1/2+x,1/2+z
loop_
_atom_site_type_symbol
_atom_site_label
_atom_site_fract_x
_atom_site_fract_y
_atom_site_fract_z
Si Si1 0.104284 0.322640 0.000000
Si Si2 0.716158 0.312615 0.500000
Si Si3 0.695847 0.946098 0.279920
Si Si4 0.517249 0.245010 0.500000
O O1 0.201214 0.264467 0.000000
O O2 0.144409 0.428352 0.000000
O O3 0.040469 0.305186 0.131272
O O4 0.757022 0.365849 0.628995
O O5 0.603377 0.317033 0.500000
O O6 0.591951 0.908050 0.250000
O O7 0.747802 0.960842 0.138318
#
# Coordination Sequence:
#
# PCOD9568925 Si02
#       4
#     8   8  16   8
#     4   9  22  40  61  98 137 174 203 276 339 393
#     4   9  24  41  61  94 135 182 206 266 338 381
#     4  11  22  39  65 103 130 170 224 261 332 411
#     4  10  22  39  65  97 131 177 209 282 327 388
#
# _framework density 19.839549000000002
#
# number of rings (size 3 to 8) (size 9 to 14) (size 15 to 20)
#    1.200    0.800    0.000    3.600    5.600    4.800 
#    0.000    0.000    0.000    3.600    0.000    0.000 
#    0.000    0.000    0.000    0.000    0.000    0.000 
#
# Total GULP energy -223142.338752 kJ/mol
# GULP energy per Si atom -5578.558469 kJ/mol
# Density = 1.979439 g / cm^3
# Si number density = 19.839549 Si / 1000 Ang^3
#
#
#
# Elastic Constant Matrix: (Units=GPa)
#
#
# Indices 1 2 3 4 5 6 
#
# 1 43.6702 100.1911 62.8946 0.0000 0.0000 0.0000
# 2 100.1911 43.6683 62.8942 0.0000 0.0000 0.0000
# 3 62.8946 62.8942 192.2091 0.0000 0.0000 0.0000
# 4 0.0000 0.0000 0.0000 36.7836 0.0000 0.0000
# 5 0.0000 0.0000 0.0000 0.0000 36.7802 0.0000
# 6 0.0000 0.0000 0.0000 0.0000 0.0000 34.6465
#
#
#
# Elastic Compliance Matrix: (Units=1/GPa)
#
#
# Indices 1 2 3 4 5 6 
#
# 1 -0.003977 0.013715 -0.003186 0.000000 0.000000 0.000000
# 2 0.013715 -0.003978 -0.003186 0.000000 0.000000 0.000000
# 3 -0.003186 -0.003186 0.007288 0.000000 0.000000 0.000000
# 4 0.000000 0.000000 0.000000 0.027186 0.000000 0.000000
# 5 0.000000 0.000000 0.000000 0.000000 0.027189 0.000000
# 6 0.000000 0.000000 0.000000 0.000000 0.000000 0.028863
#
#
# Mechanical properties :
#
#
# Convention : Reuss Voigt Hill
#
# Bulk Modulus (GPa) = 71.34004 81.27860 76.30932
# Shear Modulus (GPa) = 68.91043 25.21322 47.06183
#
# Velocity S-wave (km/s) = 5.89994 3.56878 4.87573
# Velocity P-wave (km/s) = 9.08014 7.61830 8.38115
#
# Compressibility (1/GPa) = 0.01401737
#
# Stress axis : x y z
#
# Youngs Moduli (GPa) = -251.41794 -251.40062 137.21538
#
# Poissons Ratio (x) = 3.44788 0.43719
# Poissons Ratio (y) = 3.44812 0.43719
# Poissons Ratio (z) = -0.80107 -0.80100
#
# Static dielectric constant tensor:
#      x y z
#    x 1.710140 0.000000 0.000000 
#    y 0.000000 1.710150 0.000000 
#    z 0.000000 0.000000 1.701100 
# 
# From -- ./inp_files/502.got.cif
#   From: 2010.05.17/outbox.cif.g08.bks.cpg/sg135_1_cif.got.tgz:502.got - 2010.05.20 12:50:20.
