data_PCOD9568382
_publ_section_title
;
Structure prediction by ZEFSAII (Michael W. Deem and Ramdas Pophale) SiO2 
 PCOD9568382
Probable space group: P 42/N N M
;
_chemical_formula_sum "Si O2"
_cell_formula_units_Z 88
_cell_length_a 12.714448
_cell_length_b 12.714448
_cell_length_c 28.457573
_cell_angle_alpha 90.000000
_cell_angle_beta 90.000000
_cell_angle_gamma 90.000000
_cell_volume 4600.371227
_symmetry_space_group_name_H-M "P 42/N N M"
_symmetry_group_IT_number 134
_space_group.IT_coordinate_system_code '2'
_symmetry_cell_setting 'tetragonal'
loop_
_space_group_symop_operation_xyz
x,y,z
1/2-y,x,1/2+z
1/2-x,1/2-y,z
y,1/2-x,1/2+z
x,1/2-y,1/2-z
1/2-x,y,1/2-z
y,x,-z
1/2-y,1/2-x,-z
-x,-y,-z
1/2+y,-x,1/2-z
1/2+x,1/2+y,-z
-y,1/2+x,1/2-z
-x,1/2+y,1/2+z
1/2+x,-y,1/2+z
-y,-x,z
1/2+y,1/2+x,z
loop_
_atom_site_type_symbol
_atom_site_label
_atom_site_fract_x
_atom_site_fract_y
_atom_site_fract_z
Si Si1 0.250000 0.077672 0.750000
Si Si2 0.254867 0.578051 0.561911
Si Si3 0.252320 0.572412 0.042743
Si Si4 0.981839 0.851110 0.275153
Si Si5 0.226913 0.419625 0.129436
Si Si6 0.577328 0.780942 0.645265
O O1 0.140798 0.138658 0.739819
O O2 0.232193 0.029050 0.802182
O O3 0.368590 0.631411 0.571224
O O4 0.173006 0.673006 0.556882
O O5 0.253802 0.526700 0.510252
O O6 0.216153 0.508070 0.604663
O O7 0.360494 0.639507 0.049156
O O8 0.158504 0.658504 0.046001
O O9 0.237344 0.482842 0.081382
O O10 0.028690 0.750000 0.250000
O O11 0.989349 0.824865 0.330008
O O12 0.042732 0.957269 0.263548
O O13 0.342025 0.378501 0.145126
O O14 0.150538 0.318266 0.130403
#
# Coordination Sequence:
#
# PCOD9568382 Si02
#       6
#     8  16  16  16  16  16
#     4  10  21  42  62  81 118 165 206 238 297 364
#     4   9  20  39  59  81 112 151 195 244 302 361
#     4   9  19  37  58  80 115 156 188 234 302 366
#     4  11  22  38  62  88 120 160 201 247 299 358
#     4  10  21  36  57  86 113 151 196 238 286 356
#     4  10  21  36  61  82 112 153 197 246 288 350
#
# _framework density 19.128892
#
# number of rings (size 3 to 8) (size 9 to 14) (size 15 to 20)
#    0.000    2.182    1.818    1.909    0.000    7.455 
#    0.000    5.455    0.000    1.364    0.000    0.000 
#    0.000    0.000    0.000    0.000    0.000    0.000 
#
# Total GULP energy -489961.911596 kJ/mol
# GULP energy per Si atom -5567.748995 kJ/mol
# Density = 1.908535 g / cm^3
# Si number density = 19.128892 Si / 1000 Ang^3
#
#
#
# Elastic Constant Matrix: (Units=GPa)
#
#
# Indices 1 2 3 4 5 6 
#
# 1 59.1860 7.7000 33.7993 0.0000 0.0000 0.0000
# 2 7.7000 59.1860 33.7993 0.0000 0.0000 0.0000
# 3 33.7993 33.7993 155.7018 0.0000 0.0000 0.0000
# 4 0.0000 0.0000 0.0000 47.0209 0.0000 0.0000
# 5 0.0000 0.0000 0.0000 0.0000 47.0209 0.0000
# 6 0.0000 0.0000 0.0000 0.0000 0.0000 -0.6122
#
#
#
# Elastic Compliance Matrix: (Units=1/GPa)
#
#
# Indices 1 2 3 4 5 6 
#
# 1 0.019288 -0.000135 -0.004158 0.000000 0.000000 0.000000
# 2 -0.000135 0.019288 -0.004158 0.000000 0.000000 0.000000
# 3 -0.004158 -0.004158 0.008228 0.000000 0.000000 0.000000
# 4 0.000000 0.000000 0.000000 0.021267 0.000000 0.000000
# 5 0.000000 0.000000 0.000000 0.000000 0.021267 0.000000
# 6 0.000000 0.000000 0.000000 0.000000 0.000000 -1.633447
#
#
# Mechanical properties :
#
#
# Convention : Reuss Voigt Hill
#
# Bulk Modulus (GPa) = 33.44195 47.18565 40.31380
# Shear Modulus (GPa) = -3.29545 31.93761 14.32108
#
# Velocity S-wave (km/s) = -1.31396 4.09051 2.73914
# Velocity P-wave (km/s) = 3.90107 6.85787 5.57893
#
# Compressibility (1/GPa) = 0.02990256
#
# Stress axis : x y z
#
# Youngs Moduli (GPa) = 51.84641 51.84641 121.54245
#
# Poissons Ratio (x) = 0.00700 0.50533
# Poissons Ratio (y) = 0.00700 0.50533
# Poissons Ratio (z) = 0.21556 0.21556
#
# Static dielectric constant tensor:
#      x y z
#    x 1.678680 0.000000 0.000000 
#    y 0.000000 1.678680 0.000000 
#    z 0.000000 0.000000 1.684150 
# 
# From -- ./inp_files/11441.got.cif
#   From: 2010.05.17/outbox.cif.g08.bks.cpg/sg134_6_cif.got.tgz:11441.got - 2010.05.20 12:42:49.
