data_PCOD9568780
_publ_section_title
;
Structure prediction by ZEFSAII (Michael W. Deem and Ramdas Pophale) SiO2 
 PCOD9568780
Probable space group: P 42/M B C
;
_chemical_formula_sum "Si O2"
_cell_formula_units_Z 96
_cell_length_a 24.490932
_cell_length_b 24.490932
_cell_length_c 8.476610
_cell_angle_alpha 90.000000
_cell_angle_beta 90.000000
_cell_angle_gamma 90.000000
_cell_volume 5084.319420
_symmetry_space_group_name_H-M "P 42/M B C"
_symmetry_group_IT_number 135
_symmetry_cell_setting 'tetragonal'
loop_
_space_group_symop_operation_xyz
x,y,z
-y,x,1/2+z
-x,-y,z
y,-x,1/2+z
1/2+x,1/2-y,-z
1/2-x,1/2+y,-z
1/2+y,1/2+x,1/2-z
1/2-y,1/2-x,1/2-z
-x,-y,-z
y,-x,1/2-z
x,y,-z
-y,x,1/2-z
1/2-x,1/2+y,z
1/2+x,1/2-y,z
1/2-y,1/2-x,1/2+z
1/2+y,1/2+x,1/2+z
loop_
_atom_site_type_symbol
_atom_site_label
_atom_site_fract_x
_atom_site_fract_y
_atom_site_fract_z
Si Si1 0.345842 0.932301 0.811651
Si Si2 0.642998 0.943589 0.810664
Si Si3 0.630084 0.640053 0.688423
Si Si4 0.735265 0.429844 0.311149
Si Si5 0.464789 0.429058 0.177353
Si Si6 0.724420 0.555016 0.689790
O O1 0.385715 0.885715 0.750000
O O2 0.284691 0.928196 0.744272
O O3 0.367038 0.992907 0.768207
O O4 0.342724 0.929217 0.000000
O O5 0.595771 0.904230 0.750000
O O6 0.701246 0.928078 0.735539
O O7 0.647333 0.939941 0.000000
O O8 0.625303 0.634408 0.500000
O O9 0.621199 0.703174 0.733891
O O10 0.577972 0.615847 0.777885
O O11 0.680747 0.601483 0.739051
O O12 0.729105 0.427255 0.500000
O O13 0.715676 0.491549 0.257702
O O14 0.433354 0.486186 0.199606
O O15 0.486087 0.422470 0.000000
O O16 0.722748 0.553317 0.500000
#
# Coordination Sequence:
#
# PCOD9568780 Si02
#       6
#    16  16  16  16  16  16
#     4  10  21  37  60  87 116 146 179 219 269 327
#     4  10  21  38  60  87 116 148 182 222 272 329
#     4  11  21  34  53  78 107 143 188 234 277 331
#     4  10  20  36  57  81 111 149 189 233 282 332
#     4  11  21  33  48  69  99 135 177 230 288 341
#     4   9  20  37  56  78 109 147 187 230 278 327
#
# _framework density 18.881584
#
# number of rings (size 3 to 8) (size 9 to 14) (size 15 to 20)
#    0.000    1.833    0.000    5.000    0.000    5.667 
#    0.000    2.500    0.000    4.000    0.000    0.000 
#    0.000    0.000    0.000    0.000    0.000    0.000 
#
# Total GULP energy -535575.835220 kJ/mol
# GULP energy per Si atom -5578.914950 kJ/mol
# Density = 1.883861 g / cm^3
# Si number density = 18.881584 Si / 1000 Ang^3
#
#
#
# Elastic Constant Matrix: (Units=GPa)
#
#
# Indices 1 2 3 4 5 6 
#
# 1 72.0555 94.3365 16.6850 0.0000 0.0000 0.0000
# 2 94.3365 72.0553 16.6836 0.0000 0.0000 0.0000
# 3 16.6850 16.6836 44.7726 0.0000 0.0000 0.0000
# 4 0.0000 0.0000 0.0000 27.0787 0.0000 0.0000
# 5 0.0000 0.0000 0.0000 0.0000 27.0789 0.0000
# 6 0.0000 0.0000 0.0000 0.0000 0.0000 39.7478
#
#
#
# Elastic Compliance Matrix: (Units=1/GPa)
#
#
# Indices 1 2 3 4 5 6 
#
# 1 -0.019193 0.025688 -0.002420 0.000000 0.000000 0.000000
# 2 0.025688 -0.019193 -0.002421 0.000000 0.000000 0.000000
# 3 -0.002420 -0.002421 0.024139 0.000000 0.000000 0.000000
# 4 0.000000 0.000000 0.000000 0.036929 0.000000 0.000000
# 5 0.000000 0.000000 0.000000 0.000000 0.036929 0.000000
# 6 0.000000 0.000000 0.000000 0.000000 0.000000 0.025159
#
#
# Mechanical properties :
#
#
# Convention : Reuss Voigt Hill
#
# Bulk Modulus (GPa) = 36.43272 49.36597 42.89934
# Shear Modulus (GPa) = 95.73901 22.85962 59.29931
#
# Velocity S-wave (km/s) = 7.12847 3.48326 5.61018
# Velocity P-wave (km/s) = 9.33224 6.50994 8.04580
#
# Compressibility (1/GPa) = 0.02744785
#
# Stress axis : x y z
#
# Youngs Moduli (GPa) = -52.10240 -52.10312 41.42667
#
# Poissons Ratio (x) = 1.33843 0.10024
# Poissons Ratio (y) = 1.33841 0.10030
# Poissons Ratio (z) = -0.12607 -0.12615
#
# Static dielectric constant tensor:
#      x y z
#    x 1.691580 0.000000 0.000000 
#    y 0.000000 1.691580 0.000000 
#    z 0.000000 0.000000 1.666170 
# 
# From -- ./inp_files/1236.got.cif
#   From: 2010.05.17/outbox.cif.g08.bks.cpg/sg135_1_cif.got.tgz:1236.got - 2010.05.20 12:50:20.
