data_PCOD9568469
_publ_section_title
;
Structure prediction by ZEFSAII (Michael W. Deem and Ramdas Pophale) SiO2 
 PCOD9568469
Probable space group: P 42/N N M
;
_chemical_formula_sum "Si O2"
_cell_formula_units_Z 88
_cell_length_a 12.075389
_cell_length_b 12.075389
_cell_length_c 28.781454
_cell_angle_alpha 90.000000
_cell_angle_beta 90.000000
_cell_angle_gamma 90.000000
_cell_volume 4196.768276
_symmetry_space_group_name_H-M "P 42/N N M"
_symmetry_group_IT_number 134
_space_group.IT_coordinate_system_code '2'
_symmetry_cell_setting 'tetragonal'
loop_
_space_group_symop_operation_xyz
x,y,z
1/2-y,x,1/2+z
1/2-x,1/2-y,z
y,1/2-x,1/2+z
x,1/2-y,1/2-z
1/2-x,y,1/2-z
y,x,-z
1/2-y,1/2-x,-z
-x,-y,-z
1/2+y,-x,1/2-z
1/2+x,1/2+y,-z
-y,1/2+x,1/2-z
-x,1/2+y,1/2+z
1/2+x,-y,1/2+z
-y,-x,z
1/2+y,1/2+x,z
loop_
_atom_site_type_symbol
_atom_site_label
_atom_site_fract_x
_atom_site_fract_y
_atom_site_fract_z
Si Si1 0.889395 0.932868 0.366142
Si Si2 0.569359 0.683958 0.163821
Si Si3 0.077535 0.750000 0.250000
Si Si4 0.534929 0.034929 0.584542
Si Si5 0.210671 0.975825 0.803163
Si Si6 0.977384 0.664020 0.967690
Si Si7 0.106817 0.893184 0.980687
O O1 0.890623 0.808217 0.346901
O O2 0.818522 0.015840 0.334675
O O3 0.829733 0.931193 0.415807
O O4 0.012121 0.987880 0.370265
O O5 0.488358 0.699618 0.207420
O O6 0.516897 0.630676 0.117082
O O7 0.652260 0.591460 0.183337
O O8 0.154871 0.845130 0.270557
O O9 0.573048 0.073048 0.533399
O O10 0.445291 0.945291 0.566844
O O11 0.250000 0.971992 0.750000
O O12 0.124866 0.875135 0.811885
O O13 0.062336 0.562336 0.967958
O O14 0.054565 0.769445 0.979221
O O15 0.874339 0.625662 0.000000
#
# Coordination Sequence:
#
# PCOD9568469 Si02
#       7
#    16  16   8   8  16  16   8
#     4  11  25  42  68 100 136 183 236 292 357 427
#     4  12  23  45  67  99 139 184 236 294 365 434
#     4  11  22  38  63  96 136 178 227 289 356 436
#     4  11  24  42  68 100 138 186 238 296 353 443
#     4  12  26  45  68  97 135 180 230 290 353 430
#     4  10  22  42  67 101 139 184 239 298 367 444
#     4  11  23  42  68 100 143 187 244 302 376 429
#
# _framework density 20.968516999999999
#
# number of rings (size 3 to 8) (size 9 to 14) (size 15 to 20)
#    0.000    0.818    1.818    5.182    1.273    2.000 
#    0.000    8.182    0.000    0.000    0.000    0.000 
#    0.000    0.000    0.000    0.000    0.000    0.000 
#
# Total GULP energy -490615.734504 kJ/mol
# GULP energy per Si atom -5575.178801 kJ/mol
# Density = 2.092079 g / cm^3
# Si number density = 20.968517 Si / 1000 Ang^3
#
#
#
# Elastic Constant Matrix: (Units=GPa)
#
#
# Indices 1 2 3 4 5 6 
#
# 1 110.9378 58.1212 39.1188 0.0000 0.0000 0.0000
# 2 58.1212 110.9378 39.1188 0.0000 0.0000 0.0000
# 3 39.1188 39.1188 130.9738 0.0000 0.0000 0.0000
# 4 0.0000 0.0000 0.0000 37.5120 0.0000 0.0000
# 5 0.0000 0.0000 0.0000 0.0000 37.5114 0.0000
# 6 0.0000 0.0000 0.0000 0.0000 0.0000 28.8885
#
#
#
# Elastic Compliance Matrix: (Units=1/GPa)
#
#
# Indices 1 2 3 4 5 6 
#
# 1 0.012899 -0.006035 -0.002050 0.000000 0.000000 0.000000
# 2 -0.006035 0.012899 -0.002050 0.000000 0.000000 0.000000
# 3 -0.002050 -0.002050 0.008860 0.000000 0.000000 0.000000
# 4 0.000000 0.000000 0.000000 0.026658 0.000000 0.000000
# 5 0.000000 0.000000 0.000000 0.000000 0.026659 0.000000
# 6 0.000000 0.000000 0.000000 0.000000 0.000000 0.034616
#
#
# Mechanical properties :
#
#
# Convention : Reuss Voigt Hill
#
# Bulk Modulus (GPa) = 69.50658 69.50745 69.50702
# Shear Modulus (GPa) = 33.86268 35.21507 34.53888
#
# Velocity S-wave (km/s) = 4.02298 4.10253 4.06295
# Velocity P-wave (km/s) = 7.40265 7.46066 7.43171
#
# Compressibility (1/GPa) = 0.01438713
#
# Stress axis : x y z
#
# Youngs Moduli (GPa) = 77.52764 77.52760 112.87026
#
# Poissons Ratio (x) = 0.46786 0.23139
# Poissons Ratio (y) = 0.46786 0.23139
# Poissons Ratio (z) = 0.15894 0.15894
#
# Static dielectric constant tensor:
#      x y z
#    x 1.821190 0.000000 0.000000 
#    y 0.000000 1.821190 0.000000 
#    z 0.000000 0.000000 1.772490 
# 
# From -- ./inp_files/11524.got.cif
#   From: 2010.05.17/outbox.cif.g08.bks.cpg/sg134_6_cif.got.tgz:11524.got - 2010.05.20 12:42:49.
