data_PCOD9568101
_publ_section_title
;
Structure prediction by ZEFSAII (Michael W. Deem and Ramdas Pophale) SiO2 
 PCOD9568101
Probable space group: P 42/N N M
;
_chemical_formula_sum "Si O2"
_cell_formula_units_Z 96
_cell_length_a 19.663999
_cell_length_b 19.663999
_cell_length_c 14.978065
_cell_angle_alpha 90.000000
_cell_angle_beta 90.000000
_cell_angle_gamma 90.000000
_cell_volume 5791.611181
_symmetry_space_group_name_H-M "P 42/N N M"
_symmetry_group_IT_number 134
_space_group.IT_coordinate_system_code '2'
_symmetry_cell_setting 'tetragonal'
loop_
_space_group_symop_operation_xyz
x,y,z
1/2-y,x,1/2+z
1/2-x,1/2-y,z
y,1/2-x,1/2+z
x,1/2-y,1/2-z
1/2-x,y,1/2-z
y,x,-z
1/2-y,1/2-x,-z
-x,-y,-z
1/2+y,-x,1/2-z
1/2+x,1/2+y,-z
-y,1/2+x,1/2-z
-x,1/2+y,1/2+z
1/2+x,-y,1/2+z
-y,-x,z
1/2+y,1/2+x,z
loop_
_atom_site_type_symbol
_atom_site_label
_atom_site_fract_x
_atom_site_fract_y
_atom_site_fract_z
Si Si1 0.766602 0.674527 0.355412
Si Si2 0.746745 0.362693 0.848243
Si Si3 0.512792 0.297304 0.560260
Si Si4 0.909863 0.976944 0.704117
Si Si5 0.917790 0.802376 0.167693
Si Si6 0.574316 0.849407 0.918623
O O1 0.750000 0.750000 0.389858
O O2 0.750000 0.673800 0.250000
O O3 0.847211 0.666475 0.366503
O O4 0.715858 0.619550 0.395571
O O5 0.750000 0.397252 0.750000
O O6 0.675615 0.324386 0.857660
O O7 0.804728 0.304728 0.845947
O O8 0.761866 0.415612 0.924826
O O9 0.510083 0.360776 0.628938
O O10 0.455874 0.243880 0.595083
O O11 0.495521 0.323828 0.462258
O O12 0.862066 0.963330 0.789665
O O13 0.930122 0.903440 0.661819
O O14 0.973471 0.026530 0.719620
O O15 0.901540 0.750000 0.250000
O O16 0.611691 0.888309 0.000000
#
# Coordination Sequence:
#
# PCOD9568101 Si02
#       6
#    16  16  16  16  16  16
#     4  11  17  30  52  67  91 126 157 198 233 266
#     4   9  17  30  49  71  93 123 162 196 231 282
#     4  10  20  29  44  68 101 125 152 191 240 285
#     4  10  19  31  47  67  96 128 156 190 231 284
#     4  10  18  30  45  70  91 123 163 188 226 281
#     4  10  21  32  44  73  98 120 156 195 235 286
#
# _framework density 16.575699
#
# number of rings (size 3 to 8) (size 9 to 14) (size 15 to 20)
#    0.000    2.000    3.333    4.500    0.000    8.000 
#    0.000    0.000    0.000    1.000    0.000    2.333 
#    0.000    0.000    0.000    0.167    0.000    0.000 
#
# Total GULP energy -535456.873921 kJ/mol
# GULP energy per Si atom -5577.675770 kJ/mol
# Density = 1.653797 g / cm^3
# Si number density = 16.575699 Si / 1000 Ang^3
#
#
#
# Elastic Constant Matrix: (Units=GPa)
#
#
# Indices 1 2 3 4 5 6 
#
# 1 77.0332 29.0220 9.0074 0.0000 0.0000 0.0000
# 2 29.0220 77.0332 9.0074 0.0000 0.0000 0.0000
# 3 9.0074 9.0074 23.2306 0.0000 0.0000 0.0000
# 4 0.0000 0.0000 0.0000 14.6073 0.0000 0.0000
# 5 0.0000 0.0000 0.0000 0.0000 14.6073 0.0000
# 6 0.0000 0.0000 0.0000 0.0000 0.0000 30.4366
#
#
#
# Elastic Compliance Matrix: (Units=1/GPa)
#
#
# Indices 1 2 3 4 5 6 
#
# 1 0.015461 -0.005367 -0.003914 0.000000 0.000000 0.000000
# 2 -0.005367 0.015461 -0.003914 0.000000 0.000000 0.000000
# 3 -0.003914 -0.003914 0.046082 0.000000 0.000000 0.000000
# 4 0.000000 0.000000 0.000000 0.068459 0.000000 0.000000
# 5 0.000000 0.000000 0.000000 0.000000 0.068459 0.000000
# 6 0.000000 0.000000 0.000000 0.000000 0.000000 0.032855
#
#
# Mechanical properties :
#
#
# Convention : Reuss Voigt Hill
#
# Bulk Modulus (GPa) = 19.75724 30.15229 24.95476
# Shear Modulus (GPa) = 17.23909 20.61425 18.92667
#
# Velocity S-wave (km/s) = 3.22844 3.53036 3.38277
# Velocity P-wave (km/s) = 5.08354 5.90322 5.50865
#
# Compressibility (1/GPa) = 0.05061435
#
# Stress axis : x y z
#
# Youngs Moduli (GPa) = 64.67816 64.67816 21.70055
#
# Poissons Ratio (x) = 0.34715 0.08493
# Poissons Ratio (y) = 0.34715 0.08493
# Poissons Ratio (z) = 0.25314 0.25314
#
# Static dielectric constant tensor:
#      x y z
#    x 1.578790 0.000000 0.000000 
#    y 0.000000 1.578790 0.000000 
#    z 0.000000 0.000000 1.565930 
# 
# From -- ./inp_files/7884.got.cif
#   From: 2010.05.17/outbox.cif.g08.bks.cpg/sg134_4_cif.got.tgz:7884.got - 2010.05.20 12:42:49.
