data_PCOD9568632
_publ_section_title
;
Structure prediction by ZEFSAII (Michael W. Deem and Ramdas Pophale) SiO2 
 PCOD9568632
Probable space group: P 42/M B C
;
_chemical_formula_sum "Si O2"
_cell_formula_units_Z 116
_cell_length_a 17.665225
_cell_length_b 17.665225
_cell_length_c 18.112546
_cell_angle_alpha 90.000000
_cell_angle_beta 90.000000
_cell_angle_gamma 90.000000
_cell_volume 5652.204262
_symmetry_space_group_name_H-M "P 42/M B C"
_symmetry_group_IT_number 135
_symmetry_cell_setting 'tetragonal'
loop_
_space_group_symop_operation_xyz
x,y,z
-y,x,1/2+z
-x,-y,z
y,-x,1/2+z
1/2+x,1/2-y,-z
1/2-x,1/2+y,-z
1/2+y,1/2+x,1/2-z
1/2-y,1/2-x,1/2-z
-x,-y,-z
y,-x,1/2-z
x,y,-z
-y,x,1/2-z
1/2-x,1/2+y,z
1/2+x,1/2-y,z
1/2-y,1/2-x,1/2+z
1/2+y,1/2+x,1/2+z
loop_
_atom_site_type_symbol
_atom_site_label
_atom_site_fract_x
_atom_site_fract_y
_atom_site_fract_z
Si Si1 0.934302 0.911074 0.635101
Si Si2 0.018942 0.361820 0.586274
Si Si3 0.749399 0.166812 0.318990
Si Si4 0.500000 0.500000 0.500000
Si Si5 0.736023 0.652127 0.086057
Si Si6 0.422031 0.180984 0.274115
Si Si7 0.645057 0.425545 0.216519
Si Si8 0.123673 0.451544 0.322101
O O1 0.944070 0.964510 0.565226
O O2 0.877102 0.841190 0.621799
O O3 0.903449 0.945526 0.711127
O O4 0.018606 0.879474 0.651330
O O5 0.997390 0.363530 0.500000
O O6 0.083638 0.296753 0.597057
O O7 0.064439 0.436629 0.612808
O O8 0.953085 0.343412 0.645241
O O9 0.706909 0.206909 0.250000
O O10 0.728804 0.226962 0.382716
O O11 0.836281 0.145664 0.304146
O O12 0.702538 0.090645 0.337582
O O13 0.723070 0.660244 0.000000
O O14 0.335886 0.164115 0.250000
O O15 0.442479 0.267869 0.266765
O O16 0.465589 0.136907 0.208683
O O17 0.089483 0.410518 0.250000
#
# Coordination Sequence:
#
# PCOD9568632 Si02
#       8
#    16  16  16   4  16  16  16  16
#     4  12  24  43  66  89 132 172 221 272 330 397
#     4   9  18  36  63  90 119 162 216 261 331 397
#     4  10  18  35  64  94 120 159 221 267 317 389
#     4  12  28  46  64 100 128 178 222 270 336 406
#     4  10  19  38  64  90 123 167 205 270 334 390
#     4  11  22  36  58  94 130 166 214 273 331 389
#     4  12  24  41  68  96 124 177 223 273 322 399
#     4   8  17  33  57  84 118 161 207 259 318 389
#
# _framework density 20.522967999999999
#
# number of rings (size 3 to 8) (size 9 to 14) (size 15 to 20)
#    0.000    1.655    3.448    2.897    0.000    2.483 
#    1.241    1.379    9.103    0.000    0.000    0.000 
#    0.000    0.000    0.000    0.000    0.000    0.000 
#
# Total GULP energy -645981.202158 kJ/mol
# GULP energy per Si atom -5568.803467 kJ/mol
# Density = 2.047626 g / cm^3
# Si number density = 20.522968 Si / 1000 Ang^3
#
#
#
# Elastic Constant Matrix: (Units=GPa)
#
#
# Indices 1 2 3 4 5 6 
#
# 1 54.7475 15.0351 34.2171 0.0000 0.0000 0.0000
# 2 15.0351 54.7435 34.2175 0.0000 0.0000 0.0000
# 3 34.2171 34.2175 92.1387 0.0000 0.0000 0.0000
# 4 0.0000 0.0000 0.0000 20.8613 0.0000 0.0000
# 5 0.0000 0.0000 0.0000 0.0000 20.8612 0.0000
# 6 0.0000 0.0000 0.0000 0.0000 0.0000 23.8116
#
#
#
# Elastic Compliance Matrix: (Units=1/GPa)
#
#
# Indices 1 2 3 4 5 6 
#
# 1 0.023860 -0.001321 -0.008370 0.000000 0.000000 0.000000
# 2 -0.001321 0.023862 -0.008371 0.000000 0.000000 0.000000
# 3 -0.008370 -0.008371 0.017070 0.000000 0.000000 0.000000
# 4 0.000000 0.000000 0.000000 0.047936 0.000000 0.000000
# 5 0.000000 0.000000 0.000000 0.000000 0.047936 0.000000
# 6 0.000000 0.000000 0.000000 0.000000 0.000000 0.041996
#
#
# Mechanical properties :
#
#
# Convention : Reuss Voigt Hill
#
# Bulk Modulus (GPa) = 34.88257 40.95213 37.91735
# Shear Modulus (GPa) = 20.13361 20.98413 20.55887
#
# Velocity S-wave (km/s) = 3.13554 3.20108 3.16848
# Velocity P-wave (km/s) = 5.49022 5.80174 5.64813
#
# Compressibility (1/GPa) = 0.02866761
#
# Stress axis : x y z
#
# Youngs Moduli (GPa) = 41.91157 41.90720 58.58132
#
# Poissons Ratio (x) = 0.05537 0.49033
# Poissons Ratio (y) = 0.05538 0.49039
# Poissons Ratio (z) = 0.35080 0.35081
#
# Static dielectric constant tensor:
#      x y z
#    x 1.773580 0.000000 0.000000 
#    y 0.000000 1.773590 0.000000 
#    z 0.000000 0.000000 1.677510 
# 
# From -- ./inp_files/4610.got.cif
#   From: 2010.05.17/outbox.cif.g08.bks.cpg/sg135_3_cif.got.tgz:4610.got - 2010.05.20 12:50:20.
