data_PCOD9568082
_publ_section_title
;
Structure prediction by ZEFSAII (Michael W. Deem and Ramdas Pophale) SiO2 
 PCOD9568082
Probable space group: P 42/N N M
;
_chemical_formula_sum "Si O2"
_cell_formula_units_Z 88
_cell_length_a 18.533091
_cell_length_b 18.533091
_cell_length_c 14.167894
_cell_angle_alpha 90.000000
_cell_angle_beta 90.000000
_cell_angle_gamma 90.000000
_cell_volume 4866.323937
_symmetry_space_group_name_H-M "P 42/N N M"
_symmetry_group_IT_number 134
_space_group.IT_coordinate_system_code '2'
_symmetry_cell_setting 'tetragonal'
loop_
_space_group_symop_operation_xyz
x,y,z
1/2-y,x,1/2+z
1/2-x,1/2-y,z
y,1/2-x,1/2+z
x,1/2-y,1/2-z
1/2-x,y,1/2-z
y,x,-z
1/2-y,1/2-x,-z
-x,-y,-z
1/2+y,-x,1/2-z
1/2+x,1/2+y,-z
-y,1/2+x,1/2-z
-x,1/2+y,1/2+z
1/2+x,-y,1/2+z
-y,-x,z
1/2+y,1/2+x,z
loop_
_atom_site_type_symbol
_atom_site_label
_atom_site_fract_x
_atom_site_fract_y
_atom_site_fract_z
Si Si1 0.250000 0.559769 0.250000
Si Si2 0.889321 0.509941 0.731618
Si Si3 0.115874 0.495088 0.044201
Si Si4 0.503164 0.127532 0.295613
Si Si5 0.308569 0.691432 0.595697
Si Si6 0.689620 0.310381 0.629968
Si Si7 0.722444 0.472450 0.385602
O O1 0.190108 0.511500 0.301437
O O2 0.212499 0.614111 0.176002
O O3 0.879792 0.518794 0.844597
O O4 0.941563 0.441563 0.716220
O O5 0.932564 0.577913 0.691552
O O6 0.067133 0.567133 0.029825
O O7 0.069668 0.430333 0.000000
O O8 0.189199 0.505393 0.986069
O O9 0.572357 0.072357 0.296200
O O10 0.497064 0.168289 0.194684
O O11 0.508791 0.194063 0.368164
O O12 0.250000 0.750000 0.623538
O O13 0.312939 0.687061 0.482110
O O14 0.386871 0.714742 0.629082
O O15 0.750000 0.250000 0.651855
#
# Coordination Sequence:
#
# PCOD9568082 Si02
#       7
#     8  16  16  16   8   8  16
#     4  12  19  34  54  83 110 138 178 236 292 345
#     4  10  20  33  55  81 109 143 185 231 284 334
#     4  10  17  30  53  81 107 133 186 241 277 323
#     4  10  20  34  50  77 114 156 186 227 275 343
#     4  11  22  32  48  80 112 158 183 216 275 352
#     4  11  20  34  53  79 119 140 174 224 293 351
#     4  11  19  32  51  76 115 149 190 230 280 328
#
# _framework density 18.083466000000001
#
# number of rings (size 3 to 8) (size 9 to 14) (size 15 to 20)
#    0.000    1.455    5.455    1.636    0.000    0.000 
#    0.000    0.000    0.000    6.545    0.000   14.000 
#    0.000    0.000    0.000    0.000    0.000    0.000 
#
# Total GULP energy -491193.732104 kJ/mol
# GULP energy per Si atom -5581.746956 kJ/mol
# Density = 1.804231 g / cm^3
# Si number density = 18.083466 Si / 1000 Ang^3
#
#
#
# Elastic Constant Matrix: (Units=GPa)
#
#
# Indices 1 2 3 4 5 6 
#
# 1 115.3207 70.1641 13.6994 0.0000 0.0000 0.0000
# 2 70.1641 115.3192 13.7009 0.0000 0.0000 0.0000
# 3 13.6994 13.7009 24.5875 0.0000 0.0000 0.0000
# 4 0.0000 0.0000 0.0000 18.6942 0.0000 0.0000
# 5 0.0000 0.0000 0.0000 0.0000 18.6941 0.0000
# 6 0.0000 0.0000 0.0000 0.0000 0.0000 39.9747
#
#
#
# Elastic Compliance Matrix: (Units=1/GPa)
#
#
# Indices 1 2 3 4 5 6 
#
# 1 0.014010 -0.008135 -0.003273 0.000000 0.000000 0.000000
# 2 -0.008135 0.014010 -0.003274 0.000000 0.000000 0.000000
# 3 -0.003273 -0.003274 0.044319 0.000000 0.000000 0.000000
# 4 0.000000 0.000000 0.000000 0.053493 0.000000 0.000000
# 5 0.000000 0.000000 0.000000 0.000000 0.053493 0.000000
# 6 0.000000 0.000000 0.000000 0.000000 0.000000 0.025016
#
#
# Mechanical properties :
#
#
# Convention : Reuss Voigt Hill
#
# Bulk Modulus (GPa) = 23.26943 50.03960 36.65451
# Shear Modulus (GPa) = 20.15883 25.98346 23.07115
#
# Velocity S-wave (km/s) = 3.34243 3.79471 3.57573
# Velocity P-wave (km/s) = 5.27177 6.85064 6.11240
#
# Compressibility (1/GPa) = 0.04297484
#
# Stress axis : x y z
#
# Youngs Moduli (GPa) = 71.37763 71.37549 22.56369
#
# Poissons Ratio (x) = 0.58066 0.07384
# Poissons Ratio (y) = 0.58068 0.07388
# Poissons Ratio (z) = 0.23359 0.23370
#
# Static dielectric constant tensor:
#      x y z
#    x 1.634430 0.000000 0.000000 
#    y 0.000000 1.634430 0.000000 
#    z 0.000000 0.000000 1.651210 
# 
# From -- ./inp_files/6517.got.cif
#   From: 2010.05.17/outbox.cif.g08.bks.cpg/sg134_4_cif.got.tgz:6517.got - 2010.05.20 12:42:49.
