data_PCOD9568990
_publ_section_title
;
Structure prediction by ZEFSAII (Michael W. Deem and Ramdas Pophale) SiO2 
 PCOD9568990
Probable space group: P 42/M B C
;
_chemical_formula_sum "Si O2"
_cell_formula_units_Z 52
_cell_length_a 13.262997
_cell_length_b 13.262997
_cell_length_c 10.481641
_cell_angle_alpha 90.000000
_cell_angle_beta 90.000000
_cell_angle_gamma 90.000000
_cell_volume 1843.794961
_symmetry_space_group_name_H-M "P 42/M B C"
_symmetry_group_IT_number 135
_symmetry_cell_setting 'tetragonal'
loop_
_space_group_symop_operation_xyz
x,y,z
-y,x,1/2+z
-x,-y,z
y,-x,1/2+z
1/2+x,1/2-y,-z
1/2-x,1/2+y,-z
1/2+y,1/2+x,1/2-z
1/2-y,1/2-x,1/2-z
-x,-y,-z
y,-x,1/2-z
x,y,-z
-y,x,1/2-z
1/2-x,1/2+y,z
1/2+x,1/2-y,z
1/2-y,1/2-x,1/2+z
1/2+y,1/2+x,1/2+z
loop_
_atom_site_type_symbol
_atom_site_label
_atom_site_fract_x
_atom_site_fract_y
_atom_site_fract_z
Si Si1 0.124921 0.071595 0.290688
Si Si2 0.779474 0.035844 0.000000
Si Si3 0.619969 0.051508 0.500000
Si Si4 0.500000 0.000000 0.750000
Si Si5 0.335573 0.698820 0.000000
Si Si6 0.217350 0.717350 0.250000
O O1 0.239698 0.104804 0.271759
O O2 0.043918 0.099189 0.176148
O O3 0.155763 0.920113 0.115973
O O4 0.795252 0.915734 0.000000
O O5 0.661953 0.064436 0.000000
O O6 0.586954 0.005373 0.361253
O O7 0.740511 0.059578 0.500000
O O8 0.281415 0.744465 0.125796
#
# Coordination Sequence:
#
# PCOD9568990 Si02
#       6
#    16   8   8   4   8   8
#     4  11  25  45  76 110 155 201 265 334 393 475
#     4  12  25  45  75 117 153 201 271 321 396 473
#     4  11  24  48  79 105 168 198 267 321 384 489
#     4  10  26  48  72 114 144 218 252 322 388 452
#     4  12  25  44  81 108 156 205 250 327 394 461
#     4  12  23  47  74 114 150 210 248 324 404 473
#
# _framework density 28.202701000000001
#
# number of rings (size 3 to 8) (size 9 to 14) (size 15 to 20)
#    0.000    0.615    6.154    0.923    0.000    4.923 
#    0.000    0.000    0.000    0.923    0.000    0.000 
#    0.000    0.000    0.000    0.000    0.000    0.000 
#
# Total GULP energy -289531.097025 kJ/mol
# GULP energy per Si atom -5567.905712 kJ/mol
# Density = 2.813851 g / cm^3
# Si number density = 28.202701 Si / 1000 Ang^3
#
#
#
# Elastic Constant Matrix: (Units=GPa)
#
#
# Indices 1 2 3 4 5 6 
#
# 1 160.4274 92.0418 23.0155 0.0000 0.0000 0.0000
# 2 92.0418 160.4274 23.0155 0.0000 0.0000 0.0000
# 3 23.0155 23.0155 177.5522 0.0000 0.0000 0.0000
# 4 0.0000 0.0000 0.0000 34.4427 0.0000 0.0000
# 5 0.0000 0.0000 0.0000 0.0000 34.4427 0.0000
# 6 0.0000 0.0000 0.0000 0.0000 0.0000 56.9220
#
#
#
# Elastic Compliance Matrix: (Units=1/GPa)
#
#
# Indices 1 2 3 4 5 6 
#
# 1 0.009340 -0.005283 -0.000526 0.000000 0.000000 0.000000
# 2 -0.005283 0.009340 -0.000526 0.000000 0.000000 0.000000
# 3 -0.000526 -0.000526 0.005768 0.000000 0.000000 0.000000
# 4 0.000000 0.000000 0.000000 0.029034 0.000000 0.000000
# 5 0.000000 0.000000 0.000000 0.000000 0.029034 0.000000
# 6 0.000000 0.000000 0.000000 0.000000 0.000000 0.017568
#
#
# Mechanical properties :
#
#
# Convention : Reuss Voigt Hill
#
# Bulk Modulus (GPa) = 84.90018 86.06138 85.48078
# Shear Modulus (GPa) = 42.85249 49.18378 46.01814
#
# Velocity S-wave (km/s) = 3.90224 4.18058 4.04380
# Velocity P-wave (km/s) = 7.10438 7.34061 7.22346
#
# Compressibility (1/GPa) = 0.01177854
#
# Stress axis : x y z
#
# Youngs Moduli (GPa) = 107.06797 107.06797 173.35594
#
# Poissons Ratio (x) = 0.56565 0.09116
# Poissons Ratio (y) = 0.56565 0.09116
# Poissons Ratio (z) = 0.05630 0.05630
#
# Static dielectric constant tensor:
#      x y z
#    x 2.197610 0.000000 0.000000 
#    y 0.000000 2.197610 0.000000 
#    z 0.000000 0.000000 1.347860 
# 
# From -- ./inp_files/2128.got.cif
#   From: 2010.05.17/outbox.cif.g08.bks.cpg/sg135_2_cif.got.tgz:2128.got - 2010.05.20 12:50:20.
