data_PCOD9568992
_publ_section_title
;
Structure prediction by ZEFSAII (Michael W. Deem and Ramdas Pophale) SiO2 
 PCOD9568992
Probable space group: P 42/M B C
;
_chemical_formula_sum "Si O2"
_cell_formula_units_Z 56
_cell_length_a 15.175867
_cell_length_b 15.175867
_cell_length_c 10.034412
_cell_angle_alpha 90.000000
_cell_angle_beta 90.000000
_cell_angle_gamma 90.000000
_cell_volume 2310.994714
_symmetry_space_group_name_H-M "P 42/M B C"
_symmetry_group_IT_number 135
_symmetry_cell_setting 'tetragonal'
loop_
_space_group_symop_operation_xyz
x,y,z
-y,x,1/2+z
-x,-y,z
y,-x,1/2+z
1/2+x,1/2-y,-z
1/2-x,1/2+y,-z
1/2+y,1/2+x,1/2-z
1/2-y,1/2-x,1/2-z
-x,-y,-z
y,-x,1/2-z
x,y,-z
-y,x,1/2-z
1/2-x,1/2+y,z
1/2+x,1/2-y,z
1/2-y,1/2-x,1/2+z
1/2+y,1/2+x,1/2+z
loop_
_atom_site_type_symbol
_atom_site_label
_atom_site_fract_x
_atom_site_fract_y
_atom_site_fract_z
Si Si1 0.886609 0.462405 0.000000
Si Si2 0.500000 0.000000 0.750000
Si Si3 0.109767 0.157871 0.500000
Si Si4 0.683509 0.587337 0.292913
Si Si5 0.272996 0.023494 0.500000
Si Si6 0.000000 0.000000 0.750000
Si Si7 0.081613 0.813680 0.500000
O O1 0.921013 0.502051 0.140503
O O2 0.782599 0.456746 0.000000
O O3 0.926148 0.363811 0.000000
O O4 0.112401 0.205036 0.357370
O O5 0.191359 0.091396 0.500000
O O6 0.006452 0.123546 0.500000
O O7 0.760278 0.539573 0.372680
O O8 0.599654 0.519518 0.302526
O O9 0.643674 0.668843 0.374355
#
# Coordination Sequence:
#
# PCOD9568992 Si02
#       7
#     8   4   8  16   8   4   8
#     4  11  28  52  80 100 138 194 254 315 352 436
#     4  10  28  54  80  98 116 182 256 292 364 428
#     4  12  20  35  61 110 134 193 222 299 344 452
#     4  11  22  34  63 104 146 189 229 295 355 446
#     4  11  23  43  68 101 146 186 245 297 381 417
#     4  12  16  34  56  98 144 186 216 262 356 450
#     4  11  23  43  67 103 148 188 245 301 377 425
#
# _framework density 24.231988999999999
#
# number of rings (size 3 to 8) (size 9 to 14) (size 15 to 20)
#    0.000    0.857    5.714    0.000    8.000    2.857 
#    0.000    5.714    0.000    0.000    0.000    0.000 
#    0.000    0.000    0.000    0.000    0.000    0.000 
#
# Total GULP energy -312477.882307 kJ/mol
# GULP energy per Si atom -5579.962184 kJ/mol
# Density = 2.417684 g / cm^3
# Si number density = 24.231989 Si / 1000 Ang^3
#
#
#
# Elastic Constant Matrix: (Units=GPa)
#
#
# Indices 1 2 3 4 5 6 
#
# 1 94.1017 17.0557 47.7972 0.0000 0.0000 0.0000
# 2 17.0557 94.1017 47.7972 0.0000 0.0000 0.0000
# 3 47.7972 47.7972 242.7503 0.0000 0.0000 0.0000
# 4 0.0000 0.0000 0.0000 17.6224 0.0000 0.0000
# 5 0.0000 0.0000 0.0000 0.0000 17.6224 0.0000
# 6 0.0000 0.0000 0.0000 0.0000 0.0000 27.8927
#
#
#
# Elastic Compliance Matrix: (Units=1/GPa)
#
#
# Indices 1 2 3 4 5 6 
#
# 1 0.011905 -0.001075 -0.002132 0.000000 0.000000 0.000000
# 2 -0.001075 0.011905 -0.002132 0.000000 0.000000 0.000000
# 3 -0.002132 -0.002132 0.004959 0.000000 0.000000 0.000000
# 4 0.000000 0.000000 0.000000 0.056746 0.000000 0.000000
# 5 0.000000 0.000000 0.000000 0.000000 0.056746 0.000000
# 6 0.000000 0.000000 0.000000 0.000000 0.000000 0.035852
#
#
# Mechanical properties :
#
#
# Convention : Reuss Voigt Hill
#
# Bulk Modulus (GPa) = 55.28003 72.91712 64.09857
# Shear Modulus (GPa) = 25.66463 33.84776 29.75619
#
# Velocity S-wave (km/s) = 3.25795 3.74146 3.50804
# Velocity P-wave (km/s) = 6.08397 6.98722 6.55118
#
# Compressibility (1/GPa) = 0.01808972
#
# Stress axis : x y z
#
# Youngs Moduli (GPa) = 84.00046 84.00046 201.64501
#
# Poissons Ratio (x) = 0.09026 0.43000
# Poissons Ratio (y) = 0.09026 0.43000
# Poissons Ratio (z) = 0.17913 0.17913
#
# Static dielectric constant tensor:
#      x y z
#    x 1.942250 0.000000 0.000000 
#    y 0.000000 1.942250 0.000000 
#    z 0.000000 0.000000 2.040180 
# 
# From -- ./inp_files/2138.got.cif
#   From: 2010.05.17/outbox.cif.g08.bks.cpg/sg135_2_cif.got.tgz:2138.got - 2010.05.20 12:50:20.
