data_PCOD9568380
_publ_section_title
;
Structure prediction by ZEFSAII (Michael W. Deem and Ramdas Pophale) SiO2 
 PCOD9568380
Probable space group: P 42/N N M
;
_chemical_formula_sum "Si O2"
_cell_formula_units_Z 112
_cell_length_a 14.955156
_cell_length_b 14.955156
_cell_length_c 25.382146
_cell_angle_alpha 90.000000
_cell_angle_beta 90.000000
_cell_angle_gamma 90.000000
_cell_volume 5676.886784
_symmetry_space_group_name_H-M "P 42/N N M"
_symmetry_group_IT_number 134
_space_group.IT_coordinate_system_code '2'
_symmetry_cell_setting 'tetragonal'
loop_
_space_group_symop_operation_xyz
x,y,z
1/2-y,x,1/2+z
1/2-x,1/2-y,z
y,1/2-x,1/2+z
x,1/2-y,1/2-z
1/2-x,y,1/2-z
y,x,-z
1/2-y,1/2-x,-z
-x,-y,-z
1/2+y,-x,1/2-z
1/2+x,1/2+y,-z
-y,1/2+x,1/2-z
-x,1/2+y,1/2+z
1/2+x,-y,1/2+z
-y,-x,z
1/2+y,1/2+x,z
loop_
_atom_site_type_symbol
_atom_site_label
_atom_site_fract_x
_atom_site_fract_y
_atom_site_fract_z
Si Si1 0.421655 0.261916 0.373213
Si Si2 0.632594 0.987586 0.037166
Si Si3 0.011257 0.840497 0.727566
Si Si4 0.747988 0.101871 0.537867
Si Si5 0.974655 0.168729 0.864877
Si Si6 0.641628 0.673407 0.207175
Si Si7 0.093632 0.049767 0.943162
O O1 0.416229 0.334411 0.419364
O O2 0.482162 0.312007 0.330603
O O3 0.343137 0.216252 0.338539
O O4 0.462603 0.179010 0.405857
O O5 0.572484 0.072484 0.057280
O O6 0.567957 0.932043 0.000000
O O7 0.716387 0.028502 0.003726
O O8 0.054892 0.750000 0.750000
O O9 0.076398 0.923603 0.729635
O O10 0.921816 0.859051 0.762082
O O11 0.821442 0.178559 0.534779
O O12 0.652563 0.152563 0.528689
O O13 0.745356 0.064481 0.597514
O O14 0.893680 0.106321 0.844405
O O15 0.046742 0.192601 0.820718
O O16 0.029414 0.110223 0.907309
O O17 0.657899 0.750000 0.250000
O O18 0.098881 0.098881 0.000000
O O19 0.043380 0.956621 0.952442
#
# Coordination Sequence:
#
# PCOD9568380 Si02
#       7
#    16  16  16  16  16  16  16
#     4  10  21  36  57  81 111 149 192 236 287 345
#     4  10  21  37  56  83 119 155 189 227 281 357
#     4  10  22  40  61  84 114 151 193 244 297 349
#     4   9  18  34  58  89 122 152 186 233 288 350
#     4   9  17  32  56  83 112 148 190 235 288 349
#     4  10  22  40  60  82 111 149 199 254 304 349
#     4   9  17  31  54  84 116 147 181 225 277 336
#
# _framework density 19.729123000000001
#
# number of rings (size 3 to 8) (size 9 to 14) (size 15 to 20)
#    0.000    2.429    0.000    1.714    0.000    9.000 
#    0.000    5.714    0.000    7.714    0.000    0.000 
#    0.000    0.000    0.000    0.000    0.000    0.000 
#
# Total GULP energy -623609.671270 kJ/mol
# GULP energy per Si atom -5567.943493 kJ/mol
# Density = 1.968422 g / cm^3
# Si number density = 19.729123 Si / 1000 Ang^3
#
#
#
# Elastic Constant Matrix: (Units=GPa)
#
#
# Indices 1 2 3 4 5 6 
#
# 1 70.9705 46.1781 50.1887 0.0000 0.0000 0.0000
# 2 46.1781 70.9747 50.1884 0.0000 0.0000 0.0000
# 3 50.1887 50.1884 120.1976 0.0000 0.0000 0.0000
# 4 0.0000 0.0000 0.0000 28.0706 0.0000 0.0000
# 5 0.0000 0.0000 0.0000 0.0000 28.0707 0.0000
# 6 0.0000 0.0000 0.0000 0.0000 0.0000 14.2298
#
#
#
# Elastic Compliance Matrix: (Units=1/GPa)
#
#
# Indices 1 2 3 4 5 6 
#
# 1 0.026813 -0.013520 -0.005550 0.000000 0.000000 0.000000
# 2 -0.013520 0.026810 -0.005549 0.000000 0.000000 0.000000
# 3 -0.005550 -0.005549 0.012954 0.000000 0.000000 0.000000
# 4 0.000000 0.000000 0.000000 0.035624 0.000000 0.000000
# 5 0.000000 0.000000 0.000000 0.000000 0.035624 0.000000
# 6 0.000000 0.000000 0.000000 0.000000 0.000000 0.070275
#
#
# Mechanical properties :
#
#
# Convention : Reuss Voigt Hill
#
# Bulk Modulus (GPa) = 57.67812 61.69480 59.68646
# Shear Modulus (GPa) = 19.00278 21.78006 20.39142
#
# Velocity S-wave (km/s) = 3.10689 3.32619 3.21841
# Velocity P-wave (km/s) = 6.49375 6.78897 6.64300
#
# Compressibility (1/GPa) = 0.01733760
#
# Stress axis : x y z
#
# Youngs Moduli (GPa) = 37.29596 37.29926 77.19509
#
# Poissons Ratio (x) = 0.50430 0.42845
# Poissons Ratio (y) = 0.50425 0.42837
# Poissons Ratio (z) = 0.20700 0.20698
#
# Static dielectric constant tensor:
#      x y z
#    x 1.774590 0.000000 0.000000 
#    y 0.000000 1.774590 0.000000 
#    z 0.000000 0.000000 1.707100 
# 
# From -- ./inp_files/10093.got.cif
#   From: 2010.05.17/outbox.cif.g08.bks.cpg/sg134_6_cif.got.tgz:10093.got - 2010.05.20 12:42:49.
