data_PCOD9568359
_publ_section_title
;
Structure prediction by ZEFSAII (Michael W. Deem and Ramdas Pophale) SiO2 
 PCOD9568359
Probable space group: P 42/N N M
;
_chemical_formula_sum "Si O2"
_cell_formula_units_Z 96
_cell_length_a 14.073744
_cell_length_b 14.073744
_cell_length_c 23.783005
_cell_angle_alpha 90.000000
_cell_angle_beta 90.000000
_cell_angle_gamma 90.000000
_cell_volume 4710.706226
_symmetry_space_group_name_H-M "P 42/N N M"
_symmetry_group_IT_number 134
_space_group.IT_coordinate_system_code '2'
_symmetry_cell_setting 'tetragonal'
loop_
_space_group_symop_operation_xyz
x,y,z
1/2-y,x,1/2+z
1/2-x,1/2-y,z
y,1/2-x,1/2+z
x,1/2-y,1/2-z
1/2-x,y,1/2-z
y,x,-z
1/2-y,1/2-x,-z
-x,-y,-z
1/2+y,-x,1/2-z
1/2+x,1/2+y,-z
-y,1/2+x,1/2-z
-x,1/2+y,1/2+z
1/2+x,-y,1/2+z
-y,-x,z
1/2+y,1/2+x,z
loop_
_atom_site_type_symbol
_atom_site_label
_atom_site_fract_x
_atom_site_fract_y
_atom_site_fract_z
Si Si1 0.248574 0.088380 0.001065
Si Si2 0.475664 0.132029 0.828086
Si Si3 0.644252 0.507717 0.401210
Si Si4 0.429970 0.779932 0.688929
Si Si5 0.192983 0.530046 0.389452
Si Si6 0.427741 0.089388 0.706309
O O1 0.273532 0.027017 0.946157
O O2 0.156924 0.156924 0.000000
O O3 0.339870 0.160131 0.000000
O O4 0.229285 0.015463 0.052342
O O5 0.545276 0.213929 0.850702
O O6 0.433855 0.145185 0.765493
O O7 0.536003 0.036003 0.825497
O O8 0.395774 0.105776 0.874230
O O9 0.556948 0.443053 0.424351
O O10 0.692378 0.451294 0.350435
O O11 0.395763 0.750000 0.750000
O O12 0.354621 0.854621 0.664139
O O13 0.529276 0.833152 0.700184
O O14 0.144913 0.447920 0.351105
O O15 0.118883 0.618883 0.395025
O O16 0.513241 0.013241 0.708791
#
# Coordination Sequence:
#
# PCOD9568359 Si02
#       6
#    16  16  16  16  16  16
#     4  11  24  43  65  90 126 167 219 275 321 388
#     4  10  20  38  62  91 127 164 209 266 336 406
#     4  11  23  40  64  93 129 174 213 262 336 398
#     4  11  21  36  60  93 129 167 210 258 319 397
#     4  11  23  40  64  91 121 167 222 274 330 386
#     4   9  19  37  61  90 128 167 205 262 335 399
#
# _framework density 20.379109
#
# number of rings (size 3 to 8) (size 9 to 14) (size 15 to 20)
#    0.000    1.500    3.333    2.000    0.000    3.500 
#    0.000    0.000    0.000    3.000    0.000    0.000 
#    0.000    0.000    0.000    0.000    0.000    0.000 
#
# Total GULP energy -534801.562763 kJ/mol
# GULP energy per Si atom -5570.849612 kJ/mol
# Density = 2.033273 g / cm^3
# Si number density = 20.379109 Si / 1000 Ang^3
#
#
#
# Elastic Constant Matrix: (Units=GPa)
#
#
# Indices 1 2 3 4 5 6 
#
# 1 74.9545 18.1546 41.5779 0.0000 0.0000 0.0000
# 2 18.1546 74.9541 41.5780 0.0000 0.0000 0.0000
# 3 41.5779 41.5780 116.2121 0.0000 0.0000 0.0000
# 4 0.0000 0.0000 0.0000 18.9843 0.0000 0.0000
# 5 0.0000 0.0000 0.0000 0.0000 18.9843 0.0000
# 6 0.0000 0.0000 0.0000 0.0000 0.0000 19.5057
#
#
#
# Elastic Compliance Matrix: (Units=1/GPa)
#
#
# Indices 1 2 3 4 5 6 
#
# 1 0.016695 -0.000911 -0.005647 0.000000 0.000000 0.000000
# 2 -0.000911 0.016695 -0.005647 0.000000 0.000000 0.000000
# 3 -0.005647 -0.005647 0.012646 0.000000 0.000000 0.000000
# 4 0.000000 0.000000 0.000000 0.052675 0.000000 0.000000
# 5 0.000000 0.000000 0.000000 0.000000 0.052675 0.000000
# 6 0.000000 0.000000 0.000000 0.000000 0.000000 0.051267
#
#
# Mechanical properties :
#
#
# Convention : Reuss Voigt Hill
#
# Bulk Modulus (GPa) = 46.24338 52.08242 49.16290
# Shear Modulus (GPa) = 21.34286 22.48220 21.91253
#
# Velocity S-wave (km/s) = 3.23970 3.32505 3.28265
# Velocity P-wave (km/s) = 6.06094 6.35244 6.20840
#
# Compressibility (1/GPa) = 0.02162472
#
# Stress axis : x y z
#
# Youngs Moduli (GPa) = 59.89989 59.89953 79.07861
#
# Poissons Ratio (x) = 0.05458 0.44655
# Poissons Ratio (y) = 0.05458 0.44655
# Poissons Ratio (z) = 0.33825 0.33825
#
# Static dielectric constant tensor:
#      x y z
#    x 1.775440 0.000000 0.000000 
#    y 0.000000 1.775430 0.000000 
#    z 0.000000 0.000000 1.752660 
# 
# From -- ./inp_files/9108.got.cif
#   From: 2010.05.17/outbox.cif.g08.bks.cpg/sg134_5_cif.got.tgz:9108.got - 2010.05.20 12:42:49.
