data_PCOD9568696
_publ_section_title
;
Structure prediction by ZEFSAII (Michael W. Deem and Ramdas Pophale) SiO2 
 PCOD9568696
Probable space group: P 42/M B C
;
_chemical_formula_sum "Si O2"
_cell_formula_units_Z 112
_cell_length_a 16.008405
_cell_length_b 16.008405
_cell_length_c 21.976457
_cell_angle_alpha 90.000000
_cell_angle_beta 90.000000
_cell_angle_gamma 90.000000
_cell_volume 5631.885332
_symmetry_space_group_name_H-M "P 42/M B C"
_symmetry_group_IT_number 135
_symmetry_cell_setting 'tetragonal'
loop_
_space_group_symop_operation_xyz
x,y,z
-y,x,1/2+z
-x,-y,z
y,-x,1/2+z
1/2+x,1/2-y,-z
1/2-x,1/2+y,-z
1/2+y,1/2+x,1/2-z
1/2-y,1/2-x,1/2-z
-x,-y,-z
y,-x,1/2-z
x,y,-z
-y,x,1/2-z
1/2-x,1/2+y,z
1/2+x,1/2-y,z
1/2-y,1/2-x,1/2+z
1/2+y,1/2+x,1/2+z
loop_
_atom_site_type_symbol
_atom_site_label
_atom_site_fract_x
_atom_site_fract_y
_atom_site_fract_z
Si Si1 0.609063 0.074111 0.570975
Si Si2 0.127235 0.058860 0.261101
Si Si3 0.690846 0.591107 0.567542
Si Si4 0.109443 0.628408 0.926993
Si Si5 0.759519 0.062055 0.929457
Si Si6 0.279831 0.593033 0.142863
Si Si7 0.177161 0.091750 0.399564
O O1 0.585063 0.072523 0.500000
O O2 0.709577 0.081354 0.573211
O O3 0.576715 0.164278 0.593906
O O4 0.589013 0.979937 0.592942
O O5 0.200241 0.082555 0.213589
O O6 0.156960 0.084352 0.328098
O O7 0.040237 0.105655 0.243696
O O8 0.671705 0.623680 0.500000
O O9 0.661766 0.657708 0.616532
O O10 0.649949 0.499294 0.574788
O O11 0.187143 0.605929 0.883883
O O12 0.097756 0.726500 0.917227
O O13 0.122941 0.612946 0.000000
O O14 0.822711 0.138922 0.924950
O O15 0.805184 0.992986 0.889486
O O16 0.753878 0.037160 0.000000
#
# Coordination Sequence:
#
# PCOD9568696 Si02
#       7
#    16  16  16  16  16  16  16
#     4   8  18  36  57  81 123 164 188 241 320 385
#     4  11  23  43  60  83 126 172 211 255 316 383
#     4  10  19  34  56  87 120 157 201 260 326 376
#     4  10  21  39  62  92 123 157 206 265 327 386
#     4  11  21  34  56  93 126 158 204 258 325 393
#     4  12  23  36  59  88 122 166 209 262 311 384
#     4  11  21  38  62  85 118 168 211 260 314 383
#
# _framework density 19.886769999999999
#
# number of rings (size 3 to 8) (size 9 to 14) (size 15 to 20)
#    0.000    1.571    2.857    4.286    0.000    2.857 
#    0.000    3.571    0.000    3.429    0.000    4.000 
#    0.000    0.000    0.000    0.000    0.000    0.000 
#
# Total GULP energy -624319.607311 kJ/mol
# GULP energy per Si atom -5574.282208 kJ/mol
# Density = 1.984151 g / cm^3
# Si number density = 19.886770 Si / 1000 Ang^3
#
#
#
# Elastic Constant Matrix: (Units=GPa)
#
#
# Indices 1 2 3 4 5 6 
#
# 1 77.7353 24.3943 17.1386 0.0000 0.0000 0.0000
# 2 24.3943 77.7353 17.1386 0.0000 0.0000 0.0000
# 3 17.1386 17.1386 97.4224 0.0000 0.0000 0.0000
# 4 0.0000 0.0000 0.0000 17.4909 0.0000 0.0000
# 5 0.0000 0.0000 0.0000 0.0000 17.4909 0.0000
# 6 0.0000 0.0000 0.0000 0.0000 0.0000 -2.7409
#
#
#
# Elastic Compliance Matrix: (Units=1/GPa)
#
#
# Indices 1 2 3 4 5 6 
#
# 1 0.014577 -0.004171 -0.001831 0.000000 0.000000 0.000000
# 2 -0.004171 0.014577 -0.001831 0.000000 0.000000 0.000000
# 3 -0.001831 -0.001831 0.010909 0.000000 0.000000 0.000000
# 4 0.000000 0.000000 0.000000 0.057173 0.000000 0.000000
# 5 0.000000 0.000000 0.000000 0.000000 0.057173 0.000000
# 6 0.000000 0.000000 0.000000 0.000000 0.000000 -0.364844
#
#
# Mechanical properties :
#
#
# Convention : Reuss Voigt Hill
#
# Bulk Modulus (GPa) = 40.98697 41.13731 41.06214
# Shear Modulus (GPa) = -26.78956 19.39627 -3.69665
#
# Velocity S-wave (km/s) = -3.67427 3.12642 -1.36487
# Velocity P-wave (km/s) = 1.62927 5.81063 4.26719
#
# Compressibility (1/GPa) = 0.02439800
#
# Stress axis : x y z
#
# Youngs Moduli (GPa) = 68.60313 68.60313 91.67032
#
# Poissons Ratio (x) = 0.28612 0.16781
# Poissons Ratio (y) = 0.28612 0.16781
# Poissons Ratio (z) = 0.12559 0.12559
#
# Static dielectric constant tensor:
#      x y z
#    x 1.752960 0.000000 0.000000 
#    y 0.000000 1.752960 0.000000 
#    z 0.000000 0.000000 1.679520 
# 
# From -- ./inp_files/6099.got.cif
#   From: 2010.05.17/outbox.cif.g08.bks.cpg/sg135_4_cif.got.tgz:6099.got - 2010.05.20 12:50:20.
