data_PCOD9568423
_publ_section_title
;
Structure prediction by ZEFSAII (Michael W. Deem and Ramdas Pophale) SiO2 
 PCOD9568423
Probable space group: P 42/N N M
;
_chemical_formula_sum "Si O2"
_cell_formula_units_Z 64
_cell_length_a 14.360314
_cell_length_b 14.360314
_cell_length_c 15.537323
_cell_angle_alpha 90.000000
_cell_angle_beta 90.000000
_cell_angle_gamma 90.000000
_cell_volume 3204.085279
_symmetry_space_group_name_H-M "P 42/N N M"
_symmetry_group_IT_number 134
_space_group.IT_coordinate_system_code '2'
_symmetry_cell_setting 'tetragonal'
loop_
_space_group_symop_operation_xyz
x,y,z
1/2-y,x,1/2+z
1/2-x,1/2-y,z
y,1/2-x,1/2+z
x,1/2-y,1/2-z
1/2-x,y,1/2-z
y,x,-z
1/2-y,1/2-x,-z
-x,-y,-z
1/2+y,-x,1/2-z
1/2+x,1/2+y,-z
-y,1/2+x,1/2-z
-x,1/2+y,1/2+z
1/2+x,-y,1/2+z
-y,-x,z
1/2+y,1/2+x,z
loop_
_atom_site_type_symbol
_atom_site_label
_atom_site_fract_x
_atom_site_fract_y
_atom_site_fract_z
Si Si1 0.652526 0.003696 0.936710
Si Si2 0.525292 0.878431 0.675701
Si Si3 0.317961 0.532406 0.171754
Si Si4 0.054573 0.332826 0.126903
O O1 0.567047 0.067047 0.903451
O O2 0.750481 0.044770 0.908714
O O3 0.643106 0.899718 0.895479
O O4 0.647114 0.001361 0.039551
O O5 0.519933 0.865148 0.779481
O O6 0.555078 0.779224 0.635818
O O7 0.428800 0.928800 0.647362
O O8 0.607478 0.951338 0.657684
O O9 0.250000 0.508709 0.250000
O O10 0.375183 0.624818 0.192383
#
# Coordination Sequence:
#
# PCOD9568423 Si02
#       4
#    16  16  16  16
#     4  11  22  39  63  89 121 161 207 252 302 365
#     4  10  21  40  63  89 121 157 200 251 308 366
#     4  11  23  39  61  89 123 161 202 251 307 366
#     4  10  21  38  64  89 117 161 203 252 305 361
#
# _framework density 19.974499999999999
#
# number of rings (size 3 to 8) (size 9 to 14) (size 15 to 20)
#    0.000    1.500    2.500    3.750    0.000    4.750 
#    0.000    5.000    0.000   20.250    0.000    0.000 
#    0.000    0.000    0.000    0.000    0.000    0.000 
#
# Total GULP energy -356486.455919 kJ/mol
# GULP energy per Si atom -5570.100874 kJ/mol
# Density = 1.992904 g / cm^3
# Si number density = 19.974500 Si / 1000 Ang^3
#
#
#
# Elastic Constant Matrix: (Units=GPa)
#
#
# Indices 1 2 3 4 5 6 
#
# 1 7.4187 136.7967 20.3687 0.0000 0.0000 0.0000
# 2 136.7967 7.4187 20.3687 0.0000 0.0000 0.0000
# 3 20.3687 20.3687 60.1484 0.0000 0.0000 0.0000
# 4 0.0000 0.0000 0.0000 16.6462 0.0000 0.0000
# 5 0.0000 0.0000 0.0000 0.0000 16.6462 0.0000
# 6 0.0000 0.0000 0.0000 0.0000 0.0000 9.3445
#
#
#
# Elastic Compliance Matrix: (Units=1/GPa)
#
#
# Indices 1 2 3 4 5 6 
#
# 1 -0.000031 0.007698 -0.002597 0.000000 0.000000 0.000000
# 2 0.007698 -0.000031 -0.002597 0.000000 0.000000 0.000000
# 3 -0.002597 -0.002597 0.018384 0.000000 0.000000 0.000000
# 4 0.000000 0.000000 0.000000 0.060074 0.000000 0.000000
# 5 0.000000 0.000000 0.000000 0.000000 0.060074 0.000000
# 6 0.000000 0.000000 0.000000 0.000000 0.000000 0.107015
#
#
# Mechanical properties :
#
#
# Convention : Reuss Voigt Hill
#
# Bulk Modulus (GPa) = 42.85771 47.78381 45.32076
# Shear Modulus (GPa) = 20.14084 1.69083 10.91584
#
# Velocity S-wave (km/s) = 3.17886 0.92105 2.34025
# Velocity P-wave (km/s) = 5.91408 5.01053 5.48096
#
# Compressibility (1/GPa) = 0.02333303
#
# Stress axis : x y z
#
# Youngs Moduli (GPa) = -32383.19097 -32383.19097 54.39476
#
# Poissons Ratio (x) = 249.29906 0.14124
# Poissons Ratio (y) = 249.29906 0.14124
# Poissons Ratio (z) = -84.08422 -84.08422
#
# Static dielectric constant tensor:
#      x y z
#    x 1.719300 0.000000 0.000000 
#    y 0.000000 1.719300 0.000000 
#    z 0.000000 0.000000 1.754360 
# 
# From -- ./inp_files/6127.got.cif
#   From: 2010.05.17/outbox.cif.g08.bks.cpg/sg134_4_cif.got.tgz:6127.got - 2010.05.20 12:42:49.
