data_PCOD9568627
_publ_section_title
;
Structure prediction by ZEFSAII (Michael W. Deem and Ramdas Pophale) SiO2 
 PCOD9568627
Probable space group: P 42/M B C
;
_chemical_formula_sum "Si O2"
_cell_formula_units_Z 116
_cell_length_a 17.809125
_cell_length_b 17.809125
_cell_length_c 16.795725
_cell_angle_alpha 90.000000
_cell_angle_beta 90.000000
_cell_angle_gamma 90.000000
_cell_volume 5327.014999
_symmetry_space_group_name_H-M "P 42/M B C"
_symmetry_group_IT_number 135
_symmetry_cell_setting 'tetragonal'
loop_
_space_group_symop_operation_xyz
x,y,z
-y,x,1/2+z
-x,-y,z
y,-x,1/2+z
1/2+x,1/2-y,-z
1/2-x,1/2+y,-z
1/2+y,1/2+x,1/2-z
1/2-y,1/2-x,1/2-z
-x,-y,-z
y,-x,1/2-z
x,y,-z
-y,x,1/2-z
1/2-x,1/2+y,z
1/2+x,1/2-y,z
1/2-y,1/2-x,1/2+z
1/2+y,1/2+x,1/2+z
loop_
_atom_site_type_symbol
_atom_site_label
_atom_site_fract_x
_atom_site_fract_y
_atom_site_fract_z
Si Si1 0.296789 0.072222 0.778331
Si Si2 0.000000 0.000000 0.750000
Si Si3 0.959388 0.627958 0.179838
Si Si4 0.577457 0.275862 0.091208
Si Si5 0.256643 0.677966 0.090766
Si Si6 0.150394 0.057326 0.672952
Si Si7 0.212796 0.851388 0.911598
Si Si8 0.146006 0.457956 0.089993
O O1 0.285396 0.146750 0.830905
O O2 0.214617 0.056546 0.741225
O O3 0.353332 0.044646 0.706761
O O4 0.325697 0.018200 0.847725
O O5 0.072523 0.022970 0.700274
O O6 0.912570 0.587431 0.250000
O O7 0.924930 0.707703 0.153824
O O8 0.937404 0.573050 0.108059
O O9 0.652953 0.324425 0.103475
O O10 0.498985 0.318512 0.104989
O O11 0.581690 0.247366 0.000000
O O12 0.232588 0.764146 0.087385
O O13 0.241848 0.647098 0.000000
O O14 0.137428 0.143113 0.646693
O O15 0.291211 0.893195 0.897310
O O16 0.187371 0.875068 0.000000
O O17 0.150560 0.484102 0.000000
#
# Coordination Sequence:
#
# PCOD9568627 Si02
#       8
#    16   4  16  16  16  16  16  16
#     4  10  21  34  51  85 118 153 189 239 300 361
#     4  12  24  40  54  76 128 172 200 246 300 372
#     4   9  18  31  51  81 114 143 190 241 296 356
#     4  10  19  35  57  81 113 156 201 243 292 352
#     4  10  20  36  57  83 117 154 198 246 298 352
#     4  11  23  38  55  82 122 161 206 244 298 361
#     4  10  21  37  58  85 115 154 206 257 300 351
#     4  10  18  34  58  84 115 150 197 251 299 355
#
# _framework density 21.775797000000001
#
# number of rings (size 3 to 8) (size 9 to 14) (size 15 to 20)
#    0.000    1.931    1.379    2.897    0.000    2.759 
#    0.000    2.759    0.000    0.000    0.000   47.310 
#    0.000   69.517    0.000    0.000    0.000    0.000 
#
# Total GULP energy -646447.539098 kJ/mol
# GULP energy per Si atom -5572.823613 kJ/mol
# Density = 2.172623 g / cm^3
# Si number density = 21.775797 Si / 1000 Ang^3
#
#
#
# Elastic Constant Matrix: (Units=GPa)
#
#
# Indices 1 2 3 4 5 6 
#
# 1 57.9018 7.1280 18.0949 0.0000 0.0000 0.0000
# 2 7.1280 57.9028 18.0964 0.0000 0.0000 0.0000
# 3 18.0949 18.0964 59.3474 0.0000 0.0000 0.0000
# 4 0.0000 0.0000 0.0000 -128.4802 0.0000 0.0000
# 5 0.0000 0.0000 0.0000 0.0000 -127.9224 0.0000
# 6 0.0000 0.0000 0.0000 0.0000 0.0000 -36.9311
#
#
#
# Elastic Compliance Matrix: (Units=1/GPa)
#
#
# Indices 1 2 3 4 5 6 
#
# 1 0.019108 -0.000587 -0.005647 0.000000 0.000000 0.000000
# 2 -0.000587 0.019108 -0.005647 0.000000 0.000000 0.000000
# 3 -0.005647 -0.005647 0.020294 0.000000 0.000000 0.000000
# 4 0.000000 0.000000 0.000000 -0.007783 0.000000 0.000000
# 5 0.000000 0.000000 0.000000 0.000000 -0.007817 0.000000
# 6 0.000000 0.000000 0.000000 0.000000 0.000000 -0.027077
#
#
# Mechanical properties :
#
#
# Convention : Reuss Voigt Hill
#
# Bulk Modulus (GPa) = 28.78034 29.08785 28.93410
# Shear Modulus (GPa) = 97.70288 -49.87789 23.91249
#
# Velocity S-wave (km/s) = 6.70560 -4.79113 3.31739
# Velocity P-wave (km/s) = 8.55563 4.14966 5.29051
#
# Compressibility (1/GPa) = 0.03474594
#
# Stress axis : x y z
#
# Youngs Moduli (GPa) = 52.33518 52.33531 49.27666
#
# Poissons Ratio (x) = 0.03074 0.27825
# Poissons Ratio (y) = 0.03074 0.27828
# Poissons Ratio (z) = 0.29552 0.29555
#
# Static dielectric constant tensor:
#      x y z
#    x 1.836820 0.000000 0.000000 
#    y 0.000000 1.836820 0.000000 
#    z 0.000000 0.000000 1.657380 
# 
# From -- ./inp_files/4600.got.cif
#   From: 2010.05.17/outbox.cif.g08.bks.cpg/sg135_3_cif.got.tgz:4600.got - 2010.05.20 12:50:20.
