data_PCOD9568026
_publ_section_title
;
Structure prediction by ZEFSAII (Michael W. Deem and Ramdas Pophale) SiO2 
 PCOD9568026
Probable space group: P 42/N B C
;
_chemical_formula_sum "Si O2"
_cell_formula_units_Z 36
_cell_length_a 8.788846
_cell_length_b 8.788846
_cell_length_c 18.981879
_cell_angle_alpha 90.000000
_cell_angle_beta 90.000000
_cell_angle_gamma 90.000000
_cell_volume 1466.232731
_symmetry_space_group_name_H-M "P 42/N B C"
_symmetry_group_IT_number 133
_space_group.IT_coordinate_system_code '2'
_symmetry_cell_setting 'tetragonal'
loop_
_space_group_symop_operation_xyz
x,y,z
1/2-y,x,1/2+z
1/2-x,1/2-y,z
y,1/2-x,1/2+z
x,1/2-y,-z
1/2-x,y,-z
y,x,1/2-z
1/2-y,1/2-x,1/2-z
-x,-y,-z
1/2+y,-x,1/2-z
1/2+x,1/2+y,-z
-y,1/2+x,1/2-z
-x,1/2+y,z
1/2+x,-y,z
-y,-x,1/2+z
1/2+y,1/2+x,1/2+z
loop_
_atom_site_type_symbol
_atom_site_label
_atom_site_fract_x
_atom_site_fract_y
_atom_site_fract_z
Si Si1 0.542893 0.288747 0.918908
Si Si2 0.303459 0.000871 0.135579
Si Si3 0.750000 0.750000 0.250000
O O1 0.380544 0.364959 0.908708
O O2 0.581491 0.145611 0.867933
O O3 0.658879 0.422360 0.898800
O O4 0.566443 0.250000 0.000000
O O5 0.259022 0.091206 0.206248
#
# Coordination Sequence:
#
# PCOD9568026 Si02
#       3
#    16  16   4
#     4  11  25  48  80 115 145 193 254 320 389 439
#     4  11  25  46  74 107 151 196 245 309 370 456
#     4  12  28  48  70 106 152 210 252 298 384 464
#
# _framework density 24.552719
#
# number of rings (size 3 to 8) (size 9 to 14) (size 15 to 20)
#    0.000    0.889    0.000    6.667    0.000   10.667 
#    0.000   13.333    0.000    0.000    0.000    0.000 
#    0.000    0.000    0.000    0.000    0.000    0.000 
#
# Total GULP energy -201194.601709 kJ/mol
# GULP energy per Si atom -5588.738936 kJ/mol
# Density = 2.449684 g / cm^3
# Si number density = 24.552719 Si / 1000 Ang^3
#
#
#
# Elastic Constant Matrix: (Units=GPa)
#
#
# Indices 1 2 3 4 5 6 
#
# 1 115.8065 163.2743 85.4993 0.0000 0.0000 0.0000
# 2 163.2743 115.8065 85.4993 0.0000 0.0000 0.0000
# 3 85.4993 85.4993 160.5190 0.0000 0.0000 0.0000
# 4 0.0000 0.0000 0.0000 29.5956 0.0000 0.0000
# 5 0.0000 0.0000 0.0000 0.0000 29.5956 0.0000
# 6 0.0000 0.0000 0.0000 0.0000 0.0000 80.2503
#
#
#
# Elastic Compliance Matrix: (Units=1/GPa)
#
#
# Indices 1 2 3 4 5 6 
#
# 1 -0.007874 0.013193 -0.002833 0.000000 0.000000 0.000000
# 2 0.013193 -0.007874 -0.002833 0.000000 0.000000 0.000000
# 3 -0.002833 -0.002833 0.009248 0.000000 0.000000 0.000000
# 4 0.000000 0.000000 0.000000 0.033789 0.000000 0.000000
# 5 0.000000 0.000000 0.000000 0.000000 0.033789 0.000000
# 6 0.000000 0.000000 0.000000 0.000000 0.000000 0.012461
#
#
# Mechanical properties :
#
#
# Convention : Reuss Voigt Hill
#
# Bulk Modulus (GPa) = 116.91201 117.85311 117.38256
# Shear Modulus (GPa) = 81.51703 31.74555 56.63129
#
# Velocity S-wave (km/s) = 5.76827 3.59967 4.80783
# Velocity P-wave (km/s) = 9.59604 8.08585 8.87313
#
# Compressibility (1/GPa) = 0.00855344
#
# Stress axis : x y z
#
# Youngs Moduli (GPa) = -127.00222 -127.00222 108.13173
#
# Poissons Ratio (x) = 1.67555 0.30636
# Poissons Ratio (y) = 1.67555 0.30636
# Poissons Ratio (z) = -0.35982 -0.35982
#
# Static dielectric constant tensor:
#      x y z
#    x 1.977220 0.000000 0.000000 
#    y 0.000000 1.977220 0.000000 
#    z 0.000000 0.000000 1.936870 
# 
# From -- ./inp_files/5838.got.cif
#   From: 2010.05.17/outbox.cif.g08.bks.cpg/sg133_3_cif.got.tgz:5838.got - 2010.05.20 12:37:36.
