data_PCOD9568073
_publ_section_title
;
Structure prediction by ZEFSAII (Michael W. Deem and Ramdas Pophale) SiO2 
 PCOD9568073
Probable space group: P 42/N N M
;
_chemical_formula_sum "Si O2"
_cell_formula_units_Z 96
_cell_length_a 21.928532
_cell_length_b 21.928532
_cell_length_c 9.528988
_cell_angle_alpha 90.000000
_cell_angle_beta 90.000000
_cell_angle_gamma 90.000000
_cell_volume 4582.114084
_symmetry_space_group_name_H-M "P 42/N N M"
_symmetry_group_IT_number 134
_space_group.IT_coordinate_system_code '2'
_symmetry_cell_setting 'tetragonal'
loop_
_space_group_symop_operation_xyz
x,y,z
1/2-y,x,1/2+z
1/2-x,1/2-y,z
y,1/2-x,1/2+z
x,1/2-y,1/2-z
1/2-x,y,1/2-z
y,x,-z
1/2-y,1/2-x,-z
-x,-y,-z
1/2+y,-x,1/2-z
1/2+x,1/2+y,-z
-y,1/2+x,1/2-z
-x,1/2+y,1/2+z
1/2+x,-y,1/2+z
-y,-x,z
1/2+y,1/2+x,z
loop_
_atom_site_type_symbol
_atom_site_label
_atom_site_fract_x
_atom_site_fract_y
_atom_site_fract_z
Si Si1 0.515313 0.805550 0.999765
Si Si2 0.618877 0.479242 0.927893
Si Si3 0.309275 0.904440 0.194215
Si Si4 0.624751 0.473016 0.247575
Si Si5 0.399790 0.425190 0.294022
Si Si6 0.208696 0.141837 0.616243
O O1 0.460447 0.784822 0.099173
O O2 0.536820 0.867940 0.081018
O O3 0.484314 0.820298 0.852307
O O4 0.579173 0.771403 0.966057
O O5 0.551403 0.448598 0.934593
O O6 0.656792 0.435800 0.825326
O O7 0.619276 0.544040 0.851685
O O8 0.642283 0.481124 0.085768
O O9 0.250000 0.869841 0.250000
O O10 0.359258 0.859258 0.126594
O O11 0.590745 0.409256 0.265825
O O12 0.578011 0.527484 0.287845
O O13 0.376285 0.356917 0.317534
O O14 0.250000 0.157492 0.750000
O O15 0.193431 0.193431 0.500000
#
# Coordination Sequence:
#
# PCOD9568073 Si02
#       6
#    16  16  16  16  16  16
#     4   9  19  33  50  77 111 142 180 229 281 336
#     4   9  18  31  47  74 112 145 176 221 277 336
#     4  10  21  37  55  76 107 146 189 236 284 338
#     4  10  17  26  46  76 110 145 176 213 271 340
#     4   9  17  29  46  73 110 146 179 217 272 336
#     4   9  18  33  55  86 119 151 192 240 290 347
#
# _framework density 20.951028999999998
#
# number of rings (size 3 to 8) (size 9 to 14) (size 15 to 20)
#    0.000    2.667    0.000    3.000    0.000    6.833 
#    0.000    0.000    0.000    0.000    0.000    7.000 
#    0.000  103.333    0.000    0.000    0.000    0.000 
#
# Total GULP energy -534970.095462 kJ/mol
# GULP energy per Si atom -5572.605161 kJ/mol
# Density = 2.090334 g / cm^3
# Si number density = 20.951029 Si / 1000 Ang^3
#
#
#
# Elastic Constant Matrix: (Units=GPa)
#
#
# Indices 1 2 3 4 5 6 
#
# 1 46.4852 26.1203 27.5049 0.0000 0.0000 0.0000
# 2 26.1203 46.4852 27.5049 0.0000 0.0000 0.0000
# 3 27.5049 27.5049 140.4886 0.0000 0.0000 0.0000
# 4 0.0000 0.0000 0.0000 25.8517 0.0000 0.0000
# 5 0.0000 0.0000 0.0000 0.0000 25.8517 0.0000
# 6 0.0000 0.0000 0.0000 0.0000 0.0000 8.5168
#
#
#
# Elastic Compliance Matrix: (Units=1/GPa)
#
#
# Indices 1 2 3 4 5 6 
#
# 1 0.032638 -0.016466 -0.003166 0.000000 0.000000 0.000000
# 2 -0.016466 0.032638 -0.003166 0.000000 0.000000 0.000000
# 3 -0.003166 -0.003166 0.008358 0.000000 0.000000 0.000000
# 4 0.000000 0.000000 0.000000 0.038682 0.000000 0.000000
# 5 0.000000 0.000000 0.000000 0.000000 0.038682 0.000000
# 6 0.000000 0.000000 0.000000 0.000000 0.000000 0.117415
#
#
# Mechanical properties :
#
#
# Convention : Reuss Voigt Hill
#
# Bulk Modulus (GPa) = 35.66718 43.96880 39.81799
# Shear Modulus (GPa) = 15.46287 22.19929 18.83108
#
# Velocity S-wave (km/s) = 2.71965 3.25865 3.00128
# Velocity P-wave (km/s) = 5.18874 5.93215 5.57286
#
# Compressibility (1/GPa) = 0.02803698
#
# Stress axis : x y z
#
# Youngs Moduli (GPa) = 30.63914 30.63914 119.64937
#
# Poissons Ratio (x) = 0.50451 0.37883
# Poissons Ratio (y) = 0.50451 0.37883
# Poissons Ratio (z) = 0.09701 0.09701
#
# Static dielectric constant tensor:
#      x y z
#    x 1.790150 0.000000 0.000000 
#    y 0.000000 1.790150 0.000000 
#    z 0.000000 0.000000 1.763170 
# 
# From -- ./inp_files/3205.got.cif
#   From: 2010.05.17/outbox.cif.g08.bks.cpg/sg134_2_cif.got.tgz:3205.got - 2010.05.20 12:42:49.
