data_PCOD9568611
_publ_section_title
;
Structure prediction by ZEFSAII (Michael W. Deem and Ramdas Pophale) SiO2 
 PCOD9568611
Probable space group: P 42/M B C
;
_chemical_formula_sum "Si O2"
_cell_formula_units_Z 96
_cell_length_a 12.443564
_cell_length_b 12.443564
_cell_length_c 28.330593
_cell_angle_alpha 90.000000
_cell_angle_beta 90.000000
_cell_angle_gamma 90.000000
_cell_volume 4386.773756
_symmetry_space_group_name_H-M "P 42/M B C"
_symmetry_group_IT_number 135
_symmetry_cell_setting 'tetragonal'
loop_
_space_group_symop_operation_xyz
x,y,z
-y,x,1/2+z
-x,-y,z
y,-x,1/2+z
1/2+x,1/2-y,-z
1/2-x,1/2+y,-z
1/2+y,1/2+x,1/2-z
1/2-y,1/2-x,1/2-z
-x,-y,-z
y,-x,1/2-z
x,y,-z
-y,x,1/2-z
1/2-x,1/2+y,z
1/2+x,1/2-y,z
1/2-y,1/2-x,1/2+z
1/2+y,1/2+x,1/2+z
loop_
_atom_site_type_symbol
_atom_site_label
_atom_site_fract_x
_atom_site_fract_y
_atom_site_fract_z
Si Si1 0.910076 0.855498 0.249938
Si Si2 0.658787 0.169796 0.389976
Si Si3 0.973778 0.837016 0.553532
Si Si4 0.480570 0.660945 0.911962
Si Si5 0.546386 0.136722 0.798253
Si Si6 0.244271 0.138839 0.334981
O O1 0.918490 0.758620 0.214146
O O2 0.029841 0.873676 0.270571
O O3 0.826464 0.828063 0.290357
O O4 0.573652 0.232454 0.421579
O O5 0.727214 0.081376 0.418268
O O6 0.604836 0.112817 0.344573
O O7 0.743311 0.258912 0.369348
O O8 0.011051 0.818796 0.500000
O O9 0.066952 0.892542 0.584509
O O10 0.878490 0.926224 0.553010
O O11 0.547205 0.678056 0.863681
O O12 0.575005 0.075005 0.750000
O O13 0.421653 0.150577 0.814481
#
# Coordination Sequence:
#
# PCOD9568611 Si02
#       6
#    16  16  16  16  16  16
#     4   9  17  27  46  76 104 138 182 226 272 315
#     4  10  20  34  54  84 112 146 182 229 284 337
#     4  10  21  37  59  86 111 138 181 235 293 348
#     4   9  19  35  57  83 111 138 178 233 287 333
#     4  10  18  31  47  75 110 149 185 226 262 321
#     4   9  18  31  49  76 112 144 184 226 275 325
#
# _framework density 21.883966000000001
#
# number of rings (size 3 to 8) (size 9 to 14) (size 15 to 20)
#    0.000    2.500    1.667    1.000    0.000   16.000 
#    0.000    0.000    0.000    9.000    4.333   11.667 
#    0.000    0.000    0.000    0.000    0.000    0.000 
#
# Total GULP energy -535290.024005 kJ/mol
# GULP energy per Si atom -5575.937750 kJ/mol
# Density = 2.183416 g / cm^3
# Si number density = 21.883966 Si / 1000 Ang^3
#
#
#
# Elastic Constant Matrix: (Units=GPa)
#
#
# Indices 1 2 3 4 5 6 
#
# 1 44.2578 19.6439 15.3405 0.0000 0.0000 0.0000
# 2 19.6439 44.2578 15.3405 0.0000 0.0000 0.0000
# 3 15.3405 15.3405 61.6109 0.0000 0.0000 0.0000
# 4 0.0000 0.0000 0.0000 8.7414 0.0000 0.0000
# 5 0.0000 0.0000 0.0000 0.0000 8.7414 0.0000
# 6 0.0000 0.0000 0.0000 0.0000 0.0000 35.0846
#
#
#
# Elastic Compliance Matrix: (Units=1/GPa)
#
#
# Indices 1 2 3 4 5 6 
#
# 1 0.029201 -0.011427 -0.004426 0.000000 0.000000 0.000000
# 2 -0.011427 0.029201 -0.004426 0.000000 0.000000 0.000000
# 3 -0.004426 -0.004426 0.018435 0.000000 0.000000 0.000000
# 4 0.000000 0.000000 0.000000 0.114398 0.000000 0.000000
# 5 0.000000 0.000000 0.000000 0.000000 0.114398 0.000000
# 6 0.000000 0.000000 0.000000 0.000000 0.000000 0.028503
#
#
# Mechanical properties :
#
#
# Convention : Reuss Voigt Hill
#
# Bulk Modulus (GPa) = 27.56313 27.86404 27.71358
# Shear Modulus (GPa) = 12.92714 17.16693 15.04704
#
# Velocity S-wave (km/s) = 2.43310 2.80385 2.62502
# Velocity P-wave (km/s) = 4.52943 4.82103 4.67750
#
# Compressibility (1/GPa) = 0.03628036
#
# Stress axis : x y z
#
# Youngs Moduli (GPa) = 34.24576 34.24576 54.24554
#
# Poissons Ratio (x) = 0.39132 0.24006
# Poissons Ratio (y) = 0.39132 0.24006
# Poissons Ratio (z) = 0.15155 0.15155
#
# Static dielectric constant tensor:
#      x y z
#    x 1.849910 0.000000 0.000000 
#    y 0.000000 1.849910 0.000000 
#    z 0.000000 0.000000 1.783040 
# 
# From -- ./inp_files/6849.got.cif
#   From: 2010.05.17/outbox.cif.g08.bks.cpg/sg135_4_cif.got.tgz:6849.got - 2010.05.20 12:50:20.
