data_PCOD9568254
_publ_section_title
;
Structure prediction by ZEFSAII (Michael W. Deem and Ramdas Pophale) SiO2 
 PCOD9568254
Probable space group: P 42/N N M
;
_chemical_formula_sum "Si O2"
_cell_formula_units_Z 96
_cell_length_a 19.087510
_cell_length_b 19.087510
_cell_length_c 17.990250
_cell_angle_alpha 90.000000
_cell_angle_beta 90.000000
_cell_angle_gamma 90.000000
_cell_volume 6554.442437
_symmetry_space_group_name_H-M "P 42/N N M"
_symmetry_group_IT_number 134
_space_group.IT_coordinate_system_code '2'
_symmetry_cell_setting 'tetragonal'
loop_
_space_group_symop_operation_xyz
x,y,z
1/2-y,x,1/2+z
1/2-x,1/2-y,z
y,1/2-x,1/2+z
x,1/2-y,1/2-z
1/2-x,y,1/2-z
y,x,-z
1/2-y,1/2-x,-z
-x,-y,-z
1/2+y,-x,1/2-z
1/2+x,1/2+y,-z
-y,1/2+x,1/2-z
-x,1/2+y,1/2+z
1/2+x,-y,1/2+z
-y,-x,z
1/2+y,1/2+x,z
loop_
_atom_site_type_symbol
_atom_site_label
_atom_site_fract_x
_atom_site_fract_y
_atom_site_fract_z
Si Si1 0.352528 0.378532 0.582368
Si Si2 0.665553 0.760219 0.333163
Si Si3 0.360108 0.527874 0.866941
Si Si4 0.614052 0.683904 0.929001
Si Si5 0.379321 0.769934 0.836234
Si Si6 0.883357 0.002924 0.305408
O O1 0.385220 0.385220 0.500000
O O2 0.364040 0.299818 0.613120
O O3 0.268284 0.386862 0.573734
O O4 0.377973 0.433787 0.644476
O O5 0.750000 0.750000 0.333231
O O6 0.639531 0.750000 0.250000
O O7 0.655579 0.838628 0.361258
O O8 0.432834 0.567167 0.880387
O O9 0.343775 0.464223 0.921042
O O10 0.299235 0.586894 0.871297
O O11 0.362176 0.498027 0.781869
O O12 0.655311 0.655311 0.000000
O O13 0.365905 0.750000 0.750000
O O14 0.309801 0.809801 0.864837
O O15 0.441413 0.827044 0.836974
O O16 0.958505 0.041496 0.308848
#
# Coordination Sequence:
#
# PCOD9568254 Si02
#       6
#    16  16  16  16  16  16
#     4  11  19  30  48  67  90 120 154 193 235 273
#     4   9  18  28  44  65  84 116 155 192 234 268
#     4  10  20  32  48  68  92 125 155 184 229 278
#     4  11  20  32  46  64  93 119 153 201 231 267
#     4   9  16  27  44  66  91 117 145 179 217 262
#     4   9  18  31  47  69  95 121 150 184 226 277
#
# _framework density 14.646554999999999
#
# number of rings (size 3 to 8) (size 9 to 14) (size 15 to 20)
#    0.000    2.167    3.333    2.500    0.000    3.167 
#    0.000    0.000    0.000    0.000    0.000    0.000 
#    0.000    0.000    0.000    0.000    0.000    0.000 
#
# Total GULP energy -534565.141341 kJ/mol
# GULP energy per Si atom -5568.386889 kJ/mol
# Density = 1.461322 g / cm^3
# Si number density = 14.646555 Si / 1000 Ang^3
#
#
#
# Elastic Constant Matrix: (Units=GPa)
#
#
# Indices 1 2 3 4 5 6 
#
# 1 46.3739 26.1211 3.1662 0.0000 0.0000 0.0000
# 2 26.1211 46.3739 3.1662 0.0000 0.0000 0.0000
# 3 3.1662 3.1662 28.1389 0.0000 0.0000 0.0000
# 4 0.0000 0.0000 0.0000 16.0045 0.0000 0.0000
# 5 0.0000 0.0000 0.0000 0.0000 16.0045 0.0000
# 6 0.0000 0.0000 0.0000 0.0000 0.0000 11.6064
#
#
#
# Elastic Compliance Matrix: (Units=1/GPa)
#
#
# Indices 1 2 3 4 5 6 
#
# 1 0.031654 -0.017723 -0.001568 0.000000 0.000000 0.000000
# 2 -0.017723 0.031654 -0.001568 0.000000 0.000000 0.000000
# 3 -0.001568 -0.001568 0.035891 0.000000 0.000000 0.000000
# 4 0.000000 0.000000 0.000000 0.062483 0.000000 0.000000
# 5 0.000000 0.000000 0.000000 0.000000 0.062483 0.000000
# 6 0.000000 0.000000 0.000000 0.000000 0.000000 0.086159
#
#
# Mechanical properties :
#
#
# Convention : Reuss Voigt Hill
#
# Bulk Modulus (GPa) = 17.39657 20.64373 19.02015
# Shear Modulus (GPa) = 13.46990 14.61861 14.04426
#
# Velocity S-wave (km/s) = 3.03589 3.16269 3.09993
# Velocity P-wave (km/s) = 4.91855 5.24042 5.08203
#
# Compressibility (1/GPa) = 0.05748261
#
# Stress axis : x y z
#
# Youngs Moduli (GPa) = 31.59208 31.59208 27.86238
#
# Poissons Ratio (x) = 0.55989 0.04367
# Poissons Ratio (y) = 0.55989 0.04367
# Poissons Ratio (z) = 0.04952 0.04952
#
# Static dielectric constant tensor:
#      x y z
#    x 1.488810 0.000000 0.000000 
#    y 0.000000 1.488810 0.000000 
#    z 0.000000 0.000000 1.487350 
# 
# From -- ./inp_files/9283.got.cif
#   From: 2010.05.17/outbox.cif.g08.bks.cpg/sg134_5_cif.got.tgz:9283.got - 2010.05.20 12:42:49.
