data_PCOD9568811
_publ_section_title
;
Structure prediction by ZEFSAII (Michael W. Deem and Ramdas Pophale) SiO2 
 PCOD9568811
Probable space group: P 42/M B C
;
_chemical_formula_sum "Si O2"
_cell_formula_units_Z 96
_cell_length_a 14.869304
_cell_length_b 14.869304
_cell_length_c 19.499080
_cell_angle_alpha 90.000000
_cell_angle_beta 90.000000
_cell_angle_gamma 90.000000
_cell_volume 4311.172520
_symmetry_space_group_name_H-M "P 42/M B C"
_symmetry_group_IT_number 135
_symmetry_cell_setting 'tetragonal'
loop_
_space_group_symop_operation_xyz
x,y,z
-y,x,1/2+z
-x,-y,z
y,-x,1/2+z
1/2+x,1/2-y,-z
1/2-x,1/2+y,-z
1/2+y,1/2+x,1/2-z
1/2-y,1/2-x,1/2-z
-x,-y,-z
y,-x,1/2-z
x,y,-z
-y,x,1/2-z
1/2-x,1/2+y,z
1/2+x,1/2-y,z
1/2-y,1/2-x,1/2+z
1/2+y,1/2+x,1/2+z
loop_
_atom_site_type_symbol
_atom_site_label
_atom_site_fract_x
_atom_site_fract_y
_atom_site_fract_z
Si Si1 0.557847 0.135672 0.078314
Si Si2 0.122714 0.286489 0.682976
Si Si3 0.094501 0.617207 0.824437
Si Si4 0.069535 0.800641 0.671394
Si Si5 0.605830 0.677523 0.819108
Si Si6 0.454328 0.644952 0.920880
O O1 0.637271 0.104754 0.127885
O O2 0.466540 0.096117 0.110743
O O3 0.559132 0.245918 0.080328
O O4 0.569644 0.108900 0.000000
O O5 0.164533 0.335468 0.750000
O O6 0.189239 0.208778 0.657061
O O7 0.034094 0.223899 0.686459
O O8 0.073502 0.573502 0.750000
O O9 0.200391 0.608937 0.837819
O O10 0.070174 0.721105 0.812390
O O11 0.106529 0.850567 0.739445
O O12 0.094833 0.867183 0.609796
O O13 0.540296 0.627198 0.871404
O O14 0.471080 0.620041 0.000000
#
# Coordination Sequence:
#
# PCOD9568811 Si02
#       6
#    16  16  16  16  16  16
#     4  10  22  40  62  90 124 162 210 265 326 399
#     4  12  23  38  63  91 125 168 216 272 330 395
#     4   9  18  36  61  87 118 163 216 267 321 390
#     4  11  22  37  62  92 127 168 214 271 333 401
#     4  10  20  38  63  88 118 162 220 271 321 391
#     4  10  22  41  63  91 126 163 210 269 332 400
#
# _framework density 22.267724999999999
#
# number of rings (size 3 to 8) (size 9 to 14) (size 15 to 20)
#    0.000    1.667    0.000    7.500    0.000    3.333 
#    0.000   10.000    0.000    0.000    0.000    0.000 
#    0.000    0.000    0.000    0.000    0.000    0.000 
#
# Total GULP energy -535538.597626 kJ/mol
# GULP energy per Si atom -5578.527059 kJ/mol
# Density = 2.221704 g / cm^3
# Si number density = 22.267725 Si / 1000 Ang^3
#
#
#
# Elastic Constant Matrix: (Units=GPa)
#
#
# Indices 1 2 3 4 5 6 
#
# 1 102.8172 23.6265 66.6649 0.0000 0.0000 0.0000
# 2 23.6265 102.8171 66.6648 0.0000 0.0000 0.0000
# 3 66.6649 66.6648 161.4773 0.0000 0.0000 0.0000
# 4 0.0000 0.0000 0.0000 25.2730 0.0000 0.0000
# 5 0.0000 0.0000 0.0000 0.0000 25.2730 0.0000
# 6 0.0000 0.0000 0.0000 0.0000 0.0000 29.4331
#
#
#
# Elastic Compliance Matrix: (Units=1/GPa)
#
#
# Indices 1 2 3 4 5 6 
#
# 1 0.013317 0.000689 -0.005782 0.000000 0.000000 0.000000
# 2 0.000689 0.013317 -0.005782 0.000000 0.000000 0.000000
# 3 -0.005782 -0.005782 0.010967 0.000000 0.000000 0.000000
# 4 0.000000 0.000000 0.000000 0.039568 0.000000 0.000000
# 5 0.000000 0.000000 0.000000 0.000000 0.039568 0.000000
# 6 0.000000 0.000000 0.000000 0.000000 0.000000 0.033975
#
#
# Mechanical properties :
#
#
# Convention : Reuss Voigt Hill
#
# Bulk Modulus (GPa) = 63.09210 75.66934 69.38072
# Shear Modulus (GPa) = 28.13008 30.00619 29.06813
#
# Velocity S-wave (km/s) = 3.55810 3.67484 3.61694
# Velocity P-wave (km/s) = 6.72867 7.21535 6.97626
#
# Compressibility (1/GPa) = 0.01584984
#
# Stress axis : x y z
#
# Youngs Moduli (GPa) = 75.09347 75.09348 91.18195
#
# Poissons Ratio (x) = -0.05174 0.52723
# Poissons Ratio (y) = -0.05174 0.52723
# Poissons Ratio (z) = 0.43420 0.43420
#
# Static dielectric constant tensor:
#      x y z
#    x 1.958480 0.000000 0.000000 
#    y 0.000000 1.958480 0.000000 
#    z 0.000000 0.000000 1.816270 
# 
# From -- ./inp_files/5483.got.cif
#   From: 2010.05.17/outbox.cif.g08.bks.cpg/sg135_3_cif.got.tgz:5483.got - 2010.05.20 12:50:20.
