data_PCOD9568065
_publ_section_title
;
Structure prediction by ZEFSAII (Michael W. Deem and Ramdas Pophale) SiO2 
 PCOD9568065
Probable space group: P 42/N N M
;
_chemical_formula_sum "Si O2"
_cell_formula_units_Z 56
_cell_length_a 10.738923
_cell_length_b 10.738923
_cell_length_c 25.719805
_cell_angle_alpha 90.000000
_cell_angle_beta 90.000000
_cell_angle_gamma 90.000000
_cell_volume 2966.122808
_symmetry_space_group_name_H-M "P 42/N N M"
_symmetry_group_IT_number 134
_space_group.IT_coordinate_system_code '2'
_symmetry_cell_setting 'tetragonal'
loop_
_space_group_symop_operation_xyz
x,y,z
1/2-y,x,1/2+z
1/2-x,1/2-y,z
y,1/2-x,1/2+z
x,1/2-y,1/2-z
1/2-x,y,1/2-z
y,x,-z
1/2-y,1/2-x,-z
-x,-y,-z
1/2+y,-x,1/2-z
1/2+x,1/2+y,-z
-y,1/2+x,1/2-z
-x,1/2+y,1/2+z
1/2+x,-y,1/2+z
-y,-x,z
1/2+y,1/2+x,z
loop_
_atom_site_type_symbol
_atom_site_label
_atom_site_fract_x
_atom_site_fract_y
_atom_site_fract_z
Si Si1 0.950181 0.836486 0.948784
Si Si2 0.402314 0.597687 0.521786
Si Si3 0.150794 0.849207 0.408032
Si Si4 0.539726 0.250000 0.750000
Si Si5 0.678954 0.535922 0.860107
O O1 0.022243 0.706395 0.950147
O O2 0.872402 0.854091 0.895863
O O3 0.864976 0.864976 0.000000
O O4 0.056249 0.943752 0.950358
O O5 0.500000 0.500000 0.500000
O O6 0.344207 0.655794 0.469646
O O7 0.250000 0.750000 0.385804
O O8 0.019436 0.800619 0.388584
O O9 0.634088 0.365913 0.738025
O O10 0.457186 0.213835 0.700251
O O11 0.569828 0.430173 0.862660
#
# Coordination Sequence:
#
# PCOD9568065 Si02
#       5
#    16   8   8   8  16
#     4  10  19  33  53  74 105 147 193 229 272 340
#     4  12  24  34  48  74 108 152 188 227 283 338
#     4  10  16  30  50  74 108 146 187 217 274 336
#     4   9  14  22  42  78 119 142 172 225 289 344
#     4   9  16  26  46  76 111 146 183 231 278 335
#
# _framework density 18.879864999999999
#
# number of rings (size 3 to 8) (size 9 to 14) (size 15 to 20)
#    0.000    2.143    4.286    1.286    0.000    0.571 
#    0.000    0.000    0.000    0.000    0.000    4.000 
#    0.000    0.000   15.143    0.000    2.857    0.000 
#
# Total GULP energy -312164.070714 kJ/mol
# GULP energy per Si atom -5574.358406 kJ/mol
# Density = 1.883689 g / cm^3
# Si number density = 18.879865 Si / 1000 Ang^3
#
#
#
# Elastic Constant Matrix: (Units=GPa)
#
#
# Indices 1 2 3 4 5 6 
#
# 1 61.4822 63.1934 62.2441 0.0000 0.0000 0.0000
# 2 63.1934 61.4822 62.2441 0.0000 0.0000 0.0000
# 3 62.2441 62.2441 156.3279 0.0000 0.0000 0.0000
# 4 0.0000 0.0000 0.0000 12.9335 0.0000 0.0000
# 5 0.0000 0.0000 0.0000 0.0000 12.9335 0.0000
# 6 0.0000 0.0000 0.0000 0.0000 0.0000 33.3638
#
#
#
# Elastic Compliance Matrix: (Units=1/GPa)
#
#
# Indices 1 2 3 4 5 6 
#
# 1 -0.285549 0.298863 -0.005301 0.000000 0.000000 0.000000
# 2 0.298863 -0.285549 -0.005301 0.000000 0.000000 0.000000
# 3 -0.005301 -0.005301 0.010618 0.000000 0.000000 0.000000
# 4 0.000000 0.000000 0.000000 0.077318 0.000000 0.000000
# 5 0.000000 0.000000 0.000000 0.000000 0.077318 0.000000
# 6 0.000000 0.000000 0.000000 0.000000 0.000000 0.029973
#
#
# Mechanical properties :
#
#
# Convention : Reuss Voigt Hill
#
# Bulk Modulus (GPa) = 62.33771 72.73949 67.53860
# Shear Modulus (GPa) = -5.27958 17.95357 6.33699
#
# Velocity S-wave (km/s) = -1.67406 3.08707 1.83406
# Velocity P-wave (km/s) = 5.41785 7.16365 6.35102
#
# Compressibility (1/GPa) = 0.01604166
#
# Stress axis : x y z
#
# Youngs Moduli (GPa) = -3.50202 -3.50202 94.17737
#
# Poissons Ratio (x) = 1.04663 0.49925
# Poissons Ratio (y) = 1.04663 0.49925
# Poissons Ratio (z) = -0.01856 -0.01856
#
# Static dielectric constant tensor:
#      x y z
#    x 1.553520 0.000000 0.000000 
#    y 0.000000 1.553520 0.000000 
#    z 0.000000 0.000000 1.673640 
# 
# From -- ./inp_files/9725.got.cif
#   From: 2010.05.17/outbox.cif.g08.bks.cpg/sg134_5_cif.got.tgz:9725.got - 2010.05.20 12:42:49.
