data_PCOD9568121
_publ_section_title
;
Structure prediction by ZEFSAII (Michael W. Deem and Ramdas Pophale) SiO2 
 PCOD9568121
Probable space group: P 42/N N M
;
_chemical_formula_sum "Si O2"
_cell_formula_units_Z 96
_cell_length_a 21.908467
_cell_length_b 21.908467
_cell_length_c 9.856057
_cell_angle_alpha 90.000000
_cell_angle_beta 90.000000
_cell_angle_gamma 90.000000
_cell_volume 4730.719368
_symmetry_space_group_name_H-M "P 42/N N M"
_symmetry_group_IT_number 134
_space_group.IT_coordinate_system_code '2'
_symmetry_cell_setting 'tetragonal'
loop_
_space_group_symop_operation_xyz
x,y,z
1/2-y,x,1/2+z
1/2-x,1/2-y,z
y,1/2-x,1/2+z
x,1/2-y,1/2-z
1/2-x,y,1/2-z
y,x,-z
1/2-y,1/2-x,-z
-x,-y,-z
1/2+y,-x,1/2-z
1/2+x,1/2+y,-z
-y,1/2+x,1/2-z
-x,1/2+y,1/2+z
1/2+x,-y,1/2+z
-y,-x,z
1/2+y,1/2+x,z
loop_
_atom_site_type_symbol
_atom_site_label
_atom_site_fract_x
_atom_site_fract_y
_atom_site_fract_z
Si Si1 0.577480 0.825358 0.523790
Si Si2 0.971689 0.622304 0.796384
Si Si3 0.410058 0.810935 0.160712
Si Si4 0.378091 0.028007 0.264619
Si Si5 0.185695 0.096728 0.460232
Si Si6 0.190002 0.592830 0.840755
O O1 0.642165 0.857836 0.500000
O O2 0.557138 0.836573 0.677011
O O3 0.531857 0.861540 0.422825
O O4 0.581117 0.755074 0.487136
O O5 0.945502 0.554598 0.765776
O O6 0.944408 0.644642 0.939040
O O7 0.042168 0.639550 0.801356
O O8 0.415350 0.750000 0.250000
O O9 0.346442 0.846442 0.182142
O O10 0.463808 0.857765 0.203492
O O11 0.415710 0.796214 0.000817
O O12 0.334230 0.077840 0.190299
O O13 0.164953 0.164953 0.500000
O O14 0.250000 0.585129 0.750000
O O15 0.158534 0.658534 0.822019
#
# Coordination Sequence:
#
# PCOD9568121 Si02
#       6
#    16  16  16  16  16  16
#     4  10  20  33  51  79 120 164 206 256 309 364
#     4  10  21  37  59  90 122 159 206 255 309 369
#     4  11  25  44  68  96 127 166 208 257 315 373
#     4  10  21  37  59  90 122 159 206 255 309 369
#     4  10  18  31  53  79 114 158 206 258 309 364
#     4  11  25  44  68  96 127 166 208 257 315 373
#
# _framework density 20.292897
#
# number of rings (size 3 to 8) (size 9 to 14) (size 15 to 20)
#    0.000    1.667    1.667    3.000    2.333    2.000 
#    0.000    3.333    0.000    9.000    0.000    0.000 
#    0.000    0.000    0.000    0.000    0.000    0.000 
#
# Total GULP energy -535958.303317 kJ/mol
# GULP energy per Si atom -5582.898993 kJ/mol
# Density = 2.024671 g / cm^3
# Si number density = 20.292897 Si / 1000 Ang^3
#
#
#
# Elastic Constant Matrix: (Units=GPa)
#
#
# Indices 1 2 3 4 5 6 
#
# 1 62.9430 76.9593 31.1693 0.0000 0.0000 0.0000
# 2 76.9593 62.9437 31.1716 0.0000 0.0000 0.0000
# 3 31.1693 31.1716 71.0016 0.0000 0.0000 0.0000
# 4 0.0000 0.0000 0.0000 21.8549 0.0000 0.0000
# 5 0.0000 0.0000 0.0000 0.0000 21.8545 0.0000
# 6 0.0000 0.0000 0.0000 0.0000 0.0000 15.5846
#
#
#
# Elastic Compliance Matrix: (Units=1/GPa)
#
#
# Indices 1 2 3 4 5 6 
#
# 1 -0.031230 0.040117 -0.003902 0.000000 0.000000 0.000000
# 2 0.040117 -0.031231 -0.003900 0.000000 0.000000 0.000000
# 3 -0.003902 -0.003900 0.017509 0.000000 0.000000 0.000000
# 4 0.000000 0.000000 0.000000 0.045756 0.000000 0.000000
# 5 0.000000 0.000000 0.000000 0.000000 0.045757 0.000000
# 6 0.000000 0.000000 0.000000 0.000000 0.000000 0.064166
#
#
# Mechanical properties :
#
#
# Convention : Reuss Voigt Hill
#
# Bulk Modulus (GPa) = 50.81995 52.83208 51.82601
# Shear Modulus (GPa) = 94.95268 15.69800 55.32534
#
# Velocity S-wave (km/s) = 6.84782 2.78433 5.22710
# Velocity P-wave (km/s) = 9.36062 6.03556 7.87557
#
# Compressibility (1/GPa) = 0.01967731
#
# Stress axis : x y z
#
# Youngs Moduli (GPa) = -32.02028 -32.01944 57.11193
#
# Poissons Ratio (x) = 1.28452 0.22288
# Poissons Ratio (y) = 1.28455 0.22272
# Poissons Ratio (z) = -0.12496 -0.12487
#
# Static dielectric constant tensor:
#      x y z
#    x 1.723120 0.000000 0.000000 
#    y 0.000000 1.723120 0.000000 
#    z 0.000000 0.000000 1.689240 
# 
# From -- ./inp_files/3207.got.cif
#   From: 2010.05.17/outbox.cif.g08.bks.cpg/sg134_2_cif.got.tgz:3207.got - 2010.05.20 12:42:49.
