data_PCOD9568013
_publ_section_title
;
Structure prediction by ZEFSAII (Michael W. Deem and Ramdas Pophale) SiO2 
 PCOD9568013
Probable space group: P 42/N B C
;
_chemical_formula_sum "Si O2"
_cell_formula_units_Z 64
_cell_length_a 13.906382
_cell_length_b 13.906382
_cell_length_c 15.315975
_cell_angle_alpha 90.000000
_cell_angle_beta 90.000000
_cell_angle_gamma 90.000000
_cell_volume 2961.917508
_symmetry_space_group_name_H-M "P 42/N B C"
_symmetry_group_IT_number 133
_space_group.IT_coordinate_system_code '2'
_symmetry_cell_setting 'tetragonal'
loop_
_space_group_symop_operation_xyz
x,y,z
1/2-y,x,1/2+z
1/2-x,1/2-y,z
y,1/2-x,1/2+z
x,1/2-y,-z
1/2-x,y,-z
y,x,1/2-z
1/2-y,1/2-x,1/2-z
-x,-y,-z
1/2+y,-x,1/2-z
1/2+x,1/2+y,-z
-y,1/2+x,1/2-z
-x,1/2+y,z
1/2+x,-y,z
-y,-x,1/2+z
1/2+y,1/2+x,1/2+z
loop_
_atom_site_type_symbol
_atom_site_label
_atom_site_fract_x
_atom_site_fract_y
_atom_site_fract_z
Si Si1 0.998218 0.141848 0.290407
Si Si2 0.489906 0.614933 0.074668
Si Si3 0.578427 0.335116 0.103940
Si Si4 0.192148 0.013349 0.913503
O O1 0.929853 0.145859 0.206549
O O2 0.025641 0.243962 0.328297
O O3 0.951094 0.082181 0.369423
O O4 0.089702 0.089702 0.250000
O O5 0.449065 0.722885 0.093669
O O6 0.595967 0.576790 0.097921
O O7 0.489190 0.613388 0.968744
O O8 0.673001 0.397284 0.079326
O O9 0.250000 0.043416 0.000000
#
# Coordination Sequence:
#
# PCOD9568013 Si02
#       4
#    16  16  16  16
#     4  12  24  43  75 105 147 198 247 299 379 442
#     4  11  25  48  71 108 157 189 249 317 374 446
#     4  11  24  44  75 105 142 199 249 305 368 445
#     4  12  24  46  78 107 150 200 245 310 384 445
#
# _framework density 21.607623
#
# number of rings (size 3 to 8) (size 9 to 14) (size 15 to 20)
#    0.000    0.500    5.000    3.750    0.000    1.000 
#    0.000   12.500    0.000    0.000    0.000    0.000 
#    0.000    0.000    0.000    0.000    0.000    0.000 
#
# Total GULP energy -356336.654267 kJ/mol
# GULP energy per Si atom -5567.760223 kJ/mol
# Density = 2.155844 g / cm^3
# Si number density = 21.607623 Si / 1000 Ang^3
#
#
#
# Elastic Constant Matrix: (Units=GPa)
#
#
# Indices 1 2 3 4 5 6 
#
# 1 86.9089 53.9428 26.2855 0.0000 0.0000 0.0000
# 2 53.9428 86.9089 26.2855 0.0000 0.0000 0.0000
# 3 26.2855 26.2855 109.0294 0.0000 0.0000 0.0000
# 4 0.0000 0.0000 0.0000 12.4169 0.0000 0.0000
# 5 0.0000 0.0000 0.0000 0.0000 12.4169 0.0000
# 6 0.0000 0.0000 0.0000 0.0000 0.0000 33.7774
#
#
#
# Elastic Compliance Matrix: (Units=1/GPa)
#
#
# Indices 1 2 3 4 5 6 
#
# 1 0.019068 -0.011266 -0.001881 0.000000 0.000000 0.000000
# 2 -0.011266 0.019068 -0.001881 0.000000 0.000000 0.000000
# 3 -0.001881 -0.001881 0.010079 0.000000 0.000000 0.000000
# 4 0.000000 0.000000 0.000000 0.080535 0.000000 0.000000
# 5 0.000000 0.000000 0.000000 0.000000 0.080535 0.000000
# 6 0.000000 0.000000 0.000000 0.000000 0.000000 0.029606
#
#
# Mechanical properties :
#
#
# Convention : Reuss Voigt Hill
#
# Bulk Modulus (GPa) = 55.07033 55.09717 55.08375
# Shear Modulus (GPa) = 18.18185 23.47781 20.82983
#
# Velocity S-wave (km/s) = 2.90393 3.29986 3.10821
# Velocity P-wave (km/s) = 6.06511 6.33033 6.19914
#
# Compressibility (1/GPa) = 0.01815860
#
# Stress axis : x y z
#
# Youngs Moduli (GPa) = 52.44408 52.44408 99.21869
#
# Poissons Ratio (x) = 0.59085 0.18662
# Poissons Ratio (y) = 0.59085 0.18662
# Poissons Ratio (z) = 0.09864 0.09864
#
# Static dielectric constant tensor:
#      x y z
#    x 1.845750 0.000000 0.000000 
#    y 0.000000 1.845750 0.000000 
#    z 0.000000 0.000000 1.857610 
# 
# From -- ./inp_files/4125.got.cif
#   From: 2010.05.17/outbox.cif.g08.bks.cpg/sg133_3_cif.got.tgz:4125.got - 2010.05.20 12:37:36.
