data_PCOD9568350
_publ_section_title
;
Structure prediction by ZEFSAII (Michael W. Deem and Ramdas Pophale) SiO2 
 PCOD9568350
Probable space group: P 42/N N M
;
_chemical_formula_sum "Si O2"
_cell_formula_units_Z 80
_cell_length_a 17.679877
_cell_length_b 17.679877
_cell_length_c 13.075247
_cell_angle_alpha 90.000000
_cell_angle_beta 90.000000
_cell_angle_gamma 90.000000
_cell_volume 4087.035220
_symmetry_space_group_name_H-M "P 42/N N M"
_symmetry_group_IT_number 134
_space_group.IT_coordinate_system_code '2'
_symmetry_cell_setting 'tetragonal'
loop_
_space_group_symop_operation_xyz
x,y,z
1/2-y,x,1/2+z
1/2-x,1/2-y,z
y,1/2-x,1/2+z
x,1/2-y,1/2-z
1/2-x,y,1/2-z
y,x,-z
1/2-y,1/2-x,-z
-x,-y,-z
1/2+y,-x,1/2-z
1/2+x,1/2+y,-z
-y,1/2+x,1/2-z
-x,1/2+y,1/2+z
1/2+x,-y,1/2+z
-y,-x,z
1/2+y,1/2+x,z
loop_
_atom_site_type_symbol
_atom_site_label
_atom_site_fract_x
_atom_site_fract_y
_atom_site_fract_z
Si Si1 0.802685 0.525196 0.658367
Si Si2 0.535785 0.464215 0.861973
Si Si3 0.171372 0.129041 0.787823
Si Si4 0.530938 0.597230 0.605921
Si Si5 0.734721 0.007611 0.426591
Si Si6 0.085463 0.585463 0.592365
O O1 0.750000 0.501041 0.750000
O O2 0.885505 0.492620 0.679981
O O3 0.812710 0.615538 0.658885
O O4 0.774300 0.500920 0.547961
O O5 0.471583 0.528418 0.849124
O O6 0.558555 0.441446 0.978801
O O7 0.250000 0.162528 0.750000
O O8 0.123425 0.090069 0.694784
O O9 0.199664 0.065198 0.867894
O O10 0.574861 0.574861 0.500000
O O11 0.472851 0.527150 0.625436
O O12 0.484853 0.676475 0.594819
O O13 0.673655 0.069875 0.392513
#
# Coordination Sequence:
#
# PCOD9568350 Si02
#       6
#    16   8  16  16  16   8
#     4  11  21  35  57  87 117 148 193 239 295 354
#     4   9  18  32  56  85 106 144 188 240 291 335
#     4  10  21  35  57  84 116 152 194 243 291 343
#     4  10  22  39  57  83 121 160 196 235 296 367
#     4  10  20  37  57  88 114 149 199 247 293 345
#     4   9  16  32  61  84 107 137 192 254 286 336
#
# _framework density 19.574092
#
# number of rings (size 3 to 8) (size 9 to 14) (size 15 to 20)
#    0.000    2.000    2.000    1.800    2.800    0.400 
#    1.800    0.500    0.000    3.900    0.000    0.000 
#    0.000    0.000    0.000    0.000    0.000    0.000 
#
# Total GULP energy -445826.364089 kJ/mol
# GULP energy per Si atom -5572.829551 kJ/mol
# Density = 1.952954 g / cm^3
# Si number density = 19.574092 Si / 1000 Ang^3
#
#
#
# Elastic Constant Matrix: (Units=GPa)
#
#
# Indices 1 2 3 4 5 6 
#
# 1 53.3058 10.5851 12.6876 0.0000 0.0000 0.0000
# 2 10.5851 53.3058 12.6876 0.0000 0.0000 0.0000
# 3 12.6876 12.6876 82.3536 0.0000 0.0000 0.0000
# 4 0.0000 0.0000 0.0000 21.8335 0.0000 0.0000
# 5 0.0000 0.0000 0.0000 0.0000 21.8335 0.0000
# 6 0.0000 0.0000 0.0000 0.0000 0.0000 14.9063
#
#
#
# Elastic Compliance Matrix: (Units=1/GPa)
#
#
# Indices 1 2 3 4 5 6 
#
# 1 0.020040 -0.003368 -0.002568 0.000000 0.000000 0.000000
# 2 -0.003368 0.020040 -0.002568 0.000000 0.000000 0.000000
# 3 -0.002568 -0.002568 0.012934 0.000000 0.000000 0.000000
# 4 0.000000 0.000000 0.000000 0.045801 0.000000 0.000000
# 5 0.000000 0.000000 0.000000 0.000000 0.045801 0.000000
# 6 0.000000 0.000000 0.000000 0.000000 0.000000 0.067086
#
#
# Mechanical properties :
#
#
# Convention : Reuss Voigt Hill
#
# Bulk Modulus (GPa) = 27.77485 28.98729 28.38107
# Shear Modulus (GPa) = 20.77161 21.91499 21.34330
#
# Velocity S-wave (km/s) = 3.26111 3.34966 3.30568
# Velocity P-wave (km/s) = 5.32918 5.45907 5.39452
#
# Compressibility (1/GPa) = 0.03600380
#
# Stress axis : x y z
#
# Youngs Moduli (GPa) = 49.90064 49.90064 77.31454
#
# Poissons Ratio (x) = 0.16807 0.19858
# Poissons Ratio (y) = 0.16807 0.19858
# Poissons Ratio (z) = 0.12817 0.12817
#
# Static dielectric constant tensor:
#      x y z
#    x 1.705050 0.000000 0.000000 
#    y 0.000000 1.705050 0.000000 
#    z 0.000000 0.000000 1.745770 
# 
# From -- ./inp_files/6407.got.cif
#   From: 2010.05.17/outbox.cif.g08.bks.cpg/sg134_4_cif.got.tgz:6407.got - 2010.05.20 12:42:49.
