data_PCOD9568855
_publ_section_title
;
Structure prediction by ZEFSAII (Michael W. Deem and Ramdas Pophale) SiO2 
 PCOD9568855
Probable space group: P 42/M B C
;
_chemical_formula_sum "Si O2"
_cell_formula_units_Z 64
_cell_length_a 11.073124
_cell_length_b 11.073124
_cell_length_c 21.169559
_cell_angle_alpha 90.000000
_cell_angle_beta 90.000000
_cell_angle_gamma 90.000000
_cell_volume 2595.685897
_symmetry_space_group_name_H-M "P 42/M B C"
_symmetry_group_IT_number 135
_symmetry_cell_setting 'tetragonal'
loop_
_space_group_symop_operation_xyz
x,y,z
-y,x,1/2+z
-x,-y,z
y,-x,1/2+z
1/2+x,1/2-y,-z
1/2-x,1/2+y,-z
1/2+y,1/2+x,1/2-z
1/2-y,1/2-x,1/2-z
-x,-y,-z
y,-x,1/2-z
x,y,-z
-y,x,1/2-z
1/2-x,1/2+y,z
1/2+x,1/2-y,z
1/2-y,1/2-x,1/2+z
1/2+y,1/2+x,1/2+z
loop_
_atom_site_type_symbol
_atom_site_label
_atom_site_fract_x
_atom_site_fract_y
_atom_site_fract_z
Si Si1 0.311581 0.977875 0.373059
Si Si2 0.725409 0.600946 0.000000
Si Si3 0.190732 0.044895 0.245399
Si Si4 0.527967 0.803628 0.382746
Si Si5 0.266556 0.470498 0.500000
O O1 0.386642 0.087266 0.405918
O O2 0.208281 0.948143 0.424266
O O3 0.275392 0.025123 0.304879
O O4 0.403778 0.869053 0.361565
O O5 0.719262 0.514341 0.939249
O O6 0.862446 0.658659 0.000000
O O7 0.614676 0.694364 0.000000
O O8 0.244375 0.085958 0.178913
O O9 0.132448 0.914807 0.232752
#
# Coordination Sequence:
#
# PCOD9568855 Si02
#       5
#    16   8  16  16   8
#     4  10  21  39  62  88 118 161 209 252 308 381
#     4  10  21  39  63  95 128 163 212 263 315 382
#     4  11  24  39  56  85 123 158 201 261 321 374
#     4  10  21  38  62  88 119 159 208 256 305 379
#     4  10  21  37  63  93 124 162 206 256 317 381
#
# _framework density 24.656295
#
# number of rings (size 3 to 8) (size 9 to 14) (size 15 to 20)
#    0.000    1.750    0.000    3.750    0.000   13.000 
#    0.000    1.250    0.000    6.000    0.000    0.000 
#    0.000    0.000    0.000    0.000    0.000    0.000 
#
# Total GULP energy -356313.736192 kJ/mol
# GULP energy per Si atom -5567.402128 kJ/mol
# Density = 2.460018 g / cm^3
# Si number density = 24.656295 Si / 1000 Ang^3
#
#
#
# Elastic Constant Matrix: (Units=GPa)
#
#
# Indices 1 2 3 4 5 6 
#
# 1 60.6725 25.2041 8.6286 0.0000 0.0000 0.0000
# 2 25.2041 60.6725 8.6286 0.0000 0.0000 0.0000
# 3 8.6286 8.6286 117.0954 0.0000 0.0000 0.0000
# 4 0.0000 0.0000 0.0000 28.8060 0.0000 0.0000
# 5 0.0000 0.0000 0.0000 0.0000 28.8060 0.0000
# 6 0.0000 0.0000 0.0000 0.0000 0.0000 -358.7841
#
#
#
# Elastic Compliance Matrix: (Units=1/GPa)
#
#
# Indices 1 2 3 4 5 6 
#
# 1 0.020007 -0.008187 -0.000871 0.000000 0.000000 0.000000
# 2 -0.008187 0.020007 -0.000871 0.000000 0.000000 0.000000
# 3 -0.000871 -0.000871 0.008668 0.000000 0.000000 0.000000
# 4 0.000000 0.000000 0.000000 0.034715 0.000000 0.000000
# 5 0.000000 0.000000 0.000000 0.000000 0.034715 0.000000
# 6 0.000000 0.000000 0.000000 0.000000 0.000000 -0.002787
#
#
# Mechanical properties :
#
#
# Convention : Reuss Voigt Hill
#
# Bulk Modulus (GPa) = 34.69355 35.92922 35.31138
# Shear Modulus (GPa) = 34.53249 -47.16915 -6.31833
#
# Velocity S-wave (km/s) = 3.74646 -4.37861 -1.60254
# Velocity P-wave (km/s) = 5.72853 3.31048 3.30581
#
# Compressibility (1/GPa) = 0.02882380
#
# Stress axis : x y z
#
# Youngs Moduli (GPa) = 49.98289 49.98289 115.36150
#
# Poissons Ratio (x) = 0.40922 0.10048
# Poissons Ratio (y) = 0.40922 0.10048
# Poissons Ratio (z) = 0.04353 0.04353
#
# Static dielectric constant tensor:
#      x y z
#    x 1.979150 0.000000 0.000000 
#    y 0.000000 1.979150 0.000000 
#    z 0.000000 0.000000 2.398710 
# 
# From -- ./inp_files/5903.got.cif
#   From: 2010.05.17/outbox.cif.g08.bks.cpg/sg135_3_cif.got.tgz:5903.got - 2010.05.20 12:50:20.
