data_PCOD9568515
_publ_section_title
;
Structure prediction by ZEFSAII (Michael W. Deem and Ramdas Pophale) SiO2 
 PCOD9568515
Probable space group: P 42/N N M
;
_chemical_formula_sum "Si O2"
_cell_formula_units_Z 112
_cell_length_a 14.287999
_cell_length_b 14.287999
_cell_length_c 27.399459
_cell_angle_alpha 90.000000
_cell_angle_beta 90.000000
_cell_angle_gamma 90.000000
_cell_volume 5593.515039
_symmetry_space_group_name_H-M "P 42/N N M"
_symmetry_group_IT_number 134
_space_group.IT_coordinate_system_code '2'
_symmetry_cell_setting 'tetragonal'
loop_
_space_group_symop_operation_xyz
x,y,z
1/2-y,x,1/2+z
1/2-x,1/2-y,z
y,1/2-x,1/2+z
x,1/2-y,1/2-z
1/2-x,y,1/2-z
y,x,-z
1/2-y,1/2-x,-z
-x,-y,-z
1/2+y,-x,1/2-z
1/2+x,1/2+y,-z
-y,1/2+x,1/2-z
-x,1/2+y,1/2+z
1/2+x,-y,1/2+z
-y,-x,z
1/2+y,1/2+x,z
loop_
_atom_site_type_symbol
_atom_site_label
_atom_site_fract_x
_atom_site_fract_y
_atom_site_fract_z
Si Si1 0.407243 0.248302 0.991646
Si Si2 0.923030 0.568517 0.349041
Si Si3 0.467977 0.820213 0.210905
Si Si4 0.276507 0.435091 0.379285
Si Si5 0.870210 0.517072 0.140058
Si Si6 0.852326 0.916287 0.256008
Si Si7 0.702215 0.048541 0.423004
O O1 0.493072 0.268362 0.028074
O O2 0.331972 0.331972 0.000000
O O3 0.347548 0.152453 0.000000
O O4 0.443811 0.243882 0.936327
O O5 0.901709 0.678237 0.356108
O O6 0.884504 0.542592 0.295632
O O7 0.869362 0.515917 0.392106
O O8 0.030408 0.530408 0.350679
O O9 0.425001 0.750000 0.250000
O O10 0.417612 0.917612 0.216140
O O11 0.473388 0.793357 0.154345
O O12 0.573016 0.839549 0.227969
O O13 0.372188 0.373704 0.374275
O O14 0.849748 0.514187 0.197814
O O15 0.794852 0.457091 0.110381
O O16 0.971293 0.471293 0.130726
O O17 0.750000 0.875570 0.250000
O O18 0.647154 0.147154 0.430276
#
# Coordination Sequence:
#
# PCOD9568515 Si02
#       7
#    16  16  16  16  16  16  16
#     4  11  22  39  64  96 132 165 212 277 343 407
#     4  11  22  38  62  97 138 168 204 268 340 403
#     4  11  24  42  63  94 135 176 216 266 324 399
#     4  11  22  40  67  95 129 171 219 270 339 400
#     4  11  24  43  64  90 129 175 220 272 318 387
#     4  11  21  38  62  94 127 168 209 263 330 396
#     4  11  24  42  64  95 130 172 214 266 338 403
#
# _framework density 20.023188000000001
#
# number of rings (size 3 to 8) (size 9 to 14) (size 15 to 20)
#    0.000    1.000    5.714    2.571    0.000    2.143 
#    0.000    2.143    0.000    1.286    0.000    0.000 
#    0.000    0.000    0.000    0.000    0.000    0.000 
#
# Total GULP energy -623997.903791 kJ/mol
# GULP energy per Si atom -5571.409855 kJ/mol
# Density = 1.997761 g / cm^3
# Si number density = 20.023188 Si / 1000 Ang^3
#
#
#
# Elastic Constant Matrix: (Units=GPa)
#
#
# Indices 1 2 3 4 5 6 
#
# 1 78.5200 57.9547 45.5764 0.0000 0.0000 0.0000
# 2 57.9547 78.5203 45.5764 0.0000 0.0000 0.0000
# 3 45.5764 45.5764 176.7834 0.0000 0.0000 0.0000
# 4 0.0000 0.0000 0.0000 -49.3210 0.0000 0.0000
# 5 0.0000 0.0000 0.0000 0.0000 -49.3254 0.0000
# 6 0.0000 0.0000 0.0000 0.0000 0.0000 -17.0105
#
#
#
# Elastic Compliance Matrix: (Units=1/GPa)
#
#
# Indices 1 2 3 4 5 6 
#
# 1 0.028738 -0.019887 -0.002282 0.000000 0.000000 0.000000
# 2 -0.019887 0.028738 -0.002282 0.000000 0.000000 0.000000
# 3 -0.002282 -0.002282 0.006833 0.000000 0.000000 0.000000
# 4 0.000000 0.000000 0.000000 -0.020275 0.000000 0.000000
# 5 0.000000 0.000000 0.000000 0.000000 -0.020274 0.000000
# 6 0.000000 0.000000 0.000000 0.000000 0.000000 -0.058787
#
#
# Mechanical properties :
#
#
# Convention : Reuss Voigt Hill
#
# Bulk Modulus (GPa) = 64.90000 70.22651 67.56325
# Shear Modulus (GPa) = 262.99335 -10.81698 126.08818
#
# Velocity S-wave (km/s) = 11.47299 -2.32679 7.94404
# Velocity P-wave (km/s) = 14.42182 5.28490 10.86091
#
# Compressibility (1/GPa) = 0.01540832
#
# Stress axis : x y z
#
# Youngs Moduli (GPa) = 34.79664 34.79675 146.34252
#
# Poissons Ratio (x) = 0.69200 0.33396
# Poissons Ratio (y) = 0.69199 0.33395
# Poissons Ratio (z) = 0.07941 0.07941
#
# Static dielectric constant tensor:
#      x y z
#    x 1.728280 0.000000 0.000000 
#    y 0.000000 1.728280 0.000000 
#    z 0.000000 0.000000 1.758410 
# 
# From -- ./inp_files/10841.got.cif
#   From: 2010.05.17/outbox.cif.g08.bks.cpg/sg134_6_cif.got.tgz:10841.got - 2010.05.20 12:42:49.
