data_PCOD9568482
_publ_section_title
;
Structure prediction by ZEFSAII (Michael W. Deem and Ramdas Pophale) SiO2 
 PCOD9568482
Probable space group: P 42/N N M
;
_chemical_formula_sum "Si O2"
_cell_formula_units_Z 84
_cell_length_a 11.648203
_cell_length_b 11.648203
_cell_length_c 31.522510
_cell_angle_alpha 90.000000
_cell_angle_beta 90.000000
_cell_angle_gamma 90.000000
_cell_volume 4276.994115
_symmetry_space_group_name_H-M "P 42/N N M"
_symmetry_group_IT_number 134
_space_group.IT_coordinate_system_code '2'
_symmetry_cell_setting 'tetragonal'
loop_
_space_group_symop_operation_xyz
x,y,z
1/2-y,x,1/2+z
1/2-x,1/2-y,z
y,1/2-x,1/2+z
x,1/2-y,1/2-z
1/2-x,y,1/2-z
y,x,-z
1/2-y,1/2-x,-z
-x,-y,-z
1/2+y,-x,1/2-z
1/2+x,1/2+y,-z
-y,1/2+x,1/2-z
-x,1/2+y,1/2+z
1/2+x,-y,1/2+z
-y,-x,z
1/2+y,1/2+x,z
loop_
_atom_site_type_symbol
_atom_site_label
_atom_site_fract_x
_atom_site_fract_y
_atom_site_fract_z
Si Si1 0.586087 0.907863 0.853861
Si Si2 0.250000 0.250000 0.500000
Si Si3 0.346496 0.846496 0.410029
Si Si4 0.654616 0.154616 0.685470
Si Si5 0.668926 0.527775 0.554638
Si Si6 0.906971 0.796382 0.205334
Si Si7 0.034436 0.717902 0.699844
O O1 0.610184 0.912630 0.904051
O O2 0.704992 0.880119 0.830937
O O3 0.496510 0.819857 0.832528
O O4 0.534478 0.034478 0.843523
O O5 0.271601 0.367663 0.472152
O O6 0.250000 0.750000 0.404995
O O7 0.380639 0.880639 0.362543
O O8 0.449105 0.777859 0.432331
O O9 0.750000 0.250000 0.684608
O O10 0.542576 0.199234 0.707468
O O11 0.566606 0.433395 0.539414
O O12 0.864518 0.750000 0.250000
O O13 0.862487 0.922985 0.197280
O O14 0.044518 0.750000 0.750000
O O15 0.147438 0.647438 0.688063
#
# Coordination Sequence:
#
# PCOD9568482 Si02
#       7
#    16   4   8   8  16  16  16
#     4  11  24  42  65  90 124 168 212 265 322 375
#     4  12  26  42  72 102 130 170 210 252 330 390
#     4   9  18  39  67  95 132 175 209 254 320 388
#     4  11  22  34  57  91 130 166 207 258 316 376
#     4  10  23  44  70 100 132 165 209 263 324 398
#     4  12  24  37  57  90 129 166 217 267 317 364
#     4  12  26  42  60  88 125 177 228 272 309 364
#
# _framework density 19.639961
#
# number of rings (size 3 to 8) (size 9 to 14) (size 15 to 20)
#    0.000    0.952    4.762    2.000    5.333    1.714 
#    0.000    0.000    2.095    0.000    0.000    0.000 
#    0.000    0.000    0.000    0.000    0.000    0.000 
#
# Total GULP energy -467798.930163 kJ/mol
# GULP energy per Si atom -5569.034883 kJ/mol
# Density = 1.959526 g / cm^3
# Si number density = 19.639961 Si / 1000 Ang^3
#
#
#
# Elastic Constant Matrix: (Units=GPa)
#
#
# Indices 1 2 3 4 5 6 
#
# 1 135.4702 50.5284 51.6957 0.0000 0.0000 0.0000
# 2 50.5284 135.4702 51.6957 0.0000 0.0000 0.0000
# 3 51.6957 51.6957 82.4733 0.0000 0.0000 0.0000
# 4 0.0000 0.0000 0.0000 18.1705 0.0000 0.0000
# 5 0.0000 0.0000 0.0000 0.0000 18.1705 0.0000
# 6 0.0000 0.0000 0.0000 0.0000 0.0000 102.2969
#
#
#
# Elastic Compliance Matrix: (Units=1/GPa)
#
#
# Indices 1 2 3 4 5 6 
#
# 1 0.010012 -0.001761 -0.005172 0.000000 0.000000 0.000000
# 2 -0.001761 0.010012 -0.005172 0.000000 0.000000 0.000000
# 3 -0.005172 -0.005172 0.018609 0.000000 0.000000 0.000000
# 4 0.000000 0.000000 0.000000 0.055034 0.000000 0.000000
# 5 0.000000 0.000000 0.000000 0.000000 0.055034 0.000000
# 6 0.000000 0.000000 0.000000 0.000000 0.000000 0.009775
#
#
# Mechanical properties :
#
#
# Convention : Reuss Voigt Hill
#
# Bulk Modulus (GPa) = 69.33174 73.47260 71.40217
# Shear Modulus (GPa) = 26.66740 41.02719 33.84729
#
# Velocity S-wave (km/s) = 3.68885 4.57548 4.15588
# Velocity P-wave (km/s) = 7.31584 8.08729 7.71122
#
# Compressibility (1/GPa) = 0.01442341
#
# Stress axis : x y z
#
# Youngs Moduli (GPa) = 99.87915 99.87915 53.73711
#
# Poissons Ratio (x) = 0.17585 0.27794
# Poissons Ratio (y) = 0.17585 0.27794
# Poissons Ratio (z) = 0.51659 0.51659
#
# Static dielectric constant tensor:
#      x y z
#    x 1.690740 0.000000 0.000000 
#    y 0.000000 1.690740 0.000000 
#    z 0.000000 0.000000 1.711230 
# 
# From -- ./inp_files/11489.got.cif
#   From: 2010.05.17/outbox.cif.g08.bks.cpg/sg134_6_cif.got.tgz:11489.got - 2010.05.20 12:42:49.
