data_PCOD9568680
_publ_section_title
;
Structure prediction by ZEFSAII (Michael W. Deem and Ramdas Pophale) SiO2 
 PCOD9568680
Probable space group: P 42/M B C
;
_chemical_formula_sum "Si O2"
_cell_formula_units_Z 80
_cell_length_a 17.299348
_cell_length_b 17.299348
_cell_length_c 14.483253
_cell_angle_alpha 90.000000
_cell_angle_beta 90.000000
_cell_angle_gamma 90.000000
_cell_volume 4334.366066
_symmetry_space_group_name_H-M "P 42/M B C"
_symmetry_group_IT_number 135
_symmetry_cell_setting 'tetragonal'
loop_
_space_group_symop_operation_xyz
x,y,z
-y,x,1/2+z
-x,-y,z
y,-x,1/2+z
1/2+x,1/2-y,-z
1/2-x,1/2+y,-z
1/2+y,1/2+x,1/2-z
1/2-y,1/2-x,1/2-z
-x,-y,-z
y,-x,1/2-z
x,y,-z
-y,x,1/2-z
1/2-x,1/2+y,z
1/2+x,1/2-y,z
1/2-y,1/2-x,1/2+z
1/2+y,1/2+x,1/2+z
loop_
_atom_site_type_symbol
_atom_site_label
_atom_site_fract_x
_atom_site_fract_y
_atom_site_fract_z
Si Si1 0.593301 0.808381 0.390045
Si Si2 0.190915 0.180009 0.228168
Si Si3 0.922427 0.720628 0.107879
Si Si4 0.746187 0.396817 0.395632
Si Si5 0.540730 0.080221 0.612523
O O1 0.587594 0.796139 0.500000
O O2 0.616342 0.731310 0.337097
O O3 0.667588 0.864112 0.374271
O O4 0.515197 0.850189 0.357023
O O5 0.252070 0.247931 0.250000
O O6 0.122880 0.221789 0.174453
O O7 0.183322 0.137598 0.326063
O O8 0.914510 0.630692 0.137997
O O9 0.011763 0.744464 0.109026
O O10 0.895448 0.725803 0.000000
O O11 0.728356 0.372742 0.500000
O O12 0.539626 0.079951 0.500000
O O13 0.500000 0.000000 0.641001
#
# Coordination Sequence:
#
# PCOD9568680 Si02
#       5
#    16  16  16  16  16
#     4   9  16  30  51  77 113 150 179 215 273 337
#     4  10  21  33  49  76 111 145 186 228 277 336
#     4  10  19  33  56  84 112 143 183 230 280 338
#     4   9  18  34  55  74 102 145 187 227 275 331
#     4   9  15  27  52  85 116 146 179 216 269 343
#
# _framework density 18.457141
#
# number of rings (size 3 to 8) (size 9 to 14) (size 15 to 20)
#    0.000    2.600    2.000    0.600    0.000    2.400 
#    0.000    0.000    0.000    3.000    0.000    2.800 
#    0.000    0.800    0.000    0.000    0.000    0.000 
#
# Total GULP energy -446209.657537 kJ/mol
# GULP energy per Si atom -5577.620719 kJ/mol
# Density = 1.841513 g / cm^3
# Si number density = 18.457141 Si / 1000 Ang^3
#
#
#
# Elastic Constant Matrix: (Units=GPa)
#
#
# Indices 1 2 3 4 5 6 
#
# 1 65.8544 49.0130 50.2046 0.0000 0.0000 0.0000
# 2 49.0130 65.8548 50.2049 0.0000 0.0000 0.0000
# 3 50.2046 50.2049 86.6362 0.0000 0.0000 0.0000
# 4 0.0000 0.0000 0.0000 15.5268 0.0000 0.0000
# 5 0.0000 0.0000 0.0000 0.0000 15.5259 0.0000
# 6 0.0000 0.0000 0.0000 0.0000 0.0000 30.2656
#
#
#
# Elastic Compliance Matrix: (Units=1/GPa)
#
#
# Indices 1 2 3 4 5 6 
#
# 1 0.038510 -0.020867 -0.010224 0.000000 0.000000 0.000000
# 2 -0.020867 0.038510 -0.010224 0.000000 0.000000 0.000000
# 3 -0.010224 -0.010224 0.023392 0.000000 0.000000 0.000000
# 4 0.000000 0.000000 0.000000 0.064405 0.000000 0.000000
# 5 0.000000 0.000000 0.000000 0.000000 0.064409 0.000000
# 6 0.000000 0.000000 0.000000 0.000000 0.000000 0.033041
#
#
# Mechanical properties :
#
#
# Convention : Reuss Voigt Hill
#
# Bulk Modulus (GPa) = 56.23689 57.46562 56.85125
# Shear Modulus (GPa) = 14.25227 16.85851 15.55539
#
# Velocity S-wave (km/s) = 2.78183 3.02551 2.90622
# Velocity P-wave (km/s) = 6.39165 6.58841 6.49077
#
# Compressibility (1/GPa) = 0.01778192
#
# Stress axis : x y z
#
# Youngs Moduli (GPa) = 25.96751 25.96754 42.75056
#
# Poissons Ratio (x) = 0.54187 0.43706
# Poissons Ratio (y) = 0.54187 0.43707
# Poissons Ratio (z) = 0.26548 0.26548
#
# Static dielectric constant tensor:
#      x y z
#    x 1.624050 0.000000 0.000000 
#    y 0.000000 1.624060 0.000000 
#    z 0.000000 0.000000 1.712320 
# 
# From -- ./inp_files/3415.got.cif
#   From: 2010.05.17/outbox.cif.g08.bks.cpg/sg135_2_cif.got.tgz:3415.got - 2010.05.20 12:50:20.
