data_PCOD9568377
_publ_section_title
;
Structure prediction by ZEFSAII (Michael W. Deem and Ramdas Pophale) SiO2 
 PCOD9568377
Probable space group: P 42/N N M
;
_chemical_formula_sum "Si O2"
_cell_formula_units_Z 56
_cell_length_a 17.222690
_cell_length_b 17.222690
_cell_length_c 9.414126
_cell_angle_alpha 90.000000
_cell_angle_beta 90.000000
_cell_angle_gamma 90.000000
_cell_volume 2792.427947
_symmetry_space_group_name_H-M "P 42/N N M"
_symmetry_group_IT_number 134
_space_group.IT_coordinate_system_code '2'
_symmetry_cell_setting 'tetragonal'
loop_
_space_group_symop_operation_xyz
x,y,z
1/2-y,x,1/2+z
1/2-x,1/2-y,z
y,1/2-x,1/2+z
x,1/2-y,1/2-z
1/2-x,y,1/2-z
y,x,-z
1/2-y,1/2-x,-z
-x,-y,-z
1/2+y,-x,1/2-z
1/2+x,1/2+y,-z
-y,1/2+x,1/2-z
-x,1/2+y,1/2+z
1/2+x,-y,1/2+z
-y,-x,z
1/2+y,1/2+x,z
loop_
_atom_site_type_symbol
_atom_site_label
_atom_site_fract_x
_atom_site_fract_y
_atom_site_fract_z
Si Si1 0.594185 0.405816 0.520221
Si Si2 0.607929 0.750000 0.750000
Si Si3 0.414666 0.359434 0.803227
Si Si4 0.279161 0.018535 0.031878
Si Si5 0.509065 0.009065 0.235298
O O1 0.567192 0.316713 0.531345
O O2 0.547463 0.452538 0.642847
O O3 0.559517 0.440484 0.373947
O O4 0.653321 0.822585 0.682247
O O5 0.554944 0.716844 0.623564
O O6 0.433664 0.332332 0.642704
O O7 0.467320 0.306173 0.904491
O O8 0.436796 0.449389 0.819824
#
# Coordination Sequence:
#
# PCOD9568377 Si02
#       5
#     8   8  16  16   8
#     4   9  16  34  59  77 105 154 201 233 286 351
#     4  12  20  33  52  82 122 153 184 234 296 367
#     4  10  21  36  56  83 114 152 200 238 289 351
#     4  10  21  35  55  82 112 153 190 237 291 355
#     4   9  16  34  60  78 104 151 206 248 268 343
#
# _framework density 20.054233
#
# number of rings (size 3 to 8) (size 9 to 14) (size 15 to 20)
#    0.000    2.000    2.857    1.714    0.000    2.286 
#    0.000   10.000    0.000    0.857    0.000    6.000 
#    0.000    0.571    0.000    0.000    0.000    0.000 
#
# Total GULP energy -312185.895513 kJ/mol
# GULP energy per Si atom -5574.748134 kJ/mol
# Density = 2.000859 g / cm^3
# Si number density = 20.054233 Si / 1000 Ang^3
#
#
#
# Elastic Constant Matrix: (Units=GPa)
#
#
# Indices 1 2 3 4 5 6 
#
# 1 87.0576 52.2976 13.9930 0.0000 0.0000 0.0000
# 2 52.2976 87.0576 13.9930 0.0000 0.0000 0.0000
# 3 13.9930 13.9930 87.8671 0.0000 0.0000 0.0000
# 4 0.0000 0.0000 0.0000 7.0138 0.0000 0.0000
# 5 0.0000 0.0000 0.0000 0.0000 7.0138 0.0000
# 6 0.0000 0.0000 0.0000 0.0000 0.0000 27.0853
#
#
#
# Elastic Compliance Matrix: (Units=1/GPa)
#
#
# Indices 1 2 3 4 5 6 
#
# 1 0.018091 -0.010678 -0.001181 0.000000 0.000000 0.000000
# 2 -0.010678 0.018091 -0.001181 0.000000 0.000000 0.000000
# 3 -0.001181 -0.001181 0.011757 0.000000 0.000000 0.000000
# 4 0.000000 0.000000 0.000000 0.142575 0.000000 0.000000
# 5 0.000000 0.000000 0.000000 0.000000 0.142575 0.000000
# 6 0.000000 0.000000 0.000000 0.000000 0.000000 0.036920
#
#
# Mechanical properties :
#
#
# Convention : Reuss Voigt Hill
#
# Bulk Modulus (GPa) = 45.74423 46.94994 46.34708
# Shear Modulus (GPa) = 12.39543 20.33585 16.36564
#
# Velocity S-wave (km/s) = 2.48885 3.18786 2.85979
# Velocity P-wave (km/s) = 5.57844 6.08377 5.83657
#
# Compressibility (1/GPa) = 0.02186068
#
# Stress axis : x y z
#
# Youngs Moduli (GPa) = 55.27650 55.27650 85.05698
#
# Poissons Ratio (x) = 0.59024 0.10041
# Poissons Ratio (y) = 0.59024 0.10041
# Poissons Ratio (z) = 0.06526 0.06526
#
# Static dielectric constant tensor:
#      x y z
#    x 1.748930 0.000000 0.000000 
#    y 0.000000 1.748930 0.000000 
#    z 0.000000 0.000000 1.743450 
# 
# From -- ./inp_files/2426.got.cif
#   From: 2010.05.17/outbox.cif.g08.bks.cpg/sg134_2_cif.got.tgz:2426.got - 2010.05.20 12:42:49.
