data_PCOD9568385
_publ_section_title
;
Structure prediction by ZEFSAII (Michael W. Deem and Ramdas Pophale) SiO2 
 PCOD9568385
Probable space group: P 42/N N M
;
_chemical_formula_sum "Si O2"
_cell_formula_units_Z 112
_cell_length_a 15.232276
_cell_length_b 15.232276
_cell_length_c 25.472505
_cell_angle_alpha 90.000000
_cell_angle_beta 90.000000
_cell_angle_gamma 90.000000
_cell_volume 5910.187468
_symmetry_space_group_name_H-M "P 42/N N M"
_symmetry_group_IT_number 134
_space_group.IT_coordinate_system_code '2'
_symmetry_cell_setting 'tetragonal'
loop_
_space_group_symop_operation_xyz
x,y,z
1/2-y,x,1/2+z
1/2-x,1/2-y,z
y,1/2-x,1/2+z
x,1/2-y,1/2-z
1/2-x,y,1/2-z
y,x,-z
1/2-y,1/2-x,-z
-x,-y,-z
1/2+y,-x,1/2-z
1/2+x,1/2+y,-z
-y,1/2+x,1/2-z
-x,1/2+y,1/2+z
1/2+x,-y,1/2+z
-y,-x,z
1/2+y,1/2+x,z
loop_
_atom_site_type_symbol
_atom_site_label
_atom_site_fract_x
_atom_site_fract_y
_atom_site_fract_z
Si Si1 0.641067 0.868286 0.112023
Si Si2 0.442591 0.699215 0.041423
Si Si3 0.213612 0.409011 0.690798
Si Si4 0.209490 0.103519 0.963842
Si Si5 0.169380 0.420350 0.377833
Si Si6 0.100410 0.899591 0.482183
Si Si7 0.252100 0.889864 0.813677
Si Si8 0.024736 0.975265 0.585856
O O1 0.715258 0.859037 0.155946
O O2 0.692751 0.888999 0.058111
O O3 0.597614 0.773043 0.112704
O O4 0.580565 0.954023 0.119272
O O5 0.358648 0.641353 0.028529
O O6 0.482885 0.665247 0.097049
O O7 0.518207 0.689015 0.997683
O O8 0.420669 0.801646 0.036897
O O9 0.250000 0.403846 0.750000
O O10 0.117612 0.366838 0.677919
O O11 0.225772 0.511020 0.672855
O O12 0.142222 0.112293 0.915843
O O13 0.184685 0.184685 0.000000
O O14 0.082921 0.917080 0.544727
O O15 0.035654 0.964347 0.451468
O O16 0.250000 0.887464 0.750000
O O17 0.177465 0.822536 0.832684
O O18 0.346108 0.846108 0.829462
#
# Coordination Sequence:
#
# PCOD9568385 Si02
#       8
#    16  16  16  16  16   8  16   8
#     4  11  21  37  55  83 114 145 187 248 297 346
#     4  11  22  37  56  82 118 156 191 231 281 346
#     4  10  21  36  59  87 113 152 194 243 297 348
#     4   9  19  32  53  78 110 145 182 224 282 342
#     4  10  22  36  54  81 114 150 189 234 293 351
#     4  11  21  38  60  88 111 151 194 242 296 345
#     4   8  15  30  51  75 105 141 182 225 270 330
#     4  11  22  36  64  86 112 144 194 248 293 346
#
# _framework density 18.950330000000001
#
# number of rings (size 3 to 8) (size 9 to 14) (size 15 to 20)
#    0.000    2.000    2.857    2.357    1.000    8.286 
#    0.000    2.143    0.000    0.000    0.000    0.000 
#    0.000    0.000    0.000    0.000    0.000    0.000 
#
# Total GULP energy -623508.844134 kJ/mol
# GULP energy per Si atom -5567.043251 kJ/mol
# Density = 1.890720 g / cm^3
# Si number density = 18.950330 Si / 1000 Ang^3
#
#
#
# Elastic Constant Matrix: (Units=GPa)
#
#
# Indices 1 2 3 4 5 6 
#
# 1 70.9399 60.2999 13.1440 0.0000 0.0000 0.0000
# 2 60.2999 70.9399 13.1440 0.0000 0.0000 0.0000
# 3 13.1440 13.1440 46.2386 0.0000 0.0000 0.0000
# 4 0.0000 0.0000 0.0000 17.6916 0.0000 0.0000
# 5 0.0000 0.0000 0.0000 0.0000 17.6916 0.0000
# 6 0.0000 0.0000 0.0000 0.0000 0.0000 37.1997
#
#
#
# Elastic Compliance Matrix: (Units=1/GPa)
#
#
# Indices 1 2 3 4 5 6 
#
# 1 0.051032 -0.042952 -0.002297 0.000000 0.000000 0.000000
# 2 -0.042952 0.051032 -0.002297 0.000000 0.000000 0.000000
# 3 -0.002297 -0.002297 0.022933 0.000000 0.000000 0.000000
# 4 0.000000 0.000000 0.000000 0.056524 0.000000 0.000000
# 5 0.000000 0.000000 0.000000 0.000000 0.056524 0.000000
# 6 0.000000 0.000000 0.000000 0.000000 0.000000 0.026882
#
#
# Mechanical properties :
#
#
# Convention : Reuss Voigt Hill
#
# Bulk Modulus (GPa) = 33.43917 40.14379 36.79148
# Shear Modulus (GPa) = 13.51398 21.28530 17.39964
#
# Velocity S-wave (km/s) = 2.67334 3.35508 3.03342
# Velocity P-wave (km/s) = 5.21661 6.01983 5.63256
#
# Compressibility (1/GPa) = 0.02990504
#
# Stress axis : x y z
#
# Youngs Moduli (GPa) = 19.59549 19.59549 43.60583
#
# Poissons Ratio (x) = 0.84167 0.10015
# Poissons Ratio (y) = 0.84167 0.10015
# Poissons Ratio (z) = 0.04501 0.04501
#
# Static dielectric constant tensor:
#      x y z
#    x 1.694230 0.000000 0.000000 
#    y 0.000000 1.694230 0.000000 
#    z 0.000000 0.000000 1.727850 
# 
# From -- ./inp_files/10904.got.cif
#   From: 2010.05.17/outbox.cif.g08.bks.cpg/sg134_6_cif.got.tgz:10904.got - 2010.05.20 12:42:49.
