data_PCOD9568741
_publ_section_title
;
Structure prediction by ZEFSAII (Michael W. Deem and Ramdas Pophale) SiO2 
 PCOD9568741
Probable space group: P 42/M B C
;
_chemical_formula_sum "Si O2"
_cell_formula_units_Z 96
_cell_length_a 24.586048
_cell_length_b 24.586048
_cell_length_c 8.765140
_cell_angle_alpha 90.000000
_cell_angle_beta 90.000000
_cell_angle_gamma 90.000000
_cell_volume 5298.297100
_symmetry_space_group_name_H-M "P 42/M B C"
_symmetry_group_IT_number 135
_symmetry_cell_setting 'tetragonal'
loop_
_space_group_symop_operation_xyz
x,y,z
-y,x,1/2+z
-x,-y,z
y,-x,1/2+z
1/2+x,1/2-y,-z
1/2-x,1/2+y,-z
1/2+y,1/2+x,1/2-z
1/2-y,1/2-x,1/2-z
-x,-y,-z
y,-x,1/2-z
x,y,-z
-y,x,1/2-z
1/2-x,1/2+y,z
1/2+x,1/2-y,z
1/2-y,1/2-x,1/2+z
1/2+y,1/2+x,1/2+z
loop_
_atom_site_type_symbol
_atom_site_label
_atom_site_fract_x
_atom_site_fract_y
_atom_site_fract_z
Si Si1 0.433050 0.460173 0.673153
Si Si2 0.224729 0.053284 0.316624
Si Si3 0.641915 0.057052 0.317335
Si Si4 0.849954 0.434169 0.316765
Si Si5 0.063139 0.238885 0.319146
Si Si6 0.370749 0.637112 0.318707
O O1 0.431861 0.509307 0.792421
O O2 0.429510 0.480114 0.500000
O O3 0.389022 0.416337 0.712996
O O4 0.223251 0.045065 0.500000
O O5 0.286383 0.068869 0.272037
O O6 0.184013 0.103342 0.282150
O O7 0.213150 0.994121 0.242103
O O8 0.598899 0.098899 0.250000
O O9 0.640950 0.059592 0.500000
O O10 0.703007 0.069218 0.261043
O O11 0.630183 0.994505 0.270705
O O12 0.887211 0.387211 0.250000
O O13 0.851836 0.431114 0.500000
O O14 0.056677 0.246544 0.500000
O O15 0.116423 0.200927 0.295967
O O16 0.380993 0.626968 0.500000
#
# Coordination Sequence:
#
# PCOD9568741 Si02
#       6
#    16  16  16  16  16  16
#     4  11  21  32  46  66  95 129 170 221 277 328
#     4   9  19  36  54  74 106 145 180 219 268 318
#     4  10  21  38  59  83 111 142 175 213 263 320
#     4   9  19  35  56  81 108 139 172 209 258 314
#     4  10  20  34  54  80 108 141 182 226 271 318
#     4  10  20  34  52  74 102 138 181 224 266 315
#
# _framework density 18.119029000000001
#
# number of rings (size 3 to 8) (size 9 to 14) (size 15 to 20)
#    0.000    2.167    0.000    5.000    0.000    8.333 
#    0.000    2.500    0.000    2.000    0.000    0.000 
#    0.000    0.000    0.000    0.000    0.000    0.000 
#
# Total GULP energy -535104.827510 kJ/mol
# GULP energy per Si atom -5574.008620 kJ/mol
# Density = 1.807779 g / cm^3
# Si number density = 18.119029 Si / 1000 Ang^3
#
#
#
# Elastic Constant Matrix: (Units=GPa)
#
#
# Indices 1 2 3 4 5 6 
#
# 1 103.6684 49.4715 25.6205 0.0000 0.0000 0.0000
# 2 49.4715 103.6684 25.6205 0.0000 0.0000 0.0000
# 3 25.6205 25.6205 28.2593 0.0000 0.0000 0.0000
# 4 0.0000 0.0000 0.0000 26.4795 0.0000 0.0000
# 5 0.0000 0.0000 0.0000 0.0000 26.4795 0.0000
# 6 0.0000 0.0000 0.0000 0.0000 0.0000 36.3593
#
#
#
# Elastic Compliance Matrix: (Units=1/GPa)
#
#
# Indices 1 2 3 4 5 6 
#
# 1 0.013912 -0.004539 -0.008498 0.000000 0.000000 0.000000
# 2 -0.004539 0.013912 -0.008498 0.000000 0.000000 0.000000
# 3 -0.008498 -0.008498 0.050796 0.000000 0.000000 0.000000
# 4 0.000000 0.000000 0.000000 0.037765 0.000000 0.000000
# 5 0.000000 0.000000 0.000000 0.000000 0.037765 0.000000
# 6 0.000000 0.000000 0.000000 0.000000 0.000000 0.027503
#
#
# Mechanical properties :
#
#
# Convention : Reuss Voigt Hill
#
# Bulk Modulus (GPa) = 28.12935 48.55791 38.34363
# Shear Modulus (GPa) = 21.13496 26.85590 23.99543
#
# Velocity S-wave (km/s) = 3.41904 3.85410 3.64307
# Velocity P-wave (km/s) = 5.58076 6.83104 6.23731
#
# Compressibility (1/GPa) = 0.03555005
#
# Stress axis : x y z
#
# Youngs Moduli (GPa) = 71.87851 71.87851 19.68659
#
# Poissons Ratio (x) = 0.32625 0.16730
# Poissons Ratio (y) = 0.32625 0.16730
# Poissons Ratio (z) = 0.61084 0.61084
#
# Static dielectric constant tensor:
#      x y z
#    x 1.643210 0.000000 0.000000 
#    y 0.000000 1.643210 0.000000 
#    z 0.000000 0.000000 1.649100 
# 
# From -- ./inp_files/1244.got.cif
#   From: 2010.05.17/outbox.cif.g08.bks.cpg/sg135_1_cif.got.tgz:1244.got - 2010.05.20 12:50:20.
