data_PCOD9568265
_publ_section_title
;
Structure prediction by ZEFSAII (Michael W. Deem and Ramdas Pophale) SiO2 
 PCOD9568265
Probable space group: P 42/N N M
;
_chemical_formula_sum "Si O2"
_cell_formula_units_Z 48
_cell_length_a 10.490563
_cell_length_b 10.490563
_cell_length_c 20.255069
_cell_angle_alpha 90.000000
_cell_angle_beta 90.000000
_cell_angle_gamma 90.000000
_cell_volume 2229.109072
_symmetry_space_group_name_H-M "P 42/N N M"
_symmetry_group_IT_number 134
_space_group.IT_coordinate_system_code '2'
_symmetry_cell_setting 'tetragonal'
loop_
_space_group_symop_operation_xyz
x,y,z
1/2-y,x,1/2+z
1/2-x,1/2-y,z
y,1/2-x,1/2+z
x,1/2-y,1/2-z
1/2-x,y,1/2-z
y,x,-z
1/2-y,1/2-x,-z
-x,-y,-z
1/2+y,-x,1/2-z
1/2+x,1/2+y,-z
-y,1/2+x,1/2-z
-x,1/2+y,1/2+z
1/2+x,-y,1/2+z
-y,-x,z
1/2+y,1/2+x,z
loop_
_atom_site_type_symbol
_atom_site_label
_atom_site_fract_x
_atom_site_fract_y
_atom_site_fract_z
Si Si1 0.469079 0.320375 0.186109
Si Si2 0.401512 0.598488 0.468548
Si Si3 0.894193 0.693197 0.431691
Si Si4 0.649622 0.350379 0.386974
O O1 0.413362 0.250000 0.250000
O O2 0.585575 0.414426 0.207401
O O3 0.382733 0.401089 0.136645
O O4 0.518438 0.202850 0.140452
O O5 0.500000 0.500000 0.500000
O O6 0.490303 0.705003 0.434522
O O7 0.343991 0.656010 0.535002
O O8 0.750000 0.750000 0.430429
O O9 0.889988 0.610013 0.500000
O O10 0.750000 0.250000 0.359394
#
# Coordination Sequence:
#
# PCOD9568265 Si02
#       4
#    16   8  16   8
#     4  11  22  38  61  93 132 175 229 288 355 421
#     4  12  20  38  62  92 132 173 225 284 345 421
#     4  11  22  38  62  93 127 175 227 284 351 420
#     4  10  20  32  58  92 127 169 216 286 345 407
#
# _framework density 21.533266999999999
#
# number of rings (size 3 to 8) (size 9 to 14) (size 15 to 20)
#    0.000    1.000    8.333    0.000    0.000    2.667 
#    0.000    0.000    0.000    0.000    0.000    0.000 
#    0.000    0.000    0.000    0.000    0.000    0.000 
#
# Total GULP energy -267441.364864 kJ/mol
# GULP energy per Si atom -5571.695101 kJ/mol
# Density = 2.148426 g / cm^3
# Si number density = 21.533267 Si / 1000 Ang^3
#
#
#
# Elastic Constant Matrix: (Units=GPa)
#
#
# Indices 1 2 3 4 5 6 
#
# 1 88.9224 62.3018 61.9511 0.0000 0.0000 0.0000
# 2 62.3018 88.9225 61.9512 0.0000 0.0000 0.0000
# 3 61.9511 61.9512 139.6540 0.0000 0.0000 0.0000
# 4 0.0000 0.0000 0.0000 28.7576 0.0000 0.0000
# 5 0.0000 0.0000 0.0000 0.0000 28.7574 0.0000
# 6 0.0000 0.0000 0.0000 0.0000 0.0000 60.3869
#
#
#
# Elastic Compliance Matrix: (Units=1/GPa)
#
#
# Indices 1 2 3 4 5 6 
#
# 1 0.023977 -0.013588 -0.004608 0.000000 0.000000 0.000000
# 2 -0.013588 0.023977 -0.004608 0.000000 0.000000 0.000000
# 3 -0.004608 -0.004608 0.011249 0.000000 0.000000 0.000000
# 4 0.000000 0.000000 0.000000 0.034773 0.000000 0.000000
# 5 0.000000 0.000000 0.000000 0.000000 0.034774 0.000000
# 6 0.000000 0.000000 0.000000 0.000000 0.000000 0.016560
#
#
# Mechanical properties :
#
#
# Convention : Reuss Voigt Hill
#
# Bulk Modulus (GPa) = 73.56948 76.65633 75.11290
# Shear Modulus (GPa) = 25.58199 32.33337 28.95768
#
# Velocity S-wave (km/s) = 3.45051 3.87919 3.67111
# Velocity P-wave (km/s) = 7.07915 7.46596 7.27512
#
# Compressibility (1/GPa) = 0.01359259
#
# Stress axis : x y z
#
# Youngs Moduli (GPa) = 41.70730 41.70731 88.89566
#
# Poissons Ratio (x) = 0.56672 0.40966
# Poissons Ratio (y) = 0.56672 0.40967
# Poissons Ratio (z) = 0.19220 0.19220
#
# Static dielectric constant tensor:
#      x y z
#    x 1.843630 0.000000 0.000000 
#    y 0.000000 1.843630 0.000000 
#    z 0.000000 0.000000 1.798950 
# 
# From -- ./inp_files/8463.got.cif
#   From: 2010.05.17/outbox.cif.g08.bks.cpg/sg134_5_cif.got.tgz:8463.got - 2010.05.20 12:42:49.
