data_PCOD9568132
_publ_section_title
;
Structure prediction by ZEFSAII (Michael W. Deem and Ramdas Pophale) SiO2 
 PCOD9568132
Probable space group: P 42/N N M
;
_chemical_formula_sum "Si O2"
_cell_formula_units_Z 104
_cell_length_a 26.651138
_cell_length_b 26.651138
_cell_length_c 8.669228
_cell_angle_alpha 90.000000
_cell_angle_beta 90.000000
_cell_angle_gamma 90.000000
_cell_volume 6157.606630
_symmetry_space_group_name_H-M "P 42/N N M"
_symmetry_group_IT_number 134
_space_group.IT_coordinate_system_code '2'
_symmetry_cell_setting 'tetragonal'
loop_
_space_group_symop_operation_xyz
x,y,z
1/2-y,x,1/2+z
1/2-x,1/2-y,z
y,1/2-x,1/2+z
x,1/2-y,1/2-z
1/2-x,y,1/2-z
y,x,-z
1/2-y,1/2-x,-z
-x,-y,-z
1/2+y,-x,1/2-z
1/2+x,1/2+y,-z
-y,1/2+x,1/2-z
-x,1/2+y,1/2+z
1/2+x,-y,1/2+z
-y,-x,z
1/2+y,1/2+x,z
loop_
_atom_site_type_symbol
_atom_site_label
_atom_site_fract_x
_atom_site_fract_y
_atom_site_fract_z
Si Si1 0.403620 0.136092 0.688577
Si Si2 0.446796 0.553205 0.119302
Si Si3 0.578609 0.691753 0.483764
Si Si4 0.250000 0.495680 0.250000
Si Si5 0.660002 0.769833 0.421720
Si Si6 0.841647 0.014044 0.931050
Si Si7 0.475286 0.975286 0.734357
Si Si8 0.026580 0.129540 0.246835
O O1 0.401317 0.148423 0.870306
O O2 0.372863 0.180285 0.608180
O O3 0.459581 0.144305 0.634546
O O4 0.387349 0.078990 0.666780
O O5 0.454444 0.612059 0.129283
O O6 0.481583 0.518418 0.229030
O O7 0.462781 0.537220 0.944976
O O8 0.541053 0.723873 0.374977
O O9 0.625862 0.729243 0.514691
O O10 0.546502 0.667447 0.621536
O O11 0.289738 0.526962 0.150776
O O12 0.669820 0.750000 0.250000
O O13 0.710173 0.789827 0.500000
O O14 0.843514 0.007384 0.116257
O O15 0.498192 0.922375 0.797763
#
# Coordination Sequence:
#
# PCOD9568132 Si02
#       8
#    16   8  16   8  16  16   8  16
#     4  10  18  33  51  75 100 132 163 217 271 327
#     4   9  16  30  53  78 107 143 172 206 260 327
#     4  10  20  35  51  72 100 131 173 223 276 325
#     4  10  20  38  48  70 108 136 178 218 250 320
#     4  10  19  36  58  74  92 127 179 238 289 332
#     4  10  18  32  54  75 104 138 175 210 254 314
#     4   9  18  30  48  85 114 133 171 213 261 337
#     4  11  20  31  56  80 104 135 174 217 271 327
#
# _framework density 16.889678
#
# number of rings (size 3 to 8) (size 9 to 14) (size 15 to 20)
#    0.000    2.000    5.385    1.846    0.000    0.615 
#    0.000    4.615    0.000   15.692    0.000    0.000 
#    0.000    0.308    0.000    0.000    0.000    5.538 
#
# Total GULP energy -579424.043707 kJ/mol
# GULP energy per Si atom -5571.385036 kJ/mol
# Density = 1.685124 g / cm^3
# Si number density = 16.889678 Si / 1000 Ang^3
#
#
#
# Elastic Constant Matrix: (Units=GPa)
#
#
# Indices 1 2 3 4 5 6 
#
# 1 376.2195 -241.7679 41.3539 0.0000 0.0000 0.0000
# 2 -241.7679 376.2243 41.2093 0.0000 0.0000 0.0000
# 3 41.3539 41.2093 57.3058 0.0000 0.0000 0.0000
# 4 0.0000 0.0000 0.0000 10.6801 0.0000 0.0000
# 5 0.0000 0.0000 0.0000 0.0000 10.6753 0.0000
# 6 0.0000 0.0000 0.0000 0.0000 0.0000 40.7447
#
#
#
# Elastic Compliance Matrix: (Units=1/GPa)
#
#
# Indices 1 2 3 4 5 6 
#
# 1 0.007480 0.005860 -0.009612 0.000000 0.000000 0.000000
# 2 0.005860 0.007475 -0.009604 0.000000 0.000000 0.000000
# 3 -0.009612 -0.009604 0.031293 0.000000 0.000000 0.000000
# 4 0.000000 0.000000 0.000000 0.093632 0.000000 0.000000
# 5 0.000000 0.000000 0.000000 0.000000 0.093675 0.000000
# 6 0.000000 0.000000 0.000000 0.000000 0.000000 0.024543
#
#
# Mechanical properties :
#
#
# Convention : Reuss Voigt Hill
#
# Bulk Modulus (GPa) = 51.18767 54.59336 52.89052
# Shear Modulus (GPa) = 17.16313 77.01696 47.09004
#
# Velocity S-wave (km/s) = 3.19123 6.76010 5.28597
# Velocity P-wave (km/s) = 6.62959 9.66052 8.28484
#
# Compressibility (1/GPa) = 0.01953595
#
# Stress axis : x y z
#
# Youngs Moduli (GPa) = 133.68935 133.77158 31.95628
#
# Poissons Ratio (x) = -0.78384 0.30715
# Poissons Ratio (y) = -0.78336 0.30691
# Poissons Ratio (z) = 1.28496 1.28476
#
# Static dielectric constant tensor:
#      x y z
#    x 1.515380 0.000000 0.000000 
#    y 0.000000 1.515400 0.000000 
#    z 0.000000 0.000000 1.653950 
# 
# From -- ./inp_files/3412.got.cif
#   From: 2010.05.17/outbox.cif.g08.bks.cpg/sg134_2_cif.got.tgz:3412.got - 2010.05.20 12:42:49.
