data_PCOD9568665
_publ_section_title
;
Structure prediction by ZEFSAII (Michael W. Deem and Ramdas Pophale) SiO2 
 PCOD9568665
Probable space group: P 42/M B C
;
_chemical_formula_sum "Si O2"
_cell_formula_units_Z 112
_cell_length_a 18.379394
_cell_length_b 18.379394
_cell_length_c 18.327512
_cell_angle_alpha 90.000000
_cell_angle_beta 90.000000
_cell_angle_gamma 90.000000
_cell_volume 6191.072478
_symmetry_space_group_name_H-M "P 42/M B C"
_symmetry_group_IT_number 135
_symmetry_cell_setting 'tetragonal'
loop_
_space_group_symop_operation_xyz
x,y,z
-y,x,1/2+z
-x,-y,z
y,-x,1/2+z
1/2+x,1/2-y,-z
1/2-x,1/2+y,-z
1/2+y,1/2+x,1/2-z
1/2-y,1/2-x,1/2-z
-x,-y,-z
y,-x,1/2-z
x,y,-z
-y,x,1/2-z
1/2-x,1/2+y,z
1/2+x,1/2-y,z
1/2-y,1/2-x,1/2+z
1/2+y,1/2+x,1/2+z
loop_
_atom_site_type_symbol
_atom_site_label
_atom_site_fract_x
_atom_site_fract_y
_atom_site_fract_z
Si Si1 0.743153 0.190909 0.584538
Si Si2 0.990664 0.268154 0.697380
Si Si3 0.473137 0.166460 0.860495
Si Si4 0.015569 0.118288 0.765267
Si Si5 0.379660 0.894792 0.837335
Si Si6 0.187327 0.963929 0.419481
Si Si7 0.693024 0.836669 0.164628
O O1 0.725543 0.204183 0.500000
O O2 0.673744 0.160674 0.627484
O O3 0.798795 0.122654 0.587081
O O4 0.776096 0.262236 0.621625
O O5 0.911389 0.261923 0.662856
O O6 0.979880 0.303942 0.777455
O O7 0.025768 0.190192 0.715510
O O8 0.037270 0.326385 0.652187
O O9 0.536783 0.105602 0.866046
O O10 0.497656 0.233674 0.910888
O O11 0.388030 0.148738 0.867203
O O12 0.012304 0.141472 0.849790
O O13 0.939987 0.079248 0.745447
O O14 0.384000 0.884000 0.750000
O O15 0.157536 0.979972 0.500000
O O16 0.685125 0.814876 0.250000
#
# Coordination Sequence:
#
# PCOD9568665 Si02
#       7
#    16  16  16  16  16  16  16
#     4  10  20  33  51  75 101 133 174 219 260 306
#     4   9  18  31  51  75 100 133 172 212 258 308
#     4   8  17  30  48  76 103 129 166 213 260 311
#     4  10  20  34  52  77 106 137 177 227 273 321
#     4   9  17  32  52  74 100 133 170 211 262 315
#     4   9  18  34  54  74 101 137 177 220 268 320
#     4  10  19  32  51  77 105 134 169 210 258 312
#
# _framework density 18.090565000000002
#
# number of rings (size 3 to 8) (size 9 to 14) (size 15 to 20)
#    0.000    2.714    0.000    2.143    0.000    4.571 
#    0.000    5.000    0.000    1.714    0.000    5.000 
#    0.000    0.000    0.000    0.000    0.000    0.000 
#
# Total GULP energy -623741.920178 kJ/mol
# GULP energy per Si atom -5569.124287 kJ/mol
# Density = 1.804939 g / cm^3
# Si number density = 18.090565 Si / 1000 Ang^3
#
#
#
# Elastic Constant Matrix: (Units=GPa)
#
#
# Indices 1 2 3 4 5 6 
#
# 1 48.7322 6.9002 20.4531 0.0000 0.0000 0.0000
# 2 6.9002 48.7322 20.4532 0.0000 0.0000 0.0000
# 3 20.4531 20.4532 65.8858 0.0000 0.0000 0.0000
# 4 0.0000 0.0000 0.0000 8.8894 0.0000 0.0000
# 5 0.0000 0.0000 0.0000 0.0000 8.8894 0.0000
# 6 0.0000 0.0000 0.0000 0.0000 0.0000 19.7544
#
#
#
# Elastic Compliance Matrix: (Units=1/GPa)
#
#
# Indices 1 2 3 4 5 6 
#
# 1 0.023598 -0.000307 -0.007230 0.000000 0.000000 0.000000
# 2 -0.000307 0.023598 -0.007231 0.000000 0.000000 0.000000
# 3 -0.007230 -0.007231 0.019667 0.000000 0.000000 0.000000
# 4 0.000000 0.000000 0.000000 0.112494 0.000000 0.000000
# 5 0.000000 0.000000 0.000000 0.000000 0.112494 0.000000
# 6 0.000000 0.000000 0.000000 0.000000 0.000000 0.050622
#
#
# Mechanical properties :
#
#
# Convention : Reuss Voigt Hill
#
# Bulk Modulus (GPa) = 26.78934 28.77370 27.78152
# Shear Modulus (GPa) = 13.00555 15.20954 14.10754
#
# Velocity S-wave (km/s) = 2.68416 2.90270 2.79557
# Velocity P-wave (km/s) = 4.94438 5.21288 5.08041
#
# Compressibility (1/GPa) = 0.03732828
#
# Stress axis : x y z
#
# Youngs Moduli (GPa) = 42.37574 42.37566 50.84669
#
# Poissons Ratio (x) = 0.01300 0.36765
# Poissons Ratio (y) = 0.01300 0.36765
# Poissons Ratio (z) = 0.30640 0.30640
#
# Static dielectric constant tensor:
#      x y z
#    x 1.636890 0.000000 0.000000 
#    y 0.000000 1.636890 0.000000 
#    z 0.000000 0.000000 1.611380 
# 
# From -- ./inp_files/5637.got.cif
#   From: 2010.05.17/outbox.cif.g08.bks.cpg/sg135_3_cif.got.tgz:5637.got - 2010.05.20 12:50:20.
