data_PCOD9568276
_publ_section_title
;
Structure prediction by ZEFSAII (Michael W. Deem and Ramdas Pophale) SiO2 
 PCOD9568276
Probable space group: P 42/N N M
;
_chemical_formula_sum "Si O2"
_cell_formula_units_Z 112
_cell_length_a 15.810538
_cell_length_b 15.810538
_cell_length_c 23.842259
_cell_angle_alpha 90.000000
_cell_angle_beta 90.000000
_cell_angle_gamma 90.000000
_cell_volume 5959.923676
_symmetry_space_group_name_H-M "P 42/N N M"
_symmetry_group_IT_number 134
_space_group.IT_coordinate_system_code '2'
_symmetry_cell_setting 'tetragonal'
loop_
_space_group_symop_operation_xyz
x,y,z
1/2-y,x,1/2+z
1/2-x,1/2-y,z
y,1/2-x,1/2+z
x,1/2-y,1/2-z
1/2-x,y,1/2-z
y,x,-z
1/2-y,1/2-x,-z
-x,-y,-z
1/2+y,-x,1/2-z
1/2+x,1/2+y,-z
-y,1/2+x,1/2-z
-x,1/2+y,1/2+z
1/2+x,-y,1/2+z
-y,-x,z
1/2+y,1/2+x,z
loop_
_atom_site_type_symbol
_atom_site_label
_atom_site_fract_x
_atom_site_fract_y
_atom_site_fract_z
Si Si1 0.390460 0.753250 0.811659
Si Si2 0.577097 0.936089 0.878011
Si Si3 0.149659 0.984566 0.488874
Si Si4 0.307176 0.946487 0.198641
Si Si5 0.574069 0.209282 0.589874
Si Si6 0.034539 0.253383 0.100156
Si Si7 0.066556 0.425692 0.567683
O O1 0.433244 0.750000 0.750000
O O2 0.318432 0.681569 0.809758
O O3 0.342231 0.842231 0.817863
O O4 0.450080 0.738647 0.864072
O O5 0.575097 0.835528 0.869378
O O6 0.488205 0.988205 0.872659
O O7 0.610035 0.953034 0.941910
O O8 0.639998 0.981643 0.834420
O O9 0.074920 0.925081 0.511393
O O10 0.211801 0.929106 0.450875
O O11 0.208068 0.018972 0.538312
O O12 0.250000 0.976420 0.250000
O O13 0.374220 0.874220 0.215944
O O14 0.243798 0.910430 0.151771
O O15 0.645368 0.145368 0.571023
O O16 0.486853 0.156178 0.586517
O O17 0.075080 0.160829 0.093190
O O18 0.074146 0.425855 0.500000
O O19 0.008952 0.508952 0.582436
#
# Coordination Sequence:
#
# PCOD9568276 Si02
#       7
#    16  16  16  16  16  16  16
#     4   9  19  35  52  77 112 140 178 247 302 331
#     4   9  20  37  56  85 121 149 183 243 296 340
#     4  10  20  33  54  84 116 145 184 239 295 350
#     4  10  21  39  63  91 120 150 190 239 294 356
#     4  10  20  36  56  81 120 156 185 237 300 351
#     4  12  20  34  60  81 106 155 204 228 281 358
#     4  10  21  38  56  81 119 154 193 245 294 347
#
# _framework density 18.792187999999999
#
# number of rings (size 3 to 8) (size 9 to 14) (size 15 to 20)
#    0.000    2.000    1.429    4.286    0.000    3.571 
#    2.571    2.857    0.000    0.857    0.000    0.000 
#    0.000    0.000    0.000    0.000    0.000    0.000 
#
# Total GULP energy -624331.762943 kJ/mol
# GULP energy per Si atom -5574.390741 kJ/mol
# Density = 1.874942 g / cm^3
# Si number density = 18.792188 Si / 1000 Ang^3
#
#
#
# Elastic Constant Matrix: (Units=GPa)
#
#
# Indices 1 2 3 4 5 6 
#
# 1 83.0543 32.5755 13.4961 0.0000 0.0000 0.0000
# 2 32.5755 83.0543 13.4962 0.0000 0.0000 0.0000
# 3 13.4961 13.4962 61.0864 0.0000 0.0000 0.0000
# 4 0.0000 0.0000 0.0000 18.6960 0.0000 0.0000
# 5 0.0000 0.0000 0.0000 0.0000 18.6960 0.0000
# 6 0.0000 0.0000 0.0000 0.0000 0.0000 9.7873
#
#
#
# Elastic Compliance Matrix: (Units=1/GPa)
#
#
# Indices 1 2 3 4 5 6 
#
# 1 0.014464 -0.005346 -0.002015 0.000000 0.000000 0.000000
# 2 -0.005346 0.014464 -0.002015 0.000000 0.000000 0.000000
# 3 -0.002015 -0.002015 0.017260 0.000000 0.000000 0.000000
# 4 0.000000 0.000000 0.000000 0.053487 0.000000 0.000000
# 5 0.000000 0.000000 0.000000 0.000000 0.053487 0.000000
# 6 0.000000 0.000000 0.000000 0.000000 0.000000 0.102173
#
#
# Mechanical properties :
#
#
# Convention : Reuss Voigt Hill
#
# Bulk Modulus (GPa) = 36.44431 38.48120 37.46276
# Shear Modulus (GPa) = 17.65324 20.61099 19.13212
#
# Velocity S-wave (km/s) = 3.06828 3.31537 3.19421
# Velocity P-wave (km/s) = 5.65578 5.93104 5.79504
#
# Compressibility (1/GPa) = 0.02743912
#
# Stress axis : x y z
#
# Youngs Moduli (GPa) = 69.13503 69.13503 57.93590
#
# Poissons Ratio (x) = 0.36959 0.11672
# Poissons Ratio (y) = 0.36959 0.11672
# Poissons Ratio (z) = 0.13928 0.13928
#
# Static dielectric constant tensor:
#      x y z
#    x 1.661670 0.000000 0.000000 
#    y 0.000000 1.661670 0.000000 
#    z 0.000000 0.000000 1.659530 
# 
# From -- ./inp_files/10106.got.cif
#   From: 2010.05.17/outbox.cif.g08.bks.cpg/sg134_6_cif.got.tgz:10106.got - 2010.05.20 12:42:49.
