data_PCOD9568864
_publ_section_title
;
Structure prediction by ZEFSAII (Michael W. Deem and Ramdas Pophale) SiO2 
 PCOD9568864
Probable space group: P 42/M B C
;
_chemical_formula_sum "Si O2"
_cell_formula_units_Z 96
_cell_length_a 14.511201
_cell_length_b 14.511201
_cell_length_c 20.003933
_cell_angle_alpha 90.000000
_cell_angle_beta 90.000000
_cell_angle_gamma 90.000000
_cell_volume 4212.327281
_symmetry_space_group_name_H-M "P 42/M B C"
_symmetry_group_IT_number 135
_symmetry_cell_setting 'tetragonal'
loop_
_space_group_symop_operation_xyz
x,y,z
-y,x,1/2+z
-x,-y,z
y,-x,1/2+z
1/2+x,1/2-y,-z
1/2-x,1/2+y,-z
1/2+y,1/2+x,1/2-z
1/2-y,1/2-x,1/2-z
-x,-y,-z
y,-x,1/2-z
x,y,-z
-y,x,1/2-z
1/2-x,1/2+y,z
1/2+x,1/2-y,z
1/2-y,1/2-x,1/2+z
1/2+y,1/2+x,1/2+z
loop_
_atom_site_type_symbol
_atom_site_label
_atom_site_fract_x
_atom_site_fract_y
_atom_site_fract_z
Si Si1 0.022755 0.710607 0.093845
Si Si2 0.688364 0.636473 0.808219
Si Si3 0.317134 0.846017 0.073920
Si Si4 0.076522 0.078277 0.573260
Si Si5 0.895298 0.461724 0.879373
Si Si6 0.536993 0.774755 0.753066
O O1 0.917936 0.698349 0.073270
O O2 0.049645 0.815255 0.077565
O O3 0.092191 0.628549 0.073973
O O4 0.025913 0.688323 0.172566
O O5 0.756589 0.686260 0.861859
O O6 0.636285 0.568328 0.859767
O O7 0.619218 0.700753 0.766211
O O8 0.738121 0.565941 0.760204
O O9 0.338705 0.954645 0.086066
O O10 0.276948 0.828148 0.000000
O O11 0.060867 0.120685 0.500000
O O12 0.000000 0.000000 0.577813
O O13 0.841365 0.444048 0.809374
O O14 0.000000 0.500000 0.869234
#
# Coordination Sequence:
#
# PCOD9568864 Si02
#       6
#    16  16  16  16  16  16
#     4  10  21  38  62  93 124 168 210 261 321 388
#     4  10  23  39  64  89 127 162 208 263 312 381
#     4  10  21  40  64  96 131 165 207 263 326 388
#     4  10  22  41  61  83 118 166 217 263 314 371
#     4   9  20  38  64  96 133 168 207 264 330 392
#     4  10  22  39  60  96 125 168 208 262 320 389
#
# _framework density 22.790253
#
# number of rings (size 3 to 8) (size 9 to 14) (size 15 to 20)
#    0.000    2.167    0.000    1.500    4.667   11.667 
#   12.000    0.000    0.000    6.000    0.000    0.000 
#    0.000    0.000    0.000    0.000    0.000    0.000 
#
# Total GULP energy -534840.526708 kJ/mol
# GULP energy per Si atom -5571.255487 kJ/mol
# Density = 2.273838 g / cm^3
# Si number density = 22.790253 Si / 1000 Ang^3
#
#
#
# Elastic Constant Matrix: (Units=GPa)
#
#
# Indices 1 2 3 4 5 6 
#
# 1 60.4147 8.1637 8.0467 0.0000 0.0000 0.0000
# 2 8.1637 60.4147 8.0467 0.0000 0.0000 0.0000
# 3 8.0467 8.0467 118.3707 0.0000 0.0000 0.0000
# 4 0.0000 0.0000 0.0000 -5.9101 0.0000 0.0000
# 5 0.0000 0.0000 0.0000 0.0000 -5.9101 0.0000
# 6 0.0000 0.0000 0.0000 0.0000 0.0000 32.2447
#
#
#
# Elastic Compliance Matrix: (Units=1/GPa)
#
#
# Indices 1 2 3 4 5 6 
#
# 1 0.016978 -0.002160 -0.001007 0.000000 0.000000 0.000000
# 2 -0.002160 0.016978 -0.001007 0.000000 0.000000 0.000000
# 3 -0.001007 -0.001007 0.008585 0.000000 0.000000 0.000000
# 4 0.000000 0.000000 0.000000 -0.169202 0.000000 0.000000
# 5 0.000000 0.000000 0.000000 0.000000 -0.169202 0.000000
# 6 0.000000 0.000000 0.000000 0.000000 0.000000 0.031013
#
#
# Mechanical properties :
#
#
# Convention : Reuss Voigt Hill
#
# Bulk Modulus (GPa) = 29.24649 31.96828 30.60738
# Shear Modulus (GPa) = -20.39955 18.41445 -0.99255
#
# Velocity S-wave (km/s) = -2.99507 2.84561 -0.66065
# Velocity P-wave (km/s) = 0.94878 4.98541 3.58849
#
# Compressibility (1/GPa) = 0.03419214
#
# Stress axis : x y z
#
# Youngs Moduli (GPa) = 58.89871 58.89871 116.48239
#
# Poissons Ratio (x) = 0.12723 0.11734
# Poissons Ratio (y) = 0.12723 0.11734
# Poissons Ratio (z) = 0.05933 0.05933
#
# Static dielectric constant tensor:
#      x y z
#    x 1.891600 0.000000 0.000000 
#    y 0.000000 1.891600 0.000000 
#    z 0.000000 0.000000 1.835020 
# 
# From -- ./inp_files/5493.got.cif
#   From: 2010.05.17/outbox.cif.g08.bks.cpg/sg135_3_cif.got.tgz:5493.got - 2010.05.20 12:50:20.
