data_PCOD9568660
_publ_section_title
;
Structure prediction by ZEFSAII (Michael W. Deem and Ramdas Pophale) SiO2 
 PCOD9568660
Probable space group: P 42/M B C
;
_chemical_formula_sum "Si O2"
_cell_formula_units_Z 80
_cell_length_a 16.754472
_cell_length_b 16.754472
_cell_length_c 15.454630
_cell_angle_alpha 90.000000
_cell_angle_beta 90.000000
_cell_angle_gamma 90.000000
_cell_volume 4338.305227
_symmetry_space_group_name_H-M "P 42/M B C"
_symmetry_group_IT_number 135
_symmetry_cell_setting 'tetragonal'
loop_
_space_group_symop_operation_xyz
x,y,z
-y,x,1/2+z
-x,-y,z
y,-x,1/2+z
1/2+x,1/2-y,-z
1/2-x,1/2+y,-z
1/2+y,1/2+x,1/2-z
1/2-y,1/2-x,1/2-z
-x,-y,-z
y,-x,1/2-z
x,y,-z
-y,x,1/2-z
1/2-x,1/2+y,z
1/2+x,1/2-y,z
1/2-y,1/2-x,1/2+z
1/2+y,1/2+x,1/2+z
loop_
_atom_site_type_symbol
_atom_site_label
_atom_site_fract_x
_atom_site_fract_y
_atom_site_fract_z
Si Si1 0.664496 0.295838 0.228036
Si Si2 0.640168 0.680330 0.905562
Si Si3 0.946727 0.425850 0.852978
Si Si4 0.217867 0.641343 0.095736
Si Si5 0.241212 0.471433 0.598593
O O1 0.719734 0.219734 0.250000
O O2 0.636512 0.330501 0.319850
O O3 0.720590 0.358318 0.175277
O O4 0.595078 0.268998 0.164801
O O5 0.681506 0.768411 0.903125
O O6 0.546476 0.698854 0.900113
O O7 0.658950 0.644811 0.000000
O O8 0.934948 0.434948 0.750000
O O9 0.857945 0.416219 0.891412
O O10 0.000000 0.500000 0.883880
O O11 0.993813 0.345019 0.875289
O O12 0.253230 0.628619 0.000000
O O13 0.237209 0.440778 0.500000
#
# Coordination Sequence:
#
# PCOD9568660 Si02
#       5
#    16  16  16  16  16
#     4  10  19  31  53  78 107 137 184 239 276 320
#     4   8  16  32  52  71  99 135 173 218 275 328
#     4  10  20  32  52  73 114 158 188 219 271 341
#     4   9  16  29  48  73 102 141 184 221 269 322
#     4  10  20  34  54  80 108 145 187 225 276 339
#
# _framework density 18.440380000000001
#
# number of rings (size 3 to 8) (size 9 to 14) (size 15 to 20)
#    0.000    2.600    0.000    5.400    2.800    2.400 
#    0.000    0.000    0.000    3.000    0.000    2.800 
#    0.000    0.000    0.000    0.000    0.000    0.000 
#
# Total GULP energy -445969.644530 kJ/mol
# GULP energy per Si atom -5574.620557 kJ/mol
# Density = 1.839841 g / cm^3
# Si number density = 18.440380 Si / 1000 Ang^3
#
#
#
# Elastic Constant Matrix: (Units=GPa)
#
#
# Indices 1 2 3 4 5 6 
#
# 1 41.5883 25.4676 47.6847 0.0000 0.0000 0.0000
# 2 25.4676 41.5883 47.6847 0.0000 0.0000 0.0000
# 3 47.6847 47.6847 186.4152 0.0000 0.0000 0.0000
# 4 0.0000 0.0000 0.0000 14.7733 0.0000 0.0000
# 5 0.0000 0.0000 0.0000 0.0000 14.7733 0.0000
# 6 0.0000 0.0000 0.0000 0.0000 0.0000 19.4262
#
#
#
# Elastic Compliance Matrix: (Units=1/GPa)
#
#
# Indices 1 2 3 4 5 6 
#
# 1 0.042736 -0.019296 -0.005996 0.000000 0.000000 0.000000
# 2 -0.019296 0.042736 -0.005996 0.000000 0.000000 0.000000
# 3 -0.005996 -0.005996 0.008432 0.000000 0.000000 0.000000
# 4 0.000000 0.000000 0.000000 0.067690 0.000000 0.000000
# 5 0.000000 0.000000 0.000000 0.000000 0.067690 0.000000
# 6 0.000000 0.000000 0.000000 0.000000 0.000000 0.051477
#
#
# Mechanical properties :
#
#
# Convention : Reuss Voigt Hill
#
# Bulk Modulus (GPa) = 31.91915 56.80732 44.36324
# Shear Modulus (GPa) = 14.13308 19.71155 16.92232
#
# Velocity S-wave (km/s) = 2.77143 3.27300 3.03261
# Velocity P-wave (km/s) = 5.25244 6.71984 6.03093
#
# Compressibility (1/GPa) = 0.03132915
#
# Stress axis : x y z
#
# Youngs Moduli (GPa) = 23.39920 23.39920 118.59623
#
# Poissons Ratio (x) = 0.45150 0.71112
# Poissons Ratio (y) = 0.45150 0.71112
# Poissons Ratio (z) = 0.14030 0.14030
#
# Static dielectric constant tensor:
#      x y z
#    x 1.620330 0.000000 0.000000 
#    y 0.000000 1.620330 0.000000 
#    z 0.000000 0.000000 1.680860 
# 
# From -- ./inp_files/3380.got.cif
#   From: 2010.05.17/outbox.cif.g08.bks.cpg/sg135_2_cif.got.tgz:3380.got - 2010.05.20 12:50:20.
