data_PCOD9568127
_publ_section_title
;
Structure prediction by ZEFSAII (Michael W. Deem and Ramdas Pophale) SiO2 
 PCOD9568127
Probable space group: P 42/N N M
;
_chemical_formula_sum "Si O2"
_cell_formula_units_Z 72
_cell_length_a 27.636288
_cell_length_b 27.636288
_cell_length_c 5.168727
_cell_angle_alpha 90.000000
_cell_angle_beta 90.000000
_cell_angle_gamma 90.000000
_cell_volume 3947.689750
_symmetry_space_group_name_H-M "P 42/N N M"
_symmetry_group_IT_number 134
_space_group.IT_coordinate_system_code '2'
_symmetry_cell_setting 'tetragonal'
loop_
_space_group_symop_operation_xyz
x,y,z
1/2-y,x,1/2+z
1/2-x,1/2-y,z
y,1/2-x,1/2+z
x,1/2-y,1/2-z
1/2-x,y,1/2-z
y,x,-z
1/2-y,1/2-x,-z
-x,-y,-z
1/2+y,-x,1/2-z
1/2+x,1/2+y,-z
-y,1/2+x,1/2-z
-x,1/2+y,1/2+z
1/2+x,-y,1/2+z
-y,-x,z
1/2+y,1/2+x,z
loop_
_atom_site_type_symbol
_atom_site_label
_atom_site_fract_x
_atom_site_fract_y
_atom_site_fract_z
Si Si1 0.506712 0.851004 0.196881
Si Si2 0.395190 0.750000 0.750000
Si Si3 0.250000 0.959247 0.250000
Si Si4 0.389827 0.459274 0.818287
Si Si5 0.855200 0.355200 0.230796
Si Si6 0.476357 0.523644 0.751778
Si Si7 0.404013 0.904013 0.261208
O O1 0.487597 0.797289 0.148875
O O2 0.530224 0.847881 0.480599
O O3 0.460812 0.888259 0.232833
O O4 0.544563 0.869865 0.976281
O O5 0.426835 0.762773 0.497588
O O6 0.364970 0.701598 0.709580
O O7 0.421751 0.507522 0.772396
O O8 0.423300 0.423300 0.000000
O O9 0.880078 0.380078 0.483356
O O10 0.879732 0.379732 0.985362
O O11 0.500000 0.500000 0.500000
O O12 0.500000 0.500000 0.000000
#
# Coordination Sequence:
#
# PCOD9568127 Si02
#       7
#    16   8   8  16   8   8   8
#     4  12  22  37  57  80 106 142 184 226 279 328
#     4  12  22  41  56  80 102 134 180 240 300 353
#     4  12  24  40  58  79 110 138 186 233 274 344
#     4  11  22  36  54  79 109 141 175 222 271 331
#     4  12  22  38  58  74 104 132 176 236 302 354
#     4  10  18  32  50  74 105 136 167 213 262 313
#     4  12  22  37  55  83  98 144 177 220 288 348
#
# _framework density 18.238516000000001
#
# number of rings (size 3 to 8) (size 9 to 14) (size 15 to 20)
#    0.000    0.444    4.444    7.333    0.000    0.222 
#    0.000    0.000    0.000    2.667    0.000    0.000 
#    0.000    0.000    0.000    0.000    0.000   15.556 
#
# Total GULP energy -400990.853843 kJ/mol
# GULP energy per Si atom -5569.317414 kJ/mol
# Density = 1.819700 g / cm^3
# Si number density = 18.238516 Si / 1000 Ang^3
#
#
#
# Elastic Constant Matrix: (Units=GPa)
#
#
# Indices 1 2 3 4 5 6 
#
# 1 33.3891 26.6546 18.3380 0.0000 0.0000 0.0000
# 2 26.6546 33.3891 18.3380 0.0000 0.0000 0.0000
# 3 18.3380 18.3380 155.5221 0.0000 0.0000 0.0000
# 4 0.0000 0.0000 0.0000 23.7255 0.0000 0.0000
# 5 0.0000 0.0000 0.0000 0.0000 23.7255 0.0000
# 6 0.0000 0.0000 0.0000 0.0000 0.0000 39.2830
#
#
#
# Elastic Compliance Matrix: (Units=1/GPa)
#
#
# Indices 1 2 3 4 5 6 
#
# 1 0.083218 -0.065271 -0.002116 0.000000 0.000000 0.000000
# 2 -0.065271 0.083218 -0.002116 0.000000 0.000000 0.000000
# 3 -0.002116 -0.002116 0.006929 0.000000 0.000000 0.000000
# 4 0.000000 0.000000 0.000000 0.042149 0.000000 0.000000
# 5 0.000000 0.000000 0.000000 0.000000 0.042149 0.000000
# 6 0.000000 0.000000 0.000000 0.000000 0.000000 0.025456
#
#
# Mechanical properties :
#
#
# Convention : Reuss Voigt Hill
#
# Bulk Modulus (GPa) = 29.10483 38.77350 33.93917
# Shear Modulus (GPa) = 11.53194 27.94476 19.73835
#
# Velocity S-wave (km/s) = 2.51726 3.91856 3.29330
# Velocity P-wave (km/s) = 4.94381 6.46365 5.75413
#
# Compressibility (1/GPa) = 0.03435856
#
# Stress axis : x y z
#
# Youngs Moduli (GPa) = 12.01662 12.01662 144.32080
#
# Poissons Ratio (x) = 0.78434 0.30541
# Poissons Ratio (y) = 0.78434 0.30541
# Poissons Ratio (z) = 0.02543 0.02543
#
# Static dielectric constant tensor:
#      x y z
#    x 1.654970 0.000000 0.000000 
#    y 0.000000 1.654970 0.000000 
#    z 0.000000 0.000000 1.666570 
# 
# From -- ./inp_files/1124.got.cif
#   From: 2010.05.17/outbox.cif.g08.bks.cpg/sg134_1_cif.got.tgz:1124.got - 2010.05.20 12:42:49.
