data_PCOD9568923
_publ_section_title
;
Structure prediction by ZEFSAII (Michael W. Deem and Ramdas Pophale) SiO2 
 PCOD9568923
Probable space group: P 42/M B C
;
_chemical_formula_sum "Si O2"
_cell_formula_units_Z 88
_cell_length_a 12.806818
_cell_length_b 12.806818
_cell_length_c 26.558790
_cell_angle_alpha 90.000000
_cell_angle_beta 90.000000
_cell_angle_gamma 90.000000
_cell_volume 4356.028981
_symmetry_space_group_name_H-M "P 42/M B C"
_symmetry_group_IT_number 135
_symmetry_cell_setting 'tetragonal'
loop_
_space_group_symop_operation_xyz
x,y,z
-y,x,1/2+z
-x,-y,z
y,-x,1/2+z
1/2+x,1/2-y,-z
1/2-x,1/2+y,-z
1/2+y,1/2+x,1/2-z
1/2-y,1/2-x,1/2-z
-x,-y,-z
y,-x,1/2-z
x,y,-z
-y,x,1/2-z
1/2-x,1/2+y,z
1/2+x,1/2-y,z
1/2-y,1/2-x,1/2+z
1/2+y,1/2+x,1/2+z
loop_
_atom_site_type_symbol
_atom_site_label
_atom_site_fract_x
_atom_site_fract_y
_atom_site_fract_z
Si Si1 0.138069 0.199349 0.725582
Si Si2 0.212107 0.909467 0.057015
Si Si3 0.844088 0.923637 0.176512
Si Si4 0.000000 0.000000 0.904058
Si Si5 0.926208 0.399719 0.442054
Si Si6 0.174020 0.731845 0.133654
O O1 0.200298 0.299703 0.750000
O O2 0.113470 0.127349 0.772800
O O3 0.213808 0.140405 0.685693
O O4 0.032503 0.210499 0.693125
O O5 0.091966 0.946646 0.064110
O O6 0.225820 0.819249 0.097986
O O7 0.294931 0.003420 0.064837
O O8 0.228373 0.871674 0.000000
O O9 0.758204 0.849787 0.152820
O O10 0.934408 0.930788 0.135157
O O11 0.887289 0.398002 0.500000
O O12 0.832638 0.403463 0.402011
O O13 0.000000 0.500000 0.436410
#
# Coordination Sequence:
#
# PCOD9568923 Si02
#       6
#    16  16  16   8  16  16
#     4  10  22  39  64  91 131 168 215 267 321 394
#     4  11  24  42  64  99 131 170 220 268 326 387
#     4  11  22  40  64  97 125 170 216 265 331 380
#     4  12  21  41  68  92 132 168 214 276 326 384
#     4  10  22  43  66  90 130 174 216 267 322 390
#     4  11  21  42  63  96 130 166 217 264 327 391
#
# _framework density 20.201885999999998
#
# number of rings (size 3 to 8) (size 9 to 14) (size 15 to 20)
#    0.000    1.273    3.636    1.909    0.000    1.455 
#    6.545    1.818    0.000    0.000    0.000    0.000 
#    0.000    0.000    0.000    0.000    0.000    0.000 
#
# Total GULP energy -490690.450917 kJ/mol
# GULP energy per Si atom -5576.027851 kJ/mol
# Density = 2.015591 g / cm^3
# Si number density = 20.201886 Si / 1000 Ang^3
#
#
#
# Elastic Constant Matrix: (Units=GPa)
#
#
# Indices 1 2 3 4 5 6 
#
# 1 43.6800 26.5870 13.3758 0.0000 0.0000 0.0000
# 2 26.5870 43.6818 13.3761 0.0000 0.0000 0.0000
# 3 13.3758 13.3761 106.5840 0.0000 0.0000 0.0000
# 4 0.0000 0.0000 0.0000 40.4881 0.0000 0.0000
# 5 0.0000 0.0000 0.0000 0.0000 40.4868 0.0000
# 6 0.0000 0.0000 0.0000 0.0000 0.0000 15.8055
#
#
#
# Elastic Compliance Matrix: (Units=1/GPa)
#
#
# Indices 1 2 3 4 5 6 
#
# 1 0.036724 -0.021778 -0.001876 0.000000 0.000000 0.000000
# 2 -0.021778 0.036722 -0.001876 0.000000 0.000000 0.000000
# 3 -0.001876 -0.001876 0.009853 0.000000 0.000000 0.000000
# 4 0.000000 0.000000 0.000000 0.024699 0.000000 0.000000
# 5 0.000000 0.000000 0.000000 0.000000 0.024699 0.000000
# 6 0.000000 0.000000 0.000000 0.000000 0.000000 0.063269
#
#
# Mechanical properties :
#
#
# Convention : Reuss Voigt Hill
#
# Bulk Modulus (GPa) = 31.01611 33.40262 32.20936
# Shear Modulus (GPa) = 19.39707 28.72986 24.06347
#
# Velocity S-wave (km/s) = 3.10201 3.77522 3.45505
# Velocity P-wave (km/s) = 5.31191 5.96434 5.64755
#
# Compressibility (1/GPa) = 0.03224131
#
# Stress axis : x y z
#
# Youngs Moduli (GPa) = 27.23037 27.23149 101.49160
#
# Poissons Ratio (x) = 0.59304 0.19036
# Poissons Ratio (y) = 0.59301 0.19035
# Poissons Ratio (z) = 0.05107 0.05107
#
# Static dielectric constant tensor:
#      x y z
#    x 1.690280 0.000000 0.000000 
#    y 0.000000 1.690280 0.000000 
#    z 0.000000 0.000000 1.730890 
# 
# From -- ./inp_files/6759.got.cif
#   From: 2010.05.17/outbox.cif.g08.bks.cpg/sg135_4_cif.got.tgz:6759.got - 2010.05.20 12:50:20.
