data_PCOD9568117
_publ_section_title
;
Structure prediction by ZEFSAII (Michael W. Deem and Ramdas Pophale) SiO2 
 PCOD9568117
Probable space group: P 42/N N M
;
_chemical_formula_sum "Si O2"
_cell_formula_units_Z 112
_cell_length_a 14.270380
_cell_length_b 14.270380
_cell_length_c 29.939874
_cell_angle_alpha 90.000000
_cell_angle_beta 90.000000
_cell_angle_gamma 90.000000
_cell_volume 6097.068076
_symmetry_space_group_name_H-M "P 42/N N M"
_symmetry_group_IT_number 134
_space_group.IT_coordinate_system_code '2'
_symmetry_cell_setting 'tetragonal'
loop_
_space_group_symop_operation_xyz
x,y,z
1/2-y,x,1/2+z
1/2-x,1/2-y,z
y,1/2-x,1/2+z
x,1/2-y,1/2-z
1/2-x,y,1/2-z
y,x,-z
1/2-y,1/2-x,-z
-x,-y,-z
1/2+y,-x,1/2-z
1/2+x,1/2+y,-z
-y,1/2+x,1/2-z
-x,1/2+y,1/2+z
1/2+x,-y,1/2+z
-y,-x,z
1/2+y,1/2+x,z
loop_
_atom_site_type_symbol
_atom_site_label
_atom_site_fract_x
_atom_site_fract_y
_atom_site_fract_z
Si Si1 0.099180 0.755574 0.867499
Si Si2 0.398573 0.750871 0.370658
Si Si3 0.179694 0.472460 0.449283
Si Si4 0.955916 0.886831 0.662467
Si Si5 0.325567 0.324078 0.417780
Si Si6 0.164765 0.990743 0.283715
Si Si7 0.025027 0.181535 0.049601
O O1 0.160343 0.839658 0.846962
O O2 0.173336 0.673336 0.879465
O O3 0.020957 0.705648 0.836869
O O4 0.048561 0.795001 0.911785
O O5 0.334129 0.665872 0.388417
O O6 0.327579 0.827579 0.350780
O O7 0.455155 0.799205 0.410242
O O8 0.461332 0.709413 0.331321
O O9 0.264934 0.398237 0.445124
O O10 0.177865 0.512714 0.499270
O O11 0.084110 0.413568 0.442087
O O12 0.885411 0.871411 0.621307
O O13 0.897180 0.917264 0.705812
O O14 0.025659 0.974342 0.653486
O O15 0.250000 0.250000 0.398391
O O16 0.397510 0.264083 0.447199
O O17 0.250000 0.003381 0.250000
O O18 0.093730 0.906271 0.270395
#
# Coordination Sequence:
#
# PCOD9568117 Si02
#       7
#    16  16  16  16  16  16  16
#     4   9  18  33  51  73 104 141 182 229 277 320
#     4  10  21  34  48  71 105 145 181 212 257 315
#     4  10  18  31  47  69 103 140 182 228 269 320
#     4   9  17  31  52  79 107 137 179 223 263 318
#     4   9  16  29  49  72 100 136 180 221 277 317
#     4  10  19  33  55  81 112 143 173 211 257 317
#     4   9  19  30  47  73 100 137 182 228 276 320
#
# _framework density 18.369484
#
# number of rings (size 3 to 8) (size 9 to 14) (size 15 to 20)
#    0.000    2.571    1.429    0.857    0.000    4.143 
#    0.000    2.857    0.000    4.714    0.000    0.000 
#    0.000    1.143    0.000    5.286    0.000    1.714 
#
# Total GULP energy -624118.327145 kJ/mol
# GULP energy per Si atom -5572.485064 kJ/mol
# Density = 1.832767 g / cm^3
# Si number density = 18.369484 Si / 1000 Ang^3
#
#
#
# Elastic Constant Matrix: (Units=GPa)
#
#
# Indices 1 2 3 4 5 6 
#
# 1 86.4718 47.0199 41.6435 0.0000 0.0000 0.0000
# 2 47.0199 86.4718 41.6435 0.0000 0.0000 0.0000
# 3 41.6435 41.6435 58.3143 0.0000 0.0000 0.0000
# 4 0.0000 0.0000 0.0000 -92.1091 0.0000 0.0000
# 5 0.0000 0.0000 0.0000 0.0000 -92.1091 0.0000
# 6 0.0000 0.0000 0.0000 0.0000 0.0000 27.5821
#
#
#
# Elastic Compliance Matrix: (Units=1/GPa)
#
#
# Indices 1 2 3 4 5 6 
#
# 1 0.019429 -0.005918 -0.009648 0.000000 0.000000 0.000000
# 2 -0.005918 0.019429 -0.009648 0.000000 0.000000 0.000000
# 3 -0.009648 -0.009648 0.030929 0.000000 0.000000 0.000000
# 4 0.000000 0.000000 0.000000 -0.010857 0.000000 0.000000
# 5 0.000000 0.000000 0.000000 0.000000 -0.010857 0.000000
# 6 0.000000 0.000000 0.000000 0.000000 0.000000 0.036255
#
#
# Mechanical properties :
#
#
# Convention : Reuss Voigt Hill
#
# Bulk Modulus (GPa) = 51.66133 54.65243 53.15688
# Shear Modulus (GPa) = 35.40793 -24.59716 5.40539
#
# Velocity S-wave (km/s) = 4.39514 -3.66324 1.71726
# Velocity P-wave (km/s) = 7.34444 3.45311 5.73868
#
# Compressibility (1/GPa) = 0.01935684
#
# Stress axis : x y z
#
# Youngs Moduli (GPa) = 51.46920 51.46920 32.33241
#
# Poissons Ratio (x) = 0.30461 0.31196
# Poissons Ratio (y) = 0.30461 0.31196
# Poissons Ratio (z) = 0.49659 0.49659
#
# Static dielectric constant tensor:
#      x y z
#    x 1.661500 0.000000 0.000000 
#    y 0.000000 1.661500 0.000000 
#    z 0.000000 0.000000 1.582240 
# 
# From -- ./inp_files/10111.got.cif
#   From: 2010.05.17/outbox.cif.g08.bks.cpg/sg134_6_cif.got.tgz:10111.got - 2010.05.20 12:42:49.
