data_PCOD9568752
_publ_section_title
;
Structure prediction by ZEFSAII (Michael W. Deem and Ramdas Pophale) SiO2 
 PCOD9568752
Probable space group: P 42/M B C
;
_chemical_formula_sum "Si O2"
_cell_formula_units_Z 80
_cell_length_a 23.413860
_cell_length_b 23.413860
_cell_length_c 9.471389
_cell_angle_alpha 90.000000
_cell_angle_beta 90.000000
_cell_angle_gamma 90.000000
_cell_volume 5192.299178
_symmetry_space_group_name_H-M "P 42/M B C"
_symmetry_group_IT_number 135
_symmetry_cell_setting 'tetragonal'
loop_
_space_group_symop_operation_xyz
x,y,z
-y,x,1/2+z
-x,-y,z
y,-x,1/2+z
1/2+x,1/2-y,-z
1/2-x,1/2+y,-z
1/2+y,1/2+x,1/2-z
1/2-y,1/2-x,1/2-z
-x,-y,-z
y,-x,1/2-z
x,y,-z
-y,x,1/2-z
1/2-x,1/2+y,z
1/2+x,1/2-y,z
1/2-y,1/2-x,1/2+z
1/2+y,1/2+x,1/2+z
loop_
_atom_site_type_symbol
_atom_site_label
_atom_site_fract_x
_atom_site_fract_y
_atom_site_fract_z
Si Si1 0.793769 0.621460 0.334462
Si Si2 0.197236 0.216803 0.330870
Si Si3 0.599854 0.020387 0.000000
Si Si4 0.487370 0.084233 0.000000
Si Si5 0.826493 0.495516 0.268655
Si Si6 0.711720 0.875261 0.329610
O O1 0.845645 0.654356 0.250000
O O2 0.793573 0.639021 0.500000
O O3 0.736424 0.640254 0.250163
O O4 0.799556 0.553161 0.329643
O O5 0.241918 0.258083 0.250000
O O6 0.193337 0.226897 0.500000
O O7 0.226796 0.155403 0.311682
O O8 0.641929 0.015692 0.129341
O O9 0.555664 0.072705 0.000000
O O10 0.553929 0.969338 0.000000
O O11 0.474643 0.121473 0.865290
O O12 0.788093 0.439001 0.265610
O O13 0.663768 0.836233 0.250000
O O14 0.700378 0.876500 0.500000
#
# Coordination Sequence:
#
# PCOD9568752 Si02
#       6
#    16  16   8   8  16  16
#     4  11  21  34  51  70  97 126 162 204 247 295
#     4   9  18  32  52  71  92 120 157 202 248 298
#     4  11  24  32  48  64  92 134 172 209 234 272
#     4  11  20  38  46  62  94 130 174 203 240 276
#     4  12  23  33  49  71  94 129 166 209 246 285
#     4  10  20  35  51  71  96 126 163 203 249 293
#
# _framework density 15.407432999999999
#
# number of rings (size 3 to 8) (size 9 to 14) (size 15 to 20)
#    0.000    1.400    2.000    6.000    4.200    2.400 
#    0.000    0.000    0.000    0.000    0.000    0.000 
#    0.000    0.800    0.000    6.400    0.000    0.000 
#
# Total GULP energy -445392.447694 kJ/mol
# GULP energy per Si atom -5567.405596 kJ/mol
# Density = 1.537236 g / cm^3
# Si number density = 15.407433 Si / 1000 Ang^3
#
#
#
# Elastic Constant Matrix: (Units=GPa)
#
#
# Indices 1 2 3 4 5 6 
#
# 1 67.7680 38.1556 13.2209 0.0000 0.0000 0.0000
# 2 38.1556 67.7684 13.2211 0.0000 0.0000 0.0000
# 3 13.2209 13.2211 83.0788 0.0000 0.0000 0.0000
# 4 0.0000 0.0000 0.0000 24.7546 0.0000 0.0000
# 5 0.0000 0.0000 0.0000 0.0000 24.7545 0.0000
# 6 0.0000 0.0000 0.0000 0.0000 0.0000 29.2957
#
#
#
# Elastic Compliance Matrix: (Units=1/GPa)
#
#
# Indices 1 2 3 4 5 6 
#
# 1 0.021800 -0.011969 -0.001565 0.000000 0.000000 0.000000
# 2 -0.011969 0.021800 -0.001565 0.000000 0.000000 0.000000
# 3 -0.001565 -0.001565 0.012535 0.000000 0.000000 0.000000
# 4 0.000000 0.000000 0.000000 0.040396 0.000000 0.000000
# 5 0.000000 0.000000 0.000000 0.000000 0.040397 0.000000
# 6 0.000000 0.000000 0.000000 0.000000 0.000000 0.034135
#
#
# Mechanical properties :
#
#
# Convention : Reuss Voigt Hill
#
# Bulk Modulus (GPa) = 38.55168 38.64558 38.59863
# Shear Modulus (GPa) = 23.82019 26.02879 24.92449
#
# Velocity S-wave (km/s) = 3.93621 4.11465 4.02642
# Velocity P-wave (km/s) = 6.76270 6.90729 6.83538
#
# Compressibility (1/GPa) = 0.02593921
#
# Stress axis : x y z
#
# Youngs Moduli (GPa) = 45.87069 45.87096 79.77839
#
# Poissons Ratio (x) = 0.54903 0.12481
# Poissons Ratio (y) = 0.54903 0.12482
# Poissons Ratio (z) = 0.07176 0.07177
#
# Static dielectric constant tensor:
#      x y z
#    x 1.546270 0.000000 0.000000 
#    y 0.000000 1.546270 0.000000 
#    z 0.000000 0.000000 1.527780 
# 
# From -- ./inp_files/1155.got.cif
#   From: 2010.05.17/outbox.cif.g08.bks.cpg/sg135_1_cif.got.tgz:1155.got - 2010.05.20 12:50:20.
