data_PCOD9568441
_publ_section_title
;
Structure prediction by ZEFSAII (Michael W. Deem and Ramdas Pophale) SiO2 
 PCOD9568441
Probable space group: P 42/N N M
;
_chemical_formula_sum "Si O2"
_cell_formula_units_Z 56
_cell_length_a 17.105092
_cell_length_b 17.105092
_cell_length_c 9.434582
_cell_angle_alpha 90.000000
_cell_angle_beta 90.000000
_cell_angle_gamma 90.000000
_cell_volume 2760.409366
_symmetry_space_group_name_H-M "P 42/N N M"
_symmetry_group_IT_number 134
_space_group.IT_coordinate_system_code '2'
_symmetry_cell_setting 'tetragonal'
loop_
_space_group_symop_operation_xyz
x,y,z
1/2-y,x,1/2+z
1/2-x,1/2-y,z
y,1/2-x,1/2+z
x,1/2-y,1/2-z
1/2-x,y,1/2-z
y,x,-z
1/2-y,1/2-x,-z
-x,-y,-z
1/2+y,-x,1/2-z
1/2+x,1/2+y,-z
-y,1/2+x,1/2-z
-x,1/2+y,1/2+z
1/2+x,-y,1/2+z
-y,-x,z
1/2+y,1/2+x,z
loop_
_atom_site_type_symbol
_atom_site_label
_atom_site_fract_x
_atom_site_fract_y
_atom_site_fract_z
Si Si1 0.482257 0.744102 0.512902
Si Si2 0.632173 0.688084 0.140688
Si Si3 0.493292 0.123820 0.261605
Si Si4 0.875129 0.250000 0.750000
O O1 0.553054 0.773696 0.416266
O O2 0.469337 0.816735 0.621537
O O3 0.500120 0.669581 0.612135
O O4 0.419196 0.726465 0.393419
O O5 0.664763 0.750000 0.250000
O O6 0.618095 0.599477 0.199075
O O7 0.682443 0.682443 0.000000
O O8 0.543255 0.043255 0.261667
O O9 0.822011 0.177990 0.794310
#
# Coordination Sequence:
#
# PCOD9568441 Si02
#       4
#    16  16  16   8
#     4  10  21  41  62  93 134 158 211 276 315 381
#     4  10  22  43  65  92 127 166 215 270 328 380
#     4  10  22  41  68  94 124 175 219 261 322 389
#     4  11  22  36  60  92 129 170 204 256 333 392
#
# _framework density 20.286847000000002
#
# number of rings (size 3 to 8) (size 9 to 14) (size 15 to 20)
#    0.000    1.857    1.429    1.714    0.000    7.429 
#    0.000   22.857    0.000    6.857    0.000    0.000 
#    0.000    0.000    0.000    0.000    0.000    0.000 
#
# Total GULP energy -312164.284248 kJ/mol
# GULP energy per Si atom -5574.362219 kJ/mol
# Density = 2.024067 g / cm^3
# Si number density = 20.286847 Si / 1000 Ang^3
#
#
#
# Elastic Constant Matrix: (Units=GPa)
#
#
# Indices 1 2 3 4 5 6 
#
# 1 90.9868 69.2451 66.0384 0.0000 0.0000 0.0000
# 2 69.2451 90.9868 66.0384 0.0000 0.0000 0.0000
# 3 66.0384 66.0384 160.7407 0.0000 0.0000 0.0000
# 4 0.0000 0.0000 0.0000 32.7529 0.0000 0.0000
# 5 0.0000 0.0000 0.0000 0.0000 32.7529 0.0000
# 6 0.0000 0.0000 0.0000 0.0000 0.0000 15.4334
#
#
#
# Elastic Compliance Matrix: (Units=1/GPa)
#
#
# Indices 1 2 3 4 5 6 
#
# 1 0.027716 -0.018279 -0.003877 0.000000 0.000000 0.000000
# 2 -0.018279 0.027716 -0.003877 0.000000 0.000000 0.000000
# 3 -0.003877 -0.003877 0.009407 0.000000 0.000000 0.000000
# 4 0.000000 0.000000 0.000000 0.030532 0.000000 0.000000
# 5 0.000000 0.000000 0.000000 0.000000 0.030532 0.000000
# 6 0.000000 0.000000 0.000000 0.000000 0.000000 0.064795
#
#
# Mechanical properties :
#
#
# Convention : Reuss Voigt Hill
#
# Bulk Modulus (GPa) = 78.29412 82.81756 80.55584
# Shear Modulus (GPa) = 20.24137 25.61399 22.92768
#
# Velocity S-wave (km/s) = 3.16216 3.55715 3.36545
# Velocity P-wave (km/s) = 7.21177 7.60151 7.40920
#
# Compressibility (1/GPa) = 0.01277235
#
# Stress axis : x y z
#
# Youngs Moduli (GPa) = 36.08082 36.08082 106.30624
#
# Poissons Ratio (x) = 0.65952 0.41214
# Poissons Ratio (y) = 0.65952 0.41214
# Poissons Ratio (z) = 0.13988 0.13988
#
# Static dielectric constant tensor:
#      x y z
#    x 1.650220 0.000000 0.000000 
#    y 0.000000 1.650220 0.000000 
#    z 0.000000 0.000000 1.625320 
# 
# From -- ./inp_files/2355.got.cif
#   From: 2010.05.17/outbox.cif.g08.bks.cpg/sg134_2_cif.got.tgz:2355.got - 2010.05.20 12:42:49.
