data_PCOD9568353
_publ_section_title
;
Structure prediction by ZEFSAII (Michael W. Deem and Ramdas Pophale) SiO2 
 PCOD9568353
Probable space group: P 42/N N M
;
_chemical_formula_sum "Si O2"
_cell_formula_units_Z 64
_cell_length_a 20.153386
_cell_length_b 20.153386
_cell_length_c 8.908437
_cell_angle_alpha 90.000000
_cell_angle_beta 90.000000
_cell_angle_gamma 90.000000
_cell_volume 3618.241572
_symmetry_space_group_name_H-M "P 42/N N M"
_symmetry_group_IT_number 134
_space_group.IT_coordinate_system_code '2'
_symmetry_cell_setting 'tetragonal'
loop_
_space_group_symop_operation_xyz
x,y,z
1/2-y,x,1/2+z
1/2-x,1/2-y,z
y,1/2-x,1/2+z
x,1/2-y,1/2-z
1/2-x,y,1/2-z
y,x,-z
1/2-y,1/2-x,-z
-x,-y,-z
1/2+y,-x,1/2-z
1/2+x,1/2+y,-z
-y,1/2+x,1/2-z
-x,1/2+y,1/2+z
1/2+x,-y,1/2+z
-y,-x,z
1/2+y,1/2+x,z
loop_
_atom_site_type_symbol
_atom_site_label
_atom_site_fract_x
_atom_site_fract_y
_atom_site_fract_z
Si Si1 0.520972 0.819219 0.815018
Si Si2 0.054210 0.554210 0.674776
Si Si3 0.441587 0.558414 0.172139
Si Si4 0.178387 0.338301 0.177183
Si Si5 0.006391 0.316753 0.827313
O O1 0.495706 0.750000 0.750000
O O2 0.480404 0.881746 0.750361
O O3 0.601223 0.820607 0.779644
O O4 0.508378 0.817653 0.993011
O O5 0.071518 0.571518 0.502964
O O6 0.997861 0.497861 0.677440
O O7 0.377973 0.531753 0.258001
O O8 0.250000 0.316928 0.250000
O O9 0.177494 0.416167 0.211942
O O10 0.179950 0.320051 0.000000
O O11 0.980668 0.250000 0.750000
#
# Coordination Sequence:
#
# PCOD9568353 Si02
#       5
#    16   8   8  16  16
#     4  11  22  38  59  86 119 153 196 245 293 347
#     4  11  23  37  59  90 115 152 197 243 293 342
#     4  11  21  37  61  84 117 154 197 245 289 348
#     4   9  19  36  56  81 114 158 199 238 287 342
#     4  10  20  37  59  86 116 153 196 241 293 347
#
# _framework density 17.68815
#
# number of rings (size 3 to 8) (size 9 to 14) (size 15 to 20)
#    0.000    1.750    2.500    2.250    0.000    1.500 
#    0.000    3.750    0.000    0.750    0.000    5.250 
#    0.000    0.000    0.000    0.000    0.000    0.000 
#
# Total GULP energy -356348.508738 kJ/mol
# GULP energy per Si atom -5567.945449 kJ/mol
# Density = 1.764789 g / cm^3
# Si number density = 17.688150 Si / 1000 Ang^3
#
#
#
# Elastic Constant Matrix: (Units=GPa)
#
#
# Indices 1 2 3 4 5 6 
#
# 1 128.6329 81.4633 65.4143 0.0000 0.0000 0.0000
# 2 81.4633 128.6335 65.4123 0.0000 0.0000 0.0000
# 3 65.4143 65.4123 71.8759 0.0000 0.0000 0.0000
# 4 0.0000 0.0000 0.0000 -11.5312 0.0000 0.0000
# 5 0.0000 0.0000 0.0000 0.0000 -10.7419 0.0000
# 6 0.0000 0.0000 0.0000 0.0000 0.0000 -11.8276
#
#
#
# Elastic Compliance Matrix: (Units=1/GPa)
#
#
# Indices 1 2 3 4 5 6 
#
# 1 0.016093 -0.005107 -0.009998 0.000000 0.000000 0.000000
# 2 -0.005107 0.016092 -0.009997 0.000000 0.000000 0.000000
# 3 -0.009998 -0.009997 0.032110 0.000000 0.000000 0.000000
# 4 0.000000 0.000000 0.000000 -0.086721 0.000000 0.000000
# 5 0.000000 0.000000 0.000000 0.000000 -0.093093 0.000000
# 6 0.000000 0.000000 0.000000 0.000000 0.000000 -0.084548
#
#
# Mechanical properties :
#
#
# Convention : Reuss Voigt Hill
#
# Bulk Modulus (GPa) = 70.96991 83.74691 77.35841
# Shear Modulus (GPa) = -34.44311 0.97002 -16.73654
#
# Velocity S-wave (km/s) = -4.41754 0.74135 -3.07937
# Velocity P-wave (km/s) = 3.76701 6.94132 5.58446
#
# Compressibility (1/GPa) = 0.01409048
#
# Stress axis : x y z
#
# Youngs Moduli (GPa) = 62.13887 62.14262 31.14317
#
# Poissons Ratio (x) = 0.31739 0.31137
# Poissons Ratio (y) = 0.31737 0.31133
# Poissons Ratio (z) = 0.62127 0.62122
#
# Static dielectric constant tensor:
#      x y z
#    x 1.626130 0.000000 0.000000 
#    y 0.000000 1.626130 0.000000 
#    z 0.000000 0.000000 1.638580 
# 
# From -- ./inp_files/2792.got.cif
#   From: 2010.05.17/outbox.cif.g08.bks.cpg/sg134_2_cif.got.tgz:2792.got - 2010.05.20 12:42:49.
