data_PCOD9568796
_publ_section_title
;
Structure prediction by ZEFSAII (Michael W. Deem and Ramdas Pophale) SiO2 
 PCOD9568796
Probable space group: P 42/M B C
;
_chemical_formula_sum "Si O2"
_cell_formula_units_Z 96
_cell_length_a 16.087399
_cell_length_b 16.087399
_cell_length_c 16.919092
_cell_angle_alpha 90.000000
_cell_angle_beta 90.000000
_cell_angle_gamma 90.000000
_cell_volume 4378.735565
_symmetry_space_group_name_H-M "P 42/M B C"
_symmetry_group_IT_number 135
_symmetry_cell_setting 'tetragonal'
loop_
_space_group_symop_operation_xyz
x,y,z
-y,x,1/2+z
-x,-y,z
y,-x,1/2+z
1/2+x,1/2-y,-z
1/2-x,1/2+y,-z
1/2+y,1/2+x,1/2-z
1/2-y,1/2-x,1/2-z
-x,-y,-z
y,-x,1/2-z
x,y,-z
-y,x,1/2-z
1/2-x,1/2+y,z
1/2+x,1/2-y,z
1/2-y,1/2-x,1/2+z
1/2+y,1/2+x,1/2+z
loop_
_atom_site_type_symbol
_atom_site_label
_atom_site_fract_x
_atom_site_fract_y
_atom_site_fract_z
Si Si1 0.597492 0.118488 0.089496
Si Si2 0.103080 0.216340 0.591123
Si Si3 0.078996 0.609696 0.842062
Si Si4 0.076084 0.766332 0.631935
Si Si5 0.572429 0.697936 0.818769
Si Si6 0.414983 0.683139 0.913107
O O1 0.689247 0.106203 0.125181
O O2 0.513548 0.085971 0.129505
O O3 0.588288 0.217548 0.086870
O O4 0.600411 0.085149 0.000000
O O5 0.135063 0.215625 0.500000
O O6 0.147835 0.150506 0.647145
O O7 0.005582 0.197831 0.591090
O O8 0.086934 0.586934 0.750000
O O9 0.166422 0.579862 0.880243
O O10 0.081698 0.709071 0.852651
O O11 0.071454 0.787493 0.725134
O O12 0.152100 0.821686 0.601798
O O13 0.485302 0.659642 0.849306
O O14 0.442989 0.654667 0.000000
#
# Coordination Sequence:
#
# PCOD9568796 Si02
#       6
#    16  16  16  16  16  16
#     4   9  20  38  62  89 120 159 203 247 301 363
#     4  11  23  39  60  90 123 159 201 253 312 371
#     4   9  20  39  61  88 121 160 203 247 301 363
#     4  11  22  37  58  89 124 158 198 248 307 370
#     4  10  21  40  61  84 117 158 205 254 303 359
#     4  10  20  37  60  86 114 154 204 252 299 356
#
# _framework density 21.924137000000002
#
# number of rings (size 3 to 8) (size 9 to 14) (size 15 to 20)
#    0.000    2.000    0.000    3.000    0.000    3.333 
#    0.000   20.000    0.000    0.000    0.000    0.000 
#    0.000    0.000    0.000    0.000    0.000    0.000 
#
# Total GULP energy -535703.876372 kJ/mol
# GULP energy per Si atom -5580.248712 kJ/mol
# Density = 2.187424 g / cm^3
# Si number density = 21.924137 Si / 1000 Ang^3
#
#
#
# Elastic Constant Matrix: (Units=GPa)
#
#
# Indices 1 2 3 4 5 6 
#
# 1 71.7519 6.0575 15.7366 0.0000 0.0000 0.0000
# 2 6.0575 71.7519 15.7366 0.0000 0.0000 0.0000
# 3 15.7366 15.7366 41.9161 0.0000 0.0000 0.0000
# 4 0.0000 0.0000 0.0000 18.7892 0.0000 0.0000
# 5 0.0000 0.0000 0.0000 0.0000 18.7892 0.0000
# 6 0.0000 0.0000 0.0000 0.0000 0.0000 183.4501
#
#
#
# Elastic Compliance Matrix: (Units=1/GPa)
#
#
# Indices 1 2 3 4 5 6 
#
# 1 0.015188 -0.000034 -0.005689 0.000000 0.000000 0.000000
# 2 -0.000034 0.015188 -0.005689 0.000000 0.000000 0.000000
# 3 -0.005689 -0.005689 0.028129 0.000000 0.000000 0.000000
# 4 0.000000 0.000000 0.000000 0.053222 0.000000 0.000000
# 5 0.000000 0.000000 0.000000 0.000000 0.053222 0.000000
# 6 0.000000 0.000000 0.000000 0.000000 0.000000 0.005451
#
#
# Mechanical properties :
#
#
# Convention : Reuss Voigt Hill
#
# Bulk Modulus (GPa) = 28.02755 28.94237 28.48496
# Shear Modulus (GPa) = 24.37640 54.06498 39.22069
#
# Velocity S-wave (km/s) = 3.33806 4.97127 4.23416
# Velocity P-wave (km/s) = 5.26009 6.79568 6.07658
#
# Compressibility (1/GPa) = 0.03567918
#
# Stress axis : x y z
#
# Youngs Moduli (GPa) = 65.84355 65.84355 35.55078
#
# Poissons Ratio (x) = 0.00227 0.20225
# Poissons Ratio (y) = 0.00227 0.20225
# Poissons Ratio (z) = 0.37458 0.37458
#
# Static dielectric constant tensor:
#      x y z
#    x 1.800240 0.000000 0.000000 
#    y 0.000000 1.800240 0.000000 
#    z 0.000000 0.000000 1.814090 
# 
# From -- ./inp_files/5484.got.cif
#   From: 2010.05.17/outbox.cif.g08.bks.cpg/sg135_3_cif.got.tgz:5484.got - 2010.05.20 12:50:20.
