data_PCOD9568426
_publ_section_title
;
Structure prediction by ZEFSAII (Michael W. Deem and Ramdas Pophale) SiO2 
 PCOD9568426
Probable space group: P 42/N N M
;
_chemical_formula_sum "Si O2"
_cell_formula_units_Z 88
_cell_length_a 17.820796
_cell_length_b 17.820796
_cell_length_c 14.558161
_cell_angle_alpha 90.000000
_cell_angle_beta 90.000000
_cell_angle_gamma 90.000000
_cell_volume 4623.391981
_symmetry_space_group_name_H-M "P 42/N N M"
_symmetry_group_IT_number 134
_space_group.IT_coordinate_system_code '2'
_symmetry_cell_setting 'tetragonal'
loop_
_space_group_symop_operation_xyz
x,y,z
1/2-y,x,1/2+z
1/2-x,1/2-y,z
y,1/2-x,1/2+z
x,1/2-y,1/2-z
1/2-x,y,1/2-z
y,x,-z
1/2-y,1/2-x,-z
-x,-y,-z
1/2+y,-x,1/2-z
1/2+x,1/2+y,-z
-y,1/2+x,1/2-z
-x,1/2+y,1/2+z
1/2+x,-y,1/2+z
-y,-x,z
1/2+y,1/2+x,z
loop_
_atom_site_type_symbol
_atom_site_label
_atom_site_fract_x
_atom_site_fract_y
_atom_site_fract_z
Si Si1 0.535753 0.586370 0.708289
Si Si2 0.213778 0.010205 0.562123
Si Si3 0.648852 0.025592 0.878372
Si Si4 0.484572 0.391602 0.074252
Si Si5 0.752630 0.129096 0.153701
Si Si6 0.750000 0.374024 0.750000
O O1 0.459778 0.540223 0.681771
O O2 0.539894 0.660471 0.644166
O O3 0.605122 0.531007 0.688532
O O4 0.532103 0.597812 0.817484
O O5 0.302326 0.026292 0.562677
O O6 0.177204 0.022701 0.463966
O O7 0.219305 0.920223 0.574477
O O8 0.586551 0.086551 0.908776
O O9 0.714638 0.072346 0.828007
O O10 0.564576 0.435425 0.058593
O O11 0.431098 0.431098 0.000000
O O12 0.750000 0.083881 0.250000
O O13 0.832352 0.167649 0.136165
O O14 0.695190 0.195190 0.171591
O O15 0.818069 0.318069 0.719845
#
# Coordination Sequence:
#
# PCOD9568426 Si02
#       6
#    16  16  16  16  16   8
#     4  10  21  39  61  86 123 160 200 248 299 361
#     4  12  21  33  58  88 114 149 198 253 301 357
#     4  10  22  37  59  89 122 162 198 240 298 364
#     4  10  23  40  59  87 119 158 204 254 310 370
#     4   9  17  28  44  73 116 156 183 216 276 350
#     4   9  20  38  58  86 125 166 206 244 295 368
#
# _framework density 19.033645
#
# number of rings (size 3 to 8) (size 9 to 14) (size 15 to 20)
#    0.000    1.909    0.000    4.909    2.545    5.818 
#    0.000    1.818    0.000    2.182    0.000    0.000 
#    0.000    0.000    0.000    0.000    0.000    0.000 
#
# Total GULP energy -489946.219503 kJ/mol
# GULP energy per Si atom -5567.570676 kJ/mol
# Density = 1.899032 g / cm^3
# Si number density = 19.033645 Si / 1000 Ang^3
#
#
#
# Elastic Constant Matrix: (Units=GPa)
#
#
# Indices 1 2 3 4 5 6 
#
# 1 90.9855 29.5446 39.0677 0.0000 0.0000 0.0000
# 2 29.5446 90.9855 39.0677 0.0000 0.0000 0.0000
# 3 39.0677 39.0677 74.0631 0.0000 0.0000 0.0000
# 4 0.0000 0.0000 0.0000 62.8167 0.0000 0.0000
# 5 0.0000 0.0000 0.0000 0.0000 62.8167 0.0000
# 6 0.0000 0.0000 0.0000 0.0000 0.0000 22.6380
#
#
#
# Elastic Compliance Matrix: (Units=1/GPa)
#
#
# Indices 1 2 3 4 5 6 
#
# 1 0.014442 -0.001834 -0.006651 0.000000 0.000000 0.000000
# 2 -0.001834 0.014442 -0.006651 0.000000 0.000000 0.000000
# 3 -0.006651 -0.006651 0.020518 0.000000 0.000000 0.000000
# 4 0.000000 0.000000 0.000000 0.015919 0.000000 0.000000
# 5 0.000000 0.000000 0.000000 0.000000 0.015919 0.000000
# 6 0.000000 0.000000 0.000000 0.000000 0.000000 0.044174
#
#
# Mechanical properties :
#
#
# Convention : Reuss Voigt Hill
#
# Bulk Modulus (GPa) = 52.26890 52.37715 52.32302
# Shear Modulus (GPa) = 30.85236 39.54455 35.19846
#
# Velocity S-wave (km/s) = 4.03046 4.56303 4.30499
# Velocity P-wave (km/s) = 7.01287 7.43906 7.22911
#
# Compressibility (1/GPa) = 0.01913184
#
# Stress axis : x y z
#
# Youngs Moduli (GPa) = 69.24277 69.24277 48.73681
#
# Poissons Ratio (x) = 0.12698 0.32413
# Poissons Ratio (y) = 0.12698 0.32413
# Poissons Ratio (z) = 0.46051 0.46051
#
# Static dielectric constant tensor:
#      x y z
#    x 1.705700 0.000000 0.000000 
#    y 0.000000 1.705700 0.000000 
#    z 0.000000 0.000000 1.763230 
# 
# From -- ./inp_files/6453.got.cif
#   From: 2010.05.17/outbox.cif.g08.bks.cpg/sg134_4_cif.got.tgz:6453.got - 2010.05.20 12:42:49.
