data_PCOD9568616
_publ_section_title
;
Structure prediction by ZEFSAII (Michael W. Deem and Ramdas Pophale) SiO2 
 PCOD9568616
Probable space group: P 42/M B C
;
_chemical_formula_sum "Si O2"
_cell_formula_units_Z 128
_cell_length_a 20.077898
_cell_length_b 20.077898
_cell_length_c 17.193319
_cell_angle_alpha 90.000000
_cell_angle_beta 90.000000
_cell_angle_gamma 90.000000
_cell_volume 6931.004937
_symmetry_space_group_name_H-M "P 42/M B C"
_symmetry_group_IT_number 135
_symmetry_cell_setting 'tetragonal'
loop_
_space_group_symop_operation_xyz
x,y,z
-y,x,1/2+z
-x,-y,z
y,-x,1/2+z
1/2+x,1/2-y,-z
1/2-x,1/2+y,-z
1/2+y,1/2+x,1/2-z
1/2-y,1/2-x,1/2-z
-x,-y,-z
y,-x,1/2-z
x,y,-z
-y,x,1/2-z
1/2-x,1/2+y,z
1/2+x,1/2-y,z
1/2-y,1/2-x,1/2+z
1/2+y,1/2+x,1/2+z
loop_
_atom_site_type_symbol
_atom_site_label
_atom_site_fract_x
_atom_site_fract_y
_atom_site_fract_z
Si Si1 0.935610 0.455725 0.406125
Si Si2 0.248753 0.713725 0.591285
Si Si3 0.599786 0.810103 0.647433
Si Si4 0.061389 0.828247 0.409546
Si Si5 0.100651 0.029883 0.770325
Si Si6 0.226744 0.101517 0.696047
Si Si7 0.714517 0.639455 0.406231
Si Si8 0.490867 0.792014 0.906809
O O1 0.936344 0.442754 0.500000
O O2 0.929601 0.383950 0.363522
O O3 0.869863 0.499528 0.388433
O O4 0.000000 0.500000 0.386704
O O5 0.265285 0.704467 0.500000
O O6 0.171613 0.691848 0.604921
O O7 0.288666 0.670473 0.653274
O O8 0.250853 0.791448 0.612219
O O9 0.557452 0.750685 0.607244
O O10 0.608237 0.781912 0.735332
O O11 0.053052 0.840762 0.500000
O O12 0.013540 0.871681 0.355917
O O13 0.136869 0.850836 0.384868
O O14 0.161508 0.066928 0.729534
O O15 0.922896 0.036331 0.727036
O O16 0.256162 0.053699 0.630438
O O17 0.713485 0.635411 0.500000
O O18 0.754584 0.575474 0.377145
O O19 0.492221 0.786033 0.000000
#
# Coordination Sequence:
#
# PCOD9568616 Si02
#       8
#    16  16  16  16  16  16  16  16
#     4  10  20  34  54  78 108 147 185 219 269 332
#     4  10  18  32  55  83 111 140 185 239 281 329
#     4  10  19  33  53  81 109 142 185 232 273 321
#     4   9  17  33  59  81 103 142 192 227 262 329
#     4  10  22  40  56  77 114 146 172 222 291 344
#     4  11  21  33  57  83 105 142 189 236 280 336
#     4   8  16  30  51  79 108 140 181 233 281 323
#     4  10  19  33  53  79 112 145 185 233 284 336
#
# _framework density 18.467739999999999
#
# number of rings (size 3 to 8) (size 9 to 14) (size 15 to 20)
#    0.000    2.250    1.250    3.375    0.000    0.000 
#    0.000    6.875    0.000    4.500    0.000    0.000 
#    0.000    0.000    0.000    0.000    0.000    0.000 
#
# Total GULP energy -713576.234814 kJ/mol
# GULP energy per Si atom -5574.814334 kJ/mol
# Density = 1.842571 g / cm^3
# Si number density = 18.467740 Si / 1000 Ang^3
#
#
#
# Elastic Constant Matrix: (Units=GPa)
#
#
# Indices 1 2 3 4 5 6 
#
# 1 63.5835 13.8239 5.2030 0.0000 0.0000 0.0000
# 2 13.8239 63.5835 5.2030 0.0000 0.0000 0.0000
# 3 5.2030 5.2030 35.0746 0.0000 0.0000 0.0000
# 4 0.0000 0.0000 0.0000 16.6915 0.0000 0.0000
# 5 0.0000 0.0000 0.0000 0.0000 16.6915 0.0000
# 6 0.0000 0.0000 0.0000 0.0000 0.0000 19.0023
#
#
#
# Elastic Compliance Matrix: (Units=1/GPa)
#
#
# Indices 1 2 3 4 5 6 
#
# 1 0.016639 -0.003458 -0.001955 0.000000 0.000000 0.000000
# 2 -0.003458 0.016639 -0.001955 0.000000 0.000000 0.000000
# 3 -0.001955 -0.001955 0.029091 0.000000 0.000000 0.000000
# 4 0.000000 0.000000 0.000000 0.059911 0.000000 0.000000
# 5 0.000000 0.000000 0.000000 0.000000 0.059911 0.000000
# 6 0.000000 0.000000 0.000000 0.000000 0.000000 0.052625
#
#
# Mechanical properties :
#
#
# Convention : Reuss Voigt Hill
#
# Bulk Modulus (GPa) = 20.99408 23.41124 22.20266
# Shear Modulus (GPa) = 18.83740 19.67786 19.25763
#
# Velocity S-wave (km/s) = 3.19723 3.26778 3.23270
# Velocity P-wave (km/s) = 5.00224 5.19059 5.09728
#
# Compressibility (1/GPa) = 0.04763247
#
# Stress axis : x y z
#
# Youngs Moduli (GPa) = 60.09949 60.09949 34.37512
#
# Poissons Ratio (x) = 0.20780 0.06722
# Poissons Ratio (y) = 0.20780 0.06722
# Poissons Ratio (z) = 0.11752 0.11752
#
# Static dielectric constant tensor:
#      x y z
#    x 1.643990 0.000000 0.000000 
#    y 0.000000 1.643990 0.000000 
#    z 0.000000 0.000000 1.661500 
# 
# From -- ./inp_files/4751.got.cif
#   From: 2010.05.17/outbox.cif.g08.bks.cpg/sg135_3_cif.got.tgz:4751.got - 2010.05.20 12:50:20.
