data_PCOD9568243
_publ_section_title
;
Structure prediction by ZEFSAII (Michael W. Deem and Ramdas Pophale) SiO2 
 PCOD9568243
Probable space group: P 42/N N M
;
_chemical_formula_sum "Si O2"
_cell_formula_units_Z 48
_cell_length_a 10.669512
_cell_length_b 10.669512
_cell_length_c 19.044106
_cell_angle_alpha 90.000000
_cell_angle_beta 90.000000
_cell_angle_gamma 90.000000
_cell_volume 2167.952200
_symmetry_space_group_name_H-M "P 42/N N M"
_symmetry_group_IT_number 134
_space_group.IT_coordinate_system_code '2'
_symmetry_cell_setting 'tetragonal'
loop_
_space_group_symop_operation_xyz
x,y,z
1/2-y,x,1/2+z
1/2-x,1/2-y,z
y,1/2-x,1/2+z
x,1/2-y,1/2-z
1/2-x,y,1/2-z
y,x,-z
1/2-y,1/2-x,-z
-x,-y,-z
1/2+y,-x,1/2-z
1/2+x,1/2+y,-z
-y,1/2+x,1/2-z
-x,1/2+y,1/2+z
1/2+x,-y,1/2+z
-y,-x,z
1/2+y,1/2+x,z
loop_
_atom_site_type_symbol
_atom_site_label
_atom_site_fract_x
_atom_site_fract_y
_atom_site_fract_z
Si Si1 0.158863 0.458147 0.063593
Si Si2 0.148645 0.648645 0.440338
Si Si3 0.646273 0.353728 0.108781
Si Si4 0.767059 0.896676 0.333228
O O1 0.297006 0.512402 0.079294
O O2 0.091559 0.403154 0.131804
O O3 0.080169 0.580169 0.038478
O O4 0.140468 0.359533 0.000000
O O5 0.250000 0.750000 0.411642
O O6 0.148011 0.648011 0.524657
O O7 0.750000 0.250000 0.132903
O O8 0.685646 0.491231 0.134629
O O9 0.750000 0.750000 0.353219
O O10 0.750000 0.905103 0.250000
#
# Coordination Sequence:
#
# PCOD9568243 Si02
#       4
#    16   8   8  16
#     4  10  19  37  64  95 136 178 226 286 347 418
#     4   9  18  35  63 101 131 170 226 283 352 420
#     4  11  22  41  73 103 125 174 245 293 337 421
#     4  11  26  42  59  96 141 180 223 292 362 411
#
# _framework density 22.140709000000001
#
# number of rings (size 3 to 8) (size 9 to 14) (size 15 to 20)
#    0.000    1.667    3.333    1.000    4.667    2.000 
#    0.000    1.667    0.000    0.000    0.000    0.000 
#    0.000    0.000    0.000    0.000    0.000    0.000 
#
# Total GULP energy -267362.182026 kJ/mol
# GULP energy per Si atom -5570.045459 kJ/mol
# Density = 2.209032 g / cm^3
# Si number density = 22.140709 Si / 1000 Ang^3
#
#
#
# Elastic Constant Matrix: (Units=GPa)
#
#
# Indices 1 2 3 4 5 6 
#
# 1 132.9502 90.4354 38.8377 0.0000 0.0000 0.0000
# 2 90.4354 132.9513 38.8375 0.0000 0.0000 0.0000
# 3 38.8377 38.8375 82.4574 0.0000 0.0000 0.0000
# 4 0.0000 0.0000 0.0000 45.3954 0.0000 0.0000
# 5 0.0000 0.0000 0.0000 0.0000 45.3986 0.0000
# 6 0.0000 0.0000 0.0000 0.0000 0.0000 67.7053
#
#
#
# Elastic Compliance Matrix: (Units=1/GPa)
#
#
# Indices 1 2 3 4 5 6 
#
# 1 0.014437 -0.009084 -0.002521 0.000000 0.000000 0.000000
# 2 -0.009084 0.014437 -0.002521 0.000000 0.000000 0.000000
# 3 -0.002521 -0.002521 0.014503 0.000000 0.000000 0.000000
# 4 0.000000 0.000000 0.000000 0.022029 0.000000 0.000000
# 5 0.000000 0.000000 0.000000 0.000000 0.022027 0.000000
# 6 0.000000 0.000000 0.000000 0.000000 0.000000 0.014770
#
#
# Mechanical properties :
#
#
# Convention : Reuss Voigt Hill
#
# Bulk Modulus (GPa) = 66.12188 76.06447 71.09317
# Shear Modulus (GPa) = 36.90119 43.71643 40.30881
#
# Velocity S-wave (km/s) = 4.08691 4.44833 4.27145
# Velocity P-wave (km/s) = 7.22494 7.79828 7.51708
#
# Compressibility (1/GPa) = 0.01512359
#
# Stress axis : x y z
#
# Youngs Moduli (GPa) = 69.26551 69.26638 68.95293
#
# Poissons Ratio (x) = 0.62920 0.17386
# Poissons Ratio (y) = 0.62920 0.17385
# Poissons Ratio (z) = 0.17465 0.17464
#
# Static dielectric constant tensor:
#      x y z
#    x 1.951740 0.000000 0.000000 
#    y 0.000000 1.951740 0.000000 
#    z 0.000000 0.000000 1.762020 
# 
# From -- ./inp_files/8489.got.cif
#   From: 2010.05.17/outbox.cif.g08.bks.cpg/sg134_5_cif.got.tgz:8489.got - 2010.05.20 12:42:49.
