data_PCOD9568995
_publ_section_title
;
Structure prediction by ZEFSAII (Michael W. Deem and Ramdas Pophale) SiO2 
 PCOD9568995
Probable space group: P 42/M B C
;
_chemical_formula_sum "Si O2"
_cell_formula_units_Z 128
_cell_length_a 18.777190
_cell_length_b 18.777190
_cell_length_c 23.293279
_cell_angle_alpha 90.000000
_cell_angle_beta 90.000000
_cell_angle_gamma 90.000000
_cell_volume 8212.811029
_symmetry_space_group_name_H-M "P 42/M B C"
_symmetry_group_IT_number 135
_symmetry_cell_setting 'tetragonal'
loop_
_space_group_symop_operation_xyz
x,y,z
-y,x,1/2+z
-x,-y,z
y,-x,1/2+z
1/2+x,1/2-y,-z
1/2-x,1/2+y,-z
1/2+y,1/2+x,1/2-z
1/2-y,1/2-x,1/2-z
-x,-y,-z
y,-x,1/2-z
x,y,-z
-y,x,1/2-z
1/2-x,1/2+y,z
1/2+x,1/2-y,z
1/2-y,1/2-x,1/2+z
1/2+y,1/2+x,1/2+z
loop_
_atom_site_type_symbol
_atom_site_label
_atom_site_fract_x
_atom_site_fract_y
_atom_site_fract_z
Si Si1 0.636664 0.221153 0.933553
Si Si2 0.561045 0.941096 0.935701
Si Si3 0.621086 0.000472 0.245994
Si Si4 0.108540 0.235070 0.566632
Si Si5 0.250885 0.656443 0.933675
Si Si6 0.493271 0.193599 0.134243
Si Si7 0.877653 0.229378 0.066322
Si Si8 0.479681 0.201665 0.374060
O O1 0.696060 0.159697 0.926981
O O2 0.679743 0.294595 0.924493
O O3 0.570694 0.208593 0.892116
O O4 0.612041 0.218994 0.000000
O O5 0.538682 0.878502 0.893575
O O6 0.634767 0.976858 0.917856
O O7 0.500000 0.000000 0.933865
O O8 0.566369 0.911912 0.000000
O O9 0.571870 0.071870 0.250000
O O10 0.565053 0.934948 0.250000
O O11 0.676038 0.997711 0.298787
O O12 0.665181 0.992240 0.187296
O O13 0.085114 0.233189 0.500000
O O14 0.156836 0.165742 0.577043
O O15 0.042986 0.246215 0.608470
O O16 0.182316 0.708544 0.930302
O O17 0.240528 0.594925 0.887095
O O18 0.253330 0.629312 0.000000
O O19 0.439259 0.253868 0.111558
O O20 0.903920 0.228632 0.000000
#
# Coordination Sequence:
#
# PCOD9568995 Si02
#       8
#    16  16  16  16  16  16  16  16
#     4   9  18  31  49  74 102 127 160 212 267 311
#     4  11  20  27  45  75  99 120 155 204 253 312
#     4  11  22  34  46  68 106 145 170 203 247 298
#     4   9  18  31  49  74 102 127 160 212 267 311
#     4   9  17  31  50  73  99 128 164 211 265 314
#     4  12  20  32  50  69  99 138 173 202 247 308
#     4   9  17  31  50  73  99 128 164 211 265 314
#     4  12  20  32  50  69  99 138 173 202 247 308
#
# _framework density 15.585407
#
# number of rings (size 3 to 8) (size 9 to 14) (size 15 to 20)
#    0.000    1.750    2.500    6.000    0.000    2.000 
#    0.000    1.250    0.000    5.250    0.000    3.500 
#    0.000    2.000    0.000    0.000    0.000    0.000 
#
# Total GULP energy -714063.695561 kJ/mol
# GULP energy per Si atom -5578.622622 kJ/mol
# Density = 1.554993 g / cm^3
# Si number density = 15.585407 Si / 1000 Ang^3
#
#
#
# Elastic Constant Matrix: (Units=GPa)
#
#
# Indices 1 2 3 4 5 6 
#
# 1 35.9155 -0.1458 12.6054 0.0000 0.0000 0.0000
# 2 -0.1458 35.9156 12.6053 0.0000 0.0000 0.0000
# 3 12.6054 12.6053 59.1358 0.0000 0.0000 0.0000
# 4 0.0000 0.0000 0.0000 31.6092 0.0000 0.0000
# 5 0.0000 0.0000 0.0000 0.0000 31.6179 0.0000
# 6 0.0000 0.0000 0.0000 0.0000 0.0000 22.8332
#
#
#
# Elastic Compliance Matrix: (Units=1/GPa)
#
#
# Indices 1 2 3 4 5 6 
#
# 1 0.030315 0.002584 -0.007013 0.000000 0.000000 0.000000
# 2 0.002584 0.030315 -0.007013 0.000000 0.000000 0.000000
# 3 -0.007013 -0.007013 0.019900 0.000000 0.000000 0.000000
# 4 0.000000 0.000000 0.000000 0.031636 0.000000 0.000000
# 5 0.000000 0.000000 0.000000 0.000000 0.031628 0.000000
# 6 0.000000 0.000000 0.000000 0.000000 0.000000 0.043796
#
#
# Mechanical properties :
#
#
# Convention : Reuss Voigt Hill
#
# Bulk Modulus (GPa) = 17.34688 20.12184 18.73436
# Shear Modulus (GPa) = 21.76869 24.27219 23.02044
#
# Velocity S-wave (km/s) = 3.74135 3.95063 3.84741
# Velocity P-wave (km/s) = 5.46058 5.80936 5.63767
#
# Compressibility (1/GPa) = 0.05764725
#
# Stress axis : x y z
#
# Youngs Moduli (GPa) = 32.98704 32.98715 50.25149
#
# Poissons Ratio (x) = -0.08525 0.35240
# Poissons Ratio (y) = -0.08525 0.35240
# Poissons Ratio (z) = 0.23133 0.23133
#
# Static dielectric constant tensor:
#      x y z
#    x 1.521570 0.000000 0.000000 
#    y 0.000000 1.521570 0.000000 
#    z 0.000000 0.000000 1.517830 
# 
# From -- ./inp_files/6266.got.cif
#   From: 2010.05.17/outbox.cif.g08.bks.cpg/sg135_4_cif.got.tgz:6266.got - 2010.05.20 12:50:20.
