data_PCOD9568782
_publ_section_title
;
Structure prediction by ZEFSAII (Michael W. Deem and Ramdas Pophale) SiO2 
 PCOD9568782
Probable space group: P 42/M B C
;
_chemical_formula_sum "Si O2"
_cell_formula_units_Z 96
_cell_length_a 24.037898
_cell_length_b 24.037898
_cell_length_c 9.168295
_cell_angle_alpha 90.000000
_cell_angle_beta 90.000000
_cell_angle_gamma 90.000000
_cell_volume 5297.629170
_symmetry_space_group_name_H-M "P 42/M B C"
_symmetry_group_IT_number 135
_symmetry_cell_setting 'tetragonal'
loop_
_space_group_symop_operation_xyz
x,y,z
-y,x,1/2+z
-x,-y,z
y,-x,1/2+z
1/2+x,1/2-y,-z
1/2-x,1/2+y,-z
1/2+y,1/2+x,1/2-z
1/2-y,1/2-x,1/2-z
-x,-y,-z
y,-x,1/2-z
x,y,-z
-y,x,1/2-z
1/2-x,1/2+y,z
1/2+x,1/2-y,z
1/2-y,1/2-x,1/2+z
1/2+y,1/2+x,1/2+z
loop_
_atom_site_type_symbol
_atom_site_label
_atom_site_fract_x
_atom_site_fract_y
_atom_site_fract_z
Si Si1 0.767215 0.495213 0.674360
Si Si2 0.409728 0.613191 0.164219
Si Si3 0.999484 0.846538 0.336375
Si Si4 0.314010 0.895266 0.173538
Si Si5 0.301970 0.333004 0.827243
Si Si6 0.217080 0.635431 0.674892
O O1 0.773232 0.500254 0.500000
O O2 0.704164 0.505082 0.725813
O O3 0.800697 0.544726 0.754355
O O4 0.778687 0.430170 0.715384
O O5 0.368870 0.561357 0.162760
O O6 0.459639 0.605518 0.276834
O O7 0.375149 0.664363 0.226735
O O8 0.429897 0.622295 0.000000
O O9 0.983475 0.828866 0.500000
O O10 0.366492 0.866492 0.250000
O O11 0.261961 0.851871 0.192924
O O12 0.321674 0.901833 0.000000
O O13 0.326671 0.271871 0.789367
O O14 0.314437 0.340761 0.000000
O O15 0.165092 0.665092 0.750000
O O16 0.211626 0.637375 0.500000
#
# Coordination Sequence:
#
# PCOD9568782 Si02
#       6
#    16  16  16  16  16  16
#     4  11  22  38  61  87 117 154 193 236 290 347
#     4  11  23  36  56  82 110 153 201 246 292 343
#     4  11  23  38  56  81 112 152 200 246 294 344
#     4  11  23  38  60  89 122 158 196 240 290 346
#     4  10  20  36  57  86 121 154 191 238 289 340
#     4  10  22  38  59  88 121 156 192 237 287 345
#
# _framework density 18.121314000000002
#
# number of rings (size 3 to 8) (size 9 to 14) (size 15 to 20)
#    0.000    1.333    3.333    2.500    0.000    5.000 
#    0.000    1.667    0.000    0.500    0.000    3.500 
#    0.000    0.000    0.000    0.000    0.000    0.000 
#
# Total GULP energy -535367.421684 kJ/mol
# GULP energy per Si atom -5576.743976 kJ/mol
# Density = 1.808007 g / cm^3
# Si number density = 18.121314 Si / 1000 Ang^3
#
#
#
# Elastic Constant Matrix: (Units=GPa)
#
#
# Indices 1 2 3 4 5 6 
#
# 1 40.2270 91.1765 37.4648 0.0000 0.0000 0.0000
# 2 91.1765 40.2270 37.4648 0.0000 0.0000 0.0000
# 3 37.4648 37.4648 64.1952 0.0000 0.0000 0.0000
# 4 0.0000 0.0000 0.0000 27.9617 0.0000 0.0000
# 5 0.0000 0.0000 0.0000 0.0000 27.9617 0.0000
# 6 0.0000 0.0000 0.0000 0.0000 0.0000 25.9833
#
#
#
# Elastic Compliance Matrix: (Units=1/GPa)
#
#
# Indices 1 2 3 4 5 6 
#
# 1 -0.004111 0.015517 -0.006657 0.000000 0.000000 0.000000
# 2 0.015517 -0.004111 -0.006657 0.000000 0.000000 0.000000
# 3 -0.006657 -0.006657 0.023347 0.000000 0.000000 0.000000
# 4 0.000000 0.000000 0.000000 0.035763 0.000000 0.000000
# 5 0.000000 0.000000 0.000000 0.000000 0.035763 0.000000
# 6 0.000000 0.000000 0.000000 0.000000 0.000000 0.038486
#
#
# Mechanical properties :
#
#
# Convention : Reuss Voigt Hill
#
# Bulk Modulus (GPa) = 51.19628 52.98458 52.09043
# Shear Modulus (GPa) = 39.29508 14.95087 27.12298
#
# Velocity S-wave (km/s) = 4.66171 2.87547 3.87298
# Velocity P-wave (km/s) = 7.56893 6.35033 6.98625
#
# Compressibility (1/GPa) = 0.01953267
#
# Stress axis : x y z
#
# Youngs Moduli (GPa) = -243.26716 -243.26716 42.83184
#
# Poissons Ratio (x) = 3.77467 0.28511
# Poissons Ratio (y) = 3.77467 0.28511
# Poissons Ratio (z) = -1.61932 -1.61932
#
# Static dielectric constant tensor:
#      x y z
#    x 1.639740 0.000000 0.000000 
#    y 0.000000 1.639740 0.000000 
#    z 0.000000 0.000000 1.611920 
# 
# From -- ./inp_files/1215.got.cif
#   From: 2010.05.17/outbox.cif.g08.bks.cpg/sg135_1_cif.got.tgz:1215.got - 2010.05.20 12:50:20.
