data_PCOD9568674
_publ_section_title
;
Structure prediction by ZEFSAII (Michael W. Deem and Ramdas Pophale) SiO2 
 PCOD9568674
Probable space group: P 42/M B C
;
_chemical_formula_sum "Si O2"
_cell_formula_units_Z 96
_cell_length_a 24.590856
_cell_length_b 24.590856
_cell_length_c 8.295867
_cell_angle_alpha 90.000000
_cell_angle_beta 90.000000
_cell_angle_gamma 90.000000
_cell_volume 5016.595383
_symmetry_space_group_name_H-M "P 42/M B C"
_symmetry_group_IT_number 135
_symmetry_cell_setting 'tetragonal'
loop_
_space_group_symop_operation_xyz
x,y,z
-y,x,1/2+z
-x,-y,z
y,-x,1/2+z
1/2+x,1/2-y,-z
1/2-x,1/2+y,-z
1/2+y,1/2+x,1/2-z
1/2-y,1/2-x,1/2-z
-x,-y,-z
y,-x,1/2-z
x,y,-z
-y,x,1/2-z
1/2-x,1/2+y,z
1/2+x,1/2-y,z
1/2-y,1/2-x,1/2+z
1/2+y,1/2+x,1/2+z
loop_
_atom_site_type_symbol
_atom_site_label
_atom_site_fract_x
_atom_site_fract_y
_atom_site_fract_z
Si Si1 0.364142 0.219727 0.194262
Si Si2 0.535356 0.421519 0.192366
Si Si3 0.223844 0.808079 0.806918
Si Si4 0.801938 0.071257 0.305618
Si Si5 0.512742 0.789888 0.802703
Si Si6 0.000413 0.586352 0.192978
O O1 0.335773 0.164228 0.250000
O O2 0.325288 0.268715 0.250605
O O3 0.425982 0.223865 0.249277
O O4 0.364079 0.220406 0.000000
O O5 0.471912 0.431961 0.231291
O O6 0.555128 0.362523 0.250813
O O7 0.542409 0.424514 0.000000
O O8 0.279216 0.779216 0.750000
O O9 0.214359 0.868207 0.743371
O O10 0.223326 0.808810 0.000000
O O11 0.803074 0.068032 0.500000
O O12 0.755869 0.029323 0.247633
O O13 0.499015 0.851324 0.750582
O O14 0.512064 0.789901 0.000000
O O15 0.054056 0.554056 0.250000
O O16 0.949150 0.550851 0.250000
O O17 0.000913 0.586245 0.000000
#
# Coordination Sequence:
#
# PCOD9568674 Si02
#       6
#    16  16  16  16  16  16
#     4   9  18  34  57  81 106 139 177 221 273 321
#     4  10  21  37  60  84 113 149 189 238 289 345
#     4  10  21  37  59  82 110 146 185 229 276 334
#     4  10  22  38  57  82 113 150 188 230 279 333
#     4   9  19  35  54  78 107 142 178 218 269 322
#     4  10  19  33  54  77 105 139 177 218 264 318
#
# _framework density 19.136485
#
# number of rings (size 3 to 8) (size 9 to 14) (size 15 to 20)
#    0.000    2.333    0.000    3.000    2.333    2.667 
#    0.000    5.000    0.000    0.000    0.000    0.000 
#    0.000    0.000    0.000    0.000    0.000    0.000 
#
# Total GULP energy -535959.137025 kJ/mol
# GULP energy per Si atom -5582.907677 kJ/mol
# Density = 1.909293 g / cm^3
# Si number density = 19.136485 Si / 1000 Ang^3
#
#
#
# Elastic Constant Matrix: (Units=GPa)
#
#
# Indices 1 2 3 4 5 6 
#
# 1 146.4272 105.1009 2.1010 0.0000 0.0000 0.0000
# 2 105.1009 146.4242 2.1026 0.0000 0.0000 0.0000
# 3 2.1010 2.1026 9.9222 0.0000 0.0000 0.0000
# 4 0.0000 0.0000 0.0000 20.8020 0.0000 0.0000
# 5 0.0000 0.0000 0.0000 0.0000 20.8014 0.0000
# 6 0.0000 0.0000 0.0000 0.0000 0.0000 17.4855
#
#
#
# Elastic Compliance Matrix: (Units=1/GPa)
#
#
# Indices 1 2 3 4 5 6 
#
# 1 0.014094 -0.010104 -0.000843 0.000000 0.000000 0.000000
# 2 -0.010104 0.014094 -0.000847 0.000000 0.000000 0.000000
# 3 -0.000843 -0.000847 0.101142 0.000000 0.000000 0.000000
# 4 0.000000 0.000000 0.000000 0.048072 0.000000 0.000000
# 5 0.000000 0.000000 0.000000 0.000000 0.048074 0.000000
# 6 0.000000 0.000000 0.000000 0.000000 0.000000 0.057190
#
#
# Mechanical properties :
#
#
# Convention : Reuss Voigt Hill
#
# Bulk Modulus (GPa) = 9.45703 57.93140 33.69421
# Shear Modulus (GPa) = 14.64113 24.71571 19.67842
#
# Velocity S-wave (km/s) = 2.76903 3.59771 3.21022
# Velocity P-wave (km/s) = 3.89563 6.89902 5.60234
#
# Compressibility (1/GPa) = 0.10574142
#
# Stress axis : x y z
#
# Youngs Moduli (GPa) = 70.95213 70.95034 9.88705
#
# Poissons Ratio (x) = 0.71691 0.00834
# Poissons Ratio (y) = 0.71692 0.00838
# Poissons Ratio (z) = 0.05982 0.06011
#
# Static dielectric constant tensor:
#      x y z
#    x 1.650580 0.000000 0.000000 
#    y 0.000000 1.650570 0.000000 
#    z 0.000000 0.000000 1.651960 
# 
# From -- ./inp_files/1255.got.cif
#   From: 2010.05.17/outbox.cif.g08.bks.cpg/sg135_1_cif.got.tgz:1255.got - 2010.05.20 12:50:20.
