data_PCOD9568598
_publ_section_title
;
Structure prediction by ZEFSAII (Michael W. Deem and Ramdas Pophale) SiO2 
 PCOD9568598
Probable space group: P 42/M B C
;
_chemical_formula_sum "Si O2"
_cell_formula_units_Z 96
_cell_length_a 26.293947
_cell_length_b 26.293947
_cell_length_c 8.063268
_cell_angle_alpha 90.000000
_cell_angle_beta 90.000000
_cell_angle_gamma 90.000000
_cell_volume 5574.714892
_symmetry_space_group_name_H-M "P 42/M B C"
_symmetry_group_IT_number 135
_symmetry_cell_setting 'tetragonal'
loop_
_space_group_symop_operation_xyz
x,y,z
-y,x,1/2+z
-x,-y,z
y,-x,1/2+z
1/2+x,1/2-y,-z
1/2-x,1/2+y,-z
1/2+y,1/2+x,1/2-z
1/2-y,1/2-x,1/2-z
-x,-y,-z
y,-x,1/2-z
x,y,-z
-y,x,1/2-z
1/2-x,1/2+y,z
1/2+x,1/2-y,z
1/2-y,1/2-x,1/2+z
1/2+y,1/2+x,1/2+z
loop_
_atom_site_type_symbol
_atom_site_label
_atom_site_fract_x
_atom_site_fract_y
_atom_site_fract_z
Si Si1 0.959276 0.377897 0.197466
Si Si2 0.944335 0.752410 0.189893
Si Si3 0.748996 0.168237 0.302946
Si Si4 0.168495 0.748462 0.801070
Si Si5 0.239902 0.554489 0.297976
Si Si6 0.858037 0.562843 0.809353
O O1 0.914639 0.414639 0.250000
O O2 0.946811 0.319803 0.245450
O O3 0.012104 0.390980 0.285933
O O4 0.966070 0.379967 0.000000
O O5 0.888236 0.762151 0.266391
O O6 0.944375 0.691059 0.194963
O O7 0.000838 0.764734 0.261682
O O8 0.943907 0.771330 0.000000
O O9 0.696681 0.196681 0.250000
O O10 0.745216 0.162458 0.500000
O O11 0.793820 0.207500 0.260483
O O12 0.194957 0.694957 0.750000
O O13 0.110514 0.757412 0.742481
O O14 0.168146 0.749122 0.000000
O O15 0.243534 0.553093 0.500000
O O16 0.889475 0.610526 0.750000
O O17 0.841989 0.567944 0.000000
#
# Coordination Sequence:
#
# PCOD9568598 Si02
#       6
#    16  16  16  16  16  16
#     4  10  19  32  46  61  81 106 141 181 222 264
#     4   9  18  33  49  65  87 115 147 182 221 265
#     4  10  19  30  46  67  93 122 151 185 223 266
#     4  10  18  29  46  67  93 121 150 183 220 265
#     4   8  16  30  47  65  86 114 145 179 219 264
#     4  11  21  32  45  61  80 106 141 180 223 264
#
# _framework density 17.220610000000001
#
# number of rings (size 3 to 8) (size 9 to 14) (size 15 to 20)
#    0.000    2.333    0.000    6.000    0.000    3.000 
#    0.000    9.167    0.000    0.000    0.000    0.000 
#    0.000    0.667    0.000    8.333    0.000    0.000 
#
# Total GULP energy -534536.869804 kJ/mol
# GULP energy per Si atom -5568.092394 kJ/mol
# Density = 1.718142 g / cm^3
# Si number density = 17.220610 Si / 1000 Ang^3
#
#
#
# Elastic Constant Matrix: (Units=GPa)
#
#
# Indices 1 2 3 4 5 6 
#
# 1 96.7733 23.9091 1.4777 0.0000 0.0000 0.0000
# 2 23.9091 96.7728 1.4788 0.0000 0.0000 0.0000
# 3 1.4777 1.4788 40.8826 0.0000 0.0000 0.0000
# 4 0.0000 0.0000 0.0000 2.1172 0.0000 0.0000
# 5 0.0000 0.0000 0.0000 0.0000 2.1170 0.0000
# 6 0.0000 0.0000 0.0000 0.0000 0.0000 21.5526
#
#
#
# Elastic Compliance Matrix: (Units=1/GPa)
#
#
# Indices 1 2 3 4 5 6 
#
# 1 0.011009 -0.002715 -0.000300 0.000000 0.000000 0.000000
# 2 -0.002715 0.011009 -0.000300 0.000000 0.000000 0.000000
# 3 -0.000300 -0.000300 0.024482 0.000000 0.000000 0.000000
# 4 0.000000 0.000000 0.000000 0.472311 0.000000 0.000000
# 5 0.000000 0.000000 0.000000 0.000000 0.472366 0.000000
# 6 0.000000 0.000000 0.000000 0.000000 0.000000 0.046398
#
#
# Mechanical properties :
#
#
# Convention : Reuss Voigt Hill
#
# Bulk Modulus (GPa) = 25.08178 32.01777 28.54977
# Shear Modulus (GPa) = 4.72815 18.99490 11.86153
#
# Velocity S-wave (km/s) = 1.65879 3.32480 2.62734
# Velocity P-wave (km/s) = 4.27380 5.77686 5.08122
#
# Compressibility (1/GPa) = 0.03986959
#
# Stress axis : x y z
#
# Youngs Moduli (GPa) = 90.83595 90.83537 40.84636
#
# Poissons Ratio (x) = 0.24665 0.01224
# Poissons Ratio (y) = 0.24665 0.01226
# Poissons Ratio (z) = 0.02722 0.02726
#
# Static dielectric constant tensor:
#      x y z
#    x 1.621160 0.000000 0.000000 
#    y 0.000000 1.621160 0.000000 
#    z 0.000000 0.000000 1.617830 
# 
# From -- ./inp_files/1382.got.cif
#   From: 2010.05.17/outbox.cif.g08.bks.cpg/sg135_1_cif.got.tgz:1382.got - 2010.05.20 12:50:20.
