data_PCOD9568565
_publ_section_title
;
Structure prediction by ZEFSAII (Michael W. Deem and Ramdas Pophale) SiO2 
 PCOD9568565
Probable space group: P 42/N N M
;
_chemical_formula_sum "Si O2"
_cell_formula_units_Z 64
_cell_length_a 11.242686
_cell_length_b 11.242686
_cell_length_c 26.818867
_cell_angle_alpha 90.000000
_cell_angle_beta 90.000000
_cell_angle_gamma 90.000000
_cell_volume 3389.850843
_symmetry_space_group_name_H-M "P 42/N N M"
_symmetry_group_IT_number 134
_space_group.IT_coordinate_system_code '2'
_symmetry_cell_setting 'tetragonal'
loop_
_space_group_symop_operation_xyz
x,y,z
1/2-y,x,1/2+z
1/2-x,1/2-y,z
y,1/2-x,1/2+z
x,1/2-y,1/2-z
1/2-x,y,1/2-z
y,x,-z
1/2-y,1/2-x,-z
-x,-y,-z
1/2+y,-x,1/2-z
1/2+x,1/2+y,-z
-y,1/2+x,1/2-z
-x,1/2+y,1/2+z
1/2+x,-y,1/2+z
-y,-x,z
1/2+y,1/2+x,z
loop_
_atom_site_type_symbol
_atom_site_label
_atom_site_fract_x
_atom_site_fract_y
_atom_site_fract_z
Si Si1 0.945573 0.257236 0.970949
Si Si2 0.132497 0.323790 0.610998
Si Si3 0.557135 0.257407 0.415236
Si Si4 0.445328 0.745448 0.309207
O O1 0.842783 0.157218 0.972061
O O2 0.878644 0.378644 0.953902
O O3 0.045313 0.204405 0.935143
O O4 0.987579 0.276875 0.027863
O O5 0.250000 0.250000 0.603292
O O6 0.185079 0.456794 0.614287
O O7 0.059620 0.277872 0.658735
O O8 0.618418 0.381583 0.397459
O O9 0.664779 0.164779 0.418880
O O10 0.468083 0.750000 0.250000
O O11 0.379723 0.620278 0.320860
O O12 0.346960 0.846960 0.320378
#
# Coordination Sequence:
#
# PCOD9568565 Si02
#       4
#    16  16  16  16
#     4   9  18  34  55  75  98 136 187 234 267 300
#     4  12  23  31  48  78 112 143 171 209 265 325
#     4   9  19  35  52  72 103 145 188 220 249 302
#     4   9  19  38  63  85 101 123 166 226 283 327
#
# _framework density 18.879887
#
# number of rings (size 3 to 8) (size 9 to 14) (size 15 to 20)
#    0.000    2.250    0.000    6.000    0.000    8.500 
#    0.000    2.500    0.000    0.000    0.000    0.000 
#    0.000    8.000    0.000    0.000    0.000    0.000 
#
# Total GULP energy -356652.368152 kJ/mol
# GULP energy per Si atom -5572.693252 kJ/mol
# Density = 1.883692 g / cm^3
# Si number density = 18.879887 Si / 1000 Ang^3
#
#
#
# Elastic Constant Matrix: (Units=GPa)
#
#
# Indices 1 2 3 4 5 6 
#
# 1 -351.7649 484.7158 25.0602 0.0000 0.0000 0.0000
# 2 484.7158 -351.7649 25.0602 0.0000 0.0000 0.0000
# 3 25.0602 25.0602 30.6563 0.0000 0.0000 0.0000
# 4 0.0000 0.0000 0.0000 -2.6684 0.0000 0.0000
# 5 0.0000 0.0000 0.0000 0.0000 -2.6684 0.0000
# 6 0.0000 0.0000 0.0000 0.0000 0.0000 29.9520
#
#
#
# Elastic Compliance Matrix: (Units=1/GPa)
#
#
# Indices 1 2 3 4 5 6 
#
# 1 0.004838 0.006034 -0.008887 0.000000 0.000000 0.000000
# 2 0.006034 0.004838 -0.008887 0.000000 0.000000 0.000000
# 3 -0.008887 -0.008887 0.047150 0.000000 0.000000 0.000000
# 4 0.000000 0.000000 0.000000 -0.374762 0.000000 0.000000
# 5 0.000000 0.000000 0.000000 0.000000 -0.374762 0.000000
# 6 0.000000 0.000000 0.000000 0.000000 0.000000 0.033387
#
#
# Mechanical properties :
#
#
# Convention : Reuss Voigt Hill
#
# Bulk Modulus (GPa) = 29.99012 44.08876 37.03944
# Shear Modulus (GPa) = -8.00367 -75.59094 -41.79731
#
# Velocity S-wave (km/s) = -2.06118 -6.33441 -4.71027
# Velocity P-wave (km/s) = 3.20227 5.48605 3.14977
#
# Compressibility (1/GPa) = 0.03334432
#
# Stress axis : x y z
#
# Youngs Moduli (GPa) = 206.68649 206.68649 21.20896
#
# Poissons Ratio (x) = -1.24709 0.18849
# Poissons Ratio (y) = -1.24709 0.18849
# Poissons Ratio (z) = 1.83690 1.83690
#
# Static dielectric constant tensor:
#      x y z
#    x 1.760080 0.000000 0.000000 
#    y 0.000000 1.760080 0.000000 
#    z 0.000000 0.000000 1.655830 
# 
# From -- ./inp_files/9795.got.cif
#   From: 2010.05.17/outbox.cif.g08.bks.cpg/sg134_5_cif.got.tgz:9795.got - 2010.05.20 12:42:49.
