data_PCOD9568131
_publ_section_title
;
Structure prediction by ZEFSAII (Michael W. Deem and Ramdas Pophale) SiO2 
 PCOD9568131
Probable space group: P 42/N N M
;
_chemical_formula_sum "Si O2"
_cell_formula_units_Z 52
_cell_length_a 16.454710
_cell_length_b 16.454710
_cell_length_c 8.019147
_cell_angle_alpha 90.000000
_cell_angle_beta 90.000000
_cell_angle_gamma 90.000000
_cell_volume 2171.244043
_symmetry_space_group_name_H-M "P 42/N N M"
_symmetry_group_IT_number 134
_space_group.IT_coordinate_system_code '2'
_symmetry_cell_setting 'tetragonal'
loop_
_space_group_symop_operation_xyz
x,y,z
1/2-y,x,1/2+z
1/2-x,1/2-y,z
y,1/2-x,1/2+z
x,1/2-y,1/2-z
1/2-x,y,1/2-z
y,x,-z
1/2-y,1/2-x,-z
-x,-y,-z
1/2+y,-x,1/2-z
1/2+x,1/2+y,-z
-y,1/2+x,1/2-z
-x,1/2+y,1/2+z
1/2+x,-y,1/2+z
-y,-x,z
1/2+y,1/2+x,z
loop_
_atom_site_type_symbol
_atom_site_label
_atom_site_fract_x
_atom_site_fract_y
_atom_site_fract_z
Si Si1 0.307821 0.555472 0.087753
Si Si2 0.654887 0.020143 0.078079
Si Si3 0.750000 0.750000 0.250000
Si Si4 0.627797 0.903268 0.758188
O O1 0.250000 0.573631 0.250000
O O2 0.377671 0.622330 0.075901
O O3 0.346451 0.466116 0.115608
O O4 0.245667 0.553109 0.934415
O O5 0.592055 0.092055 0.047854
O O6 0.622469 0.965745 0.229543
O O7 0.649150 0.956430 0.923075
O O8 0.678338 0.680325 0.257972
#
# Coordination Sequence:
#
# PCOD9568131 Si02
#       4
#    16  16   4  16
#     4  10  18  32  53  83 114 146 190 239 286 340
#     4  10  19  33  54  80 112 149 183 231 293 350
#     4  12  20  34  56  76 112 146 192 246 288 360
#     4  10  19  33  49  81 109 149 184 238 294 344
#
# _framework density 23.949404000000001
#
# number of rings (size 3 to 8) (size 9 to 14) (size 15 to 20)
#    0.000    1.846    4.615    6.462    0.000    4.615 
#    0.000    0.000    0.000    7.385    0.000    0.000 
#    0.000    0.000    0.000    0.000    0.000    0.000 
#
# Total GULP energy -289857.146406 kJ/mol
# GULP energy per Si atom -5574.175892 kJ/mol
# Density = 2.389489 g / cm^3
# Si number density = 23.949404 Si / 1000 Ang^3
#
#
#
# Elastic Constant Matrix: (Units=GPa)
#
#
# Indices 1 2 3 4 5 6 
#
# 1 210.7870 170.0552 37.7367 0.0000 0.0000 0.0000
# 2 170.0552 210.7870 37.7367 0.0000 0.0000 0.0000
# 3 37.7367 37.7367 90.5191 0.0000 0.0000 0.0000
# 4 0.0000 0.0000 0.0000 7.7262 0.0000 0.0000
# 5 0.0000 0.0000 0.0000 0.0000 7.7262 0.0000
# 6 0.0000 0.0000 0.0000 0.0000 0.0000 75.3151
#
#
#
# Elastic Compliance Matrix: (Units=1/GPa)
#
#
# Indices 1 2 3 4 5 6 
#
# 1 0.013707 -0.010844 -0.001193 0.000000 0.000000 0.000000
# 2 -0.010844 0.013707 -0.001193 0.000000 0.000000 0.000000
# 3 -0.001193 -0.001193 0.012042 0.000000 0.000000 0.000000
# 4 0.000000 0.000000 0.000000 0.129429 0.000000 0.000000
# 5 0.000000 0.000000 0.000000 0.000000 0.129429 0.000000
# 6 0.000000 0.000000 0.000000 0.000000 0.000000 0.013278
#
#
# Mechanical properties :
#
#
# Convention : Reuss Voigt Hill
#
# Bulk Modulus (GPa) = 76.95982 111.46115 94.21049
# Shear Modulus (GPa) = 14.60350 35.92448 25.26399
#
# Velocity S-wave (km/s) = 2.47202 3.87721 3.25143
# Velocity P-wave (km/s) = 6.35232 8.16608 7.31563
#
# Compressibility (1/GPa) = 0.01299379
#
# Stress axis : x y z
#
# Youngs Moduli (GPa) = 72.95804 72.95804 83.04061
#
# Poissons Ratio (x) = 0.79118 0.09909
# Poissons Ratio (y) = 0.79118 0.09909
# Poissons Ratio (z) = 0.08706 0.08706
#
# Static dielectric constant tensor:
#      x y z
#    x 1.869150 0.000000 0.000000 
#    y 0.000000 1.869150 0.000000 
#    z 0.000000 0.000000 2.091920 
# 
# From -- ./inp_files/4316.got.cif
#   From: 2010.05.17/outbox.cif.g08.bks.cpg/sg134_3_cif.got.tgz:4316.got - 2010.05.20 12:42:49.
