data_PCOD9568161
_publ_section_title
;
Structure prediction by ZEFSAII (Michael W. Deem and Ramdas Pophale) SiO2 
 PCOD9568161
Probable space group: P 42/N N M
;
_chemical_formula_sum "Si O2"
_cell_formula_units_Z 88
_cell_length_a 16.295971
_cell_length_b 16.295971
_cell_length_c 21.482769
_cell_angle_alpha 90.000000
_cell_angle_beta 90.000000
_cell_angle_gamma 90.000000
_cell_volume 5704.935581
_symmetry_space_group_name_H-M "P 42/N N M"
_symmetry_group_IT_number 134
_space_group.IT_coordinate_system_code '2'
_symmetry_cell_setting 'tetragonal'
loop_
_space_group_symop_operation_xyz
x,y,z
1/2-y,x,1/2+z
1/2-x,1/2-y,z
y,1/2-x,1/2+z
x,1/2-y,1/2-z
1/2-x,y,1/2-z
y,x,-z
1/2-y,1/2-x,-z
-x,-y,-z
1/2+y,-x,1/2-z
1/2+x,1/2+y,-z
-y,1/2+x,1/2-z
-x,1/2+y,1/2+z
1/2+x,-y,1/2+z
-y,-x,z
1/2+y,1/2+x,z
loop_
_atom_site_type_symbol
_atom_site_label
_atom_site_fract_x
_atom_site_fract_y
_atom_site_fract_z
Si Si1 0.017306 0.654560 0.262927
Si Si2 0.416418 0.050824 0.141073
Si Si3 0.938574 0.195578 0.549570
Si Si4 0.863610 0.495903 0.593920
Si Si5 0.922525 0.685343 0.954641
Si Si6 0.647342 0.852659 0.500000
O O1 0.032821 0.750000 0.250000
O O2 0.100227 0.600227 0.257714
O O3 0.956619 0.618623 0.210526
O O4 0.985008 0.644086 0.332995
O O5 0.422115 0.141304 0.111999
O O6 0.503431 0.003431 0.137862
O O7 0.355086 0.996148 0.098099
O O8 0.853999 0.146001 0.545103
O O9 0.937125 0.287400 0.575678
O O10 0.987201 0.198276 0.483860
O O11 0.857811 0.575360 0.550858
O O12 0.947491 0.447491 0.583066
O O13 0.868633 0.767083 0.964236
O O14 0.881145 0.618856 0.000000
#
# Coordination Sequence:
#
# PCOD9568161 Si02
#       6
#    16  16  16  16  16   8
#     4  10  19  31  46  66  93 123 152 183 222 270
#     4   9  16  28  46  66  90 117 146 186 229 268
#     4   9  16  27  45  68  91 116 147 186 226 267
#     4  10  20  32  47  65  91 125 155 185 222 270
#     4   9  17  29  46  66  88 114 151 191 230 266
#     4  10  20  34  48  64  88 120 160 196 224 264
#
# _framework density 15.425238999999999
#
# number of rings (size 3 to 8) (size 9 to 14) (size 15 to 20)
#    0.000    2.545    1.818    1.091    0.000    2.727 
#    0.000    2.727    0.000    1.091    0.000    0.000 
#    0.000    0.000    0.000    0.000    0.000  109.091 
#
# Total GULP energy -489994.149349 kJ/mol
# GULP energy per Si atom -5568.115334 kJ/mol
# Density = 1.539013 g / cm^3
# Si number density = 15.425239 Si / 1000 Ang^3
#
#
#
# Elastic Constant Matrix: (Units=GPa)
#
#
# Indices 1 2 3 4 5 6 
#
# 1 38.6831 25.4437 43.8481 0.0000 0.0000 0.0000
# 2 25.4437 38.6825 43.8486 0.0000 0.0000 0.0000
# 3 43.8481 43.8486 97.2048 0.0000 0.0000 0.0000
# 4 0.0000 0.0000 0.0000 19.0924 0.0000 0.0000
# 5 0.0000 0.0000 0.0000 0.0000 19.0924 0.0000
# 6 0.0000 0.0000 0.0000 0.0000 0.0000 15.2353
#
#
#
# Elastic Compliance Matrix: (Units=1/GPa)
#
#
# Indices 1 2 3 4 5 6 
#
# 1 0.058118 -0.017415 -0.018361 0.000000 0.000000 0.000000
# 2 -0.017415 0.058121 -0.018362 0.000000 0.000000 0.000000
# 3 -0.018361 -0.018362 0.026853 0.000000 0.000000 0.000000
# 4 0.000000 0.000000 0.000000 0.052377 0.000000 0.000000
# 5 0.000000 0.000000 0.000000 0.000000 0.052377 0.000000
# 6 0.000000 0.000000 0.000000 0.000000 0.000000 0.065637
#
#
# Mechanical properties :
#
#
# Convention : Reuss Voigt Hill
#
# Bulk Modulus (GPa) = 28.72231 44.53902 36.63066
# Shear Modulus (GPa) = 11.53766 14.77935 13.15851
#
# Velocity S-wave (km/s) = 2.73788 3.09872 2.92387
# Velocity P-wave (km/s) = 5.35307 6.46062 5.93275
#
# Compressibility (1/GPa) = 0.03481615
#
# Stress axis : x y z
#
# Youngs Moduli (GPa) = 17.20646 17.20552 37.23967
#
# Poissons Ratio (x) = 0.29963 0.68375
# Poissons Ratio (y) = 0.29964 0.68381
# Poissons Ratio (z) = 0.31592 0.31594
#
# Static dielectric constant tensor:
#      x y z
#    x 1.512010 0.000000 0.000000 
#    y 0.000000 1.512010 0.000000 
#    z 0.000000 0.000000 1.518770 
# 
# From -- ./inp_files/9016.got.cif
#   From: 2010.05.17/outbox.cif.g08.bks.cpg/sg134_5_cif.got.tgz:9016.got - 2010.05.20 12:42:49.
