data_PCOD9568088
_publ_section_title
;
Structure prediction by ZEFSAII (Michael W. Deem and Ramdas Pophale) SiO2 
 PCOD9568088
Probable space group: P 42/N N M
;
_chemical_formula_sum "Si O2"
_cell_formula_units_Z 72
_cell_length_a 25.281406
_cell_length_b 25.281406
_cell_length_c 7.409434
_cell_angle_alpha 90.000000
_cell_angle_beta 90.000000
_cell_angle_gamma 90.000000
_cell_volume 4735.735957
_symmetry_space_group_name_H-M "P 42/N N M"
_symmetry_group_IT_number 134
_space_group.IT_coordinate_system_code '2'
_symmetry_cell_setting 'tetragonal'
loop_
_space_group_symop_operation_xyz
x,y,z
1/2-y,x,1/2+z
1/2-x,1/2-y,z
y,1/2-x,1/2+z
x,1/2-y,1/2-z
1/2-x,y,1/2-z
y,x,-z
1/2-y,1/2-x,-z
-x,-y,-z
1/2+y,-x,1/2-z
1/2+x,1/2+y,-z
-y,1/2+x,1/2-z
-x,1/2+y,1/2+z
1/2+x,-y,1/2+z
-y,-x,z
1/2+y,1/2+x,z
loop_
_atom_site_type_symbol
_atom_site_label
_atom_site_fract_x
_atom_site_fract_y
_atom_site_fract_z
Si Si1 0.040269 0.540269 0.148716
Si Si2 0.398729 0.476149 0.060239
Si Si3 0.145242 0.854759 0.642607
Si Si4 0.914103 0.250000 0.250000
Si Si5 0.441570 0.558431 0.762623
Si Si6 0.460998 0.704650 0.101792
Si Si7 0.127366 0.872635 0.243975
O O1 0.065613 0.492359 0.264973
O O2 0.084896 0.584896 0.184816
O O3 0.963701 0.463701 0.069767
O O4 0.338226 0.491561 0.099871
O O5 0.418094 0.418094 0.000000
O O6 0.415116 0.515058 0.894131
O O7 0.200484 0.876687 0.710641
O O8 0.101823 0.898178 0.705983
O O9 0.150640 0.849361 0.426816
O O10 0.951442 0.265764 0.415250
O O11 0.467799 0.750000 0.250000
O O12 0.407242 0.670621 0.139475
#
# Coordination Sequence:
#
# PCOD9568088 Si02
#       7
#     8  16   8   8   8  16   8
#     4   8  17  28  48  69  96 125 155 194 246 299
#     4  10  20  32  48  74 101 127 162 206 249 300
#     4  11  20  33  52  70  94 131 173 216 254 284
#     4  12  22  35  54  68  96 132 175 220 254 288
#     4  10  17  32  49  74  99 125 166 204 247 304
#     4  11  21  35  53  72  97 134 172 208 254 305
#     4   9  18  34  49  71  93 122 168 216 246 288
#
# _framework density 15.20355
#
# number of rings (size 3 to 8) (size 9 to 14) (size 15 to 20)
#    0.000    1.778    4.444    2.667    0.000    2.000 
#    0.000    0.000    0.000    0.333    0.000    0.000 
#    0.000    0.000    0.000    3.000    0.000    0.000 
#
# Total GULP energy -401172.753936 kJ/mol
# GULP energy per Si atom -5571.843805 kJ/mol
# Density = 1.516895 g / cm^3
# Si number density = 15.203550 Si / 1000 Ang^3
#
#
#
# Elastic Constant Matrix: (Units=GPa)
#
#
# Indices 1 2 3 4 5 6 
#
# 1 61.1218 59.4000 30.9688 0.0000 0.0000 0.0000
# 2 59.4000 61.1218 30.9688 0.0000 0.0000 0.0000
# 3 30.9688 30.9688 117.4121 0.0000 0.0000 0.0000
# 4 0.0000 0.0000 0.0000 -5.5581 0.0000 0.0000
# 5 0.0000 0.0000 0.0000 0.0000 -5.5581 0.0000
# 6 0.0000 0.0000 0.0000 0.0000 0.0000 21.7825
#
#
#
# Elastic Compliance Matrix: (Units=1/GPa)
#
#
# Indices 1 2 3 4 5 6 
#
# 1 0.295200 -0.285601 -0.002532 0.000000 0.000000 0.000000
# 2 -0.285601 0.295200 -0.002532 0.000000 0.000000 0.000000
# 3 -0.002532 -0.002532 0.009853 0.000000 0.000000 0.000000
# 4 0.000000 0.000000 0.000000 -0.179918 0.000000 0.000000
# 5 0.000000 0.000000 0.000000 0.000000 -0.179918 0.000000
# 6 0.000000 0.000000 0.000000 0.000000 0.000000 0.045908
#
#
# Mechanical properties :
#
#
# Convention : Reuss Voigt Hill
#
# Bulk Modulus (GPa) = 52.84719 53.59231 53.21975
# Shear Modulus (GPa) = 5.72108 10.02114 7.87111
#
# Velocity S-wave (km/s) = 1.94195 2.57014 2.27780
# Velocity P-wave (km/s) = 6.31375 6.64333 6.48064
#
# Compressibility (1/GPa) = 0.01892248
#
# Stress axis : x y z
#
# Youngs Moduli (GPa) = 3.38754 3.38754 101.49682
#
# Poissons Ratio (x) = 0.96749 0.25696
# Poissons Ratio (y) = 0.96749 0.25696
# Poissons Ratio (z) = 0.00858 0.00858
#
# Static dielectric constant tensor:
#      x y z
#    x 1.403940 0.000000 0.000000 
#    y 0.000000 1.403940 0.000000 
#    z 0.000000 0.000000 1.559990 
# 
# From -- ./inp_files/3085.got.cif
#   From: 2010.05.17/outbox.cif.g08.bks.cpg/sg134_2_cif.got.tgz:3085.got - 2010.05.20 12:42:49.
