data_PCOD9568536
_publ_section_title
;
Structure prediction by ZEFSAII (Michael W. Deem and Ramdas Pophale) SiO2 
 PCOD9568536
Probable space group: P 42/N N M
;
_chemical_formula_sum "Si O2"
_cell_formula_units_Z 84
_cell_length_a 11.819537
_cell_length_b 11.819537
_cell_length_c 29.680721
_cell_angle_alpha 90.000000
_cell_angle_beta 90.000000
_cell_angle_gamma 90.000000
_cell_volume 4146.439906
_symmetry_space_group_name_H-M "P 42/N N M"
_symmetry_group_IT_number 134
_space_group.IT_coordinate_system_code '2'
_symmetry_cell_setting 'tetragonal'
loop_
_space_group_symop_operation_xyz
x,y,z
1/2-y,x,1/2+z
1/2-x,1/2-y,z
y,1/2-x,1/2+z
x,1/2-y,1/2-z
1/2-x,y,1/2-z
y,x,-z
1/2-y,1/2-x,-z
-x,-y,-z
1/2+y,-x,1/2-z
1/2+x,1/2+y,-z
-y,1/2+x,1/2-z
-x,1/2+y,1/2+z
1/2+x,-y,1/2+z
-y,-x,z
1/2+y,1/2+x,z
loop_
_atom_site_type_symbol
_atom_site_label
_atom_site_fract_x
_atom_site_fract_y
_atom_site_fract_z
Si Si1 0.615440 0.566916 0.742410
Si Si2 0.911617 0.601223 0.405057
Si Si3 0.519507 0.838280 0.065342
Si Si4 0.010387 0.233222 0.462557
Si Si5 0.250000 0.750000 0.937209
Si Si6 0.614150 0.759063 0.678641
O O1 0.750000 0.552922 0.750000
O O2 0.549103 0.450898 0.744961
O O3 0.582696 0.634797 0.696687
O O4 0.580626 0.651214 0.782814
O O5 0.950623 0.731645 0.403544
O O6 0.845476 0.581085 0.451573
O O7 0.815720 0.576651 0.367591
O O8 0.016868 0.516868 0.400359
O O9 0.627002 0.919584 0.057147
O O10 0.414663 0.914663 0.081033
O O11 0.491640 0.789609 0.015495
O O12 0.889120 0.248811 0.440088
O O13 0.750000 0.750000 0.677388
#
# Coordination Sequence:
#
# PCOD9568536 Si02
#       6
#    16  16  16  16   4  16
#     4   9  18  36  64  90 118 154 191 232 293 366
#     4  12  25  37  60  90 120 160 209 265 319 377
#     4  11  23  41  61  83 119 167 212 263 326 392
#     4  11  22  41  60  85 119 161 210 265 329 382
#     4  12  20  38  66  84 116 153 216 276 313 380
#     4   9  19  39  59  82 118 159 195 236 292 364
#
# _framework density 20.258341999999999
#
# number of rings (size 3 to 8) (size 9 to 14) (size 15 to 20)
#    0.000    1.524    2.857    4.571    1.333    2.857 
#    1.714    5.714    0.000   13.714    0.000    0.000 
#    0.000    0.000    0.000    0.000    0.000    0.000 
#
# Total GULP energy -467796.346316 kJ/mol
# GULP energy per Si atom -5569.004123 kJ/mol
# Density = 2.021223 g / cm^3
# Si number density = 20.258342 Si / 1000 Ang^3
#
#
#
# Elastic Constant Matrix: (Units=GPa)
#
#
# Indices 1 2 3 4 5 6 
#
# 1 114.2014 39.4173 28.5098 0.0000 0.0000 0.0000
# 2 39.4173 114.2014 28.5098 0.0000 0.0000 0.0000
# 3 28.5098 28.5098 64.6585 0.0000 0.0000 0.0000
# 4 0.0000 0.0000 0.0000 10.8004 0.0000 0.0000
# 5 0.0000 0.0000 0.0000 0.0000 10.8004 0.0000
# 6 0.0000 0.0000 0.0000 0.0000 0.0000 38.2961
#
#
#
# Elastic Compliance Matrix: (Units=1/GPa)
#
#
# Indices 1 2 3 4 5 6 
#
# 1 0.010578 -0.002794 -0.003432 0.000000 0.000000 0.000000
# 2 -0.002794 0.010578 -0.003432 0.000000 0.000000 0.000000
# 3 -0.003432 -0.003432 0.018492 0.000000 0.000000 0.000000
# 4 0.000000 0.000000 0.000000 0.092589 0.000000 0.000000
# 5 0.000000 0.000000 0.000000 0.000000 0.092589 0.000000
# 6 0.000000 0.000000 0.000000 0.000000 0.000000 0.026112
#
#
# Mechanical properties :
#
#
# Convention : Reuss Voigt Hill
#
# Bulk Modulus (GPa) = 49.18478 53.99280 51.58879
# Shear Modulus (GPa) = 18.04849 25.08768 21.56809
#
# Velocity S-wave (km/s) = 2.98806 3.52289 3.26644
# Velocity P-wave (km/s) = 6.01965 6.57706 6.30452
#
# Compressibility (1/GPa) = 0.02033149
#
# Stress axis : x y z
#
# Youngs Moduli (GPa) = 94.53891 94.53891 54.07630
#
# Poissons Ratio (x) = 0.26416 0.18559
# Poissons Ratio (y) = 0.26416 0.18559
# Poissons Ratio (z) = 0.32445 0.32445
#
# Static dielectric constant tensor:
#      x y z
#    x 1.717910 0.000000 0.000000 
#    y 0.000000 1.717910 0.000000 
#    z 0.000000 0.000000 1.803690 
# 
# From -- ./inp_files/11406.got.cif
#   From: 2010.05.17/outbox.cif.g08.bks.cpg/sg134_6_cif.got.tgz:11406.got - 2010.05.20 12:42:49.
