data_PCOD9568825
_publ_section_title
;
Structure prediction by ZEFSAII (Michael W. Deem and Ramdas Pophale) SiO2 
 PCOD9568825
Probable space group: P 42/M B C
;
_chemical_formula_sum "Si O2"
_cell_formula_units_Z 120
_cell_length_a 20.708354
_cell_length_b 20.708354
_cell_length_c 14.346979
_cell_angle_alpha 90.000000
_cell_angle_beta 90.000000
_cell_angle_gamma 90.000000
_cell_volume 6152.500016
_symmetry_space_group_name_H-M "P 42/M B C"
_symmetry_group_IT_number 135
_symmetry_cell_setting 'tetragonal'
loop_
_space_group_symop_operation_xyz
x,y,z
-y,x,1/2+z
-x,-y,z
y,-x,1/2+z
1/2+x,1/2-y,-z
1/2-x,1/2+y,-z
1/2+y,1/2+x,1/2-z
1/2-y,1/2-x,1/2-z
-x,-y,-z
y,-x,1/2-z
x,y,-z
-y,x,1/2-z
1/2-x,1/2+y,z
1/2+x,1/2-y,z
1/2-y,1/2-x,1/2+z
1/2+y,1/2+x,1/2+z
loop_
_atom_site_type_symbol
_atom_site_label
_atom_site_fract_x
_atom_site_fract_y
_atom_site_fract_z
Si Si1 0.566035 0.540549 0.604890
Si Si2 0.921902 0.612171 0.612138
Si Si3 0.853790 0.002602 0.782168
Si Si4 0.725282 0.774718 0.750000
Si Si5 0.420633 0.250475 0.805675
Si Si6 0.014145 0.620092 0.779828
Si Si7 0.354546 0.368194 0.102197
Si Si8 0.807374 0.711243 0.604010
O O1 0.500000 0.500000 0.602285
O O2 0.592531 0.544187 0.500000
O O3 0.544525 0.608792 0.647519
O O4 0.610572 0.507674 0.682474
O O5 0.935052 0.614479 0.500000
O O6 0.908111 0.539906 0.649949
O O7 0.858305 0.656017 0.630404
O O8 0.977520 0.637233 0.682327
O O9 0.856878 0.074218 0.824294
O O10 0.784809 0.971347 0.763029
O O11 0.649842 0.764609 0.765135
O O12 0.747176 0.725225 0.669441
O O13 0.452791 0.181957 0.828387
O O14 0.400348 0.306469 0.879159
O O15 0.067164 0.567164 0.750000
O O16 0.280615 0.343462 0.103349
O O17 0.370080 0.395121 0.000000
O O18 0.785146 0.696433 0.500000
#
# Coordination Sequence:
#
# PCOD9568825 Si02
#       8
#    16  16  16   8  16  16  16  16
#     4  11  21  36  56  83 122 160 200 251 303 362
#     4  10  21  40  65  95 126 159 204 259 312 370
#     4  12  20  38  58  89 121 163 209 254 309 372
#     4  10  20  40  62  85 123 168 196 262 320 366
#     4  11  23  39  64  87 125 164 211 257 316 379
#     4  11  23  40  62  92 125 162 206 252 313 382
#     4  10  21  38  63  90 123 166 211 255 310 380
#     4   9  19  37  63  91 118 156 206 252 311 371
#
# _framework density 19.504266999999999
#
# number of rings (size 3 to 8) (size 9 to 14) (size 15 to 20)
#    0.000    1.467    3.333    2.800    0.000    4.267 
#    0.000    2.667    0.000    0.000    0.000    0.000 
#    0.000    0.000    0.000    0.000    0.000    0.000 
#
# Total GULP energy -669026.206275 kJ/mol
# GULP energy per Si atom -5575.218386 kJ/mol
# Density = 1.945987 g / cm^3
# Si number density = 19.504267 Si / 1000 Ang^3
#
#
#
# Elastic Constant Matrix: (Units=GPa)
#
#
# Indices 1 2 3 4 5 6 
#
# 1 69.2824 7.8110 11.1096 0.0000 0.0000 0.0000
# 2 7.8110 69.2822 11.1094 0.0000 0.0000 0.0000
# 3 11.1096 11.1094 100.3452 0.0000 0.0000 0.0000
# 4 0.0000 0.0000 0.0000 7.7209 0.0000 0.0000
# 5 0.0000 0.0000 0.0000 0.0000 7.7200 0.0000
# 6 0.0000 0.0000 0.0000 0.0000 0.0000 36.4081
#
#
#
# Elastic Compliance Matrix: (Units=1/GPa)
#
#
# Indices 1 2 3 4 5 6 
#
# 1 0.014833 -0.001434 -0.001483 0.000000 0.000000 0.000000
# 2 -0.001434 0.014833 -0.001483 0.000000 0.000000 0.000000
# 3 -0.001483 -0.001483 0.010294 0.000000 0.000000 0.000000
# 4 0.000000 0.000000 0.000000 0.129519 0.000000 0.000000
# 5 0.000000 0.000000 0.000000 0.000000 0.129534 0.000000
# 6 0.000000 0.000000 0.000000 0.000000 0.000000 0.027466
#
#
# Mechanical properties :
#
#
# Convention : Reuss Voigt Hill
#
# Bulk Modulus (GPa) = 32.09445 33.21887 32.65666
# Shear Modulus (GPa) = 14.46471 24.29509 19.37990
#
# Velocity S-wave (km/s) = 2.72622 3.53318 3.15560
# Velocity P-wave (km/s) = 5.13814 5.80629 5.48241
#
# Compressibility (1/GPa) = 0.03115804
#
# Stress axis : x y z
#
# Youngs Moduli (GPa) = 67.41595 67.41578 97.14329
#
# Poissons Ratio (x) = 0.09671 0.14411
# Poissons Ratio (y) = 0.09671 0.14410
# Poissons Ratio (z) = 0.10001 0.10001
#
# Static dielectric constant tensor:
#      x y z
#    x 1.691630 0.000000 0.000000 
#    y 0.000000 1.691620 0.000000 
#    z 0.000000 0.000000 1.743330 
# 
# From -- ./inp_files/3721.got.cif
#   From: 2010.05.17/outbox.cif.g08.bks.cpg/sg135_2_cif.got.tgz:3721.got - 2010.05.20 12:50:20.
