data_PCOD9568145
_publ_section_title
;
Structure prediction by ZEFSAII (Michael W. Deem and Ramdas Pophale) SiO2 
 PCOD9568145
Probable space group: P 42/N N M
;
_chemical_formula_sum "Si O2"
_cell_formula_units_Z 112
_cell_length_a 15.050777
_cell_length_b 15.050777
_cell_length_c 26.225292
_cell_angle_alpha 90.000000
_cell_angle_beta 90.000000
_cell_angle_gamma 90.000000
_cell_volume 5940.707566
_symmetry_space_group_name_H-M "P 42/N N M"
_symmetry_group_IT_number 134
_space_group.IT_coordinate_system_code '2'
_symmetry_cell_setting 'tetragonal'
loop_
_space_group_symop_operation_xyz
x,y,z
1/2-y,x,1/2+z
1/2-x,1/2-y,z
y,1/2-x,1/2+z
x,1/2-y,1/2-z
1/2-x,y,1/2-z
y,x,-z
1/2-y,1/2-x,-z
-x,-y,-z
1/2+y,-x,1/2-z
1/2+x,1/2+y,-z
-y,1/2+x,1/2-z
-x,1/2+y,1/2+z
1/2+x,-y,1/2+z
-y,-x,z
1/2+y,1/2+x,z
loop_
_atom_site_type_symbol
_atom_site_label
_atom_site_fract_x
_atom_site_fract_y
_atom_site_fract_z
Si Si1 0.841488 0.648240 0.770725
Si Si2 0.508455 0.861101 0.027672
Si Si3 0.371923 0.479861 0.808117
Si Si4 0.311525 0.959081 0.534701
Si Si5 0.244550 0.894319 0.645501
Si Si6 0.624330 0.667510 0.908503
Si Si7 0.172335 0.135061 0.391702
O O1 0.841878 0.750000 0.750000
O O2 0.750000 0.606905 0.750000
O O3 0.929192 0.610679 0.744220
O O4 0.835457 0.642636 0.831116
O O5 0.542975 0.861570 0.085657
O O6 0.425850 0.925850 0.019558
O O7 0.593361 0.906640 0.000000
O O8 0.481677 0.764842 0.005969
O O9 0.447802 0.552199 0.818312
O O10 0.277395 0.530914 0.815025
O O11 0.367217 0.408507 0.853641
O O12 0.381693 0.881693 0.520747
O O13 0.263371 0.927600 0.587809
O O14 0.360789 0.050383 0.550858
O O15 0.146952 0.853048 0.651591
O O16 0.314051 0.814051 0.653139
O O17 0.726619 0.641340 0.912372
O O18 0.624407 0.775085 0.910309
#
# Coordination Sequence:
#
# PCOD9568145 Si02
#       7
#    16  16  16  16  16  16  16
#     4  11  19  36  60  81 108 152 198 240 300 368
#     4  11  24  41  58  85 125 164 207 252 295 355
#     4  10  19  32  54  85 117 148 195 254 301 354
#     4  10  20  37  62  89 122 163 209 253 304 370
#     4   8  15  29  52  81 115 158 199 237 291 359
#     4  10  18  36  59  89 114 153 195 247 311 369
#     4  11  21  36  62  85 118 158 200 250 305 372
#
# _framework density 18.852972999999999
#
# number of rings (size 3 to 8) (size 9 to 14) (size 15 to 20)
#    0.000    1.857    4.286    2.571    0.000    2.000 
#    0.000    2.857    0.000    0.000    0.000    0.000 
#    0.000    0.286    0.000    0.000    0.000    0.000 
#
# Total GULP energy -624299.428457 kJ/mol
# GULP energy per Si atom -5574.102040 kJ/mol
# Density = 1.881006 g / cm^3
# Si number density = 18.852973 Si / 1000 Ang^3
#
#
#
# Elastic Constant Matrix: (Units=GPa)
#
#
# Indices 1 2 3 4 5 6 
#
# 1 73.8403 29.8966 26.2584 0.0000 0.0000 0.0000
# 2 29.8966 73.8405 26.2583 0.0000 0.0000 0.0000
# 3 26.2584 26.2583 77.0577 0.0000 0.0000 0.0000
# 4 0.0000 0.0000 0.0000 20.9119 0.0000 0.0000
# 5 0.0000 0.0000 0.0000 0.0000 20.9118 0.0000
# 6 0.0000 0.0000 0.0000 0.0000 0.0000 15.2417
#
#
#
# Elastic Compliance Matrix: (Units=1/GPa)
#
#
# Indices 1 2 3 4 5 6 
#
# 1 0.017203 -0.005553 -0.003970 0.000000 0.000000 0.000000
# 2 -0.005553 0.017203 -0.003970 0.000000 0.000000 0.000000
# 3 -0.003970 -0.003970 0.015683 0.000000 0.000000 0.000000
# 4 0.000000 0.000000 0.000000 0.047820 0.000000 0.000000
# 5 0.000000 0.000000 0.000000 0.000000 0.047820 0.000000
# 6 0.000000 0.000000 0.000000 0.000000 0.000000 0.065610
#
#
# Mechanical properties :
#
#
# Convention : Reuss Voigt Hill
#
# Bulk Modulus (GPa) = 43.28477 43.28502 43.28490
# Shear Modulus (GPa) = 20.32320 20.90142 20.61231
#
# Velocity S-wave (km/s) = 3.28683 3.33326 3.31012
# Velocity P-wave (km/s) = 6.11664 6.15006 6.13337
#
# Compressibility (1/GPa) = 0.02310282
#
# Stress axis : x y z
#
# Youngs Moduli (GPa) = 58.12976 58.12993 63.76441
#
# Poissons Ratio (x) = 0.32282 0.25312
# Poissons Ratio (y) = 0.32282 0.25312
# Poissons Ratio (z) = 0.23076 0.23076
#
# Static dielectric constant tensor:
#      x y z
#    x 1.685580 0.000000 0.000000 
#    y 0.000000 1.685580 0.000000 
#    z 0.000000 0.000000 1.693900 
# 
# From -- ./inp_files/10132.got.cif
#   From: 2010.05.17/outbox.cif.g08.bks.cpg/sg134_6_cif.got.tgz:10132.got - 2010.05.20 12:42:49.
