data_PCOD9568216
_publ_section_title
;
Structure prediction by ZEFSAII (Michael W. Deem and Ramdas Pophale) SiO2 
 PCOD9568216
Probable space group: P 42/N N M
;
_chemical_formula_sum "Si O2"
_cell_formula_units_Z 112
_cell_length_a 15.156009
_cell_length_b 15.156009
_cell_length_c 24.556222
_cell_angle_alpha 90.000000
_cell_angle_beta 90.000000
_cell_angle_gamma 90.000000
_cell_volume 5640.677368
_symmetry_space_group_name_H-M "P 42/N N M"
_symmetry_group_IT_number 134
_space_group.IT_coordinate_system_code '2'
_symmetry_cell_setting 'tetragonal'
loop_
_space_group_symop_operation_xyz
x,y,z
1/2-y,x,1/2+z
1/2-x,1/2-y,z
y,1/2-x,1/2+z
x,1/2-y,1/2-z
1/2-x,y,1/2-z
y,x,-z
1/2-y,1/2-x,-z
-x,-y,-z
1/2+y,-x,1/2-z
1/2+x,1/2+y,-z
-y,1/2+x,1/2-z
-x,1/2+y,1/2+z
1/2+x,-y,1/2+z
-y,-x,z
1/2+y,1/2+x,z
loop_
_atom_site_type_symbol
_atom_site_label
_atom_site_fract_x
_atom_site_fract_y
_atom_site_fract_z
Si Si1 0.565515 0.704194 0.192130
Si Si2 0.609299 0.254144 0.335470
Si Si3 0.496551 0.850938 0.045815
Si Si4 0.814557 0.675013 0.897959
Si Si5 0.583592 0.715403 0.807287
Si Si6 0.752057 0.389207 0.858525
Si Si7 0.245201 0.606873 0.534245
O O1 0.580190 0.750000 0.250000
O O2 0.618152 0.757782 0.145589
O O3 0.613029 0.609953 0.190063
O O4 0.462368 0.708369 0.179383
O O5 0.650094 0.349907 0.323720
O O6 0.682780 0.182780 0.320357
O O7 0.519238 0.231728 0.307563
O O8 0.596748 0.246910 0.400816
O O9 0.599323 0.856126 0.063248
O O10 0.442750 0.801336 0.094039
O O11 0.478645 0.783949 0.995640
O O12 0.444288 0.944288 0.038339
O O13 0.750000 0.750000 0.923624
O O14 0.880237 0.730059 0.859104
O O15 0.622500 0.750000 0.750000
O O16 0.677232 0.322769 0.880078
O O17 0.826674 0.326674 0.831685
O O18 0.317692 0.682309 0.520641
O O19 0.150450 0.650450 0.519070
#
# Coordination Sequence:
#
# PCOD9568216 Si02
#       7
#    16  16  16  16  16  16  16
#     4  10  19  34  54  75 100 137 189 232 267 319
#     4   9  20  38  56  80 113 142 178 233 286 331
#     4   9  16  29  53  84 111 140 181 223 264 322
#     4   9  19  33  52  76 105 143 179 229 280 323
#     4  11  21  35  58  78  98 144 194 234 281 334
#     4   9  18  31  48  76 115 148 172 212 270 328
#     4   8  14  29  56  83 109 145 181 214 264 335
#
# _framework density 19.855771000000001
#
# number of rings (size 3 to 8) (size 9 to 14) (size 15 to 20)
#    0.000    2.714    1.429    1.286    0.000    4.000 
#    0.000    2.143    0.000   12.857    0.000   19.000 
#    0.000    0.000    0.000    0.000    0.000    0.000 
#
# Total GULP energy -623928.168852 kJ/mol
# GULP energy per Si atom -5570.787222 kJ/mol
# Density = 1.981058 g / cm^3
# Si number density = 19.855771 Si / 1000 Ang^3
#
#
#
# Elastic Constant Matrix: (Units=GPa)
#
#
# Indices 1 2 3 4 5 6 
#
# 1 110.8068 60.1608 31.5771 0.0000 0.0000 0.0000
# 2 60.1608 110.8068 31.5771 0.0000 0.0000 0.0000
# 3 31.5771 31.5771 50.0945 0.0000 0.0000 0.0000
# 4 0.0000 0.0000 0.0000 17.8360 0.0000 0.0000
# 5 0.0000 0.0000 0.0000 0.0000 17.8360 0.0000
# 6 0.0000 0.0000 0.0000 0.0000 0.0000 21.4624
#
#
#
# Elastic Compliance Matrix: (Units=1/GPa)
#
#
# Indices 1 2 3 4 5 6 
#
# 1 0.013685 -0.006060 -0.004806 0.000000 0.000000 0.000000
# 2 -0.006060 0.013685 -0.004806 0.000000 0.000000 0.000000
# 3 -0.004806 -0.004806 0.026021 0.000000 0.000000 0.000000
# 4 0.000000 0.000000 0.000000 0.056066 0.000000 0.000000
# 5 0.000000 0.000000 0.000000 0.000000 0.056066 0.000000
# 6 0.000000 0.000000 0.000000 0.000000 0.000000 0.046593
#
#
# Mechanical properties :
#
#
# Convention : Reuss Voigt Hill
#
# Bulk Modulus (GPa) = 45.35998 57.59313 51.47655
# Shear Modulus (GPa) = 19.93543 21.31974 20.62759
#
# Velocity S-wave (km/s) = 3.17205 3.28034 3.22665
# Velocity P-wave (km/s) = 6.02580 6.58910 6.31373
#
# Compressibility (1/GPa) = 0.02204587
#
# Stress axis : x y z
#
# Youngs Moduli (GPa) = 73.07459 73.07459 38.43012
#
# Poissons Ratio (x) = 0.44285 0.18470
# Poissons Ratio (y) = 0.44285 0.18470
# Poissons Ratio (z) = 0.35120 0.35120
#
# Static dielectric constant tensor:
#      x y z
#    x 1.712100 0.000000 0.000000 
#    y 0.000000 1.712100 0.000000 
#    z 0.000000 0.000000 1.729870 
# 
# From -- ./inp_files/10849.got.cif
#   From: 2010.05.17/outbox.cif.g08.bks.cpg/sg134_6_cif.got.tgz:10849.got - 2010.05.20 12:42:49.
