data_PCOD9568338
_publ_section_title
;
Structure prediction by ZEFSAII (Michael W. Deem and Ramdas Pophale) SiO2 
 PCOD9568338
Probable space group: P 42/N N M
;
_chemical_formula_sum "Si O2"
_cell_formula_units_Z 80
_cell_length_a 14.551711
_cell_length_b 14.551711
_cell_length_c 20.149478
_cell_angle_alpha 90.000000
_cell_angle_beta 90.000000
_cell_angle_gamma 90.000000
_cell_volume 4266.698170
_symmetry_space_group_name_H-M "P 42/N N M"
_symmetry_group_IT_number 134
_space_group.IT_coordinate_system_code '2'
_symmetry_cell_setting 'tetragonal'
loop_
_space_group_symop_operation_xyz
x,y,z
1/2-y,x,1/2+z
1/2-x,1/2-y,z
y,1/2-x,1/2+z
x,1/2-y,1/2-z
1/2-x,y,1/2-z
y,x,-z
1/2-y,1/2-x,-z
-x,-y,-z
1/2+y,-x,1/2-z
1/2+x,1/2+y,-z
-y,1/2+x,1/2-z
-x,1/2+y,1/2+z
1/2+x,-y,1/2+z
-y,-x,z
1/2+y,1/2+x,z
loop_
_atom_site_type_symbol
_atom_site_label
_atom_site_fract_x
_atom_site_fract_y
_atom_site_fract_z
Si Si1 0.976235 0.874916 0.561147
Si Si2 0.840136 0.805967 0.348048
Si Si3 0.675905 0.467204 0.034792
Si Si4 0.495745 0.650119 0.247599
Si Si5 0.065374 0.133548 0.901189
O O1 0.921272 0.921272 0.500000
O O2 0.900998 0.834426 0.612137
O O3 0.032090 0.785206 0.538789
O O4 0.046297 0.953704 0.586981
O O5 0.750000 0.750000 0.324358
O O6 0.881197 0.730143 0.398290
O O7 0.912768 0.831829 0.290712
O O8 0.627608 0.372393 0.053863
O O9 0.629925 0.548056 0.079586
O O10 0.645944 0.493574 0.960174
O O11 0.447297 0.750000 0.250000
O O12 0.429526 0.570475 0.274068
O O13 0.523703 0.625508 0.172316
#
# Coordination Sequence:
#
# PCOD9568338 Si02
#       5
#    16  16  16  16  16
#     4  11  23  39  59  85 122 161 197 246 305 358
#     4  11  21  38  63  88 115 155 204 250 302 354
#     4  11  21  36  60  87 118 158 201 245 301 358
#     4  10  22  38  58  87 123 157 196 245 298 361
#     4  10  20  36  61  86 117 153 198 246 296 350
#
# _framework density 18.749862
#
# number of rings (size 3 to 8) (size 9 to 14) (size 15 to 20)
#    0.000    1.400    4.000    3.000    0.000    4.600 
#    0.000    0.000    0.000    2.400    0.000    0.000 
#    0.000    4.800    0.000    0.000    0.000    0.400 
#
# Total GULP energy -445789.760942 kJ/mol
# GULP energy per Si atom -5572.372012 kJ/mol
# Density = 1.870719 g / cm^3
# Si number density = 18.749862 Si / 1000 Ang^3
#
#
#
# Elastic Constant Matrix: (Units=GPa)
#
#
# Indices 1 2 3 4 5 6 
#
# 1 91.1261 101.6261 35.1789 0.0000 0.0000 0.0000
# 2 101.6261 91.1261 35.1789 0.0000 0.0000 0.0000
# 3 35.1789 35.1789 73.2342 0.0000 0.0000 0.0000
# 4 0.0000 0.0000 0.0000 10.3785 0.0000 0.0000
# 5 0.0000 0.0000 0.0000 0.0000 10.3785 0.0000
# 6 0.0000 0.0000 0.0000 0.0000 0.0000 41.2844
#
#
#
# Elastic Compliance Matrix: (Units=1/GPa)
#
#
# Indices 1 2 3 4 5 6 
#
# 1 -0.044474 0.050765 -0.003022 0.000000 0.000000 0.000000
# 2 0.050765 -0.044474 -0.003022 0.000000 0.000000 0.000000
# 3 -0.003022 -0.003022 0.016558 0.000000 0.000000 0.000000
# 4 0.000000 0.000000 0.000000 0.096353 0.000000 0.000000
# 5 0.000000 0.000000 0.000000 0.000000 0.096353 0.000000
# 6 0.000000 0.000000 0.000000 0.000000 0.000000 0.024222
#
#
# Mechanical properties :
#
#
# Convention : Reuss Voigt Hill
#
# Bulk Modulus (GPa) = 58.64306 66.60600 62.62453
# Shear Modulus (GPa) = 82.26130 17.97510 50.11820
#
# Velocity S-wave (km/s) = 6.63086 3.09961 5.17571
# Velocity P-wave (km/s) = 9.48519 6.95778 8.31804
#
# Compressibility (1/GPa) = 0.01705232
#
# Stress axis : x y z
#
# Youngs Moduli (GPa) = -22.48515 -22.48515 60.39333
#
# Poissons Ratio (x) = 1.14146 0.18251
# Poissons Ratio (y) = 1.14146 0.18251
# Poissons Ratio (z) = -0.06795 -0.06795
#
# Static dielectric constant tensor:
#      x y z
#    x 1.694240 0.000000 0.000000 
#    y 0.000000 1.694240 0.000000 
#    z 0.000000 0.000000 1.658880 
# 
# From -- ./inp_files/8868.got.cif
#   From: 2010.05.17/outbox.cif.g08.bks.cpg/sg134_5_cif.got.tgz:8868.got - 2010.05.20 12:42:49.
