data_PCOD9568735
_publ_section_title
;
Structure prediction by ZEFSAII (Michael W. Deem and Ramdas Pophale) SiO2 
 PCOD9568735
Probable space group: P 42/M B C
;
_chemical_formula_sum "Si O2"
_cell_formula_units_Z 80
_cell_length_a 13.879845
_cell_length_b 13.879845
_cell_length_c 14.832581
_cell_angle_alpha 90.000000
_cell_angle_beta 90.000000
_cell_angle_gamma 90.000000
_cell_volume 2857.498172
_symmetry_space_group_name_H-M "P 42/M B C"
_symmetry_group_IT_number 135
_symmetry_cell_setting 'tetragonal'
loop_
_space_group_symop_operation_xyz
x,y,z
-y,x,1/2+z
-x,-y,z
y,-x,1/2+z
1/2+x,1/2-y,-z
1/2-x,1/2+y,-z
1/2+y,1/2+x,1/2-z
1/2-y,1/2-x,1/2-z
-x,-y,-z
y,-x,1/2-z
x,y,-z
-y,x,1/2-z
1/2-x,1/2+y,z
1/2+x,1/2-y,z
1/2-y,1/2-x,1/2+z
1/2+y,1/2+x,1/2+z
loop_
_atom_site_type_symbol
_atom_site_label
_atom_site_fract_x
_atom_site_fract_y
_atom_site_fract_z
Si Si1 0.001939 0.336567 0.600513
Si Si2 0.422477 0.393043 0.898513
Si Si3 0.094553 0.234142 0.257350
Si Si4 0.453088 0.184979 0.895012
Si Si5 0.862125 0.154143 0.401074
O O1 0.033429 0.359590 0.500000
O O2 0.091086 0.314210 0.664666
O O3 0.919569 0.411883 0.627691
O O4 0.941145 0.237295 0.597777
O O5 0.365289 0.430478 0.811461
O O6 0.387044 0.280852 0.900207
O O7 0.459575 0.604326 0.892418
O O8 0.399800 0.430311 0.000000
O O9 0.018288 0.279599 0.187240
O O10 0.175136 0.200666 0.187215
O O11 0.487427 0.178925 0.000000
O O12 0.814663 0.158529 0.500000
#
# Coordination Sequence:
#
# PCOD9568735 Si02
#       5
#    16  16  16  16  16
#     4  10  20  33  50  71  97 136 186 227 260 307
#     4   9  18  31  46  68 100 131 162 208 263 317
#     4  11  18  28  46  69  98 134 170 207 257 311
#     4   9  19  35  51  69  99 138 179 225 267 306
#     4   9  18  31  46  67  97 134 174 213 254 303
#
# _framework density 27.996517000000001
#
# number of rings (size 3 to 8) (size 9 to 14) (size 15 to 20)
#    0.000    2.400    0.000    5.400    0.000    0.800 
#    0.000    7.000    0.000    0.000    0.000    1.400 
#    0.000   27.200    0.000  141.400    0.000    0.000 
#
# Total GULP energy -446099.282586 kJ/mol
# GULP energy per Si atom -5576.241032 kJ/mol
# Density = 2.793280 g / cm^3
# Si number density = 27.996517 Si / 1000 Ang^3
#
#
#
# Elastic Constant Matrix: (Units=GPa)
#
#
# Indices 1 2 3 4 5 6 
#
# 1 83.0088 62.2597 52.2666 0.0000 0.0000 0.0000
# 2 62.2597 83.0088 52.2666 0.0000 0.0000 0.0000
# 3 52.2666 52.2666 215.0707 0.0000 0.0000 0.0000
# 4 0.0000 0.0000 0.0000 11.5270 0.0000 0.0000
# 5 0.0000 0.0000 0.0000 0.0000 11.5270 0.0000
# 6 0.0000 0.0000 0.0000 0.0000 0.0000 51.4325
#
#
#
# Elastic Compliance Matrix: (Units=1/GPa)
#
#
# Indices 1 2 3 4 5 6 
#
# 1 0.028269 -0.019926 -0.002027 0.000000 0.000000 0.000000
# 2 -0.019926 0.028269 -0.002027 0.000000 0.000000 0.000000
# 3 -0.002027 -0.002027 0.005635 0.000000 0.000000 0.000000
# 4 0.000000 0.000000 0.000000 0.086753 0.000000 0.000000
# 5 0.000000 0.000000 0.000000 0.000000 0.086753 0.000000
# 6 0.000000 0.000000 0.000000 0.000000 0.000000 0.019443
#
#
# Mechanical properties :
#
#
# Convention : Reuss Voigt Hill
#
# Bulk Modulus (GPa) = 70.36949 79.40826 74.88888
# Shear Modulus (GPa) = 16.24327 29.18367 22.71347
#
# Velocity S-wave (km/s) = 2.41132 3.23213 2.85142
# Velocity P-wave (km/s) = 5.73954 6.50800 6.13581
#
# Compressibility (1/GPa) = 0.01421070
#
# Stress axis : x y z
#
# Youngs Moduli (GPa) = 35.37467 35.37467 177.46033
#
# Poissons Ratio (x) = 0.70488 0.35979
# Poissons Ratio (y) = 0.70488 0.35979
# Poissons Ratio (z) = 0.07172 0.07172
#
# Static dielectric constant tensor:
#      x y z
#    x 2.365550 0.000000 0.000000 
#    y 0.000000 2.365550 0.000000 
#    z 0.000000 0.000000 2.153930 
# 
# From -- ./inp_files/3367.got.cif
#   From: 2010.05.17/outbox.cif.g08.bks.cpg/sg135_2_cif.got.tgz:3367.got - 2010.05.20 12:50:20.
