data_PCOD9568606
_publ_section_title
;
Structure prediction by ZEFSAII (Michael W. Deem and Ramdas Pophale) SiO2 
 PCOD9568606
Probable space group: P 42/M B C
;
_chemical_formula_sum "Si O2"
_cell_formula_units_Z 96
_cell_length_a 25.860501
_cell_length_b 25.860501
_cell_length_c 8.949922
_cell_angle_alpha 90.000000
_cell_angle_beta 90.000000
_cell_angle_gamma 90.000000
_cell_volume 5985.399168
_symmetry_space_group_name_H-M "P 42/M B C"
_symmetry_group_IT_number 135
_symmetry_cell_setting 'tetragonal'
loop_
_space_group_symop_operation_xyz
x,y,z
-y,x,1/2+z
-x,-y,z
y,-x,1/2+z
1/2+x,1/2-y,-z
1/2-x,1/2+y,-z
1/2+y,1/2+x,1/2-z
1/2-y,1/2-x,1/2-z
-x,-y,-z
y,-x,1/2-z
x,y,-z
-y,x,1/2-z
1/2-x,1/2+y,z
1/2+x,1/2-y,z
1/2-y,1/2-x,1/2+z
1/2+y,1/2+x,1/2+z
loop_
_atom_site_type_symbol
_atom_site_label
_atom_site_fract_x
_atom_site_fract_y
_atom_site_fract_z
Si Si1 0.635248 0.439277 0.323212
Si Si2 0.249418 0.939070 0.822987
Si Si3 0.448955 0.250260 0.177898
Si Si4 0.142933 0.436538 0.320334
Si Si5 0.636505 0.942086 0.677459
Si Si6 0.142577 0.938593 0.677650
O O1 0.624176 0.433870 0.500000
O O2 0.694886 0.421703 0.297847
O O3 0.633461 0.500542 0.286723
O O4 0.595424 0.405475 0.230585
O O5 0.301418 0.919048 0.743840
O O6 0.194890 0.919504 0.758488
O O7 0.248741 0.999552 0.776768
O O8 0.252281 0.932358 0.000000
O O9 0.422816 0.195225 0.209544
O O10 0.464028 0.249400 0.000000
O O11 0.098381 0.401620 0.250000
O O12 0.143168 0.433166 0.500000
O O13 0.134681 0.497190 0.279085
O O14 0.593197 0.906804 0.750000
O O15 0.629383 0.940325 0.500000
O O16 0.149967 0.935515 0.500000
#
# Coordination Sequence:
#
# PCOD9568606 Si02
#       6
#    16  16  16  16  16  16
#     4   9  18  32  49  69  95 127 162 199 241 289
#     4  10  18  30  50  72  93 123 163 200 236 284
#     4   8  16  32  49  67  94 127 161 200 241 281
#     4  10  20  34  50  71  99 129 161 198 241 286
#     4   9  18  31  48  70  98 129 160 196 238 284
#     4  10  20  33  49  71 100 129 159 199 242 286
#
# _framework density 16.03903
#
# number of rings (size 3 to 8) (size 9 to 14) (size 15 to 20)
#    0.000    2.667    0.000    4.500    0.000    7.333 
#    0.000    3.333    0.000    1.000    0.000    4.667 
#    0.000    0.000    0.000    0.000    0.000    0.000 
#
# Total GULP energy -534569.757488 kJ/mol
# GULP energy per Si atom -5568.434974 kJ/mol
# Density = 1.600252 g / cm^3
# Si number density = 16.039030 Si / 1000 Ang^3
#
#
#
# Elastic Constant Matrix: (Units=GPa)
#
#
# Indices 1 2 3 4 5 6 
#
# 1 88.9918 60.8198 44.5778 0.0000 0.0000 0.0000
# 2 60.8198 88.9866 44.5768 0.0000 0.0000 0.0000
# 3 44.5778 44.5768 59.9163 0.0000 0.0000 0.0000
# 4 0.0000 0.0000 0.0000 27.6129 0.0000 0.0000
# 5 0.0000 0.0000 0.0000 0.0000 27.6126 0.0000
# 6 0.0000 0.0000 0.0000 0.0000 0.0000 -3.2530
#
#
#
# Elastic Compliance Matrix: (Units=1/GPa)
#
#
# Indices 1 2 3 4 5 6 
#
# 1 0.023739 -0.011760 -0.008912 0.000000 0.000000 0.000000
# 2 -0.011760 0.023740 -0.008913 0.000000 0.000000 0.000000
# 3 -0.008912 -0.008913 0.029951 0.000000 0.000000 0.000000
# 4 0.000000 0.000000 0.000000 0.036215 0.000000 0.000000
# 5 0.000000 0.000000 0.000000 0.000000 0.036215 0.000000
# 6 0.000000 0.000000 0.000000 0.000000 0.000000 -0.307413
#
#
# Mechanical properties :
#
#
# Convention : Reuss Voigt Hill
#
# Bulk Modulus (GPa) = 54.76403 59.76039 57.26221
# Shear Modulus (GPa) = -54.17329 16.25587 -18.95871
#
# Velocity S-wave (km/s) = -5.81801 3.18704 -3.44180
# Velocity P-wave (km/s) = 3.30363 7.13324 4.47041
#
# Compressibility (1/GPa) = 0.01826016
#
# Stress axis : x y z
#
# Youngs Moduli (GPa) = 42.12563 42.12289 33.38743
#
# Poissons Ratio (x) = 0.49537 0.29755
# Poissons Ratio (y) = 0.49541 0.29757
# Poissons Ratio (z) = 0.37543 0.37543
#
# Static dielectric constant tensor:
#      x y z
#    x 1.542660 0.000000 0.000000 
#    y 0.000000 1.542660 0.000000 
#    z 0.000000 0.000000 1.532980 
# 
# From -- ./inp_files/1208.got.cif
#   From: 2010.05.17/outbox.cif.g08.bks.cpg/sg135_1_cif.got.tgz:1208.got - 2010.05.20 12:50:20.
