data_PCOD9568954
_publ_section_title
;
Structure prediction by ZEFSAII (Michael W. Deem and Ramdas Pophale) SiO2 
 PCOD9568954
Probable space group: P 42/M B C
;
_chemical_formula_sum "Si O2"
_cell_formula_units_Z 60
_cell_length_a 16.964018
_cell_length_b 16.964018
_cell_length_c 8.755924
_cell_angle_alpha 90.000000
_cell_angle_beta 90.000000
_cell_angle_gamma 90.000000
_cell_volume 2519.761480
_symmetry_space_group_name_H-M "P 42/M B C"
_symmetry_group_IT_number 135
_symmetry_cell_setting 'tetragonal'
loop_
_space_group_symop_operation_xyz
x,y,z
-y,x,1/2+z
-x,-y,z
y,-x,1/2+z
1/2+x,1/2-y,-z
1/2-x,1/2+y,-z
1/2+y,1/2+x,1/2-z
1/2-y,1/2-x,1/2-z
-x,-y,-z
y,-x,1/2-z
x,y,-z
-y,x,1/2-z
1/2-x,1/2+y,z
1/2+x,1/2-y,z
1/2-y,1/2-x,1/2+z
1/2+y,1/2+x,1/2+z
loop_
_atom_site_type_symbol
_atom_site_label
_atom_site_fract_x
_atom_site_fract_y
_atom_site_fract_z
Si Si1 0.565337 0.333013 0.500000
Si Si2 0.723793 0.097040 0.500000
Si Si3 0.352724 0.147277 0.250000
Si Si4 0.500000 0.500000 0.250000
Si Si5 0.471483 0.805929 0.326741
Si Si6 0.256298 0.716287 0.500000
Si Si7 0.110197 0.983214 0.500000
O O1 0.523994 0.288799 0.357455
O O2 0.651820 0.295275 0.500000
O O3 0.586116 0.424384 0.500000
O O4 0.753434 0.188428 0.500000
O O5 0.683796 0.075694 0.334135
O O6 0.800510 0.040604 0.500000
O O7 0.441586 0.158945 0.306345
O O8 0.331694 0.215904 0.133828
O O9 0.562585 0.546595 0.353019
O O10 0.444268 0.834359 0.500000
#
# Coordination Sequence:
#
# PCOD9568954 Si02
#       7
#     8   8   8   4  16   8   8
#     4  10  22  43  67 102 144 175 241 297 367 428
#     4  12  25  41  66  94 144 184 230 287 375 417
#     4  12  22  44  72  99 138 183 258 294 360 428
#     4  10  24  34  56  90 128 170 236 270 340 426
#     4  10  24  43  67 103 133 180 232 308 348 433
#     4  12  25  40  71 108 136 194 240 312 362 440
#     4  11  22  40  62  91 134 189 219 283 350 435
#
# _framework density 23.811778
#
# number of rings (size 3 to 8) (size 9 to 14) (size 15 to 20)
#    0.800    0.267    1.333    5.600    0.000    6.400 
#    0.000    0.000    0.000    4.800    0.000    0.000 
#    0.000    0.000    0.000    0.000    0.000    0.000 
#
# Total GULP energy -334128.800169 kJ/mol
# GULP energy per Si atom -5568.813336 kJ/mol
# Density = 2.375758 g / cm^3
# Si number density = 23.811778 Si / 1000 Ang^3
#
#
#
# Elastic Constant Matrix: (Units=GPa)
#
#
# Indices 1 2 3 4 5 6 
#
# 1 23.1572 91.9560 35.8333 0.0000 0.0000 0.0000
# 2 91.9560 23.1586 35.8370 0.0000 0.0000 0.0000
# 3 35.8333 35.8370 167.0995 0.0000 0.0000 0.0000
# 4 0.0000 0.0000 0.0000 52.4741 0.0000 0.0000
# 5 0.0000 0.0000 0.0000 0.0000 52.4724 0.0000
# 6 0.0000 0.0000 0.0000 0.0000 0.0000 38.4568
#
#
#
# Elastic Compliance Matrix: (Units=1/GPa)
#
#
# Indices 1 2 3 4 5 6 
#
# 1 -0.002255 0.012280 -0.002150 0.000000 0.000000 0.000000
# 2 0.012280 -0.002255 -0.002150 0.000000 0.000000 0.000000
# 3 -0.002150 -0.002150 0.006907 0.000000 0.000000 0.000000
# 4 0.000000 0.000000 0.000000 0.019057 0.000000 0.000000
# 5 0.000000 0.000000 0.000000 0.000000 0.019058 0.000000
# 6 0.000000 0.000000 0.000000 0.000000 0.000000 0.026003
#
#
# Mechanical properties :
#
#
# Convention : Reuss Voigt Hill
#
# Bulk Modulus (GPa) = 54.47275 60.07419 57.27347
# Shear Modulus (GPa) = 88.22490 31.99994 60.11242
#
# Velocity S-wave (km/s) = 6.09355 3.66986 5.02987
# Velocity P-wave (km/s) = 8.51085 6.57577 7.60511
#
# Compressibility (1/GPa) = 0.01835780
#
# Stress axis : x y z
#
# Youngs Moduli (GPa) = -443.50078 -443.49533 144.78847
#
# Poissons Ratio (x) = 5.44633 0.31133
# Poissons Ratio (y) = 5.44640 0.31128
# Poissons Ratio (z) = -0.95362 -0.95346
#
# Static dielectric constant tensor:
#      x y z
#    x 1.902070 0.000000 0.000000 
#    y 0.000000 1.902070 0.000000 
#    z 0.000000 0.000000 2.007360 
# 
# From -- ./inp_files/823.got.cif
#   From: 2010.05.17/outbox.cif.g08.bks.cpg/sg135_1_cif.got.tgz:823.got - 2010.05.20 12:50:20.
