data_PCOD9568951
_publ_section_title
;
Structure prediction by ZEFSAII (Michael W. Deem and Ramdas Pophale) SiO2 
 PCOD9568951
Probable space group: P 42/M B C
;
_chemical_formula_sum "Si O2"
_cell_formula_units_Z 112
_cell_length_a 14.277899
_cell_length_b 14.277899
_cell_length_c 26.371610
_cell_angle_alpha 90.000000
_cell_angle_beta 90.000000
_cell_angle_gamma 90.000000
_cell_volume 5376.074216
_symmetry_space_group_name_H-M "P 42/M B C"
_symmetry_group_IT_number 135
_symmetry_cell_setting 'tetragonal'
loop_
_space_group_symop_operation_xyz
x,y,z
-y,x,1/2+z
-x,-y,z
y,-x,1/2+z
1/2+x,1/2-y,-z
1/2-x,1/2+y,-z
1/2+y,1/2+x,1/2-z
1/2-y,1/2-x,1/2-z
-x,-y,-z
y,-x,1/2-z
x,y,-z
-y,x,1/2-z
1/2-x,1/2+y,z
1/2+x,1/2-y,z
1/2-y,1/2-x,1/2+z
1/2+y,1/2+x,1/2+z
loop_
_atom_site_type_symbol
_atom_site_label
_atom_site_fract_x
_atom_site_fract_y
_atom_site_fract_z
Si Si1 0.555719 0.645102 0.260486
Si Si2 0.293576 0.680000 0.395153
Si Si3 0.545746 0.796655 0.176211
Si Si4 0.173032 0.333196 0.808401
Si Si5 0.979593 0.898782 0.558683
Si Si6 0.110947 0.733270 0.555716
Si Si7 0.049104 0.695669 0.666015
O O1 0.614414 0.552656 0.247120
O O2 0.573470 0.723175 0.218978
O O3 0.575740 0.699919 0.313112
O O4 0.249145 0.582614 0.375788
O O5 0.292024 0.753250 0.348516
O O6 0.397986 0.658661 0.413507
O O7 0.221461 0.720560 0.436163
O O8 0.434735 0.810385 0.178399
O O9 0.609709 0.887738 0.185149
O O10 0.193108 0.306893 0.750000
O O11 0.182280 0.444845 0.814167
O O12 0.948811 0.911885 0.500000
O O13 0.074631 0.839531 0.557645
O O14 0.000000 0.000000 0.582112
O O15 0.083555 0.696189 0.500000
O O16 0.060949 0.690299 0.605249
#
# Coordination Sequence:
#
# PCOD9568951 Si02
#       7
#    16  16  16  16  16  16  16
#     4  11  25  41  62  99 137 178 222 279 343 417
#     4  11  25  43  69  98 134 185 221 285 346 412
#     4  11  26  39  66  96 133 173 229 273 336 416
#     4  12  25  44  65  98 136 180 228 276 340 421
#     4  10  22  42  71 104 136 172 227 289 347 409
#     4  10  23  43  68  97 131 176 227 282 344 407
#     4  11  23  44  68  92 132 181 222 284 343 402
#
# _framework density 20.833044999999998
#
# number of rings (size 3 to 8) (size 9 to 14) (size 15 to 20)
#    0.000    1.143    2.857    2.143    6.000    0.571 
#    0.000    0.000    0.000    8.571    0.000    0.000 
#    0.000    0.000    0.000    0.000    0.000    0.000 
#
# Total GULP energy -625585.248621 kJ/mol
# GULP energy per Si atom -5585.582577 kJ/mol
# Density = 2.078563 g / cm^3
# Si number density = 20.833045 Si / 1000 Ang^3
#
#
#
# Elastic Constant Matrix: (Units=GPa)
#
#
# Indices 1 2 3 4 5 6 
#
# 1 93.1908 34.9410 34.6534 0.0000 0.0000 0.0000
# 2 34.9410 93.1907 34.6536 0.0000 0.0000 0.0000
# 3 34.6534 34.6536 114.1980 0.0000 0.0000 0.0000
# 4 0.0000 0.0000 0.0000 26.3426 0.0000 0.0000
# 5 0.0000 0.0000 0.0000 0.0000 26.3426 0.0000
# 6 0.0000 0.0000 0.0000 0.0000 0.0000 29.3397
#
#
#
# Elastic Compliance Matrix: (Units=1/GPa)
#
#
# Indices 1 2 3 4 5 6 
#
# 1 0.013252 -0.003915 -0.002833 0.000000 0.000000 0.000000
# 2 -0.003915 0.013252 -0.002833 0.000000 0.000000 0.000000
# 3 -0.002833 -0.002833 0.010476 0.000000 0.000000 0.000000
# 4 0.000000 0.000000 0.000000 0.037961 0.000000 0.000000
# 5 0.000000 0.000000 0.000000 0.000000 0.037961 0.000000
# 6 0.000000 0.000000 0.000000 0.000000 0.000000 0.034084
#
#
# Mechanical properties :
#
#
# Convention : Reuss Voigt Hill
#
# Bulk Modulus (GPa) = 56.12613 56.56393 56.34503
# Shear Modulus (GPa) = 29.05462 29.49375 29.27418
#
# Velocity S-wave (km/s) = 3.73854 3.76669 3.75264
# Velocity P-wave (km/s) = 6.75537 6.79170 6.77356
#
# Compressibility (1/GPa) = 0.01781701
#
# Stress axis : x y z
#
# Youngs Moduli (GPa) = 75.45898 75.45880 95.45377
#
# Poissons Ratio (x) = 0.29544 0.27045
# Poissons Ratio (y) = 0.29544 0.27045
# Poissons Ratio (z) = 0.21380 0.21380
#
# Static dielectric constant tensor:
#      x y z
#    x 1.759960 0.000000 0.000000 
#    y 0.000000 1.759960 0.000000 
#    z 0.000000 0.000000 1.809900 
# 
# From -- ./inp_files/6101.got.cif
#   From: 2010.05.17/outbox.cif.g08.bks.cpg/sg135_4_cif.got.tgz:6101.got - 2010.05.20 12:50:20.
