data_PCOD9568045
_publ_section_title
;
Structure prediction by ZEFSAII (Michael W. Deem and Ramdas Pophale) SiO2 
 PCOD9568045
Probable space group: P 42/N B C
;
_chemical_formula_sum "Si O2"
_cell_formula_units_Z 48
_cell_length_a 21.032582
_cell_length_b 21.032582
_cell_length_c 4.917319
_cell_angle_alpha 90.000000
_cell_angle_beta 90.000000
_cell_angle_gamma 90.000000
_cell_volume 2175.271975
_symmetry_space_group_name_H-M "P 42/N B C"
_symmetry_group_IT_number 133
_space_group.IT_coordinate_system_code '2'
_symmetry_cell_setting 'tetragonal'
loop_
_space_group_symop_operation_xyz
x,y,z
1/2-y,x,1/2+z
1/2-x,1/2-y,z
y,1/2-x,1/2+z
x,1/2-y,-z
1/2-x,y,-z
y,x,1/2-z
1/2-y,1/2-x,1/2-z
-x,-y,-z
1/2+y,-x,1/2-z
1/2+x,1/2+y,-z
-y,1/2+x,1/2-z
-x,1/2+y,z
1/2+x,-y,z
-y,-x,1/2+z
1/2+y,1/2+x,1/2+z
loop_
_atom_site_type_symbol
_atom_site_label
_atom_site_fract_x
_atom_site_fract_y
_atom_site_fract_z
Si Si1 0.874321 0.874321 0.250000
Si Si2 0.439222 0.060779 0.750000
Si Si3 0.582513 0.750000 0.000000
Si Si4 0.073778 0.626248 0.231860
Si Si5 0.514028 0.250000 0.500000
O O1 0.922951 0.894812 0.490033
O O2 0.810819 0.875160 0.432585
O O3 0.512501 0.079252 0.794210
O O4 0.534377 0.758734 0.749359
O O5 0.128632 0.596582 0.422242
O O6 0.053940 0.690700 0.383703
#
# Coordination Sequence:
#
# PCOD9568045 Si02
#       5
#     8   8   8  16   8
#     4  12  22  39  68  97 135 182 233 278 328 406
#     4  12  22  41  64 103 137 172 215 291 354 415
#     4  12  22  42  66  97 132 185 236 274 334 400
#     4  12  24  41  66 101 137 174 221 284 353 425
#     4  12  24  44  68  92 138 180 224 280 348 428
#
# _framework density 22.066205
#
# number of rings (size 3 to 8) (size 9 to 14) (size 15 to 20)
#    0.000    0.000    6.667    5.000    0.000    0.000 
#    0.000    0.000    0.000   21.000    0.000    0.000 
#    0.000    0.000    0.000    0.000    0.000    0.000 
#
# Total GULP energy -267256.660636 kJ/mol
# GULP energy per Si atom -5567.847097 kJ/mol
# Density = 2.201598 g / cm^3
# Si number density = 22.066205 Si / 1000 Ang^3
#
#
#
# Elastic Constant Matrix: (Units=GPa)
#
#
# Indices 1 2 3 4 5 6 
#
# 1 -9.2775 66.9539 -0.5949 0.0000 0.0000 0.0000
# 2 66.9539 -9.2663 -0.5881 0.0000 0.0000 0.0000
# 3 -0.5949 -0.5881 96.7731 0.0000 0.0000 0.0000
# 4 0.0000 0.0000 0.0000 17.1778 0.0000 0.0000
# 5 0.0000 0.0000 0.0000 0.0000 17.1775 0.0000
# 6 0.0000 0.0000 0.0000 0.0000 0.0000 14.0408
#
#
#
# Elastic Compliance Matrix: (Units=1/GPa)
#
#
# Indices 1 2 3 4 5 6 
#
# 1 0.002109 0.015229 0.000106 0.000000 0.000000 0.000000
# 2 0.015229 0.002111 0.000106 0.000000 0.000000 0.000000
# 3 0.000106 0.000106 0.010335 0.000000 0.000000 0.000000
# 4 0.000000 0.000000 0.000000 0.058215 0.000000 0.000000
# 5 0.000000 0.000000 0.000000 0.000000 0.058216 0.000000
# 6 0.000000 0.000000 0.000000 0.000000 0.000000 0.071221
#
#
# Mechanical properties :
#
#
# Convention : Reuss Voigt Hill
#
# Bulk Modulus (GPa) = 22.00905 23.30790 22.65847
# Shear Modulus (GPa) = 26.81404 10.50979 18.66192
#
# Velocity S-wave (km/s) = 3.48970 2.18476 2.91129
# Velocity P-wave (km/s) = 5.12183 4.11702 4.64666
#
# Compressibility (1/GPa) = 0.04543586
#
# Stress axis : x y z
#
# Youngs Moduli (GPa) = 474.25498 473.68300 96.76096
#
# Poissons Ratio (x) = -7.21360 -0.01021
# Poissons Ratio (y) = -7.22232 -0.01030
# Poissons Ratio (z) = -0.05004 -0.05042
#
# Static dielectric constant tensor:
#      x y z
#    x 1.911360 0.000000 0.000000 
#    y 0.000000 1.911360 0.000000 
#    z 0.000000 0.000000 1.478790 
# 
# From -- ./inp_files/244.got.cif
#   From: 2010.05.17/outbox.cif.g08.bks.cpg/sg133_1_cif.got.tgz:244.got - 2010.05.20 12:37:36.
