data_PCOD9568926
_publ_section_title
;
Structure prediction by ZEFSAII (Michael W. Deem and Ramdas Pophale) SiO2 
 PCOD9568926
Probable space group: P 42/M B C
;
_chemical_formula_sum "Si O2"
_cell_formula_units_Z 96
_cell_length_a 22.520739
_cell_length_b 22.520739
_cell_length_c 9.429440
_cell_angle_alpha 90.000000
_cell_angle_beta 90.000000
_cell_angle_gamma 90.000000
_cell_volume 4782.458128
_symmetry_space_group_name_H-M "P 42/M B C"
_symmetry_group_IT_number 135
_symmetry_cell_setting 'tetragonal'
loop_
_space_group_symop_operation_xyz
x,y,z
-y,x,1/2+z
-x,-y,z
y,-x,1/2+z
1/2+x,1/2-y,-z
1/2-x,1/2+y,-z
1/2+y,1/2+x,1/2-z
1/2-y,1/2-x,1/2-z
-x,-y,-z
y,-x,1/2-z
x,y,-z
-y,x,1/2-z
1/2-x,1/2+y,z
1/2+x,1/2-y,z
1/2-y,1/2-x,1/2+z
1/2+y,1/2+x,1/2+z
loop_
_atom_site_type_symbol
_atom_site_label
_atom_site_fract_x
_atom_site_fract_y
_atom_site_fract_z
Si Si1 0.252383 0.169479 0.831251
Si Si2 0.571843 0.561961 0.500000
Si Si3 0.564856 0.421351 0.500000
Si Si4 0.391943 0.977089 0.833678
Si Si5 0.955453 0.739015 0.335327
Si Si6 0.691281 0.940500 0.329174
Si Si7 0.351476 0.383456 0.256133
O O1 0.270278 0.229723 0.750000
O O2 0.289772 0.119460 0.747885
O O3 0.183863 0.154508 0.805667
O O4 0.265221 0.170900 0.000000
O O5 0.563928 0.491813 0.500000
O O6 0.506437 0.593298 0.500000
O O7 0.613550 0.579835 0.372226
O O8 0.602316 0.394075 0.626447
O O9 0.443525 0.943525 0.750000
O O10 0.330817 0.937639 0.833025
O O11 0.368697 0.033468 0.743206
O O12 0.405398 0.989633 0.000000
O O13 0.972954 0.751289 0.500000
O O14 0.908235 0.786628 0.284561
O O15 0.010944 0.739430 0.226991
O O16 0.688149 0.936788 0.500000
#
# Coordination Sequence:
#
# PCOD9568926 Si02
#       7
#    16   8   8  16  16  16  16
#     4  12  28  47  67  97 133 173 227 284 344 410
#     4  11  26  44  61 104 136 180 229 296 338 407
#     4  11  26  42  67  96 142 178 231 284 352 401
#     4   9  18  34  59  94 134 169 215 272 328 391
#     4   9  21  37  58  93 128 169 222 268 326 389
#     4  10  22  39  68  95 127 173 220 268 334 402
#     4  12  25  41  70  92 130 182 225 283 340 407
#
# _framework density 20.073359
#
# number of rings (size 3 to 8) (size 9 to 14) (size 15 to 20)
#    1.000    0.500    1.667    3.000    8.167    2.000 
#    0.000    1.667    0.000    0.500    0.000    3.500 
#    0.000    0.000    0.000    0.000    0.000    0.000 
#
# Total GULP energy -534788.441005 kJ/mol
# GULP energy per Si atom -5570.712927 kJ/mol
# Density = 2.002767 g / cm^3
# Si number density = 20.073359 Si / 1000 Ang^3
#
#
#
# Elastic Constant Matrix: (Units=GPa)
#
#
# Indices 1 2 3 4 5 6 
#
# 1 53.4235 39.7047 33.2712 0.0000 0.0000 0.0000
# 2 39.7047 53.4181 33.2702 0.0000 0.0000 0.0000
# 3 33.2712 33.2702 205.4384 0.0000 0.0000 0.0000
# 4 0.0000 0.0000 0.0000 2.6315 0.0000 0.0000
# 5 0.0000 0.0000 0.0000 0.0000 2.6319 0.0000
# 6 0.0000 0.0000 0.0000 0.0000 0.0000 4.2123
#
#
#
# Elastic Compliance Matrix: (Units=1/GPa)
#
#
# Indices 1 2 3 4 5 6 
#
# 1 0.042523 -0.030382 -0.001966 0.000000 0.000000 0.000000
# 2 -0.030382 0.042527 -0.001967 0.000000 0.000000 0.000000
# 3 -0.001966 -0.001967 0.005505 0.000000 0.000000 0.000000
# 4 0.000000 0.000000 0.000000 0.380019 0.000000 0.000000
# 5 0.000000 0.000000 0.000000 0.000000 0.379956 0.000000
# 6 0.000000 0.000000 0.000000 0.000000 0.000000 0.237400
#
#
# Mechanical properties :
#
#
# Convention : Reuss Voigt Hill
#
# Bulk Modulus (GPa) = 45.61007 58.30801 51.95904
# Shear Modulus (GPa) = 4.29602 15.63072 9.96337
#
# Velocity S-wave (km/s) = 1.46452 2.79351 2.23030
# Velocity P-wave (km/s) = 5.06268 6.28613 5.70729
#
# Compressibility (1/GPa) = 0.02192498
#
# Stress axis : x y z
#
# Youngs Moduli (GPa) = 23.51672 23.51425 181.66534
#
# Poissons Ratio (x) = 0.71440 0.35723
# Poissons Ratio (y) = 0.71448 0.35730
# Poissons Ratio (z) = 0.04624 0.04625
#
# Static dielectric constant tensor:
#      x y z
#    x 1.715650 0.000000 0.000000 
#    y 0.000000 1.715640 0.000000 
#    z 0.000000 0.000000 1.625960 
# 
# From -- ./inp_files/1304.got.cif
#   From: 2010.05.17/outbox.cif.g08.bks.cpg/sg135_1_cif.got.tgz:1304.got - 2010.05.20 12:50:20.
