data_PCOD9568844
_publ_section_title
;
Structure prediction by ZEFSAII (Michael W. Deem and Ramdas Pophale) SiO2 
 PCOD9568844
Probable space group: P 42/M B C
;
_chemical_formula_sum "Si O2"
_cell_formula_units_Z 96
_cell_length_a 13.925754
_cell_length_b 13.925754
_cell_length_c 23.745939
_cell_angle_alpha 90.000000
_cell_angle_beta 90.000000
_cell_angle_gamma 90.000000
_cell_volume 4604.969795
_symmetry_space_group_name_H-M "P 42/M B C"
_symmetry_group_IT_number 135
_symmetry_cell_setting 'tetragonal'
loop_
_space_group_symop_operation_xyz
x,y,z
-y,x,1/2+z
-x,-y,z
y,-x,1/2+z
1/2+x,1/2-y,-z
1/2-x,1/2+y,-z
1/2+y,1/2+x,1/2-z
1/2-y,1/2-x,1/2-z
-x,-y,-z
y,-x,1/2-z
x,y,-z
-y,x,1/2-z
1/2-x,1/2+y,z
1/2+x,1/2-y,z
1/2-y,1/2-x,1/2+z
1/2+y,1/2+x,1/2+z
loop_
_atom_site_type_symbol
_atom_site_label
_atom_site_fract_x
_atom_site_fract_y
_atom_site_fract_z
Si Si1 0.340129 0.521606 0.244311
Si Si2 0.105222 0.049084 0.126429
Si Si3 0.765911 0.986504 0.636024
Si Si4 0.716285 0.946984 0.933861
Si Si5 0.400982 0.882087 0.933483
Si Si6 0.774362 0.804164 0.434094
O O1 0.420282 0.603917 0.253634
O O2 0.320650 0.534372 0.178524
O O3 0.266488 0.525320 0.296072
O O4 0.071904 0.158827 0.123425
O O5 0.173636 0.019089 0.075771
O O6 0.000000 0.000000 0.134388
O O7 0.670228 0.020437 0.604589
O O8 0.806462 0.889849 0.606978
O O9 0.631481 0.013910 0.911156
O O10 0.710831 0.836635 0.917176
O O11 0.700027 0.951141 0.000000
O O12 0.298137 0.826647 0.930315
O O13 0.430440 0.882239 0.000000
O O14 0.779636 0.834437 0.500000
#
# Coordination Sequence:
#
# PCOD9568844 Si02
#       6
#    16  16  16  16  16  16
#     4   9  17  33  54  83 113 141 189 250 294 339
#     4  11  19  35  61  86 116 148 197 253 303 348
#     4  11  20  34  60  82 112 158 197 236 301 352
#     4  10  22  38  57  83 125 161 189 247 307 351
#     4  10  21  37  56  86 121 154 198 244 294 363
#     4  10  21  37  56  87 122 152 197 248 296 361
#
# _framework density 20.847042999999999
#
# number of rings (size 3 to 8) (size 9 to 14) (size 15 to 20)
#    0.000    1.833    5.000    1.500    0.000    1.667 
#    0.000    4.167    0.000    0.000    0.000    2.333 
#    0.000    0.000    0.000    0.000    0.000    0.000 
#
# Total GULP energy -534738.827963 kJ/mol
# GULP energy per Si atom -5570.196125 kJ/mol
# Density = 2.079959 g / cm^3
# Si number density = 20.847043 Si / 1000 Ang^3
#
#
#
# Elastic Constant Matrix: (Units=GPa)
#
#
# Indices 1 2 3 4 5 6 
#
# 1 55.1030 2.7266 25.6333 0.0000 0.0000 0.0000
# 2 2.7266 55.1030 25.6333 0.0000 0.0000 0.0000
# 3 25.6333 25.6333 40.9990 0.0000 0.0000 0.0000
# 4 0.0000 0.0000 0.0000 22.2156 0.0000 0.0000
# 5 0.0000 0.0000 0.0000 0.0000 22.2156 0.0000
# 6 0.0000 0.0000 0.0000 0.0000 0.0000 31.4733
#
#
#
# Elastic Compliance Matrix: (Units=1/GPa)
#
#
# Indices 1 2 3 4 5 6 
#
# 1 0.028944 0.009851 -0.024255 0.000000 0.000000 0.000000
# 2 0.009851 0.028944 -0.024255 0.000000 0.000000 0.000000
# 3 -0.024255 -0.024255 0.054720 0.000000 0.000000 0.000000
# 4 0.000000 0.000000 0.000000 0.045013 0.000000 0.000000
# 5 0.000000 0.000000 0.000000 0.000000 0.045013 0.000000
# 6 0.000000 0.000000 0.000000 0.000000 0.000000 0.031773
#
#
# Mechanical properties :
#
#
# Convention : Reuss Voigt Hill
#
# Bulk Modulus (GPa) = 28.33729 28.79902 28.56815
# Shear Modulus (GPa) = 15.45650 21.66170 18.55910
#
# Velocity S-wave (km/s) = 2.72586 3.22697 2.98694
# Velocity P-wave (km/s) = 4.85073 5.26582 5.06253
#
# Compressibility (1/GPa) = 0.03528919
#
# Stress axis : x y z
#
# Youngs Moduli (GPa) = 34.54995 34.54995 18.27478
#
# Poissons Ratio (x) = -0.34035 0.44326
# Poissons Ratio (y) = -0.34035 0.44326
# Poissons Ratio (z) = 0.83801 0.83801
#
# Static dielectric constant tensor:
#      x y z
#    x 1.803710 0.000000 0.000000 
#    y 0.000000 1.803710 0.000000 
#    z 0.000000 0.000000 1.805810 
# 
# From -- ./inp_files/5479.got.cif
#   From: 2010.05.17/outbox.cif.g08.bks.cpg/sg135_3_cif.got.tgz:5479.got - 2010.05.20 12:50:20.
