data_PCOD9568236
_publ_section_title
;
Structure prediction by ZEFSAII (Michael W. Deem and Ramdas Pophale) SiO2 
 PCOD9568236
Probable space group: P 42/N N M
;
_chemical_formula_sum "Si O2"
_cell_formula_units_Z 112
_cell_length_a 14.674626
_cell_length_b 14.674626
_cell_length_c 27.820406
_cell_angle_alpha 90.000000
_cell_angle_beta 90.000000
_cell_angle_gamma 90.000000
_cell_volume 5990.975544
_symmetry_space_group_name_H-M "P 42/N N M"
_symmetry_group_IT_number 134
_space_group.IT_coordinate_system_code '2'
_symmetry_cell_setting 'tetragonal'
loop_
_space_group_symop_operation_xyz
x,y,z
1/2-y,x,1/2+z
1/2-x,1/2-y,z
y,1/2-x,1/2+z
x,1/2-y,1/2-z
1/2-x,y,1/2-z
y,x,-z
1/2-y,1/2-x,-z
-x,-y,-z
1/2+y,-x,1/2-z
1/2+x,1/2+y,-z
-y,1/2+x,1/2-z
-x,1/2+y,1/2+z
1/2+x,-y,1/2+z
-y,-x,z
1/2+y,1/2+x,z
loop_
_atom_site_type_symbol
_atom_site_label
_atom_site_fract_x
_atom_site_fract_y
_atom_site_fract_z
Si Si1 0.499710 0.348298 0.987784
Si Si2 0.642738 0.991923 0.026256
Si Si3 0.902647 0.942548 0.268466
Si Si4 0.363715 0.482079 0.835246
Si Si5 0.344685 0.502473 0.126331
Si Si6 0.047309 0.696090 0.205069
Si Si7 0.669390 0.020936 0.134366
O O1 0.587136 0.412865 0.000186
O O2 0.502804 0.329305 0.930595
O O3 0.411115 0.411115 0.000000
O O4 0.499581 0.249205 0.012520
O O5 0.583657 0.083657 0.014761
O O6 0.637830 0.980008 0.083814
O O7 0.590886 0.909115 0.000000
O O8 0.844567 0.954969 0.220226
O O9 0.956818 0.848772 0.272130
O O10 0.857778 0.961574 0.319545
O O11 0.980688 0.019313 0.263671
O O12 0.440648 0.559353 0.835758
O O13 0.408002 0.393714 0.859789
O O14 0.277703 0.522240 0.862772
O O15 0.417792 0.582208 0.137243
O O16 0.259001 0.522141 0.160153
O O17 0.089923 0.750000 0.250000
O O18 0.115696 0.615696 0.189852
O O19 0.617971 0.117971 0.139260
#
# Coordination Sequence:
#
# PCOD9568236 Si02
#       7
#    16  16  16  16  16  16  16
#     4  10  22  41  64  89 120 159 203 253 304 356
#     4  10  23  41  61  87 120 157 201 253 306 358
#     4   9  19  35  56  81 114 154 188 227 287 350
#     4  10  19  36  59  84 119 152 184 234 292 352
#     4  10  21  36  57  87 118 153 195 237 293 350
#     4  11  21  35  57  84 118 157 196 238 286 350
#     4  10  21  37  59  86 111 148 197 239 290 351
#
# _framework density 18.694785
#
# number of rings (size 3 to 8) (size 9 to 14) (size 15 to 20)
#    0.000    2.000    1.429    1.714    2.000    4.143 
#    0.000    3.571    0.000    2.571    0.000    0.000 
#    0.000    0.000    0.000    0.000    0.000    0.000 
#
# Total GULP energy -624427.722899 kJ/mol
# GULP energy per Si atom -5575.247526 kJ/mol
# Density = 1.865223 g / cm^3
# Si number density = 18.694785 Si / 1000 Ang^3
#
#
#
# Elastic Constant Matrix: (Units=GPa)
#
#
# Indices 1 2 3 4 5 6 
#
# 1 110.3244 14.7477 35.4744 0.0000 0.0000 0.0000
# 2 14.7477 110.3312 35.4753 0.0000 0.0000 0.0000
# 3 35.4744 35.4753 86.1931 0.0000 0.0000 0.0000
# 4 0.0000 0.0000 0.0000 26.9651 0.0000 0.0000
# 5 0.0000 0.0000 0.0000 0.0000 26.9649 0.0000
# 6 0.0000 0.0000 0.0000 0.0000 0.0000 7.4906
#
#
#
# Elastic Compliance Matrix: (Units=1/GPa)
#
#
# Indices 1 2 3 4 5 6 
#
# 1 0.010447 -0.000016 -0.004293 0.000000 0.000000 0.000000
# 2 -0.000016 0.010446 -0.004293 0.000000 0.000000 0.000000
# 3 -0.004293 -0.004293 0.015136 0.000000 0.000000 0.000000
# 4 0.000000 0.000000 0.000000 0.037085 0.000000 0.000000
# 5 0.000000 0.000000 0.000000 0.000000 0.037085 0.000000
# 6 0.000000 0.000000 0.000000 0.000000 0.000000 0.133501
#
#
# Mechanical properties :
#
#
# Convention : Reuss Voigt Hill
#
# Bulk Modulus (GPa) = 53.12158 53.13816 53.12987
# Shear Modulus (GPa) = 18.71410 27.02752 22.87081
#
# Velocity S-wave (km/s) = 3.16734 3.80639 3.50148
# Velocity P-wave (km/s) = 6.46939 6.91404 6.69541
#
# Compressibility (1/GPa) = 0.01882474
#
# Stress axis : x y z
#
# Youngs Moduli (GPa) = 95.72395 95.73013 66.06983
#
# Poissons Ratio (x) = 0.00154 0.28363
# Poissons Ratio (y) = 0.00154 0.28362
# Poissons Ratio (z) = 0.41094 0.41095
#
# Static dielectric constant tensor:
#      x y z
#    x 1.652730 0.000000 0.000000 
#    y 0.000000 1.652730 0.000000 
#    z 0.000000 0.000000 1.652680 
# 
# From -- ./inp_files/10836.got.cif
#   From: 2010.05.17/outbox.cif.g08.bks.cpg/sg134_6_cif.got.tgz:10836.got - 2010.05.20 12:42:49.
