data_PCOD9568981
_publ_section_title
;
Structure prediction by ZEFSAII (Michael W. Deem and Ramdas Pophale) SiO2 
 PCOD9568981
Probable space group: P 42/M B C
;
_chemical_formula_sum "Si O2"
_cell_formula_units_Z 80
_cell_length_a 10.629373
_cell_length_b 10.629373
_cell_length_c 27.902119
_cell_angle_alpha 90.000000
_cell_angle_beta 90.000000
_cell_angle_gamma 90.000000
_cell_volume 3152.481026
_symmetry_space_group_name_H-M "P 42/M B C"
_symmetry_group_IT_number 135
_symmetry_cell_setting 'tetragonal'
loop_
_space_group_symop_operation_xyz
x,y,z
-y,x,1/2+z
-x,-y,z
y,-x,1/2+z
1/2+x,1/2-y,-z
1/2-x,1/2+y,-z
1/2+y,1/2+x,1/2-z
1/2-y,1/2-x,1/2-z
-x,-y,-z
y,-x,1/2-z
x,y,-z
-y,x,1/2-z
1/2-x,1/2+y,z
1/2+x,1/2-y,z
1/2-y,1/2-x,1/2+z
1/2+y,1/2+x,1/2+z
loop_
_atom_site_type_symbol
_atom_site_label
_atom_site_fract_x
_atom_site_fract_y
_atom_site_fract_z
Si Si1 0.707364 0.485806 0.697913
Si Si2 0.889133 0.421892 0.621961
Si Si3 0.128479 0.053682 0.942280
Si Si4 0.290869 0.504842 0.807368
Si Si5 0.708279 0.269767 0.557361
O O1 0.819759 0.505598 0.661709
O O2 0.755351 0.487925 0.752471
O O3 0.604029 0.594130 0.692478
O O4 0.633150 0.354600 0.686481
O O5 0.947066 0.308284 0.653967
O O6 0.783781 0.378847 0.584552
O O7 0.000000 0.500000 0.598088
O O8 0.227261 0.940406 0.932283
O O9 0.157334 0.196783 0.928729
O O10 0.117595 0.057457 0.000000
O O11 0.000000 0.000000 0.921175
O O12 0.717917 0.287286 0.500000
#
# Coordination Sequence:
#
# PCOD9568981 Si02
#       5
#    16  16  16  16  16
#     4   9  21  43  67  94 128 173 211 266 333 402
#     4  12  27  39  63 101 133 169 225 277 330 401
#     4   9  20  42  69  94 126 175 228 285 349 411
#     4   9  21  43  68  92 129 171 215 263 336 402
#     4  10  24  44  66  95 135 181 233 287 348 412
#
# _framework density 25.376836999999998
#
# number of rings (size 3 to 8) (size 9 to 14) (size 15 to 20)
#    0.000    2.200    0.000    1.800    5.600    5.200 
#    0.000    4.000    0.000    0.000    0.000    0.000 
#    0.000    0.000    0.000    0.000    0.000    0.000 
#
# Total GULP energy -447483.672133 kJ/mol
# GULP energy per Si atom -5593.545902 kJ/mol
# Density = 2.531908 g / cm^3
# Si number density = 25.376837 Si / 1000 Ang^3
#
#
#
# Elastic Constant Matrix: (Units=GPa)
#
#
# Indices 1 2 3 4 5 6 
#
# 1 67.7166 24.2912 16.5806 0.0000 0.0000 0.0000
# 2 24.2912 67.7166 16.5806 0.0000 0.0000 0.0000
# 3 16.5806 16.5806 97.6506 0.0000 0.0000 0.0000
# 4 0.0000 0.0000 0.0000 16.6669 0.0000 0.0000
# 5 0.0000 0.0000 0.0000 0.0000 16.6669 0.0000
# 6 0.0000 0.0000 0.0000 0.0000 0.0000 38.4390
#
#
#
# Elastic Compliance Matrix: (Units=1/GPa)
#
#
# Indices 1 2 3 4 5 6 
#
# 1 0.017303 -0.005725 -0.001966 0.000000 0.000000 0.000000
# 2 -0.005725 0.017303 -0.001966 0.000000 0.000000 0.000000
# 3 -0.001966 -0.001966 0.010908 0.000000 0.000000 0.000000
# 4 0.000000 0.000000 0.000000 0.059999 0.000000 0.000000
# 5 0.000000 0.000000 0.000000 0.000000 0.059999 0.000000
# 6 0.000000 0.000000 0.000000 0.000000 0.000000 0.026015
#
#
# Mechanical properties :
#
#
# Convention : Reuss Voigt Hill
#
# Bulk Modulus (GPa) = 38.16876 38.66540 38.41708
# Shear Modulus (GPa) = 22.77139 26.06332 24.41735
#
# Velocity S-wave (km/s) = 2.99880 3.20824 3.10528
# Velocity P-wave (km/s) = 5.20229 5.38454 5.29420
#
# Compressibility (1/GPa) = 0.02619943
#
# Stress axis : x y z
#
# Youngs Moduli (GPa) = 57.79489 57.79489 91.67464
#
# Poissons Ratio (x) = 0.33090 0.18021
# Poissons Ratio (y) = 0.33090 0.18021
# Poissons Ratio (z) = 0.11361 0.11361
#
# Static dielectric constant tensor:
#      x y z
#    x 2.051780 0.000000 0.000000 
#    y 0.000000 2.051780 0.000000 
#    z 0.000000 0.000000 1.955180 
# 
# From -- ./inp_files/6694.got.cif
#   From: 2010.05.17/outbox.cif.g08.bks.cpg/sg135_4_cif.got.tgz:6694.got - 2010.05.20 12:50:20.
