data_PCOD9568500
_publ_section_title
;
Structure prediction by ZEFSAII (Michael W. Deem and Ramdas Pophale) SiO2 
 PCOD9568500
Probable space group: P 42/N N M
;
_chemical_formula_sum "Si O2"
_cell_formula_units_Z 64
_cell_length_a 21.052525
_cell_length_b 21.052525
_cell_length_c 8.613499
_cell_angle_alpha 90.000000
_cell_angle_beta 90.000000
_cell_angle_gamma 90.000000
_cell_volume 3817.578632
_symmetry_space_group_name_H-M "P 42/N N M"
_symmetry_group_IT_number 134
_space_group.IT_coordinate_system_code '2'
_symmetry_cell_setting 'tetragonal'
loop_
_space_group_symop_operation_xyz
x,y,z
1/2-y,x,1/2+z
1/2-x,1/2-y,z
y,1/2-x,1/2+z
x,1/2-y,1/2-z
1/2-x,y,1/2-z
y,x,-z
1/2-y,1/2-x,-z
-x,-y,-z
1/2+y,-x,1/2-z
1/2+x,1/2+y,-z
-y,1/2+x,1/2-z
-x,1/2+y,1/2+z
1/2+x,-y,1/2+z
-y,-x,z
1/2+y,1/2+x,z
loop_
_atom_site_type_symbol
_atom_site_label
_atom_site_fract_x
_atom_site_fract_y
_atom_site_fract_z
Si Si1 0.773318 0.978926 0.906928
Si Si2 0.930732 0.845763 0.612955
Si Si3 0.101352 0.005159 0.912777
Si Si4 0.186320 0.338318 0.325905
O O1 0.750000 0.013742 0.750000
O O2 0.805667 0.914422 0.840304
O O3 0.712878 0.960770 0.016052
O O4 0.831283 0.008228 0.003588
O O5 0.896470 0.896470 0.500000
O O6 0.976140 0.881140 0.735826
O O7 0.873810 0.821137 0.723129
O O8 0.063250 0.063250 0.000000
O O9 0.054198 0.945803 0.919162
O O10 0.250000 0.315467 0.250000
O O11 0.183687 0.316314 0.500000
#
# Coordination Sequence:
#
# PCOD9568500 Si02
#       4
#    16  16  16  16
#     4  11  20  36  57  77 109 147 185 234 278 320
#     4  12  20  34  57  78 109 146 187 234 276 328
#     4  11  22  37  56  78 110 149 190 230 274 328
#     4  11  21  35  49  74 104 147 189 230 271 316
#
# _framework density 16.764552999999999
#
# number of rings (size 3 to 8) (size 9 to 14) (size 15 to 20)
#    0.000    0.750   10.000    0.750    0.000    0.500 
#    0.000   10.000    0.000    0.000    0.000    0.000 
#    0.000   16.500    0.000    0.000    0.000    0.000 
#
# Total GULP energy -357082.592600 kJ/mol
# GULP energy per Si atom -5579.415509 kJ/mol
# Density = 1.672640 g / cm^3
# Si number density = 16.764553 Si / 1000 Ang^3
#
#
#
# Elastic Constant Matrix: (Units=GPa)
#
#
# Indices 1 2 3 4 5 6 
#
# 1 70.4691 49.2565 46.8009 0.0000 0.0000 0.0000
# 2 49.2565 70.4692 46.8009 0.0000 0.0000 0.0000
# 3 46.8009 46.8009 145.8005 0.0000 0.0000 0.0000
# 4 0.0000 0.0000 0.0000 30.5248 0.0000 0.0000
# 5 0.0000 0.0000 0.0000 0.0000 30.5262 0.0000
# 6 0.0000 0.0000 0.0000 0.0000 0.0000 -20.3174
#
#
#
# Elastic Compliance Matrix: (Units=1/GPa)
#
#
# Indices 1 2 3 4 5 6 
#
# 1 0.029146 -0.017995 -0.003579 0.000000 0.000000 0.000000
# 2 -0.017995 0.029146 -0.003579 0.000000 0.000000 0.000000
# 3 -0.003579 -0.003579 0.009157 0.000000 0.000000 0.000000
# 4 0.000000 0.000000 0.000000 0.032760 0.000000 0.000000
# 5 0.000000 0.000000 0.000000 0.000000 0.032759 0.000000
# 6 0.000000 0.000000 0.000000 0.000000 0.000000 -0.049219
#
#
# Mechanical properties :
#
#
# Convention : Reuss Voigt Hill
#
# Bulk Modulus (GPa) = 58.34030 63.60613 60.97322
# Shear Modulus (GPa) = 35.77292 17.73877 26.75585
#
# Velocity S-wave (km/s) = 4.62437 3.25639 3.99930
# Velocity P-wave (km/s) = 7.96168 7.22233 7.60100
#
# Compressibility (1/GPa) = 0.01714081
#
# Stress axis : x y z
#
# Youngs Moduli (GPa) = 34.30980 34.30990 109.21150
#
# Poissons Ratio (x) = 0.61742 0.39090
# Poissons Ratio (y) = 0.61742 0.39090
# Poissons Ratio (z) = 0.12281 0.12280
#
# Static dielectric constant tensor:
#      x y z
#    x 1.578850 0.000000 0.000000 
#    y 0.000000 1.578860 0.000000 
#    z 0.000000 0.000000 1.635970 
# 
# From -- ./inp_files/2710.got.cif
#   From: 2010.05.17/outbox.cif.g08.bks.cpg/sg134_2_cif.got.tgz:2710.got - 2010.05.20 12:42:49.
