data_PCOD9568257
_publ_section_title
;
Structure prediction by ZEFSAII (Michael W. Deem and Ramdas Pophale) SiO2 
 PCOD9568257
Probable space group: P 42/N N M
;
_chemical_formula_sum "Si O2"
_cell_formula_units_Z 80
_cell_length_a 10.668814
_cell_length_b 10.668814
_cell_length_c 34.507619
_cell_angle_alpha 90.000000
_cell_angle_beta 90.000000
_cell_angle_gamma 90.000000
_cell_volume 3927.781152
_symmetry_space_group_name_H-M "P 42/N N M"
_symmetry_group_IT_number 134
_space_group.IT_coordinate_system_code '2'
_symmetry_cell_setting 'tetragonal'
loop_
_space_group_symop_operation_xyz
x,y,z
1/2-y,x,1/2+z
1/2-x,1/2-y,z
y,1/2-x,1/2+z
x,1/2-y,1/2-z
1/2-x,y,1/2-z
y,x,-z
1/2-y,1/2-x,-z
-x,-y,-z
1/2+y,-x,1/2-z
1/2+x,1/2+y,-z
-y,1/2+x,1/2-z
-x,1/2+y,1/2+z
1/2+x,-y,1/2+z
-y,-x,z
1/2+y,1/2+x,z
loop_
_atom_site_type_symbol
_atom_site_label
_atom_site_fract_x
_atom_site_fract_y
_atom_site_fract_z
Si Si1 0.544366 0.247062 0.007461
Si Si2 0.689250 0.987324 0.572921
Si Si3 0.780563 0.016931 0.093265
Si Si4 0.627677 0.837906 0.136699
Si Si5 0.254994 0.542922 0.206013
O O1 0.625480 0.374521 0.012747
O O2 0.638359 0.138359 0.993983
O O3 0.505288 0.215448 0.051025
O O4 0.455015 0.274347 0.971352
O O5 0.583769 0.892358 0.588323
O O6 0.802680 0.967442 0.602049
O O7 0.624352 0.124352 0.573113
O O8 0.686716 0.973401 0.126951
O O9 0.849809 0.150192 0.098549
O O10 0.750000 0.750000 0.134419
O O11 0.556719 0.797597 0.175550
O O12 0.250000 0.492819 0.250000
O O13 0.390623 0.609378 0.197458
O O14 0.156348 0.656348 0.205560
#
# Coordination Sequence:
#
# PCOD9568257 Si02
#       5
#    16  16  16  16  16
#     4   9  17  29  45  65  92 130 175 223 272 314
#     4   9  17  30  47  67  94 131 176 224 269 311
#     4   9  18  32  47  66  99 142 181 215 256 309
#     4  10  20  32  51  78 105 136 177 219 261 315
#     4   9  19  37  60  85 112 138 165 208 272 337
#
# _framework density 20.367733999999999
#
# number of rings (size 3 to 8) (size 9 to 14) (size 15 to 20)
#    0.000    2.800    0.000    1.800    0.000    6.000 
#    0.000    6.000    0.000    0.000    0.000    0.000 
#    0.000    1.600    0.000    0.000    0.000    0.000 
#
# Total GULP energy -445548.234186 kJ/mol
# GULP energy per Si atom -5569.352927 kJ/mol
# Density = 2.032138 g / cm^3
# Si number density = 20.367734 Si / 1000 Ang^3
#
#
#
# Elastic Constant Matrix: (Units=GPa)
#
#
# Indices 1 2 3 4 5 6 
#
# 1 53.6435 41.6546 53.8388 0.0000 0.0000 0.0000
# 2 41.6546 53.6435 53.8388 0.0000 0.0000 0.0000
# 3 53.8388 53.8388 137.7279 0.0000 0.0000 0.0000
# 4 0.0000 0.0000 0.0000 31.9461 0.0000 0.0000
# 5 0.0000 0.0000 0.0000 0.0000 31.9461 0.0000
# 6 0.0000 0.0000 0.0000 0.0000 0.0000 12.3152
#
#
#
# Elastic Compliance Matrix: (Units=1/GPa)
#
#
# Indices 1 2 3 4 5 6 
#
# 1 0.051103 -0.032308 -0.007347 0.000000 0.000000 0.000000
# 2 -0.032308 0.051103 -0.007347 0.000000 0.000000 0.000000
# 3 -0.007347 -0.007347 0.013005 0.000000 0.000000 0.000000
# 4 0.000000 0.000000 0.000000 0.031303 0.000000 0.000000
# 5 0.000000 0.000000 0.000000 0.000000 0.031303 0.000000
# 6 0.000000 0.000000 0.000000 0.000000 0.000000 0.081200
#
#
# Mechanical properties :
#
#
# Convention : Reuss Voigt Hill
#
# Bulk Modulus (GPa) = 47.15596 60.40881 53.78239
# Shear Modulus (GPa) = 13.88545 21.62033 17.75289
#
# Velocity S-wave (km/s) = 2.61384 3.26160 2.95552
# Velocity P-wave (km/s) = 5.68437 6.62627 6.17331
#
# Compressibility (1/GPa) = 0.02120623
#
# Stress axis : x y z
#
# Youngs Moduli (GPa) = 19.56837 19.56837 76.89530
#
# Poissons Ratio (x) = 0.63222 0.56495
# Poissons Ratio (y) = 0.63222 0.56495
# Poissons Ratio (z) = 0.14377 0.14377
#
# Static dielectric constant tensor:
#      x y z
#    x 1.793360 0.000000 0.000000 
#    y 0.000000 1.793360 0.000000 
#    z 0.000000 0.000000 1.755330 
# 
# From -- ./inp_files/11308.got.cif
#   From: 2010.05.17/outbox.cif.g08.bks.cpg/sg134_6_cif.got.tgz:11308.got - 2010.05.20 12:42:49.
