data_PCOD9568622
_publ_section_title
;
Structure prediction by ZEFSAII (Michael W. Deem and Ramdas Pophale) SiO2 
 PCOD9568622
Probable space group: P 42/M B C
;
_chemical_formula_sum "Si O2"
_cell_formula_units_Z 92
_cell_length_a 12.868926
_cell_length_b 12.868926
_cell_length_c 21.352974
_cell_angle_alpha 90.000000
_cell_angle_beta 90.000000
_cell_angle_gamma 90.000000
_cell_volume 3536.250146
_symmetry_space_group_name_H-M "P 42/M B C"
_symmetry_group_IT_number 135
_symmetry_cell_setting 'tetragonal'
loop_
_space_group_symop_operation_xyz
x,y,z
-y,x,1/2+z
-x,-y,z
y,-x,1/2+z
1/2+x,1/2-y,-z
1/2-x,1/2+y,-z
1/2+y,1/2+x,1/2-z
1/2-y,1/2-x,1/2-z
-x,-y,-z
y,-x,1/2-z
x,y,-z
-y,x,1/2-z
1/2-x,1/2+y,z
1/2+x,1/2-y,z
1/2-y,1/2-x,1/2+z
1/2+y,1/2+x,1/2+z
loop_
_atom_site_type_symbol
_atom_site_label
_atom_site_fract_x
_atom_site_fract_y
_atom_site_fract_z
Si Si1 0.593068 0.721224 0.221163
Si Si2 0.593002 0.263896 0.365863
Si Si3 0.500000 0.500000 0.750000
Si Si4 0.668308 0.610235 0.000000
Si Si5 0.868016 0.205372 0.637440
Si Si6 0.220477 0.486480 0.500000
Si Si7 0.667605 0.055699 0.634570
Si Si8 0.126496 0.793315 0.500000
O O1 0.685478 0.678393 0.177898
O O2 0.518711 0.617348 0.222923
O O3 0.627880 0.748049 0.291475
O O4 0.530709 0.811518 0.186140
O O5 0.628772 0.267747 0.437244
O O6 0.488783 0.331883 0.363127
O O7 0.581600 0.142639 0.349593
O O8 0.573471 0.689386 0.000000
O O9 0.649385 0.486107 0.000000
O O10 0.866278 0.262176 0.568482
O O11 0.776514 0.121577 0.634174
O O12 0.156645 0.488914 0.435378
O O13 0.285675 0.379956 0.500000
#
# Coordination Sequence:
#
# PCOD9568622 Si02
#       8
#    16  16   4   8  16   8  16   8
#     4  12  20  33  56  80 114 149 181 235 291 347
#     4  11  22  36  56  86 117 152 191 236 288 351
#     4  12  20  36  52  86 124 136 176 242 308 356
#     4  10  18  33  55  82 116 151 188 236 293 347
#     4  10  20  35  53  79 111 148 183 237 289 340
#     4  10  18  33  55  82 116 151 188 236 293 347
#     4  11  22  36  56  86 117 152 191 236 288 351
#     4   8  19  30  50  82 112 141 182 231 298 356
#
# _framework density 26.016258000000001
#
# number of rings (size 3 to 8) (size 9 to 14) (size 15 to 20)
#    0.000    1.391    5.217    0.783    0.000    2.783 
#    0.000    0.000    0.000    1.043    0.000    3.652 
#    0.000    0.000    0.000    0.000    0.000    0.000 
#
# Total GULP energy -513393.788850 kJ/mol
# GULP energy per Si atom -5580.367270 kJ/mol
# Density = 2.595704 g / cm^3
# Si number density = 26.016258 Si / 1000 Ang^3
#
#
#
# Elastic Constant Matrix: (Units=GPa)
#
#
# Indices 1 2 3 4 5 6 
#
# 1 65.0866 -11.9791 8.5080 0.0000 0.0000 0.0000
# 2 -11.9791 65.0866 8.5080 0.0000 0.0000 0.0000
# 3 8.5080 8.5080 250.9392 0.0000 0.0000 0.0000
# 4 0.0000 0.0000 0.0000 3.6783 0.0000 0.0000
# 5 0.0000 0.0000 0.0000 0.0000 3.6783 0.0000
# 6 0.0000 0.0000 0.0000 0.0000 0.0000 28.2160
#
#
#
# Elastic Compliance Matrix: (Units=1/GPa)
#
#
# Indices 1 2 3 4 5 6 
#
# 1 0.016006 0.003030 -0.000645 0.000000 0.000000 0.000000
# 2 0.003030 0.016006 -0.000645 0.000000 0.000000 0.000000
# 3 -0.000645 -0.000645 0.004029 0.000000 0.000000 0.000000
# 4 0.000000 0.000000 0.000000 0.271861 0.000000 0.000000
# 5 0.000000 0.000000 0.000000 0.000000 0.271861 0.000000
# 6 0.000000 0.000000 0.000000 0.000000 0.000000 0.035441
#
#
# Mechanical properties :
#
#
# Convention : Reuss Voigt Hill
#
# Bulk Modulus (GPa) = 25.30352 43.46510 34.38431
# Shear Modulus (GPa) = 8.00129 32.18624 20.09376
#
# Velocity S-wave (km/s) = 1.75561 3.52114 2.78214
# Velocity P-wave (km/s) = 3.72246 5.76840 4.85444
#
# Compressibility (1/GPa) = 0.03952020
#
# Stress axis : x y z
#
# Youngs Moduli (GPa) = 62.47560 62.47560 248.21317
#
# Poissons Ratio (x) = -0.18932 0.16020
# Poissons Ratio (y) = -0.18932 0.16020
# Poissons Ratio (z) = 0.04032 0.04032
#
# Static dielectric constant tensor:
#      x y z
#    x 2.051630 0.000000 0.000000 
#    y 0.000000 2.051630 0.000000 
#    z 0.000000 0.000000 2.073220 
# 
# From -- ./inp_files/5519.got.cif
#   From: 2010.05.17/outbox.cif.g08.bks.cpg/sg135_3_cif.got.tgz:5519.got - 2010.05.20 12:50:20.
