data_PCOD9568362
_publ_section_title
;
Structure prediction by ZEFSAII (Michael W. Deem and Ramdas Pophale) SiO2 
 PCOD9568362
Probable space group: P 42/N N M
;
_chemical_formula_sum "Si O2"
_cell_formula_units_Z 64
_cell_length_a 10.622616
_cell_length_b 10.622616
_cell_length_c 25.950603
_cell_angle_alpha 90.000000
_cell_angle_beta 90.000000
_cell_angle_gamma 90.000000
_cell_volume 2928.265282
_symmetry_space_group_name_H-M "P 42/N N M"
_symmetry_group_IT_number 134
_space_group.IT_coordinate_system_code '2'
_symmetry_cell_setting 'tetragonal'
loop_
_space_group_symop_operation_xyz
x,y,z
1/2-y,x,1/2+z
1/2-x,1/2-y,z
y,1/2-x,1/2+z
x,1/2-y,1/2-z
1/2-x,y,1/2-z
y,x,-z
1/2-y,1/2-x,-z
-x,-y,-z
1/2+y,-x,1/2-z
1/2+x,1/2+y,-z
-y,1/2+x,1/2-z
-x,1/2+y,1/2+z
1/2+x,-y,1/2+z
-y,-x,z
1/2+y,1/2+x,z
loop_
_atom_site_type_symbol
_atom_site_label
_atom_site_fract_x
_atom_site_fract_y
_atom_site_fract_z
Si Si1 0.541486 0.246486 0.149130
Si Si2 0.846904 0.866079 0.440847
Si Si3 0.750781 0.441058 0.626203
Si Si4 0.087909 0.120248 0.782117
O O1 0.635098 0.364903 0.142856
O O2 0.627150 0.127150 0.163789
O O3 0.473767 0.214713 0.095012
O O4 0.445532 0.285799 0.194797
O O5 0.750000 0.750000 0.440258
O O6 0.885725 0.885725 0.500000
O O7 0.970607 0.823240 0.411429
O O8 0.651113 0.348888 0.653665
O O9 0.850712 0.350712 0.598332
O O10 0.826527 0.523044 0.666228
O O11 0.102999 0.250000 0.750000
O O12 0.988685 0.011316 0.762245
#
# Coordination Sequence:
#
# PCOD9568362 Si02
#       4
#    16  16  16  16
#     4  10  22  42  68 100 139 179 220 271 330 395
#     4  11  23  40  65  95 130 178 230 275 327 392
#     4  10  21  38  62  95 131 165 210 273 335 388
#     4  10  20  38  67 101 133 169 215 270 333 399
#
# _framework density 21.855941999999999
#
# number of rings (size 3 to 8) (size 9 to 14) (size 15 to 20)
#    0.000    1.750    2.500    1.500    0.000    4.250 
#    0.000    7.500    0.000    9.000    0.000    8.750 
#    0.000    0.000    0.000    0.000    0.000    0.000 
#
# Total GULP energy -357332.542980 kJ/mol
# GULP energy per Si atom -5583.320984 kJ/mol
# Density = 2.180620 g / cm^3
# Si number density = 21.855942 Si / 1000 Ang^3
#
#
#
# Elastic Constant Matrix: (Units=GPa)
#
#
# Indices 1 2 3 4 5 6 
#
# 1 114.9038 65.2782 59.5383 0.0000 0.0000 0.0000
# 2 65.2782 114.9038 59.5383 0.0000 0.0000 0.0000
# 3 59.5383 59.5383 117.7383 0.0000 0.0000 0.0000
# 4 0.0000 0.0000 0.0000 -150.7157 0.0000 0.0000
# 5 0.0000 0.0000 0.0000 0.0000 -150.7157 0.0000
# 6 0.0000 0.0000 0.0000 0.0000 0.0000 50.0364
#
#
#
# Elastic Compliance Matrix: (Units=1/GPa)
#
#
# Indices 1 2 3 4 5 6 
#
# 1 0.014243 -0.005908 -0.004215 0.000000 0.000000 0.000000
# 2 -0.005908 0.014243 -0.004215 0.000000 0.000000 0.000000
# 3 -0.004215 -0.004215 0.012757 0.000000 0.000000 0.000000
# 4 0.000000 0.000000 0.000000 -0.006635 0.000000 0.000000
# 5 0.000000 0.000000 0.000000 0.000000 -0.006635 0.000000
# 6 0.000000 0.000000 0.000000 0.000000 0.000000 0.019985
#
#
# Mechanical properties :
#
#
# Convention : Reuss Voigt Hill
#
# Bulk Modulus (GPa) = 79.57340 79.58397 79.57868
# Shear Modulus (GPa) = 61.86318 -39.39962 11.23178
#
# Velocity S-wave (km/s) = 5.32601 -4.25042 2.26940
# Velocity P-wave (km/s) = 8.62027 3.52192 6.58456
#
# Compressibility (1/GPa) = 0.01256701
#
# Stress axis : x y z
#
# Youngs Moduli (GPa) = 70.20863 70.20863 78.39129
#
# Poissons Ratio (x) = 0.41477 0.33043
# Poissons Ratio (y) = 0.41477 0.33043
# Poissons Ratio (z) = 0.29594 0.29594
#
# Static dielectric constant tensor:
#      x y z
#    x 1.894520 0.000000 0.000000 
#    y 0.000000 1.894520 0.000000 
#    z 0.000000 0.000000 1.764120 
# 
# From -- ./inp_files/8694.got.cif
#   From: 2010.05.17/outbox.cif.g08.bks.cpg/sg134_5_cif.got.tgz:8694.got - 2010.05.20 12:42:49.
