data_PCOD9568693
_publ_section_title
;
Structure prediction by ZEFSAII (Michael W. Deem and Ramdas Pophale) SiO2 
 PCOD9568693
Probable space group: P 42/M B C
;
_chemical_formula_sum "Si O2"
_cell_formula_units_Z 128
_cell_length_a 18.275192
_cell_length_b 18.275192
_cell_length_c 21.031895
_cell_angle_alpha 90.000000
_cell_angle_beta 90.000000
_cell_angle_gamma 90.000000
_cell_volume 7024.287872
_symmetry_space_group_name_H-M "P 42/M B C"
_symmetry_group_IT_number 135
_symmetry_cell_setting 'tetragonal'
loop_
_space_group_symop_operation_xyz
x,y,z
-y,x,1/2+z
-x,-y,z
y,-x,1/2+z
1/2+x,1/2-y,-z
1/2-x,1/2+y,-z
1/2+y,1/2+x,1/2-z
1/2-y,1/2-x,1/2-z
-x,-y,-z
y,-x,1/2-z
x,y,-z
-y,x,1/2-z
1/2-x,1/2+y,z
1/2+x,1/2-y,z
1/2-y,1/2-x,1/2+z
1/2+y,1/2+x,1/2+z
loop_
_atom_site_type_symbol
_atom_site_label
_atom_site_fract_x
_atom_site_fract_y
_atom_site_fract_z
Si Si1 0.782685 0.998010 0.073922
Si Si2 0.943762 0.268716 0.925961
Si Si3 0.937746 0.789527 0.842033
Si Si4 0.236494 0.765501 0.678041
Si Si5 0.810104 0.369044 0.075815
Si Si6 0.961213 0.893375 0.265473
Si Si7 0.164281 0.857334 0.874320
Si Si8 0.060350 0.063085 0.922972
O O1 0.711710 0.952083 0.094330
O O2 0.858443 0.962276 0.096779
O O3 0.793777 0.083101 0.084220
O O4 0.784087 0.986276 0.000000
O O5 0.892652 0.340180 0.918281
O O6 0.890729 0.199066 0.908906
O O7 0.010873 0.269124 0.876767
O O8 0.966095 0.262549 0.000000
O O9 0.853528 0.767908 0.828391
O O10 0.967339 0.819285 0.774744
O O11 0.948227 0.858806 0.889743
O O12 0.232674 0.732674 0.750000
O O13 0.178579 0.735857 0.626266
O O14 0.311951 0.729264 0.656760
O O15 0.791818 0.355062 0.000000
O O16 0.905497 0.880084 0.322825
O O17 0.042439 0.923817 0.276728
O O18 0.056847 0.071458 0.000000
O O19 0.000000 0.000000 0.907613
#
# Coordination Sequence:
#
# PCOD9568693 Si02
#       8
#    16  16  16  16  16  16  16  16
#     4  10  19  34  56  81 108 143 184 233 285 338
#     4  10  21  37  58  84 113 147 189 239 291 348
#     4  12  21  35  54  79 114 152 189 233 287 340
#     4  11  23  37  55  84 116 154 198 242 287 347
#     4   9  20  39  60  82 112 149 196 243 289 347
#     4  11  23  34  50  78 118 154 191 227 273 333
#     4  11  21  37  55  79 113 155 190 234 281 343
#     4  10  20  31  50  82 115 147 186 228 281 349
#
# _framework density 18.222487999999998
#
# number of rings (size 3 to 8) (size 9 to 14) (size 15 to 20)
#    0.000    1.500    3.750    2.250    1.750    2.000 
#    0.000    0.000    0.000    0.750    0.000    3.500 
#    0.000    0.000    0.000    0.000    0.000    0.000 
#
# Total GULP energy -712646.815238 kJ/mol
# GULP energy per Si atom -5567.553244 kJ/mol
# Density = 1.818101 g / cm^3
# Si number density = 18.222488 Si / 1000 Ang^3
#
#
#
# Elastic Constant Matrix: (Units=GPa)
#
#
# Indices 1 2 3 4 5 6 
#
# 1 20.0536 23.5998 6.1650 0.0000 0.0000 0.0000
# 2 23.5998 20.0536 6.1650 0.0000 0.0000 0.0000
# 3 6.1650 6.1650 42.2527 0.0000 0.0000 0.0000
# 4 0.0000 0.0000 0.0000 23.7544 0.0000 0.0000
# 5 0.0000 0.0000 0.0000 0.0000 23.7544 0.0000
# 6 0.0000 0.0000 0.0000 0.0000 0.0000 35.6620
#
#
#
# Elastic Compliance Matrix: (Units=1/GPa)
#
#
# Indices 1 2 3 4 5 6 
#
# 1 -0.129047 0.152940 -0.003486 0.000000 0.000000 0.000000
# 2 0.152940 -0.129047 -0.003486 0.000000 0.000000 0.000000
# 3 -0.003486 -0.003486 0.024684 0.000000 0.000000 0.000000
# 4 0.000000 0.000000 0.000000 0.042098 0.000000 0.000000
# 5 0.000000 0.000000 0.000000 0.000000 0.042098 0.000000
# 6 0.000000 0.000000 0.000000 0.000000 0.000000 0.028041
#
#
# Mechanical properties :
#
#
# Convention : Reuss Voigt Hill
#
# Bulk Modulus (GPa) = 17.08676 17.13550 17.11113
# Shear Modulus (GPa) = -12.70323 19.72947 3.51312
#
# Velocity S-wave (km/s) = -2.64316 3.29401 1.39000
# Velocity P-wave (km/s) = 0.28638 4.88787 3.46217
#
# Compressibility (1/GPa) = 0.05852485
#
# Stress axis : x y z
#
# Youngs Moduli (GPa) = -7.74910 -7.74910 40.51133
#
# Poissons Ratio (x) = 1.18514 0.14123
# Poissons Ratio (y) = 1.18514 0.14123
# Poissons Ratio (z) = -0.02701 -0.02701
#
# Static dielectric constant tensor:
#      x y z
#    x 1.688740 0.000000 0.000000 
#    y 0.000000 1.688740 0.000000 
#    z 0.000000 0.000000 1.720630 
# 
# From -- ./inp_files/6262.got.cif
#   From: 2010.05.17/outbox.cif.g08.bks.cpg/sg135_4_cif.got.tgz:6262.got - 2010.05.20 12:50:20.
