data_PCOD9568877
_publ_section_title
;
Structure prediction by ZEFSAII (Michael W. Deem and Ramdas Pophale) SiO2 
 PCOD9568877
Probable space group: P 42/M B C
;
_chemical_formula_sum "Si O2"
_cell_formula_units_Z 64
_cell_length_a 15.005997
_cell_length_b 15.005997
_cell_length_c 14.406437
_cell_angle_alpha 90.000000
_cell_angle_beta 90.000000
_cell_angle_gamma 90.000000
_cell_volume 3244.040705
_symmetry_space_group_name_H-M "P 42/M B C"
_symmetry_group_IT_number 135
_symmetry_cell_setting 'tetragonal'
loop_
_space_group_symop_operation_xyz
x,y,z
-y,x,1/2+z
-x,-y,z
y,-x,1/2+z
1/2+x,1/2-y,-z
1/2-x,1/2+y,-z
1/2+y,1/2+x,1/2-z
1/2-y,1/2-x,1/2-z
-x,-y,-z
y,-x,1/2-z
x,y,-z
-y,x,1/2-z
1/2-x,1/2+y,z
1/2+x,1/2-y,z
1/2-y,1/2-x,1/2+z
1/2+y,1/2+x,1/2+z
loop_
_atom_site_type_symbol
_atom_site_label
_atom_site_fract_x
_atom_site_fract_y
_atom_site_fract_z
Si Si1 0.748147 0.143401 0.890093
Si Si2 0.856599 0.251853 0.609908
Si Si3 0.397984 0.999999 0.112355
Si Si4 0.901998 0.901996 0.750000
O O1 0.750001 0.250000 0.876061
O O2 0.827790 0.107551 0.827946
O O3 0.659029 0.088507 0.862516
O O4 0.761577 0.127264 0.000000
O O5 0.872736 0.238423 0.500000
O O6 0.911496 0.340970 0.637485
O O7 0.892447 0.172208 0.672053
O O8 0.500000 0.000000 0.145452
O O9 0.402045 0.000000 0.000000
O O10 0.000001 0.893876 0.793061
#
# Coordination Sequence:
#
# PCOD9568877 Si02
#       4
#    16  16  16  16
#     4  10  21  39  63  90 125 165 206 261 320 378
#     4  10  21  39  63  90 125 165 206 261 320 378
#     4   9  18  36  63  93 122 157 205 259 319 384
#     4  11  23  38  60  88 123 165 208 258 312 379
#
# _framework density 19.728483000000001
#
# number of rings (size 3 to 8) (size 9 to 14) (size 15 to 20)
#    0.000    2.000    2.500    0.750    0.000    3.000 
#    0.000    7.500    0.000    0.000    0.000    0.000 
#    0.000    0.000    0.000    0.000    0.000    0.000 
#
# Total GULP energy -357098.237188 kJ/mol
# GULP energy per Si atom -5579.659956 kJ/mol
# Density = 1.968358 g / cm^3
# Si number density = 19.728483 Si / 1000 Ang^3
#
#
#
# Elastic Constant Matrix: (Units=GPa)
#
#
# Indices 1 2 3 4 5 6 
#
# 1 185.9578 97.6906 48.9099 0.0000 0.0000 0.0000
# 2 97.6906 185.9578 48.9099 0.0000 0.0000 0.0000
# 3 48.9099 48.9099 49.1504 0.0000 0.0000 0.0000
# 4 0.0000 0.0000 0.0000 -9.7257 0.0000 0.0000
# 5 0.0000 0.0000 0.0000 0.0000 -9.7257 0.0000
# 6 0.0000 0.0000 0.0000 0.0000 0.0000 28.8368
#
#
#
# Elastic Compliance Matrix: (Units=1/GPa)
#
#
# Indices 1 2 3 4 5 6 
#
# 1 0.008348 -0.002981 -0.005341 0.000000 0.000000 0.000000
# 2 -0.002981 0.008348 -0.005341 0.000000 0.000000 0.000000
# 3 -0.005341 -0.005341 0.030976 0.000000 0.000000 0.000000
# 4 0.000000 0.000000 0.000000 -0.102821 0.000000 0.000000
# 5 0.000000 0.000000 0.000000 0.000000 -0.102821 0.000000
# 6 0.000000 0.000000 0.000000 0.000000 0.000000 0.034678
#
#
# Mechanical properties :
#
#
# Convention : Reuss Voigt Hill
#
# Bulk Modulus (GPa) = 49.14973 90.23188 69.69081
# Shear Modulus (GPa) = -56.06500 16.91412 -19.57544
#
# Velocity S-wave (km/s) = -5.33667 2.93122 -3.15341
# Velocity P-wave (km/s) = 3.60641 7.56916 4.70564
#
# Compressibility (1/GPa) = 0.02034599
#
# Stress axis : x y z
#
# Youngs Moduli (GPa) = 119.78405 119.78405 32.28313
#
# Poissons Ratio (x) = 0.35706 0.17243
# Poissons Ratio (y) = 0.35706 0.17243
# Poissons Ratio (z) = 0.63979 0.63979
#
# Static dielectric constant tensor:
#      x y z
#    x 1.677470 0.000000 0.000000 
#    y 0.000000 1.677470 0.000000 
#    z 0.000000 0.000000 1.658740 
# 
# From -- ./inp_files/3133.got.cif
#   From: 2010.05.17/outbox.cif.g08.bks.cpg/sg135_2_cif.got.tgz:3133.got - 2010.05.20 12:50:20.
