data_PCOD9568613
_publ_section_title
;
Structure prediction by ZEFSAII (Michael W. Deem and Ramdas Pophale) SiO2 
 PCOD9568613
Probable space group: P 42/M B C
;
_chemical_formula_sum "Si O2"
_cell_formula_units_Z 112
_cell_length_a 14.610180
_cell_length_b 14.610180
_cell_length_c 31.133004
_cell_angle_alpha 90.000000
_cell_angle_beta 90.000000
_cell_angle_gamma 90.000000
_cell_volume 6645.568831
_symmetry_space_group_name_H-M "P 42/M B C"
_symmetry_group_IT_number 135
_symmetry_cell_setting 'tetragonal'
loop_
_space_group_symop_operation_xyz
x,y,z
-y,x,1/2+z
-x,-y,z
y,-x,1/2+z
1/2+x,1/2-y,-z
1/2-x,1/2+y,-z
1/2+y,1/2+x,1/2-z
1/2-y,1/2-x,1/2-z
-x,-y,-z
y,-x,1/2-z
x,y,-z
-y,x,1/2-z
1/2-x,1/2+y,z
1/2+x,1/2-y,z
1/2-y,1/2-x,1/2+z
1/2+y,1/2+x,1/2+z
loop_
_atom_site_type_symbol
_atom_site_label
_atom_site_fract_x
_atom_site_fract_y
_atom_site_fract_z
Si Si1 0.640324 0.258696 0.550997
Si Si2 0.707381 0.469681 0.343545
Si Si3 0.595444 0.532253 0.102838
Si Si4 0.939362 0.141039 0.248668
Si Si5 0.684406 0.832573 0.397847
Si Si6 0.391450 0.003712 0.051524
Si Si7 0.167613 0.135473 0.840209
O O1 0.650837 0.260364 0.500000
O O2 0.569449 0.334802 0.567934
O O3 0.736197 0.288574 0.572294
O O4 0.590520 0.162500 0.562834
O O5 0.612877 0.432694 0.364443
O O6 0.702879 0.438162 0.293896
O O7 0.782934 0.425655 0.374402
O O8 0.702424 0.579778 0.343155
O O9 0.500000 0.500000 0.082548
O O10 0.638777 0.451587 0.130868
O O11 0.895458 0.181692 0.291376
O O12 0.044412 0.112673 0.258653
O O13 0.590684 0.849135 0.423656
O O14 0.673766 0.759003 0.360242
O O15 0.500000 0.000000 0.060360
O O16 0.379944 0.016646 0.000000
#
# Coordination Sequence:
#
# PCOD9568613 Si02
#       7
#    16  16  16  16  16  16  16
#     4  10  21  37  56  79 109 142 184 235 279 328
#     4   9  19  31  50  81 109 138 178 225 271 328
#     4   9  16  32  52  77 106 131 171 221 281 327
#     4   9  15  28  52  78 107 140 179 222 278 333
#     4  11  22  35  57  80 113 142 186 233 280 329
#     4  10  22  40  60  79 106 150 193 224 273 344
#     4  10  18  31  53  78 106 144 179 224 275 323
#
# _framework density 16.853335000000001
#
# number of rings (size 3 to 8) (size 9 to 14) (size 15 to 20)
#    0.000    2.286    2.857    0.429    2.000    0.857 
#    0.000    0.000    0.000    0.000    0.000    1.000 
#    0.000    0.000    0.000    0.000    0.000    0.000 
#
# Total GULP energy -623914.386305 kJ/mol
# GULP energy per Si atom -5570.664163 kJ/mol
# Density = 1.681498 g / cm^3
# Si number density = 16.853335 Si / 1000 Ang^3
#
#
#
# Elastic Constant Matrix: (Units=GPa)
#
#
# Indices 1 2 3 4 5 6 
#
# 1 59.6916 16.8442 34.3648 0.0000 0.0000 0.0000
# 2 16.8442 59.6916 34.3648 0.0000 0.0000 0.0000
# 3 34.3648 34.3648 78.3917 0.0000 0.0000 0.0000
# 4 0.0000 0.0000 0.0000 18.9570 0.0000 0.0000
# 5 0.0000 0.0000 0.0000 0.0000 18.9570 0.0000
# 6 0.0000 0.0000 0.0000 0.0000 0.0000 16.1738
#
#
#
# Elastic Compliance Matrix: (Units=1/GPa)
#
#
# Indices 1 2 3 4 5 6 
#
# 1 0.022444 -0.000895 -0.009446 0.000000 0.000000 0.000000
# 2 -0.000895 0.022444 -0.009446 0.000000 0.000000 0.000000
# 3 -0.009446 -0.009446 0.021038 0.000000 0.000000 0.000000
# 4 0.000000 0.000000 0.000000 0.052751 0.000000 0.000000
# 5 0.000000 0.000000 0.000000 0.000000 0.052751 0.000000
# 6 0.000000 0.000000 0.000000 0.000000 0.000000 0.061828
#
#
# Mechanical properties :
#
#
# Convention : Reuss Voigt Hill
#
# Bulk Modulus (GPa) = 37.95005 40.99137 39.47071
# Shear Modulus (GPa) = 17.75476 18.29765 18.02620
#
# Velocity S-wave (km/s) = 3.24927 3.29857 3.27401
# Velocity P-wave (km/s) = 6.05340 6.23559 6.14517
#
# Compressibility (1/GPa) = 0.02635043
#
# Stress axis : x y z
#
# Youngs Moduli (GPa) = 44.55608 44.55608 47.53195
#
# Poissons Ratio (x) = 0.03988 0.44900
# Poissons Ratio (y) = 0.03988 0.44900
# Poissons Ratio (z) = 0.42089 0.42089
#
# Static dielectric constant tensor:
#      x y z
#    x 1.575440 0.000000 0.000000 
#    y 0.000000 1.575440 0.000000 
#    z 0.000000 0.000000 1.550520 
# 
# From -- ./inp_files/6867.got.cif
#   From: 2010.05.17/outbox.cif.g08.bks.cpg/sg135_4_cif.got.tgz:6867.got - 2010.05.20 12:50:20.
