data_PCOD9568388
_publ_section_title
;
Structure prediction by ZEFSAII (Michael W. Deem and Ramdas Pophale) SiO2 
 PCOD9568388
Probable space group: P 42/N N M
;
_chemical_formula_sum "Si O2"
_cell_formula_units_Z 56
_cell_length_a 20.216449
_cell_length_b 20.216449
_cell_length_c 7.997436
_cell_angle_alpha 90.000000
_cell_angle_beta 90.000000
_cell_angle_gamma 90.000000
_cell_volume 3268.590562
_symmetry_space_group_name_H-M "P 42/N N M"
_symmetry_group_IT_number 134
_space_group.IT_coordinate_system_code '2'
_symmetry_cell_setting 'tetragonal'
loop_
_space_group_symop_operation_xyz
x,y,z
1/2-y,x,1/2+z
1/2-x,1/2-y,z
y,1/2-x,1/2+z
x,1/2-y,1/2-z
1/2-x,y,1/2-z
y,x,-z
1/2-y,1/2-x,-z
-x,-y,-z
1/2+y,-x,1/2-z
1/2+x,1/2+y,-z
-y,1/2+x,1/2-z
-x,1/2+y,1/2+z
1/2+x,-y,1/2+z
-y,-x,z
1/2+y,1/2+x,z
loop_
_atom_site_type_symbol
_atom_site_label
_atom_site_fract_x
_atom_site_fract_y
_atom_site_fract_z
Si Si1 0.583537 0.583537 0.000000
Si Si2 0.118757 0.881244 0.615317
Si Si3 0.407257 0.592744 0.246135
Si Si4 0.517955 0.482046 0.240186
Si Si5 0.250000 0.948569 0.750000
Si Si6 0.800189 0.995667 0.904225
O O1 0.524930 0.569718 0.867674
O O2 0.654017 0.569239 0.920278
O O3 0.123283 0.876718 0.414491
O O4 0.062617 0.937384 0.642524
O O5 0.186308 0.905378 0.699491
O O6 0.463150 0.536851 0.290277
O O7 0.444851 0.648929 0.141346
O O8 0.266507 0.990140 0.582563
O O9 0.750000 0.990857 0.750000
#
# Coordination Sequence:
#
# PCOD9568388 Si02
#       6
#     8   8   8   8   8  16
#     4   9  18  34  58  86 117 144 186 245 294 333
#     4  12  21  37  55  84 120 153 198 230 278 353
#     4  10  21  36  60  84 115 150 193 245 298 332
#     4   9  17  32  57  84 116 142 180 253 298 324
#     4  12  24  37  58  82 121 158 194 232 280 348
#     4  11  21  38  58  87 119 153 191 241 294 346
#
# _framework density 17.132766
#
# number of rings (size 3 to 8) (size 9 to 14) (size 15 to 20)
#    0.000    1.429    5.714    2.143    0.000    0.286 
#    0.000    1.429    0.000    0.429    0.000    3.000 
#    0.000    0.000    0.000    0.000    0.000    0.000 
#
# Total GULP energy -312176.339264 kJ/mol
# GULP energy per Si atom -5574.577487 kJ/mol
# Density = 1.709377 g / cm^3
# Si number density = 17.132766 Si / 1000 Ang^3
#
#
#
# Elastic Constant Matrix: (Units=GPa)
#
#
# Indices 1 2 3 4 5 6 
#
# 1 68.0539 55.8522 48.4237 0.0000 0.0000 0.0000
# 2 55.8522 68.0539 48.4237 0.0000 0.0000 0.0000
# 3 48.4237 48.4237 134.2312 0.0000 0.0000 0.0000
# 4 0.0000 0.0000 0.0000 26.5296 0.0000 0.0000
# 5 0.0000 0.0000 0.0000 0.0000 26.5296 0.0000
# 6 0.0000 0.0000 0.0000 0.0000 0.0000 21.5176
#
#
#
# Elastic Compliance Matrix: (Units=1/GPa)
#
#
# Indices 1 2 3 4 5 6 
#
# 1 0.046598 -0.035358 -0.004055 0.000000 0.000000 0.000000
# 2 -0.035358 0.046598 -0.004055 0.000000 0.000000 0.000000
# 3 -0.004055 -0.004055 0.010375 0.000000 0.000000 0.000000
# 4 0.000000 0.000000 0.000000 0.037694 0.000000 0.000000
# 5 0.000000 0.000000 0.000000 0.000000 0.037694 0.000000
# 6 0.000000 0.000000 0.000000 0.000000 0.000000 0.046474
#
#
# Mechanical properties :
#
#
# Convention : Reuss Voigt Hill
#
# Bulk Modulus (GPa) = 60.11040 63.97090 62.04065
# Shear Modulus (GPa) = 15.72760 22.75798 19.24279
#
# Velocity S-wave (km/s) = 3.03311 3.64858 3.35499
# Velocity P-wave (km/s) = 6.88677 7.42758 7.16228
#
# Compressibility (1/GPa) = 0.01663606
#
# Stress axis : x y z
#
# Youngs Moduli (GPa) = 21.46022 21.46022 96.38233
#
# Poissons Ratio (x) = 0.75879 0.39081
# Poissons Ratio (y) = 0.75879 0.39081
# Poissons Ratio (z) = 0.08702 0.08702
#
# Static dielectric constant tensor:
#      x y z
#    x 1.573450 0.000000 0.000000 
#    y 0.000000 1.573450 0.000000 
#    z 0.000000 0.000000 1.636620 
# 
# From -- ./inp_files/2479.got.cif
#   From: 2010.05.17/outbox.cif.g08.bks.cpg/sg134_2_cif.got.tgz:2479.got - 2010.05.20 12:42:49.
