data_PCOD9568453
_publ_section_title
;
Structure prediction by ZEFSAII (Michael W. Deem and Ramdas Pophale) SiO2 
 PCOD9568453
Probable space group: P 42/N N M
;
_chemical_formula_sum "Si O2"
_cell_formula_units_Z 72
_cell_length_a 16.829047
_cell_length_b 16.829047
_cell_length_c 12.380348
_cell_angle_alpha 90.000000
_cell_angle_beta 90.000000
_cell_angle_gamma 90.000000
_cell_volume 3506.322827
_symmetry_space_group_name_H-M "P 42/N N M"
_symmetry_group_IT_number 134
_space_group.IT_coordinate_system_code '2'
_symmetry_cell_setting 'tetragonal'
loop_
_space_group_symop_operation_xyz
x,y,z
1/2-y,x,1/2+z
1/2-x,1/2-y,z
y,1/2-x,1/2+z
x,1/2-y,1/2-z
1/2-x,y,1/2-z
y,x,-z
1/2-y,1/2-x,-z
-x,-y,-z
1/2+y,-x,1/2-z
1/2+x,1/2+y,-z
-y,1/2+x,1/2-z
-x,1/2+y,1/2+z
1/2+x,-y,1/2+z
-y,-x,z
1/2+y,1/2+x,z
loop_
_atom_site_type_symbol
_atom_site_label
_atom_site_fract_x
_atom_site_fract_y
_atom_site_fract_z
Si Si1 0.160375 0.135223 0.793469
Si Si2 0.250000 0.621928 0.750000
Si Si3 0.732005 0.984360 0.631083
Si Si4 0.475880 0.848558 0.576950
Si Si5 0.968337 0.906244 0.388189
O O1 0.250000 0.151735 0.750000
O O2 0.107458 0.205377 0.847244
O O3 0.104011 0.103098 0.696227
O O4 0.160069 0.065388 0.881538
O O5 0.179004 0.679004 0.789139
O O6 0.285468 0.571430 0.848457
O O7 0.750000 0.018802 0.750000
O O8 0.817569 0.991753 0.578745
O O9 0.670611 0.024465 0.550293
O O10 0.433102 0.933102 0.596099
O O11 0.942597 0.942597 0.500000
O O12 0.039457 0.960544 0.341809
#
# Coordination Sequence:
#
# PCOD9568453 Si02
#       5
#    16   8  16  16  16
#     4  11  22  40  63  94 132 169 217 266 329 395
#     4   9  20  38  62  94 127 166 222 282 341 398
#     4  10  24  40  57  88 128 169 208 259 324 393
#     4  11  22  39  66  96 129 170 220 281 339 391
#     4  10  22  39  60  86 119 163 215 266 321 386
#
# _framework density 20.534334000000001
#
# number of rings (size 3 to 8) (size 9 to 14) (size 15 to 20)
#    0.000    1.667    1.111    2.667    0.000   10.222 
#    0.000    1.111    0.000    0.000    0.000    4.667 
#    0.000    0.000    0.000    0.000    0.000    0.000 
#
# Total GULP energy -401309.490481 kJ/mol
# GULP energy per Si atom -5573.742923 kJ/mol
# Density = 2.048760 g / cm^3
# Si number density = 20.534334 Si / 1000 Ang^3
#
#
#
# Elastic Constant Matrix: (Units=GPa)
#
#
# Indices 1 2 3 4 5 6 
#
# 1 -373.2541 495.9398 13.2507 0.0000 0.0000 0.0000
# 2 495.9398 -373.2541 13.2507 0.0000 0.0000 0.0000
# 3 13.2507 13.2507 47.4004 0.0000 0.0000 0.0000
# 4 0.0000 0.0000 0.0000 24.5422 0.0000 0.0000
# 5 0.0000 0.0000 0.0000 0.0000 24.5422 0.0000
# 6 0.0000 0.0000 0.0000 0.0000 0.0000 6.0267
#
#
#
# Elastic Compliance Matrix: (Units=1/GPa)
#
#
# Indices 1 2 3 4 5 6 
#
# 1 0.003762 0.004913 -0.002425 0.000000 0.000000 0.000000
# 2 0.004913 0.003762 -0.002425 0.000000 0.000000 0.000000
# 3 -0.002425 -0.002425 0.022453 0.000000 0.000000 0.000000
# 4 0.000000 0.000000 0.000000 0.040746 0.000000 0.000000
# 5 0.000000 0.000000 0.000000 0.000000 0.040746 0.000000
# 6 0.000000 0.000000 0.000000 0.000000 0.000000 0.165929
#
#
# Mechanical properties :
#
#
# Convention : Reuss Voigt Hill
#
# Bulk Modulus (GPa) = 33.22025 38.41940 35.81983
# Shear Modulus (GPa) = 17.40298 -70.41437 -26.50569
#
# Velocity S-wave (km/s) = 2.91435 -5.86221 -3.59667
# Velocity P-wave (km/s) = 5.24763 5.20290 0.48345
#
# Compressibility (1/GPa) = 0.03010212
#
# Stress axis : x y z
#
# Youngs Moduli (GPa) = 265.80759 265.80759 44.53815
#
# Poissons Ratio (x) = -1.30581 0.10801
# Poissons Ratio (y) = -1.30581 0.10801
# Poissons Ratio (z) = 0.64458 0.64458
#
# Static dielectric constant tensor:
#      x y z
#    x 1.855580 0.000000 0.000000 
#    y 0.000000 1.855580 0.000000 
#    z 0.000000 0.000000 1.736250 
# 
# From -- ./inp_files/4717.got.cif
#   From: 2010.05.17/outbox.cif.g08.bks.cpg/sg134_3_cif.got.tgz:4717.got - 2010.05.20 12:42:49.
