data_PCOD9568267
_publ_section_title
;
Structure prediction by ZEFSAII (Michael W. Deem and Ramdas Pophale) SiO2 
 PCOD9568267
Probable space group: P 42/N N M
;
_chemical_formula_sum "Si O2"
_cell_formula_units_Z 90
_cell_length_a 26.798788
_cell_length_b 26.798788
_cell_length_c 9.183761
_cell_angle_alpha 90.000000
_cell_angle_beta 90.000000
_cell_angle_gamma 90.000000
_cell_volume 6595.547908
_symmetry_space_group_name_H-M "P 42/N N M"
_symmetry_group_IT_number 134
_space_group.IT_coordinate_system_code '2'
_symmetry_cell_setting 'tetragonal'
loop_
_space_group_symop_operation_xyz
x,y,z
1/2-y,x,1/2+z
1/2-x,1/2-y,z
y,1/2-x,1/2+z
x,1/2-y,1/2-z
1/2-x,y,1/2-z
y,x,-z
1/2-y,1/2-x,-z
-x,-y,-z
1/2+y,-x,1/2-z
1/2+x,1/2+y,-z
-y,1/2+x,1/2-z
-x,1/2+y,1/2+z
1/2+x,-y,1/2+z
-y,-x,z
1/2+y,1/2+x,z
loop_
_atom_site_type_symbol
_atom_site_label
_atom_site_fract_x
_atom_site_fract_y
_atom_site_fract_z
Si Si1 0.151690 0.932732 0.070977
Si Si2 0.250000 0.750000 0.250000
Si Si3 0.648617 0.064303 0.915916
Si Si4 0.097399 0.745090 0.918462
Si Si5 0.008239 0.422851 0.083525
Si Si6 0.920821 0.993136 0.080987
Si Si7 0.789890 0.210111 0.467914
O O1 0.112127 0.887874 0.050324
O O2 0.156482 0.941297 0.243679
O O3 0.203187 0.914984 0.998919
O O4 0.126409 0.981373 0.997701
O O5 0.216300 0.783701 0.356094
O O6 0.613555 0.113555 0.937533
O O7 0.700298 0.070335 0.998797
O O8 0.618924 0.018765 0.988019
O O9 0.082943 0.750000 0.750000
O O10 0.155549 0.728348 0.924373
O O11 0.018162 0.408831 0.250684
O O12 0.968220 0.468220 0.090923
O O13 0.055985 0.444016 0.000000
O O14 0.945923 0.945923 0.000000
O O15 0.963979 0.036022 0.078614
O O16 0.750000 0.250000 0.411508
#
# Coordination Sequence:
#
# PCOD9568267 Si02
#       7
#    16   2  16  16  16  16   8
#     4  10  21  32  48  63  81 110 142 181 221 268
#     4   8  24  36  50  60  72  96 146 180 248 260
#     4  10  20  33  47  62  82 109 143 177 224 265
#     4  12  24  33  46  61  84 108 144 186 233 266
#     4   9  16  27  45  65  87 107 131 166 209 261
#     4   9  16  28  45  66  88 105 131 166 212 262
#     4  10  24  33  50  57  77 102 145 189 234 271
#
# _framework density 13.645568000000001
#
# number of rings (size 3 to 8) (size 9 to 14) (size 15 to 20)
#    0.267    1.778    0.889    3.200    4.978    5.689 
#    0.000    0.000    0.000    0.000    0.000    0.000 
#    0.000    0.000    0.000    0.000    0.000    0.889 
#
# Total GULP energy -501686.741051 kJ/mol
# GULP energy per Si atom -5574.297123 kJ/mol
# Density = 1.361451 g / cm^3
# Si number density = 13.645568 Si / 1000 Ang^3
#
#
#
# Elastic Constant Matrix: (Units=GPa)
#
#
# Indices 1 2 3 4 5 6 
#
# 1 64.4821 58.4029 58.3537 0.0000 0.0000 0.0000
# 2 58.4029 64.4842 58.3545 0.0000 0.0000 0.0000
# 3 58.3537 58.3545 143.3121 0.0000 0.0000 0.0000
# 4 0.0000 0.0000 0.0000 17.3973 0.0000 0.0000
# 5 0.0000 0.0000 0.0000 0.0000 17.3981 0.0000
# 6 0.0000 0.0000 0.0000 0.0000 0.0000 21.5251
#
#
#
# Elastic Compliance Matrix: (Units=1/GPa)
#
#
# Indices 1 2 3 4 5 6 
#
# 1 0.088869 -0.075599 -0.005403 0.000000 0.000000 0.000000
# 2 -0.075599 0.088866 -0.005403 0.000000 0.000000 0.000000
# 3 -0.005403 -0.005403 0.011378 0.000000 0.000000 0.000000
# 4 0.000000 0.000000 0.000000 0.057480 0.000000 0.000000
# 5 0.000000 0.000000 0.000000 0.000000 0.057477 0.000000
# 6 0.000000 0.000000 0.000000 0.000000 0.000000 0.046457
#
#
# Mechanical properties :
#
#
# Convention : Reuss Voigt Hill
#
# Bulk Modulus (GPa) = 61.33465 69.16672 65.25068
# Shear Modulus (GPa) = 9.45588 17.74193 13.59890
#
# Velocity S-wave (km/s) = 2.63528 3.60974 3.16029
# Velocity P-wave (km/s) = 7.36923 8.25661 7.82551
#
# Compressibility (1/GPa) = 0.01630400
#
# Stress axis : x y z
#
# Youngs Moduli (GPa) = 11.25250 11.25287 87.89164
#
# Poissons Ratio (x) = 0.85070 0.47487
# Poissons Ratio (y) = 0.85068 0.47486
# Poissons Ratio (z) = 0.06080 0.06080
#
# Static dielectric constant tensor:
#      x y z
#    x 1.443590 0.000000 0.000000 
#    y 0.000000 1.443590 0.000000 
#    z 0.000000 0.000000 1.470930 
# 
# From -- ./inp_files/3356.got.cif
#   From: 2010.05.17/outbox.cif.g08.bks.cpg/sg134_2_cif.got.tgz:3356.got - 2010.05.20 12:42:49.
