data_PCOD9568917
_publ_section_title
;
Structure prediction by ZEFSAII (Michael W. Deem and Ramdas Pophale) SiO2 
 PCOD9568917
Probable space group: P 42/M B C
;
_chemical_formula_sum "Si O2"
_cell_formula_units_Z 96
_cell_length_a 14.621083
_cell_length_b 14.621083
_cell_length_c 22.311019
_cell_angle_alpha 90.000000
_cell_angle_beta 90.000000
_cell_angle_gamma 90.000000
_cell_volume 4769.561917
_symmetry_space_group_name_H-M "P 42/M B C"
_symmetry_group_IT_number 135
_symmetry_cell_setting 'tetragonal'
loop_
_space_group_symop_operation_xyz
x,y,z
-y,x,1/2+z
-x,-y,z
y,-x,1/2+z
1/2+x,1/2-y,-z
1/2-x,1/2+y,-z
1/2+y,1/2+x,1/2-z
1/2-y,1/2-x,1/2-z
-x,-y,-z
y,-x,1/2-z
x,y,-z
-y,x,1/2-z
1/2-x,1/2+y,z
1/2+x,1/2-y,z
1/2-y,1/2-x,1/2+z
1/2+y,1/2+x,1/2+z
loop_
_atom_site_type_symbol
_atom_site_label
_atom_site_fract_x
_atom_site_fract_y
_atom_site_fract_z
Si Si1 0.616514 0.341665 0.689947
Si Si2 0.700720 0.532185 0.680962
Si Si3 0.536984 0.593488 0.598738
Si Si4 0.294490 0.884418 0.500000
Si Si5 0.895956 0.218151 0.500000
Si Si6 0.368049 0.857044 0.632142
Si Si7 0.000000 0.500000 0.604342
Si Si8 0.567920 0.868179 0.000000
O O1 0.692541 0.422121 0.686875
O O2 0.579266 0.329189 0.756953
O O3 0.533820 0.381949 0.650750
O O4 0.640473 0.242575 0.662059
O O5 0.632195 0.566946 0.629406
O O6 0.797237 0.573124 0.662403
O O7 0.500000 0.500000 0.568719
O O8 0.547974 0.681651 0.556973
O O9 0.196185 0.840257 0.500000
O O10 0.346633 0.853045 0.560588
O O11 0.285166 0.995475 0.500000
O O12 0.865865 0.323226 0.500000
O O13 0.463424 0.911316 0.639069
O O14 0.923044 0.462105 0.559189
#
# Coordination Sequence:
#
# PCOD9568917 Si02
#       8
#    16  16  16   8   8  16   8   8
#     4  11  23  42  69  91 127 178 219 266 331 401
#     4  11  22  43  65  92 129 168 221 263 328 392
#     4  10  22  38  64  94 126 169 211 271 329 387
#     4  10  23  40  59  94 133 162 219 266 325 396
#     4  12  20  39  62  99 131 159 220 277 327 396
#     4  11  23  42  65  98 128 171 216 275 326 394
#     4   9  20  42  61  88 130 164 217 255 324 394
#     4   9  20  37  65  81 125 185 197 248 333 407
#
# _framework density 20.127635000000001
#
# number of rings (size 3 to 8) (size 9 to 14) (size 15 to 20)
#    0.000    1.500    3.333    2.250    0.000    3.333 
#    3.000    1.667    0.000    0.000    0.000    0.000 
#    0.000    0.000    0.000    0.000    0.000    0.000 
#
# Total GULP energy -535562.467074 kJ/mol
# GULP energy per Si atom -5578.775699 kJ/mol
# Density = 2.008182 g / cm^3
# Si number density = 20.127635 Si / 1000 Ang^3
#
#
#
# Elastic Constant Matrix: (Units=GPa)
#
#
# Indices 1 2 3 4 5 6 
#
# 1 89.5951 24.4994 11.9168 0.0000 0.0000 0.0000
# 2 24.4994 89.5951 11.9168 0.0000 0.0000 0.0000
# 3 11.9168 11.9168 74.1508 0.0000 0.0000 0.0000
# 4 0.0000 0.0000 0.0000 19.9097 0.0000 0.0000
# 5 0.0000 0.0000 0.0000 0.0000 19.9097 0.0000
# 6 0.0000 0.0000 0.0000 0.0000 0.0000 28.4268
#
#
#
# Elastic Compliance Matrix: (Units=1/GPa)
#
#
# Indices 1 2 3 4 5 6 
#
# 1 0.012216 -0.003146 -0.001458 0.000000 0.000000 0.000000
# 2 -0.003146 0.012216 -0.001458 0.000000 0.000000 0.000000
# 3 -0.001458 -0.001458 0.013955 0.000000 0.000000 0.000000
# 4 0.000000 0.000000 0.000000 0.050227 0.000000 0.000000
# 5 0.000000 0.000000 0.000000 0.000000 0.050227 0.000000
# 6 0.000000 0.000000 0.000000 0.000000 0.000000 0.035178
#
#
# Mechanical properties :
#
#
# Convention : Reuss Voigt Hill
#
# Bulk Modulus (GPa) = 38.07671 38.88963 38.48317
# Shear Modulus (GPa) = 25.65491 27.31643 26.48567
#
# Velocity S-wave (km/s) = 3.57404 3.68796 3.63145
# Velocity P-wave (km/s) = 5.99920 6.12358 6.06171
#
# Compressibility (1/GPa) = 0.02626277
#
# Stress axis : x y z
#
# Youngs Moduli (GPa) = 81.86276 81.86276 71.66143
#
# Poissons Ratio (x) = 0.25758 0.10445
# Poissons Ratio (y) = 0.25758 0.10445
# Poissons Ratio (z) = 0.11932 0.11932
#
# Static dielectric constant tensor:
#      x y z
#    x 1.736690 0.000000 0.000000 
#    y 0.000000 1.736690 0.000000 
#    z 0.000000 0.000000 1.721270 
# 
# From -- ./inp_files/6075.got.cif
#   From: 2010.05.17/outbox.cif.g08.bks.cpg/sg135_4_cif.got.tgz:6075.got - 2010.05.20 12:50:20.
