data_PCOD9568626
_publ_section_title
;
Structure prediction by ZEFSAII (Michael W. Deem and Ramdas Pophale) SiO2 
 PCOD9568626
Probable space group: P 42/M B C
;
_chemical_formula_sum "Si O2"
_cell_formula_units_Z 96
_cell_length_a 17.100781
_cell_length_b 17.100781
_cell_length_c 18.758937
_cell_angle_alpha 90.000000
_cell_angle_beta 90.000000
_cell_angle_gamma 90.000000
_cell_volume 5485.801835
_symmetry_space_group_name_H-M "P 42/M B C"
_symmetry_group_IT_number 135
_symmetry_cell_setting 'tetragonal'
loop_
_space_group_symop_operation_xyz
x,y,z
-y,x,1/2+z
-x,-y,z
y,-x,1/2+z
1/2+x,1/2-y,-z
1/2-x,1/2+y,-z
1/2+y,1/2+x,1/2-z
1/2-y,1/2-x,1/2-z
-x,-y,-z
y,-x,1/2-z
x,y,-z
-y,x,1/2-z
1/2-x,1/2+y,z
1/2+x,1/2-y,z
1/2-y,1/2-x,1/2+z
1/2+y,1/2+x,1/2+z
loop_
_atom_site_type_symbol
_atom_site_label
_atom_site_fract_x
_atom_site_fract_y
_atom_site_fract_z
Si Si1 0.172076 0.396992 0.416290
Si Si2 0.923912 0.289761 0.312514
Si Si3 0.746567 0.558100 0.082557
Si Si4 0.705404 0.345603 0.415251
Si Si5 0.766867 0.204013 0.678943
Si Si6 0.445983 0.170030 0.154217
O O1 0.193191 0.402233 0.500000
O O2 0.110447 0.325594 0.409430
O O3 0.244209 0.373445 0.364280
O O4 0.138886 0.478755 0.387300
O O5 0.854591 0.226964 0.298312
O O6 0.886282 0.369745 0.344550
O O7 0.961594 0.312890 0.237128
O O8 0.985678 0.253848 0.365889
O O9 0.672742 0.614382 0.098528
O O10 0.742189 0.534274 0.000000
O O11 0.716877 0.342580 0.500000
O O12 0.746791 0.272444 0.377181
O O13 0.748784 0.420186 0.383316
O O14 0.714735 0.214735 0.750000
#
# Coordination Sequence:
#
# PCOD9568626 Si02
#       6
#    16  16  16  16  16  16
#     4  10  22  35  52  80 107 143 181 218 273 324
#     4  10  20  34  51  80 106 140 182 216 273 317
#     4   9  20  34  52  76 105 141 181 218 264 320
#     4   9  17  33  53  73 100 137 177 221 264 307
#     4  10  18  34  53  77 101 131 183 225 259 311
#     4  10  20  33  52  77 111 140 179 222 263 325
#
# _framework density 17.499718999999999
#
# number of rings (size 3 to 8) (size 9 to 14) (size 15 to 20)
#    0.000    2.333    3.333    2.000    4.667    4.667 
#    0.000    3.333    0.000    1.000    0.000    5.833 
#    0.000    0.000    0.000    0.000    0.000    0.000 
#
# Total GULP energy -534549.207236 kJ/mol
# GULP energy per Si atom -5568.220909 kJ/mol
# Density = 1.745989 g / cm^3
# Si number density = 17.499719 Si / 1000 Ang^3
#
#
#
# Elastic Constant Matrix: (Units=GPa)
#
#
# Indices 1 2 3 4 5 6 
#
# 1 20.4818 11.4925 30.8631 0.0000 0.0000 0.0000
# 2 11.4925 20.4818 30.8631 0.0000 0.0000 0.0000
# 3 30.8631 30.8631 83.7107 0.0000 0.0000 0.0000
# 4 0.0000 0.0000 0.0000 29.7461 0.0000 0.0000
# 5 0.0000 0.0000 0.0000 0.0000 29.7461 0.0000
# 6 0.0000 0.0000 0.0000 0.0000 0.0000 10.8628
#
#
#
# Elastic Compliance Matrix: (Units=1/GPa)
#
#
# Indices 1 2 3 4 5 6 
#
# 1 0.109872 -0.001372 -0.040002 0.000000 0.000000 0.000000
# 2 -0.001372 0.109872 -0.040002 0.000000 0.000000 0.000000
# 3 -0.040002 -0.040002 0.041443 0.000000 0.000000 0.000000
# 4 0.000000 0.000000 0.000000 0.033618 0.000000 0.000000
# 5 0.000000 0.000000 0.000000 0.000000 0.033618 0.000000
# 6 0.000000 0.000000 0.000000 0.000000 0.000000 0.092057
#
#
# Mechanical properties :
#
#
# Convention : Reuss Voigt Hill
#
# Bulk Modulus (GPa) = 10.15928 30.12350 20.14139
# Shear Modulus (GPa) = 8.11631 17.50138 12.80885
#
# Velocity S-wave (km/s) = 2.15593 3.16586 2.70839
# Velocity P-wave (km/s) = 3.46632 5.53305 4.61682
#
# Compressibility (1/GPa) = 0.09843218
#
# Stress axis : x y z
#
# Youngs Moduli (GPa) = 9.10153 9.10153 24.12972
#
# Poissons Ratio (x) = 0.01249 0.96525
# Poissons Ratio (y) = 0.01249 0.96525
# Poissons Ratio (z) = 0.36408 0.36408
#
# Static dielectric constant tensor:
#      x y z
#    x 1.626380 0.000000 0.000000 
#    y 0.000000 1.626380 0.000000 
#    z 0.000000 0.000000 1.593890 
# 
# From -- ./inp_files/4450.got.cif
#   From: 2010.05.17/outbox.cif.g08.bks.cpg/sg135_3_cif.got.tgz:4450.got - 2010.05.20 12:50:20.
