data_PCOD9568169
_publ_section_title
;
Structure prediction by ZEFSAII (Michael W. Deem and Ramdas Pophale) SiO2 
 PCOD9568169
Probable space group: P 42/N N M
;
_chemical_formula_sum "Si O2"
_cell_formula_units_Z 96
_cell_length_a 22.682965
_cell_length_b 22.682965
_cell_length_c 9.663263
_cell_angle_alpha 90.000000
_cell_angle_beta 90.000000
_cell_angle_gamma 90.000000
_cell_volume 4971.912134
_symmetry_space_group_name_H-M "P 42/N N M"
_symmetry_group_IT_number 134
_space_group.IT_coordinate_system_code '2'
_symmetry_cell_setting 'tetragonal'
loop_
_space_group_symop_operation_xyz
x,y,z
1/2-y,x,1/2+z
1/2-x,1/2-y,z
y,1/2-x,1/2+z
x,1/2-y,1/2-z
1/2-x,y,1/2-z
y,x,-z
1/2-y,1/2-x,-z
-x,-y,-z
1/2+y,-x,1/2-z
1/2+x,1/2+y,-z
-y,1/2+x,1/2-z
-x,1/2+y,1/2+z
1/2+x,-y,1/2+z
-y,-x,z
1/2+y,1/2+x,z
loop_
_atom_site_type_symbol
_atom_site_label
_atom_site_fract_x
_atom_site_fract_y
_atom_site_fract_z
Si Si1 0.921273 0.511606 0.844380
Si Si2 0.018471 0.122800 0.249357
Si Si3 0.175739 0.417798 0.980928
Si Si4 0.905676 0.191908 0.347757
Si Si5 0.750206 0.017998 0.583111
Si Si6 0.882693 0.019957 0.963377
O O1 0.970769 0.561384 0.826089
O O2 0.870173 0.540992 0.932959
O O3 0.897431 0.500995 0.690355
O O4 0.951555 0.451555 0.894654
O O5 0.064929 0.167143 0.320591
O O6 0.954698 0.150333 0.275542
O O7 0.026037 0.111249 0.087809
O O8 0.235235 0.449944 0.035200
O O9 0.148482 0.351519 0.000000
O O10 0.898290 0.250000 0.250000
O O11 0.845894 0.154107 0.363924
O O12 0.936975 0.208860 0.494823
O O13 0.750000 0.021642 0.750000
O O14 0.685258 0.036404 0.537531
O O15 0.926868 0.073133 0.994994
#
# Coordination Sequence:
#
# PCOD9568169 Si02
#       6
#    16  16  16  16  16  16
#     4  10  19  31  50  78 110 143 172 210 272 348
#     4  10  20  34  53  78 109 139 174 222 280 341
#     4   9  20  34  52  78 109 146 184 224 273 338
#     4  11  23  38  57  78 102 140 188 238 284 328
#     4  11  22  38  56  78 112 152 188 233 282 340
#     4  11  21  33  52  79 110 145 182 223 272 331
#
# _framework density 19.308467
#
# number of rings (size 3 to 8) (size 9 to 14) (size 15 to 20)
#    0.000    1.667    3.333    2.000    0.000    8.500 
#    0.000    0.000    0.000    0.000    0.000    1.167 
#    0.000    2.667    9.333    0.000    0.000    0.167 
#
# Total GULP energy -534611.706018 kJ/mol
# GULP energy per Si atom -5568.871938 kJ/mol
# Density = 1.926452 g / cm^3
# Si number density = 19.308467 Si / 1000 Ang^3
#
#
#
# Elastic Constant Matrix: (Units=GPa)
#
#
# Indices 1 2 3 4 5 6 
#
# 1 35.0270 37.7518 19.9428 0.0000 0.0000 0.0000
# 2 37.7518 35.0283 19.9438 0.0000 0.0000 0.0000
# 3 19.9428 19.9438 94.1077 0.0000 0.0000 0.0000
# 4 0.0000 0.0000 0.0000 23.3396 0.0000 0.0000
# 5 0.0000 0.0000 0.0000 0.0000 23.3394 0.0000
# 6 0.0000 0.0000 0.0000 0.0000 0.0000 0.7197
#
#
#
# Elastic Compliance Matrix: (Units=1/GPa)
#
#
# Indices 1 2 3 4 5 6 
#
# 1 -0.175776 0.191319 -0.003296 0.000000 0.000000 0.000000
# 2 0.191319 -0.175771 -0.003293 0.000000 0.000000 0.000000
# 3 -0.003296 -0.003293 0.012022 0.000000 0.000000 0.000000
# 4 0.000000 0.000000 0.000000 0.042846 0.000000 0.000000
# 5 0.000000 0.000000 0.000000 0.000000 0.042846 0.000000
# 6 0.000000 0.000000 0.000000 0.000000 0.000000 1.389519
#
#
# Mechanical properties :
#
#
# Convention : Reuss Voigt Hill
#
# Bulk Modulus (GPa) = 33.40459 35.49331 34.44895
# Shear Modulus (GPa) = 6.44160 15.24804 10.84482
#
# Velocity S-wave (km/s) = 1.82850 2.81322 2.37251
# Velocity P-wave (km/s) = 4.66861 5.38279 5.03837
#
# Compressibility (1/GPa) = 0.02993600
#
# Stress axis : x y z
#
# Youngs Moduli (GPa) = -5.68907 -5.68922 83.17777
#
# Poissons Ratio (x) = 1.08846 0.27415
# Poissons Ratio (y) = 1.08843 0.27390
# Poissons Ratio (z) = -0.01875 -0.01873
#
# Static dielectric constant tensor:
#      x y z
#    x 1.721850 0.000000 0.000000 
#    y 0.000000 1.721850 0.000000 
#    z 0.000000 0.000000 1.913380 
# 
# From -- ./inp_files/3202.got.cif
#   From: 2010.05.17/outbox.cif.g08.bks.cpg/sg134_2_cif.got.tgz:3202.got - 2010.05.20 12:42:49.
