data_PCOD9568988
_publ_section_title
;
Structure prediction by ZEFSAII (Michael W. Deem and Ramdas Pophale) SiO2 
 PCOD9568988
Probable space group: P 42/M B C
;
_chemical_formula_sum "Si O2"
_cell_formula_units_Z 88
_cell_length_a 13.895593
_cell_length_b 13.895593
_cell_length_c 21.202554
_cell_angle_alpha 90.000000
_cell_angle_beta 90.000000
_cell_angle_gamma 90.000000
_cell_volume 4093.948248
_symmetry_space_group_name_H-M "P 42/M B C"
_symmetry_group_IT_number 135
_symmetry_cell_setting 'tetragonal'
loop_
_space_group_symop_operation_xyz
x,y,z
-y,x,1/2+z
-x,-y,z
y,-x,1/2+z
1/2+x,1/2-y,-z
1/2-x,1/2+y,-z
1/2+y,1/2+x,1/2-z
1/2-y,1/2-x,1/2-z
-x,-y,-z
y,-x,1/2-z
x,y,-z
-y,x,1/2-z
1/2-x,1/2+y,z
1/2+x,1/2-y,z
1/2-y,1/2-x,1/2+z
1/2+y,1/2+x,1/2+z
loop_
_atom_site_type_symbol
_atom_site_label
_atom_site_fract_x
_atom_site_fract_y
_atom_site_fract_z
Si Si1 0.100251 0.555909 0.110729
Si Si2 0.855184 0.082911 0.121679
Si Si3 0.246715 0.015640 0.357295
Si Si4 0.192924 0.279919 0.179905
Si Si5 0.250528 0.995762 0.000000
Si Si6 0.240492 0.058948 0.790874
O O1 0.075727 0.669015 0.109693
O O2 0.159536 0.533123 0.174578
O O3 0.000000 0.500000 0.108784
O O4 0.170739 0.526543 0.054895
O O5 0.954110 0.141882 0.118496
O O6 0.775145 0.162472 0.143313
O O7 0.824387 0.037817 0.055999
O O8 0.843682 0.003573 0.176626
O O9 0.245644 0.041016 0.282978
O O10 0.274365 0.903932 0.360606
O O11 0.176469 0.323532 0.250000
O O12 0.222548 0.170397 0.194302
#
# Coordination Sequence:
#
# PCOD9568988 Si02
#       6
#    16  16  16  16   8  16
#     4  11  23  38  67  99 133 182 236 298 359 422
#     4  11  24  44  66  98 140 189 237 297 356 432
#     4  12  22  37  67 101 138 181 235 291 374 431
#     4  12  22  40  64 101 143 177 230 297 366 427
#     4  10  25  46  64  91 139 182 236 288 346 434
#     4  11  21  40  64  98 143 179 229 300 362 432
#
# _framework density 21.495142999999999
#
# number of rings (size 3 to 8) (size 9 to 14) (size 15 to 20)
#    0.000    0.727    5.455    3.000    0.000    2.182 
#    0.000    2.727    0.000    4.364    0.000    0.000 
#    0.000    0.000    0.000    0.000    0.000    0.000 
#
# Total GULP energy -490272.601726 kJ/mol
# GULP energy per Si atom -5571.279565 kJ/mol
# Density = 2.144622 g / cm^3
# Si number density = 21.495143 Si / 1000 Ang^3
#
#
#
# Elastic Constant Matrix: (Units=GPa)
#
#
# Indices 1 2 3 4 5 6 
#
# 1 39.5941 27.5351 8.0682 0.0000 0.0000 0.0000
# 2 27.5351 39.5954 8.0688 0.0000 0.0000 0.0000
# 3 8.0682 8.0688 94.6675 0.0000 0.0000 0.0000
# 4 0.0000 0.0000 0.0000 2.6919 0.0000 0.0000
# 5 0.0000 0.0000 0.0000 0.0000 2.6919 0.0000
# 6 0.0000 0.0000 0.0000 0.0000 0.0000 26.2593
#
#
#
# Elastic Compliance Matrix: (Units=1/GPa)
#
#
# Indices 1 2 3 4 5 6 
#
# 1 0.049065 -0.033856 -0.001296 0.000000 0.000000 0.000000
# 2 -0.033856 0.049064 -0.001296 0.000000 0.000000 0.000000
# 3 -0.001296 -0.001296 0.010784 0.000000 0.000000 0.000000
# 4 0.000000 0.000000 0.000000 0.371491 0.000000 0.000000
# 5 0.000000 0.000000 0.000000 0.000000 0.371484 0.000000
# 6 0.000000 0.000000 0.000000 0.000000 0.000000 0.038082
#
#
# Mechanical properties :
#
#
# Convention : Reuss Voigt Hill
#
# Bulk Modulus (GPa) = 27.76569 29.02236 28.39403
# Shear Modulus (GPa) = 5.12887 15.00761 10.06824
#
# Velocity S-wave (km/s) = 1.54636 2.64519 2.16659
# Velocity P-wave (km/s) = 4.01666 4.78126 4.41554
#
# Compressibility (1/GPa) = 0.03601567
#
# Stress axis : x y z
#
# Youngs Moduli (GPa) = 20.38099 20.38163 92.72797
#
# Poissons Ratio (x) = 0.69005 0.12018
# Poissons Ratio (y) = 0.69003 0.12021
# Poissons Ratio (z) = 0.02641 0.02642
#
# Static dielectric constant tensor:
#      x y z
#    x 1.829180 0.000000 0.000000 
#    y 0.000000 1.829180 0.000000 
#    z 0.000000 0.000000 1.722470 
# 
# From -- ./inp_files/5313.got.cif
#   From: 2010.05.17/outbox.cif.g08.bks.cpg/sg135_3_cif.got.tgz:5313.got - 2010.05.20 12:50:20.
