data_PCOD9568728
_publ_section_title
;
Structure prediction by ZEFSAII (Michael W. Deem and Ramdas Pophale) SiO2 
 PCOD9568728
Probable space group: P 42/M B C
;
_chemical_formula_sum "Si O2"
_cell_formula_units_Z 96
_cell_length_a 25.921363
_cell_length_b 25.921363
_cell_length_c 8.872733
_cell_angle_alpha 90.000000
_cell_angle_beta 90.000000
_cell_angle_gamma 90.000000
_cell_volume 5961.740670
_symmetry_space_group_name_H-M "P 42/M B C"
_symmetry_group_IT_number 135
_symmetry_cell_setting 'tetragonal'
loop_
_space_group_symop_operation_xyz
x,y,z
-y,x,1/2+z
-x,-y,z
y,-x,1/2+z
1/2+x,1/2-y,-z
1/2-x,1/2+y,-z
1/2+y,1/2+x,1/2-z
1/2-y,1/2-x,1/2-z
-x,-y,-z
y,-x,1/2-z
x,y,-z
-y,x,1/2-z
1/2-x,1/2+y,z
1/2+x,1/2-y,z
1/2-y,1/2-x,1/2+z
1/2+y,1/2+x,1/2+z
loop_
_atom_site_type_symbol
_atom_site_label
_atom_site_fract_x
_atom_site_fract_y
_atom_site_fract_z
Si Si1 0.560548 0.363028 0.319416
Si Si2 0.059133 0.638303 0.180487
Si Si3 0.058004 0.252194 0.319565
Si Si4 0.439242 0.358008 0.679930
Si Si5 0.438102 0.858616 0.818977
Si Si6 0.556563 0.747629 0.180878
O O1 0.564107 0.370479 0.500000
O O2 0.580009 0.304686 0.285729
O O3 0.594620 0.405064 0.235790
O O4 0.499733 0.365878 0.278591
O O5 0.094141 0.594141 0.250000
O O6 0.079182 0.696054 0.219573
O O7 0.998611 0.634875 0.224758
O O8 0.060524 0.633869 0.000000
O O9 0.056629 0.258171 0.500000
O O10 0.080878 0.303276 0.244165
O O11 0.000151 0.249308 0.254279
O O12 0.437241 0.352745 0.500000
O O13 0.419572 0.304758 0.755047
O O14 0.403778 0.903778 0.750000
O O15 0.435357 0.858528 0.000000
O O16 0.552422 0.744481 0.000000
#
# Coordination Sequence:
#
# PCOD9568728 Si02
#       6
#    16  16  16  16  16  16
#     4   9  19  33  48  70  99 128 158 195 239 284
#     4   9  19  32  48  71  97 127 160 194 237 285
#     4   9  17  31  50  71  94 124 163 201 237 283
#     4  10  20  32  49  73  97 127 164 197 237 286
#     4  10  20  33  49  72  99 129 163 198 241 287
#     4   9  17  31  49  69  94 125 161 199 238 281
#
# _framework density 16.102679999999999
#
# number of rings (size 3 to 8) (size 9 to 14) (size 15 to 20)
#    0.000    2.667    0.000    4.000    0.000    8.667 
#    0.000    3.333    0.000    1.000    0.000    4.667 
#    0.000    0.000    0.000    0.000    0.000    0.000 
#
# Total GULP energy -534548.311889 kJ/mol
# GULP energy per Si atom -5568.211582 kJ/mol
# Density = 1.606603 g / cm^3
# Si number density = 16.102680 Si / 1000 Ang^3
#
#
#
# Elastic Constant Matrix: (Units=GPa)
#
#
# Indices 1 2 3 4 5 6 
#
# 1 89.3300 72.5988 43.3769 0.0000 0.0000 0.0000
# 2 72.5988 89.3300 43.3769 0.0000 0.0000 0.0000
# 3 43.3769 43.3769 50.9842 0.0000 0.0000 0.0000
# 4 0.0000 0.0000 0.0000 29.6891 0.0000 0.0000
# 5 0.0000 0.0000 0.0000 0.0000 29.6891 0.0000
# 6 0.0000 0.0000 0.0000 0.0000 0.0000 -3.0932
#
#
#
# Elastic Compliance Matrix: (Units=1/GPa)
#
#
# Indices 1 2 3 4 5 6 
#
# 1 0.035558 -0.024210 -0.009655 0.000000 0.000000 0.000000
# 2 -0.024210 0.035558 -0.009655 0.000000 0.000000 0.000000
# 3 -0.009655 -0.009655 0.036043 0.000000 0.000000 0.000000
# 4 0.000000 0.000000 0.000000 0.033682 0.000000 0.000000
# 5 0.000000 0.000000 0.000000 0.000000 0.033682 0.000000
# 6 0.000000 0.000000 0.000000 0.000000 0.000000 -0.323293
#
#
# Mechanical properties :
#
#
# Convention : Reuss Voigt Hill
#
# Bulk Modulus (GPa) = 49.70374 60.92770 55.31572
# Shear Modulus (GPa) = -90.87191 15.94312 -37.46439
#
# Velocity S-wave (km/s) = -7.52033 3.14999 -4.82871
# Velocity P-wave (km/s) = 6.66883 7.15185 1.82698
#
# Compressibility (1/GPa) = 0.02011921
#
# Stress axis : x y z
#
# Youngs Moduli (GPa) = 28.12271 28.12271 27.74495
#
# Poissons Ratio (x) = 0.68086 0.26788
# Poissons Ratio (y) = 0.68086 0.26788
# Poissons Ratio (z) = 0.27152 0.27152
#
# Static dielectric constant tensor:
#      x y z
#    x 1.567240 0.000000 0.000000 
#    y 0.000000 1.567240 0.000000 
#    z 0.000000 0.000000 1.535740 
# 
# From -- ./inp_files/1279.got.cif
#   From: 2010.05.17/outbox.cif.g08.bks.cpg/sg135_1_cif.got.tgz:1279.got - 2010.05.20 12:50:20.
