data_PCOD9568978
_publ_section_title
;
Structure prediction by ZEFSAII (Michael W. Deem and Ramdas Pophale) SiO2 
 PCOD9568978
Probable space group: P 42/M B C
;
_chemical_formula_sum "Si O2"
_cell_formula_units_Z 48
_cell_length_a 14.421097
_cell_length_b 14.421097
_cell_length_c 9.746544
_cell_angle_alpha 90.000000
_cell_angle_beta 90.000000
_cell_angle_gamma 90.000000
_cell_volume 2026.969640
_symmetry_space_group_name_H-M "P 42/M B C"
_symmetry_group_IT_number 135
_symmetry_cell_setting 'tetragonal'
loop_
_space_group_symop_operation_xyz
x,y,z
-y,x,1/2+z
-x,-y,z
y,-x,1/2+z
1/2+x,1/2-y,-z
1/2-x,1/2+y,-z
1/2+y,1/2+x,1/2-z
1/2-y,1/2-x,1/2-z
-x,-y,-z
y,-x,1/2-z
x,y,-z
-y,x,1/2-z
1/2-x,1/2+y,z
1/2+x,1/2-y,z
1/2-y,1/2-x,1/2+z
1/2+y,1/2+x,1/2+z
loop_
_atom_site_type_symbol
_atom_site_label
_atom_site_fract_x
_atom_site_fract_y
_atom_site_fract_z
Si Si1 0.500000 0.500000 0.250000
Si Si2 0.442620 0.788123 0.500000
Si Si3 0.968052 0.275153 0.000000
Si Si4 0.194085 0.076284 0.208258
Si Si5 0.188227 0.233784 0.000000
Si Si6 0.500000 0.000000 0.500000
O O1 0.553763 0.585495 0.319052
O O2 0.493270 0.747574 0.367546
O O3 0.334577 0.767559 0.500000
O O4 0.459246 0.897283 0.500000
O O5 0.926070 0.227159 0.864334
O O6 0.077616 0.251065 0.000000
O O7 0.957833 0.387511 0.000000
O O8 0.214136 0.171540 0.130604
#
# Coordination Sequence:
#
# PCOD9568978 Si02
#       6
#     4   8   8  16   8   4
#     4  12  24  50  76 110 156 190 256 326 392 470
#     4  10  26  51  74 111 151 204 255 326 380 479
#     4  11  24  47  76 112 146 202 249 330 381 461
#     4  11  25  48  76 114 147 203 254 314 402 459
#     4  10  23  49  72 110 153 203 255 308 392 470
#     4  10  26  52  80  98 156 186 266 310 390 444
#
# _framework density 23.680669999999999
#
# number of rings (size 3 to 8) (size 9 to 14) (size 15 to 20)
#    0.000    1.333    3.333    0.000    0.000   14.000 
#   18.000    1.667    0.000    0.000    0.000    0.000 
#    0.000    0.000    0.000    0.000    0.000    0.000 
#
# Total GULP energy -267656.912038 kJ/mol
# GULP energy per Si atom -5576.185667 kJ/mol
# Density = 2.362677 g / cm^3
# Si number density = 23.680670 Si / 1000 Ang^3
#
#
#
# Elastic Constant Matrix: (Units=GPa)
#
#
# Indices 1 2 3 4 5 6 
#
# 1 192.1313 43.3875 72.0513 0.0000 0.0000 0.0000
# 2 43.3875 192.1313 72.0513 0.0000 0.0000 0.0000
# 3 72.0513 72.0513 196.2350 0.0000 0.0000 0.0000
# 4 0.0000 0.0000 0.0000 -9.3624 0.0000 0.0000
# 5 0.0000 0.0000 0.0000 0.0000 -9.3624 0.0000
# 6 0.0000 0.0000 0.0000 0.0000 0.0000 45.7683
#
#
#
# Elastic Compliance Matrix: (Units=1/GPa)
#
#
# Indices 1 2 3 4 5 6 
#
# 1 0.006100 -0.000623 -0.002011 0.000000 0.000000 0.000000
# 2 -0.000623 0.006100 -0.002011 0.000000 0.000000 0.000000
# 3 -0.002011 -0.002011 0.006572 0.000000 0.000000 0.000000
# 4 0.000000 0.000000 0.000000 -0.106810 0.000000 0.000000
# 5 0.000000 0.000000 0.000000 0.000000 -0.106810 0.000000
# 6 0.000000 0.000000 0.000000 0.000000 0.000000 0.021849
#
#
# Mechanical properties :
#
#
# Convention : Reuss Voigt Hill
#
# Bulk Modulus (GPa) = 105.46199 106.16420 105.81309
# Shear Modulus (GPa) = -31.14311 31.60920 0.23305
#
# Velocity S-wave (km/s) = -3.63040 3.65747 0.31405
# Velocity P-wave (km/s) = 5.20179 7.92244 6.70163
#
# Compressibility (1/GPa) = 0.00948209
#
# Stress axis : x y z
#
# Youngs Moduli (GPa) = 163.94580 163.94580 152.15022
#
# Poissons Ratio (x) = 0.10220 0.30593
# Poissons Ratio (y) = 0.10220 0.30593
# Poissons Ratio (z) = 0.32964 0.32964
#
# Static dielectric constant tensor:
#      x y z
#    x 1.924150 0.000000 0.000000 
#    y 0.000000 1.924150 0.000000 
#    z 0.000000 0.000000 1.900470 
# 
# From -- ./inp_files/2033.got.cif
#   From: 2010.05.17/outbox.cif.g08.bks.cpg/sg135_2_cif.got.tgz:2033.got - 2010.05.20 12:50:20.
