data_PCOD9568974
_publ_section_title
;
Structure prediction by ZEFSAII (Michael W. Deem and Ramdas Pophale) SiO2 
 PCOD9568974
Probable space group: P 42/M B C
;
_chemical_formula_sum "Si O2"
_cell_formula_units_Z 64
_cell_length_a 13.590203
_cell_length_b 13.590203
_cell_length_c 14.088467
_cell_angle_alpha 90.000000
_cell_angle_beta 90.000000
_cell_angle_gamma 90.000000
_cell_volume 2602.049936
_symmetry_space_group_name_H-M "P 42/M B C"
_symmetry_group_IT_number 135
_symmetry_cell_setting 'tetragonal'
loop_
_space_group_symop_operation_xyz
x,y,z
-y,x,1/2+z
-x,-y,z
y,-x,1/2+z
1/2+x,1/2-y,-z
1/2-x,1/2+y,-z
1/2+y,1/2+x,1/2-z
1/2-y,1/2-x,1/2-z
-x,-y,-z
y,-x,1/2-z
x,y,-z
-y,x,1/2-z
1/2-x,1/2+y,z
1/2+x,1/2-y,z
1/2-y,1/2-x,1/2+z
1/2+y,1/2+x,1/2+z
loop_
_atom_site_type_symbol
_atom_site_label
_atom_site_fract_x
_atom_site_fract_y
_atom_site_fract_z
Si Si1 0.299665 0.547483 0.300139
Si Si2 0.391915 0.960150 0.613150
Si Si3 0.597869 0.630937 0.606211
Si Si4 0.245425 0.306868 0.107953
O O1 0.189568 0.517195 0.327411
O O2 0.327334 0.532237 0.190715
O O3 0.369484 0.478845 0.364386
O O4 0.310680 0.662043 0.324051
O O5 0.370260 0.973617 0.500000
O O6 0.500000 0.000000 0.631349
O O7 0.379123 0.844404 0.632172
O O8 0.557308 0.634816 0.500000
O O9 0.698440 0.695552 0.607651
O O10 0.278507 0.325704 0.000000
#
# Coordination Sequence:
#
# PCOD9568974 Si02
#       4
#    16  16  16  16
#     4  11  21  42  73 100 144 201 246 306 388 462
#     4   9  19  39  72 115 155 192 252 324 385 455
#     4  10  23  43  69 103 142 187 246 309 371 456
#     4   9  18  38  69 104 144 191 242 303 381 454
#
# _framework density 24.595993
#
# number of rings (size 3 to 8) (size 9 to 14) (size 15 to 20)
#    0.000    2.250    0.000    4.500    0.000    0.500 
#    9.000    5.000    0.000    6.750    0.000    0.000 
#    0.000    0.000    0.000    0.000    0.000    0.000 
#
# Total GULP energy -359060.708911 kJ/mol
# GULP energy per Si atom -5610.323577 kJ/mol
# Density = 2.454001 g / cm^3
# Si number density = 24.595993 Si / 1000 Ang^3
#
#
#
# Elastic Constant Matrix: (Units=GPa)
#
#
# Indices 1 2 3 4 5 6 
#
# 1 103.5644 45.6335 59.2532 0.0000 0.0000 0.0000
# 2 45.6335 103.5644 59.2532 0.0000 0.0000 0.0000
# 3 59.2532 59.2532 198.8441 0.0000 0.0000 0.0000
# 4 0.0000 0.0000 0.0000 34.6451 0.0000 0.0000
# 5 0.0000 0.0000 0.0000 0.0000 34.6451 0.0000
# 6 0.0000 0.0000 0.0000 0.0000 0.0000 27.3336
#
#
#
# Elastic Compliance Matrix: (Units=1/GPa)
#
#
# Indices 1 2 3 4 5 6 
#
# 1 0.013021 -0.004241 -0.002617 0.000000 0.000000 0.000000
# 2 -0.004241 0.013021 -0.002617 0.000000 0.000000 0.000000
# 3 -0.002617 -0.002617 0.006588 0.000000 0.000000 0.000000
# 4 0.000000 0.000000 0.000000 0.028864 0.000000 0.000000
# 5 0.000000 0.000000 0.000000 0.000000 0.028864 0.000000
# 6 0.000000 0.000000 0.000000 0.000000 0.000000 0.036585
#
#
# Mechanical properties :
#
#
# Convention : Reuss Voigt Hill
#
# Bulk Modulus (GPa) = 73.07904 81.58366 77.33135
# Shear Modulus (GPa) = 33.23291 35.44695 34.33993
#
# Velocity S-wave (km/s) = 3.67979 3.80039 3.74058
# Velocity P-wave (km/s) = 6.91598 7.24560 7.08271
#
# Compressibility (1/GPa) = 0.01368382
#
# Stress axis : x y z
#
# Youngs Moduli (GPa) = 76.79663 76.79663 151.77983
#
# Poissons Ratio (x) = 0.32566 0.39715
# Poissons Ratio (y) = 0.32566 0.39715
# Poissons Ratio (z) = 0.20095 0.20095
#
# Static dielectric constant tensor:
#      x y z
#    x 1.914100 0.000000 0.000000 
#    y 0.000000 1.914100 0.000000 
#    z 0.000000 0.000000 1.984520 
# 
# From -- ./inp_files/3176.got.cif
#   From: 2010.05.17/outbox.cif.g08.bks.cpg/sg135_2_cif.got.tgz:3176.got - 2010.05.20 12:50:20.
