data_PCOD9568205
_publ_section_title
;
Structure prediction by ZEFSAII (Michael W. Deem and Ramdas Pophale) SiO2 
 PCOD9568205
Probable space group: P 42/N N M
;
_chemical_formula_sum "Si O2"
_cell_formula_units_Z 96
_cell_length_a 17.784446
_cell_length_b 17.784446
_cell_length_c 14.598534
_cell_angle_alpha 90.000000
_cell_angle_beta 90.000000
_cell_angle_gamma 90.000000
_cell_volume 4617.319509
_symmetry_space_group_name_H-M "P 42/N N M"
_symmetry_group_IT_number 134
_space_group.IT_coordinate_system_code '2'
_symmetry_cell_setting 'tetragonal'
loop_
_space_group_symop_operation_xyz
x,y,z
1/2-y,x,1/2+z
1/2-x,1/2-y,z
y,1/2-x,1/2+z
x,1/2-y,1/2-z
1/2-x,y,1/2-z
y,x,-z
1/2-y,1/2-x,-z
-x,-y,-z
1/2+y,-x,1/2-z
1/2+x,1/2+y,-z
-y,1/2+x,1/2-z
-x,1/2+y,1/2+z
1/2+x,-y,1/2+z
-y,-x,z
1/2+y,1/2+x,z
loop_
_atom_site_type_symbol
_atom_site_label
_atom_site_fract_x
_atom_site_fract_y
_atom_site_fract_z
Si Si1 0.551018 0.665272 0.261240
Si Si2 0.254670 0.461946 0.955811
Si Si3 0.885486 0.996032 0.557507
Si Si4 0.056304 0.676290 0.795438
Si Si5 0.331066 0.214905 0.158084
Si Si6 0.033720 0.090216 0.134324
O O1 0.519565 0.750000 0.250000
O O2 0.509716 0.610273 0.332634
O O3 0.628976 0.676495 0.315963
O O4 0.567675 0.617455 0.168795
O O5 0.210945 0.505625 0.874403
O O6 0.235356 0.376384 0.931804
O O7 0.344335 0.469500 0.943434
O O8 0.203931 0.489534 0.039291
O O9 0.931144 0.931144 0.500000
O O10 0.927345 0.072656 0.529492
O O11 0.092730 0.750000 0.750000
O O12 0.118640 0.618640 0.828722
O O13 0.005477 0.631747 0.721738
O O14 0.250000 0.250000 0.150984
O O15 0.368944 0.250000 0.250000
O O16 0.981709 0.018292 0.112113
#
# Coordination Sequence:
#
# PCOD9568205 Si02
#       6
#    16  16  16  16  16  16
#     4  12  21  35  56  82 118 160 199 241 287 357
#     4  11  18  33  52  78 116 153 192 238 296 357
#     4  11  23  37  58  89 121 150 191 253 313 358
#     4   9  16  26  45  71 104 145 187 232 287 350
#     4  11  17  29  50  76 115 161 195 228 277 352
#     4  10  19  33  55  80 110 152 199 240 289 354
#
# _framework density 20.791284000000001
#
# number of rings (size 3 to 8) (size 9 to 14) (size 15 to 20)
#    0.000    1.333    6.667    1.500    0.000    2.833 
#    0.000    4.167    0.000    4.500    0.000    0.000 
#    0.000    3.000    0.000    0.000    0.000    0.000 
#
# Total GULP energy -535434.793553 kJ/mol
# GULP energy per Si atom -5577.445766 kJ/mol
# Density = 2.074396 g / cm^3
# Si number density = 20.791284 Si / 1000 Ang^3
#
#
#
# Elastic Constant Matrix: (Units=GPa)
#
#
# Indices 1 2 3 4 5 6 
#
# 1 93.3353 60.2366 17.4784 0.0000 0.0000 0.0000
# 2 60.2366 93.3353 17.4784 0.0000 0.0000 0.0000
# 3 17.4784 17.4784 50.6093 0.0000 0.0000 0.0000
# 4 0.0000 0.0000 0.0000 34.1330 0.0000 0.0000
# 5 0.0000 0.0000 0.0000 0.0000 34.1330 0.0000
# 6 0.0000 0.0000 0.0000 0.0000 0.0000 31.1455
#
#
#
# Elastic Compliance Matrix: (Units=1/GPa)
#
#
# Indices 1 2 3 4 5 6 
#
# 1 0.018640 -0.011573 -0.002441 0.000000 0.000000 0.000000
# 2 -0.011573 0.018640 -0.002441 0.000000 0.000000 0.000000
# 3 -0.002441 -0.002441 0.021445 0.000000 0.000000 0.000000
# 4 0.000000 0.000000 0.000000 0.029297 0.000000 0.000000
# 5 0.000000 0.000000 0.000000 0.000000 0.029297 0.000000
# 6 0.000000 0.000000 0.000000 0.000000 0.000000 0.032107
#
#
# Mechanical properties :
#
#
# Convention : Reuss Voigt Hill
#
# Bulk Modulus (GPa) = 38.73487 47.51855 43.12671
# Shear Modulus (GPa) = 26.18618 29.35475 27.77047
#
# Velocity S-wave (km/s) = 3.55276 3.76157 3.65866
# Velocity P-wave (km/s) = 5.95821 6.46301 6.21574
#
# Compressibility (1/GPa) = 0.02581653
#
# Stress axis : x y z
#
# Youngs Moduli (GPa) = 53.64826 53.64826 46.63082
#
# Poissons Ratio (x) = 0.62086 0.11381
# Poissons Ratio (y) = 0.62086 0.11381
# Poissons Ratio (z) = 0.13094 0.13094
#
# Static dielectric constant tensor:
#      x y z
#    x 1.770450 0.000000 0.000000 
#    y 0.000000 1.770450 0.000000 
#    z 0.000000 0.000000 1.867350 
# 
# From -- ./inp_files/7866.got.cif
#   From: 2010.05.17/outbox.cif.g08.bks.cpg/sg134_4_cif.got.tgz:7866.got - 2010.05.20 12:42:49.
