data_PCOD9568346
_publ_section_title
;
Structure prediction by ZEFSAII (Michael W. Deem and Ramdas Pophale) SiO2 
 PCOD9568346
Probable space group: P 42/N N M
;
_chemical_formula_sum "Si O2"
_cell_formula_units_Z 56
_cell_length_a 12.039043
_cell_length_b 12.039043
_cell_length_c 20.496191
_cell_angle_alpha 90.000000
_cell_angle_beta 90.000000
_cell_angle_gamma 90.000000
_cell_volume 2970.688334
_symmetry_space_group_name_H-M "P 42/N N M"
_symmetry_group_IT_number 134
_space_group.IT_coordinate_system_code '2'
_symmetry_cell_setting 'tetragonal'
loop_
_space_group_symop_operation_xyz
x,y,z
1/2-y,x,1/2+z
1/2-x,1/2-y,z
y,1/2-x,1/2+z
x,1/2-y,1/2-z
1/2-x,y,1/2-z
y,x,-z
1/2-y,1/2-x,-z
-x,-y,-z
1/2+y,-x,1/2-z
1/2+x,1/2+y,-z
-y,1/2+x,1/2-z
-x,1/2+y,1/2+z
1/2+x,-y,1/2+z
-y,-x,z
1/2+y,1/2+x,z
loop_
_atom_site_type_symbol
_atom_site_label
_atom_site_fract_x
_atom_site_fract_y
_atom_site_fract_z
Si Si1 0.307684 0.373016 0.687671
Si Si2 0.172005 0.482391 0.954228
Si Si3 0.000446 0.250000 0.750000
Si Si4 0.839870 0.339870 0.642514
Si Si5 0.906894 0.093107 0.997707
O O1 0.250000 0.250000 0.678508
O O2 0.250000 0.431290 0.750000
O O3 0.311593 0.433772 0.618796
O O4 0.426186 0.346581 0.718893
O O5 0.079327 0.579327 0.954308
O O6 0.117147 0.382854 0.000000
O O7 0.289644 0.540746 0.975317
O O8 0.929023 0.286101 0.689275
O O9 0.750000 0.250000 0.622072
O O10 0.888757 0.388757 0.578308
O O11 0.000000 0.000000 0.000000
#
# Coordination Sequence:
#
# PCOD9568346 Si02
#       5
#    16  16   8   8   8
#     4   9  22  40  63  93 133 172 220 284 328 421
#     4  11  25  46  70  98 135 187 225 292 358 415
#     4  10  20  36  64  98 132 164 214 288 354 402
#     4  12  22  40  62 102 133 168 216 292 352 395
#     4  12  30  42  70 100 142 185 240 291 331 446
#
# _framework density 18.850850999999999
#
# number of rings (size 3 to 8) (size 9 to 14) (size 15 to 20)
#    0.000    1.714    1.429    3.000   14.000    2.286 
#    2.571    0.000    0.000    0.000    0.000    0.000 
#    0.000    0.000    0.000    0.000    0.000    0.000 
#
# Total GULP energy -311765.731025 kJ/mol
# GULP energy per Si atom -5567.245197 kJ/mol
# Density = 1.880795 g / cm^3
# Si number density = 18.850851 Si / 1000 Ang^3
#
#
#
# Elastic Constant Matrix: (Units=GPa)
#
#
# Indices 1 2 3 4 5 6 
#
# 1 95.4030 53.0416 63.6548 0.0000 0.0000 0.0000
# 2 53.0416 95.4045 63.6550 0.0000 0.0000 0.0000
# 3 63.6548 63.6550 192.6904 0.0000 0.0000 0.0000
# 4 0.0000 0.0000 0.0000 32.0765 0.0000 0.0000
# 5 0.0000 0.0000 0.0000 0.0000 32.0759 0.0000
# 6 0.0000 0.0000 0.0000 0.0000 0.0000 29.7867
#
#
#
# Elastic Compliance Matrix: (Units=1/GPa)
#
#
# Indices 1 2 3 4 5 6 
#
# 1 0.016503 -0.007103 -0.003105 0.000000 0.000000 0.000000
# 2 -0.007103 0.016503 -0.003105 0.000000 0.000000 0.000000
# 3 -0.003105 -0.003105 0.007241 0.000000 0.000000 0.000000
# 4 0.000000 0.000000 0.000000 0.031176 0.000000 0.000000
# 5 0.000000 0.000000 0.000000 0.000000 0.031176 0.000000
# 6 0.000000 0.000000 0.000000 0.000000 0.000000 0.033572
#
#
# Mechanical properties :
#
#
# Convention : Reuss Voigt Hill
#
# Bulk Modulus (GPa) = 73.42270 82.68896 78.05583
# Shear Modulus (GPa) = 29.87982 32.33092 31.10537
#
# Velocity S-wave (km/s) = 3.98561 4.14586 4.06652
# Velocity P-wave (km/s) = 7.75976 8.17787 7.97156
#
# Compressibility (1/GPa) = 0.01361977
#
# Stress axis : x y z
#
# Youngs Moduli (GPa) = 60.59552 60.59658 138.09862
#
# Poissons Ratio (x) = 0.43043 0.42882
# Poissons Ratio (y) = 0.43042 0.42881
# Poissons Ratio (z) = 0.18816 0.18816
#
# Static dielectric constant tensor:
#      x y z
#    x 1.789180 0.000000 0.000000 
#    y 0.000000 1.789170 0.000000 
#    z 0.000000 0.000000 1.642750 
# 
# From -- ./inp_files/8624.got.cif
#   From: 2010.05.17/outbox.cif.g08.bks.cpg/sg134_5_cif.got.tgz:8624.got - 2010.05.20 12:42:49.
