data_PCOD9568610
_publ_section_title
;
Structure prediction by ZEFSAII (Michael W. Deem and Ramdas Pophale) SiO2 
 PCOD9568610
Probable space group: P 42/M B C
;
_chemical_formula_sum "Si O2"
_cell_formula_units_Z 56
_cell_length_a 12.423849
_cell_length_b 12.423849
_cell_length_c 14.518675
_cell_angle_alpha 90.000000
_cell_angle_beta 90.000000
_cell_angle_gamma 90.000000
_cell_volume 2240.986872
_symmetry_space_group_name_H-M "P 42/M B C"
_symmetry_group_IT_number 135
_symmetry_cell_setting 'tetragonal'
loop_
_space_group_symop_operation_xyz
x,y,z
-y,x,1/2+z
-x,-y,z
y,-x,1/2+z
1/2+x,1/2-y,-z
1/2-x,1/2+y,-z
1/2+y,1/2+x,1/2-z
1/2-y,1/2-x,1/2-z
-x,-y,-z
y,-x,1/2-z
x,y,-z
-y,x,1/2-z
1/2-x,1/2+y,z
1/2+x,1/2-y,z
1/2-y,1/2-x,1/2+z
1/2+y,1/2+x,1/2+z
loop_
_atom_site_type_symbol
_atom_site_label
_atom_site_fract_x
_atom_site_fract_y
_atom_site_fract_z
Si Si1 0.242477 0.684225 0.500000
Si Si2 0.794989 0.049681 0.000000
Si Si3 0.043674 0.298699 0.805678
Si Si4 0.612423 0.713956 0.341323
Si Si5 0.088489 0.381723 0.000000
O O1 0.348576 0.612894 0.500000
O O2 0.183217 0.707632 0.594024
O O3 0.329341 0.788958 0.500000
O O4 0.822466 0.985561 0.906975
O O5 0.651325 0.007702 0.000000
O O6 0.112491 0.387510 0.750000
O O7 0.118084 0.192907 0.814828
O O8 0.030198 0.346421 0.908362
O O9 0.940646 0.268333 0.746808
#
# Coordination Sequence:
#
# PCOD9568610 Si02
#       5
#     8   8  16  16   8
#     4   7  15  30  52  82 107 151 204 230 290 354
#     4   9  15  34  58  82 108 156 206 244 283 360
#     4  11  20  35  55  85 118 157 202 242 308 356
#     4  10  18  30  56  85 118 148 194 253 293 363
#     4   8  16  32  52  77 107 146 202 228 277 356
#
# _framework density 24.988992
#
# number of rings (size 3 to 8) (size 9 to 14) (size 15 to 20)
#    0.857    1.714    2.857    0.857    0.000    0.571 
#    0.000    4.286    0.000   11.143    0.000    2.000 
#    0.000    0.000    0.000    0.000    0.000    0.000 
#
# Total GULP energy -311946.795971 kJ/mol
# GULP energy per Si atom -5570.478499 kJ/mol
# Density = 2.493212 g / cm^3
# Si number density = 24.988992 Si / 1000 Ang^3
#
#
#
# Elastic Constant Matrix: (Units=GPa)
#
#
# Indices 1 2 3 4 5 6 
#
# 1 128.7746 8.7931 63.2465 0.0000 0.0000 0.0000
# 2 8.7931 128.7789 63.2473 0.0000 0.0000 0.0000
# 3 63.2465 63.2473 222.6669 0.0000 0.0000 0.0000
# 4 0.0000 0.0000 0.0000 74.4707 0.0000 0.0000
# 5 0.0000 0.0000 0.0000 0.0000 74.4784 0.0000
# 6 0.0000 0.0000 0.0000 0.0000 0.0000 26.0332
#
#
#
# Elastic Compliance Matrix: (Units=1/GPa)
#
#
# Indices 1 2 3 4 5 6 
#
# 1 0.009087 0.000752 -0.002795 0.000000 0.000000 0.000000
# 2 0.000752 0.009086 -0.002795 0.000000 0.000000 0.000000
# 3 -0.002795 -0.002795 0.006079 0.000000 0.000000 0.000000
# 4 0.000000 0.000000 0.000000 0.013428 0.000000 0.000000
# 5 0.000000 0.000000 0.000000 0.000000 0.013427 0.000000
# 6 0.000000 0.000000 0.000000 0.000000 0.000000 0.038412
#
#
# Mechanical properties :
#
#
# Convention : Reuss Voigt Hill
#
# Bulk Modulus (GPa) = 68.59900 83.42158 76.01029
# Shear Modulus (GPa) = 48.05275 57.99203 53.02239
#
# Velocity S-wave (km/s) = 4.38991 4.82259 4.61133
# Velocity P-wave (km/s) = 7.29427 8.02905 7.67046
#
# Compressibility (1/GPa) = 0.01457747
#
# Stress axis : x y z
#
# Youngs Moduli (GPa) = 110.05093 110.05472 164.51210
#
# Poissons Ratio (x) = -0.08277 0.45975
# Poissons Ratio (y) = -0.08277 0.45974
# Poissons Ratio (z) = 0.30755 0.30755
#
# Static dielectric constant tensor:
#      x y z
#    x 2.253450 0.000000 0.000000 
#    y 0.000000 2.253450 0.000000 
#    z 0.000000 0.000000 1.910130 
# 
# From -- ./inp_files/3079.got.cif
#   From: 2010.05.17/outbox.cif.g08.bks.cpg/sg135_2_cif.got.tgz:3079.got - 2010.05.20 12:50:20.
