data_PCOD9568028
_publ_section_title
;
Structure prediction by ZEFSAII (Michael W. Deem and Ramdas Pophale) SiO2 
 PCOD9568028
Probable space group: P 42/N B C
;
_chemical_formula_sum "Si O2"
_cell_formula_units_Z 48
_cell_length_a 10.727245
_cell_length_b 10.727245
_cell_length_c 17.122479
_cell_angle_alpha 90.000000
_cell_angle_beta 90.000000
_cell_angle_gamma 90.000000
_cell_volume 1970.348472
_symmetry_space_group_name_H-M "P 42/N B C"
_symmetry_group_IT_number 133
_space_group.IT_coordinate_system_code '2'
_symmetry_cell_setting 'tetragonal'
loop_
_space_group_symop_operation_xyz
x,y,z
1/2-y,x,1/2+z
1/2-x,1/2-y,z
y,1/2-x,1/2+z
x,1/2-y,-z
1/2-x,y,-z
y,x,1/2-z
1/2-y,1/2-x,1/2-z
-x,-y,-z
1/2+y,-x,1/2-z
1/2+x,1/2+y,-z
-y,1/2+x,1/2-z
-x,1/2+y,z
1/2+x,-y,z
-y,-x,1/2+z
1/2+y,1/2+x,1/2+z
loop_
_atom_site_type_symbol
_atom_site_label
_atom_site_fract_x
_atom_site_fract_y
_atom_site_fract_z
Si Si1 0.966581 0.508011 0.090657
Si Si2 0.270202 0.107705 0.348374
Si Si3 0.561829 0.228495 0.715328
O O1 0.963945 0.655954 0.108230
O O2 0.836804 0.457063 0.131516
O O3 0.062454 0.408558 0.128691
O O4 0.000000 0.500000 0.000000
O O5 0.250000 0.250000 0.369178
O O6 0.247776 0.067326 0.259002
O O7 0.635137 0.356463 0.729782
#
# Coordination Sequence:
#
# PCOD9568028 Si02
#       3
#    16  16  16
#     4  11  25  46  75 112 153 196 257 323 397 462
#     4  11  26  49  76 109 155 205 259 318 390 482
#     4   9  21  45  75 109 147 199 259 313 382 479
#
# _framework density 24.361173000000001
#
# number of rings (size 3 to 8) (size 9 to 14) (size 15 to 20)
#    0.000    1.667    0.000    2.000    4.667    5.333 
#    6.000    0.000    7.333    0.000    0.000    0.000 
#    0.000    0.000    0.000    0.000    0.000    0.000 
#
# Total GULP energy -267900.397639 kJ/mol
# GULP energy per Si atom -5581.258284 kJ/mol
# Density = 2.430573 g / cm^3
# Si number density = 24.361173 Si / 1000 Ang^3
#
#
#
# Elastic Constant Matrix: (Units=GPa)
#
#
# Indices 1 2 3 4 5 6 
#
# 1 154.0426 53.1402 42.5273 0.0000 0.0000 0.0000
# 2 53.1402 154.0426 42.5273 0.0000 0.0000 0.0000
# 3 42.5273 42.5273 172.8328 0.0000 0.0000 0.0000
# 4 0.0000 0.0000 0.0000 25.5874 0.0000 0.0000
# 5 0.0000 0.0000 0.0000 0.0000 25.5874 0.0000
# 6 0.0000 0.0000 0.0000 0.0000 0.0000 44.5405
#
#
#
# Elastic Compliance Matrix: (Units=1/GPa)
#
#
# Indices 1 2 3 4 5 6 
#
# 1 0.007640 -0.002271 -0.001321 0.000000 0.000000 0.000000
# 2 -0.002271 0.007640 -0.001321 0.000000 0.000000 0.000000
# 3 -0.001321 -0.001321 0.006436 0.000000 0.000000 0.000000
# 4 0.000000 0.000000 0.000000 0.039082 0.000000 0.000000
# 5 0.000000 0.000000 0.000000 0.000000 0.039082 0.000000
# 6 0.000000 0.000000 0.000000 0.000000 0.000000 0.022451
#
#
# Mechanical properties :
#
#
# Convention : Reuss Voigt Hill
#
# Bulk Modulus (GPa) = 84.10648 84.14530 84.12589
# Shear Modulus (GPa) = 36.73237 41.99128 39.36183
#
# Velocity S-wave (km/s) = 3.88728 4.15625 4.02401
# Velocity P-wave (km/s) = 7.39917 7.59264 7.49653
#
# Compressibility (1/GPa) = 0.01188969
#
# Stress axis : x y z
#
# Youngs Moduli (GPa) = 130.89371 130.89371 155.37404
#
# Poissons Ratio (x) = 0.29723 0.20526
# Poissons Ratio (y) = 0.29723 0.20526
# Poissons Ratio (z) = 0.17292 0.17292
#
# Static dielectric constant tensor:
#      x y z
#    x 2.015860 0.000000 0.000000 
#    y 0.000000 2.015860 0.000000 
#    z 0.000000 0.000000 1.941910 
# 
# From -- ./inp_files/4969.got.cif
#   From: 2010.05.17/outbox.cif.g08.bks.cpg/sg133_3_cif.got.tgz:4969.got - 2010.05.20 12:37:36.
