data_PCOD9568417
_publ_section_title
;
Structure prediction by ZEFSAII (Michael W. Deem and Ramdas Pophale) SiO2 
 PCOD9568417
Probable space group: P 42/N N M
;
_chemical_formula_sum "Si O2"
_cell_formula_units_Z 58
_cell_length_a 19.100956
_cell_length_b 19.100956
_cell_length_c 9.169475
_cell_angle_alpha 90.000000
_cell_angle_beta 90.000000
_cell_angle_gamma 90.000000
_cell_volume 3345.451045
_symmetry_space_group_name_H-M "P 42/N N M"
_symmetry_group_IT_number 134
_space_group.IT_coordinate_system_code '2'
_symmetry_cell_setting 'tetragonal'
loop_
_space_group_symop_operation_xyz
x,y,z
1/2-y,x,1/2+z
1/2-x,1/2-y,z
y,1/2-x,1/2+z
x,1/2-y,1/2-z
1/2-x,y,1/2-z
y,x,-z
1/2-y,1/2-x,-z
-x,-y,-z
1/2+y,-x,1/2-z
1/2+x,1/2+y,-z
-y,1/2+x,1/2-z
-x,1/2+y,1/2+z
1/2+x,-y,1/2+z
-y,-x,z
1/2+y,1/2+x,z
loop_
_atom_site_type_symbol
_atom_site_label
_atom_site_fract_x
_atom_site_fract_y
_atom_site_fract_z
Si Si1 0.306164 0.806164 0.031693
Si Si2 0.755001 0.035995 0.581043
Si Si3 0.110858 0.007680 0.927186
Si Si4 0.494538 0.109673 0.082683
Si Si5 0.750000 0.250000 0.250000
O O1 0.250000 0.750000 0.087941
O O2 0.297370 0.797370 0.855670
O O3 0.382660 0.779667 0.075086
O O4 0.750000 0.015715 0.750000
O O5 0.682111 0.018940 0.501405
O O6 0.816517 0.996684 0.496546
O O7 0.118119 0.019701 0.754160
O O8 0.076419 0.076419 0.000000
O O9 0.054226 0.945775 0.947156
O O10 0.569183 0.069183 0.069241
O O11 0.439486 0.060515 0.000000
#
# Coordination Sequence:
#
# PCOD9568417 Si02
#       5
#     8  16  16  16   2
#     4  10  24  33  53  78 119 157 195 234 290 351
#     4  12  24  35  57  84 120 155 199 238 297 349
#     4  10  22  38  60  84 114 155 200 247 294 350
#     4  10  21  38  60  83 115 152 200 248 299 351
#     4   8  24  36  50  72 120 148 210 224 300 344
#
# _framework density 17.336974000000001
#
# number of rings (size 3 to 8) (size 9 to 14) (size 15 to 20)
#    0.414    1.103    1.379    3.310    7.724    2.207 
#    0.000    0.000    0.000    0.828    0.000    5.793 
#    0.000    0.000    0.000    0.000    0.000    0.000 
#
# Total GULP energy -323679.624391 kJ/mol
# GULP energy per Si atom -5580.683179 kJ/mol
# Density = 1.729751 g / cm^3
# Si number density = 17.336974 Si / 1000 Ang^3
#
#
#
# Elastic Constant Matrix: (Units=GPa)
#
#
# Indices 1 2 3 4 5 6 
#
# 1 96.8836 53.1854 62.5668 0.0000 0.0000 0.0000
# 2 53.1854 96.8911 62.5660 0.0000 0.0000 0.0000
# 3 62.5668 62.5660 164.7107 0.0000 0.0000 0.0000
# 4 0.0000 0.0000 0.0000 26.0903 0.0000 0.0000
# 5 0.0000 0.0000 0.0000 0.0000 26.0894 0.0000
# 6 0.0000 0.0000 0.0000 0.0000 0.0000 24.8242
#
#
#
# Elastic Compliance Matrix: (Units=1/GPa)
#
#
# Indices 1 2 3 4 5 6 
#
# 1 0.016318 -0.006565 -0.003705 0.000000 0.000000 0.000000
# 2 -0.006565 0.016316 -0.003704 0.000000 0.000000 0.000000
# 3 -0.003705 -0.003704 0.008886 0.000000 0.000000 0.000000
# 4 0.000000 0.000000 0.000000 0.038328 0.000000 0.000000
# 5 0.000000 0.000000 0.000000 0.000000 0.038330 0.000000
# 6 0.000000 0.000000 0.000000 0.000000 0.000000 0.040283
#
#
# Mechanical properties :
#
#
# Convention : Reuss Voigt Hill
#
# Bulk Modulus (GPa) = 73.67967 79.45798 76.56883
# Shear Modulus (GPa) = 26.18713 27.41193 26.79953
#
# Velocity S-wave (km/s) = 3.89070 3.98065 3.93593
# Velocity P-wave (km/s) = 7.92302 8.18892 8.05707
#
# Compressibility (1/GPa) = 0.01357226
#
# Stress axis : x y z
#
# Youngs Moduli (GPa) = 61.28138 61.28817 112.54196
#
# Poissons Ratio (x) = 0.40236 0.41695
# Poissons Ratio (y) = 0.40231 0.41686
# Poissons Ratio (z) = 0.22704 0.22701
#
# Static dielectric constant tensor:
#      x y z
#    x 1.590210 0.000000 0.000000 
#    y 0.000000 1.590210 0.000000 
#    z 0.000000 0.000000 1.602270 
# 
# From -- ./inp_files/2451.got.cif
#   From: 2010.05.17/outbox.cif.g08.bks.cpg/sg134_2_cif.got.tgz:2451.got - 2010.05.20 12:42:49.
