data_PCOD9568440
_publ_section_title
;
Structure prediction by ZEFSAII (Michael W. Deem and Ramdas Pophale) SiO2 
 PCOD9568440
Probable space group: P 42/N N M
;
_chemical_formula_sum "Si O2"
_cell_formula_units_Z 80
_cell_length_a 16.854745
_cell_length_b 16.854745
_cell_length_c 15.027265
_cell_angle_alpha 90.000000
_cell_angle_beta 90.000000
_cell_angle_gamma 90.000000
_cell_volume 4268.981943
_symmetry_space_group_name_H-M "P 42/N N M"
_symmetry_group_IT_number 134
_space_group.IT_coordinate_system_code '2'
_symmetry_cell_setting 'tetragonal'
loop_
_space_group_symop_operation_xyz
x,y,z
1/2-y,x,1/2+z
1/2-x,1/2-y,z
y,1/2-x,1/2+z
x,1/2-y,1/2-z
1/2-x,y,1/2-z
y,x,-z
1/2-y,1/2-x,-z
-x,-y,-z
1/2+y,-x,1/2-z
1/2+x,1/2+y,-z
-y,1/2+x,1/2-z
-x,1/2+y,1/2+z
1/2+x,-y,1/2+z
-y,-x,z
1/2+y,1/2+x,z
loop_
_atom_site_type_symbol
_atom_site_label
_atom_site_fract_x
_atom_site_fract_y
_atom_site_fract_z
Si Si1 0.961957 0.594755 0.325628
Si Si2 0.746421 0.377959 0.564583
Si Si3 0.637148 0.862853 0.500000
Si Si4 0.562474 0.929332 0.868545
Si Si5 0.542988 0.707902 0.495936
Si Si6 0.750000 0.451288 0.750000
O O1 0.907251 0.605653 0.411403
O O2 0.917629 0.564225 0.237021
O O3 0.034380 0.534380 0.344147
O O4 0.997884 0.678255 0.291277
O O5 0.674301 0.325700 0.526651
O O6 0.824715 0.324715 0.562057
O O7 0.755077 0.461297 0.515654
O O8 0.725741 0.397689 0.666731
O O9 0.614357 0.770054 0.504536
O O10 0.536500 0.851533 0.921467
O O11 0.503373 0.003373 0.886851
O O12 0.649077 0.947951 0.910936
#
# Coordination Sequence:
#
# PCOD9568440 Si02
#       6
#    16  16   8  16  16   8
#     4  11  22  38  59  85 119 161 205 244 300 369
#     4  11  21  33  56  91 127 155 186 244 320 387
#     4  12  25  37  56  84 124 166 195 249 310 358
#     4  10  21  40  67  88 111 154 206 263 304 353
#     4  11  22  38  59  87 120 156 205 244 302 367
#     4  12  20  35  58  89 124 156 192 250 306 379
#
# _framework density 18.739829
#
# number of rings (size 3 to 8) (size 9 to 14) (size 15 to 20)
#    0.000    1.000    4.000    4.500    0.000    4.000 
#    0.000    0.000    0.000    6.000    0.000    0.000 
#    0.000    6.400    0.000    0.000    0.000    0.000 
#
# Total GULP energy -446620.973797 kJ/mol
# GULP energy per Si atom -5582.762172 kJ/mol
# Density = 1.869718 g / cm^3
# Si number density = 18.739829 Si / 1000 Ang^3
#
#
#
# Elastic Constant Matrix: (Units=GPa)
#
#
# Indices 1 2 3 4 5 6 
#
# 1 89.3713 54.7493 37.4805 0.0000 0.0000 0.0000
# 2 54.7493 89.3698 37.4809 0.0000 0.0000 0.0000
# 3 37.4805 37.4809 101.0306 0.0000 0.0000 0.0000
# 4 0.0000 0.0000 0.0000 22.1527 0.0000 0.0000
# 5 0.0000 0.0000 0.0000 0.0000 22.1526 0.0000
# 6 0.0000 0.0000 0.0000 0.0000 0.0000 33.5614
#
#
#
# Elastic Compliance Matrix: (Units=1/GPa)
#
#
# Indices 1 2 3 4 5 6 
#
# 1 0.018741 -0.010143 -0.003189 0.000000 0.000000 0.000000
# 2 -0.010143 0.018741 -0.003190 0.000000 0.000000 0.000000
# 3 -0.003189 -0.003190 0.012265 0.000000 0.000000 0.000000
# 4 0.000000 0.000000 0.000000 0.045141 0.000000 0.000000
# 5 0.000000 0.000000 0.000000 0.000000 0.045141 0.000000
# 6 0.000000 0.000000 0.000000 0.000000 0.000000 0.029796
#
#
# Mechanical properties :
#
#
# Convention : Reuss Voigt Hill
#
# Bulk Modulus (GPa) = 59.87473 59.91035 59.89254
# Shear Modulus (GPa) = 23.98808 25.57741 24.78274
#
# Velocity S-wave (km/s) = 3.58167 3.69842 3.64051
# Velocity P-wave (km/s) = 7.00888 7.09061 7.04986
#
# Compressibility (1/GPa) = 0.01670154
#
# Stress axis : x y z
#
# Youngs Moduli (GPa) = 53.36006 53.35876 81.53562
#
# Poissons Ratio (x) = 0.54123 0.26005
# Poissons Ratio (y) = 0.54124 0.26008
# Poissons Ratio (z) = 0.17019 0.17020
#
# Static dielectric constant tensor:
#      x y z
#    x 1.683500 0.000000 0.000000 
#    y 0.000000 1.683500 0.000000 
#    z 0.000000 0.000000 1.646100 
# 
# From -- ./inp_files/6401.got.cif
#   From: 2010.05.17/outbox.cif.g08.bks.cpg/sg134_4_cif.got.tgz:6401.got - 2010.05.20 12:42:49.
