data_PCOD9568384
_publ_section_title
;
Structure prediction by ZEFSAII (Michael W. Deem and Ramdas Pophale) SiO2 
 PCOD9568384
Probable space group: P 42/N N M
;
_chemical_formula_sum "Si O2"
_cell_formula_units_Z 64
_cell_length_a 11.420831
_cell_length_b 11.420831
_cell_length_c 22.183190
_cell_angle_alpha 90.000000
_cell_angle_beta 90.000000
_cell_angle_gamma 90.000000
_cell_volume 2893.472833
_symmetry_space_group_name_H-M "P 42/N N M"
_symmetry_group_IT_number 134
_space_group.IT_coordinate_system_code '2'
_symmetry_cell_setting 'tetragonal'
loop_
_space_group_symop_operation_xyz
x,y,z
1/2-y,x,1/2+z
1/2-x,1/2-y,z
y,1/2-x,1/2+z
x,1/2-y,1/2-z
1/2-x,y,1/2-z
y,x,-z
1/2-y,1/2-x,-z
-x,-y,-z
1/2+y,-x,1/2-z
1/2+x,1/2+y,-z
-y,1/2+x,1/2-z
-x,1/2+y,1/2+z
1/2+x,-y,1/2+z
-y,-x,z
1/2+y,1/2+x,z
loop_
_atom_site_type_symbol
_atom_site_label
_atom_site_fract_x
_atom_site_fract_y
_atom_site_fract_z
Si Si1 0.193539 0.996568 0.488189
Si Si2 0.304473 0.514045 0.886472
Si Si3 0.367796 0.056842 0.790881
Si Si4 0.772356 0.612766 0.631266
O O1 0.126761 0.873240 0.490182
O O2 0.286536 0.001863 0.542180
O O3 0.242524 0.026284 0.422706
O O4 0.096776 0.096776 0.500000
O O5 0.362463 0.637537 0.873511
O O6 0.181448 0.497457 0.853577
O O7 0.386775 0.411051 0.860403
O O8 0.250000 0.060623 0.750000
O O9 0.406049 0.186930 0.811910
O O10 0.471944 0.971944 0.769556
O O11 0.750000 0.750000 0.612885
#
# Coordination Sequence:
#
# PCOD9568384 Si02
#       4
#    16  16  16  16
#     4  11  20  34  57  85 119 162 205 247 304 366
#     4  11  24  38  58  91 128 163 205 257 314 374
#     4  11  23  40  63  89 120 158 203 257 315 373
#     4  10  21  36  59  84 118 162 205 246 297 372
#
# _framework density 22.118749000000001
#
# number of rings (size 3 to 8) (size 9 to 14) (size 15 to 20)
#    0.000    1.250    5.000    3.000    0.000    9.750 
#    0.000    0.000    0.000    2.250    0.000    0.000 
#    0.000   20.000    0.000    0.000    0.000    0.000 
#
# Total GULP energy -357384.623523 kJ/mol
# GULP energy per Si atom -5584.134743 kJ/mol
# Density = 2.206841 g / cm^3
# Si number density = 22.118749 Si / 1000 Ang^3
#
#
#
# Elastic Constant Matrix: (Units=GPa)
#
#
# Indices 1 2 3 4 5 6 
#
# 1 55.9965 48.9797 36.0268 0.0000 0.0000 0.0000
# 2 48.9797 55.9965 36.0268 0.0000 0.0000 0.0000
# 3 36.0268 36.0268 115.9704 0.0000 0.0000 0.0000
# 4 0.0000 0.0000 0.0000 26.3696 0.0000 0.0000
# 5 0.0000 0.0000 0.0000 0.0000 26.3696 0.0000
# 6 0.0000 0.0000 0.0000 0.0000 0.0000 25.3255
#
#
#
# Elastic Compliance Matrix: (Units=1/GPa)
#
#
# Indices 1 2 3 4 5 6 
#
# 1 0.077311 -0.065204 -0.003761 0.000000 0.000000 0.000000
# 2 -0.065204 0.077311 -0.003761 0.000000 0.000000 0.000000
# 3 -0.003761 -0.003761 0.010960 0.000000 0.000000 0.000000
# 4 0.000000 0.000000 0.000000 0.037923 0.000000 0.000000
# 5 0.000000 0.000000 0.000000 0.000000 0.037923 0.000000
# 6 0.000000 0.000000 0.000000 0.000000 0.000000 0.039486
#
#
# Mechanical properties :
#
#
# Convention : Reuss Voigt Hill
#
# Bulk Modulus (GPa) = 49.67726 52.22552 50.95139
# Shear Modulus (GPa) = 11.54532 22.74161 17.14346
#
# Velocity S-wave (km/s) = 2.28714 3.20997 2.78702
# Velocity P-wave (km/s) = 5.42981 6.11566 5.78291
#
# Compressibility (1/GPa) = 0.02012993
#
# Stress axis : x y z
#
# Youngs Moduli (GPa) = 12.93472 12.93472 91.24233
#
# Poissons Ratio (x) = 0.84339 0.34319
# Poissons Ratio (y) = 0.84339 0.34319
# Poissons Ratio (z) = 0.04865 0.04865
#
# Static dielectric constant tensor:
#      x y z
#    x 1.820300 0.000000 0.000000 
#    y 0.000000 1.820300 0.000000 
#    z 0.000000 0.000000 1.886320 
# 
# From -- ./inp_files/8680.got.cif
#   From: 2010.05.17/outbox.cif.g08.bks.cpg/sg134_5_cif.got.tgz:8680.got - 2010.05.20 12:42:49.
