data_PCOD9568798
_publ_section_title
;
Structure prediction by ZEFSAII (Michael W. Deem and Ramdas Pophale) SiO2 
 PCOD9568798
Probable space group: P 42/M B C
;
_chemical_formula_sum "Si O2"
_cell_formula_units_Z 92
_cell_length_a 14.099153
_cell_length_b 14.099153
_cell_length_c 20.871010
_cell_angle_alpha 90.000000
_cell_angle_beta 90.000000
_cell_angle_gamma 90.000000
_cell_volume 4148.867001
_symmetry_space_group_name_H-M "P 42/M B C"
_symmetry_group_IT_number 135
_symmetry_cell_setting 'tetragonal'
loop_
_space_group_symop_operation_xyz
x,y,z
-y,x,1/2+z
-x,-y,z
y,-x,1/2+z
1/2+x,1/2-y,-z
1/2-x,1/2+y,-z
1/2+y,1/2+x,1/2-z
1/2-y,1/2-x,1/2-z
-x,-y,-z
y,-x,1/2-z
x,y,-z
-y,x,1/2-z
1/2-x,1/2+y,z
1/2+x,1/2-y,z
1/2-y,1/2-x,1/2+z
1/2+y,1/2+x,1/2+z
loop_
_atom_site_type_symbol
_atom_site_label
_atom_site_fract_x
_atom_site_fract_y
_atom_site_fract_z
Si Si1 0.637010 0.404820 0.000000
Si Si2 0.974865 0.225235 0.000000
Si Si3 0.304690 0.734589 0.638715
Si Si4 0.598916 0.667619 0.638882
Si Si5 0.000000 0.500000 0.750000
Si Si6 0.296384 0.969762 0.776104
Si Si7 0.721286 0.489675 0.641220
Si Si8 0.251365 0.796294 0.000000
O O1 0.667784 0.447165 0.067732
O O2 0.687449 0.300494 0.000000
O O3 0.524726 0.379198 0.000000
O O4 0.005879 0.263700 0.069681
O O5 0.861393 0.226586 0.000000
O O6 0.197139 0.772783 0.640125
O O7 0.367121 0.776059 0.695241
O O8 0.304534 0.620820 0.644289
O O9 0.343798 0.766418 0.568877
O O10 0.533772 0.715871 0.691180
O O11 0.631340 0.559366 0.649339
O O12 0.000202 0.403594 0.708840
O O13 0.287477 0.982736 0.700037
#
# Coordination Sequence:
#
# PCOD9568798 Si02
#       8
#     8   8  16  16   4  16  16   8
#     4   8  16  33  57  83 115 153 199 244 298 362
#     4   8  16  32  56  84 116 152 190 242 304 360
#     4  10  21  38  60  88 120 159 200 250 305 358
#     4  10  21  38  60  88 120 159 200 250 305 358
#     4  12  28  44  56  86 120 164 208 242 304 380
#     4  12  24  38  62  85 118 158 200 248 298 368
#     4  10  20  37  61  89 119 154 199 249 304 365
#     4   8  16  33  57  83 115 153 199 244 298 362
#
# _framework density 22.174728999999999
#
# number of rings (size 3 to 8) (size 9 to 14) (size 15 to 20)
#    0.000    2.087    0.000    3.130    0.000    2.783 
#    0.000    1.739    0.000    9.913    0.000    0.000 
#    0.000    0.000    0.000    0.000    0.000    0.000 
#
# Total GULP energy -513391.412076 kJ/mol
# GULP energy per Si atom -5580.341436 kJ/mol
# Density = 2.212426 g / cm^3
# Si number density = 22.174729 Si / 1000 Ang^3
#
#
#
# Elastic Constant Matrix: (Units=GPa)
#
#
# Indices 1 2 3 4 5 6 
#
# 1 58.7150 -8.0110 20.5208 0.0000 0.0000 0.0000
# 2 -8.0110 58.7150 20.5208 0.0000 0.0000 0.0000
# 3 20.5208 20.5208 168.4941 0.0000 0.0000 0.0000
# 4 0.0000 0.0000 0.0000 2.5414 0.0000 0.0000
# 5 0.0000 0.0000 0.0000 0.0000 2.5414 0.0000
# 6 0.0000 0.0000 0.0000 0.0000 0.0000 20.9397
#
#
#
# Elastic Compliance Matrix: (Units=1/GPa)
#
#
# Indices 1 2 3 4 5 6 
#
# 1 0.018433 0.003446 -0.002665 0.000000 0.000000 0.000000
# 2 0.003446 0.018433 -0.002665 0.000000 0.000000 0.000000
# 3 -0.002665 -0.002665 0.006584 0.000000 0.000000 0.000000
# 4 0.000000 0.000000 0.000000 0.393490 0.000000 0.000000
# 5 0.000000 0.000000 0.000000 0.000000 0.393490 0.000000
# 6 0.000000 0.000000 0.000000 0.000000 0.000000 0.047756
#
#
# Mechanical properties :
#
#
# Convention : Reuss Voigt Hill
#
# Bulk Modulus (GPa) = 25.19926 39.10950 32.15438
# Shear Modulus (GPa) = 5.58547 22.06404 13.82476
#
# Velocity S-wave (km/s) = 1.58881 3.15780 2.49960
# Velocity P-wave (km/s) = 3.84114 5.56515 4.78149
#
# Compressibility (1/GPa) = 0.03968370
#
# Stress axis : x y z
#
# Youngs Moduli (GPa) = 54.25076 54.25076 151.88379
#
# Poissons Ratio (x) = -0.18696 0.40472
# Poissons Ratio (y) = -0.18696 0.40472
# Poissons Ratio (z) = 0.14456 0.14456
#
# Static dielectric constant tensor:
#      x y z
#    x 1.812900 0.000000 0.000000 
#    y 0.000000 1.812900 0.000000 
#    z 0.000000 0.000000 1.876130 
# 
# From -- ./inp_files/5537.got.cif
#   From: 2010.05.17/outbox.cif.g08.bks.cpg/sg135_3_cif.got.tgz:5537.got - 2010.05.20 12:50:20.
