data_PCOD9568274
_publ_section_title
;
Structure prediction by ZEFSAII (Michael W. Deem and Ramdas Pophale) SiO2 
 PCOD9568274
Probable space group: P 42/N N M
;
_chemical_formula_sum "Si O2"
_cell_formula_units_Z 64
_cell_length_a 13.538092
_cell_length_b 13.538092
_cell_length_c 16.481131
_cell_angle_alpha 90.000000
_cell_angle_beta 90.000000
_cell_angle_gamma 90.000000
_cell_volume 3020.660618
_symmetry_space_group_name_H-M "P 42/N N M"
_symmetry_group_IT_number 134
_space_group.IT_coordinate_system_code '2'
_symmetry_cell_setting 'tetragonal'
loop_
_space_group_symop_operation_xyz
x,y,z
1/2-y,x,1/2+z
1/2-x,1/2-y,z
y,1/2-x,1/2+z
x,1/2-y,1/2-z
1/2-x,y,1/2-z
y,x,-z
1/2-y,1/2-x,-z
-x,-y,-z
1/2+y,-x,1/2-z
1/2+x,1/2+y,-z
-y,1/2+x,1/2-z
-x,1/2+y,1/2+z
1/2+x,-y,1/2+z
-y,-x,z
1/2+y,1/2+x,z
loop_
_atom_site_type_symbol
_atom_site_label
_atom_site_fract_x
_atom_site_fract_y
_atom_site_fract_z
Si Si1 0.969464 0.638502 0.745047
Si Si2 0.410179 0.748294 0.484068
Si Si3 0.114034 0.054640 0.086897
Si Si4 0.881392 0.546937 0.080128
O O1 0.008213 0.750000 0.750000
O O2 0.902410 0.619946 0.666086
O O3 0.910891 0.625704 0.830165
O O4 0.059186 0.559186 0.744265
O O5 0.340598 0.659403 0.454423
O O6 0.338523 0.838523 0.507595
O O7 0.485798 0.789342 0.417517
O O8 0.470606 0.706961 0.560294
O O9 0.109425 0.109425 0.000000
O O10 0.021555 0.978446 0.087090
O O11 0.981174 0.481174 0.080372
O O12 0.885981 0.614020 0.000000
#
# Coordination Sequence:
#
# PCOD9568274 Si02
#       4
#    16  16  16  16
#     4  10  20  33  53  82 112 144 182 222 271 335
#     4   9  17  31  55  83 107 141 193 243 283 332
#     4   9  17  30  49  75 110 148 181 221 279 337
#     4   9  18  33  53  77 108 144 177 215 270 331
#
# _framework density 21.187417
#
# number of rings (size 3 to 8) (size 9 to 14) (size 15 to 20)
#    0.000    2.750    0.000    1.500    0.000    3.250 
#    0.000    3.750    0.000   12.750    0.000   14.000 
#    0.000    0.000    0.000    0.000    0.000    4.250 
#
# Total GULP energy -356617.692365 kJ/mol
# GULP energy per Si atom -5572.151443 kJ/mol
# Density = 2.113919 g / cm^3
# Si number density = 21.187417 Si / 1000 Ang^3
#
#
#
# Elastic Constant Matrix: (Units=GPa)
#
#
# Indices 1 2 3 4 5 6 
#
# 1 52.2974 37.6443 54.9684 0.0000 0.0000 0.0000
# 2 37.6443 52.2977 54.9676 0.0000 0.0000 0.0000
# 3 54.9684 54.9676 198.9188 0.0000 0.0000 0.0000
# 4 0.0000 0.0000 0.0000 18.3719 0.0000 0.0000
# 5 0.0000 0.0000 0.0000 0.0000 18.3721 0.0000
# 6 0.0000 0.0000 0.0000 0.0000 0.0000 29.8538
#
#
#
# Elastic Compliance Matrix: (Units=1/GPa)
#
#
# Indices 1 2 3 4 5 6 
#
# 1 0.042517 -0.025728 -0.004640 0.000000 0.000000 0.000000
# 2 -0.025728 0.042516 -0.004639 0.000000 0.000000 0.000000
# 3 -0.004640 -0.004639 0.007591 0.000000 0.000000 0.000000
# 4 0.000000 0.000000 0.000000 0.054431 0.000000 0.000000
# 5 0.000000 0.000000 0.000000 0.000000 0.054430 0.000000
# 6 0.000000 0.000000 0.000000 0.000000 0.000000 0.033497
#
#
# Mechanical properties :
#
#
# Convention : Reuss Voigt Hill
#
# Bulk Modulus (GPa) = 44.22484 66.51939 55.37211
# Shear Modulus (GPa) = 15.99837 23.71515 19.85676
#
# Velocity S-wave (km/s) = 2.75087 3.34923 3.06469
# Velocity P-wave (km/s) = 5.56850 6.81324 6.22208
#
# Compressibility (1/GPa) = 0.02261173
#
# Stress axis : x y z
#
# Youngs Moduli (GPa) = 23.51999 23.52049 131.73133
#
# Poissons Ratio (x) = 0.60513 0.61119
# Poissons Ratio (y) = 0.60511 0.61111
# Poissons Ratio (z) = 0.10912 0.10911
#
# Static dielectric constant tensor:
#      x y z
#    x 1.798330 0.000000 0.000000 
#    y 0.000000 1.798330 0.000000 
#    z 0.000000 0.000000 1.787230 
# 
# From -- ./inp_files/6095.got.cif
#   From: 2010.05.17/outbox.cif.g08.bks.cpg/sg134_4_cif.got.tgz:6095.got - 2010.05.20 12:42:49.
