data_PCOD9568291
_publ_section_title
;
Structure prediction by ZEFSAII (Michael W. Deem and Ramdas Pophale) SiO2 
 PCOD9568291
Probable space group: P 42/N N M
;
_chemical_formula_sum "Si O2"
_cell_formula_units_Z 112
_cell_length_a 14.888173
_cell_length_b 14.888173
_cell_length_c 27.277961
_cell_angle_alpha 90.000000
_cell_angle_beta 90.000000
_cell_angle_gamma 90.000000
_cell_volume 6046.369967
_symmetry_space_group_name_H-M "P 42/N N M"
_symmetry_group_IT_number 134
_space_group.IT_coordinate_system_code '2'
_symmetry_cell_setting 'tetragonal'
loop_
_space_group_symop_operation_xyz
x,y,z
1/2-y,x,1/2+z
1/2-x,1/2-y,z
y,1/2-x,1/2+z
x,1/2-y,1/2-z
1/2-x,y,1/2-z
y,x,-z
1/2-y,1/2-x,-z
-x,-y,-z
1/2+y,-x,1/2-z
1/2+x,1/2+y,-z
-y,1/2+x,1/2-z
-x,1/2+y,1/2+z
1/2+x,-y,1/2+z
-y,-x,z
1/2+y,1/2+x,z
loop_
_atom_site_type_symbol
_atom_site_label
_atom_site_fract_x
_atom_site_fract_y
_atom_site_fract_z
Si Si1 0.232290 0.439902 0.080996
Si Si2 0.404270 0.216565 0.094775
Si Si3 0.872161 0.514714 0.716577
Si Si4 0.312747 0.960583 0.178920
Si Si5 0.354635 0.278653 0.197088
Si Si6 0.641202 0.493154 0.486781
Si Si7 0.420309 0.431486 0.940834
O O1 0.187919 0.339039 0.081304
O O2 0.184892 0.489541 0.126626
O O3 0.339142 0.451815 0.085039
O O4 0.212630 0.482439 0.027984
O O5 0.403324 0.230568 0.152475
O O6 0.483320 0.161721 0.069095
O O7 0.423123 0.314886 0.072194
O O8 0.855520 0.516873 0.775597
O O9 0.791221 0.454748 0.694682
O O10 0.861958 0.613894 0.694977
O O11 0.965856 0.465856 0.706983
O O12 0.368377 0.868377 0.176826
O O13 0.250000 0.250000 0.193974
O O14 0.389222 0.250000 0.250000
O O15 0.562186 0.562186 0.500000
O O16 0.606803 0.393198 0.492814
O O17 0.482182 0.517818 0.926261
O O18 0.426333 0.426333 0.000000
#
# Coordination Sequence:
#
# PCOD9568291 Si02
#       7
#    16  16  16  16  16  16  16
#     4  11  20  35  58  83 111 145 188 233 281 334
#     4  11  21  35  57  83 108 145 185 230 280 334
#     4  10  21  37  55  80 117 158 194 235 289 350
#     4  10  20  34  55  83 115 152 194 236 279 333
#     4  11  21  36  56  82 113 146 191 237 288 336
#     4   9  19  34  53  79 109 138 174 223 276 329
#     4  11  23  37  54  80 113 148 185 231 279 339
#
# _framework density 18.523510999999999
#
# number of rings (size 3 to 8) (size 9 to 14) (size 15 to 20)
#    0.000    1.571    1.429    6.000    0.000    3.714 
#    0.000    2.143    0.000    2.571    0.000    0.000 
#    0.000    1.429    0.000    3.429    0.000    0.000 
#
# Total GULP energy -623742.286887 kJ/mol
# GULP energy per Si atom -5569.127561 kJ/mol
# Density = 1.848135 g / cm^3
# Si number density = 18.523511 Si / 1000 Ang^3
#
#
#
# Elastic Constant Matrix: (Units=GPa)
#
#
# Indices 1 2 3 4 5 6 
#
# 1 67.7218 55.8351 33.5136 0.0000 0.0000 0.0000
# 2 55.8351 67.7218 33.5136 0.0000 0.0000 0.0000
# 3 33.5136 33.5136 132.5285 0.0000 0.0000 0.0000
# 4 0.0000 0.0000 0.0000 38.3409 0.0000 0.0000
# 5 0.0000 0.0000 0.0000 0.0000 38.3409 0.0000
# 6 0.0000 0.0000 0.0000 0.0000 0.0000 30.1948
#
#
#
# Elastic Compliance Matrix: (Units=1/GPa)
#
#
# Indices 1 2 3 4 5 6 
#
# 1 0.046754 -0.037374 -0.002372 0.000000 0.000000 0.000000
# 2 -0.037374 0.046754 -0.002372 0.000000 0.000000 0.000000
# 3 -0.002372 -0.002372 0.008745 0.000000 0.000000 0.000000
# 4 0.000000 0.000000 0.000000 0.026082 0.000000 0.000000
# 5 0.000000 0.000000 0.000000 0.000000 0.026082 0.000000
# 6 0.000000 0.000000 0.000000 0.000000 0.000000 0.033118
#
#
# Mechanical properties :
#
#
# Convention : Reuss Voigt Hill
#
# Bulk Modulus (GPa) = 55.50171 57.07742 56.28957
# Shear Modulus (GPa) = 18.00008 31.04930 24.52469
#
# Velocity S-wave (km/s) = 3.12066 4.09860 3.64260
# Velocity P-wave (km/s) = 6.55840 7.29920 6.93869
#
# Compressibility (1/GPa) = 0.01801746
#
# Stress axis : x y z
#
# Youngs Moduli (GPa) = 21.38857 21.38857 114.34797
#
# Poissons Ratio (x) = 0.79937 0.27124
# Poissons Ratio (y) = 0.79937 0.27124
# Poissons Ratio (z) = 0.05074 0.05074
#
# Static dielectric constant tensor:
#      x y z
#    x 1.679170 0.000000 0.000000 
#    y 0.000000 1.679170 0.000000 
#    z 0.000000 0.000000 1.685610 
# 
# From -- ./inp_files/10865.got.cif
#   From: 2010.05.17/outbox.cif.g08.bks.cpg/sg134_6_cif.got.tgz:10865.got - 2010.05.20 12:42:49.
