data_PCOD9568487
_publ_section_title
;
Structure prediction by ZEFSAII (Michael W. Deem and Ramdas Pophale) SiO2 
 PCOD9568487
Probable space group: P 42/N N M
;
_chemical_formula_sum "Si O2"
_cell_formula_units_Z 34
_cell_length_a 10.339250
_cell_length_b 10.339250
_cell_length_c 14.839282
_cell_angle_alpha 90.000000
_cell_angle_beta 90.000000
_cell_angle_gamma 90.000000
_cell_volume 1586.320590
_symmetry_space_group_name_H-M "P 42/N N M"
_symmetry_group_IT_number 134
_space_group.IT_coordinate_system_code '2'
_symmetry_cell_setting 'tetragonal'
loop_
_space_group_symop_operation_xyz
x,y,z
1/2-y,x,1/2+z
1/2-x,1/2-y,z
y,1/2-x,1/2+z
x,1/2-y,1/2-z
1/2-x,y,1/2-z
y,x,-z
1/2-y,1/2-x,-z
-x,-y,-z
1/2+y,-x,1/2-z
1/2+x,1/2+y,-z
-y,1/2+x,1/2-z
-x,1/2+y,1/2+z
1/2+x,-y,1/2+z
-y,-x,z
1/2+y,1/2+x,z
loop_
_atom_site_type_symbol
_atom_site_label
_atom_site_fract_x
_atom_site_fract_y
_atom_site_fract_z
Si Si1 0.949287 0.449287 0.213626
Si Si2 0.539277 0.460724 0.900323
Si Si3 0.667091 0.959144 0.919945
Si Si4 0.250000 0.750000 0.750000
O O1 0.913045 0.585102 0.166707
O O2 0.842734 0.342734 0.193309
O O3 0.966311 0.466311 0.319806
O O4 0.690161 0.498130 0.894265
O O5 0.500000 0.500000 0.000000
O O6 0.588380 0.088380 0.950536
O O7 0.643467 0.856534 0.000000
#
# Coordination Sequence:
#
# PCOD9568487 Si02
#       4
#     8   8  16   2
#     4  10  25  44  73  97 135 188 232 300 354 425
#     4  12  25  40  69 111 142 184 232 295 351 424
#     4   9  22  44  69 101 138 188 231 288 350 426
#     4  12  28  48  72 100 136 186 256 292 376 424
#
# _framework density 21.433244999999999
#
# number of rings (size 3 to 8) (size 9 to 14) (size 15 to 20)
#    1.412    0.471    0.000    2.118    6.588    0.941 
#    4.235    2.353    0.000    0.000    0.000    0.000 
#    0.000    0.000    0.000    0.000    0.000    0.000 
#
# Total GULP energy -189623.641444 kJ/mol
# GULP energy per Si atom -5577.165925 kJ/mol
# Density = 2.138446 g / cm^3
# Si number density = 21.433245 Si / 1000 Ang^3
#
#
#
# Elastic Constant Matrix: (Units=GPa)
#
#
# Indices 1 2 3 4 5 6 
#
# 1 16.9113 166.9628 35.8199 0.0000 0.0000 0.0000
# 2 166.9628 16.9149 35.8220 0.0000 0.0000 0.0000
# 3 35.8199 35.8220 134.9214 0.0000 0.0000 0.0000
# 4 0.0000 0.0000 0.0000 26.1506 0.0000 0.0000
# 5 0.0000 0.0000 0.0000 0.0000 26.1505 0.0000
# 6 0.0000 0.0000 0.0000 0.0000 0.0000 48.0488
#
#
#
# Elastic Compliance Matrix: (Units=1/GPa)
#
#
# Indices 1 2 3 4 5 6 
#
# 1 -0.000299 0.006365 -0.001611 0.000000 0.000000 0.000000
# 2 0.006365 -0.000299 -0.001610 0.000000 0.000000 0.000000
# 3 -0.001611 -0.001610 0.008267 0.000000 0.000000 0.000000
# 4 0.000000 0.000000 0.000000 0.038240 0.000000 0.000000
# 5 0.000000 0.000000 0.000000 0.000000 0.038240 0.000000
# 6 0.000000 0.000000 0.000000 0.000000 0.000000 0.020812
#
#
# Mechanical properties :
#
#
# Convention : Reuss Voigt Hill
#
# Bulk Modulus (GPa) = 71.64951 71.77298 71.71124
# Shear Modulus (GPa) = 48.39123 15.41285 31.90204
#
# Velocity S-wave (km/s) = 4.75675 2.68453 3.86221
# Velocity P-wave (km/s) = 7.97939 6.57027 7.30886
#
# Compressibility (1/GPa) = 0.01395683
#
# Stress axis : x y z
#
# Youngs Moduli (GPa) = -3340.94610 -3342.05584 120.96481
#
# Poissons Ratio (x) = 21.27283 0.19482
# Poissons Ratio (y) = 21.26576 0.19481
# Poissons Ratio (z) = -5.38063 -5.38216
#
# Static dielectric constant tensor:
#      x y z
#    x 1.783270 0.000000 0.000000 
#    y 0.000000 1.783270 0.000000 
#    z 0.000000 0.000000 1.793100 
# 
# From -- ./inp_files/5655.got.cif
#   From: 2010.05.17/outbox.cif.g08.bks.cpg/sg134_3_cif.got.tgz:5655.got - 2010.05.20 12:42:49.
