data_PCOD9568182
_publ_section_title
;
Structure prediction by ZEFSAII (Michael W. Deem and Ramdas Pophale) SiO2 
 PCOD9568182
Probable space group: P 42/N N M
;
_chemical_formula_sum "Si O2"
_cell_formula_units_Z 48
_cell_length_a 13.718484
_cell_length_b 13.718484
_cell_length_c 15.259952
_cell_angle_alpha 90.000000
_cell_angle_beta 90.000000
_cell_angle_gamma 90.000000
_cell_volume 2871.874184
_symmetry_space_group_name_H-M "P 42/N N M"
_symmetry_group_IT_number 134
_space_group.IT_coordinate_system_code '2'
_symmetry_cell_setting 'tetragonal'
loop_
_space_group_symop_operation_xyz
x,y,z
1/2-y,x,1/2+z
1/2-x,1/2-y,z
y,1/2-x,1/2+z
x,1/2-y,1/2-z
1/2-x,y,1/2-z
y,x,-z
1/2-y,1/2-x,-z
-x,-y,-z
1/2+y,-x,1/2-z
1/2+x,1/2+y,-z
-y,1/2+x,1/2-z
-x,1/2+y,1/2+z
1/2+x,-y,1/2+z
-y,-x,z
1/2+y,1/2+x,z
loop_
_atom_site_type_symbol
_atom_site_label
_atom_site_fract_x
_atom_site_fract_y
_atom_site_fract_z
Si Si1 0.960490 0.614494 0.593843
Si Si2 0.481078 0.139022 0.762509
Si Si3 0.852278 0.806725 0.599532
O O1 0.915378 0.584623 0.500000
O O2 0.900883 0.560916 0.670608
O O3 0.939643 0.728531 0.606070
O O4 0.069346 0.569346 0.596637
O O5 0.513236 0.250000 0.750000
O O6 0.568667 0.068667 0.789716
O O7 0.393894 0.136711 0.832595
O O8 0.750000 0.750000 0.617717
O O9 0.844191 0.844191 0.500000
#
# Coordination Sequence:
#
# PCOD9568182 Si02
#       3
#    16  16  16
#     4  10  19  32  52  80 109 139 179 224 278 333
#     4  11  22  34  53  79 109 145 181 227 279 331
#     4  11  19  34  57  81 106 142 185 234 273 324
#
# _framework density 16.713823999999999
#
# number of rings (size 3 to 8) (size 9 to 14) (size 15 to 20)
#    0.000    1.333    6.667    1.000    0.000    1.000 
#    0.000    0.000    0.000    1.000    0.000    4.667 
#    0.000    0.000    0.000    0.000    0.000    0.000 
#
# Total GULP energy -267849.203265 kJ/mol
# GULP energy per Si atom -5580.191735 kJ/mol
# Density = 1.667578 g / cm^3
# Si number density = 16.713824 Si / 1000 Ang^3
#
#
#
# Elastic Constant Matrix: (Units=GPa)
#
#
# Indices 1 2 3 4 5 6 
#
# 1 108.4631 71.6373 55.4448 0.0000 0.0000 0.0000
# 2 71.6373 108.4631 55.4445 0.0000 0.0000 0.0000
# 3 55.4448 55.4445 108.1288 0.0000 0.0000 0.0000
# 4 0.0000 0.0000 0.0000 -0.6202 0.0000 0.0000
# 5 0.0000 0.0000 0.0000 0.0000 -0.6129 0.0000
# 6 0.0000 0.0000 0.0000 0.0000 0.0000 30.2052
#
#
#
# Elastic Compliance Matrix: (Units=1/GPa)
#
#
# Indices 1 2 3 4 5 6 
#
# 1 0.017635 -0.009520 -0.004161 0.000000 0.000000 0.000000
# 2 -0.009520 0.017635 -0.004161 0.000000 0.000000 0.000000
# 3 -0.004161 -0.004161 0.013515 0.000000 0.000000 0.000000
# 4 0.000000 0.000000 0.000000 -1.612315 0.000000 0.000000
# 5 0.000000 0.000000 0.000000 0.000000 -1.631654 0.000000
# 6 0.000000 0.000000 0.000000 0.000000 0.000000 0.033107
#
#
# Mechanical properties :
#
#
# Convention : Reuss Voigt Hill
#
# Bulk Modulus (GPa) = 76.33099 76.67867 76.50483
# Shear Modulus (GPa) = -1.60152 15.29632 6.84740
#
# Velocity S-wave (km/s) = -0.97994 3.02849 2.02626
# Velocity P-wave (km/s) = 6.66994 7.62929 7.16569
#
# Compressibility (1/GPa) = 0.01310084
#
# Stress axis : x y z
#
# Youngs Moduli (GPa) = 56.70676 56.70700 73.99113
#
# Poissons Ratio (x) = 0.53987 0.30786
# Poissons Ratio (y) = 0.53987 0.30785
# Poissons Ratio (z) = 0.23594 0.23594
#
# Static dielectric constant tensor:
#      x y z
#    x 1.566970 0.000000 0.000000 
#    y 0.000000 1.566980 0.000000 
#    z 0.000000 0.000000 1.558360 
# 
# From -- ./inp_files/5831.got.cif
#   From: 2010.05.17/outbox.cif.g08.bks.cpg/sg134_3_cif.got.tgz:5831.got - 2010.05.20 12:42:49.
