data_PCOD9568389
_publ_section_title
;
Structure prediction by ZEFSAII (Michael W. Deem and Ramdas Pophale) SiO2 
 PCOD9568389
Probable space group: P 42/N N M
;
_chemical_formula_sum "Si O2"
_cell_formula_units_Z 40
_cell_length_a 16.906920
_cell_length_b 16.906920
_cell_length_c 6.950654
_cell_angle_alpha 90.000000
_cell_angle_beta 90.000000
_cell_angle_gamma 90.000000
_cell_volume 1986.802352
_symmetry_space_group_name_H-M "P 42/N N M"
_symmetry_group_IT_number 134
_space_group.IT_coordinate_system_code '2'
_symmetry_cell_setting 'tetragonal'
loop_
_space_group_symop_operation_xyz
x,y,z
1/2-y,x,1/2+z
1/2-x,1/2-y,z
y,1/2-x,1/2+z
x,1/2-y,1/2-z
1/2-x,y,1/2-z
y,x,-z
1/2-y,1/2-x,-z
-x,-y,-z
1/2+y,-x,1/2-z
1/2+x,1/2+y,-z
-y,1/2+x,1/2-z
-x,1/2+y,1/2+z
1/2+x,-y,1/2+z
-y,-x,z
1/2+y,1/2+x,z
loop_
_atom_site_type_symbol
_atom_site_label
_atom_site_fract_x
_atom_site_fract_y
_atom_site_fract_z
Si Si1 0.250000 0.035702 0.750000
Si Si2 0.047662 0.821073 0.123863
Si Si3 0.841344 0.625476 0.723731
O O1 0.181537 0.095338 0.671564
O O2 0.286084 0.983445 0.579012
O O3 0.083277 0.750000 0.250000
O O4 0.108142 0.891859 0.095398
O O5 0.969037 0.848814 0.240376
O O6 0.750000 0.647719 0.750000
O O7 0.858894 0.641107 0.500000
#
# Coordination Sequence:
#
# PCOD9568389 Si02
#       3
#     8  16  16
#     4  10  21  36  60  89 116 148 188 232 286 347
#     4  10  23  41  59  83 116 153 194 240 287 335
#     4   9  19  34  56  86 119 151 184 228 286 348
#
# _framework density 20.132850999999999
#
# number of rings (size 3 to 8) (size 9 to 14) (size 15 to 20)
#    0.000    2.400    0.000    0.600    0.000   28.400 
#    0.000    2.000    0.000    0.000    0.000    0.000 
#    0.000    0.000    0.000    0.000    0.000    0.000 
#
# Total GULP energy -223286.647854 kJ/mol
# GULP energy per Si atom -5582.166196 kJ/mol
# Density = 2.008703 g / cm^3
# Si number density = 20.132851 Si / 1000 Ang^3
#
#
#
# Elastic Constant Matrix: (Units=GPa)
#
#
# Indices 1 2 3 4 5 6 
#
# 1 119.4786 99.3203 47.0076 0.0000 0.0000 0.0000
# 2 99.3203 119.4802 47.0085 0.0000 0.0000 0.0000
# 3 47.0076 47.0085 55.3468 0.0000 0.0000 0.0000
# 4 0.0000 0.0000 0.0000 21.8454 0.0000 0.0000
# 5 0.0000 0.0000 0.0000 0.0000 21.8454 0.0000
# 6 0.0000 0.0000 0.0000 0.0000 0.0000 64.7983
#
#
#
# Elastic Compliance Matrix: (Units=1/GPa)
#
#
# Indices 1 2 3 4 5 6 
#
# 1 0.028401 -0.021204 -0.006112 0.000000 0.000000 0.000000
# 2 -0.021204 0.028401 -0.006113 0.000000 0.000000 0.000000
# 3 -0.006112 -0.006113 0.028451 0.000000 0.000000 0.000000
# 4 0.000000 0.000000 0.000000 0.045776 0.000000 0.000000
# 5 0.000000 0.000000 0.000000 0.000000 0.045776 0.000000
# 6 0.000000 0.000000 0.000000 0.000000 0.000000 0.015433
#
#
# Mechanical properties :
#
#
# Convention : Reuss Voigt Hill
#
# Bulk Modulus (GPa) = 54.36374 75.66427 65.01401
# Shear Modulus (GPa) = 18.85163 28.42908 23.64036
#
# Velocity S-wave (km/s) = 3.06332 3.76183 3.43040
# Velocity P-wave (km/s) = 6.29071 7.51882 6.93201
#
# Compressibility (1/GPa) = 0.01839461
#
# Stress axis : x y z
#
# Youngs Moduli (GPa) = 35.20974 35.20983 35.14794
#
# Poissons Ratio (x) = 0.74660 0.21483
# Poissons Ratio (y) = 0.74660 0.21486
# Poissons Ratio (z) = 0.21521 0.21524
#
# Static dielectric constant tensor:
#      x y z
#    x 1.727780 0.000000 0.000000 
#    y 0.000000 1.727770 0.000000 
#    z 0.000000 0.000000 1.805590 
# 
# From -- ./inp_files/1802.got.cif
#   From: 2010.05.17/outbox.cif.g08.bks.cpg/sg134_1_cif.got.tgz:1802.got - 2010.05.20 12:42:49.
