data_PCOD9568203
_publ_section_title
;
Structure prediction by ZEFSAII (Michael W. Deem and Ramdas Pophale) SiO2 
 PCOD9568203
Probable space group: P 42/N N M
;
_chemical_formula_sum "Si O2"
_cell_formula_units_Z 80
_cell_length_a 28.864463
_cell_length_b 28.864463
_cell_length_c 5.091659
_cell_angle_alpha 90.000000
_cell_angle_beta 90.000000
_cell_angle_gamma 90.000000
_cell_volume 4242.152479
_symmetry_space_group_name_H-M "P 42/N N M"
_symmetry_group_IT_number 134
_space_group.IT_coordinate_system_code '2'
_symmetry_cell_setting 'tetragonal'
loop_
_space_group_symop_operation_xyz
x,y,z
1/2-y,x,1/2+z
1/2-x,1/2-y,z
y,1/2-x,1/2+z
x,1/2-y,1/2-z
1/2-x,y,1/2-z
y,x,-z
1/2-y,1/2-x,-z
-x,-y,-z
1/2+y,-x,1/2-z
1/2+x,1/2+y,-z
-y,1/2+x,1/2-z
-x,1/2+y,1/2+z
1/2+x,-y,1/2+z
-y,-x,z
1/2+y,1/2+x,z
loop_
_atom_site_type_symbol
_atom_site_label
_atom_site_fract_x
_atom_site_fract_y
_atom_site_fract_z
Si Si1 0.153501 0.054400 0.609055
Si Si2 0.902699 0.969782 0.891302
Si Si3 0.282637 0.358622 0.500614
Si Si4 0.199738 0.955541 0.617436
Si Si5 0.431181 0.856160 0.386374
O O1 0.112948 0.045627 0.397671
O O2 0.180860 0.099775 0.527559
O O3 0.187780 0.010243 0.605490
O O4 0.132022 0.054600 0.899552
O O5 0.890704 0.024255 0.888614
O O6 0.952353 0.952353 0.000000
O O7 0.250000 0.360317 0.750000
O O8 0.311225 0.311225 0.500000
O O9 0.250000 0.363760 0.250000
O O10 0.250000 0.949369 0.750000
O O11 0.184934 0.938245 0.327399
O O12 0.165070 0.931499 0.823355
O O13 0.385915 0.885915 0.328059
#
# Coordination Sequence:
#
# PCOD9568203 Si02
#       5
#    16  16  16  16  16
#     4  10  21  36  55  78 102 130 174 228 275 314
#     4  10  19  33  54  78 108 145 180 215 257 314
#     4  12  25  39  55  72  95 129 171 224 284 344
#     4  10  20  36  58  82 110 142 180 223 267 314
#     4  10  21  35  53  81 117 150 179 219 263 313
#
# _framework density 18.858350000000002
#
# number of rings (size 3 to 8) (size 9 to 14) (size 15 to 20)
#    0.000    1.600    0.000    5.400    0.000    4.800 
#    0.000    0.000    0.000    7.200    0.000    0.000 
#    0.000   28.000    0.000    0.000    0.000    0.000 
#
# Total GULP energy -446518.938590 kJ/mol
# GULP energy per Si atom -5581.486732 kJ/mol
# Density = 1.881543 g / cm^3
# Si number density = 18.858350 Si / 1000 Ang^3
#
#
#
# Elastic Constant Matrix: (Units=GPa)
#
#
# Indices 1 2 3 4 5 6 
#
# 1 24.5358 46.6312 6.8226 0.0000 0.0000 0.0000
# 2 46.6312 24.5358 6.8226 0.0000 0.0000 0.0000
# 3 6.8226 6.8226 99.6718 0.0000 0.0000 0.0000
# 4 0.0000 0.0000 0.0000 14.2266 0.0000 0.0000
# 5 0.0000 0.0000 0.0000 0.0000 14.2266 0.0000
# 6 0.0000 0.0000 0.0000 0.0000 0.0000 21.9757
#
#
#
# Elastic Compliance Matrix: (Units=1/GPa)
#
#
# Indices 1 2 3 4 5 6 
#
# 1 -0.015510 0.029748 -0.000975 0.000000 0.000000 0.000000
# 2 0.029748 -0.015510 -0.000975 0.000000 0.000000 0.000000
# 3 -0.000975 -0.000975 0.010166 0.000000 0.000000 0.000000
# 4 0.000000 0.000000 0.000000 0.070291 0.000000 0.000000
# 5 0.000000 0.000000 0.000000 0.000000 0.070291 0.000000
# 6 0.000000 0.000000 0.000000 0.000000 0.000000 0.045505
#
#
# Mechanical properties :
#
#
# Convention : Reuss Voigt Hill
#
# Bulk Modulus (GPa) = 28.78151 29.92180 29.35165
# Shear Modulus (GPa) = 41.24859 15.98358 28.61608
#
# Velocity S-wave (km/s) = 4.68192 2.91445 3.89964
# Velocity P-wave (km/s) = 6.67250 5.21789 5.98951
#
# Compressibility (1/GPa) = 0.03474453
#
# Stress axis : x y z
#
# Youngs Moduli (GPa) = -64.47470 -64.47470 98.36369
#
# Poissons Ratio (x) = 1.91801 0.09587
# Poissons Ratio (y) = 1.91801 0.09587
# Poissons Ratio (z) = -0.06284 -0.06284
#
# Static dielectric constant tensor:
#      x y z
#    x 1.686180 0.000000 0.000000 
#    y 0.000000 1.686180 0.000000 
#    z 0.000000 0.000000 1.628190 
# 
# From -- ./inp_files/1132.got.cif
#   From: 2010.05.17/outbox.cif.g08.bks.cpg/sg134_1_cif.got.tgz:1132.got - 2010.05.20 12:42:49.
