data_PCOD9568278
_publ_section_title
;
Structure prediction by ZEFSAII (Michael W. Deem and Ramdas Pophale) SiO2 
 PCOD9568278
Probable space group: P 42/N N M
;
_chemical_formula_sum "Si O2"
_cell_formula_units_Z 80
_cell_length_a 17.713559
_cell_length_b 17.713559
_cell_length_c 13.401882
_cell_angle_alpha 90.000000
_cell_angle_beta 90.000000
_cell_angle_gamma 90.000000
_cell_volume 4205.110826
_symmetry_space_group_name_H-M "P 42/N N M"
_symmetry_group_IT_number 134
_space_group.IT_coordinate_system_code '2'
_symmetry_cell_setting 'tetragonal'
loop_
_space_group_symop_operation_xyz
x,y,z
1/2-y,x,1/2+z
1/2-x,1/2-y,z
y,1/2-x,1/2+z
x,1/2-y,1/2-z
1/2-x,y,1/2-z
y,x,-z
1/2-y,1/2-x,-z
-x,-y,-z
1/2+y,-x,1/2-z
1/2+x,1/2+y,-z
-y,1/2+x,1/2-z
-x,1/2+y,1/2+z
1/2+x,-y,1/2+z
-y,-x,z
1/2+y,1/2+x,z
loop_
_atom_site_type_symbol
_atom_site_label
_atom_site_fract_x
_atom_site_fract_y
_atom_site_fract_z
Si Si1 0.938782 0.815531 0.330275
Si Si2 0.952465 0.173341 0.184283
Si Si3 0.207114 0.032736 0.007181
Si Si4 0.729470 0.662710 0.365933
Si Si5 0.075302 0.453926 0.333714
O O1 0.916783 0.750000 0.250000
O O2 0.983871 0.775537 0.417586
O O3 0.860279 0.845065 0.374196
O O4 0.977860 0.879039 0.264698
O O5 0.953978 0.250000 0.250000
O O6 0.878872 0.121129 0.202716
O O7 0.026108 0.119120 0.197580
O O8 0.963637 0.192700 0.067350
O O9 0.136582 0.053634 0.078347
O O10 0.230052 0.104260 0.938851
O O11 0.750000 0.750000 0.386538
O O12 0.750000 0.648530 0.250000
O O13 0.015824 0.515824 0.367193
#
# Coordination Sequence:
#
# PCOD9568278 Si02
#       5
#    16  16  16  16  16
#     4  10  20  34  50  80 119 156 188 228 275 338
#     4  11  24  41  62  83 111 154 200 254 302 342
#     4  11  22  34  58  89 118 150 194 233 282 353
#     4  11  21  32  47  81 126 161 184 217 274 339
#     4  10  22  40  58  82 117 156 193 236 292 353
#
# _framework density 19.024469
#
# number of rings (size 3 to 8) (size 9 to 14) (size 15 to 20)
#    0.000    1.400    2.000    4.800    5.600    2.600 
#    0.000    1.000    0.000    4.800    0.000    0.000 
#    0.000   19.600    0.000    0.000    0.000    0.000 
#
# Total GULP energy -446674.253947 kJ/mol
# GULP energy per Si atom -5583.428174 kJ/mol
# Density = 1.898117 g / cm^3
# Si number density = 19.024469 Si / 1000 Ang^3
#
#
#
# Elastic Constant Matrix: (Units=GPa)
#
#
# Indices 1 2 3 4 5 6 
#
# 1 74.5836 30.6624 45.7527 0.0000 0.0000 0.0000
# 2 30.6624 74.5836 45.7527 0.0000 0.0000 0.0000
# 3 45.7527 45.7527 118.9924 0.0000 0.0000 0.0000
# 4 0.0000 0.0000 0.0000 21.6866 0.0000 0.0000
# 5 0.0000 0.0000 0.0000 0.0000 21.6866 0.0000
# 6 0.0000 0.0000 0.0000 0.0000 0.0000 15.3002
#
#
#
# Elastic Compliance Matrix: (Units=1/GPa)
#
#
# Indices 1 2 3 4 5 6 
#
# 1 0.018521 -0.004247 -0.005488 0.000000 0.000000 0.000000
# 2 -0.004247 0.018521 -0.005488 0.000000 0.000000 0.000000
# 3 -0.005488 -0.005488 0.012624 0.000000 0.000000 0.000000
# 4 0.000000 0.000000 0.000000 0.046112 0.000000 0.000000
# 5 0.000000 0.000000 0.000000 0.000000 0.046112 0.000000
# 6 0.000000 0.000000 0.000000 0.000000 0.000000 0.065359
#
#
# Mechanical properties :
#
#
# Convention : Reuss Voigt Hill
#
# Bulk Modulus (GPa) = 52.03377 56.94390 54.48883
# Shear Modulus (GPa) = 20.48339 21.46744 20.97542
#
# Velocity S-wave (km/s) = 3.28485 3.36283 3.32407
# Velocity P-wave (km/s) = 6.46509 6.71380 6.59061
#
# Compressibility (1/GPa) = 0.01921829
#
# Stress axis : x y z
#
# Youngs Moduli (GPa) = 53.99406 53.99406 79.21296
#
# Poissons Ratio (x) = 0.22934 0.43472
# Poissons Ratio (y) = 0.22934 0.43472
# Poissons Ratio (z) = 0.29632 0.29632
#
# Static dielectric constant tensor:
#      x y z
#    x 1.676860 0.000000 0.000000 
#    y 0.000000 1.676860 0.000000 
#    z 0.000000 0.000000 1.706340 
# 
# From -- ./inp_files/6297.got.cif
#   From: 2010.05.17/outbox.cif.g08.bks.cpg/sg134_4_cif.got.tgz:6297.got - 2010.05.20 12:42:49.
