data_PCOD9568069
_publ_section_title
;
Structure prediction by ZEFSAII (Michael W. Deem and Ramdas Pophale) SiO2 
 PCOD9568069
Probable space group: P 42/N N M
;
_chemical_formula_sum "Si O2"
_cell_formula_units_Z 72
_cell_length_a 14.414738
_cell_length_b 14.414738
_cell_length_c 13.957891
_cell_angle_alpha 90.000000
_cell_angle_beta 90.000000
_cell_angle_gamma 90.000000
_cell_volume 2900.235798
_symmetry_space_group_name_H-M "P 42/N N M"
_symmetry_group_IT_number 134
_space_group.IT_coordinate_system_code '2'
_symmetry_cell_setting 'tetragonal'
loop_
_space_group_symop_operation_xyz
x,y,z
1/2-y,x,1/2+z
1/2-x,1/2-y,z
y,1/2-x,1/2+z
x,1/2-y,1/2-z
1/2-x,y,1/2-z
y,x,-z
1/2-y,1/2-x,-z
-x,-y,-z
1/2+y,-x,1/2-z
1/2+x,1/2+y,-z
-y,1/2+x,1/2-z
-x,1/2+y,1/2+z
1/2+x,-y,1/2+z
-y,-x,z
1/2+y,1/2+x,z
loop_
_atom_site_type_symbol
_atom_site_label
_atom_site_fract_x
_atom_site_fract_y
_atom_site_fract_z
Si Si1 0.531251 0.031251 0.605632
Si Si2 0.359043 0.640958 0.536537
Si Si3 0.642259 0.854035 0.883877
Si Si4 0.140959 0.640959 0.536537
Si Si5 0.968750 0.031251 0.605632
Si Si6 0.642259 0.854035 0.616123
Si Si7 0.861210 0.361210 0.250000
O O1 0.605643 0.105643 0.566062
O O2 0.442996 0.084295 0.649002
O O3 0.500000 0.000000 0.500000
O O4 0.250001 0.622364 0.538845
O O5 0.394358 0.605643 0.433937
O O6 0.393739 0.606262 0.643165
O O7 0.607992 0.750000 0.858044
O O8 0.750000 0.860510 0.855749
O O9 0.584294 0.942996 0.850998
O O10 0.641908 0.858093 0.000000
O O11 0.106262 0.606262 0.643164
O O12 0.000000 0.000000 0.500000
O O13 0.641909 0.858092 0.500000
O O14 0.875757 0.250000 0.250000
#
# Coordination Sequence:
#
# PCOD9568069 Si02
#       7
#     8   8  16   8   8  16   8
#     4  10  17  23  36  56  78 102 134 169 203 242
#     4   9  16  26  41  62  86 108 131 164 208 255
#     4   8  14  24  35  47  68  99 130 157 189 235
#     4   9  16  26  41  62  86 108 131 164 208 255
#     4  10  17  23  36  56  78 102 134 169 203 242
#     4   8  14  24  35  47  68  99 130 157 189 235
#     4   7  12  24  40  58  82 108 130 157 200 256
#
# _framework density 24.825568000000001
#
# number of rings (size 3 to 8) (size 9 to 14) (size 15 to 20)
#    0.000    3.444    0.000    4.000    0.000    1.778 
#    0.000    0.000    0.000    0.667    0.000    1.556 
#    0.000    8.889    0.000    0.000    0.000    6.889 
#
# Total GULP energy -401392.235137 kJ/mol
# GULP energy per Si atom -5574.892155 kJ/mol
# Density = 2.476906 g / cm^3
# Si number density = 24.825568 Si / 1000 Ang^3
#
#
#
# Elastic Constant Matrix: (Units=GPa)
#
#
# Indices 1 2 3 4 5 6 
#
# 1 174.0558 98.5775 37.0516 0.0000 0.0000 0.0000
# 2 98.5775 174.0558 37.0514 0.0000 0.0000 0.0000
# 3 37.0516 37.0514 158.9870 0.0000 0.0000 0.0000
# 4 0.0000 0.0000 0.0000 -46.4855 0.0000 0.0000
# 5 0.0000 0.0000 0.0000 0.0000 -46.4854 0.0000
# 6 0.0000 0.0000 0.0000 0.0000 0.0000 42.6456
#
#
#
# Elastic Compliance Matrix: (Units=1/GPa)
#
#
# Indices 1 2 3 4 5 6 
#
# 1 0.008582 -0.004666 -0.000913 0.000000 0.000000 0.000000
# 2 -0.004666 0.008582 -0.000913 0.000000 0.000000 0.000000
# 3 -0.000913 -0.000913 0.006715 0.000000 0.000000 0.000000
# 4 0.000000 0.000000 0.000000 -0.021512 0.000000 0.000000
# 5 0.000000 0.000000 0.000000 0.000000 -0.021512 0.000000
# 6 0.000000 0.000000 0.000000 0.000000 0.000000 0.023449
#
#
# Mechanical properties :
#
#
# Convention : Reuss Voigt Hill
#
# Bulk Modulus (GPa) = 91.77081 94.71773 93.24427
# Shear Modulus (GPa) = 239.00156 12.22950 125.61553
#
# Velocity S-wave (km/s) = 9.82249 2.22191 7.12103
# Velocity P-wave (km/s) = 12.87200 6.69467 10.25931
#
# Compressibility (1/GPa) = 0.01089671
#
# Stress axis : x y z
#
# Youngs Moduli (GPa) = 116.51733 116.51742 148.91626
#
# Poissons Ratio (x) = 0.54372 0.13590
# Poissons Ratio (y) = 0.54372 0.13590
# Poissons Ratio (z) = 0.10634 0.10633
#
# Static dielectric constant tensor:
#      x y z
#    x 1.163430 0.000000 0.000000 
#    y 0.000000 1.163420 0.000000 
#    z 0.000000 0.000000 1.608880 
# 
# From -- ./inp_files/7728.got.cif
#   From: 2010.05.17/outbox.cif.g08.bks.cpg/sg134_4_cif.got.tgz:7728.got - 2010.05.20 12:42:49.
