data_PCOD9568684
_publ_section_title
;
Structure prediction by ZEFSAII (Michael W. Deem and Ramdas Pophale) SiO2 
 PCOD9568684
Probable space group: P 42/M B C
;
_chemical_formula_sum "Si O2"
_cell_formula_units_Z 112
_cell_length_a 17.690118
_cell_length_b 17.690118
_cell_length_c 20.262962
_cell_angle_alpha 90.000000
_cell_angle_beta 90.000000
_cell_angle_gamma 90.000000
_cell_volume 6341.096898
_symmetry_space_group_name_H-M "P 42/M B C"
_symmetry_group_IT_number 135
_symmetry_cell_setting 'tetragonal'
loop_
_space_group_symop_operation_xyz
x,y,z
-y,x,1/2+z
-x,-y,z
y,-x,1/2+z
1/2+x,1/2-y,-z
1/2-x,1/2+y,-z
1/2+y,1/2+x,1/2-z
1/2-y,1/2-x,1/2-z
-x,-y,-z
y,-x,1/2-z
x,y,-z
-y,x,1/2-z
1/2-x,1/2+y,z
1/2+x,1/2-y,z
1/2-y,1/2-x,1/2+z
1/2+y,1/2+x,1/2+z
loop_
_atom_site_type_symbol
_atom_site_label
_atom_site_fract_x
_atom_site_fract_y
_atom_site_fract_z
Si Si1 0.474753 0.755112 0.695401
Si Si2 0.510102 0.305900 0.838199
Si Si3 0.918699 0.683833 0.074697
Si Si4 0.831184 0.878217 0.171438
Si Si5 0.837666 0.176087 0.180458
Si Si6 0.263514 0.257764 0.576554
Si Si7 0.951511 0.576906 0.324266
O O1 0.482633 0.749752 0.774813
O O2 0.536442 0.695592 0.670940
O O3 0.393707 0.720537 0.677080
O O4 0.489020 0.839790 0.669055
O O5 0.531420 0.254587 0.900601
O O6 0.578583 0.365392 0.829964
O O7 0.425812 0.339349 0.837143
O O8 0.830495 0.707778 0.078175
O O9 0.929888 0.614268 0.122913
O O10 0.937551 0.664345 0.000000
O O11 0.803115 0.841257 0.241279
O O12 0.792674 0.838077 0.109480
O O13 0.806301 0.235200 0.127088
O O14 0.271211 0.234194 0.500000
O O15 0.919653 0.580348 0.250000
O O16 0.000000 0.500000 0.328369
#
# Coordination Sequence:
#
# PCOD9568684 Si02
#       7
#    16  16  16  16  16  16  16
#     4  10  19  36  57  82 112 147 190 235 287 343
#     4   9  19  34  55  84 112 144 187 238 293 336
#     4  10  20  36  57  79 111 150 192 234 283 344
#     4   9  20  35  55  83 114 146 186 237 290 345
#     4  10  19  33  59  83 108 148 192 234 286 353
#     4  10  20  35  55  80 108 149 195 237 278 334
#     4  11  22  36  57  81 114 151 188 237 287 342
#
# _framework density 17.662559000000002
#
# number of rings (size 3 to 8) (size 9 to 14) (size 15 to 20)
#    0.000    2.143    2.857    0.429    0.000    2.571 
#    2.571    4.286    0.000    0.000    0.000    5.000 
#    0.000    0.000    0.000    0.000    0.000    0.000 
#
# Total GULP energy -623658.114928 kJ/mol
# GULP energy per Si atom -5568.376026 kJ/mol
# Density = 1.762236 g / cm^3
# Si number density = 17.662559 Si / 1000 Ang^3
#
#
#
# Elastic Constant Matrix: (Units=GPa)
#
#
# Indices 1 2 3 4 5 6 
#
# 1 51.3810 7.5378 12.2579 0.0000 0.0000 0.0000
# 2 7.5378 51.3805 12.2580 0.0000 0.0000 0.0000
# 3 12.2579 12.2580 92.4415 0.0000 0.0000 0.0000
# 4 0.0000 0.0000 0.0000 15.8226 0.0000 0.0000
# 5 0.0000 0.0000 0.0000 0.0000 15.8224 0.0000
# 6 0.0000 0.0000 0.0000 0.0000 0.0000 14.4420
#
#
#
# Elastic Compliance Matrix: (Units=1/GPa)
#
#
# Indices 1 2 3 4 5 6 
#
# 1 0.020386 -0.002422 -0.002382 0.000000 0.000000 0.000000
# 2 -0.002422 0.020386 -0.002382 0.000000 0.000000 0.000000
# 3 -0.002382 -0.002382 0.011449 0.000000 0.000000 0.000000
# 4 0.000000 0.000000 0.000000 0.063201 0.000000 0.000000
# 5 0.000000 0.000000 0.000000 0.000000 0.063201 0.000000
# 6 0.000000 0.000000 0.000000 0.000000 0.000000 0.069242
#
#
# Mechanical properties :
#
#
# Convention : Reuss Voigt Hill
#
# Bulk Modulus (GPa) = 26.42098 28.81227 27.61662
# Shear Modulus (GPa) = 18.19135 20.09402 19.14268
#
# Velocity S-wave (km/s) = 3.21275 3.37658 3.29568
# Velocity P-wave (km/s) = 5.36223 5.61692 5.49105
#
# Compressibility (1/GPa) = 0.03784872
#
# Stress axis : x y z
#
# Youngs Moduli (GPa) = 49.05299 49.05254 87.34095
#
# Poissons Ratio (x) = 0.11883 0.20805
# Poissons Ratio (y) = 0.11883 0.20805
# Poissons Ratio (z) = 0.11684 0.11685
#
# Static dielectric constant tensor:
#      x y z
#    x 1.606760 0.000000 0.000000 
#    y 0.000000 1.606760 0.000000 
#    z 0.000000 0.000000 1.603520 
# 
# From -- ./inp_files/5644.got.cif
#   From: 2010.05.17/outbox.cif.g08.bks.cpg/sg135_3_cif.got.tgz:5644.got - 2010.05.20 12:50:20.
