data_PCOD9568959
_publ_section_title
;
Structure prediction by ZEFSAII (Michael W. Deem and Ramdas Pophale) SiO2 
 PCOD9568959
Probable space group: P 42/M B C
;
_chemical_formula_sum "Si O2"
_cell_formula_units_Z 88
_cell_length_a 13.862582
_cell_length_b 13.862582
_cell_length_c 20.319426
_cell_angle_alpha 90.000000
_cell_angle_beta 90.000000
_cell_angle_gamma 90.000000
_cell_volume 3904.808065
_symmetry_space_group_name_H-M "P 42/M B C"
_symmetry_group_IT_number 135
_symmetry_cell_setting 'tetragonal'
loop_
_space_group_symop_operation_xyz
x,y,z
-y,x,1/2+z
-x,-y,z
y,-x,1/2+z
1/2+x,1/2-y,-z
1/2-x,1/2+y,-z
1/2+y,1/2+x,1/2-z
1/2-y,1/2-x,1/2-z
-x,-y,-z
y,-x,1/2-z
x,y,-z
-y,x,1/2-z
1/2-x,1/2+y,z
1/2+x,1/2-y,z
1/2-y,1/2-x,1/2+z
1/2+y,1/2+x,1/2+z
loop_
_atom_site_type_symbol
_atom_site_label
_atom_site_fract_x
_atom_site_fract_y
_atom_site_fract_z
Si Si1 0.637889 0.728102 0.500000
Si Si2 0.487495 0.791512 0.860353
Si Si3 0.606127 0.222418 0.366790
Si Si4 0.698700 0.508925 0.500000
Si Si5 0.878828 0.308502 0.355993
Si Si6 0.176161 0.913054 0.000000
Si Si7 0.289897 0.357407 0.263297
O O1 0.685516 0.623541 0.500000
O O2 0.654271 0.782956 0.569133
O O3 0.525103 0.701041 0.500000
O O4 0.808749 0.130119 0.813684
O O5 0.582459 0.848846 0.837608
O O6 0.454367 0.712536 0.805852
O O7 0.512671 0.752160 0.932004
O O8 0.493462 0.202273 0.355811
O O9 0.627708 0.271702 0.435996
O O10 0.652750 0.114942 0.369152
O O11 0.607604 0.437294 0.500000
O O12 0.837222 0.227522 0.305906
O O13 0.179226 0.320775 0.250000
#
# Coordination Sequence:
#
# PCOD9568959 Si02
#       7
#     8  16  16   8  16   8  16
#     4  10  22  45  63 101 134 178 238 281 338 422
#     4  11  24  39  67 104 133 177 232 284 350 412
#     4  10  24  45  66 101 142 177 236 291 344 426
#     4  12  23  38  69  98 141 181 233 284 354 415
#     4  11  23  43  72  96 141 186 226 290 355 410
#     4  10  24  41  69  93 139 183 223 295 346 411
#     4  10  24  41  63  99 137 174 228 285 337 426
#
# _framework density 22.536318000000001
#
# number of rings (size 3 to 8) (size 9 to 14) (size 15 to 20)
#    0.000    1.455    1.818    1.909    7.636    1.455 
#    0.000    6.364    0.000    0.000    0.000    0.000 
#    0.000    0.000    0.000    0.000    0.000    0.000 
#
# Total GULP energy -490576.660753 kJ/mol
# GULP energy per Si atom -5574.734781 kJ/mol
# Density = 2.248502 g / cm^3
# Si number density = 22.536318 Si / 1000 Ang^3
#
#
#
# Elastic Constant Matrix: (Units=GPa)
#
#
# Indices 1 2 3 4 5 6 
#
# 1 96.8880 19.5698 39.0787 0.0000 0.0000 0.0000
# 2 19.5698 96.8873 39.0787 0.0000 0.0000 0.0000
# 3 39.0787 39.0787 185.7355 0.0000 0.0000 0.0000
# 4 0.0000 0.0000 0.0000 17.3490 0.0000 0.0000
# 5 0.0000 0.0000 0.0000 0.0000 17.3492 0.0000
# 6 0.0000 0.0000 0.0000 0.0000 0.0000 187.2478
#
#
#
# Elastic Compliance Matrix: (Units=1/GPa)
#
#
# Indices 1 2 3 4 5 6 
#
# 1 0.011466 -0.001467 -0.002104 0.000000 0.000000 0.000000
# 2 -0.001467 0.011466 -0.002104 0.000000 0.000000 0.000000
# 3 -0.002104 -0.002104 0.006269 0.000000 0.000000 0.000000
# 4 0.000000 0.000000 0.000000 0.057640 0.000000 0.000000
# 5 0.000000 0.000000 0.000000 0.000000 0.057640 0.000000
# 6 0.000000 0.000000 0.000000 0.000000 0.000000 0.005341
#
#
# Mechanical properties :
#
#
# Convention : Reuss Voigt Hill
#
# Bulk Modulus (GPa) = 56.01697 63.88502 59.95100
# Shear Modulus (GPa) = 29.91824 63.17477 46.54651
#
# Velocity S-wave (km/s) = 3.64752 5.30031 4.54960
# Velocity P-wave (km/s) = 6.53065 8.11584 7.36601
#
# Compressibility (1/GPa) = 0.01785173
#
# Stress axis : x y z
#
# Youngs Moduli (GPa) = 87.21355 87.21289 159.50887
#
# Poissons Ratio (x) = 0.12798 0.33556
# Poissons Ratio (y) = 0.12798 0.33556
# Poissons Ratio (z) = 0.18347 0.18347
#
# Static dielectric constant tensor:
#      x y z
#    x 1.858500 0.000000 0.000000 
#    y 0.000000 1.858500 0.000000 
#    z 0.000000 0.000000 2.664460 
# 
# From -- ./inp_files/6048.got.cif
#   From: 2010.05.17/outbox.cif.g08.bks.cpg/sg135_4_cif.got.tgz:6048.got - 2010.05.20 12:50:20.
