data_PCOD9568937
_publ_section_title
;
Structure prediction by ZEFSAII (Michael W. Deem and Ramdas Pophale) SiO2 
 PCOD9568937
Probable space group: P 42/M B C
;
_chemical_formula_sum "Si O2"
_cell_formula_units_Z 56
_cell_length_a 17.011511
_cell_length_b 17.011511
_cell_length_c 9.589700
_cell_angle_alpha 90.000000
_cell_angle_beta 90.000000
_cell_angle_gamma 90.000000
_cell_volume 2775.177730
_symmetry_space_group_name_H-M "P 42/M B C"
_symmetry_group_IT_number 135
_symmetry_cell_setting 'tetragonal'
loop_
_space_group_symop_operation_xyz
x,y,z
-y,x,1/2+z
-x,-y,z
y,-x,1/2+z
1/2+x,1/2-y,-z
1/2-x,1/2+y,-z
1/2+y,1/2+x,1/2-z
1/2-y,1/2-x,1/2-z
-x,-y,-z
y,-x,1/2-z
x,y,-z
-y,x,1/2-z
1/2-x,1/2+y,z
1/2+x,1/2-y,z
1/2-y,1/2-x,1/2+z
1/2+y,1/2+x,1/2+z
loop_
_atom_site_type_symbol
_atom_site_label
_atom_site_fract_x
_atom_site_fract_y
_atom_site_fract_z
Si Si1 0.182465 0.885666 0.844953
Si Si2 0.030710 0.633360 0.159179
Si Si3 0.144023 0.355978 0.250000
Si Si4 0.214794 0.068322 0.162394
O O1 0.273768 0.860865 0.831077
O O2 0.131630 0.844101 0.726718
O O3 0.179894 0.980022 0.831238
O O4 0.153679 0.863919 0.000000
O O5 0.060563 0.560563 0.250000
O O6 0.065623 0.708260 0.240890
O O7 0.936347 0.640991 0.161838
O O8 0.057706 0.628014 0.000000
O O9 0.233263 0.084438 0.000000
#
# Coordination Sequence:
#
# PCOD9568937 Si02
#       4
#    16  16   8  16
#     4  10  22  41  63  89 122 159 204 254 307 364
#     4  11  23  40  63  91 126 165 206 253 306 364
#     4  10  23  40  64  92 122 161 206 254 304 364
#     4  10  23  41  62  91 124 162 208 254 305 366
#
# _framework density 20.178888000000001
#
# number of rings (size 3 to 8) (size 9 to 14) (size 15 to 20)
#    0.000    1.714    0.000    3.000    2.000   12.000 
#    0.000    2.857    0.000    0.000    0.000    0.000 
#    0.000    0.000    0.000    0.000    0.000    0.000 
#
# Total GULP energy -312819.209983 kJ/mol
# GULP energy per Si atom -5586.057321 kJ/mol
# Density = 2.013296 g / cm^3
# Si number density = 20.178888 Si / 1000 Ang^3
#
#
#
# Elastic Constant Matrix: (Units=GPa)
#
#
# Indices 1 2 3 4 5 6 
#
# 1 67.6014 58.5744 58.2406 0.0000 0.0000 0.0000
# 2 58.5744 67.6010 58.2407 0.0000 0.0000 0.0000
# 3 58.2406 58.2407 196.4141 0.0000 0.0000 0.0000
# 4 0.0000 0.0000 0.0000 -9.0455 0.0000 0.0000
# 5 0.0000 0.0000 0.0000 0.0000 -9.0497 0.0000
# 6 0.0000 0.0000 0.0000 0.0000 0.0000 30.6687
#
#
#
# Elastic Compliance Matrix: (Units=1/GPa)
#
#
# Indices 1 2 3 4 5 6 
#
# 1 0.060847 -0.049934 -0.003236 0.000000 0.000000 0.000000
# 2 -0.049934 0.060847 -0.003236 0.000000 0.000000 0.000000
# 3 -0.003236 -0.003236 0.007010 0.000000 0.000000 0.000000
# 4 0.000000 0.000000 0.000000 -0.110552 0.000000 0.000000
# 5 0.000000 0.000000 0.000000 0.000000 -0.110501 0.000000
# 6 0.000000 0.000000 0.000000 0.000000 0.000000 0.032607
#
#
# Mechanical properties :
#
#
# Convention : Reuss Voigt Hill
#
# Bulk Modulus (GPa) = 62.92353 75.74757 69.33555
# Shear Modulus (GPa) = 85.66476 12.95208 49.30842
#
# Velocity S-wave (km/s) = 6.52264 2.53625 4.94861
# Velocity P-wave (km/s) = 9.37960 6.79678 8.19064
#
# Compressibility (1/GPa) = 0.01589231
#
# Stress axis : x y z
#
# Youngs Moduli (GPa) = 16.43475 16.43462 142.64814
#
# Poissons Ratio (x) = 0.82065 0.46157
# Poissons Ratio (y) = 0.82066 0.46160
# Poissons Ratio (z) = 0.05318 0.05318
#
# Static dielectric constant tensor:
#      x y z
#    x 1.714200 0.000000 0.000000 
#    y 0.000000 1.714210 0.000000 
#    z 0.000000 0.000000 1.708740 
# 
# From -- ./inp_files/672.got.cif
#   From: 2010.05.17/outbox.cif.g08.bks.cpg/sg135_1_cif.got.tgz:672.got - 2010.05.20 12:50:20.
