data_PCOD9568997
_publ_section_title
;
Structure prediction by ZEFSAII (Michael W. Deem and Ramdas Pophale) SiO2 
 PCOD9568997
Probable space group: P 42/M B C
;
_chemical_formula_sum "Si O2"
_cell_formula_units_Z 112
_cell_length_a 14.082100
_cell_length_b 14.082100
_cell_length_c 27.450366
_cell_angle_alpha 90.000000
_cell_angle_beta 90.000000
_cell_angle_gamma 90.000000
_cell_volume 5443.559664
_symmetry_space_group_name_H-M "P 42/M B C"
_symmetry_group_IT_number 135
_symmetry_cell_setting 'tetragonal'
loop_
_space_group_symop_operation_xyz
x,y,z
-y,x,1/2+z
-x,-y,z
y,-x,1/2+z
1/2+x,1/2-y,-z
1/2-x,1/2+y,-z
1/2+y,1/2+x,1/2-z
1/2-y,1/2-x,1/2-z
-x,-y,-z
y,-x,1/2-z
x,y,-z
-y,x,1/2-z
1/2-x,1/2+y,z
1/2+x,1/2-y,z
1/2-y,1/2-x,1/2+z
1/2+y,1/2+x,1/2+z
loop_
_atom_site_type_symbol
_atom_site_label
_atom_site_fract_x
_atom_site_fract_y
_atom_site_fract_z
Si Si1 0.018048 0.164121 0.801636
Si Si2 0.115755 0.597886 0.557042
Si Si3 0.254493 0.287424 0.055526
Si Si4 0.407506 0.448178 0.442954
Si Si5 0.991302 0.765240 0.585733
Si Si6 0.978825 0.848487 0.689456
Si Si7 0.941792 0.716785 0.890037
O O1 0.022421 0.189511 0.744615
O O2 0.042969 0.254125 0.834410
O O3 0.917702 0.112987 0.813683
O O4 0.090869 0.077013 0.812270
O O5 0.113285 0.571630 0.500000
O O6 0.206500 0.668048 0.564890
O O7 0.132172 0.506454 0.590364
O O8 0.024854 0.661213 0.570429
O O9 0.295695 0.393548 0.060069
O O10 0.167094 0.290224 0.093205
O O11 0.218324 0.273433 0.000000
O O12 0.500000 0.500000 0.421886
O O13 0.401229 0.467094 0.500000
O O14 0.428275 0.337715 0.433239
O O15 0.311406 0.477792 0.417871
O O16 0.980592 0.778751 0.643649
#
# Coordination Sequence:
#
# PCOD9568997 Si02
#       7
#    16  16  16  16  16  16  16
#     4   9  17  32  57  87 114 144 191 252 308 351
#     4  11  23  38  57  84 118 156 199 244 294 354
#     4  11  23  38  57  84 118 156 199 244 294 354
#     4  11  20  32  56  84 107 139 191 247 298 342
#     4  12  22  37  57  81 119 156 193 240 293 351
#     4   9  17  32  57  87 114 144 191 252 308 351
#     4  12  22  37  57  81 119 156 193 240 293 351
#
# _framework density 20.574771999999999
#
# number of rings (size 3 to 8) (size 9 to 14) (size 15 to 20)
#    0.000    1.286    2.857    6.000    0.000    2.857 
#    0.000    2.857    0.000    5.143    0.000    2.000 
#    0.000    0.000    0.000    0.000    0.000    0.000 
#
# Total GULP energy -626095.527259 kJ/mol
# GULP energy per Si atom -5590.138636 kJ/mol
# Density = 2.052794 g / cm^3
# Si number density = 20.574772 Si / 1000 Ang^3
#
#
#
# Elastic Constant Matrix: (Units=GPa)
#
#
# Indices 1 2 3 4 5 6 
#
# 1 41.6803 2.0155 6.1839 0.0000 0.0000 0.0000
# 2 2.0155 41.6803 6.1839 0.0000 0.0000 0.0000
# 3 6.1839 6.1839 112.3901 0.0000 0.0000 0.0000
# 4 0.0000 0.0000 0.0000 21.2224 0.0000 0.0000
# 5 0.0000 0.0000 0.0000 0.0000 21.2224 0.0000
# 6 0.0000 0.0000 0.0000 0.0000 0.0000 31.5795
#
#
#
# Elastic Compliance Matrix: (Units=1/GPa)
#
#
# Indices 1 2 3 4 5 6 
#
# 1 0.024229 -0.000982 -0.001279 0.000000 0.000000 0.000000
# 2 -0.000982 0.024229 -0.001279 0.000000 0.000000 0.000000
# 3 -0.001279 -0.001279 0.009038 0.000000 0.000000 0.000000
# 4 0.000000 0.000000 0.000000 0.047120 0.000000 0.000000
# 5 0.000000 0.000000 0.000000 0.000000 0.047120 0.000000
# 6 0.000000 0.000000 0.000000 0.000000 0.000000 0.031666
#
#
# Mechanical properties :
#
#
# Convention : Reuss Voigt Hill
#
# Bulk Modulus (GPa) = 19.83462 24.94637 22.39050
# Shear Modulus (GPa) = 24.12091 26.89604 25.50847
#
# Velocity S-wave (km/s) = 3.42768 3.61949 3.52489
# Velocity P-wave (km/s) = 5.03255 5.44230 5.24143
#
# Compressibility (1/GPa) = 0.05041689
#
# Stress axis : x y z
#
# Youngs Moduli (GPa) = 41.27220 41.27220 110.63977
#
# Poissons Ratio (x) = 0.04052 0.14152
# Poissons Ratio (y) = 0.04052 0.14152
# Poissons Ratio (z) = 0.05279 0.05279
#
# Static dielectric constant tensor:
#      x y z
#    x 1.761350 0.000000 0.000000 
#    y 0.000000 1.761350 0.000000 
#    z 0.000000 0.000000 1.723000 
# 
# From -- ./inp_files/6501.got.cif
#   From: 2010.05.17/outbox.cif.g08.bks.cpg/sg135_4_cif.got.tgz:6501.got - 2010.05.20 12:50:20.
