data_PCOD9568448
_publ_section_title
;
Structure prediction by ZEFSAII (Michael W. Deem and Ramdas Pophale) SiO2 
 PCOD9568448
Probable space group: P 42/N N M
;
_chemical_formula_sum "Si O2"
_cell_formula_units_Z 84
_cell_length_a 11.963679
_cell_length_b 11.963679
_cell_length_c 29.026781
_cell_angle_alpha 90.000000
_cell_angle_beta 90.000000
_cell_angle_gamma 90.000000
_cell_volume 4154.591995
_symmetry_space_group_name_H-M "P 42/N N M"
_symmetry_group_IT_number 134
_space_group.IT_coordinate_system_code '2'
_symmetry_cell_setting 'tetragonal'
loop_
_space_group_symop_operation_xyz
x,y,z
1/2-y,x,1/2+z
1/2-x,1/2-y,z
y,1/2-x,1/2+z
x,1/2-y,1/2-z
1/2-x,y,1/2-z
y,x,-z
1/2-y,1/2-x,-z
-x,-y,-z
1/2+y,-x,1/2-z
1/2+x,1/2+y,-z
-y,1/2+x,1/2-z
-x,1/2+y,1/2+z
1/2+x,-y,1/2+z
-y,-x,z
1/2+y,1/2+x,z
loop_
_atom_site_type_symbol
_atom_site_label
_atom_site_fract_x
_atom_site_fract_y
_atom_site_fract_z
Si Si1 0.633901 0.548725 0.546998
Si Si2 0.008592 0.272107 0.106396
Si Si3 0.296228 0.524788 0.797922
Si Si4 0.750000 0.250000 0.080668
Si Si5 0.851989 0.541677 0.604106
Si Si6 0.836870 0.525817 0.708523
O O1 0.618103 0.618103 0.500000
O O2 0.568058 0.431943 0.540871
O O3 0.570099 0.623353 0.584519
O O4 0.759145 0.532757 0.564727
O O5 0.990714 0.289796 0.161088
O O6 0.085996 0.161480 0.102368
O O7 0.888598 0.251446 0.083514
O O8 0.250000 0.567062 0.750000
O O9 0.387080 0.612921 0.816623
O O10 0.362697 0.411675 0.787232
O O11 0.796787 0.528152 0.655232
O O12 0.945823 0.445823 0.600247
O O13 0.750000 0.521603 0.750000
O O14 0.921430 0.421430 0.712782
#
# Coordination Sequence:
#
# PCOD9568448 Si02
#       6
#    16  16  16   4  16  16
#     4  11  26  46  67  98 131 167 220 278 336 399
#     4  11  22  42  66  93 131 173 219 272 329 396
#     4  10  22  35  54  87 125 162 207 256 312 386
#     4  12  20  40  71  98 128 176 220 272 345 380
#     4  10  22  44  67  93 132 171 220 274 328 398
#     4   9  20  38  57  85 122 164 212 259 312 378
#
# _framework density 20.218591
#
# number of rings (size 3 to 8) (size 9 to 14) (size 15 to 20)
#    0.000    1.714    2.857    1.714    4.000    3.429 
#    1.714    2.857    0.000    0.000    0.000    0.000 
#    0.000    0.000    0.000    0.000    0.000    0.000 
#
# Total GULP energy -468087.776177 kJ/mol
# GULP energy per Si atom -5572.473526 kJ/mol
# Density = 2.017257 g / cm^3
# Si number density = 20.218591 Si / 1000 Ang^3
#
#
#
# Elastic Constant Matrix: (Units=GPa)
#
#
# Indices 1 2 3 4 5 6 
#
# 1 69.1183 -1.1247 22.6590 0.0000 0.0000 0.0000
# 2 -1.1247 69.1183 22.6590 0.0000 0.0000 0.0000
# 3 22.6590 22.6590 85.7040 0.0000 0.0000 0.0000
# 4 0.0000 0.0000 0.0000 2.0013 0.0000 0.0000
# 5 0.0000 0.0000 0.0000 0.0000 2.0013 0.0000
# 6 0.0000 0.0000 0.0000 0.0000 0.0000 10.5579
#
#
#
# Elastic Compliance Matrix: (Units=1/GPa)
#
#
# Indices 1 2 3 4 5 6 
#
# 1 0.016045 0.001808 -0.004720 0.000000 0.000000 0.000000
# 2 0.001808 0.016045 -0.004720 0.000000 0.000000 0.000000
# 3 -0.004720 -0.004720 0.014164 0.000000 0.000000 0.000000
# 4 0.000000 0.000000 0.000000 0.499672 0.000000 0.000000
# 5 0.000000 0.000000 0.000000 0.000000 0.499672 0.000000
# 6 0.000000 0.000000 0.000000 0.000000 0.000000 0.094716
#
#
# Mechanical properties :
#
#
# Convention : Reuss Voigt Hill
#
# Bulk Modulus (GPa) = 32.26864 34.70302 33.48583
# Shear Modulus (GPa) = 4.28850 14.89525 9.59188
#
# Velocity S-wave (km/s) = 1.45797 2.71719 2.18046
# Velocity P-wave (km/s) = 4.33921 5.20051 4.78926
#
# Compressibility (1/GPa) = 0.03098984
#
# Stress axis : x y z
#
# Youngs Moduli (GPa) = 62.32554 62.32554 70.60171
#
# Poissons Ratio (x) = -0.11272 0.33325
# Poissons Ratio (y) = -0.11272 0.33325
# Poissons Ratio (z) = 0.29419 0.29419
#
# Static dielectric constant tensor:
#      x y z
#    x 1.707640 0.000000 0.000000 
#    y 0.000000 1.707640 0.000000 
#    z 0.000000 0.000000 1.759340 
# 
# From -- ./inp_files/11411.got.cif
#   From: 2010.05.17/outbox.cif.g08.bks.cpg/sg134_6_cif.got.tgz:11411.got - 2010.05.20 12:42:49.
