data_PCOD9568853
_publ_section_title
;
Structure prediction by ZEFSAII (Michael W. Deem and Ramdas Pophale) SiO2 
 PCOD9568853
Probable space group: P 42/M B C
;
_chemical_formula_sum "Si O2"
_cell_formula_units_Z 116
_cell_length_a 18.230860
_cell_length_b 18.230860
_cell_length_c 17.097385
_cell_angle_alpha 90.000000
_cell_angle_beta 90.000000
_cell_angle_gamma 90.000000
_cell_volume 5682.559651
_symmetry_space_group_name_H-M "P 42/M B C"
_symmetry_group_IT_number 135
_symmetry_cell_setting 'tetragonal'
loop_
_space_group_symop_operation_xyz
x,y,z
-y,x,1/2+z
-x,-y,z
y,-x,1/2+z
1/2+x,1/2-y,-z
1/2-x,1/2+y,-z
1/2+y,1/2+x,1/2-z
1/2-y,1/2-x,1/2-z
-x,-y,-z
y,-x,1/2-z
x,y,-z
-y,x,1/2-z
1/2-x,1/2+y,z
1/2+x,1/2-y,z
1/2-y,1/2-x,1/2+z
1/2+y,1/2+x,1/2+z
loop_
_atom_site_type_symbol
_atom_site_label
_atom_site_fract_x
_atom_site_fract_y
_atom_site_fract_z
Si Si1 0.146479 0.934408 0.677071
Si Si2 0.791719 0.337062 0.591832
Si Si3 0.709124 0.404169 0.906732
Si Si4 0.000000 0.000000 0.250000
Si Si5 0.557891 0.057352 0.093609
Si Si6 0.494057 0.788754 0.092206
Si Si7 0.549961 0.222360 0.407865
Si Si8 0.276755 0.328420 0.199823
O O1 0.122900 0.870453 0.617008
O O2 0.214554 0.979347 0.640303
O O3 0.178116 0.885948 0.748432
O O4 0.074382 0.980649 0.701360
O O5 0.773768 0.322700 0.500000
O O6 0.850134 0.275261 0.617627
O O7 0.815338 0.421504 0.596287
O O8 0.723085 0.328796 0.648639
O O9 0.725165 0.485918 0.876716
O O10 0.714649 0.408059 0.000000
O O11 0.551924 0.141149 0.122423
O O12 0.638704 0.025187 0.101765
O O13 0.500000 0.000000 0.127170
O O14 0.543364 0.064226 0.000000
O O15 0.477265 0.774377 0.000000
O O16 0.562015 0.235756 0.500000
O O17 0.624305 0.231414 0.361798
O O18 0.222762 0.277239 0.250000
#
# Coordination Sequence:
#
# PCOD9568853 Si02
#       8
#    16  16  16   4  16  16  16  16
#     4  12  24  43  61  90 125 173 222 268 327 390
#     4  10  21  39  63  91 121 157 209 265 319 378
#     4  10  21  39  64  92 123 160 210 268 323 380
#     4  12  28  44  62  80 128 184 220 278 336 396
#     4   9  17  32  58  91 124 156 193 244 313 380
#     4  10  21  38  64  93 124 165 212 265 319 386
#     4  10  21  37  60  89 120 157 202 257 311 373
#     4  12  23  39  61  90 122 161 208 259 321 380
#
# _framework density 20.413335
#
# number of rings (size 3 to 8) (size 9 to 14) (size 15 to 20)
#    0.000    1.517    1.379    4.138    0.000    3.310 
#    0.000    2.759    0.000    2.897    0.000    0.000 
#    0.000    0.000    0.000    0.000    0.000    0.000 
#
# Total GULP energy -647538.924353 kJ/mol
# GULP energy per Si atom -5582.232106 kJ/mol
# Density = 2.036687 g / cm^3
# Si number density = 20.413335 Si / 1000 Ang^3
#
#
#
# Elastic Constant Matrix: (Units=GPa)
#
#
# Indices 1 2 3 4 5 6 
#
# 1 72.2243 20.3420 6.3862 0.0000 0.0000 0.0000
# 2 20.3420 72.2244 6.3857 0.0000 0.0000 0.0000
# 3 6.3862 6.3857 17.9673 0.0000 0.0000 0.0000
# 4 0.0000 0.0000 0.0000 20.0138 0.0000 0.0000
# 5 0.0000 0.0000 0.0000 0.0000 20.0121 0.0000
# 6 0.0000 0.0000 0.0000 0.0000 0.0000 38.0588
#
#
#
# Elastic Compliance Matrix: (Units=1/GPa)
#
#
# Indices 1 2 3 4 5 6 
#
# 1 0.015317 -0.003957 -0.004038 0.000000 0.000000 0.000000
# 2 -0.003957 0.015317 -0.004037 0.000000 0.000000 0.000000
# 3 -0.004038 -0.004037 0.058527 0.000000 0.000000 0.000000
# 4 0.000000 0.000000 0.000000 0.049965 0.000000 0.000000
# 5 0.000000 0.000000 0.000000 0.000000 0.049970 0.000000
# 6 0.000000 0.000000 0.000000 0.000000 0.000000 0.026275
#
#
# Mechanical properties :
#
#
# Convention : Reuss Voigt Hill
#
# Bulk Modulus (GPa) = 15.36179 25.40485 20.38332
# Shear Modulus (GPa) = 19.14717 24.23708 21.69213
#
# Velocity S-wave (km/s) = 3.06596 3.44948 3.26336
# Velocity P-wave (km/s) = 4.48053 5.32330 4.91999
#
# Compressibility (1/GPa) = 0.06509656
#
# Stress axis : x y z
#
# Youngs Moduli (GPa) = 65.28557 65.28605 17.08622
#
# Poissons Ratio (x) = 0.25834 0.06899
# Poissons Ratio (y) = 0.25834 0.06898
# Poissons Ratio (z) = 0.26362 0.26358
#
# Static dielectric constant tensor:
#      x y z
#    x 1.737560 0.000000 0.000000 
#    y 0.000000 1.737560 0.000000 
#    z 0.000000 0.000000 1.735360 
# 
# From -- ./inp_files/4619.got.cif
#   From: 2010.05.17/outbox.cif.g08.bks.cpg/sg135_3_cif.got.tgz:4619.got - 2010.05.20 12:50:20.
