data_PCOD9568194
_publ_section_title
;
Structure prediction by ZEFSAII (Michael W. Deem and Ramdas Pophale) SiO2 
 PCOD9568194
Probable space group: P 42/N N M
;
_chemical_formula_sum "Si O2"
_cell_formula_units_Z 96
_cell_length_a 27.073543
_cell_length_b 27.073543
_cell_length_c 8.545063
_cell_angle_alpha 90.000000
_cell_angle_beta 90.000000
_cell_angle_gamma 90.000000
_cell_volume 6263.332340
_symmetry_space_group_name_H-M "P 42/N N M"
_symmetry_group_IT_number 134
_space_group.IT_coordinate_system_code '2'
_symmetry_cell_setting 'tetragonal'
loop_
_space_group_symop_operation_xyz
x,y,z
1/2-y,x,1/2+z
1/2-x,1/2-y,z
y,1/2-x,1/2+z
x,1/2-y,1/2-z
1/2-x,y,1/2-z
y,x,-z
1/2-y,1/2-x,-z
-x,-y,-z
1/2+y,-x,1/2-z
1/2+x,1/2+y,-z
-y,1/2+x,1/2-z
-x,1/2+y,1/2+z
1/2+x,-y,1/2+z
-y,-x,z
1/2+y,1/2+x,z
loop_
_atom_site_type_symbol
_atom_site_label
_atom_site_fract_x
_atom_site_fract_y
_atom_site_fract_z
Si Si1 0.033221 0.118898 0.496907
Si Si2 0.696798 0.820394 0.182980
Si Si3 0.003369 0.420066 0.331384
Si Si4 0.029658 0.110879 0.844121
Si Si5 0.219961 0.073164 0.617075
Si Si6 0.292396 0.096542 0.353334
O O1 0.081829 0.081829 0.500000
O O2 0.003036 0.105774 0.339116
O O3 0.007695 0.113368 0.667388
O O4 0.047542 0.176341 0.477170
O O5 0.750000 0.805818 0.250000
O O6 0.692675 0.879598 0.190260
O O7 0.650648 0.800875 0.281790
O O8 0.693227 0.806774 0.000000
O O9 0.058560 0.442268 0.340452
O O10 0.998240 0.389604 0.494497
O O11 0.963850 0.463850 0.333510
O O12 0.067601 0.156493 0.857001
O O13 0.250000 0.043627 0.750000
O O14 0.263631 0.097120 0.515184
O O15 0.250000 0.070376 0.250000
#
# Coordination Sequence:
#
# PCOD9568194 Si02
#       6
#    16  16  16  16  16  16
#     4  10  19  33  52  67  91 119 150 188 246 309
#     4  11  23  38  44  57  79 108 152 207 255 294
#     4  10  21  34  52  78  97 113 146 192 256 318
#     4  10  19  33  52  67  93 118 146 184 239 301
#     4  11  22  36  51  64  85 119 161 202 248 296
#     4  12  22  37  49  63  87 118 160 201 237 300
#
# _framework density 15.327304
#
# number of rings (size 3 to 8) (size 9 to 14) (size 15 to 20)
#    0.000    1.333    3.333    4.500    0.000   10.667 
#    3.000    0.000    0.000    0.000    0.000    0.000 
#    0.000    0.000    0.000    0.000    0.000    0.000 
#
# Total GULP energy -534461.320637 kJ/mol
# GULP energy per Si atom -5567.305423 kJ/mol
# Density = 1.529242 g / cm^3
# Si number density = 15.327304 Si / 1000 Ang^3
#
#
#
# Elastic Constant Matrix: (Units=GPa)
#
#
# Indices 1 2 3 4 5 6 
#
# 1 53.9782 36.3795 33.2949 0.0000 0.0000 0.0000
# 2 36.3795 53.9782 33.2950 0.0000 0.0000 0.0000
# 3 33.2949 33.2950 139.8639 0.0000 0.0000 0.0000
# 4 0.0000 0.0000 0.0000 18.2385 0.0000 0.0000
# 5 0.0000 0.0000 0.0000 0.0000 18.2386 0.0000
# 6 0.0000 0.0000 0.0000 0.0000 0.0000 17.9800
#
#
#
# Elastic Compliance Matrix: (Units=1/GPa)
#
#
# Indices 1 2 3 4 5 6 
#
# 1 0.035122 -0.021700 -0.003195 0.000000 0.000000 0.000000
# 2 -0.021700 0.035122 -0.003195 0.000000 0.000000 0.000000
# 3 -0.003195 -0.003195 0.008671 0.000000 0.000000 0.000000
# 4 0.000000 0.000000 0.000000 0.054829 0.000000 0.000000
# 5 0.000000 0.000000 0.000000 0.000000 0.054829 0.000000
# 6 0.000000 0.000000 0.000000 0.000000 0.000000 0.055617
#
#
# Mechanical properties :
#
#
# Convention : Reuss Voigt Hill
#
# Bulk Modulus (GPa) = 43.98659 50.41768 47.20214
# Shear Modulus (GPa) = 16.23640 20.54813 18.39227
#
# Velocity S-wave (km/s) = 3.25824 3.66542 3.46781
# Velocity P-wave (km/s) = 6.55098 7.13297 6.84816
#
# Compressibility (1/GPa) = 0.02273420
#
# Stress axis : x y z
#
# Youngs Moduli (GPa) = 28.47205 28.47203 115.32692
#
# Poissons Ratio (x) = 0.61785 0.36848
# Poissons Ratio (y) = 0.61786 0.36848
# Poissons Ratio (z) = 0.09097 0.09097
#
# Static dielectric constant tensor:
#      x y z
#    x 1.501890 0.000000 0.000000 
#    y 0.000000 1.501890 0.000000 
#    z 0.000000 0.000000 1.676200 
# 
# From -- ./inp_files/3292.got.cif
#   From: 2010.05.17/outbox.cif.g08.bks.cpg/sg134_2_cif.got.tgz:3292.got - 2010.05.20 12:42:49.
