data_PCOD9568591
_publ_section_title
;
Structure prediction by ZEFSAII (Michael W. Deem and Ramdas Pophale) SiO2 
 PCOD9568591
Probable space group: P 42/M B C
;
_chemical_formula_sum "Si O2"
_cell_formula_units_Z 112
_cell_length_a 13.274136
_cell_length_b 13.274136
_cell_length_c 26.100719
_cell_angle_alpha 90.000000
_cell_angle_beta 90.000000
_cell_angle_gamma 90.000000
_cell_volume 4599.016809
_symmetry_space_group_name_H-M "P 42/M B C"
_symmetry_group_IT_number 135
_symmetry_cell_setting 'tetragonal'
loop_
_space_group_symop_operation_xyz
x,y,z
-y,x,1/2+z
-x,-y,z
y,-x,1/2+z
1/2+x,1/2-y,-z
1/2-x,1/2+y,-z
1/2+y,1/2+x,1/2-z
1/2-y,1/2-x,1/2-z
-x,-y,-z
y,-x,1/2-z
x,y,-z
-y,x,1/2-z
1/2-x,1/2+y,z
1/2+x,1/2-y,z
1/2-y,1/2-x,1/2+z
1/2+y,1/2+x,1/2+z
loop_
_atom_site_type_symbol
_atom_site_label
_atom_site_fract_x
_atom_site_fract_y
_atom_site_fract_z
Si Si1 0.995594 0.667462 0.741344
Si Si2 0.850508 0.252295 0.800583
Si Si3 0.890557 0.914948 0.560144
Si Si4 0.611820 0.082481 0.441892
Si Si5 0.835895 0.365528 0.590484
Si Si6 0.565596 0.251117 0.638857
Si Si7 0.849468 0.139189 0.440906
O O1 0.077466 0.577466 0.750000
O O2 0.035111 0.756498 0.778591
O O3 0.889009 0.610992 0.750000
O O4 0.002541 0.718348 0.686101
O O5 0.786687 0.286687 0.750000
O O6 0.875151 0.323212 0.849006
O O7 0.790380 0.163463 0.828940
O O8 0.915876 0.908171 0.500000
O O9 0.774635 0.878001 0.564982
O O10 0.948960 0.840882 0.598197
O O11 0.106561 0.968541 0.576948
O O12 0.577367 0.106229 0.500000
O O13 0.571339 0.151596 0.396226
O O14 0.729966 0.114203 0.439778
O O15 0.604863 0.962365 0.431477
O O16 0.866464 0.249859 0.581908
O O17 0.877586 0.149607 0.500000
#
# Coordination Sequence:
#
# PCOD9568591 Si02
#       7
#    16  16  16  16  16  16  16
#     4  10  22  41  63  90 128 179 240 302 379 471
#     4  10  21  36  55  88 124 171 238 303 360 447
#     4   9  17  28  47  83 129 176 231 287 366 459
#     4  10  18  28  50  89 133 178 232 296 379 468
#     4  10  17  28  49  81 131 183 233 302 372 441
#     4  11  20  35  59  92 131 177 231 306 387 449
#     4   9  15  26  45  77 130 181 228 290 360 448
#
# _framework density 24.353031999999999
#
# number of rings (size 3 to 8) (size 9 to 14) (size 15 to 20)
#    0.000    2.143    2.857    3.857    0.000    0.000 
#    2.571    0.000    0.000    0.429    0.000   84.000 
#    0.000    9.143    0.000    0.000    0.000    0.000 
#
# Total GULP energy -624664.779139 kJ/mol
# GULP energy per Si atom -5577.364099 kJ/mol
# Density = 2.429760 g / cm^3
# Si number density = 24.353032 Si / 1000 Ang^3
#
#
#
# Elastic Constant Matrix: (Units=GPa)
#
#
# Indices 1 2 3 4 5 6 
#
# 1 121.5714 46.6110 62.0660 0.0000 0.0000 0.0000
# 2 46.6110 121.5715 62.0670 0.0000 0.0000 0.0000
# 3 62.0660 62.0670 169.7650 0.0000 0.0000 0.0000
# 4 0.0000 0.0000 0.0000 43.7518 0.0000 0.0000
# 5 0.0000 0.0000 0.0000 0.0000 43.7533 0.0000
# 6 0.0000 0.0000 0.0000 0.0000 0.0000 48.8207
#
#
#
# Elastic Compliance Matrix: (Units=1/GPa)
#
#
# Indices 1 2 3 4 5 6 
#
# 1 0.010742 -0.002598 -0.002977 0.000000 0.000000 0.000000
# 2 -0.002598 0.010742 -0.002977 0.000000 0.000000 0.000000
# 3 -0.002977 -0.002977 0.008067 0.000000 0.000000 0.000000
# 4 0.000000 0.000000 0.000000 0.022856 0.000000 0.000000
# 5 0.000000 0.000000 0.000000 0.000000 0.022855 0.000000
# 6 0.000000 0.000000 0.000000 0.000000 0.000000 0.020483
#
#
# Mechanical properties :
#
#
# Convention : Reuss Voigt Hill
#
# Bulk Modulus (GPa) = 80.35184 83.82178 82.08681
# Shear Modulus (GPa) = 42.73494 43.40944 43.07219
#
# Velocity S-wave (km/s) = 4.19359 4.22655 4.21010
# Velocity P-wave (km/s) = 7.51761 7.63626 7.57717
#
# Compressibility (1/GPa) = 0.01244527
#
# Stress axis : x y z
#
# Youngs Moduli (GPa) = 93.09396 93.09335 123.95461
#
# Poissons Ratio (x) = 0.24190 0.36904
# Poissons Ratio (y) = 0.24190 0.36905
# Poissons Ratio (z) = 0.27716 0.27717
#
# Static dielectric constant tensor:
#      x y z
#    x 2.061230 0.000000 0.000000 
#    y 0.000000 2.061230 0.000000 
#    z 0.000000 0.000000 1.888410 
# 
# From -- ./inp_files/6093.got.cif
#   From: 2010.05.17/outbox.cif.g08.bks.cpg/sg135_4_cif.got.tgz:6093.got - 2010.05.20 12:50:20.
