data_PCOD9568578
_publ_section_title
;
Structure prediction by ZEFSAII (Michael W. Deem and Ramdas Pophale) SiO2 
 PCOD9568578
Probable space group: P 42/N N M
;
_chemical_formula_sum "Si O2"
_cell_formula_units_Z 88
_cell_length_a 12.000000
_cell_length_b 12.000000
_cell_length_c 30.000000
_cell_angle_alpha 90.000000
_cell_angle_beta 90.000000
_cell_angle_gamma 90.000000
_cell_volume 4320.000000
_symmetry_space_group_name_H-M "P 42/N N M"
_symmetry_group_IT_number 134
_space_group.IT_coordinate_system_code '2'
_symmetry_cell_setting 'tetragonal'
loop_
_space_group_symop_operation_xyz
x,y,z
1/2-y,x,1/2+z
1/2-x,1/2-y,z
y,1/2-x,1/2+z
x,1/2-y,1/2-z
1/2-x,y,1/2-z
y,x,-z
1/2-y,1/2-x,-z
-x,-y,-z
1/2+y,-x,1/2-z
1/2+x,1/2+y,-z
-y,1/2+x,1/2-z
-x,1/2+y,1/2+z
1/2+x,-y,1/2+z
-y,-x,z
1/2+y,1/2+x,z
loop_
_atom_site_type_symbol
_atom_site_label
_atom_site_fract_x
_atom_site_fract_y
_atom_site_fract_z
Si Si1 0.185561 0.995666 0.152924
Si Si2 0.183382 0.498691 0.632940
Si Si3 0.937564 0.254192 0.037531
Si Si4 0.481293 0.162108 0.216703
Si Si5 0.753373 0.063836 0.939874
Si Si6 0.569861 0.750000 0.250000
O O1 0.233293 0.007744 0.202653
O O2 0.095977 0.093734 0.145017
O O3 0.259173 0.997532 0.107629
O O4 0.121341 0.878660 0.152861
O O5 0.116630 0.616630 0.638127
O O6 0.224884 0.493280 0.581758
O O7 0.282693 0.483194 0.668055
O O8 0.842248 0.157753 0.034661
O O9 0.869570 0.369570 0.044076
O O10 0.994299 0.254931 0.988469
O O11 0.538433 0.250000 0.250000
O O12 0.361489 0.137896 0.238615
O O13 0.547878 0.047878 0.216056
O O14 0.873920 0.126081 0.938963
O O15 0.660278 0.160278 0.941467
#
# Coordination Sequence:
#
# PCOD9568578 Si02
#       6
#    16  16  16  16  16   8
#     4  10  21  36  56  83 116 156 208 257 299 358
#     4  10  20  34  56  89 122 154 194 248 308 367
#     4   8  14  27  49  79 117 154 190 242 306 364
#     4  12  25  41  63  89 118 158 202 248 304 360
#     4   8  15  29  50  78 113 155 201 249 300 354
#     4  12  25  42  60  81 120 165 202 248 301 364
#
# _framework density 20.370370000000001
#
# number of rings (size 3 to 8) (size 9 to 14) (size 15 to 20)
#    0.000    2.182    1.818    3.000    0.000    4.182 
#    0.000    3.636    0.000    3.545    0.000    6.364 
#    0.000    0.000    0.000    0.000    0.000    0.000 
#
# Total GULP energy -490307.031766 kJ/mol
# GULP energy per Si atom -5571.670816 kJ/mol
# Density = 2.032401 g / cm^3
# Si number density = 20.370370 Si / 1000 Ang^3
#
#
#
# Elastic Constant Matrix: (Units=GPa)
#
#
# Indices 1 2 3 4 5 6 
#
# 1 25.0636 3.1762 18.2319 0.0000 0.0000 0.0000
# 2 3.1762 25.0636 18.2319 0.0000 0.0000 0.0000
# 3 18.2319 18.2319 216.5599 0.0000 0.0000 0.0000
# 4 0.0000 0.0000 0.0000 80.1776 0.0000 0.0000
# 5 0.0000 0.0000 0.0000 0.0000 80.1776 0.0000
# 6 0.0000 0.0000 0.0000 0.0000 0.0000 -8.7450
#
#
#
# Elastic Compliance Matrix: (Units=1/GPa)
#
#
# Indices 1 2 3 4 5 6 
#
# 1 0.042709 -0.002979 -0.003345 0.000000 0.000000 0.000000
# 2 -0.002979 0.042709 -0.003345 0.000000 0.000000 0.000000
# 3 -0.003345 -0.003345 0.005181 0.000000 0.000000 0.000000
# 4 0.000000 0.000000 0.000000 0.012472 0.000000 0.000000
# 5 0.000000 0.000000 0.000000 0.000000 0.012472 0.000000
# 6 0.000000 0.000000 0.000000 0.000000 0.000000 -0.114352
#
#
# Mechanical properties :
#
#
# Convention : Reuss Voigt Hill
#
# Bulk Modulus (GPa) = 14.03283 38.44080 26.23682
# Shear Modulus (GPa) = 112.90857 45.45853 79.18355
#
# Velocity S-wave (km/s) = 7.45306 4.72911 6.24150
# Velocity P-wave (km/s) = 8.99822 6.98077 8.05293
#
# Compressibility (1/GPa) = 0.07126147
#
# Stress axis : x y z
#
# Youngs Moduli (GPa) = 23.41419 23.41419 193.01834
#
# Poissons Ratio (x) = 0.06976 0.64561
# Poissons Ratio (y) = 0.06976 0.64561
# Poissons Ratio (z) = 0.07832 0.07832
#
# Static dielectric constant tensor:
#      x y z
#    x 1.749680 0.000000 0.000000 
#    y 0.000000 1.749680 0.000000 
#    z 0.000000 0.000000 1.779730 
# 
# From -- ./inp_files/11483.got.cif
#   From: 2010.05.17/outbox.ucp.g08.bks.cvg/sg134_6_cif.got.tgz:11483.got - 2010.06.11 11:39:54.
