data_PCOD9568564
_publ_section_title
;
Structure prediction by ZEFSAII (Michael W. Deem and Ramdas Pophale) SiO2 
 PCOD9568564
Probable space group: P 42/N N M
;
_chemical_formula_sum "Si O2"
_cell_formula_units_Z 72
_cell_length_a 24.863264
_cell_length_b 24.863264
_cell_length_c 7.339502
_cell_angle_alpha 90.000000
_cell_angle_beta 90.000000
_cell_angle_gamma 90.000000
_cell_volume 4537.147267
_symmetry_space_group_name_H-M "P 42/N N M"
_symmetry_group_IT_number 134
_space_group.IT_coordinate_system_code '2'
_symmetry_cell_setting 'tetragonal'
loop_
_space_group_symop_operation_xyz
x,y,z
1/2-y,x,1/2+z
1/2-x,1/2-y,z
y,1/2-x,1/2+z
x,1/2-y,1/2-z
1/2-x,y,1/2-z
y,x,-z
1/2-y,1/2-x,-z
-x,-y,-z
1/2+y,-x,1/2-z
1/2+x,1/2+y,-z
-y,1/2+x,1/2-z
-x,1/2+y,1/2+z
1/2+x,-y,1/2+z
-y,-x,z
1/2+y,1/2+x,z
loop_
_atom_site_type_symbol
_atom_site_label
_atom_site_fract_x
_atom_site_fract_y
_atom_site_fract_z
Si Si1 0.627333 0.710566 0.584336
Si Si2 0.933894 0.750000 0.250000
Si Si3 0.862540 0.974178 0.839498
Si Si4 0.467660 0.967660 0.772204
Si Si5 0.053406 0.553406 0.340057
Si Si6 0.448183 0.382611 0.262125
O O1 0.642281 0.750000 0.750000
O O2 0.675821 0.675821 0.500000
O O3 0.603383 0.747479 0.426385
O O4 0.580517 0.667824 0.642202
O O5 0.967876 0.696217 0.262360
O O6 0.901928 0.928370 0.756671
O O7 0.887738 0.032309 0.801268
O O8 0.864701 0.963594 0.056882
O O9 0.456553 0.956553 0.556563
O O10 0.498745 0.913823 0.841253
O O11 0.513451 0.013451 0.767675
#
# Coordination Sequence:
#
# PCOD9568564 Si02
#       6
#    16   8  16   8   8  16
#     4  12  25  40  56  69  93 129 174 225 261 292
#     4  12  22  34  55  76  96 129 166 208 258 296
#     4   9  16  29  53  73 101 126 160 196 245 299
#     4   7  12  24  50  77  98 123 150 186 246 309
#     4   7  12  24  45  78  99 126 149 187 240 299
#     4   9  16  32  52  74 100 126 158 201 248 307
#
# _framework density 15.869004
#
# number of rings (size 3 to 8) (size 9 to 14) (size 15 to 20)
#    0.000    2.444    4.444    2.667    0.000    0.889 
#    0.000    3.333    0.000    0.000    0.000    0.000 
#    0.000    0.444    0.000    0.000    0.000    4.889 
#
# Total GULP energy -401167.495053 kJ/mol
# GULP energy per Si atom -5571.770765 kJ/mol
# Density = 1.583289 g / cm^3
# Si number density = 15.869004 Si / 1000 Ang^3
#
#
#
# Elastic Constant Matrix: (Units=GPa)
#
#
# Indices 1 2 3 4 5 6 
#
# 1 60.3541 47.8253 25.7261 0.0000 0.0000 0.0000
# 2 47.8253 60.3541 25.7261 0.0000 0.0000 0.0000
# 3 25.7261 25.7261 60.3375 0.0000 0.0000 0.0000
# 4 0.0000 0.0000 0.0000 17.1719 0.0000 0.0000
# 5 0.0000 0.0000 0.0000 0.0000 17.1719 0.0000
# 6 0.0000 0.0000 0.0000 0.0000 0.0000 18.2944
#
#
#
# Elastic Compliance Matrix: (Units=1/GPa)
#
#
# Indices 1 2 3 4 5 6 
#
# 1 0.045706 -0.034110 -0.004944 0.000000 0.000000 0.000000
# 2 -0.034110 0.045706 -0.004944 0.000000 0.000000 0.000000
# 3 -0.004944 -0.004944 0.020789 0.000000 0.000000 0.000000
# 4 0.000000 0.000000 0.000000 0.058235 0.000000 0.000000
# 5 0.000000 0.000000 0.000000 0.000000 0.058235 0.000000
# 6 0.000000 0.000000 0.000000 0.000000 0.000000 0.054662
#
#
# Mechanical properties :
#
#
# Convention : Reuss Voigt Hill
#
# Bulk Modulus (GPa) = 41.31488 42.17785 41.74636
# Shear Modulus (GPa) = 13.17887 15.97886 14.57886
#
# Velocity S-wave (km/s) = 2.88493 3.17665 3.03430
# Velocity P-wave (km/s) = 6.09824 6.33176 6.21610
#
# Compressibility (1/GPa) = 0.02420436
#
# Stress axis : x y z
#
# Youngs Moduli (GPa) = 21.87920 21.87920 48.10172
#
# Poissons Ratio (x) = 0.74630 0.23781
# Poissons Ratio (y) = 0.74630 0.23781
# Poissons Ratio (z) = 0.10817 0.10817
#
# Static dielectric constant tensor:
#      x y z
#    x 1.536970 0.000000 0.000000 
#    y 0.000000 1.536970 0.000000 
#    z 0.000000 0.000000 1.598770 
# 
# From -- ./inp_files/3066.got.cif
#   From: 2010.05.17/outbox.cif.g08.bks.cpg/sg134_2_cif.got.tgz:3066.got - 2010.05.20 12:42:49.
