data_PCOD9568011
_publ_section_title
;
Structure prediction by ZEFSAII (Michael W. Deem and Ramdas Pophale) SiO2 
 PCOD9568011
Probable space group: P 42/N B C
;
_chemical_formula_sum "Si O2"
_cell_formula_units_Z 48
_cell_length_a 9.205070
_cell_length_b 9.205070
_cell_length_c 23.270494
_cell_angle_alpha 90.000000
_cell_angle_beta 90.000000
_cell_angle_gamma 90.000000
_cell_volume 1971.786068
_symmetry_space_group_name_H-M "P 42/N B C"
_symmetry_group_IT_number 133
_space_group.IT_coordinate_system_code '2'
_symmetry_cell_setting 'tetragonal'
loop_
_space_group_symop_operation_xyz
x,y,z
1/2-y,x,1/2+z
1/2-x,1/2-y,z
y,1/2-x,1/2+z
x,1/2-y,-z
1/2-x,y,-z
y,x,1/2-z
1/2-y,1/2-x,1/2-z
-x,-y,-z
1/2+y,-x,1/2-z
1/2+x,1/2+y,-z
-y,1/2+x,1/2-z
-x,1/2+y,z
1/2+x,-y,z
-y,-x,1/2+z
1/2+y,1/2+x,1/2+z
loop_
_atom_site_type_symbol
_atom_site_label
_atom_site_fract_x
_atom_site_fract_y
_atom_site_fract_z
Si Si1 0.635829 0.371290 0.100062
Si Si2 0.684371 0.032176 0.772797
Si Si3 0.814186 0.590393 0.559656
O O1 0.750000 0.250000 0.078429
O O2 0.689669 0.445780 0.158639
O O3 0.595925 0.512136 0.062148
O O4 0.498343 0.266371 0.109472
O O5 0.575943 0.158904 0.750747
O O6 0.617531 0.882470 0.750000
O O7 0.750000 0.750000 0.562611
O O8 0.750000 0.527053 0.500000
#
# Coordination Sequence:
#
# PCOD9568011 Si02
#       3
#    16  16  16
#     4  12  24  45  73 101 144 188 234 301 366 436
#     4  11  24  44  66 103 144 178 236 284 350 432
#     4  11  26  45  69 104 139 182 243 296 365 433
#
# _framework density 24.343412000000001
#
# number of rings (size 3 to 8) (size 9 to 14) (size 15 to 20)
#    0.000    0.667    3.333    5.000    4.667    4.000 
#    0.000    0.000    0.000    0.000    0.000    0.000 
#    0.000    0.000    0.000    0.000    0.000    0.000 
#
# Total GULP energy -268340.008025 kJ/mol
# GULP energy per Si atom -5590.416834 kJ/mol
# Density = 2.428801 g / cm^3
# Si number density = 24.343412 Si / 1000 Ang^3
#
#
#
# Elastic Constant Matrix: (Units=GPa)
#
#
# Indices 1 2 3 4 5 6 
#
# 1 133.8025 44.1643 12.3661 0.0000 0.0000 0.0000
# 2 44.1643 133.8061 12.3660 0.0000 0.0000 0.0000
# 3 12.3661 12.3660 71.9726 0.0000 0.0000 0.0000
# 4 0.0000 0.0000 0.0000 8.8057 0.0000 0.0000
# 5 0.0000 0.0000 0.0000 0.0000 8.8056 0.0000
# 6 0.0000 0.0000 0.0000 0.0000 0.0000 52.4703
#
#
#
# Elastic Compliance Matrix: (Units=1/GPa)
#
#
# Indices 1 2 3 4 5 6 
#
# 1 0.008456 -0.002700 -0.000989 0.000000 0.000000 0.000000
# 2 -0.002700 0.008456 -0.000989 0.000000 0.000000 0.000000
# 3 -0.000989 -0.000989 0.014234 0.000000 0.000000 0.000000
# 4 0.000000 0.000000 0.000000 0.113563 0.000000 0.000000
# 5 0.000000 0.000000 0.000000 0.000000 0.113564 0.000000
# 6 0.000000 0.000000 0.000000 0.000000 0.000000 0.019058
#
#
# Mechanical properties :
#
#
# Convention : Reuss Voigt Hill
#
# Bulk Modulus (GPa) = 45.89114 53.04155 49.46634
# Shear Modulus (GPa) = 17.00967 32.06197 24.53582
#
# Velocity S-wave (km/s) = 2.64623 3.63308 3.17819
# Velocity P-wave (km/s) = 5.31312 6.27975 5.81655
#
# Compressibility (1/GPa) = 0.02179070
#
# Stress axis : x y z
#
# Youngs Moduli (GPa) = 118.25656 118.25977 70.25411
#
# Poissons Ratio (x) = 0.31926 0.06949
# Poissons Ratio (y) = 0.31925 0.06948
# Poissons Ratio (z) = 0.11696 0.11696
#
# Static dielectric constant tensor:
#      x y z
#    x 2.690790 0.000000 0.000000 
#    y 0.000000 2.690760 0.000000 
#    z 0.000000 0.000000 2.153780 
# 
# From -- ./inp_files/7721.got.cif
#   From: 2010.05.17/outbox.cif.g08.bks.cpg/sg133_4_cif.got.tgz:7721.got - 2010.05.20 12:37:36.
