data_PCOD9568408
_publ_section_title
;
Structure prediction by ZEFSAII (Michael W. Deem and Ramdas Pophale) SiO2 
 PCOD9568408
Probable space group: P 42/N N M
;
_chemical_formula_sum "Si O2"
_cell_formula_units_Z 128
_cell_length_a 19.046456
_cell_length_b 19.046456
_cell_length_c 18.159866
_cell_angle_alpha 90.000000
_cell_angle_beta 90.000000
_cell_angle_gamma 90.000000
_cell_volume 6587.808938
_symmetry_space_group_name_H-M "P 42/N N M"
_symmetry_group_IT_number 134
_space_group.IT_coordinate_system_code '2'
_symmetry_cell_setting 'tetragonal'
loop_
_space_group_symop_operation_xyz
x,y,z
1/2-y,x,1/2+z
1/2-x,1/2-y,z
y,1/2-x,1/2+z
x,1/2-y,1/2-z
1/2-x,y,1/2-z
y,x,-z
1/2-y,1/2-x,-z
-x,-y,-z
1/2+y,-x,1/2-z
1/2+x,1/2+y,-z
-y,1/2+x,1/2-z
-x,1/2+y,1/2+z
1/2+x,-y,1/2+z
-y,-x,z
1/2+y,1/2+x,z
loop_
_atom_site_type_symbol
_atom_site_label
_atom_site_fract_x
_atom_site_fract_y
_atom_site_fract_z
Si Si1 0.070864 0.687706 0.048073
Si Si2 0.431880 0.329675 0.780055
Si Si3 0.916503 0.298059 0.675481
Si Si4 0.636720 0.481194 0.405590
Si Si5 0.796377 0.590876 0.323459
Si Si6 0.376156 0.434710 0.377238
Si Si7 0.204793 0.185766 0.586482
Si Si8 0.943138 0.173274 0.239535
O O1 0.139510 0.639510 0.044803
O O2 0.088357 0.752426 0.101058
O O3 0.007838 0.645539 0.088063
O O4 0.040208 0.695729 0.965172
O O5 0.421677 0.250000 0.750000
O O6 0.504576 0.328129 0.823644
O O7 0.365013 0.360457 0.821713
O O8 0.443486 0.381450 0.710186
O O9 0.910433 0.250000 0.750000
O O10 0.857839 0.357839 0.678638
O O11 0.575976 0.424025 0.417140
O O12 0.599730 0.556157 0.414736
O O13 0.658406 0.475492 0.320546
O O14 0.750000 0.605743 0.250000
O O15 0.746400 0.615359 0.389993
O O16 0.818772 0.509442 0.315512
O O17 0.317736 0.374357 0.385512
O O18 0.250000 0.250000 0.618097
O O19 0.197099 0.197099 0.500000
O O20 0.908676 0.250000 0.250000
O O21 0.887414 0.112587 0.221557
#
# Coordination Sequence:
#
# PCOD9568408 Si02
#       8
#    16  16  16  16  16  16  16  16
#     4  11  23  38  59  88 123 160 202 255 316 377
#     4  11  21  35  56  86 119 162 206 255 302 366
#     4  11  24  40  59  84 119 166 217 262 308 369
#     4  10  21  37  60  91 121 152 194 253 323 388
#     4  11  21  37  62  89 127 164 209 260 313 388
#     4  12  19  36  58  86 123 159 194 244 313 371
#     4  11  24  37  56  90 125 166 209 252 317 382
#     4  10  21  39  63  93 121 157 208 264 322 382
#
# _framework density 19.429828000000001
#
# number of rings (size 3 to 8) (size 9 to 14) (size 15 to 20)
#    0.000    1.125    5.000    3.375    0.000    3.000 
#    0.000    0.625    0.000    2.250    0.000    1.750 
#    0.000    0.125    0.000    0.000    0.000    0.000 
#
# Total GULP energy -714304.352202 kJ/mol
# GULP energy per Si atom -5580.502752 kJ/mol
# Density = 1.938560 g / cm^3
# Si number density = 19.429828 Si / 1000 Ang^3
#
#
#
# Elastic Constant Matrix: (Units=GPa)
#
#
# Indices 1 2 3 4 5 6 
#
# 1 83.3921 57.2788 24.9293 0.0000 0.0000 0.0000
# 2 57.2788 83.3921 24.9293 0.0000 0.0000 0.0000
# 3 24.9293 24.9293 64.6529 0.0000 0.0000 0.0000
# 4 0.0000 0.0000 0.0000 26.7353 0.0000 0.0000
# 5 0.0000 0.0000 0.0000 0.0000 26.7353 0.0000
# 6 0.0000 0.0000 0.0000 0.0000 0.0000 29.4918
#
#
#
# Elastic Compliance Matrix: (Units=1/GPa)
#
#
# Indices 1 2 3 4 5 6 
#
# 1 0.023264 -0.015030 -0.003175 0.000000 0.000000 0.000000
# 2 -0.015030 0.023264 -0.003175 0.000000 0.000000 0.000000
# 3 -0.003175 -0.003175 0.017916 0.000000 0.000000 0.000000
# 4 0.000000 0.000000 0.000000 0.037404 0.000000 0.000000
# 5 0.000000 0.000000 0.000000 0.000000 0.037404 0.000000
# 6 0.000000 0.000000 0.000000 0.000000 0.000000 0.033908
#
#
# Mechanical properties :
#
#
# Convention : Reuss Voigt Hill
#
# Bulk Modulus (GPa) = 46.11688 49.52352 47.82020
# Shear Modulus (GPa) = 22.40665 24.87912 23.64289
#
# Velocity S-wave (km/s) = 3.39958 3.58223 3.49210
# Velocity P-wave (km/s) = 6.26068 6.53097 6.39725
#
# Compressibility (1/GPa) = 0.02168403
#
# Stress axis : x y z
#
# Youngs Moduli (GPa) = 42.98419 42.98419 55.81709
#
# Poissons Ratio (x) = 0.64606 0.17722
# Poissons Ratio (y) = 0.64606 0.17722
# Poissons Ratio (z) = 0.13647 0.13647
#
# Static dielectric constant tensor:
#      x y z
#    x 1.699620 0.000000 0.000000 
#    y 0.000000 1.699620 0.000000 
#    z 0.000000 0.000000 1.761630 
# 
# From -- ./inp_files/8178.got.cif
#   From: 2010.05.17/outbox.cif.g08.bks.cpg/sg134_5_cif.got.tgz:8178.got - 2010.05.20 12:42:49.
