data_PCOD9568520
_publ_section_title
;
Structure prediction by ZEFSAII (Michael W. Deem and Ramdas Pophale) SiO2 
 PCOD9568520
Probable space group: P 42/N N M
;
_chemical_formula_sum "Si O2"
_cell_formula_units_Z 48
_cell_length_a 13.536923
_cell_length_b 13.536923
_cell_length_c 11.939122
_cell_angle_alpha 90.000000
_cell_angle_beta 90.000000
_cell_angle_gamma 90.000000
_cell_volume 2187.823623
_symmetry_space_group_name_H-M "P 42/N N M"
_symmetry_group_IT_number 134
_space_group.IT_coordinate_system_code '2'
_symmetry_cell_setting 'tetragonal'
loop_
_space_group_symop_operation_xyz
x,y,z
1/2-y,x,1/2+z
1/2-x,1/2-y,z
y,1/2-x,1/2+z
x,1/2-y,1/2-z
1/2-x,y,1/2-z
y,x,-z
1/2-y,1/2-x,-z
-x,-y,-z
1/2+y,-x,1/2-z
1/2+x,1/2+y,-z
-y,1/2+x,1/2-z
-x,1/2+y,1/2+z
1/2+x,-y,1/2+z
-y,-x,z
1/2+y,1/2+x,z
loop_
_atom_site_type_symbol
_atom_site_label
_atom_site_fract_x
_atom_site_fract_y
_atom_site_fract_z
Si Si1 0.546848 0.453153 0.670399
Si Si2 0.391115 0.891115 0.923659
Si Si3 0.090152 0.333058 0.674740
Si Si4 0.515773 0.316881 0.060430
O O1 0.587856 0.412145 0.554581
O O2 0.464207 0.535794 0.642286
O O3 0.496862 0.370306 0.745103
O O4 0.278177 0.921598 0.903466
O O5 0.140846 0.250000 0.750000
O O6 0.156610 0.427358 0.644547
O O7 0.040720 0.298764 0.557831
O O8 0.588507 0.411494 0.049299
#
# Coordination Sequence:
#
# PCOD9568520 Si02
#       4
#     8   8  16  16
#     4  11  22  43  64  92 142 183 225 288 351 415
#     4  11  25  40  66  98 137 185 231 285 353 423
#     4  11  21  41  72  98 138 187 230 287 351 413
#     4  11  22  41  70 105 138 178 235 292 346 422
#
# _framework density 21.939610999999999
#
# number of rings (size 3 to 8) (size 9 to 14) (size 15 to 20)
#    0.000    1.000    6.667    1.500    0.000    1.333 
#    0.000    3.333    3.667    0.000    0.000    0.000 
#    0.000    0.000    0.000    0.000    0.000    0.000 
#
# Total GULP energy -268513.221511 kJ/mol
# GULP energy per Si atom -5594.025448 kJ/mol
# Density = 2.188968 g / cm^3
# Si number density = 21.939611 Si / 1000 Ang^3
#
#
#
# Elastic Constant Matrix: (Units=GPa)
#
#
# Indices 1 2 3 4 5 6 
#
# 1 121.6488 58.8474 27.2749 0.0000 0.0000 0.0000
# 2 58.8474 121.6488 27.2749 0.0000 0.0000 0.0000
# 3 27.2749 27.2749 81.1158 0.0000 0.0000 0.0000
# 4 0.0000 0.0000 0.0000 28.4557 0.0000 0.0000
# 5 0.0000 0.0000 0.0000 0.0000 28.4557 0.0000
# 6 0.0000 0.0000 0.0000 0.0000 0.0000 34.8416
#
#
#
# Elastic Compliance Matrix: (Units=1/GPa)
#
#
# Indices 1 2 3 4 5 6 
#
# 1 0.011045 -0.004878 -0.002074 0.000000 0.000000 0.000000
# 2 -0.004878 0.011045 -0.002074 0.000000 0.000000 0.000000
# 3 -0.002074 -0.002074 0.013723 0.000000 0.000000 0.000000
# 4 0.000000 0.000000 0.000000 0.035142 0.000000 0.000000
# 5 0.000000 0.000000 0.000000 0.000000 0.035142 0.000000
# 6 0.000000 0.000000 0.000000 0.000000 0.000000 0.028701
#
#
# Mechanical properties :
#
#
# Convention : Reuss Voigt Hill
#
# Bulk Modulus (GPa) = 56.29996 61.24533 58.77265
# Shear Modulus (GPa) = 31.49206 32.41834 31.95520
#
# Velocity S-wave (km/s) = 3.79277 3.84815 3.82056
# Velocity P-wave (km/s) = 6.70054 6.90799 6.80506
#
# Compressibility (1/GPa) = 0.01776200
#
# Stress axis : x y z
#
# Youngs Moduli (GPa) = 90.53798 90.53798 72.87273
#
# Poissons Ratio (x) = 0.44165 0.15111
# Poissons Ratio (y) = 0.44165 0.15111
# Poissons Ratio (z) = 0.18774 0.18774
#
# Static dielectric constant tensor:
#      x y z
#    x 1.857300 0.000000 0.000000 
#    y 0.000000 1.857300 0.000000 
#    z 0.000000 0.000000 1.804200 
# 
# From -- ./inp_files/4204.got.cif
#   From: 2010.05.17/outbox.cif.g08.bks.cpg/sg134_3_cif.got.tgz:4204.got - 2010.05.20 12:42:49.
