data_PCOD9568089
_publ_section_title
;
Structure prediction by ZEFSAII (Michael W. Deem and Ramdas Pophale) SiO2 
 PCOD9568089
Probable space group: P 42/N N M
;
_chemical_formula_sum "Si O2"
_cell_formula_units_Z 84
_cell_length_a 14.511585
_cell_length_b 14.511585
_cell_length_c 22.348975
_cell_angle_alpha 90.000000
_cell_angle_beta 90.000000
_cell_angle_gamma 90.000000
_cell_volume 4706.383467
_symmetry_space_group_name_H-M "P 42/N N M"
_symmetry_group_IT_number 134
_space_group.IT_coordinate_system_code '2'
_symmetry_cell_setting 'tetragonal'
loop_
_space_group_symop_operation_xyz
x,y,z
1/2-y,x,1/2+z
1/2-x,1/2-y,z
y,1/2-x,1/2+z
x,1/2-y,1/2-z
1/2-x,y,1/2-z
y,x,-z
1/2-y,1/2-x,-z
-x,-y,-z
1/2+y,-x,1/2-z
1/2+x,1/2+y,-z
-y,1/2+x,1/2-z
-x,1/2+y,1/2+z
1/2+x,-y,1/2+z
-y,-x,z
1/2+y,1/2+x,z
loop_
_atom_site_type_symbol
_atom_site_label
_atom_site_fract_x
_atom_site_fract_y
_atom_site_fract_z
Si Si1 0.025850 0.671352 0.295866
Si Si2 0.916549 0.825945 0.677051
Si Si3 0.477015 0.376194 0.194172
Si Si4 0.112572 0.455002 0.061854
Si Si5 0.101351 0.757671 0.081171
Si Si6 0.250000 0.250000 0.250000
O O1 0.998989 0.750000 0.250000
O O2 0.097176 0.597176 0.267734
O O3 0.077594 0.719536 0.350404
O O4 0.940863 0.610940 0.319613
O O5 0.973633 0.867461 0.733130
O O6 0.961563 0.724881 0.666652
O O7 0.902431 0.889789 0.619599
O O8 0.817427 0.806566 0.707089
O O9 0.568570 0.431430 0.176240
O O10 0.210186 0.508292 0.058034
O O11 0.033580 0.533580 0.066032
O O12 0.097973 0.402028 0.000000
O O13 0.149107 0.850894 0.055518
O O14 0.179535 0.679535 0.077331
#
# Coordination Sequence:
#
# PCOD9568089 Si02
#       6
#    16  16  16  16  16   4
#     4  10  18  26  43  71 105 138 171 210 263 329
#     4  10  20  32  54  76 106 142 175 230 264 331
#     4   9  19  32  49  75 104 141 175 219 278 327
#     4  10  21  37  57  79 105 139 183 227 271 323
#     4   9  18  31  48  71 102 136 168 211 264 320
#     4   8  20  32  50  80 108 136 172 214 264 328
#
# _framework density 17.848099999999999
#
# number of rings (size 3 to 8) (size 9 to 14) (size 15 to 20)
#    0.000    2.667    0.000    2.286   10.667    4.000 
#    0.000    1.429    0.000   10.857    0.000    4.000 
#    0.000    0.000    0.000    0.000    0.000    0.000 
#
# Total GULP energy -467725.420585 kJ/mol
# GULP energy per Si atom -5568.159769 kJ/mol
# Density = 1.780748 g / cm^3
# Si number density = 17.848100 Si / 1000 Ang^3
#
#
#
# Elastic Constant Matrix: (Units=GPa)
#
#
# Indices 1 2 3 4 5 6 
#
# 1 89.3398 33.1843 23.4766 0.0000 0.0000 0.0000
# 2 33.1843 89.3401 23.4769 0.0000 0.0000 0.0000
# 3 23.4766 23.4769 59.5069 0.0000 0.0000 0.0000
# 4 0.0000 0.0000 0.0000 3.8717 0.0000 0.0000
# 5 0.0000 0.0000 0.0000 0.0000 3.8732 0.0000
# 6 0.0000 0.0000 0.0000 0.0000 0.0000 -5.5308
#
#
#
# Elastic Compliance Matrix: (Units=1/GPa)
#
#
# Indices 1 2 3 4 5 6 
#
# 1 0.013712 -0.004096 -0.003793 0.000000 0.000000 0.000000
# 2 -0.004096 0.013712 -0.003794 0.000000 0.000000 0.000000
# 3 -0.003793 -0.003794 0.019798 0.000000 0.000000 0.000000
# 4 0.000000 0.000000 0.000000 0.258284 0.000000 0.000000
# 5 0.000000 0.000000 0.000000 0.000000 0.258187 0.000000
# 6 0.000000 0.000000 0.000000 0.000000 0.000000 -0.180805
#
#
# Mechanical properties :
#
#
# Convention : Reuss Voigt Hill
#
# Bulk Modulus (GPa) = 41.92018 44.27359 43.09689
# Shear Modulus (GPa) = 12.07135 10.97942 11.52538
#
# Velocity S-wave (km/s) = 2.60347 2.48293 2.54391
# Velocity P-wave (km/s) = 5.70750 5.75148 5.72954
#
# Compressibility (1/GPa) = 0.02385486
#
# Stress axis : x y z
#
# Youngs Moduli (GPa) = 72.93142 72.93144 50.51019
#
# Poissons Ratio (x) = 0.29874 0.19161
# Poissons Ratio (y) = 0.29874 0.19161
# Poissons Ratio (z) = 0.27666 0.27667
#
# Static dielectric constant tensor:
#      x y z
#    x 1.674160 0.000000 0.000000 
#    y 0.000000 1.674160 0.000000 
#    z 0.000000 0.000000 1.570220 
# 
# From -- ./inp_files/9043.got.cif
#   From: 2010.05.17/outbox.cif.g08.bks.cpg/sg134_5_cif.got.tgz:9043.got - 2010.05.20 12:42:49.
