data_PCOD9568594
_publ_section_title
;
Structure prediction by ZEFSAII (Michael W. Deem and Ramdas Pophale) SiO2 
 PCOD9568594
Probable space group: P 42/M B C
;
_chemical_formula_sum "Si O2"
_cell_formula_units_Z 128
_cell_length_a 18.540172
_cell_length_b 18.540172
_cell_length_c 22.510585
_cell_angle_alpha 90.000000
_cell_angle_beta 90.000000
_cell_angle_gamma 90.000000
_cell_volume 7737.742967
_symmetry_space_group_name_H-M "P 42/M B C"
_symmetry_group_IT_number 135
_symmetry_cell_setting 'tetragonal'
loop_
_space_group_symop_operation_xyz
x,y,z
-y,x,1/2+z
-x,-y,z
y,-x,1/2+z
1/2+x,1/2-y,-z
1/2-x,1/2+y,-z
1/2+y,1/2+x,1/2-z
1/2-y,1/2-x,1/2-z
-x,-y,-z
y,-x,1/2-z
x,y,-z
-y,x,1/2-z
1/2-x,1/2+y,z
1/2+x,1/2-y,z
1/2-y,1/2-x,1/2+z
1/2+y,1/2+x,1/2+z
loop_
_atom_site_type_symbol
_atom_site_label
_atom_site_fract_x
_atom_site_fract_y
_atom_site_fract_z
Si Si1 0.955202 0.074073 0.931623
Si Si2 0.201674 0.182651 0.738719
Si Si3 0.292310 0.551984 0.654684
Si Si4 0.351653 0.773844 0.373491
Si Si5 0.359378 0.304291 0.428919
Si Si6 0.240125 0.674855 0.568486
Si Si7 0.478421 0.709105 0.568963
Si Si8 0.109883 0.238816 0.849226
O O1 0.965672 0.132629 0.879801
O O2 0.869871 0.057571 0.929818
O O3 0.971977 0.098805 0.000000
O O4 0.000000 0.000000 0.922526
O O5 0.280165 0.219836 0.750000
O O6 0.201300 0.100848 0.714232
O O7 0.165662 0.228845 0.685687
O O8 0.153276 0.199676 0.795884
O O9 0.250774 0.605656 0.609459
O O10 0.256159 0.474422 0.663667
O O11 0.308359 0.728627 0.423858
O O12 0.433773 0.765845 0.392397
O O13 0.314701 0.850927 0.363585
O O14 0.358332 0.307690 0.500000
O O15 0.323495 0.228159 0.411161
O O16 0.441102 0.303776 0.408284
O O17 0.312904 0.370192 0.404285
O O18 0.231658 0.654642 0.500000
O O19 0.481379 0.732544 0.500000
#
# Coordination Sequence:
#
# PCOD9568594 Si02
#       8
#    16  16  16  16  16  16  16  16
#     4  10  19  30  47  75 110 140 167 201 248 317
#     4   9  19  36  52  68  93 131 174 214 252 303
#     4  11  20  33  52  73 101 136 171 205 260 308
#     4   9  17  32  53  70  94 126 175 214 248 298
#     4   9  19  32  50  76 106 132 165 209 252 304
#     4   9  16  30  50  73  99 132 169 207 246 299
#     4  10  17  29  50  74 100 137 172 200 247 306
#     4  10  21  34  49  76 101 127 166 217 258 301
#
# _framework density 16.542292
#
# number of rings (size 3 to 8) (size 9 to 14) (size 15 to 20)
#    0.000    2.375    2.500    2.250    0.000    3.500 
#    2.250    0.000    0.000    0.750    0.000    2.625 
#    0.000    0.000    0.000    0.000    0.000    0.000 
#
# Total GULP energy -712828.336010 kJ/mol
# GULP energy per Si atom -5568.971375 kJ/mol
# Density = 1.650464 g / cm^3
# Si number density = 16.542292 Si / 1000 Ang^3
#
#
#
# Elastic Constant Matrix: (Units=GPa)
#
#
# Indices 1 2 3 4 5 6 
#
# 1 39.8355 13.6158 11.2613 0.0000 0.0000 0.0000
# 2 13.6158 39.8355 11.2610 0.0000 0.0000 0.0000
# 3 11.2613 11.2610 37.6108 0.0000 0.0000 0.0000
# 4 0.0000 0.0000 0.0000 13.9319 0.0000 0.0000
# 5 0.0000 0.0000 0.0000 0.0000 13.9312 0.0000
# 6 0.0000 0.0000 0.0000 0.0000 0.0000 20.1334
#
#
#
# Elastic Compliance Matrix: (Units=1/GPa)
#
#
# Indices 1 2 3 4 5 6 
#
# 1 0.029774 -0.008365 -0.006410 0.000000 0.000000 0.000000
# 2 -0.008365 0.029774 -0.006410 0.000000 0.000000 0.000000
# 3 -0.006410 -0.006410 0.030427 0.000000 0.000000 0.000000
# 4 0.000000 0.000000 0.000000 0.071778 0.000000 0.000000
# 5 0.000000 0.000000 0.000000 0.000000 0.071781 0.000000
# 6 0.000000 0.000000 0.000000 0.000000 0.000000 0.049669
#
#
# Mechanical properties :
#
#
# Convention : Reuss Voigt Hill
#
# Bulk Modulus (GPa) = 21.00625 21.06197 21.03411
# Shear Modulus (GPa) = 14.64375 15.00889 14.82632
#
# Velocity S-wave (km/s) = 2.97851 3.01542 2.99702
# Velocity P-wave (km/s) = 4.95528 4.98834 4.97183
#
# Compressibility (1/GPa) = 0.04760488
#
# Stress axis : x y z
#
# Youngs Moduli (GPa) = 33.58579 33.58595 32.86584
#
# Poissons Ratio (x) = 0.28094 0.21069
# Poissons Ratio (y) = 0.28094 0.21067
# Poissons Ratio (z) = 0.21530 0.21529
#
# Static dielectric constant tensor:
#      x y z
#    x 1.577660 0.000000 0.000000 
#    y 0.000000 1.577660 0.000000 
#    z 0.000000 0.000000 1.598270 
# 
# From -- ./inp_files/6274.got.cif
#   From: 2010.05.17/outbox.cif.g08.bks.cpg/sg135_4_cif.got.tgz:6274.got - 2010.05.20 12:50:20.
