data_PCOD9568934
_publ_section_title
;
Structure prediction by ZEFSAII (Michael W. Deem and Ramdas Pophale) SiO2 
 PCOD9568934
Probable space group: P 42/M B C
;
_chemical_formula_sum "Si O2"
_cell_formula_units_Z 112
_cell_length_a 14.642403
_cell_length_b 14.642403
_cell_length_c 22.471247
_cell_angle_alpha 90.000000
_cell_angle_beta 90.000000
_cell_angle_gamma 90.000000
_cell_volume 4817.834584
_symmetry_space_group_name_H-M "P 42/M B C"
_symmetry_group_IT_number 135
_symmetry_cell_setting 'tetragonal'
loop_
_space_group_symop_operation_xyz
x,y,z
-y,x,1/2+z
-x,-y,z
y,-x,1/2+z
1/2+x,1/2-y,-z
1/2-x,1/2+y,-z
1/2+y,1/2+x,1/2-z
1/2-y,1/2-x,1/2-z
-x,-y,-z
y,-x,1/2-z
x,y,-z
-y,x,1/2-z
1/2-x,1/2+y,z
1/2+x,1/2-y,z
1/2-y,1/2-x,1/2+z
1/2+y,1/2+x,1/2+z
loop_
_atom_site_type_symbol
_atom_site_label
_atom_site_fract_x
_atom_site_fract_y
_atom_site_fract_z
Si Si1 0.398228 0.985580 0.931008
Si Si2 0.304897 0.830293 0.618999
Si Si3 0.745701 0.468879 0.611902
Si Si4 0.154799 0.691408 0.568280
Si Si5 0.711730 0.556408 0.813700
Si Si6 0.623506 0.723182 0.239150
Si Si7 0.943364 0.907337 0.433663
O O1 0.317979 0.052199 0.906874
O O2 0.500000 0.000000 0.903228
O O3 0.360959 0.882714 0.927658
O O4 0.405691 0.009738 0.000000
O O5 0.231016 0.753768 0.600420
O O6 0.371076 0.792545 0.670872
O O7 0.253224 0.925298 0.627313
O O8 0.821530 0.416235 0.573945
O O9 0.745061 0.416727 0.674355
O O10 0.658425 0.444208 0.573302
O O11 0.155954 0.722964 0.500000
O O12 0.735046 0.459470 0.785066
O O13 0.653531 0.617102 0.766111
O O14 0.654256 0.544034 0.875018
O O15 0.707652 0.792349 0.250000
O O16 0.957071 0.865046 0.500000
O O17 0.000000 0.000000 0.430184
#
# Coordination Sequence:
#
# PCOD9568934 Si02
#       7
#    16  16  16  16  16  16  16
#     4  10  22  40  67 102 145 198 244 293 362 448
#     4  12  25  43  73 107 146 193 251 307 373 448
#     4  11  25  45  71 104 149 196 241 315 376 443
#     4  11  23  43  69 105 149 195 244 300 368 443
#     4  11  28  45  78 107 144 199 248 310 375 453
#     4  11  28  50  76 105 148 190 251 317 370 448
#     4  10  23  45  71 108 152 193 244 306 373 452
#
# _framework density 23.246957999999999
#
# number of rings (size 3 to 8) (size 9 to 14) (size 15 to 20)
#    0.000    1.143    4.286    0.857    8.000    3.429 
#    0.000    3.571    0.000    0.857    0.000    0.000 
#    0.000    0.000    0.000    0.000    0.000    0.000 
#
# Total GULP energy -624971.278880 kJ/mol
# GULP energy per Si atom -5580.100704 kJ/mol
# Density = 2.319405 g / cm^3
# Si number density = 23.246958 Si / 1000 Ang^3
#
#
#
# Elastic Constant Matrix: (Units=GPa)
#
#
# Indices 1 2 3 4 5 6 
#
# 1 120.5987 53.7810 39.7436 0.0000 0.0000 0.0000
# 2 53.7810 120.5991 39.7432 0.0000 0.0000 0.0000
# 3 39.7436 39.7432 98.5284 0.0000 0.0000 0.0000
# 4 0.0000 0.0000 0.0000 22.4724 0.0000 0.0000
# 5 0.0000 0.0000 0.0000 0.0000 22.4714 0.0000
# 6 0.0000 0.0000 0.0000 0.0000 0.0000 42.1132
#
#
#
# Elastic Compliance Matrix: (Units=1/GPa)
#
#
# Indices 1 2 3 4 5 6 
#
# 1 0.010996 -0.003970 -0.002834 0.000000 0.000000 0.000000
# 2 -0.003970 0.010996 -0.002834 0.000000 0.000000 0.000000
# 3 -0.002834 -0.002834 0.012436 0.000000 0.000000 0.000000
# 4 0.000000 0.000000 0.000000 0.044499 0.000000 0.000000
# 5 0.000000 0.000000 0.000000 0.000000 0.044501 0.000000
# 6 0.000000 0.000000 0.000000 0.000000 0.000000 0.023746
#
#
# Mechanical properties :
#
#
# Convention : Reuss Voigt Hill
#
# Bulk Modulus (GPa) = 65.99873 67.36242 66.68057
# Shear Modulus (GPa) = 29.15427 31.17529 30.16478
#
# Velocity S-wave (km/s) = 3.54519 3.66601 3.60610
# Velocity P-wave (km/s) = 6.72381 6.85268 6.78855
#
# Compressibility (1/GPa) = 0.01515181
#
# Stress axis : x y z
#
# Youngs Moduli (GPa) = 90.93934 90.93999 80.41240
#
# Poissons Ratio (x) = 0.36101 0.22792
# Poissons Ratio (y) = 0.36101 0.22791
# Poissons Ratio (z) = 0.25775 0.25775
#
# Static dielectric constant tensor:
#      x y z
#    x 0.697660 0.000000 0.000000 
#    y 0.000000 0.701830 0.000000 
#    z 0.000000 0.000000 1.895400 
# 
# From -- ./inp_files/6107.got.cif
#   From: 2010.05.17/outbox.cif.g08.bks.cpg/sg135_4_cif.got.tgz:6107.got - 2010.05.20 12:50:20.
