data_PCOD9568891
_publ_section_title
;
Structure prediction by ZEFSAII (Michael W. Deem and Ramdas Pophale) SiO2 
 PCOD9568891
Probable space group: P 42/M B C
;
_chemical_formula_sum "Si O2"
_cell_formula_units_Z 80
_cell_length_a 14.512575
_cell_length_b 14.512575
_cell_length_c 19.172692
_cell_angle_alpha 90.000000
_cell_angle_beta 90.000000
_cell_angle_gamma 90.000000
_cell_volume 4038.053326
_symmetry_space_group_name_H-M "P 42/M B C"
_symmetry_group_IT_number 135
_symmetry_cell_setting 'tetragonal'
loop_
_space_group_symop_operation_xyz
x,y,z
-y,x,1/2+z
-x,-y,z
y,-x,1/2+z
1/2+x,1/2-y,-z
1/2-x,1/2+y,-z
1/2+y,1/2+x,1/2-z
1/2-y,1/2-x,1/2-z
-x,-y,-z
y,-x,1/2-z
x,y,-z
-y,x,1/2-z
1/2-x,1/2+y,z
1/2+x,1/2-y,z
1/2-y,1/2-x,1/2+z
1/2+y,1/2+x,1/2+z
loop_
_atom_site_type_symbol
_atom_site_label
_atom_site_fract_x
_atom_site_fract_y
_atom_site_fract_z
Si Si1 0.634217 0.814126 0.674704
Si Si2 0.751240 0.065102 0.806289
Si Si3 0.593465 0.558082 0.920796
Si Si4 0.727445 0.961206 0.577849
Si Si5 0.251395 0.356235 0.655773
O O1 0.683185 0.816816 0.750000
O O2 0.525836 0.811277 0.689285
O O3 0.667419 0.901550 0.631127
O O4 0.671600 0.720215 0.639566
O O5 0.835265 0.044242 0.858231
O O6 0.697885 0.156173 0.831154
O O7 0.778442 0.088104 0.726502
O O8 0.500000 0.500000 0.910151
O O9 0.572644 0.667003 0.919428
O O10 0.627347 0.535720 0.000000
O O11 0.691532 0.947762 0.500000
O O12 0.732966 0.067984 0.597704
#
# Coordination Sequence:
#
# PCOD9568891 Si02
#       5
#    16  16  16  16  16
#     4  12  22  42  66  91 132 169 218 272 327 383
#     4  11  23  39  65  93 126 172 213 268 320 381
#     4  10  21  41  65  96 132 167 214 269 324 381
#     4  11  24  42  66  96 132 172 213 266 328 387
#     4  11  23  42  63  95 130 169 219 265 322 385
#
# _framework density 19.811525
#
# number of rings (size 3 to 8) (size 9 to 14) (size 15 to 20)
#    0.000    1.000    6.000    1.200    0.000    3.200 
#    0.000    1.000    0.000    0.000    0.000    0.000 
#    0.000    0.000    0.000    0.000    0.000    0.000 
#
# Total GULP energy -446918.792269 kJ/mol
# GULP energy per Si atom -5586.484903 kJ/mol
# Density = 1.976643 g / cm^3
# Si number density = 19.811525 Si / 1000 Ang^3
#
#
#
# Elastic Constant Matrix: (Units=GPa)
#
#
# Indices 1 2 3 4 5 6 
#
# 1 67.1411 -6.6353 12.6443 0.0000 0.0000 0.0000
# 2 -6.6353 67.1418 12.6448 0.0000 0.0000 0.0000
# 3 12.6443 12.6448 67.0655 0.0000 0.0000 0.0000
# 4 0.0000 0.0000 0.0000 32.7544 0.0000 0.0000
# 5 0.0000 0.0000 0.0000 0.0000 32.7526 0.0000
# 6 0.0000 0.0000 0.0000 0.0000 0.0000 23.9410
#
#
#
# Elastic Compliance Matrix: (Units=1/GPa)
#
#
# Indices 1 2 3 4 5 6 
#
# 1 0.015748 0.002193 -0.003383 0.000000 0.000000 0.000000
# 2 0.002193 0.015748 -0.003383 0.000000 0.000000 0.000000
# 3 -0.003383 -0.003383 0.016186 0.000000 0.000000 0.000000
# 4 0.000000 0.000000 0.000000 0.030530 0.000000 0.000000
# 5 0.000000 0.000000 0.000000 0.000000 0.030532 0.000000
# 6 0.000000 0.000000 0.000000 0.000000 0.000000 0.041769
#
#
# Mechanical properties :
#
#
# Convention : Reuss Voigt Hill
#
# Bulk Modulus (GPa) = 25.94845 26.51734 26.23290
# Shear Modulus (GPa) = 28.98501 30.06925 29.52713
#
# Velocity S-wave (km/s) = 3.82912 3.90008 3.86476
# Velocity P-wave (km/s) = 5.71626 5.80471 5.76065
#
# Compressibility (1/GPa) = 0.03853794
#
# Stress axis : x y z
#
# Youngs Moduli (GPa) = 63.50097 63.50153 61.78061
#
# Poissons Ratio (x) = -0.13928 0.20898
# Poissons Ratio (y) = -0.13928 0.20898
# Poissons Ratio (z) = 0.21480 0.21480
#
# Static dielectric constant tensor:
#      x y z
#    x 1.685770 0.000000 0.000000 
#    y 0.000000 1.685770 0.000000 
#    z 0.000000 0.000000 1.697820 
# 
# From -- ./inp_files/5176.got.cif
#   From: 2010.05.17/outbox.cif.g08.bks.cpg/sg135_3_cif.got.tgz:5176.got - 2010.05.20 12:50:20.
