data_PCOD9568130
_publ_section_title
;
Structure prediction by ZEFSAII (Michael W. Deem and Ramdas Pophale) SiO2 
 PCOD9568130
Probable space group: P 42/N N M
;
_chemical_formula_sum "Si O2"
_cell_formula_units_Z 88
_cell_length_a 17.825775
_cell_length_b 17.825775
_cell_length_c 16.266407
_cell_angle_alpha 90.000000
_cell_angle_beta 90.000000
_cell_angle_gamma 90.000000
_cell_volume 5168.785093
_symmetry_space_group_name_H-M "P 42/N N M"
_symmetry_group_IT_number 134
_space_group.IT_coordinate_system_code '2'
_symmetry_cell_setting 'tetragonal'
loop_
_space_group_symop_operation_xyz
x,y,z
1/2-y,x,1/2+z
1/2-x,1/2-y,z
y,1/2-x,1/2+z
x,1/2-y,1/2-z
1/2-x,y,1/2-z
y,x,-z
1/2-y,1/2-x,-z
-x,-y,-z
1/2+y,-x,1/2-z
1/2+x,1/2+y,-z
-y,1/2+x,1/2-z
-x,1/2+y,1/2+z
1/2+x,-y,1/2+z
-y,-x,z
1/2+y,1/2+x,z
loop_
_atom_site_type_symbol
_atom_site_label
_atom_site_fract_x
_atom_site_fract_y
_atom_site_fract_z
Si Si1 0.977683 0.898772 0.144070
Si Si2 0.850778 0.464725 0.942527
Si Si3 0.698734 0.591495 0.445666
Si Si4 0.428775 0.052968 0.822334
Si Si5 0.223310 0.606666 0.340844
Si Si6 0.638177 0.638177 0.000000
O O1 0.934311 0.922027 0.227433
O O2 0.034053 0.830645 0.164660
O O3 0.924125 0.873755 0.070431
O O4 0.030681 0.969320 0.120830
O O5 0.915973 0.415973 0.984454
O O6 0.892921 0.517435 0.876570
O O7 0.794196 0.412414 0.894694
O O8 0.803656 0.513798 0.005011
O O9 0.646573 0.646573 0.500000
O O10 0.653371 0.570128 0.361849
O O11 0.781772 0.626420 0.453574
O O12 0.470747 0.970747 0.828375
O O13 0.250000 0.625584 0.250000
O O14 0.173761 0.673761 0.375644
#
# Coordination Sequence:
#
# PCOD9568130 Si02
#       6
#    16  16  16  16  16   8
#     4  10  21  36  55  75 102 141 182 220 269 326
#     4  10  18  32  53  76 104 137 169 210 262 317
#     4  10  21  35  52  77 105 138 180 222 266 313
#     4   9  18  35  57  77 100 135 182 225 261 316
#     4  11  20  32  50  78 110 138 168 208 265 335
#     4  12  22  36  54  74 108 140 174 232 278 328
#
# _framework density 17.025276999999999
#
# number of rings (size 3 to 8) (size 9 to 14) (size 15 to 20)
#    0.000    1.818    3.636    1.636    0.000    4.182 
#    0.000    0.000    0.000    2.182    0.000    0.000 
#    0.000    0.000    0.000    8.364    0.000    0.000 
#
# Total GULP energy -490138.499711 kJ/mol
# GULP energy per Si atom -5569.755679 kJ/mol
# Density = 1.698653 g / cm^3
# Si number density = 17.025277 Si / 1000 Ang^3
#
#
#
# Elastic Constant Matrix: (Units=GPa)
#
#
# Indices 1 2 3 4 5 6 
#
# 1 66.8587 51.3683 25.8864 0.0000 0.0000 0.0000
# 2 51.3683 66.8587 25.8864 0.0000 0.0000 0.0000
# 3 25.8864 25.8864 52.0725 0.0000 0.0000 0.0000
# 4 0.0000 0.0000 0.0000 23.9819 0.0000 0.0000
# 5 0.0000 0.0000 0.0000 0.0000 23.9819 0.0000
# 6 0.0000 0.0000 0.0000 0.0000 0.0000 22.1051
#
#
#
# Elastic Compliance Matrix: (Units=1/GPa)
#
#
# Indices 1 2 3 4 5 6 
#
# 1 0.037684 -0.026872 -0.005375 0.000000 0.000000 0.000000
# 2 -0.026872 0.037684 -0.005375 0.000000 0.000000 0.000000
# 3 -0.005375 -0.005375 0.024548 0.000000 0.000000 0.000000
# 4 0.000000 0.000000 0.000000 0.041698 0.000000 0.000000
# 5 0.000000 0.000000 0.000000 0.000000 0.041698 0.000000
# 6 0.000000 0.000000 0.000000 0.000000 0.000000 0.045238
#
#
# Mechanical properties :
#
#
# Convention : Reuss Voigt Hill
#
# Bulk Modulus (GPa) = 40.53108 43.56356 42.04732
# Shear Modulus (GPa) = 16.02471 19.52370 17.77421
#
# Velocity S-wave (km/s) = 3.07128 3.39004 3.23459
# Velocity P-wave (km/s) = 6.03615 6.40049 6.22099
#
# Compressibility (1/GPa) = 0.02467242
#
# Stress axis : x y z
#
# Youngs Moduli (GPa) = 26.53650 26.53650 40.73656
#
# Poissons Ratio (x) = 0.71309 0.21895
# Poissons Ratio (y) = 0.71309 0.21895
# Poissons Ratio (z) = 0.14263 0.14263
#
# Static dielectric constant tensor:
#      x y z
#    x 1.599950 0.000000 0.000000 
#    y 0.000000 1.599950 0.000000 
#    z 0.000000 0.000000 1.554480 
# 
# From -- ./inp_files/6479.got.cif
#   From: 2010.05.17/outbox.cif.g08.bks.cpg/sg134_4_cif.got.tgz:6479.got - 2010.05.20 12:42:49.
