data_PCOD9568094
_publ_section_title
;
Structure prediction by ZEFSAII (Michael W. Deem and Ramdas Pophale) SiO2 
 PCOD9568094
Probable space group: P 42/N N M
;
_chemical_formula_sum "Si O2"
_cell_formula_units_Z 88
_cell_length_a 12.829781
_cell_length_b 12.829781
_cell_length_c 28.230737
_cell_angle_alpha 90.000000
_cell_angle_beta 90.000000
_cell_angle_gamma 90.000000
_cell_volume 4646.871921
_symmetry_space_group_name_H-M "P 42/N N M"
_symmetry_group_IT_number 134
_space_group.IT_coordinate_system_code '2'
_symmetry_cell_setting 'tetragonal'
loop_
_space_group_symop_operation_xyz
x,y,z
1/2-y,x,1/2+z
1/2-x,1/2-y,z
y,1/2-x,1/2+z
x,1/2-y,1/2-z
1/2-x,y,1/2-z
y,x,-z
1/2-y,1/2-x,-z
-x,-y,-z
1/2+y,-x,1/2-z
1/2+x,1/2+y,-z
-y,1/2+x,1/2-z
-x,1/2+y,1/2+z
1/2+x,-y,1/2+z
-y,-x,z
1/2+y,1/2+x,z
loop_
_atom_site_type_symbol
_atom_site_label
_atom_site_fract_x
_atom_site_fract_y
_atom_site_fract_z
Si Si1 0.577752 0.247169 0.838377
Si Si2 0.829622 0.508521 0.933450
Si Si3 0.926425 0.750000 0.250000
Si Si4 0.423208 0.756939 0.525178
Si Si5 0.847364 0.524785 0.221107
Si Si6 0.662228 0.983444 0.110653
O O1 0.664757 0.335244 0.835962
O O2 0.636190 0.136190 0.831176
O O3 0.528689 0.243192 0.890466
O O4 0.496475 0.262460 0.796797
O O5 0.922749 0.422749 0.936796
O O6 0.884085 0.613780 0.916204
O O7 0.773260 0.503649 0.983814
O O8 0.868643 0.640316 0.241663
O O9 0.333798 0.666203 0.524313
O O10 0.363623 0.863623 0.515070
O O11 0.472977 0.752941 0.577228
O O12 0.750000 0.478746 0.250000
O O13 0.817506 0.536659 0.165659
O O14 0.948771 0.448771 0.224434
O O15 0.571701 0.071701 0.110443
#
# Coordination Sequence:
#
# PCOD9568094 Si02
#       6
#    16  16   8  16  16  16
#     4  10  18  27  46  77 114 153 187 228 290 358
#     4   9  15  26  43  70 108 147 185 230 287 350
#     4  12  21  37  56  80 114 149 192 246 297 356
#     4   9  16  25  42  71 108 148 189 233 284 346
#     4  11  24  41  61  85 115 155 202 250 299 352
#     4   9  17  31  49  71 104 148 191 235 291 350
#
# _framework density 18.937470000000001
#
# number of rings (size 3 to 8) (size 9 to 14) (size 15 to 20)
#    0.000    2.182    1.818    3.000    0.000    6.000 
#    0.000    1.818    0.000    0.000    0.000    1.273 
#    0.000    4.364    0.000    0.000    0.000    0.000 
#
# Total GULP energy -490613.890473 kJ/mol
# GULP energy per Si atom -5575.157846 kJ/mol
# Density = 1.889437 g / cm^3
# Si number density = 18.937470 Si / 1000 Ang^3
#
#
#
# Elastic Constant Matrix: (Units=GPa)
#
#
# Indices 1 2 3 4 5 6 
#
# 1 41.3268 7.9435 35.1477 0.0000 0.0000 0.0000
# 2 7.9435 41.3268 35.1477 0.0000 0.0000 0.0000
# 3 35.1477 35.1477 131.9642 0.0000 0.0000 0.0000
# 4 0.0000 0.0000 0.0000 20.5348 0.0000 0.0000
# 5 0.0000 0.0000 0.0000 0.0000 20.5348 0.0000
# 6 0.0000 0.0000 0.0000 0.0000 0.0000 2.8701
#
#
#
# Elastic Compliance Matrix: (Units=1/GPa)
#
#
# Indices 1 2 3 4 5 6 
#
# 1 0.031345 0.001390 -0.008719 0.000000 0.000000 0.000000
# 2 0.001390 0.031345 -0.008719 0.000000 0.000000 0.000000
# 3 -0.008719 -0.008719 0.012222 0.000000 0.000000 0.000000
# 4 0.000000 0.000000 0.000000 0.048698 0.000000 0.000000
# 5 0.000000 0.000000 0.000000 0.000000 0.048698 0.000000
# 6 0.000000 0.000000 0.000000 0.000000 0.000000 0.348418
#
#
# Mechanical properties :
#
#
# Convention : Reuss Voigt Hill
#
# Bulk Modulus (GPa) = 23.35465 41.23287 32.29376
# Shear Modulus (GPa) = 8.81687 17.87988 13.34837
#
# Velocity S-wave (km/s) = 2.16007 3.07604 2.65781
# Velocity P-wave (km/s) = 4.31051 5.86826 5.14864
#
# Compressibility (1/GPa) = 0.04281802
#
# Stress axis : x y z
#
# Youngs Moduli (GPa) = 31.90260 31.90260 81.81793
#
# Poissons Ratio (x) = -0.04436 0.71336
# Poissons Ratio (y) = -0.04436 0.71336
# Poissons Ratio (z) = 0.27816 0.27816
#
# Static dielectric constant tensor:
#      x y z
#    x 1.668630 0.000000 0.000000 
#    y 0.000000 1.668630 0.000000 
#    z 0.000000 0.000000 1.643360 
# 
# From -- ./inp_files/11446.got.cif
#   From: 2010.05.17/outbox.cif.g08.bks.cpg/sg134_6_cif.got.tgz:11446.got - 2010.05.20 12:42:49.
