data_PCOD9568692
_publ_section_title
;
Structure prediction by ZEFSAII (Michael W. Deem and Ramdas Pophale) SiO2 
 PCOD9568692
Probable space group: P 42/M B C
;
_chemical_formula_sum "Si O2"
_cell_formula_units_Z 112
_cell_length_a 14.331440
_cell_length_b 14.331440
_cell_length_c 29.588819
_cell_angle_alpha 90.000000
_cell_angle_beta 90.000000
_cell_angle_gamma 90.000000
_cell_volume 6077.252638
_symmetry_space_group_name_H-M "P 42/M B C"
_symmetry_group_IT_number 135
_symmetry_cell_setting 'tetragonal'
loop_
_space_group_symop_operation_xyz
x,y,z
-y,x,1/2+z
-x,-y,z
y,-x,1/2+z
1/2+x,1/2-y,-z
1/2-x,1/2+y,-z
1/2+y,1/2+x,1/2-z
1/2-y,1/2-x,1/2-z
-x,-y,-z
y,-x,1/2-z
x,y,-z
-y,x,1/2-z
1/2-x,1/2+y,z
1/2+x,1/2-y,z
1/2-y,1/2-x,1/2+z
1/2+y,1/2+x,1/2+z
loop_
_atom_site_type_symbol
_atom_site_label
_atom_site_fract_x
_atom_site_fract_y
_atom_site_fract_z
Si Si1 0.849455 0.923769 0.000000
Si Si2 0.072868 0.878723 0.000000
Si Si3 0.194353 0.761445 0.841240
Si Si4 0.952782 0.727720 0.351192
Si Si5 0.539295 0.095937 0.111811
Si Si6 0.972119 0.207439 0.091117
Si Si7 0.120520 0.826965 0.601212
Si Si8 0.404737 0.096558 0.801089
O O1 0.807701 0.885879 0.047105
O O2 0.961247 0.902913 0.000000
O O3 0.855395 0.035756 0.000000
O O4 0.080344 0.824198 0.046315
O O5 0.236689 0.860044 0.826573
O O6 0.105330 0.790768 0.870697
O O7 0.264990 0.698135 0.872093
O O8 0.151801 0.693653 0.803631
O O9 0.913564 0.649951 0.385654
O O10 0.020472 0.801339 0.376227
O O11 0.019564 0.666855 0.319503
O O12 0.509570 0.187644 0.085845
O O13 0.489399 0.103006 0.162090
O O14 0.500000 0.000000 0.092146
O O15 0.063037 0.145788 0.103717
O O16 0.427734 0.072267 0.750000
#
# Coordination Sequence:
#
# PCOD9568692 Si02
#       8
#     8   8  16  16  16  16  16  16
#     4   9  18  33  51  79 111 147 188 226 271 324
#     4   9  18  31  52  79 108 147 187 225 275 334
#     4  10  20  35  56  82 108 149 188 230 283 341
#     4  10  19  34  56  80 108 143 190 223 279 339
#     4   9  18  34  56  77 106 145 185 226 274 339
#     4  10  19  35  55  77 115 149 186 234 284 326
#     4  10  20  35  55  80 115 148 191 237 273 334
#     4   9  20  38  55  82 112 139 185 232 280 338
#
# _framework density 18.429379999999998
#
# number of rings (size 3 to 8) (size 9 to 14) (size 15 to 20)
#    0.000    2.429    1.429    1.714    0.000    4.857 
#    2.571    1.786    0.000    0.000    0.000    0.000 
#    0.000    0.000    0.000    0.000    0.000    0.000 
#
# Total GULP energy -623487.825976 kJ/mol
# GULP energy per Si atom -5566.855589 kJ/mol
# Density = 1.838743 g / cm^3
# Si number density = 18.429380 Si / 1000 Ang^3
#
#
#
# Elastic Constant Matrix: (Units=GPa)
#
#
# Indices 1 2 3 4 5 6 
#
# 1 63.3531 5.9815 1.5450 0.0000 0.0000 0.0000
# 2 5.9815 63.3534 1.5452 0.0000 0.0000 0.0000
# 3 1.5450 1.5452 61.6006 0.0000 0.0000 0.0000
# 4 0.0000 0.0000 0.0000 7.6821 0.0000 0.0000
# 5 0.0000 0.0000 0.0000 0.0000 7.6823 0.0000
# 6 0.0000 0.0000 0.0000 0.0000 0.0000 29.1796
#
#
#
# Elastic Compliance Matrix: (Units=1/GPa)
#
#
# Indices 1 2 3 4 5 6 
#
# 1 0.015935 -0.001496 -0.000362 0.000000 0.000000 0.000000
# 2 -0.001496 0.015935 -0.000362 0.000000 0.000000 0.000000
# 3 -0.000362 -0.000362 0.016252 0.000000 0.000000 0.000000
# 4 0.000000 0.000000 0.000000 0.130172 0.000000 0.000000
# 5 0.000000 0.000000 0.000000 0.000000 0.130170 0.000000
# 6 0.000000 0.000000 0.000000 0.000000 0.000000 0.034271
#
#
# Mechanical properties :
#
#
# Convention : Reuss Voigt Hill
#
# Bulk Modulus (GPa) = 22.89327 22.93895 22.91611
# Shear Modulus (GPa) = 13.82231 20.85781 17.34006
#
# Velocity S-wave (km/s) = 2.74161 3.36783 3.07072
# Velocity P-wave (km/s) = 4.74036 5.25328 5.00340
#
# Compressibility (1/GPa) = 0.04368096
#
# Stress axis : x y z
#
# Youngs Moduli (GPa) = 62.75659 62.75689 61.53170
#
# Poissons Ratio (x) = 0.09386 0.02228
# Poissons Ratio (y) = 0.09386 0.02229
# Poissons Ratio (z) = 0.02273 0.02273
#
# Static dielectric constant tensor:
#      x y z
#    x 1.677040 0.000000 0.000000 
#    y 0.000000 1.677040 0.000000 
#    z 0.000000 0.000000 1.765460 
# 
# From -- ./inp_files/6550.got.cif
#   From: 2010.05.17/outbox.cif.g08.bks.cpg/sg135_4_cif.got.tgz:6550.got - 2010.05.20 12:50:20.
