data_PCOD9568207
_publ_section_title
;
Structure prediction by ZEFSAII (Michael W. Deem and Ramdas Pophale) SiO2 
 PCOD9568207
Probable space group: P 42/N N M
;
_chemical_formula_sum "Si O2"
_cell_formula_units_Z 80
_cell_length_a 11.311152
_cell_length_b 11.311152
_cell_length_c 31.858753
_cell_angle_alpha 90.000000
_cell_angle_beta 90.000000
_cell_angle_gamma 90.000000
_cell_volume 4076.077660
_symmetry_space_group_name_H-M "P 42/N N M"
_symmetry_group_IT_number 134
_space_group.IT_coordinate_system_code '2'
_symmetry_cell_setting 'tetragonal'
loop_
_space_group_symop_operation_xyz
x,y,z
1/2-y,x,1/2+z
1/2-x,1/2-y,z
y,1/2-x,1/2+z
x,1/2-y,1/2-z
1/2-x,y,1/2-z
y,x,-z
1/2-y,1/2-x,-z
-x,-y,-z
1/2+y,-x,1/2-z
1/2+x,1/2+y,-z
-y,1/2+x,1/2-z
-x,1/2+y,1/2+z
1/2+x,-y,1/2+z
-y,-x,z
1/2+y,1/2+x,z
loop_
_atom_site_type_symbol
_atom_site_label
_atom_site_fract_x
_atom_site_fract_y
_atom_site_fract_z
Si Si1 0.510666 0.189939 0.990637
Si Si2 0.008923 0.800763 0.101193
Si Si3 0.945948 0.244037 0.200881
Si Si4 0.613757 0.583945 0.363193
Si Si5 0.284532 0.388201 0.937812
O O1 0.632998 0.132998 0.004683
O O2 0.465331 0.292388 0.020630
O O3 0.524981 0.226990 0.942367
O O4 0.410487 0.089514 0.000000
O O5 0.126819 0.873182 0.112205
O O6 0.950530 0.711306 0.134698
O O7 0.904270 0.888964 0.088219
O O8 0.978164 0.250000 0.250000
O O9 0.882026 0.117975 0.191604
O O10 0.841666 0.341666 0.195256
O O11 0.053374 0.288434 0.171949
O O12 0.510265 0.489736 0.359222
O O13 0.680362 0.568258 0.407506
O O14 0.250000 0.250000 0.947025
#
# Coordination Sequence:
#
# PCOD9568207 Si02
#       5
#    16  16  16  16  16
#     4  11  20  33  54  75 100 142 194 250 296 333
#     4  11  24  37  51  75 113 160 199 234 280 337
#     4   8  15  30  54  86 120 146 171 216 285 356
#     4  10  19  33  57  84 113 148 184 229 282 338
#     4  10  20  33  52  73 103 144 188 238 285 328
#
# _framework density 19.626711
#
# number of rings (size 3 to 8) (size 9 to 14) (size 15 to 20)
#    0.000    2.000    4.000    2.400    0.000    4.000 
#    0.000    0.000    0.000    9.000    0.000    0.000 
#    0.000    8.000    0.000   26.800    0.000    0.400 
#
# Total GULP energy -445813.856275 kJ/mol
# GULP energy per Si atom -5572.673203 kJ/mol
# Density = 1.958204 g / cm^3
# Si number density = 19.626711 Si / 1000 Ang^3
#
#
#
# Elastic Constant Matrix: (Units=GPa)
#
#
# Indices 1 2 3 4 5 6 
#
# 1 69.6935 52.2642 39.4136 0.0000 0.0000 0.0000
# 2 52.2642 69.6933 39.4136 0.0000 0.0000 0.0000
# 3 39.4136 39.4136 75.6643 0.0000 0.0000 0.0000
# 4 0.0000 0.0000 0.0000 20.2312 0.0000 0.0000
# 5 0.0000 0.0000 0.0000 0.0000 20.2313 0.0000
# 6 0.0000 0.0000 0.0000 0.0000 0.0000 29.2842
#
#
#
# Elastic Compliance Matrix: (Units=1/GPa)
#
#
# Indices 1 2 3 4 5 6 
#
# 1 0.034868 -0.022507 -0.006439 0.000000 0.000000 0.000000
# 2 -0.022507 0.034868 -0.006439 0.000000 0.000000 0.000000
# 3 -0.006439 -0.006439 0.019925 0.000000 0.000000 0.000000
# 4 0.000000 0.000000 0.000000 0.049429 0.000000 0.000000
# 5 0.000000 0.000000 0.000000 0.000000 0.049428 0.000000
# 6 0.000000 0.000000 0.000000 0.000000 0.000000 0.034148
#
#
# Mechanical properties :
#
#
# Convention : Reuss Voigt Hill
#
# Bulk Modulus (GPa) = 52.93501 53.02597 52.98049
# Shear Modulus (GPa) = 16.68150 19.54664 18.11407
#
# Velocity S-wave (km/s) = 2.91853 3.15924 3.04127
# Velocity P-wave (km/s) = 6.19569 6.35481 6.27576
#
# Compressibility (1/GPa) = 0.01889109
#
# Stress axis : x y z
#
# Youngs Moduli (GPa) = 28.67944 28.67935 50.18932
#
# Poissons Ratio (x) = 0.64548 0.32317
# Poissons Ratio (y) = 0.64548 0.32317
# Poissons Ratio (z) = 0.18467 0.18467
#
# Static dielectric constant tensor:
#      x y z
#    x 1.752670 0.000000 0.000000 
#    y 0.000000 1.752670 0.000000 
#    z 0.000000 0.000000 1.694060 
# 
# From -- ./inp_files/11272.got.cif
#   From: 2010.05.17/outbox.cif.g08.bks.cpg/sg134_6_cif.got.tgz:11272.got - 2010.05.20 12:42:49.
