data_PCOD9568736
_publ_section_title
;
Structure prediction by ZEFSAII (Michael W. Deem and Ramdas Pophale) SiO2 
 PCOD9568736
Probable space group: P 42/M B C
;
_chemical_formula_sum "Si O2"
_cell_formula_units_Z 96
_cell_length_a 18.388140
_cell_length_b 18.388140
_cell_length_c 14.651202
_cell_angle_alpha 90.000000
_cell_angle_beta 90.000000
_cell_angle_gamma 90.000000
_cell_volume 4953.918522
_symmetry_space_group_name_H-M "P 42/M B C"
_symmetry_group_IT_number 135
_symmetry_cell_setting 'tetragonal'
loop_
_space_group_symop_operation_xyz
x,y,z
-y,x,1/2+z
-x,-y,z
y,-x,1/2+z
1/2+x,1/2-y,-z
1/2-x,1/2+y,-z
1/2+y,1/2+x,1/2-z
1/2-y,1/2-x,1/2-z
-x,-y,-z
y,-x,1/2-z
x,y,-z
-y,x,1/2-z
1/2-x,1/2+y,z
1/2+x,1/2-y,z
1/2-y,1/2-x,1/2+z
1/2+y,1/2+x,1/2+z
loop_
_atom_site_type_symbol
_atom_site_label
_atom_site_fract_x
_atom_site_fract_y
_atom_site_fract_z
Si Si1 0.276843 0.430617 0.234158
Si Si2 0.546175 0.930145 0.610644
Si Si3 0.187729 0.491085 0.395327
Si Si4 0.827899 0.653934 0.898719
Si Si5 0.264268 0.043635 0.892373
Si Si6 0.805896 0.211400 0.318144
O O1 0.249823 0.475923 0.321909
O O2 0.211568 0.386048 0.183916
O O3 0.292445 0.490555 0.158116
O O4 0.326866 0.363854 0.265918
O O5 0.540583 0.930586 0.500000
O O6 0.527322 0.847964 0.639154
O O7 0.500000 0.000000 0.643613
O O8 0.630540 0.947271 0.632008
O O9 0.212491 0.503218 0.500000
O O10 0.143828 0.414407 0.396342
O O11 0.812415 0.739678 0.884542
O O12 0.802304 0.631590 0.000000
O O13 0.245327 0.125897 0.867737
O O14 0.261592 0.033914 0.000000
O O15 0.769731 0.269731 0.250000
#
# Coordination Sequence:
#
# PCOD9568736 Si02
#       6
#    16  16  16  16  16  16
#     4  10  20  33  52  77 104 144 194 238 286 334
#     4   9  18  30  45  74 114 153 186 218 265 330
#     4   9  17  29  45  67 103 148 188 224 268 326
#     4   9  16  31  52  74 107 150 199 243 279 330
#     4  11  22  35  57  85 115 150 192 240 290 348
#     4   9  20  35  53  79 112 150 193 241 289 340
#
# _framework density 19.378598
#
# number of rings (size 3 to 8) (size 9 to 14) (size 15 to 20)
#    0.000    2.500    0.000    3.500    2.333    3.333 
#    0.000    0.833    0.000    1.500    0.000    1.167 
#    0.000    0.000    0.000    0.000    0.000    0.000 
#
# Total GULP energy -535047.537191 kJ/mol
# GULP energy per Si atom -5573.411846 kJ/mol
# Density = 1.933449 g / cm^3
# Si number density = 19.378598 Si / 1000 Ang^3
#
#
#
# Elastic Constant Matrix: (Units=GPa)
#
#
# Indices 1 2 3 4 5 6 
#
# 1 62.8842 18.9076 13.6953 0.0000 0.0000 0.0000
# 2 18.9076 62.8842 13.6953 0.0000 0.0000 0.0000
# 3 13.6953 13.6953 89.8274 0.0000 0.0000 0.0000
# 4 0.0000 0.0000 0.0000 21.9739 0.0000 0.0000
# 5 0.0000 0.0000 0.0000 0.0000 21.9739 0.0000
# 6 0.0000 0.0000 0.0000 0.0000 0.0000 26.3775
#
#
#
# Elastic Compliance Matrix: (Units=1/GPa)
#
#
# Indices 1 2 3 4 5 6 
#
# 1 0.017812 -0.004928 -0.001964 0.000000 0.000000 0.000000
# 2 -0.004928 0.017812 -0.001964 0.000000 0.000000 0.000000
# 3 -0.001964 -0.001964 0.011731 0.000000 0.000000 0.000000
# 4 0.000000 0.000000 0.000000 0.045508 0.000000 0.000000
# 5 0.000000 0.000000 0.000000 0.000000 0.045508 0.000000
# 6 0.000000 0.000000 0.000000 0.000000 0.000000 0.037911
#
#
# Mechanical properties :
#
#
# Convention : Reuss Voigt Hill
#
# Bulk Modulus (GPa) = 33.73579 34.24357 33.98968
# Shear Modulus (GPa) = 24.52468 25.35157 24.93813
#
# Velocity S-wave (km/s) = 3.56132 3.62086 3.59122
# Velocity P-wave (km/s) = 5.86151 5.93212 5.89692
#
# Compressibility (1/GPa) = 0.02964211
#
# Stress axis : x y z
#
# Youngs Moduli (GPa) = 56.14294 56.14294 85.24110
#
# Poissons Ratio (x) = 0.27666 0.16744
# Poissons Ratio (y) = 0.27666 0.16744
# Poissons Ratio (z) = 0.11028 0.11028
#
# Static dielectric constant tensor:
#      x y z
#    x 1.690270 0.000000 0.000000 
#    y 0.000000 1.690270 0.000000 
#    z 0.000000 0.000000 1.725810 
# 
# From -- ./inp_files/3647.got.cif
#   From: 2010.05.17/outbox.cif.g08.bks.cpg/sg135_2_cif.got.tgz:3647.got - 2010.05.20 12:50:20.
