data_PCOD9568897
_publ_section_title
;
Structure prediction by ZEFSAII (Michael W. Deem and Ramdas Pophale) SiO2 
 PCOD9568897
Probable space group: P 42/M B C
;
_chemical_formula_sum "Si O2"
_cell_formula_units_Z 116
_cell_length_a 16.950637
_cell_length_b 16.950637
_cell_length_c 17.633839
_cell_angle_alpha 90.000000
_cell_angle_beta 90.000000
_cell_angle_gamma 90.000000
_cell_volume 5066.626827
_symmetry_space_group_name_H-M "P 42/M B C"
_symmetry_group_IT_number 135
_symmetry_cell_setting 'tetragonal'
loop_
_space_group_symop_operation_xyz
x,y,z
-y,x,1/2+z
-x,-y,z
y,-x,1/2+z
1/2+x,1/2-y,-z
1/2-x,1/2+y,-z
1/2+y,1/2+x,1/2-z
1/2-y,1/2-x,1/2-z
-x,-y,-z
y,-x,1/2-z
x,y,-z
-y,x,1/2-z
1/2-x,1/2+y,z
1/2+x,1/2-y,z
1/2-y,1/2-x,1/2+z
1/2+y,1/2+x,1/2+z
loop_
_atom_site_type_symbol
_atom_site_label
_atom_site_fract_x
_atom_site_fract_y
_atom_site_fract_z
Si Si1 0.116143 0.569397 0.091287
Si Si2 0.295283 0.991867 0.589698
Si Si3 0.000000 0.000000 0.500000
Si Si4 0.814476 0.775340 0.318233
Si Si5 0.156673 0.400110 0.088650
Si Si6 0.265677 0.663919 0.909967
Si Si7 0.660669 0.460918 0.292350
Si Si8 0.404963 0.560340 0.861327
O O1 0.048288 0.630989 0.110084
O O2 0.108823 0.478350 0.111903
O O3 0.200719 0.600897 0.118447
O O4 0.117006 0.570297 0.000000
O O5 0.271256 0.007205 0.500000
O O6 0.231610 0.009729 0.654017
O O7 0.326414 0.902665 0.592594
O O8 0.012428 0.930986 0.565516
O O9 0.774198 0.725803 0.250000
O O10 0.886592 0.728155 0.354665
O O11 0.746549 0.768696 0.381783
O O12 0.835082 0.865449 0.298572
O O13 0.181421 0.408127 0.000000
O O14 0.352263 0.636712 0.884984
O O15 0.265834 0.664152 0.000000
O O16 0.589592 0.512549 0.326000
O O17 0.649406 0.478189 0.203313
#
# Coordination Sequence:
#
# PCOD9568897 Si02
#       8
#    16  16   4  16  16  16  16  16
#     4   9  19  38  69 109 147 191 246 305 375 447
#     4  10  21  41  75 111 153 200 252 310 384 474
#     4  12  28  54  76 104 142 188 256 320 398 460
#     4  12  25  45  67 102 143 190 248 309 391 459
#     4  10  22  42  71 110 148 195 251 315 376 454
#     4  11  22  45  73 102 144 195 253 310 375 462
#     4  12  27  47  74 107 148 197 252 318 389 462
#     4  12  27  49  74 105 143 193 250 321 385 464
#
# _framework density 22.894917
#
# number of rings (size 3 to 8) (size 9 to 14) (size 15 to 20)
#    0.000    1.103    3.448    2.483    0.966    5.517 
#    2.483    0.000    0.000    0.828    0.000    0.000 
#    0.000    0.000    0.000    0.276    0.000    0.000 
#
# Total GULP energy -646761.087840 kJ/mol
# GULP energy per Si atom -5575.526619 kJ/mol
# Density = 2.284281 g / cm^3
# Si number density = 22.894917 Si / 1000 Ang^3
#
#
#
# Elastic Constant Matrix: (Units=GPa)
#
#
# Indices 1 2 3 4 5 6 
#
# 1 106.0253 32.5249 56.0034 0.0000 0.0000 0.0000
# 2 32.5249 106.0254 56.0027 0.0000 0.0000 0.0000
# 3 56.0034 56.0027 113.0378 0.0000 0.0000 0.0000
# 4 0.0000 0.0000 0.0000 61.9776 0.0000 0.0000
# 5 0.0000 0.0000 0.0000 0.0000 61.9655 0.0000
# 6 0.0000 0.0000 0.0000 0.0000 0.0000 40.5858
#
#
#
# Elastic Compliance Matrix: (Units=1/GPa)
#
#
# Indices 1 2 3 4 5 6 
#
# 1 0.012823 -0.000783 -0.005965 0.000000 0.000000 0.000000
# 2 -0.000783 0.012822 -0.005965 0.000000 0.000000 0.000000
# 3 -0.005965 -0.005965 0.014757 0.000000 0.000000 0.000000
# 4 0.000000 0.000000 0.000000 0.016135 0.000000 0.000000
# 5 0.000000 0.000000 0.000000 0.000000 0.016138 0.000000
# 6 0.000000 0.000000 0.000000 0.000000 0.000000 0.024639
#
#
# Mechanical properties :
#
#
# Convention : Reuss Voigt Hill
#
# Bulk Modulus (GPa) = 66.76971 68.23894 67.50433
# Shear Modulus (GPa) = 39.14451 44.94295 42.04373
#
# Velocity S-wave (km/s) = 4.13939 4.43539 4.28995
# Velocity P-wave (km/s) = 7.21616 7.49001 7.35436
#
# Compressibility (1/GPa) = 0.01497685
#
# Stress axis : x y z
#
# Youngs Moduli (GPa) = 77.98725 77.98801 67.76402
#
# Poissons Ratio (x) = 0.06105 0.40421
# Poissons Ratio (y) = 0.06105 0.40420
# Poissons Ratio (z) = 0.46519 0.46519
#
# Static dielectric constant tensor:
#      x y z
#    x 1.896170 0.000000 0.000000 
#    y 0.000000 1.896170 0.000000 
#    z 0.000000 0.000000 1.840990 
# 
# From -- ./inp_files/4591.got.cif
#   From: 2010.05.17/outbox.cif.g08.bks.cpg/sg135_3_cif.got.tgz:4591.got - 2010.05.20 12:50:20.
