data_PCOD9568571
_publ_section_title
;
Structure prediction by ZEFSAII (Michael W. Deem and Ramdas Pophale) SiO2 
 PCOD9568571
Probable space group: P 42/N N M
;
_chemical_formula_sum "Si O2"
_cell_formula_units_Z 48
_cell_length_a 18.181434
_cell_length_b 18.181434
_cell_length_c 7.327915
_cell_angle_alpha 90.000000
_cell_angle_beta 90.000000
_cell_angle_gamma 90.000000
_cell_volume 2422.348868
_symmetry_space_group_name_H-M "P 42/N N M"
_symmetry_group_IT_number 134
_space_group.IT_coordinate_system_code '2'
_symmetry_cell_setting 'tetragonal'
loop_
_space_group_symop_operation_xyz
x,y,z
1/2-y,x,1/2+z
1/2-x,1/2-y,z
y,1/2-x,1/2+z
x,1/2-y,1/2-z
1/2-x,y,1/2-z
y,x,-z
1/2-y,1/2-x,-z
-x,-y,-z
1/2+y,-x,1/2-z
1/2+x,1/2+y,-z
-y,1/2+x,1/2-z
-x,1/2+y,1/2+z
1/2+x,-y,1/2+z
-y,-x,z
1/2+y,1/2+x,z
loop_
_atom_site_type_symbol
_atom_site_label
_atom_site_fract_x
_atom_site_fract_y
_atom_site_fract_z
Si Si1 0.353335 0.519535 0.487287
Si Si2 0.930560 0.942955 0.205383
Si Si3 0.134133 0.744597 0.529568
O O1 0.413958 0.586043 0.490023
O O2 0.363625 0.478723 0.681269
O O3 0.379015 0.465057 0.329617
O O4 0.274842 0.557297 0.461653
O O5 0.917708 0.917708 0.000000
O O6 0.992790 0.007210 0.200175
O O7 0.132252 0.750000 0.750000
O O8 0.196926 0.803075 0.470820
O O9 0.164054 0.664054 0.478898
#
# Coordination Sequence:
#
# PCOD9568571 Si02
#       3
#    16  16  16
#     4   8  13  21  34  51  67  86 117 155 199 249
#     4   8  13  21  34  51  67  82 107 155 213 252
#     4   8  13  21  34  51  71 100 135 165 197 243
#
# _framework density 19.815477999999999
#
# number of rings (size 3 to 8) (size 9 to 14) (size 15 to 20)
#    0.000    4.000    0.000    3.000    0.000    0.000 
#    0.000    0.000    0.000    4.000    0.000   23.333 
#    0.000   16.000    0.000    0.000    0.000    0.000 
#
# Total GULP energy -267461.438496 kJ/mol
# GULP energy per Si atom -5572.113302 kJ/mol
# Density = 1.977038 g / cm^3
# Si number density = 19.815478 Si / 1000 Ang^3
#
#
#
# Elastic Constant Matrix: (Units=GPa)
#
#
# Indices 1 2 3 4 5 6 
#
# 1 49.1239 53.0438 31.4734 0.0000 0.0000 0.0000
# 2 53.0438 49.1239 31.4734 0.0000 0.0000 0.0000
# 3 31.4734 31.4734 131.2688 0.0000 0.0000 0.0000
# 4 0.0000 0.0000 0.0000 2.4230 0.0000 0.0000
# 5 0.0000 0.0000 0.0000 0.0000 2.4230 0.0000
# 6 0.0000 0.0000 0.0000 0.0000 0.0000 50.1396
#
#
#
# Elastic Compliance Matrix: (Units=1/GPa)
#
#
# Indices 1 2 3 4 5 6 
#
# 1 -0.121812 0.133296 -0.002754 0.000000 0.000000 0.000000
# 2 0.133296 -0.121812 -0.002754 0.000000 0.000000 0.000000
# 3 -0.002754 -0.002754 0.008938 0.000000 0.000000 0.000000
# 4 0.000000 0.000000 0.000000 0.412711 0.000000 0.000000
# 5 0.000000 0.000000 0.000000 0.000000 0.412711 0.000000
# 6 0.000000 0.000000 0.000000 0.000000 0.000000 0.019944
#
#
# Mechanical properties :
#
#
# Convention : Reuss Voigt Hill
#
# Bulk Modulus (GPa) = 47.86317 51.27755 49.57036
# Shear Modulus (GPa) = 13.80966 18.56553 16.18759
#
# Velocity S-wave (km/s) = 2.64277 3.06424 2.86128
# Velocity P-wave (km/s) = 5.78958 6.20106 5.99885
#
# Compressibility (1/GPa) = 0.02089289
#
# Stress axis : x y z
#
# Youngs Moduli (GPa) = -8.20936 -8.20936 111.87765
#
# Poissons Ratio (x) = 1.09428 0.30806
# Poissons Ratio (y) = 1.09428 0.30806
# Poissons Ratio (z) = -0.02260 -0.02260
#
# Static dielectric constant tensor:
#      x y z
#    x 1.692560 0.000000 0.000000 
#    y 0.000000 1.692560 0.000000 
#    z 0.000000 0.000000 1.752810 
# 
# From -- ./inp_files/2062.got.cif
#   From: 2010.05.17/outbox.cif.g08.bks.cpg/sg134_2_cif.got.tgz:2062.got - 2010.05.20 12:42:49.
