data_PCOD9568669
_publ_section_title
;
Structure prediction by ZEFSAII (Michael W. Deem and Ramdas Pophale) SiO2 
 PCOD9568669
Probable space group: P 42/M B C
;
_chemical_formula_sum "Si O2"
_cell_formula_units_Z 64
_cell_length_a 12.555417
_cell_length_b 12.555417
_cell_length_c 18.546316
_cell_angle_alpha 90.000000
_cell_angle_beta 90.000000
_cell_angle_gamma 90.000000
_cell_volume 2923.613361
_symmetry_space_group_name_H-M "P 42/M B C"
_symmetry_group_IT_number 135
_symmetry_cell_setting 'tetragonal'
loop_
_space_group_symop_operation_xyz
x,y,z
-y,x,1/2+z
-x,-y,z
y,-x,1/2+z
1/2+x,1/2-y,-z
1/2-x,1/2+y,-z
1/2+y,1/2+x,1/2-z
1/2-y,1/2-x,1/2-z
-x,-y,-z
y,-x,1/2-z
x,y,-z
-y,x,1/2-z
1/2-x,1/2+y,z
1/2+x,1/2-y,z
1/2-y,1/2-x,1/2+z
1/2+y,1/2+x,1/2+z
loop_
_atom_site_type_symbol
_atom_site_label
_atom_site_fract_x
_atom_site_fract_y
_atom_site_fract_z
Si Si1 0.361707 0.067089 0.826960
Si Si2 0.962707 0.262691 0.085050
Si Si3 0.417746 0.677203 0.341547
Si Si4 0.633725 0.354364 0.825988
O O1 0.419859 0.080142 0.750000
O O2 0.433034 0.118857 0.888421
O O3 0.301979 0.955263 0.843397
O O4 0.260819 0.148360 0.823577
O O5 0.069279 0.227785 0.126672
O O6 0.873145 0.176710 0.112131
O O7 0.973274 0.256980 0.000000
O O8 0.528171 0.616736 0.358959
O O9 0.400303 0.654492 0.256878
#
# Coordination Sequence:
#
# PCOD9568669 Si02
#       4
#    16  16  16  16
#     4  10  20  33  57  82 106 144 185 213 264 334
#     4  12  23  35  53  84 118 139 170 237 276 299
#     4  10  19  32  59  84 105 140 185 215 266 335
#     4  10  19  32  59  84 105 140 185 215 266 335
#
# _framework density 21.890719000000001
#
# number of rings (size 3 to 8) (size 9 to 14) (size 15 to 20)
#    1.500    0.000    7.500    0.750    0.000    4.000 
#    0.000    0.000    0.000    1.500    0.000    3.500 
#    0.000    0.000    0.000    0.000    0.000    0.000 
#
# Total GULP energy -356585.394066 kJ/mol
# GULP energy per Si atom -5571.646782 kJ/mol
# Density = 2.184089 g / cm^3
# Si number density = 21.890719 Si / 1000 Ang^3
#
#
#
# Elastic Constant Matrix: (Units=GPa)
#
#
# Indices 1 2 3 4 5 6 
#
# 1 37.2318 53.2810 1.4192 0.0000 0.0000 0.0000
# 2 53.2810 37.2329 1.4191 0.0000 0.0000 0.0000
# 3 1.4192 1.4191 93.5532 0.0000 0.0000 0.0000
# 4 0.0000 0.0000 0.0000 40.5835 0.0000 0.0000
# 5 0.0000 0.0000 0.0000 0.0000 40.5813 0.0000
# 6 0.0000 0.0000 0.0000 0.0000 0.0000 25.9201
#
#
#
# Elastic Compliance Matrix: (Units=1/GPa)
#
#
# Indices 1 2 3 4 5 6 
#
# 1 -0.025629 0.036682 -0.000168 0.000000 0.000000 0.000000
# 2 0.036682 -0.025628 -0.000168 0.000000 0.000000 0.000000
# 3 -0.000168 -0.000168 0.010694 0.000000 0.000000 0.000000
# 4 0.000000 0.000000 0.000000 0.024641 0.000000 0.000000
# 5 0.000000 0.000000 0.000000 0.000000 0.024642 0.000000
# 6 0.000000 0.000000 0.000000 0.000000 0.000000 0.038580
#
#
# Mechanical properties :
#
#
# Convention : Reuss Voigt Hill
#
# Bulk Modulus (GPa) = 31.12337 31.13962 31.13150
# Shear Modulus (GPa) = -340.51729 28.87689 -155.82020
#
# Velocity S-wave (km/s) = -12.48563 3.63593 -8.44603
# Velocity P-wave (km/s) = 13.91424 5.64647 8.99232
#
# Compressibility (1/GPa) = 0.03213019
#
# Stress axis : x y z
#
# Youngs Moduli (GPa) = -39.01837 -39.01952 93.50867
#
# Poissons Ratio (x) = 1.43131 0.01567
# Poissons Ratio (y) = 1.43127 0.01568
# Poissons Ratio (z) = -0.00654 -0.00654
#
# Static dielectric constant tensor:
#      x y z
#    x 1.868670 0.000000 0.000000 
#    y 0.000000 1.868670 0.000000 
#    z 0.000000 0.000000 1.699360 
# 
# From -- ./inp_files/4155.got.cif
#   From: 2010.05.17/outbox.cif.g08.bks.cpg/sg135_3_cif.got.tgz:4155.got - 2010.05.20 12:50:20.
