data_PCOD9568874
_publ_section_title
;
Structure prediction by ZEFSAII (Michael W. Deem and Ramdas Pophale) SiO2 
 PCOD9568874
Probable space group: P 42/M B C
;
_chemical_formula_sum "Si O2"
_cell_formula_units_Z 64
_cell_length_a 12.078607
_cell_length_b 12.078607
_cell_length_c 16.443445
_cell_angle_alpha 90.000000
_cell_angle_beta 90.000000
_cell_angle_gamma 90.000000
_cell_volume 2398.979362
_symmetry_space_group_name_H-M "P 42/M B C"
_symmetry_group_IT_number 135
_symmetry_cell_setting 'tetragonal'
loop_
_space_group_symop_operation_xyz
x,y,z
-y,x,1/2+z
-x,-y,z
y,-x,1/2+z
1/2+x,1/2-y,-z
1/2-x,1/2+y,-z
1/2+y,1/2+x,1/2-z
1/2-y,1/2-x,1/2-z
-x,-y,-z
y,-x,1/2-z
x,y,-z
-y,x,1/2-z
1/2-x,1/2+y,z
1/2+x,1/2-y,z
1/2-y,1/2-x,1/2+z
1/2+y,1/2+x,1/2+z
loop_
_atom_site_type_symbol
_atom_site_label
_atom_site_fract_x
_atom_site_fract_y
_atom_site_fract_z
Si Si1 0.403714 0.911818 0.849377
Si Si2 0.841773 0.820052 0.092999
Si Si3 0.565928 0.340640 0.590906
Si Si4 0.894839 0.154044 0.756398
O O1 0.398053 0.898053 0.750000
O O2 0.411443 0.791235 0.891528
O O3 0.500000 0.000000 0.865241
O O4 0.288996 0.954812 0.888315
O O5 0.896293 0.943341 0.095169
O O6 0.782960 0.835491 0.182822
O O7 0.796242 0.813962 0.000000
O O8 0.603630 0.353877 0.500000
O O9 0.667172 0.373299 0.648772
O O10 0.026559 0.149054 0.747807
#
# Coordination Sequence:
#
# PCOD9568874 Si02
#       4
#    16  16  16  16
#     4  11  23  43  65  91 125 168 211 263 323 383
#     4  10  21  39  63  91 123 163 211 261 317 383
#     4  10  21  39  62  91 125 161 207 262 319 379
#     4   9  18  35  58  87 124 164 205 256 314 376
#
# _framework density 26.678013
#
# number of rings (size 3 to 8) (size 9 to 14) (size 15 to 20)
#    0.000    2.000    2.500    0.750    0.000    3.000 
#    9.000    5.000    0.000    0.000    0.000    0.000 
#    0.000    0.000    0.000    0.000    0.000    0.000 
#
# Total GULP energy -356305.499213 kJ/mol
# GULP energy per Si atom -5567.273425 kJ/mol
# Density = 2.661729 g / cm^3
# Si number density = 26.678013 Si / 1000 Ang^3
#
#
#
# Elastic Constant Matrix: (Units=GPa)
#
#
# Indices 1 2 3 4 5 6 
#
# 1 106.1312 50.7951 28.4953 0.0000 0.0000 0.0000
# 2 50.7951 106.1312 28.4953 0.0000 0.0000 0.0000
# 3 28.4953 28.4953 245.6858 0.0000 0.0000 0.0000
# 4 0.0000 0.0000 0.0000 22.2542 0.0000 0.0000
# 5 0.0000 0.0000 0.0000 0.0000 22.2542 0.0000
# 6 0.0000 0.0000 0.0000 0.0000 0.0000 42.4189
#
#
#
# Elastic Compliance Matrix: (Units=1/GPa)
#
#
# Indices 1 2 3 4 5 6 
#
# 1 0.012362 -0.005709 -0.000772 0.000000 0.000000 0.000000
# 2 -0.005709 0.012362 -0.000772 0.000000 0.000000 0.000000
# 3 -0.000772 -0.000772 0.004249 0.000000 0.000000 0.000000
# 4 0.000000 0.000000 0.000000 0.044935 0.000000 0.000000
# 5 0.000000 0.000000 0.000000 0.000000 0.044935 0.000000
# 6 0.000000 0.000000 0.000000 0.000000 0.000000 0.023574
#
#
# Mechanical properties :
#
#
# Convention : Reuss Voigt Hill
#
# Bulk Modulus (GPa) = 69.11741 74.83548 71.97645
# Shear Modulus (GPa) = 30.91260 40.72961 35.82110
#
# Velocity S-wave (km/s) = 3.40770 3.91155 3.66829
# Velocity P-wave (km/s) = 6.43797 6.96510 6.70672
#
# Compressibility (1/GPa) = 0.01446813
#
# Stress axis : x y z
#
# Youngs Moduli (GPa) = 80.89293 80.89293 235.33724
#
# Poissons Ratio (x) = 0.46185 0.18158
# Poissons Ratio (y) = 0.46185 0.18158
# Poissons Ratio (z) = 0.06242 0.06242
#
# Static dielectric constant tensor:
#      x y z
#    x 2.125700 0.000000 0.000000 
#    y 0.000000 2.125700 0.000000 
#    z 0.000000 0.000000 2.397670 
# 
# From -- ./inp_files/3125.got.cif
#   From: 2010.05.17/outbox.cif.g08.bks.cpg/sg135_2_cif.got.tgz:3125.got - 2010.05.20 12:50:20.
