data_PCOD9568167
_publ_section_title
;
Structure prediction by ZEFSAII (Michael W. Deem and Ramdas Pophale) SiO2 
 PCOD9568167
Probable space group: P 42/N N M
;
_chemical_formula_sum "Si O2"
_cell_formula_units_Z 96
_cell_length_a 16.991102
_cell_length_b 16.991102
_cell_length_c 19.360397
_cell_angle_alpha 90.000000
_cell_angle_beta 90.000000
_cell_angle_gamma 90.000000
_cell_volume 5589.299126
_symmetry_space_group_name_H-M "P 42/N N M"
_symmetry_group_IT_number 134
_space_group.IT_coordinate_system_code '2'
_symmetry_cell_setting 'tetragonal'
loop_
_space_group_symop_operation_xyz
x,y,z
1/2-y,x,1/2+z
1/2-x,1/2-y,z
y,1/2-x,1/2+z
x,1/2-y,1/2-z
1/2-x,y,1/2-z
y,x,-z
1/2-y,1/2-x,-z
-x,-y,-z
1/2+y,-x,1/2-z
1/2+x,1/2+y,-z
-y,1/2+x,1/2-z
-x,1/2+y,1/2+z
1/2+x,-y,1/2+z
-y,-x,z
1/2+y,1/2+x,z
loop_
_atom_site_type_symbol
_atom_site_label
_atom_site_fract_x
_atom_site_fract_y
_atom_site_fract_z
Si Si1 0.445372 0.073030 0.077174
Si Si2 0.546241 0.321567 0.200647
Si Si3 0.436635 0.072727 0.769317
Si Si4 0.378986 0.755245 0.071240
Si Si5 0.316216 0.550239 0.195717
Si Si6 0.579536 0.204168 0.084448
O O1 0.400485 0.075347 0.150811
O O2 0.513465 0.137289 0.089081
O O3 0.487095 0.987095 0.072499
O O4 0.411463 0.088538 0.000000
O O5 0.568627 0.250000 0.250000
O O6 0.611017 0.388984 0.201823
O O7 0.467558 0.361595 0.232141
O O8 0.549792 0.279699 0.126343
O O9 0.471527 0.142189 0.722574
O O10 0.503386 0.003386 0.772762
O O11 0.313578 0.686423 0.066812
O O12 0.332390 0.832390 0.098510
O O13 0.447128 0.725734 0.121625
O O14 0.408012 0.774271 0.995089
O O15 0.250000 0.574126 0.250000
O O16 0.383803 0.616198 0.194199
O O17 0.661229 0.161229 0.108605
#
# Coordination Sequence:
#
# PCOD9568167 Si02
#       6
#    16  16  16  16  16  16
#     4   9  17  29  47  71  99 132 170 211 257 301
#     4  11  20  32  50  75 108 142 175 215 263 314
#     4   9  19  34  49  73 104 136 176 216 253 310
#     4   9  18  31  46  71 106 135 163 203 253 314
#     4  10  20  33  52  75 102 135 172 216 266 315
#     4  10  19  31  49  76 105 136 173 210 260 316
#
# _framework density 17.175678000000001
#
# number of rings (size 3 to 8) (size 9 to 14) (size 15 to 20)
#    0.000    2.333    1.667    1.500    2.333    2.667 
#    0.000    0.833    0.000    4.500    0.000    0.000 
#    0.000    0.000    0.000    0.000    0.000    0.000 
#
# Total GULP energy -534425.040168 kJ/mol
# GULP energy per Si atom -5566.927502 kJ/mol
# Density = 1.713659 g / cm^3
# Si number density = 17.175678 Si / 1000 Ang^3
#
#
#
# Elastic Constant Matrix: (Units=GPa)
#
#
# Indices 1 2 3 4 5 6 
#
# 1 30.6360 20.9624 35.6327 0.0000 0.0000 0.0000
# 2 20.9624 30.6354 35.6325 0.0000 0.0000 0.0000
# 3 35.6327 35.6325 108.9093 0.0000 0.0000 0.0000
# 4 0.0000 0.0000 0.0000 -6.5655 0.0000 0.0000
# 5 0.0000 0.0000 0.0000 0.0000 -6.5656 0.0000
# 6 0.0000 0.0000 0.0000 0.0000 0.0000 9.0159
#
#
#
# Elastic Compliance Matrix: (Units=1/GPa)
#
#
# Indices 1 2 3 4 5 6 
#
# 1 0.069367 -0.034009 -0.011568 0.000000 0.000000 0.000000
# 2 -0.034009 0.069368 -0.011569 0.000000 0.000000 0.000000
# 3 -0.011568 -0.011569 0.016752 0.000000 0.000000 0.000000
# 4 0.000000 0.000000 0.000000 -0.152310 0.000000 0.000000
# 5 0.000000 0.000000 0.000000 0.000000 -0.152308 0.000000
# 6 0.000000 0.000000 0.000000 0.000000 0.000000 0.110915
#
#
# Mechanical properties :
#
#
# Convention : Reuss Voigt Hill
#
# Bulk Modulus (GPa) = 24.27484 39.40398 31.83941
# Shear Modulus (GPa) = 55.67426 4.37382 30.02404
#
# Velocity S-wave (km/s) = 5.69956 1.59751 4.18551
# Velocity P-wave (km/s) = 7.58137 5.13754 6.47578
#
# Compressibility (1/GPa) = 0.04119491
#
# Stress axis : x y z
#
# Youngs Moduli (GPa) = 14.41610 14.41577 59.69500
#
# Poissons Ratio (x) = 0.49027 0.69057
# Poissons Ratio (y) = 0.49028 0.69059
# Poissons Ratio (z) = 0.16677 0.16677
#
# Static dielectric constant tensor:
#      x y z
#    x 1.734480 0.000000 0.000000 
#    y 0.000000 1.734490 0.000000 
#    z 0.000000 0.000000 1.636470 
# 
# From -- ./inp_files/7888.got.cif
#   From: 2010.05.17/outbox.cif.g08.bks.cpg/sg134_4_cif.got.tgz:7888.got - 2010.05.20 12:42:49.
