data_PCOD9568175
_publ_section_title
;
Structure prediction by ZEFSAII (Michael W. Deem and Ramdas Pophale) SiO2 
 PCOD9568175
Probable space group: P 42/N N M
;
_chemical_formula_sum "Si O2"
_cell_formula_units_Z 80
_cell_length_a 29.458584
_cell_length_b 29.458584
_cell_length_c 4.969369
_cell_angle_alpha 90.000000
_cell_angle_beta 90.000000
_cell_angle_gamma 90.000000
_cell_volume 4312.459024
_symmetry_space_group_name_H-M "P 42/N N M"
_symmetry_group_IT_number 134
_space_group.IT_coordinate_system_code '2'
_symmetry_cell_setting 'tetragonal'
loop_
_space_group_symop_operation_xyz
x,y,z
1/2-y,x,1/2+z
1/2-x,1/2-y,z
y,1/2-x,1/2+z
x,1/2-y,1/2-z
1/2-x,y,1/2-z
y,x,-z
1/2-y,1/2-x,-z
-x,-y,-z
1/2+y,-x,1/2-z
1/2+x,1/2+y,-z
-y,1/2+x,1/2-z
-x,1/2+y,1/2+z
1/2+x,-y,1/2+z
-y,-x,z
1/2+y,1/2+x,z
loop_
_atom_site_type_symbol
_atom_site_label
_atom_site_fract_x
_atom_site_fract_y
_atom_site_fract_z
Si Si1 0.007684 0.581187 0.765696
Si Si2 0.859063 0.923067 0.358415
Si Si3 0.461202 0.720854 0.005081
Si Si4 0.203005 0.063915 0.144445
Si Si5 0.122841 0.948126 0.229189
O O1 0.031926 0.531926 0.822061
O O2 0.019376 0.591895 0.457144
O O3 0.955778 0.597650 0.797583
O O4 0.033682 0.616097 0.968268
O O5 0.878103 0.878103 0.500000
O O6 0.827262 0.944958 0.589945
O O7 0.915323 0.829218 0.911036
O O8 0.444012 0.750000 0.250000
O O9 0.516057 0.718219 0.017218
O O10 0.447319 0.670190 0.077652
O O11 0.447636 0.750000 0.750000
O O12 0.250000 0.086801 0.250000
O O13 0.101098 0.898902 0.222626
#
# Coordination Sequence:
#
# PCOD9568175 Si02
#       5
#    16  16  16  16  16
#     4  10  19  33  49  70 106 148 185 220 258 302
#     4  12  22  36  55  80 109 141 190 229 259 316
#     4  11  19  30  52  75  98 130 178 222 266 324
#     4  11  22  37  55  76 107 142 175 222 283 327
#     4  10  19  32  49  69 103 140 177 219 268 318
#
# _framework density 18.550899999999999
#
# number of rings (size 3 to 8) (size 9 to 14) (size 15 to 20)
#    0.000    1.200    4.000    4.800    0.000    0.400 
#    0.000    0.000    0.000    6.000    0.000    0.000 
#    0.000   13.600    0.000    0.200    0.000    0.000 
#
# Total GULP energy -445462.476132 kJ/mol
# GULP energy per Si atom -5568.280952 kJ/mol
# Density = 1.850868 g / cm^3
# Si number density = 18.550900 Si / 1000 Ang^3
#
#
#
# Elastic Constant Matrix: (Units=GPa)
#
#
# Indices 1 2 3 4 5 6 
#
# 1 44.3416 23.6971 15.8588 0.0000 0.0000 0.0000
# 2 23.6971 44.3416 15.8588 0.0000 0.0000 0.0000
# 3 15.8588 15.8588 114.7868 0.0000 0.0000 0.0000
# 4 0.0000 0.0000 0.0000 20.6824 0.0000 0.0000
# 5 0.0000 0.0000 0.0000 0.0000 20.6824 0.0000
# 6 0.0000 0.0000 0.0000 0.0000 0.0000 13.2246
#
#
#
# Elastic Compliance Matrix: (Units=1/GPa)
#
#
# Indices 1 2 3 4 5 6 
#
# 1 0.032074 -0.016365 -0.002170 0.000000 0.000000 0.000000
# 2 -0.016365 0.032074 -0.002170 0.000000 0.000000 0.000000
# 3 -0.002170 -0.002170 0.009312 0.000000 0.000000 0.000000
# 4 0.000000 0.000000 0.000000 0.048350 0.000000 0.000000
# 5 0.000000 0.000000 0.000000 0.000000 0.048350 0.000000
# 6 0.000000 0.000000 0.000000 0.000000 0.000000 0.075617
#
#
# Mechanical properties :
#
#
# Convention : Reuss Voigt Hill
#
# Bulk Modulus (GPa) = 31.20263 34.92214 33.06239
# Shear Modulus (GPa) = 16.78578 20.78824 18.78701
#
# Velocity S-wave (km/s) = 3.01134 3.35118 3.18579
# Velocity P-wave (km/s) = 5.38028 5.81719 5.60300
#
# Compressibility (1/GPa) = 0.03204858
#
# Stress axis : x y z
#
# Youngs Moduli (GPa) = 31.17777 31.17777 107.39391
#
# Poissons Ratio (x) = 0.51022 0.23308
# Poissons Ratio (y) = 0.51022 0.23308
# Poissons Ratio (z) = 0.06767 0.06767
#
# Static dielectric constant tensor:
#      x y z
#    x 1.668460 0.000000 0.000000 
#    y 0.000000 1.668460 0.000000 
#    z 0.000000 0.000000 1.672250 
# 
# From -- ./inp_files/1168.got.cif
#   From: 2010.05.17/outbox.cif.g08.bks.cpg/sg134_1_cif.got.tgz:1168.got - 2010.05.20 12:42:49.
