data_PCOD9568739
_publ_section_title
;
Structure prediction by ZEFSAII (Michael W. Deem and Ramdas Pophale) SiO2 
 PCOD9568739
Probable space group: P 42/M B C
;
_chemical_formula_sum "Si O2"
_cell_formula_units_Z 64
_cell_length_a 10.558509
_cell_length_b 10.558509
_cell_length_c 24.311907
_cell_angle_alpha 90.000000
_cell_angle_beta 90.000000
_cell_angle_gamma 90.000000
_cell_volume 2710.342746
_symmetry_space_group_name_H-M "P 42/M B C"
_symmetry_group_IT_number 135
_symmetry_cell_setting 'tetragonal'
loop_
_space_group_symop_operation_xyz
x,y,z
-y,x,1/2+z
-x,-y,z
y,-x,1/2+z
1/2+x,1/2-y,-z
1/2-x,1/2+y,-z
1/2+y,1/2+x,1/2-z
1/2-y,1/2-x,1/2-z
-x,-y,-z
y,-x,1/2-z
x,y,-z
-y,x,1/2-z
1/2-x,1/2+y,z
1/2+x,1/2-y,z
1/2-y,1/2-x,1/2+z
1/2+y,1/2+x,1/2+z
loop_
_atom_site_type_symbol
_atom_site_label
_atom_site_fract_x
_atom_site_fract_y
_atom_site_fract_z
Si Si1 0.862374 0.545514 0.565856
Si Si2 0.942861 0.267651 0.777247
Si Si3 0.294182 0.243154 0.885337
Si Si4 0.092446 0.884840 0.330983
O O1 0.863435 0.552093 0.500000
O O2 0.828641 0.685824 0.587637
O O3 0.771067 0.427142 0.582972
O O4 0.000000 0.500000 0.586490
O O5 0.899733 0.399733 0.750000
O O6 0.833873 0.231883 0.821572
O O7 0.955750 0.178621 0.724632
O O8 0.064112 0.233163 0.813629
O O9 0.217416 0.110298 0.878454
O O10 0.000000 0.000000 0.345551
#
# Coordination Sequence:
#
# PCOD9568739 Si02
#       4
#    16  16  16  16
#     4  11  26  46  69  97 131 171 229 291 344 404
#     4  10  20  33  59  90 130 174 219 268 332 406
#     4  11  24  42  66  95 131 178 223 281 349 403
#     4  11  20  37  62  92 134 177 223 269 327 417
#
# _framework density 23.613250000000001
#
# number of rings (size 3 to 8) (size 9 to 14) (size 15 to 20)
#    0.000    1.250    5.000    0.750    3.500    0.000 
#    0.000    0.000    0.000    6.000    0.000    0.000 
#    0.000    0.000    0.000    0.000    0.000    0.000 
#
# Total GULP energy -356533.228824 kJ/mol
# GULP energy per Si atom -5570.831700 kJ/mol
# Density = 2.355950 g / cm^3
# Si number density = 23.613250 Si / 1000 Ang^3
#
#
#
# Elastic Constant Matrix: (Units=GPa)
#
#
# Indices 1 2 3 4 5 6 
#
# 1 93.9261 48.1452 20.2918 0.0000 0.0000 0.0000
# 2 48.1452 93.9261 20.2918 0.0000 0.0000 0.0000
# 3 20.2918 20.2918 53.9684 0.0000 0.0000 0.0000
# 4 0.0000 0.0000 0.0000 21.0036 0.0000 0.0000
# 5 0.0000 0.0000 0.0000 0.0000 21.0036 0.0000
# 6 0.0000 0.0000 0.0000 0.0000 0.0000 54.3125
#
#
#
# Elastic Compliance Matrix: (Units=1/GPa)
#
#
# Indices 1 2 3 4 5 6 
#
# 1 0.014864 -0.006979 -0.002965 0.000000 0.000000 0.000000
# 2 -0.006979 0.014864 -0.002965 0.000000 0.000000 0.000000
# 3 -0.002965 -0.002965 0.020759 0.000000 0.000000 0.000000
# 4 0.000000 0.000000 0.000000 0.047611 0.000000 0.000000
# 5 0.000000 0.000000 0.000000 0.000000 0.047611 0.000000
# 6 0.000000 0.000000 0.000000 0.000000 0.000000 0.018412
#
#
# Mechanical properties :
#
#
# Convention : Reuss Voigt Hill
#
# Bulk Modulus (GPa) = 40.53430 46.58647 43.56038
# Shear Modulus (GPa) = 25.23184 29.47007 27.35096
#
# Velocity S-wave (km/s) = 3.27241 3.53658 3.40706
# Velocity P-wave (km/s) = 5.61083 6.03724 5.82794
#
# Compressibility (1/GPa) = 0.02467047
#
# Stress axis : x y z
#
# Youngs Moduli (GPa) = 67.27465 67.27465 48.17192
#
# Poissons Ratio (x) = 0.46949 0.14283
# Poissons Ratio (y) = 0.46949 0.14283
# Poissons Ratio (z) = 0.19947 0.19947
#
# Static dielectric constant tensor:
#      x y z
#    x 2.028470 0.000000 0.000000 
#    y 0.000000 2.028470 0.000000 
#    z 0.000000 0.000000 1.854670 
# 
# From -- ./inp_files/6341.got.cif
#   From: 2010.05.17/outbox.cif.g08.bks.cpg/sg135_4_cif.got.tgz:6341.got - 2010.05.20 12:50:20.
