data_PCOD9568816
_publ_section_title
;
Structure prediction by ZEFSAII (Michael W. Deem and Ramdas Pophale) SiO2 
 PCOD9568816
Probable space group: P 42/M B C
;
_chemical_formula_sum "Si O2"
_cell_formula_units_Z 116
_cell_length_a 18.270930
_cell_length_b 18.270930
_cell_length_c 17.698442
_cell_angle_alpha 90.000000
_cell_angle_beta 90.000000
_cell_angle_gamma 90.000000
_cell_volume 5908.215728
_symmetry_space_group_name_H-M "P 42/M B C"
_symmetry_group_IT_number 135
_symmetry_cell_setting 'tetragonal'
loop_
_space_group_symop_operation_xyz
x,y,z
-y,x,1/2+z
-x,-y,z
y,-x,1/2+z
1/2+x,1/2-y,-z
1/2-x,1/2+y,-z
1/2+y,1/2+x,1/2-z
1/2-y,1/2-x,1/2-z
-x,-y,-z
y,-x,1/2-z
x,y,-z
-y,x,1/2-z
1/2-x,1/2+y,z
1/2+x,1/2-y,z
1/2-y,1/2-x,1/2+z
1/2+y,1/2+x,1/2+z
loop_
_atom_site_type_symbol
_atom_site_label
_atom_site_fract_x
_atom_site_fract_y
_atom_site_fract_z
Si Si1 0.788999 0.552519 0.091866
Si Si2 0.586468 0.885618 0.584272
Si Si3 0.399110 0.649770 0.910950
Si Si4 0.366172 0.491274 0.839337
Si Si5 0.500000 0.000000 0.000000
Si Si6 0.217170 0.298062 0.409228
Si Si7 0.147751 0.039614 0.670535
Si Si8 0.658433 0.772821 0.175027
O O1 0.840661 0.484357 0.112601
O O2 0.710184 0.536373 0.126654
O O3 0.815487 0.633752 0.115137
O O4 0.785790 0.552636 0.000000
O O5 0.605897 0.854312 0.500000
O O6 0.555329 0.965506 0.564635
O O7 0.655678 0.877871 0.637318
O O8 0.382729 0.571796 0.872008
O O9 0.349673 0.716869 0.881764
O O10 0.482137 0.671200 0.892672
O O11 0.386560 0.640911 0.000000
O O12 0.425331 0.428687 0.855919
O O13 0.363636 0.496989 0.748913
O O14 0.217383 0.301687 0.500000
O O15 0.238145 0.217785 0.381293
O O16 0.209446 0.099440 0.687830
O O17 0.700130 0.799871 0.250000
#
# Coordination Sequence:
#
# PCOD9568816 Si02
#       8
#    16  16  16  16   4  16  16  16
#     4  10  20  38  68  96 125 167 219 264 318 389
#     4   9  20  40  66  95 122 172 209 263 326 387
#     4  11  25  42  65  97 129 171 216 273 326 388
#     4  12  23  44  63  90 133 175 218 258 336 402
#     4   8  20  40  70  88 128 168 210 256 340 392
#     4  10  22  41  63  95 132 165 214 272 322 386
#     4  12  26  41  65  93 131 176 216 270 332 395
#     4  12  24  41  64  96 130 169 223 267 325 392
#
# _framework density 19.633678
#
# number of rings (size 3 to 8) (size 9 to 14) (size 15 to 20)
#    0.414    0.828    2.759    3.724    0.000    6.069 
#    2.483    0.345    0.000    3.310    0.000    0.000 
#    0.000    0.000    0.000    0.000    0.000    0.000 
#
# Total GULP energy -646235.365962 kJ/mol
# GULP energy per Si atom -5570.994534 kJ/mol
# Density = 1.958899 g / cm^3
# Si number density = 19.633678 Si / 1000 Ang^3
#
#
#
# Elastic Constant Matrix: (Units=GPa)
#
#
# Indices 1 2 3 4 5 6 
#
# 1 65.5865 35.3235 4.1925 0.0000 0.0000 0.0000
# 2 35.3235 65.5864 4.1926 0.0000 0.0000 0.0000
# 3 4.1925 4.1926 9.2170 0.0000 0.0000 0.0000
# 4 0.0000 0.0000 0.0000 20.2479 0.0000 0.0000
# 5 0.0000 0.0000 0.0000 0.0000 20.2473 0.0000
# 6 0.0000 0.0000 0.0000 0.0000 0.0000 0.5895
#
#
#
# Elastic Compliance Matrix: (Units=1/GPa)
#
#
# Indices 1 2 3 4 5 6 
#
# 1 0.021671 -0.011372 -0.004685 0.000000 0.000000 0.000000
# 2 -0.011372 0.021671 -0.004685 0.000000 0.000000 0.000000
# 3 -0.004685 -0.004685 0.112757 0.000000 0.000000 0.000000
# 4 0.000000 0.000000 0.000000 0.049388 0.000000 0.000000
# 5 0.000000 0.000000 0.000000 0.000000 0.049389 0.000000
# 6 0.000000 0.000000 0.000000 0.000000 0.000000 1.696230
#
#
# Mechanical properties :
#
#
# Convention : Reuss Voigt Hill
#
# Bulk Modulus (GPa) = 8.72481 25.31192 17.01837
# Shear Modulus (GPa) = 2.46209 14.66238 8.56223
#
# Velocity S-wave (km/s) = 1.12104 2.73572 2.09056
# Velocity P-wave (km/s) = 2.47570 4.78529 3.80973
#
# Compressibility (1/GPa) = 0.11461571
#
# Stress axis : x y z
#
# Youngs Moduli (GPa) = 46.14384 46.14366 8.86866
#
# Poissons Ratio (x) = 0.52476 0.04155
# Poissons Ratio (y) = 0.52476 0.04155
# Poissons Ratio (z) = 0.21616 0.21618
#
# Static dielectric constant tensor:
#      x y z
#    x 1.714940 0.000000 0.000000 
#    y 0.000000 1.714940 0.000000 
#    z 0.000000 0.000000 1.665820 
# 
# From -- ./inp_files/4603.got.cif
#   From: 2010.05.17/outbox.cif.g08.bks.cpg/sg135_3_cif.got.tgz:4603.got - 2010.05.20 12:50:20.
