data_PCOD9568483
_publ_section_title
;
Structure prediction by ZEFSAII (Michael W. Deem and Ramdas Pophale) SiO2 
 PCOD9568483
Probable space group: P 42/N N M
;
_chemical_formula_sum "Si O2"
_cell_formula_units_Z 88
_cell_length_a 11.772283
_cell_length_b 11.772283
_cell_length_c 29.509382
_cell_angle_alpha 90.000000
_cell_angle_beta 90.000000
_cell_angle_gamma 90.000000
_cell_volume 4089.606307
_symmetry_space_group_name_H-M "P 42/N N M"
_symmetry_group_IT_number 134
_space_group.IT_coordinate_system_code '2'
_symmetry_cell_setting 'tetragonal'
loop_
_space_group_symop_operation_xyz
x,y,z
1/2-y,x,1/2+z
1/2-x,1/2-y,z
y,1/2-x,1/2+z
x,1/2-y,1/2-z
1/2-x,y,1/2-z
y,x,-z
1/2-y,1/2-x,-z
-x,-y,-z
1/2+y,-x,1/2-z
1/2+x,1/2+y,-z
-y,1/2+x,1/2-z
-x,1/2+y,1/2+z
1/2+x,-y,1/2+z
-y,-x,z
1/2+y,1/2+x,z
loop_
_atom_site_type_symbol
_atom_site_label
_atom_site_fract_x
_atom_site_fract_y
_atom_site_fract_z
Si Si1 0.887100 0.935667 0.365196
Si Si2 0.561501 0.689904 0.162886
Si Si3 0.073969 0.750000 0.250000
Si Si4 0.653915 0.153915 0.600959
Si Si5 0.207233 0.982971 0.801071
Si Si6 0.978594 0.670296 0.968327
Si Si7 0.404104 0.595897 0.998298
O O1 0.877023 0.809091 0.345816
O O2 0.842082 0.940741 0.416308
O O3 0.816102 0.018660 0.333013
O O4 0.016120 0.983881 0.365616
O O5 0.497981 0.699125 0.210471
O O6 0.466935 0.683092 0.123783
O O7 0.635395 0.578799 0.171750
O O8 0.154444 0.845557 0.270811
O O9 0.750000 0.250000 0.609859
O O10 0.636889 0.136889 0.547727
O O11 0.250000 0.013344 0.750000
O O12 0.129677 0.870324 0.797991
O O13 0.080297 0.580297 0.976389
O O14 0.034374 0.793757 0.976406
O O15 0.874179 0.625822 0.000000
O O16 0.500000 0.500000 0.000000
#
# Coordination Sequence:
#
# PCOD9568483 Si02
#       7
#    16  16   8   8  16  16   8
#     4  11  25  43  72 101 140 189 249 302 369 446
#     4  12  24  43  69 105 147 187 246 307 378 453
#     4  11  20  34  59  96 138 176 221 275 352 436
#     4  12  24  44  74 110 148 202 246 316 389 468
#     4  12  27  48  71 102 146 194 249 307 370 445
#     4  10  23  47  73 104 142 194 250 312 378 462
#     4  12  28  44  74 108 156 192 256 316 392 459
#
# _framework density 21.517963999999999
#
# number of rings (size 3 to 8) (size 9 to 14) (size 15 to 20)
#    0.000    0.636    1.818    5.727    3.818    3.818 
#    3.273    0.000    0.000    0.000    0.000    0.000 
#    0.000    0.000    0.000    0.000    0.000    0.000 
#
# Total GULP energy -491583.697784 kJ/mol
# GULP energy per Si atom -5586.178384 kJ/mol
# Density = 2.146899 g / cm^3
# Si number density = 21.517964 Si / 1000 Ang^3
#
#
#
# Elastic Constant Matrix: (Units=GPa)
#
#
# Indices 1 2 3 4 5 6 
#
# 1 108.9521 52.2858 21.8100 0.0000 0.0000 0.0000
# 2 52.2858 108.9502 21.8097 0.0000 0.0000 0.0000
# 3 21.8100 21.8097 85.9325 0.0000 0.0000 0.0000
# 4 0.0000 0.0000 0.0000 34.9756 0.0000 0.0000
# 5 0.0000 0.0000 0.0000 0.0000 34.9755 0.0000
# 6 0.0000 0.0000 0.0000 0.0000 0.0000 47.1096
#
#
#
# Elastic Compliance Matrix: (Units=1/GPa)
#
#
# Indices 1 2 3 4 5 6 
#
# 1 0.012153 -0.005494 -0.001690 0.000000 0.000000 0.000000
# 2 -0.005494 0.012153 -0.001690 0.000000 0.000000 0.000000
# 3 -0.001690 -0.001690 0.012495 0.000000 0.000000 0.000000
# 4 0.000000 0.000000 0.000000 0.028591 0.000000 0.000000
# 5 0.000000 0.000000 0.000000 0.000000 0.028591 0.000000
# 6 0.000000 0.000000 0.000000 0.000000 0.000000 0.021227
#
#
# Mechanical properties :
#
#
# Convention : Reuss Voigt Hill
#
# Bulk Modulus (GPa) = 52.48524 55.07176 53.77850
# Shear Modulus (GPa) = 35.89083 37.27409 36.58246
#
# Velocity S-wave (km/s) = 4.08848 4.16652 4.12769
# Velocity P-wave (km/s) = 6.83607 6.98538 6.91113
#
# Compressibility (1/GPa) = 0.01905298
#
# Stress axis : x y z
#
# Youngs Moduli (GPa) = 82.28232 82.28097 80.03226
#
# Poissons Ratio (x) = 0.45206 0.13527
# Poissons Ratio (y) = 0.45207 0.13526
# Poissons Ratio (z) = 0.13907 0.13907
#
# Static dielectric constant tensor:
#      x y z
#    x 1.814040 0.000000 0.000000 
#    y 0.000000 1.814040 0.000000 
#    z 0.000000 0.000000 1.733240 
# 
# From -- ./inp_files/11522.got.cif
#   From: 2010.05.17/outbox.cif.g08.bks.cpg/sg134_6_cif.got.tgz:11522.got - 2010.05.20 12:42:49.
