data_PCOD9568367
_publ_section_title
;
Structure prediction by ZEFSAII (Michael W. Deem and Ramdas Pophale) SiO2 
 PCOD9568367
Probable space group: P 42/N N M
;
_chemical_formula_sum "Si O2"
_cell_formula_units_Z 96
_cell_length_a 22.704182
_cell_length_b 22.704182
_cell_length_c 9.010955
_cell_angle_alpha 90.000000
_cell_angle_beta 90.000000
_cell_angle_gamma 90.000000
_cell_volume 4644.966005
_symmetry_space_group_name_H-M "P 42/N N M"
_symmetry_group_IT_number 134
_space_group.IT_coordinate_system_code '2'
_symmetry_cell_setting 'tetragonal'
loop_
_space_group_symop_operation_xyz
x,y,z
1/2-y,x,1/2+z
1/2-x,1/2-y,z
y,1/2-x,1/2+z
x,1/2-y,1/2-z
1/2-x,y,1/2-z
y,x,-z
1/2-y,1/2-x,-z
-x,-y,-z
1/2+y,-x,1/2-z
1/2+x,1/2+y,-z
-y,1/2+x,1/2-z
-x,1/2+y,1/2+z
1/2+x,-y,1/2+z
-y,-x,z
1/2+y,1/2+x,z
loop_
_atom_site_type_symbol
_atom_site_label
_atom_site_fract_x
_atom_site_fract_y
_atom_site_fract_z
Si Si1 0.081033 0.730783 0.496996
Si Si2 0.086022 0.332204 0.104536
Si Si3 0.978221 0.814387 0.170310
Si Si4 0.963790 0.136961 0.539482
Si Si5 0.884944 0.695723 0.554332
Si Si6 0.337653 0.750000 0.250000
Si Si7 0.659637 0.250000 0.250000
O O1 0.070946 0.801351 0.487410
O O2 0.121535 0.715179 0.358840
O O3 0.116884 0.716412 0.641025
O O4 0.021721 0.697274 0.467549
O O5 0.099996 0.327912 0.280487
O O6 0.095883 0.264299 0.053474
O O7 0.128715 0.371286 0.000000
O O8 0.020127 0.357093 0.071133
O O9 0.971814 0.750000 0.250000
O O10 0.006447 0.856132 0.295994
O O11 0.920431 0.833385 0.083629
O O12 0.918879 0.081122 0.527376
O O13 0.818335 0.681666 0.500000
O O14 0.295186 0.704815 0.332399
O O15 0.702964 0.297037 0.324882
#
# Coordination Sequence:
#
# PCOD9568367 Si02
#       7
#    16  16  16  16  16   8   8
#     4  11  21  35  56  81 117 163 218 266 327 389
#     4  11  25  44  69 102 136 171 216 268 334 404
#     4  10  20  39  64  90 126 164 211 274 322 386
#     4  11  22  39  64  92 127 175 224 270 328 391
#     4  11  24  43  73 101 132 174 214 268 340 403
#     4  11  20  32  52  82 118 158 213 272 326 386
#     4  11  24  36  48  76 122 168 213 276 336 386
#
# _framework density 20.667535999999998
#
# number of rings (size 3 to 8) (size 9 to 14) (size 15 to 20)
#    0.000    1.167    5.833    3.000    2.333    2.667 
#    0.000    2.500    0.000    2.000    0.000    0.000 
#    0.000    0.000    0.000    0.000    0.000    0.000 
#
# Total GULP energy -534567.026270 kJ/mol
# GULP energy per Si atom -5568.406524 kJ/mol
# Density = 2.062050 g / cm^3
# Si number density = 20.667536 Si / 1000 Ang^3
#
#
#
# Elastic Constant Matrix: (Units=GPa)
#
#
# Indices 1 2 3 4 5 6 
#
# 1 81.0829 53.3931 34.0185 0.0000 0.0000 0.0000
# 2 53.3931 81.0772 34.0160 0.0000 0.0000 0.0000
# 3 34.0185 34.0160 71.0530 0.0000 0.0000 0.0000
# 4 0.0000 0.0000 0.0000 29.0394 0.0000 0.0000
# 5 0.0000 0.0000 0.0000 0.0000 29.0398 0.0000
# 6 0.0000 0.0000 0.0000 0.0000 0.0000 29.0015
#
#
#
# Elastic Compliance Matrix: (Units=1/GPa)
#
#
# Indices 1 2 3 4 5 6 
#
# 1 0.022965 -0.013152 -0.004699 0.000000 0.000000 0.000000
# 2 -0.013152 0.022966 -0.004698 0.000000 0.000000 0.000000
# 3 -0.004699 -0.004698 0.018573 0.000000 0.000000 0.000000
# 4 0.000000 0.000000 0.000000 0.034436 0.000000 0.000000
# 5 0.000000 0.000000 0.000000 0.000000 0.034436 0.000000
# 6 0.000000 0.000000 0.000000 0.000000 0.000000 0.034481
#
#
# Mechanical properties :
#
#
# Convention : Reuss Voigt Hill
#
# Bulk Modulus (GPa) = 51.52919 52.89648 52.21283
# Shear Modulus (GPa) = 22.78698 24.86849 23.82773
#
# Velocity S-wave (km/s) = 3.32407 3.47257 3.39913
# Velocity P-wave (km/s) = 6.30231 6.45971 6.38150
#
# Compressibility (1/GPa) = 0.01940648
#
# Stress axis : x y z
#
# Youngs Moduli (GPa) = 43.54410 43.54184 53.84256
#
# Poissons Ratio (x) = 0.57268 0.25299
# Poissons Ratio (y) = 0.57271 0.25295
# Poissons Ratio (z) = 0.20460 0.20456
#
# Static dielectric constant tensor:
#      x y z
#    x 1.787340 0.000000 0.000000 
#    y 0.000000 1.787340 0.000000 
#    z 0.000000 0.000000 1.814900 
# 
# From -- ./inp_files/3256.got.cif
#   From: 2010.05.17/outbox.cif.g08.bks.cpg/sg134_2_cif.got.tgz:3256.got - 2010.05.20 12:42:49.
