data_PCOD9568965
_publ_section_title
;
Structure prediction by ZEFSAII (Michael W. Deem and Ramdas Pophale) SiO2 
 PCOD9568965
Probable space group: P 42/M B C
;
_chemical_formula_sum "Si O2"
_cell_formula_units_Z 64
_cell_length_a 11.643698
_cell_length_b 11.643698
_cell_length_c 21.917583
_cell_angle_alpha 90.000000
_cell_angle_beta 90.000000
_cell_angle_gamma 90.000000
_cell_volume 2971.491726
_symmetry_space_group_name_H-M "P 42/M B C"
_symmetry_group_IT_number 135
_symmetry_cell_setting 'tetragonal'
loop_
_space_group_symop_operation_xyz
x,y,z
-y,x,1/2+z
-x,-y,z
y,-x,1/2+z
1/2+x,1/2-y,-z
1/2-x,1/2+y,-z
1/2+y,1/2+x,1/2-z
1/2-y,1/2-x,1/2-z
-x,-y,-z
y,-x,1/2-z
x,y,-z
-y,x,1/2-z
1/2-x,1/2+y,z
1/2+x,1/2-y,z
1/2-y,1/2-x,1/2+z
1/2+y,1/2+x,1/2+z
loop_
_atom_site_type_symbol
_atom_site_label
_atom_site_fract_x
_atom_site_fract_y
_atom_site_fract_z
Si Si1 0.164650 0.678068 0.066994
Si Si2 0.373914 0.987202 0.837600
Si Si3 0.951265 0.818504 0.238438
Si Si4 0.238482 0.415652 0.399961
O O1 0.160757 0.602544 0.128128
O O2 0.297430 0.721265 0.068469
O O3 0.045746 0.754626 0.073374
O O4 0.150859 0.622104 0.000000
O O5 0.500000 0.000000 0.811069
O O6 0.283440 0.948514 0.787341
O O7 0.392715 0.896250 0.891537
O O8 0.920270 0.785058 0.169627
O O9 0.080170 0.868225 0.239369
#
# Coordination Sequence:
#
# PCOD9568965 Si02
#       4
#    16  16  16  16
#     4  11  24  43  65  94 133 178 230 278 337 410
#     4  10  23  41  64  96 128 170 218 275 337 400
#     4  11  22  40  67  97 135 168 215 276 348 410
#     4  11  23  41  67  96 131 174 224 280 344 408
#
# _framework density 21.538003
#
# number of rings (size 3 to 8) (size 9 to 14) (size 15 to 20)
#    0.000    1.250    2.500    3.000    0.000   12.500 
#    0.000    0.000    0.000    4.500    0.000    0.000 
#    0.000    0.000    0.000    0.000    0.000    0.000 
#
# Total GULP energy -356523.661841 kJ/mol
# GULP energy per Si atom -5570.682216 kJ/mol
# Density = 2.148898 g / cm^3
# Si number density = 21.538003 Si / 1000 Ang^3
#
#
#
# Elastic Constant Matrix: (Units=GPa)
#
#
# Indices 1 2 3 4 5 6 
#
# 1 -6.7427 127.0330 31.3657 0.0000 0.0000 0.0000
# 2 127.0330 -6.7427 31.3657 0.0000 0.0000 0.0000
# 3 31.3657 31.3657 117.2769 0.0000 0.0000 0.0000
# 4 0.0000 0.0000 0.0000 -65.6236 0.0000 0.0000
# 5 0.0000 0.0000 0.0000 0.0000 -65.6236 0.0000
# 6 0.0000 0.0000 0.0000 0.0000 0.0000 8.5092
#
#
#
# Elastic Compliance Matrix: (Units=1/GPa)
#
#
# Indices 1 2 3 4 5 6 
#
# 1 0.001093 0.008568 -0.002584 0.000000 0.000000 0.000000
# 2 0.008568 0.001093 -0.002584 0.000000 0.000000 0.000000
# 3 -0.002584 -0.002584 0.009909 0.000000 0.000000 0.000000
# 4 0.000000 0.000000 0.000000 -0.015238 0.000000 0.000000
# 5 0.000000 0.000000 0.000000 0.000000 -0.015238 0.000000
# 6 0.000000 0.000000 0.000000 0.000000 0.000000 0.117520
#
#
# Mechanical properties :
#
#
# Convention : Reuss Voigt Hill
#
# Bulk Modulus (GPa) = 52.92350 53.70226 53.31288
# Shear Modulus (GPa) = 50.69209 -30.27912 10.20648
#
# Velocity S-wave (km/s) = 4.85667 -3.75353 2.17925
# Velocity P-wave (km/s) = 7.48833 2.49049 5.58022
#
# Compressibility (1/GPa) = 0.01889520
#
# Stress axis : x y z
#
# Youngs Moduli (GPa) = 915.14731 915.14731 100.91972
#
# Poissons Ratio (x) = -7.84091 0.26075
# Poissons Ratio (y) = -7.84091 0.26075
# Poissons Ratio (z) = 2.36450 2.36450
#
# Static dielectric constant tensor:
#      x y z
#    x 1.848890 0.000000 0.000000 
#    y 0.000000 1.848890 0.000000 
#    z 0.000000 0.000000 1.732190 
# 
# From -- ./inp_files/5033.got.cif
#   From: 2010.05.17/outbox.cif.g08.bks.cpg/sg135_3_cif.got.tgz:5033.got - 2010.05.20 12:50:20.
