data_PCOD9568987
_publ_section_title
;
Structure prediction by ZEFSAII (Michael W. Deem and Ramdas Pophale) SiO2 
 PCOD9568987
Probable space group: P 42/M B C
;
_chemical_formula_sum "Si O2"
_cell_formula_units_Z 116
_cell_length_a 17.651592
_cell_length_b 17.651592
_cell_length_c 18.121640
_cell_angle_alpha 90.000000
_cell_angle_beta 90.000000
_cell_angle_gamma 90.000000
_cell_volume 5646.317036
_symmetry_space_group_name_H-M "P 42/M B C"
_symmetry_group_IT_number 135
_symmetry_cell_setting 'tetragonal'
loop_
_space_group_symop_operation_xyz
x,y,z
-y,x,1/2+z
-x,-y,z
y,-x,1/2+z
1/2+x,1/2-y,-z
1/2-x,1/2+y,-z
1/2+y,1/2+x,1/2-z
1/2-y,1/2-x,1/2-z
-x,-y,-z
y,-x,1/2-z
x,y,-z
-y,x,1/2-z
1/2-x,1/2+y,z
1/2+x,1/2-y,z
1/2-y,1/2-x,1/2+z
1/2+y,1/2+x,1/2+z
loop_
_atom_site_type_symbol
_atom_site_label
_atom_site_fract_x
_atom_site_fract_y
_atom_site_fract_z
Si Si1 0.659512 0.214745 0.670986
Si Si2 0.889609 0.456205 0.364835
Si Si3 0.774395 0.975493 0.587286
Si Si4 0.100550 0.116057 0.333764
Si Si5 0.352001 0.705402 0.087410
Si Si6 0.560307 0.667363 0.315489
Si Si7 0.501907 0.836078 0.291601
Si Si8 0.000000 0.500000 0.000000
O O1 0.696634 0.196634 0.750000
O O2 0.639283 0.302121 0.665861
O O3 0.719626 0.193369 0.609135
O O4 0.579521 0.170905 0.669774
O O5 0.803362 0.436633 0.386687
O O6 0.876318 0.502815 0.288522
O O7 0.939615 0.384344 0.340224
O O8 0.933701 0.493609 0.433603
O O9 0.772107 0.977162 0.500000
O O10 0.850799 0.936490 0.613577
O O11 0.776947 0.062371 0.613861
O O12 0.113471 0.084464 0.251644
O O13 0.012955 0.128792 0.352325
O O14 0.323722 0.631224 0.130301
O O15 0.351003 0.692627 0.000000
O O16 0.533783 0.749835 0.285107
#
# Coordination Sequence:
#
# PCOD9568987 Si02
#       8
#    16  16  16  16  16  16  16   4
#     4  11  23  42  68 100 131 178 230 283 348 420
#     4  11  24  43  67 101 138 186 227 287 347 418
#     4  11  24  44  66  97 137 180 231 284 349 425
#     4  11  24  41  72  99 135 175 234 294 345 417
#     4  11  26  44  68  98 141 182 226 290 355 428
#     4  11  23  45  67 106 131 179 235 295 353 410
#     4  10  25  42  70  99 137 179 239 290 341 422
#     4  12  28  42  64 104 144 196 224 282 352 428
#
# _framework density 20.544364000000002
#
# number of rings (size 3 to 8) (size 9 to 14) (size 15 to 20)
#    0.000    1.103    3.448    1.655    5.793    3.586 
#    1.241    2.759    0.000    0.000    0.000    0.000 
#    0.000    0.000    0.000    0.000    0.000    0.000 
#
# Total GULP energy -647314.445182 kJ/mol
# GULP energy per Si atom -5580.296941 kJ/mol
# Density = 2.049760 g / cm^3
# Si number density = 20.544364 Si / 1000 Ang^3
#
#
#
# Elastic Constant Matrix: (Units=GPa)
#
#
# Indices 1 2 3 4 5 6 
#
# 1 90.6957 33.5598 27.3830 0.0000 0.0000 0.0000
# 2 33.5598 90.6957 27.3830 0.0000 0.0000 0.0000
# 3 27.3830 27.3830 62.8779 0.0000 0.0000 0.0000
# 4 0.0000 0.0000 0.0000 28.3494 0.0000 0.0000
# 5 0.0000 0.0000 0.0000 0.0000 28.3494 0.0000
# 6 0.0000 0.0000 0.0000 0.0000 0.0000 9.3849
#
#
#
# Elastic Compliance Matrix: (Units=1/GPa)
#
#
# Indices 1 2 3 4 5 6 
#
# 1 0.013731 -0.003771 -0.004337 0.000000 0.000000 0.000000
# 2 -0.003771 0.013731 -0.004337 0.000000 0.000000 0.000000
# 3 -0.004337 -0.004337 0.019682 0.000000 0.000000 0.000000
# 4 0.000000 0.000000 0.000000 0.035274 0.000000 0.000000
# 5 0.000000 0.000000 0.000000 0.000000 0.035274 0.000000
# 6 0.000000 0.000000 0.000000 0.000000 0.000000 0.106554
#
#
# Mechanical properties :
#
#
# Convention : Reuss Voigt Hill
#
# Bulk Modulus (GPa) = 44.94091 46.76900 45.85496
# Shear Modulus (GPa) = 19.48898 23.61296 21.55097
#
# Velocity S-wave (km/s) = 3.08332 3.39391 3.24234
# Velocity P-wave (km/s) = 5.88204 6.17838 6.03203
#
# Compressibility (1/GPa) = 0.02225144
#
# Stress axis : x y z
#
# Youngs Moduli (GPa) = 72.82857 72.82857 50.80871
#
# Poissons Ratio (x) = 0.27465 0.22038
# Poissons Ratio (y) = 0.27465 0.22038
# Poissons Ratio (z) = 0.31589 0.31589
#
# Static dielectric constant tensor:
#      x y z
#    x 1.745100 0.000000 0.000000 
#    y 0.000000 1.745100 0.000000 
#    z 0.000000 0.000000 1.727350 
# 
# From -- ./inp_files/4590.got.cif
#   From: 2010.05.17/outbox.cif.g08.bks.cpg/sg135_3_cif.got.tgz:4590.got - 2010.05.20 12:50:20.
