data_PCOD9568183
_publ_section_title
;
Structure prediction by ZEFSAII (Michael W. Deem and Ramdas Pophale) SiO2 
 PCOD9568183
Probable space group: P 42/N N M
;
_chemical_formula_sum "Si O2"
_cell_formula_units_Z 96
_cell_length_a 23.403018
_cell_length_b 23.403018
_cell_length_c 9.972818
_cell_angle_alpha 90.000000
_cell_angle_beta 90.000000
_cell_angle_gamma 90.000000
_cell_volume 5462.124900
_symmetry_space_group_name_H-M "P 42/N N M"
_symmetry_group_IT_number 134
_space_group.IT_coordinate_system_code '2'
_symmetry_cell_setting 'tetragonal'
loop_
_space_group_symop_operation_xyz
x,y,z
1/2-y,x,1/2+z
1/2-x,1/2-y,z
y,1/2-x,1/2+z
x,1/2-y,1/2-z
1/2-x,y,1/2-z
y,x,-z
1/2-y,1/2-x,-z
-x,-y,-z
1/2+y,-x,1/2-z
1/2+x,1/2+y,-z
-y,1/2+x,1/2-z
-x,1/2+y,1/2+z
1/2+x,-y,1/2+z
-y,-x,z
1/2+y,1/2+x,z
loop_
_atom_site_type_symbol
_atom_site_label
_atom_site_fract_x
_atom_site_fract_y
_atom_site_fract_z
Si Si1 0.165530 0.429544 0.000744
Si Si2 0.020016 0.316443 0.277379
Si Si3 0.570796 0.166795 0.499951
Si Si4 0.797351 0.888346 0.000807
Si Si5 0.683383 0.979574 0.721449
Si Si6 0.343673 0.746741 0.590873
O O1 0.228996 0.399964 0.001078
O O2 0.157589 0.466912 0.134154
O O3 0.120445 0.379556 0.000000
O O4 0.158460 0.467475 0.867794
O O5 0.006958 0.250000 0.250000
O O6 0.077425 0.318395 0.367579
O O7 0.969558 0.340049 0.369820
O O8 0.619382 0.119382 0.499471
O O9 0.531429 0.161904 0.630628
O O10 0.601952 0.228878 0.488366
O O11 0.820099 0.922979 0.871380
O O12 0.825250 0.825250 0.000000
O O13 0.750000 0.990352 0.750000
O O14 0.356628 0.750000 0.750000
O O15 0.314701 0.685300 0.560368
O O16 0.293243 0.793243 0.569206
#
# Coordination Sequence:
#
# PCOD9568183 Si02
#       6
#    16  16  16  16  16  16
#     4  10  19  32  53  77 102 135 167 205 257 305
#     4   9  18  32  51  74 101 134 173 206 246 308
#     4  10  19  33  54  74  97 135 180 219 249 293
#     4   9  17  31  52  77 104 132 161 199 247 307
#     4   9  19  34  50  71 104 138 166 199 253 315
#     4   8  14  25  44  74 106 128 153 200 259 306
#
# _framework density 17.575578
#
# number of rings (size 3 to 8) (size 9 to 14) (size 15 to 20)
#    0.000    2.833    0.000    3.000    0.000    0.333 
#    0.000    1.667    0.000   25.000    0.000    0.000 
#    0.000    5.333    0.000    0.000    0.000    0.000 
#
# Total GULP energy -534547.245343 kJ/mol
# GULP energy per Si atom -5568.200472 kJ/mol
# Density = 1.753557 g / cm^3
# Si number density = 17.575578 Si / 1000 Ang^3
#
#
#
# Elastic Constant Matrix: (Units=GPa)
#
#
# Indices 1 2 3 4 5 6 
#
# 1 65.1418 46.1782 45.1050 0.0000 0.0000 0.0000
# 2 46.1782 65.1449 45.1071 0.0000 0.0000 0.0000
# 3 45.1050 45.1071 150.6023 0.0000 0.0000 0.0000
# 4 0.0000 0.0000 0.0000 12.0163 0.0000 0.0000
# 5 0.0000 0.0000 0.0000 0.0000 12.0138 0.0000
# 6 0.0000 0.0000 0.0000 0.0000 0.0000 18.0828
#
#
#
# Elastic Compliance Matrix: (Units=1/GPa)
#
#
# Indices 1 2 3 4 5 6 
#
# 1 0.032296 -0.020433 -0.003553 0.000000 0.000000 0.000000
# 2 -0.020433 0.032295 -0.003553 0.000000 0.000000 0.000000
# 3 -0.003553 -0.003553 0.008768 0.000000 0.000000 0.000000
# 4 0.000000 0.000000 0.000000 0.083220 0.000000 0.000000
# 5 0.000000 0.000000 0.000000 0.000000 0.083237 0.000000
# 6 0.000000 0.000000 0.000000 0.000000 0.000000 0.055301
#
#
# Mechanical properties :
#
#
# Convention : Reuss Voigt Hill
#
# Bulk Modulus (GPa) = 54.70084 61.51885 58.10985
# Shear Modulus (GPa) = 14.03358 18.05583 16.04471
#
# Velocity S-wave (km/s) = 2.82879 3.20867 3.02470
# Velocity P-wave (km/s) = 6.46994 6.98612 6.73298
#
# Compressibility (1/GPa) = 0.01828125
#
# Stress axis : x y z
#
# Youngs Moduli (GPa) = 30.96380 30.96489 114.04958
#
# Poissons Ratio (x) = 0.63271 0.40516
# Poissons Ratio (y) = 0.63269 0.40521
# Poissons Ratio (z) = 0.11000 0.11002
#
# Static dielectric constant tensor:
#      x y z
#    x 1.606350 0.000000 0.000000 
#    y 0.000000 1.606310 0.000000 
#    z 0.000000 0.000000 1.611100 
# 
# From -- ./inp_files/3180.got.cif
#   From: 2010.05.17/outbox.cif.g08.bks.cpg/sg134_2_cif.got.tgz:3180.got - 2010.05.20 12:42:49.
