data_PCOD9568542
_publ_section_title
;
Structure prediction by ZEFSAII (Michael W. Deem and Ramdas Pophale) SiO2 
 PCOD9568542
Probable space group: P 42/N N M
;
_chemical_formula_sum "Si O2"
_cell_formula_units_Z 52
_cell_length_a 15.463429
_cell_length_b 15.463429
_cell_length_c 11.295755
_cell_angle_alpha 90.000000
_cell_angle_beta 90.000000
_cell_angle_gamma 90.000000
_cell_volume 2701.014237
_symmetry_space_group_name_H-M "P 42/N N M"
_symmetry_group_IT_number 134
_space_group.IT_coordinate_system_code '2'
_symmetry_cell_setting 'tetragonal'
loop_
_space_group_symop_operation_xyz
x,y,z
1/2-y,x,1/2+z
1/2-x,1/2-y,z
y,1/2-x,1/2+z
x,1/2-y,1/2-z
1/2-x,y,1/2-z
y,x,-z
1/2-y,1/2-x,-z
-x,-y,-z
1/2+y,-x,1/2-z
1/2+x,1/2+y,-z
-y,1/2+x,1/2-z
-x,1/2+y,1/2+z
1/2+x,-y,1/2+z
-y,-x,z
1/2+y,1/2+x,z
loop_
_atom_site_type_symbol
_atom_site_label
_atom_site_fract_x
_atom_site_fract_y
_atom_site_fract_z
Si Si1 0.399810 0.600191 0.482446
Si Si2 0.250000 0.250000 0.750000
Si Si3 0.368330 0.398534 0.137294
Si Si4 0.488713 0.511288 0.703945
Si Si5 0.080301 0.781119 0.122241
O O1 0.436783 0.563218 0.603921
O O2 0.447804 0.552196 0.372007
O O3 0.415417 0.701723 0.467113
O O4 0.185663 0.314309 0.678264
O O5 0.451405 0.424950 0.217349
O O6 0.308103 0.482405 0.143068
O O7 0.391488 0.391488 0.000000
O O8 0.113730 0.750000 0.250000
O O9 0.137733 0.862268 0.083073
#
# Coordination Sequence:
#
# PCOD9568542 Si02
#       5
#     8   4  16   8  16
#     4  11  23  38  68 101 136 174 226 287 341 406
#     4  12  26  44  68 106 138 172 248 300 354 428
#     4  12  25  44  67  97 135 184 227 292 355 426
#     4  11  23  44  66  95 142 184 227 281 358 428
#     4  12  21  40  67 101 131 173 233 288 342 413
#
# _framework density 19.252026000000001
#
# number of rings (size 3 to 8) (size 9 to 14) (size 15 to 20)
#    0.000    0.308    7.692    1.385    4.308    0.000 
#    0.000    0.000    0.000    0.000    4.000    0.000 
#    0.000    0.000    0.000    0.000    0.000    0.000 
#
# Total GULP energy -290440.345592 kJ/mol
# GULP energy per Si atom -5585.391261 kJ/mol
# Density = 1.920821 g / cm^3
# Si number density = 19.252026 Si / 1000 Ang^3
#
#
#
# Elastic Constant Matrix: (Units=GPa)
#
#
# Indices 1 2 3 4 5 6 
#
# 1 176.9543 35.7662 63.2861 0.0000 0.0000 0.0000
# 2 35.7662 176.9543 63.2861 0.0000 0.0000 0.0000
# 3 63.2861 63.2861 135.8720 0.0000 0.0000 0.0000
# 4 0.0000 0.0000 0.0000 41.0988 0.0000 0.0000
# 5 0.0000 0.0000 0.0000 0.0000 41.0988 0.0000
# 6 0.0000 0.0000 0.0000 0.0000 0.0000 48.3340
#
#
#
# Elastic Compliance Matrix: (Units=1/GPa)
#
#
# Indices 1 2 3 4 5 6 
#
# 1 0.006793 -0.000290 -0.003029 0.000000 0.000000 0.000000
# 2 -0.000290 0.006793 -0.003029 0.000000 0.000000 0.000000
# 3 -0.003029 -0.003029 0.010182 0.000000 0.000000 0.000000
# 4 0.000000 0.000000 0.000000 0.024332 0.000000 0.000000
# 5 0.000000 0.000000 0.000000 0.000000 0.024332 0.000000
# 6 0.000000 0.000000 0.000000 0.000000 0.000000 0.020689
#
#
# Mechanical properties :
#
#
# Convention : Reuss Voigt Hill
#
# Bulk Modulus (GPa) = 90.31858 90.49528 90.40693
# Shear Modulus (GPa) = 45.65921 47.93580 46.79751
#
# Velocity S-wave (km/s) = 4.87525 4.99531 4.93565
# Velocity P-wave (km/s) = 8.87166 8.96541 8.91866
#
# Compressibility (1/GPa) = 0.01107192
#
# Stress axis : x y z
#
# Youngs Moduli (GPa) = 147.20891 147.20891 98.21569
#
# Poissons Ratio (x) = 0.04264 0.29751
# Poissons Ratio (y) = 0.04264 0.29751
# Poissons Ratio (z) = 0.44592 0.44592
#
# Static dielectric constant tensor:
#      x y z
#    x 1.745500 0.000000 0.000000 
#    y 0.000000 1.745500 0.000000 
#    z 0.000000 0.000000 1.750060 
# 
# From -- ./inp_files/4377.got.cif
#   From: 2010.05.17/outbox.cif.g08.bks.cpg/sg134_3_cif.got.tgz:4377.got - 2010.05.20 12:42:49.
