data_PCOD9568484
_publ_section_title
;
Structure prediction by ZEFSAII (Michael W. Deem and Ramdas Pophale) SiO2 
 PCOD9568484
Probable space group: P 42/N N M
;
_chemical_formula_sum "Si O2"
_cell_formula_units_Z 96
_cell_length_a 15.446210
_cell_length_b 15.446210
_cell_length_c 21.800248
_cell_angle_alpha 90.000000
_cell_angle_beta 90.000000
_cell_angle_gamma 90.000000
_cell_volume 5201.220963
_symmetry_space_group_name_H-M "P 42/N N M"
_symmetry_group_IT_number 134
_space_group.IT_coordinate_system_code '2'
_symmetry_cell_setting 'tetragonal'
loop_
_space_group_symop_operation_xyz
x,y,z
1/2-y,x,1/2+z
1/2-x,1/2-y,z
y,1/2-x,1/2+z
x,1/2-y,1/2-z
1/2-x,y,1/2-z
y,x,-z
1/2-y,1/2-x,-z
-x,-y,-z
1/2+y,-x,1/2-z
1/2+x,1/2+y,-z
-y,1/2+x,1/2-z
-x,1/2+y,1/2+z
1/2+x,-y,1/2+z
-y,-x,z
1/2+y,1/2+x,z
loop_
_atom_site_type_symbol
_atom_site_label
_atom_site_fract_x
_atom_site_fract_y
_atom_site_fract_z
Si Si1 0.840158 0.719681 0.932649
Si Si2 0.451286 0.951286 0.445219
Si Si3 0.931358 0.933985 0.359674
Si Si4 0.741431 0.486767 0.676779
Si Si5 0.510054 0.151451 0.264111
Si Si6 0.676548 0.323453 0.895708
Si Si7 0.886511 0.879777 0.126597
O O1 0.750000 0.750000 0.900550
O O2 0.894831 0.644810 0.901108
O O3 0.885723 0.812166 0.925579
O O4 0.813654 0.686347 0.000000
O O5 0.376361 0.876361 0.449735
O O6 0.527306 0.912398 0.404888
O O7 0.500000 0.000000 0.500000
O O8 0.996918 0.856881 0.343142
O O9 0.888937 0.967149 0.296700
O O10 0.986421 0.013580 0.387217
O O11 0.750000 0.477928 0.750000
O O12 0.778996 0.400588 0.644134
O O13 0.790931 0.575271 0.655684
O O14 0.533806 0.250000 0.250000
O O15 0.592277 0.092277 0.280267
O O16 0.440116 0.145510 0.318247
O O17 0.750000 0.250000 0.911069
#
# Coordination Sequence:
#
# PCOD9568484 Si02
#       7
#    16   8  16  16  16   8  16
#     4  11  24  39  61  88 119 160 208 259 310 372
#     4  10  24  40  66  90 118 170 218 260 304 368
#     4  11  23  37  59  89 122 161 201 250 318 379
#     4  11  22  34  56  87 126 163 198 246 313 383
#     4  11  22  38  63  92 124 158 203 260 320 383
#     4  10  24  38  56  88 130 170 210 254 314 380
#     4  11  21  39  61  92 121 156 210 261 307 367
#
# _framework density 18.457204999999998
#
# number of rings (size 3 to 8) (size 9 to 14) (size 15 to 20)
#    0.000    1.167    5.833    0.500    4.667    0.500 
#    0.000    2.500    0.000    2.000    0.000    0.000 
#    0.000    0.000    0.000    0.000    0.000    0.000 
#
# Total GULP energy -534630.873517 kJ/mol
# GULP energy per Si atom -5569.071599 kJ/mol
# Density = 1.841520 g / cm^3
# Si number density = 18.457205 Si / 1000 Ang^3
#
#
#
# Elastic Constant Matrix: (Units=GPa)
#
#
# Indices 1 2 3 4 5 6 
#
# 1 110.7115 52.0102 27.6271 0.0000 0.0000 0.0000
# 2 52.0102 110.7114 27.6269 0.0000 0.0000 0.0000
# 3 27.6271 27.6269 59.5160 0.0000 0.0000 0.0000
# 4 0.0000 0.0000 0.0000 30.8785 0.0000 0.0000
# 5 0.0000 0.0000 0.0000 0.0000 30.8783 0.0000
# 6 0.0000 0.0000 0.0000 0.0000 0.0000 21.6542
#
#
#
# Elastic Compliance Matrix: (Units=1/GPa)
#
#
# Indices 1 2 3 4 5 6 
#
# 1 0.012165 -0.004870 -0.003386 0.000000 0.000000 0.000000
# 2 -0.004870 0.012165 -0.003386 0.000000 0.000000 0.000000
# 3 -0.003386 -0.003386 0.019946 0.000000 0.000000 0.000000
# 4 0.000000 0.000000 0.000000 0.032385 0.000000 0.000000
# 5 0.000000 0.000000 0.000000 0.000000 0.032385 0.000000
# 6 0.000000 0.000000 0.000000 0.000000 0.000000 0.046180
#
#
# Mechanical properties :
#
#
# Convention : Reuss Voigt Hill
#
# Bulk Modulus (GPa) = 47.63941 55.05193 51.34567
# Shear Modulus (GPa) = 26.95265 28.26051 27.60658
#
# Velocity S-wave (km/s) = 3.82550 3.91722 3.87163
# Velocity P-wave (km/s) = 6.73642 7.09585 6.91847
#
# Compressibility (1/GPa) = 0.02099102
#
# Stress axis : x y z
#
# Youngs Moduli (GPa) = 82.20030 82.20038 50.13498
#
# Poissons Ratio (x) = 0.40032 0.16978
# Poissons Ratio (y) = 0.40032 0.16978
# Poissons Ratio (z) = 0.27837 0.27837
#
# Static dielectric constant tensor:
#      x y z
#    x 1.710790 0.000000 0.000000 
#    y 0.000000 1.710790 0.000000 
#    z 0.000000 0.000000 1.639150 
# 
# From -- ./inp_files/9175.got.cif
#   From: 2010.05.17/outbox.cif.g08.bks.cpg/sg134_5_cif.got.tgz:9175.got - 2010.05.20 12:42:49.
