data_PCOD9568308
_publ_section_title
;
Structure prediction by ZEFSAII (Michael W. Deem and Ramdas Pophale) SiO2 
 PCOD9568308
Probable space group: P 42/N N M
;
_chemical_formula_sum "Si O2"
_cell_formula_units_Z 88
_cell_length_a 11.718703
_cell_length_b 11.718703
_cell_length_c 30.461029
_cell_angle_alpha 90.000000
_cell_angle_beta 90.000000
_cell_angle_gamma 90.000000
_cell_volume 4183.152191
_symmetry_space_group_name_H-M "P 42/N N M"
_symmetry_group_IT_number 134
_space_group.IT_coordinate_system_code '2'
_symmetry_cell_setting 'tetragonal'
loop_
_space_group_symop_operation_xyz
x,y,z
1/2-y,x,1/2+z
1/2-x,1/2-y,z
y,1/2-x,1/2+z
x,1/2-y,1/2-z
1/2-x,y,1/2-z
y,x,-z
1/2-y,1/2-x,-z
-x,-y,-z
1/2+y,-x,1/2-z
1/2+x,1/2+y,-z
-y,1/2+x,1/2-z
-x,1/2+y,1/2+z
1/2+x,-y,1/2+z
-y,-x,z
1/2+y,1/2+x,z
loop_
_atom_site_type_symbol
_atom_site_label
_atom_site_fract_x
_atom_site_fract_y
_atom_site_fract_z
Si Si1 0.431479 0.387483 0.252350
Si Si2 0.291327 0.973477 0.405516
Si Si3 0.063640 0.743453 0.993454
Si Si4 0.911948 0.911300 0.355928
Si Si5 0.877081 0.787684 0.921346
Si Si6 0.250000 0.562316 0.250000
O O1 0.426206 0.250000 0.250000
O O2 0.554278 0.445723 0.242020
O O3 0.407128 0.407933 0.303833
O O4 0.336712 0.467707 0.227898
O O5 0.358778 0.858778 0.394270
O O6 0.242588 0.963790 0.454931
O O7 0.190975 0.009336 0.373409
O O8 0.376721 0.080562 0.408067
O O9 0.153673 0.846328 0.987444
O O10 0.126951 0.626951 0.981628
O O11 0.958548 0.764634 0.961985
O O12 0.790459 0.903879 0.379358
O O13 0.971402 0.028599 0.369428
O O14 0.750000 0.750000 0.934546
O O15 0.153793 0.653793 0.231413
#
# Coordination Sequence:
#
# PCOD9568308 Si02
#       6
#    16  16  16  16  16   8
#     4  10  22  41  65  90 119 157 198 245 302 366
#     4  10  21  36  55  82 116 153 193 237 288 347
#     4  10  20  35  55  77 107 152 200 242 286 337
#     4  10  22  39  58  83 113 145 187 236 286 345
#     4  10  21  35  53  80 113 151 193 241 291 339
#     4   9  19  36  60  92 123 151 188 234 290 359
#
# _framework density 21.036766
#
# number of rings (size 3 to 8) (size 9 to 14) (size 15 to 20)
#    0.000    2.091    0.000    2.455    0.000   12.909 
#    0.000   10.000    0.000    2.182    0.000    0.000 
#    0.000    0.000    0.000    0.000    0.000    0.000 
#
# Total GULP energy -490753.420050 kJ/mol
# GULP energy per Si atom -5576.743410 kJ/mol
# Density = 2.098889 g / cm^3
# Si number density = 21.036766 Si / 1000 Ang^3
#
#
#
# Elastic Constant Matrix: (Units=GPa)
#
#
# Indices 1 2 3 4 5 6 
#
# 1 79.6606 57.4996 15.6838 0.0000 0.0000 0.0000
# 2 57.4996 79.6606 15.6838 0.0000 0.0000 0.0000
# 3 15.6838 15.6838 43.3759 0.0000 0.0000 0.0000
# 4 0.0000 0.0000 0.0000 158.7241 0.0000 0.0000
# 5 0.0000 0.0000 0.0000 0.0000 158.7241 0.0000
# 6 0.0000 0.0000 0.0000 0.0000 0.0000 27.5141
#
#
#
# Elastic Compliance Matrix: (Units=1/GPa)
#
#
# Indices 1 2 3 4 5 6 
#
# 1 0.026536 -0.018588 -0.002874 0.000000 0.000000 0.000000
# 2 -0.018588 0.026536 -0.002874 0.000000 0.000000 0.000000
# 3 -0.002874 -0.002874 0.025132 0.000000 0.000000 0.000000
# 4 0.000000 0.000000 0.000000 0.006300 0.000000 0.000000
# 5 0.000000 0.000000 0.000000 0.000000 0.006300 0.000000
# 6 0.000000 0.000000 0.000000 0.000000 0.000000 0.036345
#
#
# Mechanical properties :
#
#
# Convention : Reuss Voigt Hill
#
# Bulk Modulus (GPa) = 33.86023 42.27016 38.06519
# Shear Modulus (GPa) = 26.93002 76.58112 51.75557
#
# Velocity S-wave (km/s) = 3.58179 6.04007 4.96547
# Velocity P-wave (km/s) = 5.76509 8.29340 7.14201
#
# Compressibility (1/GPa) = 0.02953317
#
# Stress axis : x y z
#
# Youngs Moduli (GPa) = 37.68440 37.68440 39.78918
#
# Poissons Ratio (x) = 0.70049 0.11435
# Poissons Ratio (y) = 0.70049 0.11435
# Poissons Ratio (z) = 0.10830 0.10830
#
# Static dielectric constant tensor:
#      x y z
#    x 1.779900 0.000000 0.000000 
#    y 0.000000 1.779900 0.000000 
#    z 0.000000 0.000000 1.745880 
# 
# From -- ./inp_files/11408.got.cif
#   From: 2010.05.17/outbox.cif.g08.bks.cpg/sg134_6_cif.got.tgz:11408.got - 2010.05.20 12:42:49.
