data_PCOD9568111
_publ_section_title
;
Structure prediction by ZEFSAII (Michael W. Deem and Ramdas Pophale) SiO2 
 PCOD9568111
Probable space group: P 42/N N M
;
_chemical_formula_sum "Si O2"
_cell_formula_units_Z 80
_cell_length_a 13.822257
_cell_length_b 13.822257
_cell_length_c 25.875706
_cell_angle_alpha 90.000000
_cell_angle_beta 90.000000
_cell_angle_gamma 90.000000
_cell_volume 4943.677539
_symmetry_space_group_name_H-M "P 42/N N M"
_symmetry_group_IT_number 134
_space_group.IT_coordinate_system_code '2'
_symmetry_cell_setting 'tetragonal'
loop_
_space_group_symop_operation_xyz
x,y,z
1/2-y,x,1/2+z
1/2-x,1/2-y,z
y,1/2-x,1/2+z
x,1/2-y,1/2-z
1/2-x,y,1/2-z
y,x,-z
1/2-y,1/2-x,-z
-x,-y,-z
1/2+y,-x,1/2-z
1/2+x,1/2+y,-z
-y,1/2+x,1/2-z
-x,1/2+y,1/2+z
1/2+x,-y,1/2+z
-y,-x,z
1/2+y,1/2+x,z
loop_
_atom_site_type_symbol
_atom_site_label
_atom_site_fract_x
_atom_site_fract_y
_atom_site_fract_z
Si Si1 0.632657 0.860273 0.750224
Si Si2 0.990990 0.854529 0.347751
Si Si3 0.042876 0.110075 0.443412
Si Si4 0.303993 0.352456 0.941187
Si Si5 0.032265 0.128155 0.855108
O O1 0.596891 0.750000 0.750000
O O2 0.750000 0.855929 0.750000
O O3 0.610585 0.920177 0.801788
O O4 0.600650 0.914932 0.698551
O O5 0.943889 0.891434 0.400970
O O6 0.000415 0.739386 0.348058
O O7 0.092826 0.907175 0.340982
O O8 0.080956 0.080956 0.500000
O O9 0.063439 0.223495 0.437638
O O10 0.935590 0.064411 0.437969
O O11 0.250000 0.250000 0.928537
O O12 0.389627 0.370761 0.901163
O O13 0.340939 0.340939 0.000000
O O14 0.944372 0.055629 0.865207
#
# Coordination Sequence:
#
# PCOD9568111 Si02
#       5
#    16  16  16  16  16
#     4   9  18  31  51  73  97 132 173 221 260 303
#     4  10  19  32  49  72 106 142 176 213 267 323
#     4  10  18  30  52  80 102 128 172 221 264 311
#     4  11  19  34  55  77 105 140 175 221 271 316
#     4  11  22  33  50  77 108 139 177 218 262 319
#
# _framework density 16.182283999999999
#
# number of rings (size 3 to 8) (size 9 to 14) (size 15 to 20)
#    0.000    1.800    4.000    1.800    2.800    0.800 
#    0.000    0.000    0.000    4.200    0.000    0.000 
#    0.000    5.200    0.000    0.000    0.000    0.000 
#
# Total GULP energy -446080.108385 kJ/mol
# GULP energy per Si atom -5576.001355 kJ/mol
# Density = 1.614545 g / cm^3
# Si number density = 16.182284 Si / 1000 Ang^3
#
#
#
# Elastic Constant Matrix: (Units=GPa)
#
#
# Indices 1 2 3 4 5 6 
#
# 1 100.8615 72.7529 54.9389 0.0000 0.0000 0.0000
# 2 72.7529 100.8615 54.9389 0.0000 0.0000 0.0000
# 3 54.9389 54.9389 123.1768 0.0000 0.0000 0.0000
# 4 0.0000 0.0000 0.0000 5.7075 0.0000 0.0000
# 5 0.0000 0.0000 0.0000 0.0000 5.7075 0.0000
# 6 0.0000 0.0000 0.0000 0.0000 0.0000 23.7503
#
#
#
# Elastic Compliance Matrix: (Units=1/GPa)
#
#
# Indices 1 2 3 4 5 6 
#
# 1 0.021801 -0.013776 -0.003579 0.000000 0.000000 0.000000
# 2 -0.013776 0.021801 -0.003579 0.000000 0.000000 0.000000
# 3 -0.003579 -0.003579 0.011311 0.000000 0.000000 0.000000
# 4 0.000000 0.000000 0.000000 0.175208 0.000000 0.000000
# 5 0.000000 0.000000 0.000000 0.000000 0.175208 0.000000
# 6 0.000000 0.000000 0.000000 0.000000 0.000000 0.042105
#
#
# Mechanical properties :
#
#
# Convention : Reuss Voigt Hill
#
# Bulk Modulus (GPa) = 76.66208 76.68457 76.67333
# Shear Modulus (GPa) = 10.12862 16.51766 13.32314
#
# Velocity S-wave (km/s) = 2.50453 3.19834 2.87246
# Velocity P-wave (km/s) = 7.47265 7.81857 7.64757
#
# Compressibility (1/GPa) = 0.01304426
#
# Stress axis : x y z
#
# Youngs Moduli (GPa) = 45.86989 45.86989 88.40685
#
# Poissons Ratio (x) = 0.63188 0.31644
# Poissons Ratio (y) = 0.63188 0.31644
# Poissons Ratio (z) = 0.16419 0.16419
#
# Static dielectric constant tensor:
#      x y z
#    x 1.539040 0.000000 0.000000 
#    y 0.000000 1.539040 0.000000 
#    z 0.000000 0.000000 1.547330 
# 
# From -- ./inp_files/9909.got.cif
#   From: 2010.05.17/outbox.cif.g08.bks.cpg/sg134_5_cif.got.tgz:9909.got - 2010.05.20 12:42:49.
