data_PCOD9568037
_publ_section_title
;
Structure prediction by ZEFSAII (Michael W. Deem and Ramdas Pophale) SiO2 
 PCOD9568037
Probable space group: P 42/N B C
;
_chemical_formula_sum "Si O2"
_cell_formula_units_Z 52
_cell_length_a 14.774994
_cell_length_b 14.774994
_cell_length_c 9.732105
_cell_angle_alpha 90.000000
_cell_angle_beta 90.000000
_cell_angle_gamma 90.000000
_cell_volume 2124.522879
_symmetry_space_group_name_H-M "P 42/N B C"
_symmetry_group_IT_number 133
_space_group.IT_coordinate_system_code '2'
_symmetry_cell_setting 'tetragonal'
loop_
_space_group_symop_operation_xyz
x,y,z
1/2-y,x,1/2+z
1/2-x,1/2-y,z
y,1/2-x,1/2+z
x,1/2-y,-z
1/2-x,y,-z
y,x,1/2-z
1/2-y,1/2-x,1/2-z
-x,-y,-z
1/2+y,-x,1/2-z
1/2+x,1/2+y,-z
-y,1/2+x,1/2-z
-x,1/2+y,z
1/2+x,-y,z
-y,-x,1/2+z
1/2+y,1/2+x,1/2+z
loop_
_atom_site_type_symbol
_atom_site_label
_atom_site_fract_x
_atom_site_fract_y
_atom_site_fract_z
Si Si1 0.322214 0.073381 0.162209
Si Si2 0.250000 0.750000 0.250000
Si Si3 0.676137 0.072819 0.608388
Si Si4 0.113037 0.469810 0.888933
O O1 0.336772 0.163229 0.250000
O O2 0.217644 0.054857 0.135683
O O3 0.343322 0.988714 0.259294
O O4 0.394059 0.079891 0.036458
O O5 0.336547 0.726109 0.159448
O O6 0.750000 0.033098 0.500000
O O7 0.574555 0.101346 0.566747
O O8 0.059663 0.440338 0.750000
#
# Coordination Sequence:
#
# PCOD9568037 Si02
#       4
#    16   4  16  16
#     4  11  27  47  72 108 149 202 259 325 396 476
#     4  12  22  40  68 110 148 190 244 310 400 478
#     4  12  25  42  75 109 152 198 249 325 407 490
#     4  11  27  49  73 110 151 200 267 325 395 478
#
# _framework density 24.476082999999999
#
# number of rings (size 3 to 8) (size 9 to 14) (size 15 to 20)
#    0.000    0.615    3.077    3.231    8.615    3.077 
#    0.000    3.077    0.000    0.000    0.000    0.000 
#    0.000    0.000    0.000    0.000    0.000    0.000 
#
# Total GULP energy -290033.289357 kJ/mol
# GULP energy per Si atom -5577.563257 kJ/mol
# Density = 2.442037 g / cm^3
# Si number density = 24.476083 Si / 1000 Ang^3
#
#
#
# Elastic Constant Matrix: (Units=GPa)
#
#
# Indices 1 2 3 4 5 6 
#
# 1 90.8284 22.4903 45.7013 0.0000 0.0000 0.0000
# 2 22.4903 90.8269 45.6991 0.0000 0.0000 0.0000
# 3 45.7013 45.6991 156.3399 0.0000 0.0000 0.0000
# 4 0.0000 0.0000 0.0000 28.9788 0.0000 0.0000
# 5 0.0000 0.0000 0.0000 0.0000 28.9788 0.0000
# 6 0.0000 0.0000 0.0000 0.0000 0.0000 37.2219
#
#
#
# Elastic Compliance Matrix: (Units=1/GPa)
#
#
# Indices 1 2 3 4 5 6 
#
# 1 0.013090 -0.001543 -0.003376 0.000000 0.000000 0.000000
# 2 -0.001543 0.013090 -0.003375 0.000000 0.000000 0.000000
# 3 -0.003376 -0.003375 0.008370 0.000000 0.000000 0.000000
# 4 0.000000 0.000000 0.000000 0.034508 0.000000 0.000000
# 5 0.000000 0.000000 0.000000 0.000000 0.034508 0.000000
# 6 0.000000 0.000000 0.000000 0.000000 0.000000 0.026866
#
#
# Mechanical properties :
#
#
# Convention : Reuss Voigt Hill
#
# Bulk Modulus (GPa) = 55.67135 62.86406 59.26771
# Shear Modulus (GPa) = 32.67817 33.97620 33.32718
#
# Velocity S-wave (km/s) = 3.65787 3.72982 3.69402
# Velocity P-wave (km/s) = 6.37453 6.65495 6.51625
#
# Compressibility (1/GPa) = 0.01796256
#
# Stress axis : x y z
#
# Youngs Moduli (GPa) = 76.39266 76.39236 119.47896
#
# Poissons Ratio (x) = 0.11787 0.40330
# Poissons Ratio (y) = 0.11787 0.40328
# Poissons Ratio (z) = 0.25786 0.25785
#
# Static dielectric constant tensor:
#      x y z
#    x 1.995360 0.000000 0.000000 
#    y 0.000000 1.995360 0.000000 
#    z 0.000000 0.000000 1.994870 
# 
# From -- ./inp_files/1215.got.cif
#   From: 2010.05.17/outbox.cif.g08.bks.cpg/sg133_1_cif.got.tgz:1215.got - 2010.05.20 12:37:36.
