data_PCOD9568894
_publ_section_title
;
Structure prediction by ZEFSAII (Michael W. Deem and Ramdas Pophale) SiO2 
 PCOD9568894
Probable space group: P 42/M B C
;
_chemical_formula_sum "Si O2"
_cell_formula_units_Z 96
_cell_length_a 14.825377
_cell_length_b 14.825377
_cell_length_c 19.862722
_cell_angle_alpha 90.000000
_cell_angle_beta 90.000000
_cell_angle_gamma 90.000000
_cell_volume 4365.663485
_symmetry_space_group_name_H-M "P 42/M B C"
_symmetry_group_IT_number 135
_symmetry_cell_setting 'tetragonal'
loop_
_space_group_symop_operation_xyz
x,y,z
-y,x,1/2+z
-x,-y,z
y,-x,1/2+z
1/2+x,1/2-y,-z
1/2-x,1/2+y,-z
1/2+y,1/2+x,1/2-z
1/2-y,1/2-x,1/2-z
-x,-y,-z
y,-x,1/2-z
x,y,-z
-y,x,1/2-z
1/2-x,1/2+y,z
1/2+x,1/2-y,z
1/2-y,1/2-x,1/2+z
1/2+y,1/2+x,1/2+z
loop_
_atom_site_type_symbol
_atom_site_label
_atom_site_fract_x
_atom_site_fract_y
_atom_site_fract_z
Si Si1 0.587473 0.056261 0.670985
Si Si2 0.981556 0.220981 0.803873
Si Si3 0.255037 0.176660 0.075970
Si Si4 0.851258 0.885037 0.575889
Si Si5 0.812079 0.176678 0.281185
Si Si6 0.288323 0.967451 0.922871
O O1 0.575683 0.075683 0.750000
O O2 0.584060 0.147025 0.628141
O O3 0.500000 0.000000 0.648739
O O4 0.680516 0.002368 0.665643
O O5 0.956441 0.154710 0.864774
O O6 0.898448 0.223096 0.752565
O O7 0.071290 0.189668 0.766195
O O8 0.328015 0.257212 0.080602
O O9 0.188707 0.189200 0.138554
O O10 0.294266 0.075523 0.084513
O O11 0.216337 0.181203 0.000000
O O12 0.857657 0.921817 0.500000
O O13 0.931464 0.813295 0.586086
O O14 0.726143 0.226143 0.250000
O O15 0.313596 0.944748 0.000000
#
# Coordination Sequence:
#
# PCOD9568894 Si02
#       6
#    16  16  16  16  16  16
#     4  11  24  38  64 102 135 172 225 289 354 415
#     4  12  27  43  68  99 138 184 228 281 340 413
#     4  10  21  41  71 100 134 180 226 283 347 407
#     4  10  22  42  67  98 135 177 228 281 340 409
#     4  12  27  46  70 101 141 180 232 283 343 407
#     4  10  22  42  69  99 136 179 228 287 345 407
#
# _framework density 21.989785000000001
#
# number of rings (size 3 to 8) (size 9 to 14) (size 15 to 20)
#    0.000    1.167    1.667    3.500    7.000    2.000 
#    0.000    0.000    0.000    3.000    0.000    0.000 
#    0.000    0.000    0.000    0.000    0.000    0.000 
#
# Total GULP energy -537215.538785 kJ/mol
# GULP energy per Si atom -5595.995196 kJ/mol
# Density = 2.193973 g / cm^3
# Si number density = 21.989785 Si / 1000 Ang^3
#
#
#
# Elastic Constant Matrix: (Units=GPa)
#
#
# Indices 1 2 3 4 5 6 
#
# 1 55.6408 18.4162 10.2633 0.0000 0.0000 0.0000
# 2 18.4162 55.6408 10.2633 0.0000 0.0000 0.0000
# 3 10.2633 10.2633 97.3703 0.0000 0.0000 0.0000
# 4 0.0000 0.0000 0.0000 22.1672 0.0000 0.0000
# 5 0.0000 0.0000 0.0000 0.0000 22.1672 0.0000
# 6 0.0000 0.0000 0.0000 0.0000 0.0000 20.1344
#
#
#
# Elastic Compliance Matrix: (Units=1/GPa)
#
#
# Indices 1 2 3 4 5 6 
#
# 1 0.020387 -0.006477 -0.001466 0.000000 0.000000 0.000000
# 2 -0.006477 0.020387 -0.001466 0.000000 0.000000 0.000000
# 3 -0.001466 -0.001466 0.010579 0.000000 0.000000 0.000000
# 4 0.000000 0.000000 0.000000 0.045112 0.000000 0.000000
# 5 0.000000 0.000000 0.000000 0.000000 0.045112 0.000000
# 6 0.000000 0.000000 0.000000 0.000000 0.000000 0.049666
#
#
# Mechanical properties :
#
#
# Convention : Reuss Voigt Hill
#
# Bulk Modulus (GPa) = 30.73746 31.83751 31.28749
# Shear Modulus (GPa) = 22.63407 24.20768 23.42087
#
# Velocity S-wave (km/s) = 3.21175 3.32152 3.26710
# Velocity P-wave (km/s) = 5.26898 5.40553 5.33769
#
# Compressibility (1/GPa) = 0.03253359
#
# Stress axis : x y z
#
# Youngs Moduli (GPa) = 49.05151 49.05151 94.52553
#
# Poissons Ratio (x) = 0.31772 0.13859
# Poissons Ratio (y) = 0.31772 0.13859
# Poissons Ratio (z) = 0.07192 0.07192
#
# Static dielectric constant tensor:
#      x y z
#    x 1.801820 0.000000 0.000000 
#    y 0.000000 1.801820 0.000000 
#    z 0.000000 0.000000 1.799360 
# 
# From -- ./inp_files/5489.got.cif
#   From: 2010.05.17/outbox.cif.g08.bks.cpg/sg135_3_cif.got.tgz:5489.got - 2010.05.20 12:50:20.
