data_PCOD9568892
_publ_section_title
;
Structure prediction by ZEFSAII (Michael W. Deem and Ramdas Pophale) SiO2 
 PCOD9568892
Probable space group: P 42/M B C
;
_chemical_formula_sum "Si O2"
_cell_formula_units_Z 88
_cell_length_a 14.775716
_cell_length_b 14.775716
_cell_length_c 18.728122
_cell_angle_alpha 90.000000
_cell_angle_beta 90.000000
_cell_angle_gamma 90.000000
_cell_volume 4088.756993
_symmetry_space_group_name_H-M "P 42/M B C"
_symmetry_group_IT_number 135
_symmetry_cell_setting 'tetragonal'
loop_
_space_group_symop_operation_xyz
x,y,z
-y,x,1/2+z
-x,-y,z
y,-x,1/2+z
1/2+x,1/2-y,-z
1/2-x,1/2+y,-z
1/2+y,1/2+x,1/2-z
1/2-y,1/2-x,1/2-z
-x,-y,-z
y,-x,1/2-z
x,y,-z
-y,x,1/2-z
1/2-x,1/2+y,z
1/2+x,1/2-y,z
1/2-y,1/2-x,1/2+z
1/2+y,1/2+x,1/2+z
loop_
_atom_site_type_symbol
_atom_site_label
_atom_site_fract_x
_atom_site_fract_y
_atom_site_fract_z
Si Si1 0.435117 0.292154 0.582300
Si Si2 0.531538 0.783385 0.080891
Si Si3 0.757028 0.658933 0.364125
Si Si4 0.370405 0.668280 0.585644
Si Si5 0.908376 0.464460 0.874772
Si Si6 0.111625 0.388376 0.750000
O O1 0.413943 0.316234 0.500000
O O2 0.346411 0.310730 0.628833
O O3 0.525707 0.341872 0.607974
O O4 0.463028 0.186493 0.585224
O O5 0.424029 0.775042 0.082374
O O6 0.579793 0.689407 0.098771
O O7 0.567119 0.859282 0.135500
O O8 0.561293 0.808627 0.000000
O O9 0.819997 0.745194 0.380857
O O10 0.792775 0.614561 0.291129
O O11 0.372233 0.683631 0.500000
O O12 0.896813 0.529843 0.806536
O O13 0.000000 0.500000 0.912631
#
# Coordination Sequence:
#
# PCOD9568892 Si02
#       6
#    16  16  16  16  16   8
#     4  11  23  43  72 102 136 174 225 294 356 407
#     4  11  23  39  69 106 138 172 222 287 360 415
#     4  12  24  44  65  98 135 188 230 275 346 414
#     4  10  21  41  66 101 136 167 219 284 353 414
#     4  12  23  42  68 100 139 175 233 286 350 402
#     4  12  27  46  60  98 137 190 234 278 333 420
#
# _framework density 21.522434000000001
#
# number of rings (size 3 to 8) (size 9 to 14) (size 15 to 20)
#    0.000    0.727    5.455    2.455    0.000    3.636 
#    6.545    2.727    0.000    0.000    0.000    0.000 
#    0.000    0.000    0.000    0.000    0.000    0.000 
#
# Total GULP energy -491331.918448 kJ/mol
# GULP energy per Si atom -5583.317255 kJ/mol
# Density = 2.147345 g / cm^3
# Si number density = 21.522434 Si / 1000 Ang^3
#
#
#
# Elastic Constant Matrix: (Units=GPa)
#
#
# Indices 1 2 3 4 5 6 
#
# 1 102.9928 19.9949 40.4176 0.0000 0.0000 0.0000
# 2 19.9949 102.9930 40.4173 0.0000 0.0000 0.0000
# 3 40.4176 40.4173 57.8355 0.0000 0.0000 0.0000
# 4 0.0000 0.0000 0.0000 24.6245 0.0000 0.0000
# 5 0.0000 0.0000 0.0000 0.0000 24.6248 0.0000
# 6 0.0000 0.0000 0.0000 0.0000 0.0000 38.9039
#
#
#
# Elastic Compliance Matrix: (Units=1/GPa)
#
#
# Indices 1 2 3 4 5 6 
#
# 1 0.013543 0.001495 -0.010509 0.000000 0.000000 0.000000
# 2 0.001495 0.013543 -0.010509 0.000000 0.000000 0.000000
# 3 -0.010509 -0.010509 0.031979 0.000000 0.000000 0.000000
# 4 0.000000 0.000000 0.000000 0.040610 0.000000 0.000000
# 5 0.000000 0.000000 0.000000 0.000000 0.040609 0.000000
# 6 0.000000 0.000000 0.000000 0.000000 0.000000 0.025704
#
#
# Mechanical properties :
#
#
# Convention : Reuss Voigt Hill
#
# Bulk Modulus (GPa) = 49.95415 51.72009 50.83712
# Shear Modulus (GPa) = 23.61731 28.49674 26.05702
#
# Velocity S-wave (km/s) = 3.31620 3.64269 3.48327
# Velocity P-wave (km/s) = 6.15821 6.46338 6.31264
#
# Compressibility (1/GPa) = 0.02001836
#
# Stress axis : x y z
#
# Youngs Moduli (GPa) = 73.83683 73.83750 31.27073
#
# Poissons Ratio (x) = -0.11037 0.32863
# Poissons Ratio (y) = -0.11037 0.32863
# Poissons Ratio (z) = 0.77597 0.77597
#
# Static dielectric constant tensor:
#      x y z
#    x 1.795590 0.000000 0.000000 
#    y 0.000000 1.795590 0.000000 
#    z 0.000000 0.000000 1.806830 
# 
# From -- ./inp_files/5349.got.cif
#   From: 2010.05.17/outbox.cif.g08.bks.cpg/sg135_3_cif.got.tgz:5349.got - 2010.05.20 12:50:20.
