data_PCOD9568652
_publ_section_title
;
Structure prediction by ZEFSAII (Michael W. Deem and Ramdas Pophale) SiO2 
 PCOD9568652
Probable space group: P 42/M B C
;
_chemical_formula_sum "Si O2"
_cell_formula_units_Z 96
_cell_length_a 25.905452
_cell_length_b 25.905452
_cell_length_c 8.853835
_cell_angle_alpha 90.000000
_cell_angle_beta 90.000000
_cell_angle_gamma 90.000000
_cell_volume 5941.741763
_symmetry_space_group_name_H-M "P 42/M B C"
_symmetry_group_IT_number 135
_symmetry_cell_setting 'tetragonal'
loop_
_space_group_symop_operation_xyz
x,y,z
-y,x,1/2+z
-x,-y,z
y,-x,1/2+z
1/2+x,1/2-y,-z
1/2-x,1/2+y,-z
1/2+y,1/2+x,1/2-z
1/2-y,1/2-x,1/2-z
-x,-y,-z
y,-x,1/2-z
x,y,-z
-y,x,1/2-z
1/2-x,1/2+y,z
1/2+x,1/2-y,z
1/2-y,1/2-x,1/2+z
1/2+y,1/2+x,1/2+z
loop_
_atom_site_type_symbol
_atom_site_label
_atom_site_fract_x
_atom_site_fract_y
_atom_site_fract_z
Si Si1 0.893552 0.686549 0.318326
Si Si2 0.502292 0.813376 0.825612
Si Si3 0.111988 0.805620 0.184072
Si Si4 0.889025 0.308749 0.319196
Si Si5 0.306348 0.391551 0.819079
Si Si6 0.188099 0.998261 0.672686
O O1 0.849758 0.650243 0.250000
O O2 0.893301 0.684093 0.500000
O O3 0.885028 0.746538 0.271447
O O4 0.949650 0.670122 0.255631
O O5 0.554681 0.827113 0.738927
O O6 0.500701 0.750712 0.826023
O O7 0.503924 0.830395 0.000000
O O8 0.118671 0.749419 0.256928
O O9 0.156799 0.845015 0.230138
O O10 0.055261 0.827305 0.227621
O O11 0.111763 0.800005 0.000000
O O12 0.845672 0.345672 0.250000
O O13 0.887306 0.308908 0.500000
O O14 0.325952 0.447270 0.763840
O O15 0.306508 0.391788 0.000000
O O16 0.171009 0.992045 0.500000
#
# Coordination Sequence:
#
# PCOD9568652 Si02
#       6
#    16  16  16  16  16  16
#     4  10  19  31  48  72  99 129 162 199 240 286
#     4   9  17  32  51  70  93 124 161 201 238 279
#     4   9  18  33  49  69  97 129 160 197 242 287
#     4  11  21  33  50  73  99 128 160 196 236 284
#     4   9  18  31  48  69  96 126 160 199 241 286
#     4   8  15  28  47  67  90 120 158 198 238 282
#
# _framework density 16.156879
#
# number of rings (size 3 to 8) (size 9 to 14) (size 15 to 20)
#    0.000    2.667    0.000    3.500    0.000    6.000 
#    0.000    1.667    0.000    1.000    0.000    7.000 
#    0.000    0.000    0.000    0.000    0.000    0.000 
#
# Total GULP energy -534832.882839 kJ/mol
# GULP energy per Si atom -5571.175863 kJ/mol
# Density = 1.612011 g / cm^3
# Si number density = 16.156879 Si / 1000 Ang^3
#
#
#
# Elastic Constant Matrix: (Units=GPa)
#
#
# Indices 1 2 3 4 5 6 
#
# 1 108.1195 75.5302 44.6514 0.0000 0.0000 0.0000
# 2 75.5302 108.1172 44.6518 0.0000 0.0000 0.0000
# 3 44.6514 44.6518 67.5918 0.0000 0.0000 0.0000
# 4 0.0000 0.0000 0.0000 23.5681 0.0000 0.0000
# 5 0.0000 0.0000 0.0000 0.0000 23.5683 0.0000
# 6 0.0000 0.0000 0.0000 0.0000 0.0000 -3.2104
#
#
#
# Elastic Compliance Matrix: (Units=1/GPa)
#
#
# Indices 1 2 3 4 5 6 
#
# 1 0.019354 -0.011332 -0.005299 0.000000 0.000000 0.000000
# 2 -0.011332 0.019354 -0.005300 0.000000 0.000000 0.000000
# 3 -0.005299 -0.005300 0.021796 0.000000 0.000000 0.000000
# 4 0.000000 0.000000 0.000000 0.042430 0.000000 0.000000
# 5 0.000000 0.000000 0.000000 0.000000 0.042430 0.000000
# 6 0.000000 0.000000 0.000000 0.000000 0.000000 -0.311486
#
#
# Mechanical properties :
#
#
# Convention : Reuss Voigt Hill
#
# Bulk Modulus (GPa) = 60.08599 68.16613 64.12606
# Shear Modulus (GPa) = -42.84081 16.71818 -13.06132
#
# Velocity S-wave (km/s) = -5.15491 3.22023 -2.84633
# Velocity P-wave (km/s) = 1.35612 7.49054 5.38272
#
# Compressibility (1/GPa) = 0.01664282
#
# Stress axis : x y z
#
# Youngs Moduli (GPa) = 51.66951 51.66766 45.87895
#
# Poissons Ratio (x) = 0.58549 0.24312
# Poissons Ratio (y) = 0.58552 0.24315
# Poissons Ratio (z) = 0.27381 0.27383
#
# Static dielectric constant tensor:
#      x y z
#    x 1.536360 0.000000 0.000000 
#    y 0.000000 1.536360 0.000000 
#    z 0.000000 0.000000 1.548730 
# 
# From -- ./inp_files/1218.got.cif
#   From: 2010.05.17/outbox.cif.g08.bks.cpg/sg135_1_cif.got.tgz:1218.got - 2010.05.20 12:50:20.
