data_PCOD9568633
_publ_section_title
;
Structure prediction by ZEFSAII (Michael W. Deem and Ramdas Pophale) SiO2 
 PCOD9568633
Probable space group: P 42/M B C
;
_chemical_formula_sum "Si O2"
_cell_formula_units_Z 112
_cell_length_a 13.552981
_cell_length_b 13.552981
_cell_length_c 29.728494
_cell_angle_alpha 90.000000
_cell_angle_beta 90.000000
_cell_angle_gamma 90.000000
_cell_volume 5460.627703
_symmetry_space_group_name_H-M "P 42/M B C"
_symmetry_group_IT_number 135
_symmetry_cell_setting 'tetragonal'
loop_
_space_group_symop_operation_xyz
x,y,z
-y,x,1/2+z
-x,-y,z
y,-x,1/2+z
1/2+x,1/2-y,-z
1/2-x,1/2+y,-z
1/2+y,1/2+x,1/2-z
1/2-y,1/2-x,1/2-z
-x,-y,-z
y,-x,1/2-z
x,y,-z
-y,x,1/2-z
1/2-x,1/2+y,z
1/2+x,1/2-y,z
1/2-y,1/2-x,1/2+z
1/2+y,1/2+x,1/2+z
loop_
_atom_site_type_symbol
_atom_site_label
_atom_site_fract_x
_atom_site_fract_y
_atom_site_fract_z
Si Si1 0.210921 0.557351 0.947331
Si Si2 0.792314 0.256248 0.117866
Si Si3 0.506387 0.270542 0.864439
Si Si4 0.412002 0.874896 0.379014
Si Si5 0.159098 0.015516 0.737388
Si Si6 0.892567 0.953574 0.107518
Si Si7 0.772279 0.438199 0.820163
O O1 0.207250 0.663923 0.922695
O O2 0.136476 0.481366 0.922762
O O3 0.321295 0.520446 0.933714
O O4 0.195818 0.563118 0.000000
O O5 0.711770 0.170493 0.119126
O O6 0.788536 0.326885 0.162319
O O7 0.898411 0.205739 0.117900
O O8 0.529582 0.155478 0.871967
O O9 0.510043 0.305270 0.812621
O O10 0.584574 0.336677 0.891316
O O11 0.487377 0.854808 0.338300
O O12 0.249748 0.048346 0.768376
O O13 0.079065 0.103507 0.741035
O O14 0.826442 0.971327 0.151922
O O15 0.000000 0.000000 0.109161
#
# Coordination Sequence:
#
# PCOD9568633 Si02
#       7
#    16  16  16  16  16  16  16
#     4  10  23  41  63  86 120 157 200 264 314 364
#     4  10  21  40  60  86 123 161 198 245 312 365
#     4  12  21  35  63  87 116 168 202 234 306 366
#     4  10  20  40  60  85 120 163 199 244 312 368
#     4  11  20  32  56  91 120 156 212 257 293 342
#     4  10  18  37  60  85 119 150 200 250 311 351
#     4  10  21  36  54  85 128 161 198 253 295 350
#
# _framework density 20.510462
#
# number of rings (size 3 to 8) (size 9 to 14) (size 15 to 20)
#    0.000    1.857    4.286    3.429    0.000    4.286 
#    0.000    5.000    0.000    3.429    0.000    0.000 
#    0.000    0.000    0.000    0.000    0.000    0.000 
#
# Total GULP energy -624951.029109 kJ/mol
# GULP energy per Si atom -5579.919903 kJ/mol
# Density = 2.046378 g / cm^3
# Si number density = 20.510462 Si / 1000 Ang^3
#
#
#
# Elastic Constant Matrix: (Units=GPa)
#
#
# Indices 1 2 3 4 5 6 
#
# 1 59.3231 -0.8718 8.1900 0.0000 0.0000 0.0000
# 2 -0.8718 59.3231 8.1900 0.0000 0.0000 0.0000
# 3 8.1900 8.1900 75.0389 0.0000 0.0000 0.0000
# 4 0.0000 0.0000 0.0000 13.0453 0.0000 0.0000
# 5 0.0000 0.0000 0.0000 0.0000 13.0453 0.0000
# 6 0.0000 0.0000 0.0000 0.0000 0.0000 44.2340
#
#
#
# Elastic Compliance Matrix: (Units=1/GPa)
#
#
# Indices 1 2 3 4 5 6 
#
# 1 0.017130 0.000518 -0.001926 0.000000 0.000000 0.000000
# 2 0.000518 0.017130 -0.001926 0.000000 0.000000 0.000000
# 3 -0.001926 -0.001926 0.013747 0.000000 0.000000 0.000000
# 4 0.000000 0.000000 0.000000 0.076656 0.000000 0.000000
# 5 0.000000 0.000000 0.000000 0.000000 0.076656 0.000000
# 6 0.000000 0.000000 0.000000 0.000000 0.000000 0.022607
#
#
# Mechanical properties :
#
#
# Convention : Reuss Voigt Hill
#
# Bulk Modulus (GPa) = 24.19066 24.96684 24.57875
# Shear Modulus (GPa) = 20.46038 25.94341 23.20189
#
# Velocity S-wave (km/s) = 3.16184 3.56038 3.36701
# Velocity P-wave (km/s) = 5.01493 5.39453 5.20819
#
# Compressibility (1/GPa) = 0.04133826
#
# Stress axis : x y z
#
# Youngs Moduli (GPa) = 58.37591 58.37591 72.74382
#
# Poissons Ratio (x) = -0.03022 0.14012
# Poissons Ratio (y) = -0.03022 0.14012
# Poissons Ratio (z) = 0.11244 0.11244
#
# Static dielectric constant tensor:
#      x y z
#    x 1.780560 0.000000 0.000000 
#    y 0.000000 1.780560 0.000000 
#    z 0.000000 0.000000 1.688660 
# 
# From -- ./inp_files/6885.got.cif
#   From: 2010.05.17/outbox.cif.g08.bks.cpg/sg135_4_cif.got.tgz:6885.got - 2010.05.20 12:50:20.
