data_PCOD9568948
_publ_section_title
;
Structure prediction by ZEFSAII (Michael W. Deem and Ramdas Pophale) SiO2 
 PCOD9568948
Probable space group: P 42/M B C
;
_chemical_formula_sum "Si O2"
_cell_formula_units_Z 64
_cell_length_a 11.616495
_cell_length_b 11.616495
_cell_length_c 20.457973
_cell_angle_alpha 90.000000
_cell_angle_beta 90.000000
_cell_angle_gamma 90.000000
_cell_volume 2760.659352
_symmetry_space_group_name_H-M "P 42/M B C"
_symmetry_group_IT_number 135
_symmetry_cell_setting 'tetragonal'
loop_
_space_group_symop_operation_xyz
x,y,z
-y,x,1/2+z
-x,-y,z
y,-x,1/2+z
1/2+x,1/2-y,-z
1/2-x,1/2+y,-z
1/2+y,1/2+x,1/2-z
1/2-y,1/2-x,1/2-z
-x,-y,-z
y,-x,1/2-z
x,y,-z
-y,x,1/2-z
1/2-x,1/2+y,z
1/2+x,1/2-y,z
1/2-y,1/2-x,1/2+z
1/2+y,1/2+x,1/2+z
loop_
_atom_site_type_symbol
_atom_site_label
_atom_site_fract_x
_atom_site_fract_y
_atom_site_fract_z
Si Si1 0.904850 0.091390 0.392270
Si Si2 0.292412 0.209443 0.673342
Si Si3 0.016920 0.663423 0.072325
Si Si4 0.737935 0.095106 0.072151
O O1 0.848150 0.165312 0.335879
O O2 0.978261 0.189206 0.429514
O O3 0.797263 0.028850 0.426430
O O4 0.000000 0.000000 0.372297
O O5 0.306185 0.193816 0.750000
O O6 0.348498 0.106103 0.631480
O O7 0.170374 0.220934 0.634451
O O8 0.899912 0.589744 0.079089
O O9 0.066122 0.641676 0.000000
O O10 0.756267 0.151737 0.000000
#
# Coordination Sequence:
#
# PCOD9568948 Si02
#       4
#    16  16  16  16
#     4  11  23  42  71 101 134 179 233 282 350 416
#     4  11  25  43  63 101 142 185 235 289 346 418
#     4  10  22  43  68  97 139 181 229 293 348 410
#     4  10  22  42  69 103 137 178 235 295 353 418
#
# _framework density 23.182870000000001
#
# number of rings (size 3 to 8) (size 9 to 14) (size 15 to 20)
#    0.000    1.500    2.500    1.500    0.000    9.000 
#    4.500    3.750    0.000    0.000    0.000    0.000 
#    0.000    0.000    0.000    0.000    0.000    0.000 
#
# Total GULP energy -357071.036310 kJ/mol
# GULP energy per Si atom -5579.234942 kJ/mol
# Density = 2.313010 g / cm^3
# Si number density = 23.182870 Si / 1000 Ang^3
#
#
#
# Elastic Constant Matrix: (Units=GPa)
#
#
# Indices 1 2 3 4 5 6 
#
# 1 110.3801 23.6276 46.7646 0.0000 0.0000 0.0000
# 2 23.6276 110.3804 46.7648 0.0000 0.0000 0.0000
# 3 46.7646 46.7648 206.6608 0.0000 0.0000 0.0000
# 4 0.0000 0.0000 0.0000 62.3498 0.0000 0.0000
# 5 0.0000 0.0000 0.0000 0.0000 62.2924 0.0000
# 6 0.0000 0.0000 0.0000 0.0000 0.0000 58.0728
#
#
#
# Elastic Compliance Matrix: (Units=1/GPa)
#
#
# Indices 1 2 3 4 5 6 
#
# 1 0.010194 -0.001333 -0.002005 0.000000 0.000000 0.000000
# 2 -0.001333 0.010194 -0.002005 0.000000 0.000000 0.000000
# 3 -0.002005 -0.002005 0.005746 0.000000 0.000000 0.000000
# 4 0.000000 0.000000 0.000000 0.016039 0.000000 0.000000
# 5 0.000000 0.000000 0.000000 0.000000 0.016053 0.000000
# 6 0.000000 0.000000 0.000000 0.000000 0.000000 0.017220
#
#
# Mechanical properties :
#
#
# Convention : Reuss Voigt Hill
#
# Bulk Modulus (GPa) = 64.72993 73.52614 69.12803
# Shear Modulus (GPa) = 54.77473 57.22729 56.00101
#
# Velocity S-wave (km/s) = 4.86606 4.97381 4.92023
# Velocity P-wave (km/s) = 7.71709 8.04795 7.88426
#
# Compressibility (1/GPa) = 0.01544880
#
# Stress axis : x y z
#
# Youngs Moduli (GPa) = 98.09268 98.09284 174.02191
#
# Poissons Ratio (x) = 0.13072 0.34897
# Poissons Ratio (y) = 0.13072 0.34897
# Poissons Ratio (z) = 0.19671 0.19671
#
# Static dielectric constant tensor:
#      x y z
#    x 1.946350 0.000000 0.000000 
#    y 0.000000 1.946350 0.000000 
#    z 0.000000 0.000000 1.829770 
# 
# From -- ./inp_files/5051.got.cif
#   From: 2010.05.17/outbox.cif.g08.bks.cpg/sg135_3_cif.got.tgz:5051.got - 2010.05.20 12:50:20.
