data_PCOD9568503
_publ_section_title
;
Structure prediction by ZEFSAII (Michael W. Deem and Ramdas Pophale) SiO2 
 PCOD9568503
Probable space group: P 42/N N M
;
_chemical_formula_sum "Si O2"
_cell_formula_units_Z 40
_cell_length_a 10.558280
_cell_length_b 10.558280
_cell_length_c 16.243955
_cell_angle_alpha 90.000000
_cell_angle_beta 90.000000
_cell_angle_gamma 90.000000
_cell_volume 1810.831864
_symmetry_space_group_name_H-M "P 42/N N M"
_symmetry_group_IT_number 134
_space_group.IT_coordinate_system_code '2'
_symmetry_cell_setting 'tetragonal'
loop_
_space_group_symop_operation_xyz
x,y,z
1/2-y,x,1/2+z
1/2-x,1/2-y,z
y,1/2-x,1/2+z
x,1/2-y,1/2-z
1/2-x,y,1/2-z
y,x,-z
1/2-y,1/2-x,-z
-x,-y,-z
1/2+y,-x,1/2-z
1/2+x,1/2+y,-z
-y,1/2+x,1/2-z
-x,1/2+y,1/2+z
1/2+x,-y,1/2+z
-y,-x,z
1/2+y,1/2+x,z
loop_
_atom_site_type_symbol
_atom_site_label
_atom_site_fract_x
_atom_site_fract_y
_atom_site_fract_z
Si Si1 0.990985 0.693570 0.834481
Si Si2 0.080507 0.250000 0.750000
Si Si3 0.140352 0.859649 0.141139
Si Si4 0.140874 0.640874 0.551681
O O1 0.047103 0.750000 0.750000
O O2 0.850627 0.654593 0.806980
O O3 0.066822 0.566822 0.857870
O O4 0.018938 0.799264 0.902999
O O5 0.987214 0.319530 0.686756
O O6 0.250000 0.750000 0.151147
O O7 0.120910 0.879091 0.044396
O O8 0.250000 0.750000 0.561514
#
# Coordination Sequence:
#
# PCOD9568503 Si02
#       4
#    16   8   8   8
#     4  11  21  40  65  95 128 175 227 275 327 394
#     4  12  22  38  66  98 138 179 223 264 340 410
#     4  11  20  41  63  95 142 185 212 274 335 404
#     4   9  22  37  67  99 131 177 232 277 328 384
#
# _framework density 22.089293999999999
#
# number of rings (size 3 to 8) (size 9 to 14) (size 15 to 20)
#    0.000    1.200    6.000    0.600    0.000    1.600 
#    0.000   10.000    0.000    4.800    0.000    0.000 
#    0.000    0.000    0.000    0.000    0.000    0.000 
#
# Total GULP energy -223390.536242 kJ/mol
# GULP energy per Si atom -5584.763406 kJ/mol
# Density = 2.203902 g / cm^3
# Si number density = 22.089294 Si / 1000 Ang^3
#
#
#
# Elastic Constant Matrix: (Units=GPa)
#
#
# Indices 1 2 3 4 5 6 
#
# 1 124.6313 86.4938 60.9324 0.0000 0.0000 0.0000
# 2 86.4938 124.6313 60.9324 0.0000 0.0000 0.0000
# 3 60.9324 60.9324 177.9647 0.0000 0.0000 0.0000
# 4 0.0000 0.0000 0.0000 10.8697 0.0000 0.0000
# 5 0.0000 0.0000 0.0000 0.0000 10.8697 0.0000
# 6 0.0000 0.0000 0.0000 0.0000 0.0000 55.2993
#
#
#
# Elastic Compliance Matrix: (Units=1/GPa)
#
#
# Indices 1 2 3 4 5 6 
#
# 1 0.016062 -0.010159 -0.002021 0.000000 0.000000 0.000000
# 2 -0.010159 0.016062 -0.002021 0.000000 0.000000 0.000000
# 3 -0.002021 -0.002021 0.007003 0.000000 0.000000 0.000000
# 4 0.000000 0.000000 0.000000 0.091999 0.000000 0.000000
# 5 0.000000 0.000000 0.000000 0.000000 0.091999 0.000000
# 6 0.000000 0.000000 0.000000 0.000000 0.000000 0.018083
#
#
# Mechanical properties :
#
#
# Convention : Reuss Voigt Hill
#
# Bulk Modulus (GPa) = 93.24150 93.77161 93.50655
# Shear Modulus (GPa) = 18.30261 29.99901 24.15081
#
# Velocity S-wave (km/s) = 2.88162 3.68921 3.31014
# Velocity P-wave (km/s) = 7.30578 7.79040 7.55198
#
# Compressibility (1/GPa) = 0.01072484
#
# Stress axis : x y z
#
# Youngs Moduli (GPa) = 62.25868 62.25868 142.79359
#
# Poissons Ratio (x) = 0.63248 0.28861
# Poissons Ratio (y) = 0.63248 0.28861
# Poissons Ratio (z) = 0.12583 0.12583
#
# Static dielectric constant tensor:
#      x y z
#    x 1.876720 0.000000 0.000000 
#    y 0.000000 1.876720 0.000000 
#    z 0.000000 0.000000 1.743640 
# 
# From -- ./inp_files/5770.got.cif
#   From: 2010.05.17/outbox.cif.g08.bks.cpg/sg134_3_cif.got.tgz:5770.got - 2010.05.20 12:42:49.
