data_PCOD9568538
_publ_section_title
;
Structure prediction by ZEFSAII (Michael W. Deem and Ramdas Pophale) SiO2 
 PCOD9568538
Probable space group: P 42/N N M
;
_chemical_formula_sum "Si O2"
_cell_formula_units_Z 72
_cell_length_a 24.486197
_cell_length_b 24.486197
_cell_length_c 7.287154
_cell_angle_alpha 90.000000
_cell_angle_beta 90.000000
_cell_angle_gamma 90.000000
_cell_volume 4369.186932
_symmetry_space_group_name_H-M "P 42/N N M"
_symmetry_group_IT_number 134
_space_group.IT_coordinate_system_code '2'
_symmetry_cell_setting 'tetragonal'
loop_
_space_group_symop_operation_xyz
x,y,z
1/2-y,x,1/2+z
1/2-x,1/2-y,z
y,1/2-x,1/2+z
x,1/2-y,1/2-z
1/2-x,y,1/2-z
y,x,-z
1/2-y,1/2-x,-z
-x,-y,-z
1/2+y,-x,1/2-z
1/2+x,1/2+y,-z
-y,1/2+x,1/2-z
-x,1/2+y,1/2+z
1/2+x,-y,1/2+z
-y,-x,z
1/2+y,1/2+x,z
loop_
_atom_site_type_symbol
_atom_site_label
_atom_site_fract_x
_atom_site_fract_y
_atom_site_fract_z
Si Si1 0.407640 0.750000 0.750000
Si Si2 0.862843 0.046615 0.128701
Si Si3 0.299940 0.610942 0.388224
Si Si4 0.383052 0.972904 0.192771
Si Si5 0.037847 0.444375 0.285807
O O1 0.442385 0.799918 0.666902
O O2 0.373971 0.723630 0.585530
O O3 0.899908 0.100093 0.173374
O O4 0.888575 0.995505 0.239987
O O5 0.872199 0.035691 0.911513
O O6 0.250000 0.608979 0.250000
O O7 0.345765 0.654236 0.327282
O O8 0.329264 0.551570 0.400971
O O9 0.430993 0.930993 0.136858
O O10 0.410095 0.032765 0.174357
O O11 0.055150 0.444851 0.500000
O O12 0.991272 0.491272 0.268888
#
# Coordination Sequence:
#
# PCOD9568538 Si02
#       5
#     8  16  16  16  16
#     4  12  22  32  48  69  94 122 155 194 238 276
#     4   9  16  28  46  68  93 120 152 187 226 278
#     4  11  23  37  51  66  88 122 164 206 243 277
#     4   8  14  29  50  68  87 113 149 192 237 285
#     4   7  11  22  45  71  89 110 143 182 228 283
#
# _framework density 16.479037999999999
#
# number of rings (size 3 to 8) (size 9 to 14) (size 15 to 20)
#    0.000    2.889    2.222    3.333    0.000    1.111 
#    0.000    1.111    0.000    8.333    0.000    0.000 
#    0.000    0.000    0.000    1.000    8.000    3.556 
#
# Total GULP energy -400908.610372 kJ/mol
# GULP energy per Si atom -5568.175144 kJ/mol
# Density = 1.644153 g / cm^3
# Si number density = 16.479038 Si / 1000 Ang^3
#
#
#
# Elastic Constant Matrix: (Units=GPa)
#
#
# Indices 1 2 3 4 5 6 
#
# 1 56.0786 53.1736 6.4144 0.0000 0.0000 0.0000
# 2 53.1736 56.0786 6.4147 0.0000 0.0000 0.0000
# 3 6.4144 6.4147 41.9181 0.0000 0.0000 0.0000
# 4 0.0000 0.0000 0.0000 18.7307 0.0000 0.0000
# 5 0.0000 0.0000 0.0000 0.0000 18.7307 0.0000
# 6 0.0000 0.0000 0.0000 0.0000 0.0000 13.7715
#
#
#
# Elastic Compliance Matrix: (Units=1/GPa)
#
#
# Indices 1 2 3 4 5 6 
#
# 1 0.176776 -0.167456 -0.001425 0.000000 0.000000 0.000000
# 2 -0.167456 0.176777 -0.001427 0.000000 0.000000 0.000000
# 3 -0.001425 -0.001427 0.024293 0.000000 0.000000 0.000000
# 4 0.000000 0.000000 0.000000 0.053388 0.000000 0.000000
# 5 0.000000 0.000000 0.000000 0.000000 0.053388 0.000000
# 6 0.000000 0.000000 0.000000 0.000000 0.000000 0.072614
#
#
# Mechanical properties :
#
#
# Convention : Reuss Voigt Hill
#
# Bulk Modulus (GPa) = 26.86106 31.78675 29.32391
# Shear Modulus (GPa) = 5.49292 16.11809 10.80550
#
# Velocity S-wave (km/s) = 1.82771 3.13085 2.56347
# Velocity P-wave (km/s) = 4.55955 5.69216 5.15704
#
# Compressibility (1/GPa) = 0.03722861
#
# Stress axis : x y z
#
# Youngs Moduli (GPa) = 5.65686 5.65685 41.16487
#
# Poissons Ratio (x) = 0.94727 0.05868
# Poissons Ratio (y) = 0.94728 0.05875
# Poissons Ratio (z) = 0.00806 0.00807
#
# Static dielectric constant tensor:
#      x y z
#    x 1.564120 0.000000 0.000000 
#    y 0.000000 1.564120 0.000000 
#    z 0.000000 0.000000 1.662480 
# 
# From -- ./inp_files/3049.got.cif
#   From: 2010.05.17/outbox.cif.g08.bks.cpg/sg134_2_cif.got.tgz:3049.got - 2010.05.20 12:42:49.
