data_PCOD9568836
_publ_section_title
;
Structure prediction by ZEFSAII (Michael W. Deem and Ramdas Pophale) SiO2 
 PCOD9568836
Probable space group: P 42/M B C
;
_chemical_formula_sum "Si O2"
_cell_formula_units_Z 88
_cell_length_a 13.631762
_cell_length_b 13.631762
_cell_length_c 22.368160
_cell_angle_alpha 90.000000
_cell_angle_beta 90.000000
_cell_angle_gamma 90.000000
_cell_volume 4156.561883
_symmetry_space_group_name_H-M "P 42/M B C"
_symmetry_group_IT_number 135
_symmetry_cell_setting 'tetragonal'
loop_
_space_group_symop_operation_xyz
x,y,z
-y,x,1/2+z
-x,-y,z
y,-x,1/2+z
1/2+x,1/2-y,-z
1/2-x,1/2+y,-z
1/2+y,1/2+x,1/2-z
1/2-y,1/2-x,1/2-z
-x,-y,-z
y,-x,1/2-z
x,y,-z
-y,x,1/2-z
1/2-x,1/2+y,z
1/2+x,1/2-y,z
1/2-y,1/2-x,1/2+z
1/2+y,1/2+x,1/2+z
loop_
_atom_site_type_symbol
_atom_site_label
_atom_site_fract_x
_atom_site_fract_y
_atom_site_fract_z
Si Si1 0.716394 0.928832 0.500000
Si Si2 0.673438 0.686312 0.288928
Si Si3 0.154398 0.643275 0.373356
Si Si4 0.382136 0.897894 0.000000
Si Si5 0.478265 0.320197 0.188233
Si Si6 0.000000 0.000000 0.599291
Si Si7 0.500000 0.000000 0.606519
Si Si8 0.145675 0.937114 0.000000
O O1 0.665859 0.876003 0.556416
O O2 0.830272 0.904943 0.500000
O O3 0.700301 0.047539 0.500000
O O4 0.742015 0.757986 0.250000
O O5 0.644681 0.748051 0.347764
O O6 0.576749 0.658249 0.250517
O O7 0.727411 0.584412 0.301384
O O8 0.251707 0.596960 0.346198
O O9 0.067658 0.570357 0.354453
O O10 0.425264 0.946107 0.939433
O O11 0.263614 0.913760 0.000000
O O12 0.499831 0.408673 0.143759
O O13 0.991714 0.902987 0.557201
#
# Coordination Sequence:
#
# PCOD9568836 Si02
#       8
#     8  16  16   8  16   8   8   8
#     4  10  20  44  60 100 144 166 228 294 336 437
#     4  10  24  42  65  94 124 174 230 280 346 411
#     4  10  22  40  65  95 131 171 220 276 342 416
#     4   9  21  39  65  90 136 187 213 272 344 420
#     4  11  22  43  63  90 130 171 227 284 339 397
#     4  11  24  41  64  98 138 178 226 294 334 427
#     4   9  20  40  61  96 132 166 223 269 342 418
#     4  11  23  41  63 104 142 181 239 270 366 432
#
# _framework density 21.171343
#
# number of rings (size 3 to 8) (size 9 to 14) (size 15 to 20)
#    0.000    1.818    1.818    1.636    2.545    4.364 
#    0.000    3.182    0.000    0.000    0.000    0.000 
#    0.000    0.000    0.000    0.000    0.000    0.000 
#
# Total GULP energy -490424.783067 kJ/mol
# GULP energy per Si atom -5573.008898 kJ/mol
# Density = 2.112316 g / cm^3
# Si number density = 21.171343 Si / 1000 Ang^3
#
#
#
# Elastic Constant Matrix: (Units=GPa)
#
#
# Indices 1 2 3 4 5 6 
#
# 1 109.6958 25.4050 32.6831 0.0000 0.0000 0.0000
# 2 25.4050 109.6949 32.6826 0.0000 0.0000 0.0000
# 3 32.6831 32.6826 94.4561 0.0000 0.0000 0.0000
# 4 0.0000 0.0000 0.0000 60.6671 0.0000 0.0000
# 5 0.0000 0.0000 0.0000 0.0000 60.6628 0.0000
# 6 0.0000 0.0000 0.0000 0.0000 0.0000 23.6523
#
#
#
# Elastic Compliance Matrix: (Units=1/GPa)
#
#
# Indices 1 2 3 4 5 6 
#
# 1 0.010377 -0.001487 -0.003076 0.000000 0.000000 0.000000
# 2 -0.001487 0.010377 -0.003076 0.000000 0.000000 0.000000
# 3 -0.003076 -0.003076 0.012716 0.000000 0.000000 0.000000
# 4 0.000000 0.000000 0.000000 0.016483 0.000000 0.000000
# 5 0.000000 0.000000 0.000000 0.000000 0.016485 0.000000
# 6 0.000000 0.000000 0.000000 0.000000 0.000000 0.042279
#
#
# Mechanical properties :
#
#
# Convention : Reuss Voigt Hill
#
# Bulk Modulus (GPa) = 54.97027 55.04314 55.00670
# Shear Modulus (GPa) = 38.44419 43.86818 41.15618
#
# Velocity S-wave (km/s) = 4.26591 4.55692 4.41382
# Velocity P-wave (km/s) = 7.09118 7.33094 7.21206
#
# Compressibility (1/GPa) = 0.01819165
#
# Stress axis : x y z
#
# Youngs Moduli (GPa) = 96.36728 96.36680 78.64306
#
# Poissons Ratio (x) = 0.14327 0.24192
# Poissons Ratio (y) = 0.14328 0.24191
# Poissons Ratio (z) = 0.29644 0.29643
#
# Static dielectric constant tensor:
#      x y z
#    x 1.785830 0.000000 0.000000 
#    y 0.000000 1.785830 0.000000 
#    z 0.000000 0.000000 1.796280 
# 
# From -- ./inp_files/5393.got.cif
#   From: 2010.05.17/outbox.cif.g08.bks.cpg/sg135_3_cif.got.tgz:5393.got - 2010.05.20 12:50:20.
