data_PCOD9568480
_publ_section_title
;
Structure prediction by ZEFSAII (Michael W. Deem and Ramdas Pophale) SiO2 
 PCOD9568480
Probable space group: P 42/N N M
;
_chemical_formula_sum "Si O2"
_cell_formula_units_Z 88
_cell_length_a 12.846567
_cell_length_b 12.846567
_cell_length_c 27.714412
_cell_angle_alpha 90.000000
_cell_angle_beta 90.000000
_cell_angle_gamma 90.000000
_cell_volume 4573.828132
_symmetry_space_group_name_H-M "P 42/N N M"
_symmetry_group_IT_number 134
_space_group.IT_coordinate_system_code '2'
_symmetry_cell_setting 'tetragonal'
loop_
_space_group_symop_operation_xyz
x,y,z
1/2-y,x,1/2+z
1/2-x,1/2-y,z
y,1/2-x,1/2+z
x,1/2-y,1/2-z
1/2-x,y,1/2-z
y,x,-z
1/2-y,1/2-x,-z
-x,-y,-z
1/2+y,-x,1/2-z
1/2+x,1/2+y,-z
-y,1/2+x,1/2-z
-x,1/2+y,1/2+z
1/2+x,-y,1/2+z
-y,-x,z
1/2+y,1/2+x,z
loop_
_atom_site_type_symbol
_atom_site_label
_atom_site_fract_x
_atom_site_fract_y
_atom_site_fract_z
Si Si1 0.166602 0.007849 0.151213
Si Si2 0.263355 0.124147 0.632767
Si Si3 0.088498 0.246234 0.019782
Si Si4 0.471091 0.148878 0.220905
Si Si5 0.921803 0.254941 0.942568
Si Si6 0.558321 0.750000 0.250000
O O1 0.084246 0.915755 0.152002
O O2 0.232189 0.999191 0.101814
O O3 0.107901 0.117831 0.149221
O O4 0.235449 0.999274 0.199399
O O5 0.250000 0.250000 0.637663
O O6 0.251822 0.092166 0.577222
O O7 0.186106 0.060577 0.667129
O O8 0.139715 0.139715 0.000000
O O9 0.162999 0.337002 0.000000
O O10 0.979393 0.258360 0.993447
O O11 0.511835 0.250000 0.250000
O O12 0.358126 0.120311 0.243813
O O13 0.552576 0.052576 0.222398
O O14 0.837593 0.162408 0.943209
O O15 0.860611 0.360611 0.933087
#
# Coordination Sequence:
#
# PCOD9568480 Si02
#       6
#    16  16  16  16  16   8
#     4  11  23  39  64  94 124 166 215 265 324 387
#     4  12  21  41  66  96 129 167 218 271 315 387
#     4  11  21  37  63  95 125 162 214 267 315 378
#     4  12  26  44  70  99 131 174 217 269 332 389
#     4  10  23  42  61  88 129 171 211 263 329 391
#     4  12  23  42  66  95 126 165 220 268 309 392
#
# _framework density 19.239899999999999
#
# number of rings (size 3 to 8) (size 9 to 14) (size 15 to 20)
#    0.000    0.727    7.273    0.818    0.000    3.818 
#    0.000    0.000    0.000    2.455    0.000    0.000 
#    0.000    0.000    0.000    0.000    0.000    0.000 
#
# Total GULP energy -491363.960157 kJ/mol
# GULP energy per Si atom -5583.681365 kJ/mol
# Density = 1.919611 g / cm^3
# Si number density = 19.239900 Si / 1000 Ang^3
#
#
#
# Elastic Constant Matrix: (Units=GPa)
#
#
# Indices 1 2 3 4 5 6 
#
# 1 78.6653 40.7948 36.9684 0.0000 0.0000 0.0000
# 2 40.7948 78.6659 36.9687 0.0000 0.0000 0.0000
# 3 36.9684 36.9687 166.7716 0.0000 0.0000 0.0000
# 4 0.0000 0.0000 0.0000 21.8435 0.0000 0.0000
# 5 0.0000 0.0000 0.0000 0.0000 21.8428 0.0000
# 6 0.0000 0.0000 0.0000 0.0000 0.0000 18.1877
#
#
#
# Elastic Compliance Matrix: (Units=1/GPa)
#
#
# Indices 1 2 3 4 5 6 
#
# 1 0.018054 -0.008352 -0.002151 0.000000 0.000000 0.000000
# 2 -0.008352 0.018054 -0.002151 0.000000 0.000000 0.000000
# 3 -0.002151 -0.002151 0.006950 0.000000 0.000000 0.000000
# 4 0.000000 0.000000 0.000000 0.045780 0.000000 0.000000
# 5 0.000000 0.000000 0.000000 0.000000 0.045782 0.000000
# 6 0.000000 0.000000 0.000000 0.000000 0.000000 0.054982
#
#
# Mechanical properties :
#
#
# Convention : Reuss Voigt Hill
#
# Bulk Modulus (GPa) = 56.33431 61.50741 58.92086
# Shear Modulus (GPa) = 22.64240 26.33286 24.48763
#
# Velocity S-wave (km/s) = 3.43424 3.70355 3.57144
# Velocity P-wave (km/s) = 6.71333 7.09412 6.90635
#
# Compressibility (1/GPa) = 0.01775117
#
# Stress axis : x y z
#
# Youngs Moduli (GPa) = 55.38966 55.39008 143.89081
#
# Poissons Ratio (x) = 0.46260 0.30946
# Poissons Ratio (y) = 0.46260 0.30946
# Poissons Ratio (z) = 0.11913 0.11913
#
# Static dielectric constant tensor:
#      x y z
#    x 1.679090 0.000000 0.000000 
#    y 0.000000 1.679100 0.000000 
#    z 0.000000 0.000000 1.705230 
# 
# From -- ./inp_files/11481.got.cif
#   From: 2010.05.17/outbox.cif.g08.bks.cpg/sg134_6_cif.got.tgz:11481.got - 2010.05.20 12:42:49.
