data_PCOD9568831
_publ_section_title
;
Structure prediction by ZEFSAII (Michael W. Deem and Ramdas Pophale) SiO2 
 PCOD9568831
Probable space group: P 42/M B C
;
_chemical_formula_sum "Si O2"
_cell_formula_units_Z 112
_cell_length_a 14.213117
_cell_length_b 14.213117
_cell_length_c 23.699915
_cell_angle_alpha 90.000000
_cell_angle_beta 90.000000
_cell_angle_gamma 90.000000
_cell_volume 4787.683697
_symmetry_space_group_name_H-M "P 42/M B C"
_symmetry_group_IT_number 135
_symmetry_cell_setting 'tetragonal'
loop_
_space_group_symop_operation_xyz
x,y,z
-y,x,1/2+z
-x,-y,z
y,-x,1/2+z
1/2+x,1/2-y,-z
1/2-x,1/2+y,-z
1/2+y,1/2+x,1/2-z
1/2-y,1/2-x,1/2-z
-x,-y,-z
y,-x,1/2-z
x,y,-z
-y,x,1/2-z
1/2-x,1/2+y,z
1/2+x,1/2-y,z
1/2-y,1/2-x,1/2+z
1/2+y,1/2+x,1/2+z
loop_
_atom_site_type_symbol
_atom_site_label
_atom_site_fract_x
_atom_site_fract_y
_atom_site_fract_z
Si Si1 0.039206 0.102965 0.931943
Si Si2 0.565226 0.093503 0.158944
Si Si3 0.075552 0.305422 0.564954
Si Si4 0.924554 0.129485 0.240510
Si Si5 0.186589 0.138471 0.618559
Si Si6 0.524072 0.818939 0.257457
Si Si7 0.742390 0.861379 0.067249
O O1 0.147623 0.124457 0.917241
O O2 0.964615 0.177194 0.908206
O O3 0.035218 0.102199 0.000000
O O4 0.000000 0.000000 0.912335
O O5 0.610663 0.120521 0.100441
O O6 0.519469 0.177890 0.194386
O O7 0.500000 0.000000 0.152896
O O8 0.649189 0.054478 0.198776
O O9 0.098895 0.314405 0.500000
O O10 0.112862 0.206299 0.587143
O O11 0.963151 0.306466 0.572320
O O12 0.870222 0.155299 0.183562
O O13 0.926314 0.224289 0.276292
O O14 0.035816 0.111676 0.230099
O O15 0.286234 0.187358 0.605367
O O16 0.599437 0.900564 0.250000
O O17 0.738192 0.834538 0.000000
#
# Coordination Sequence:
#
# PCOD9568831 Si02
#       7
#    16  16  16  16  16  16  16
#     4  10  20  40  72 102 137 192 246 293 357 432
#     4   9  20  39  69  96 135 186 239 291 365 440
#     4  11  23  42  69 103 152 199 248 308 370 452
#     4  11  27  47  67 102 139 176 233 311 379 443
#     4  12  25  43  70 102 147 192 241 313 375 449
#     4   9  20  44  70  99 135 181 238 303 363 445
#     4  10  23  41  67 106 145 192 251 301 361 441
#
# _framework density 23.393359
#
# number of rings (size 3 to 8) (size 9 to 14) (size 15 to 20)
#    0.000    1.714    1.429    3.000    6.000    2.571 
#    5.143    0.000    0.000    0.000    0.000    0.000 
#    0.000    0.000    0.000    0.000    0.000    0.000 
#
# Total GULP energy -626456.291141 kJ/mol
# GULP energy per Si atom -5593.359742 kJ/mol
# Density = 2.334011 g / cm^3
# Si number density = 23.393359 Si / 1000 Ang^3
#
#
#
# Elastic Constant Matrix: (Units=GPa)
#
#
# Indices 1 2 3 4 5 6 
#
# 1 86.1460 15.2326 43.1900 0.0000 0.0000 0.0000
# 2 15.2326 86.1438 43.1920 0.0000 0.0000 0.0000
# 3 43.1900 43.1920 89.9742 0.0000 0.0000 0.0000
# 4 0.0000 0.0000 0.0000 25.2879 0.0000 0.0000
# 5 0.0000 0.0000 0.0000 0.0000 25.2872 0.0000
# 6 0.0000 0.0000 0.0000 0.0000 0.0000 31.4460
#
#
#
# Elastic Compliance Matrix: (Units=1/GPa)
#
#
# Indices 1 2 3 4 5 6 
#
# 1 0.015396 0.001295 -0.008012 0.000000 0.000000 0.000000
# 2 0.001295 0.015397 -0.008013 0.000000 0.000000 0.000000
# 3 -0.008012 -0.008013 0.018807 0.000000 0.000000 0.000000
# 4 0.000000 0.000000 0.000000 0.039545 0.000000 0.000000
# 5 0.000000 0.000000 0.000000 0.000000 0.039546 0.000000
# 6 0.000000 0.000000 0.000000 0.000000 0.000000 0.031801
#
#
# Mechanical properties :
#
#
# Convention : Reuss Voigt Hill
#
# Bulk Modulus (GPa) = 49.65311 51.72148 50.68730
# Shear Modulus (GPa) = 25.42394 27.11418 26.26906
#
# Velocity S-wave (km/s) = 3.30024 3.40818 3.35465
# Velocity P-wave (km/s) = 5.98277 6.13556 6.05965
#
# Compressibility (1/GPa) = 0.02013972
#
# Stress axis : x y z
#
# Youngs Moduli (GPa) = 64.95103 64.94694 53.17184
#
# Poissons Ratio (x) = -0.08409 0.42602
# Poissons Ratio (y) = -0.08410 0.42606
# Poissons Ratio (z) = 0.52040 0.52042
#
# Static dielectric constant tensor:
#      x y z
#    x 1.873740 0.000000 0.000000 
#    y 0.000000 1.873750 0.000000 
#    z 0.000000 0.000000 1.886540 
# 
# From -- ./inp_files/6104.got.cif
#   From: 2010.05.17/outbox.cif.g08.bks.cpg/sg135_4_cif.got.tgz:6104.got - 2010.05.20 12:50:20.
