data_PCOD9568407
_publ_section_title
;
Structure prediction by ZEFSAII (Michael W. Deem and Ramdas Pophale) SiO2 
 PCOD9568407
Probable space group: P 42/N N M
;
_chemical_formula_sum "Si O2"
_cell_formula_units_Z 80
_cell_length_a 13.561578
_cell_length_b 13.561578
_cell_length_c 20.264159
_cell_angle_alpha 90.000000
_cell_angle_beta 90.000000
_cell_angle_gamma 90.000000
_cell_volume 3726.911129
_symmetry_space_group_name_H-M "P 42/N N M"
_symmetry_group_IT_number 134
_space_group.IT_coordinate_system_code '2'
_symmetry_cell_setting 'tetragonal'
loop_
_space_group_symop_operation_xyz
x,y,z
1/2-y,x,1/2+z
1/2-x,1/2-y,z
y,1/2-x,1/2+z
x,1/2-y,1/2-z
1/2-x,y,1/2-z
y,x,-z
1/2-y,1/2-x,-z
-x,-y,-z
1/2+y,-x,1/2-z
1/2+x,1/2+y,-z
-y,1/2+x,1/2-z
-x,1/2+y,1/2+z
1/2+x,-y,1/2+z
-y,-x,z
1/2+y,1/2+x,z
loop_
_atom_site_type_symbol
_atom_site_label
_atom_site_fract_x
_atom_site_fract_y
_atom_site_fract_z
Si Si1 0.518075 0.856127 0.074822
Si Si2 0.550396 0.694099 0.645269
Si Si3 0.555248 0.601106 0.789783
Si Si4 0.433268 0.785551 0.320032
Si Si5 0.410434 0.747926 0.966001
O O1 0.628928 0.883555 0.095542
O O2 0.469446 0.804733 0.137700
O O3 0.457371 0.957371 0.061497
O O4 0.497443 0.776586 0.017116
O O5 0.542365 0.631150 0.712868
O O6 0.584347 0.801338 0.669922
O O7 0.450792 0.720415 0.605666
O O8 0.453934 0.546067 0.810497
O O9 0.641087 0.522735 0.802563
O O10 0.396636 0.750000 0.250000
O O11 0.348567 0.848567 0.355629
O O12 0.360247 0.639754 0.967806
O O13 0.324129 0.824129 0.984348
#
# Coordination Sequence:
#
# PCOD9568407 Si02
#       5
#    16  16  16  16  16
#     4  11  22  38  60  91 125 160 206 256 314 379
#     4  11  21  37  61  87 122 166 205 256 318 375
#     4  10  22  39  59  89 122 160 210 258 309 376
#     4  11  22  38  60  87 122 160 203 256 313 370
#     4  10  21  37  60  90 123 162 210 262 316 374
#
# _framework density 21.465498
#
# number of rings (size 3 to 8) (size 9 to 14) (size 15 to 20)
#    0.000    1.400    2.000    4.200    0.000    4.600 
#    0.000    1.000    0.000   13.200    0.000    0.000 
#    0.000    0.000    0.000    0.000    0.000    0.000 
#
# Total GULP energy -446310.646181 kJ/mol
# GULP energy per Si atom -5578.883077 kJ/mol
# Density = 2.141664 g / cm^3
# Si number density = 21.465498 Si / 1000 Ang^3
#
#
#
# Elastic Constant Matrix: (Units=GPa)
#
#
# Indices 1 2 3 4 5 6 
#
# 1 90.2738 81.6384 35.9068 0.0000 0.0000 0.0000
# 2 81.6384 90.2738 35.9068 0.0000 0.0000 0.0000
# 3 35.9068 35.9068 86.1281 0.0000 0.0000 0.0000
# 4 0.0000 0.0000 0.0000 31.5574 0.0000 0.0000
# 5 0.0000 0.0000 0.0000 0.0000 31.5574 0.0000
# 6 0.0000 0.0000 0.0000 0.0000 0.0000 30.9043
#
#
#
# Elastic Compliance Matrix: (Units=1/GPa)
#
#
# Indices 1 2 3 4 5 6 
#
# 1 0.061423 -0.054380 -0.002936 0.000000 0.000000 0.000000
# 2 -0.054380 0.061423 -0.002936 0.000000 0.000000 0.000000
# 3 -0.002936 -0.002936 0.014059 0.000000 0.000000 0.000000
# 4 0.000000 0.000000 0.000000 0.031688 0.000000 0.000000
# 5 0.000000 0.000000 0.000000 0.000000 0.031688 0.000000
# 6 0.000000 0.000000 0.000000 0.000000 0.000000 0.032358
#
#
# Mechanical properties :
#
#
# Convention : Reuss Voigt Hill
#
# Bulk Modulus (GPa) = 60.97437 63.73107 62.35272
# Shear Modulus (GPa) = 13.94266 26.35206 20.14736
#
# Velocity S-wave (km/s) = 2.55137 3.50758 3.06697
# Velocity P-wave (km/s) = 6.09481 6.79401 6.45389
#
# Compressibility (1/GPa) = 0.01640033
#
# Stress axis : x y z
#
# Youngs Moduli (GPa) = 16.28050 16.28050 71.12868
#
# Poissons Ratio (x) = 0.88533 0.20887
# Poissons Ratio (y) = 0.88533 0.20887
# Poissons Ratio (z) = 0.04781 0.04781
#
# Static dielectric constant tensor:
#      x y z
#    x 1.786590 0.000000 0.000000 
#    y 0.000000 1.786590 0.000000 
#    z 0.000000 0.000000 1.805500 
# 
# From -- ./inp_files/8901.got.cif
#   From: 2010.05.17/outbox.cif.g08.bks.cpg/sg134_5_cif.got.tgz:8901.got - 2010.05.20 12:42:49.
