data_PCOD9568032
_publ_section_title
;
Structure prediction by ZEFSAII (Michael W. Deem and Ramdas Pophale) SiO2 
 PCOD9568032
Probable space group: P 42/N B C
;
_chemical_formula_sum "Si O2"
_cell_formula_units_Z 56
_cell_length_a 10.844606
_cell_length_b 10.844606
_cell_length_c 20.143959
_cell_angle_alpha 90.000000
_cell_angle_beta 90.000000
_cell_angle_gamma 90.000000
_cell_volume 2369.039953
_symmetry_space_group_name_H-M "P 42/N B C"
_symmetry_group_IT_number 133
_space_group.IT_coordinate_system_code '2'
_symmetry_cell_setting 'tetragonal'
loop_
_space_group_symop_operation_xyz
x,y,z
1/2-y,x,1/2+z
1/2-x,1/2-y,z
y,1/2-x,1/2+z
x,1/2-y,-z
1/2-x,y,-z
y,x,1/2-z
1/2-y,1/2-x,1/2-z
-x,-y,-z
1/2+y,-x,1/2-z
1/2+x,1/2+y,-z
-y,1/2+x,1/2-z
-x,1/2+y,z
1/2+x,-y,z
-y,-x,1/2+z
1/2+y,1/2+x,1/2+z
loop_
_atom_site_type_symbol
_atom_site_label
_atom_site_fract_x
_atom_site_fract_y
_atom_site_fract_z
Si Si1 0.958205 0.750000 0.500000
Si Si2 0.717326 0.949232 0.428919
Si Si3 0.875527 0.669398 0.677339
Si Si4 0.380053 0.819878 0.619477
O O1 0.869428 0.661479 0.456071
O O2 0.053865 0.686240 0.548676
O O3 0.750000 0.011675 0.500000
O O4 0.840006 0.911494 0.388011
O O5 0.648521 0.035083 0.376039
O O6 0.750000 0.750000 0.679799
O O7 0.888493 0.611508 0.750000
O O8 0.010088 0.728249 0.665979
O O9 0.250000 0.750000 0.624012
#
# Coordination Sequence:
#
# PCOD9568032 Si02
#       4
#     8  16  16  16
#     4  12  22  44  72 116 146 198 248 320 382 464
#     4  12  23  44  78 107 147 196 254 313 382 454
#     4  11  25  50  76 102 150 208 257 306 389 473
#     4  12  27  44  74 115 154 187 256 326 386 452
#
# _framework density 23.638266999999999
#
# number of rings (size 3 to 8) (size 9 to 14) (size 15 to 20)
#    0.000    0.286    5.714    3.429    4.000    0.000 
#   10.286    0.000    0.000    0.000    0.000    0.000 
#    0.000    0.000    0.000    0.000    0.000    0.000 
#
# Total GULP energy -311803.977645 kJ/mol
# GULP energy per Si atom -5567.928172 kJ/mol
# Density = 2.358447 g / cm^3
# Si number density = 23.638267 Si / 1000 Ang^3
#
#
#
# Elastic Constant Matrix: (Units=GPa)
#
#
# Indices 1 2 3 4 5 6 
#
# 1 138.7526 58.0583 25.3545 0.0000 0.0000 0.0000
# 2 58.0583 138.7531 25.3546 0.0000 0.0000 0.0000
# 3 25.3545 25.3546 111.7335 0.0000 0.0000 0.0000
# 4 0.0000 0.0000 0.0000 5.9217 0.0000 0.0000
# 5 0.0000 0.0000 0.0000 0.0000 5.9217 0.0000
# 6 0.0000 0.0000 0.0000 0.0000 0.0000 33.9873
#
#
#
# Elastic Compliance Matrix: (Units=1/GPa)
#
#
# Indices 1 2 3 4 5 6 
#
# 1 0.008894 -0.003498 -0.001225 0.000000 0.000000 0.000000
# 2 -0.003498 0.008894 -0.001225 0.000000 0.000000 0.000000
# 3 -0.001225 -0.001225 0.009506 0.000000 0.000000 0.000000
# 4 0.000000 0.000000 0.000000 0.168871 0.000000 0.000000
# 5 0.000000 0.000000 0.000000 0.000000 0.168871 0.000000
# 6 0.000000 0.000000 0.000000 0.000000 0.000000 0.029423
#
#
# Mechanical properties :
#
#
# Convention : Reuss Voigt Hill
#
# Bulk Modulus (GPa) = 64.93351 67.41933 66.17642
# Shear Modulus (GPa) = 12.15106 27.86425 20.00766
#
# Velocity S-wave (km/s) = 2.26971 3.43706 2.91247
# Velocity P-wave (km/s) = 5.86499 6.65840 6.27425
#
# Compressibility (1/GPa) = 0.01540037
#
# Stress axis : x y z
#
# Youngs Moduli (GPa) = 112.42926 112.42958 105.20083
#
# Poissons Ratio (x) = 0.39327 0.12883
# Poissons Ratio (y) = 0.39327 0.12883
# Poissons Ratio (z) = 0.13768 0.13768
#
# Static dielectric constant tensor:
#      x y z
#    x 2.007080 0.000000 0.000000 
#    y 0.000000 2.007080 0.000000 
#    z 0.000000 0.000000 1.927980 
# 
# From -- ./inp_files/6035.got.cif
#   From: 2010.05.17/outbox.cif.g08.bks.cpg/sg133_4_cif.got.tgz:6035.got - 2010.05.20 12:37:36.
