data_PCOD9568645
_publ_section_title
;
Structure prediction by ZEFSAII (Michael W. Deem and Ramdas Pophale) SiO2 
 PCOD9568645
Probable space group: P 42/M B C
;
_chemical_formula_sum "Si O2"
_cell_formula_units_Z 80
_cell_length_a 10.051770
_cell_length_b 10.051770
_cell_length_c 28.415827
_cell_angle_alpha 90.000000
_cell_angle_beta 90.000000
_cell_angle_gamma 90.000000
_cell_volume 2871.080605
_symmetry_space_group_name_H-M "P 42/M B C"
_symmetry_group_IT_number 135
_symmetry_cell_setting 'tetragonal'
loop_
_space_group_symop_operation_xyz
x,y,z
-y,x,1/2+z
-x,-y,z
y,-x,1/2+z
1/2+x,1/2-y,-z
1/2-x,1/2+y,-z
1/2+y,1/2+x,1/2-z
1/2-y,1/2-x,1/2-z
-x,-y,-z
y,-x,1/2-z
x,y,-z
-y,x,1/2-z
1/2-x,1/2+y,z
1/2+x,1/2-y,z
1/2-y,1/2-x,1/2+z
1/2+y,1/2+x,1/2+z
loop_
_atom_site_type_symbol
_atom_site_label
_atom_site_fract_x
_atom_site_fract_y
_atom_site_fract_z
Si Si1 0.287253 0.512411 0.803550
Si Si2 0.989917 0.732039 0.898424
Si Si3 0.593588 0.265500 0.598050
Si Si4 0.260090 0.502886 0.500000
Si Si5 0.001623 0.768257 0.797564
Si Si6 0.513945 0.701568 0.500000
O O1 0.231057 0.484935 0.854788
O O2 0.208675 0.506269 0.754555
O O3 0.392172 0.389942 0.796983
O O4 0.362560 0.653524 0.804504
O O5 0.829728 0.722869 0.900662
O O6 0.022346 0.681986 0.951404
O O7 0.022447 0.684765 0.845149
O O8 0.078636 0.866475 0.899420
O O9 0.513574 0.235483 0.550745
O O10 0.388099 0.599145 0.500000
O O11 0.338872 0.361833 0.500000
#
# Coordination Sequence:
#
# PCOD9568645 Si02
#       6
#    16  16  16   8  16   8
#     4   8  14  26  45  68  91 117 156 203 240 271
#     4  10  19  30  46  68  95 124 153 192 243 298
#     4  10  19  30  46  68  95 124 153 192 243 298
#     4   9  17  30  49  69  86 113 158 204 242 283
#     4   8  14  26  45  68  91 117 156 203 240 271
#     4   9  17  30  49  69  86 113 158 204 242 283
#
# _framework density 27.864072
#
# number of rings (size 3 to 8) (size 9 to 14) (size 15 to 20)
#    0.000    3.000    0.000    3.000    0.000    5.600 
#    0.000    0.000    0.000    6.000    0.000    0.000 
#    0.000   19.200    0.000    0.000    0.000    0.000 
#
# Total GULP energy -445832.679844 kJ/mol
# GULP energy per Si atom -5572.908498 kJ/mol
# Density = 2.780065 g / cm^3
# Si number density = 27.864072 Si / 1000 Ang^3
#
#
#
# Elastic Constant Matrix: (Units=GPa)
#
#
# Indices 1 2 3 4 5 6 
#
# 1 77.1850 87.1157 39.5593 0.0000 0.0000 0.0000
# 2 87.1157 77.1850 39.5593 0.0000 0.0000 0.0000
# 3 39.5593 39.5593 414.6091 0.0000 0.0000 0.0000
# 4 0.0000 0.0000 0.0000 -37.2937 0.0000 0.0000
# 5 0.0000 0.0000 0.0000 0.0000 -37.2937 0.0000
# 6 0.0000 0.0000 0.0000 0.0000 0.0000 66.9593
#
#
#
# Elastic Compliance Matrix: (Units=1/GPa)
#
#
# Indices 1 2 3 4 5 6 
#
# 1 -0.047159 0.053539 -0.000609 0.000000 0.000000 0.000000
# 2 0.053539 -0.047159 -0.000609 0.000000 0.000000 0.000000
# 3 -0.000609 -0.000609 0.002528 0.000000 0.000000 0.000000
# 4 0.000000 0.000000 0.000000 -0.026814 0.000000 0.000000
# 5 0.000000 0.000000 0.000000 0.000000 -0.026814 0.000000
# 6 0.000000 0.000000 0.000000 0.000000 0.000000 0.014934
#
#
# Mechanical properties :
#
#
# Convention : Reuss Voigt Hill
#
# Bulk Modulus (GPa) = 77.80693 100.16086 88.98389
# Shear Modulus (GPa) = -21.65976 25.32402 1.83213
#
# Velocity S-wave (km/s) = -2.79110 3.01797 0.81176
# Velocity P-wave (km/s) = 4.19492 6.94035 5.73436
#
# Compressibility (1/GPa) = 0.01285233
#
# Stress axis : x y z
#
# Youngs Moduli (GPa) = -21.20477 -21.20477 395.55940
#
# Poissons Ratio (x) = 1.13528 0.24077
# Poissons Ratio (y) = 1.13528 0.24077
# Poissons Ratio (z) = -0.01291 -0.01291
#
# Static dielectric constant tensor:
#      x y z
#    x 2.142330 0.000000 0.000000 
#    y 0.000000 2.142330 0.000000 
#    z 0.000000 0.000000 2.180950 
# 
# From -- ./inp_files/6737.got.cif
#   From: 2010.05.17/outbox.cif.g08.bks.cpg/sg135_4_cif.got.tgz:6737.got - 2010.05.20 12:50:20.
