data_PCOD9568259
_publ_section_title
;
Structure prediction by ZEFSAII (Michael W. Deem and Ramdas Pophale) SiO2 
 PCOD9568259
Probable space group: P 42/N N M
;
_chemical_formula_sum "Si O2"
_cell_formula_units_Z 96
_cell_length_a 21.238916
_cell_length_b 21.238916
_cell_length_c 11.093623
_cell_angle_alpha 90.000000
_cell_angle_beta 90.000000
_cell_angle_gamma 90.000000
_cell_volume 5004.239626
_symmetry_space_group_name_H-M "P 42/N N M"
_symmetry_group_IT_number 134
_space_group.IT_coordinate_system_code '2'
_symmetry_cell_setting 'tetragonal'
loop_
_space_group_symop_operation_xyz
x,y,z
1/2-y,x,1/2+z
1/2-x,1/2-y,z
y,1/2-x,1/2+z
x,1/2-y,1/2-z
1/2-x,y,1/2-z
y,x,-z
1/2-y,1/2-x,-z
-x,-y,-z
1/2+y,-x,1/2-z
1/2+x,1/2+y,-z
-y,1/2+x,1/2-z
-x,1/2+y,1/2+z
1/2+x,-y,1/2+z
-y,-x,z
1/2+y,1/2+x,z
loop_
_atom_site_type_symbol
_atom_site_label
_atom_site_fract_x
_atom_site_fract_y
_atom_site_fract_z
Si Si1 0.125520 0.972834 0.367604
Si Si2 0.542374 0.250000 0.750000
Si Si3 0.411571 0.692248 0.005258
Si Si4 0.681381 0.081663 0.117495
Si Si5 0.820851 0.557454 0.212941
Si Si6 0.904969 0.595032 0.000000
Si Si7 0.489454 0.092125 0.407349
O O1 0.077189 0.922812 0.308537
O O2 0.186471 0.992299 0.291025
O O3 0.152815 0.939753 0.487849
O O4 0.091359 0.034708 0.413471
O O5 0.580655 0.273852 0.865792
O O6 0.353071 0.646930 0.009829
O O7 0.401289 0.746768 0.907575
O O8 0.471810 0.648785 0.972319
O O9 0.637400 0.137400 0.165080
O O10 0.679974 0.017836 0.191885
O O11 0.750000 0.576979 0.250000
O O12 0.874348 0.559212 0.315754
O O13 0.845111 0.589292 0.088912
O O14 0.449024 0.050977 0.500000
O O15 0.543197 0.043197 0.356045
#
# Coordination Sequence:
#
# PCOD9568259 Si02
#       7
#    16   8  16  16  16   8  16
#     4   9  18  33  53  82 117 148 190 246 297 347
#     4  10  20  32  52  79 117 162 198 242 298 358
#     4  10  20  35  53  80 120 165 212 255 301 359
#     4   9  18  34  55  80 115 159 202 245 293 350
#     4  11  21  40  63  88 124 157 194 249 310 376
#     4  10  23  36  60  94 115 148 200 244 303 370
#     4  10  22  38  58  88 123 158 199 257 322 373
#
# _framework density 19.183731999999999
#
# number of rings (size 3 to 8) (size 9 to 14) (size 15 to 20)
#    0.000    2.167    1.667    1.250    2.333    3.000 
#    0.000    0.000    0.000    3.250    0.000    5.833 
#    0.000    0.000    0.000    0.000    0.000    0.000 
#
# Total GULP energy -535075.615369 kJ/mol
# GULP energy per Si atom -5573.704327 kJ/mol
# Density = 1.914007 g / cm^3
# Si number density = 19.183732 Si / 1000 Ang^3
#
#
#
# Elastic Constant Matrix: (Units=GPa)
#
#
# Indices 1 2 3 4 5 6 
#
# 1 82.6255 48.7204 27.4012 0.0000 0.0000 0.0000
# 2 48.7204 82.6256 27.4027 0.0000 0.0000 0.0000
# 3 27.4012 27.4027 59.4104 0.0000 0.0000 0.0000
# 4 0.0000 0.0000 0.0000 32.0217 0.0000 0.0000
# 5 0.0000 0.0000 0.0000 0.0000 32.0219 0.0000
# 6 0.0000 0.0000 0.0000 0.0000 0.0000 22.2021
#
#
#
# Elastic Compliance Matrix: (Units=1/GPa)
#
#
# Indices 1 2 3 4 5 6 
#
# 1 0.019461 -0.010033 -0.004348 0.000000 0.000000 0.000000
# 2 -0.010033 0.019461 -0.004349 0.000000 0.000000 0.000000
# 3 -0.004348 -0.004349 0.020843 0.000000 0.000000 0.000000
# 4 0.000000 0.000000 0.000000 0.031229 0.000000 0.000000
# 5 0.000000 0.000000 0.000000 0.000000 0.031229 0.000000
# 6 0.000000 0.000000 0.000000 0.000000 0.000000 0.045041
#
#
# Mechanical properties :
#
#
# Convention : Reuss Voigt Hill
#
# Bulk Modulus (GPa) = 44.83231 47.96779 46.40005
# Shear Modulus (GPa) = 23.56731 25.32497 24.44614
#
# Velocity S-wave (km/s) = 3.50881 3.63730 3.57363
# Velocity P-wave (km/s) = 6.31160 6.53442 6.42398
#
# Compressibility (1/GPa) = 0.02230534
#
# Stress axis : x y z
#
# Youngs Moduli (GPa) = 51.38543 51.38451 47.97701
#
# Poissons Ratio (x) = 0.51555 0.20860
# Poissons Ratio (y) = 0.51555 0.20865
# Poissons Ratio (z) = 0.22342 0.22346
#
# Static dielectric constant tensor:
#      x y z
#    x 1.674830 0.000000 0.000000 
#    y 0.000000 1.674830 0.000000 
#    z 0.000000 0.000000 1.767950 
# 
# From -- ./inp_files/5122.got.cif
#   From: 2010.05.17/outbox.cif.g08.bks.cpg/sg134_3_cif.got.tgz:5122.got - 2010.05.20 12:42:49.
