data_PCOD9568833
_publ_section_title
;
Structure prediction by ZEFSAII (Michael W. Deem and Ramdas Pophale) SiO2 
 PCOD9568833
Probable space group: P 42/M B C
;
_chemical_formula_sum "Si O2"
_cell_formula_units_Z 60
_cell_length_a 14.511837
_cell_length_b 14.511837
_cell_length_c 14.088788
_cell_angle_alpha 90.000000
_cell_angle_beta 90.000000
_cell_angle_gamma 90.000000
_cell_volume 2967.005952
_symmetry_space_group_name_H-M "P 42/M B C"
_symmetry_group_IT_number 135
_symmetry_cell_setting 'tetragonal'
loop_
_space_group_symop_operation_xyz
x,y,z
-y,x,1/2+z
-x,-y,z
y,-x,1/2+z
1/2+x,1/2-y,-z
1/2-x,1/2+y,-z
1/2+y,1/2+x,1/2-z
1/2-y,1/2-x,1/2-z
-x,-y,-z
y,-x,1/2-z
x,y,-z
-y,x,1/2-z
1/2-x,1/2+y,z
1/2+x,1/2-y,z
1/2-y,1/2-x,1/2+z
1/2+y,1/2+x,1/2+z
loop_
_atom_site_type_symbol
_atom_site_label
_atom_site_fract_x
_atom_site_fract_y
_atom_site_fract_z
Si Si1 0.234782 0.880760 0.000000
Si Si2 0.692319 0.980408 0.152863
Si Si3 0.643107 0.497263 0.288578
Si Si4 0.182927 0.678530 0.000000
Si Si5 0.500000 0.000000 0.250000
Si Si6 0.032907 0.827867 0.000000
O O1 0.275481 0.933363 0.910334
O O2 0.124086 0.892513 0.000000
O O3 0.246727 0.770108 0.000000
O O4 0.758356 0.976567 0.243593
O O5 0.589335 0.996913 0.185000
O O6 0.698026 0.887447 0.090149
O O7 0.579454 0.408428 0.266605
O O8 0.652249 0.516698 0.400728
O O9 0.080849 0.726083 0.000000
#
# Coordination Sequence:
#
# PCOD9568833 Si02
#       6
#     8  16  16   8   4   8
#     4   9  21  43  66  93 129 171 216 274 320 398
#     4  11  23  44  63  97 133 169 228 266 324 388
#     4  11  23  39  68  98 130 165 203 273 336 399
#     4   9  21  41  70  90 129 175 208 281 323 373
#     4  12  28  38  64  92 132 194 220 274 312 388
#     4  10  20  41  61  97 130 165 210 254 329 391
#
# _framework density 20.222405999999999
#
# number of rings (size 3 to 8) (size 9 to 14) (size 15 to 20)
#    0.800    0.800    2.667    1.600    0.000    8.533 
#    0.000    5.333    0.000    0.000    0.000    0.000 
#    0.000    0.000    0.000    0.000    0.000    0.000 
#
# Total GULP energy -334907.526255 kJ/mol
# GULP energy per Si atom -5581.792104 kJ/mol
# Density = 2.017638 g / cm^3
# Si number density = 20.222406 Si / 1000 Ang^3
#
#
#
# Elastic Constant Matrix: (Units=GPa)
#
#
# Indices 1 2 3 4 5 6 
#
# 1 98.5619 5.2718 23.6996 0.0000 0.0000 0.0000
# 2 5.2718 98.5619 23.6996 0.0000 0.0000 0.0000
# 3 23.6996 23.6996 136.9714 0.0000 0.0000 0.0000
# 4 0.0000 0.0000 0.0000 23.5199 0.0000 0.0000
# 5 0.0000 0.0000 0.0000 0.0000 23.5199 0.0000
# 6 0.0000 0.0000 0.0000 0.0000 0.0000 10.8100
#
#
#
# Elastic Compliance Matrix: (Units=1/GPa)
#
#
# Indices 1 2 3 4 5 6 
#
# 1 0.010588 -0.000131 -0.001809 0.000000 0.000000 0.000000
# 2 -0.000131 0.010588 -0.001809 0.000000 0.000000 0.000000
# 3 -0.001809 -0.001809 0.007927 0.000000 0.000000 0.000000
# 4 0.000000 0.000000 0.000000 0.042517 0.000000 0.000000
# 5 0.000000 0.000000 0.000000 0.000000 0.042517 0.000000
# 6 0.000000 0.000000 0.000000 0.000000 0.000000 0.092507
#
#
# Mechanical properties :
#
#
# Convention : Reuss Voigt Hill
#
# Bulk Modulus (GPa) = 46.28946 48.82635 47.55791
# Shear Modulus (GPa) = 22.58921 30.33157 26.46039
#
# Velocity S-wave (km/s) = 3.34584 3.87705 3.62120
# Velocity P-wave (km/s) = 6.15354 6.65125 6.40723
#
# Compressibility (1/GPa) = 0.02160319
#
# Stress axis : x y z
#
# Youngs Moduli (GPa) = 94.44669 94.44669 126.15269
#
# Poissons Ratio (x) = 0.01240 0.22825
# Poissons Ratio (y) = 0.01240 0.22825
# Poissons Ratio (z) = 0.17088 0.17088
#
# Static dielectric constant tensor:
#      x y z
#    x 1.720330 0.000000 0.000000 
#    y 0.000000 1.720330 0.000000 
#    z 0.000000 0.000000 1.711950 
# 
# From -- ./inp_files/3246.got.cif
#   From: 2010.05.17/outbox.cif.g08.bks.cpg/sg135_2_cif.got.tgz:3246.got - 2010.05.20 12:50:20.
