data_PCOD9568717
_publ_section_title
;
Structure prediction by ZEFSAII (Michael W. Deem and Ramdas Pophale) SiO2 
 PCOD9568717
Probable space group: P 42/M B C
;
_chemical_formula_sum "Si O2"
_cell_formula_units_Z 64
_cell_length_a 12.929662
_cell_length_b 12.929662
_cell_length_c 17.094266
_cell_angle_alpha 90.000000
_cell_angle_beta 90.000000
_cell_angle_gamma 90.000000
_cell_volume 2857.753738
_symmetry_space_group_name_H-M "P 42/M B C"
_symmetry_group_IT_number 135
_symmetry_cell_setting 'tetragonal'
loop_
_space_group_symop_operation_xyz
x,y,z
-y,x,1/2+z
-x,-y,z
y,-x,1/2+z
1/2+x,1/2-y,-z
1/2-x,1/2+y,-z
1/2+y,1/2+x,1/2-z
1/2-y,1/2-x,1/2-z
-x,-y,-z
y,-x,1/2-z
x,y,-z
-y,x,1/2-z
1/2-x,1/2+y,z
1/2+x,1/2-y,z
1/2-y,1/2-x,1/2+z
1/2+y,1/2+x,1/2+z
loop_
_atom_site_type_symbol
_atom_site_label
_atom_site_fract_x
_atom_site_fract_y
_atom_site_fract_z
Si Si1 0.401422 0.221548 0.862325
Si Si2 0.389257 0.848249 0.834153
Si Si3 0.298981 0.621408 0.184307
Si Si4 0.319549 0.432818 0.911407
O O1 0.504039 0.158203 0.879919
O O2 0.403208 0.258105 0.770991
O O3 0.300789 0.149764 0.868580
O O4 0.387446 0.328838 0.907230
O O5 0.402285 0.902285 0.750000
O O6 0.361451 0.728406 0.813839
O O7 0.293249 0.897009 0.879745
O O8 0.355277 0.524160 0.146136
O O9 0.315306 0.470093 0.000000
#
# Coordination Sequence:
#
# PCOD9568717 Si02
#       4
#    16  16  16  16
#     4  10  20  38  64  89 121 168 218 248 308 380
#     4  11  20  39  65  91 120 162 216 258 309 373
#     4  10  19  38  62  91 123 164 210 259 304 375
#     4  11  24  40  60  93 131 162 203 266 324 365
#
# _framework density 22.395211
#
# number of rings (size 3 to 8) (size 9 to 14) (size 15 to 20)
#    0.000    1.500    7.500    0.000    0.000    7.000 
#    0.000    5.000    0.000    0.000    0.000    0.000 
#    0.000    0.000    0.000    0.000    0.000    0.000 
#
# Total GULP energy -357768.292183 kJ/mol
# GULP energy per Si atom -5590.129565 kJ/mol
# Density = 2.234424 g / cm^3
# Si number density = 22.395211 Si / 1000 Ang^3
#
#
#
# Elastic Constant Matrix: (Units=GPa)
#
#
# Indices 1 2 3 4 5 6 
#
# 1 50.5689 10.1189 -7.2470 0.0000 0.0000 0.0000
# 2 10.1189 50.5689 -7.2470 0.0000 0.0000 0.0000
# 3 -7.2470 -7.2470 65.0145 0.0000 0.0000 0.0000
# 4 0.0000 0.0000 0.0000 8.6430 0.0000 0.0000
# 5 0.0000 0.0000 0.0000 0.0000 8.6430 0.0000
# 6 0.0000 0.0000 0.0000 0.0000 0.0000 11.2395
#
#
#
# Elastic Compliance Matrix: (Units=1/GPa)
#
#
# Indices 1 2 3 4 5 6 
#
# 1 0.020825 -0.003897 0.001887 0.000000 0.000000 0.000000
# 2 -0.003897 0.020825 0.001887 0.000000 0.000000 0.000000
# 3 0.001887 0.001887 0.015802 0.000000 0.000000 0.000000
# 4 0.000000 0.000000 0.000000 0.115701 0.000000 0.000000
# 5 0.000000 0.000000 0.000000 0.000000 0.115701 0.000000
# 6 0.000000 0.000000 0.000000 0.000000 0.000000 0.088972
#
#
# Mechanical properties :
#
#
# Convention : Reuss Voigt Hill
#
# Bulk Modulus (GPa) = 17.48049 17.48912 17.48480
# Shear Modulus (GPa) = 12.58998 17.07357 14.83178
#
# Velocity S-wave (km/s) = 2.37359 2.76411 2.57626
# Velocity P-wave (km/s) = 3.91591 4.24421 4.08336
#
# Compressibility (1/GPa) = 0.05720663
#
# Stress axis : x y z
#
# Youngs Moduli (GPa) = 48.01886 48.01886 63.28373
#
# Poissons Ratio (x) = 0.18712 -0.11941
# Poissons Ratio (y) = 0.18712 -0.11941
# Poissons Ratio (z) = -0.09061 -0.09061
#
# Static dielectric constant tensor:
#      x y z
#    x 1.855290 0.000000 0.000000 
#    y 0.000000 1.855290 0.000000 
#    z 0.000000 0.000000 1.797820 
# 
# From -- ./inp_files/3129.got.cif
#   From: 2010.05.17/outbox.cif.g08.bks.cpg/sg135_2_cif.got.tgz:3129.got - 2010.05.20 12:50:20.
