data_PCOD9568120
_publ_section_title
;
Structure prediction by ZEFSAII (Michael W. Deem and Ramdas Pophale) SiO2 
 PCOD9568120
Probable space group: P 42/N N M
;
_chemical_formula_sum "Si O2"
_cell_formula_units_Z 64
_cell_length_a 13.990130
_cell_length_b 13.990130
_cell_length_c 20.716197
_cell_angle_alpha 90.000000
_cell_angle_beta 90.000000
_cell_angle_gamma 90.000000
_cell_volume 4054.651502
_symmetry_space_group_name_H-M "P 42/N N M"
_symmetry_group_IT_number 134
_space_group.IT_coordinate_system_code '2'
_symmetry_cell_setting 'tetragonal'
loop_
_space_group_symop_operation_xyz
x,y,z
1/2-y,x,1/2+z
1/2-x,1/2-y,z
y,1/2-x,1/2+z
x,1/2-y,1/2-z
1/2-x,y,1/2-z
y,x,-z
1/2-y,1/2-x,-z
-x,-y,-z
1/2+y,-x,1/2-z
1/2+x,1/2+y,-z
-y,1/2+x,1/2-z
-x,1/2+y,1/2+z
1/2+x,-y,1/2+z
-y,-x,z
1/2+y,1/2+x,z
loop_
_atom_site_type_symbol
_atom_site_label
_atom_site_fract_x
_atom_site_fract_y
_atom_site_fract_z
Si Si1 0.496426 0.350422 0.681044
Si Si2 0.146546 0.301935 0.427666
Si Si3 0.962584 0.887444 0.568734
Si Si4 0.029415 0.131168 0.825765
O O1 0.597958 0.402043 0.686432
O O2 0.438477 0.400391 0.624051
O O3 0.444538 0.371170 0.749445
O O4 0.509514 0.239076 0.667617
O O5 0.250000 0.250000 0.415082
O O6 0.156023 0.343978 0.500000
O O7 0.062278 0.223640 0.426706
O O8 0.126243 0.381923 0.374333
O O9 0.922361 0.922361 0.500000
O O10 0.069735 0.930266 0.574398
O O11 0.950411 0.049590 0.838157
#
# Coordination Sequence:
#
# PCOD9568120 Si02
#       4
#    16  16  16  16
#     4   9  18  32  48  73 103 130 167 204 248 312
#     4  11  19  33  51  76 102 128 170 217 255 301
#     4  10  18  31  51  72  98 132 166 208 256 300
#     4  10  20  32  48  72 103 135 166 206 256 306
#
# _framework density 15.78434
#
# number of rings (size 3 to 8) (size 9 to 14) (size 15 to 20)
#    0.000    2.000    5.000    0.000    0.000    2.000 
#    0.000    2.500    0.000    0.750    0.000    0.000 
#    0.000    6.000    0.000    0.250    0.000    0.000 
#
# Total GULP energy -356380.921394 kJ/mol
# GULP energy per Si atom -5568.451897 kJ/mol
# Density = 1.574841 g / cm^3
# Si number density = 15.784340 Si / 1000 Ang^3
#
#
#
# Elastic Constant Matrix: (Units=GPa)
#
#
# Indices 1 2 3 4 5 6 
#
# 1 87.5970 63.6890 62.8807 0.0000 0.0000 0.0000
# 2 63.6890 87.5967 62.8807 0.0000 0.0000 0.0000
# 3 62.8807 62.8807 119.6474 0.0000 0.0000 0.0000
# 4 0.0000 0.0000 0.0000 25.6385 0.0000 0.0000
# 5 0.0000 0.0000 0.0000 0.0000 25.6385 0.0000
# 6 0.0000 0.0000 0.0000 0.0000 0.0000 26.3798
#
#
#
# Elastic Compliance Matrix: (Units=1/GPa)
#
#
# Indices 1 2 3 4 5 6 
#
# 1 0.026783 -0.015045 -0.006169 0.000000 0.000000 0.000000
# 2 -0.015045 0.026783 -0.006169 0.000000 0.000000 0.000000
# 3 -0.006169 -0.006169 0.014842 0.000000 0.000000 0.000000
# 4 0.000000 0.000000 0.000000 0.039004 0.000000 0.000000
# 5 0.000000 0.000000 0.000000 0.000000 0.039004 0.000000
# 6 0.000000 0.000000 0.000000 0.000000 0.000000 0.037908
#
#
# Mechanical properties :
#
#
# Convention : Reuss Voigt Hill
#
# Bulk Modulus (GPa) = 73.30037 74.86020 74.08028
# Shear Modulus (GPa) = 20.52244 22.55739 21.53991
#
# Velocity S-wave (km/s) = 3.60971 3.78444 3.69811
# Velocity P-wave (km/s) = 7.99455 8.16247 8.07894
#
# Compressibility (1/GPa) = 0.01364250
#
# Stress axis : x y z
#
# Youngs Moduli (GPa) = 37.33758 37.33738 67.37566
#
# Poissons Ratio (x) = 0.56172 0.41564
# Poissons Ratio (y) = 0.56173 0.41564
# Poissons Ratio (z) = 0.23033 0.23034
#
# Static dielectric constant tensor:
#      x y z
#    x 1.526220 0.000000 0.000000 
#    y 0.000000 1.526220 0.000000 
#    z 0.000000 0.000000 1.541540 
# 
# From -- ./inp_files/7411.got.cif
#   From: 2010.05.17/outbox.cif.g08.bks.cpg/sg134_4_cif.got.tgz:7411.got - 2010.05.20 12:42:49.
