data_PCOD9568516
_publ_section_title
;
Structure prediction by ZEFSAII (Michael W. Deem and Ramdas Pophale) SiO2 
 PCOD9568516
Probable space group: P 42/N N M
;
_chemical_formula_sum "Si O2"
_cell_formula_units_Z 42
_cell_length_a 11.093864
_cell_length_b 11.093864
_cell_length_c 17.063135
_cell_angle_alpha 90.000000
_cell_angle_beta 90.000000
_cell_angle_gamma 90.000000
_cell_volume 2100.025179
_symmetry_space_group_name_H-M "P 42/N N M"
_symmetry_group_IT_number 134
_space_group.IT_coordinate_system_code '2'
_symmetry_cell_setting 'tetragonal'
loop_
_space_group_symop_operation_xyz
x,y,z
1/2-y,x,1/2+z
1/2-x,1/2-y,z
y,1/2-x,1/2+z
x,1/2-y,1/2-z
1/2-x,y,1/2-z
y,x,-z
1/2-y,1/2-x,-z
-x,-y,-z
1/2+y,-x,1/2-z
1/2+x,1/2+y,-z
-y,1/2+x,1/2-z
-x,1/2+y,1/2+z
1/2+x,-y,1/2+z
-y,-x,z
1/2+y,1/2+x,z
loop_
_atom_site_type_symbol
_atom_site_label
_atom_site_fract_x
_atom_site_fract_y
_atom_site_fract_z
Si Si1 0.059896 0.940105 0.329155
Si Si2 0.887549 0.387549 0.273356
Si Si3 0.001377 0.998624 0.907303
Si Si4 0.250000 0.750000 0.250000
Si Si5 0.610436 0.753935 0.345624
O O1 0.157665 0.842336 0.294620
O O2 0.962562 0.861574 0.374668
O O3 0.979952 0.020049 0.268375
O O4 0.915445 0.250000 0.250000
O O5 0.906288 0.406288 0.365735
O O6 0.043429 0.128448 0.876352
O O7 0.000000 0.000000 0.000000
O O8 0.750000 0.750000 0.367807
O O9 0.604751 0.750000 0.250000
#
# Coordination Sequence:
#
# PCOD9568516 Si02
#       5
#     8   8   8   2  16
#     4  12  19  34  61  93 123 161 231 269 303 388
#     4  11  22  40  67  93 123 177 231 262 315 408
#     4  12  25  42  64 101 139 169 212 290 345 374
#     4  12  20  24  48  88 128 144 200 280 334 336
#     4  11  21  38  66  95 127 178 227 264 322 403
#
# _framework density 19.999762
#
# number of rings (size 3 to 8) (size 9 to 14) (size 15 to 20)
#    0.000    0.571    5.714    3.429    0.000    0.762 
#    0.000    3.810    0.000    4.571    0.000    0.000 
#    0.000    0.000    0.000    0.000    0.000    0.000 
#
# Total GULP energy -234491.495820 kJ/mol
# GULP energy per Si atom -5583.130853 kJ/mol
# Density = 1.995424 g / cm^3
# Si number density = 19.999762 Si / 1000 Ang^3
#
#
#
# Elastic Constant Matrix: (Units=GPa)
#
#
# Indices 1 2 3 4 5 6 
#
# 1 177.6517 95.1669 47.6150 0.0000 0.0000 0.0000
# 2 95.1669 177.6517 47.6150 0.0000 0.0000 0.0000
# 3 47.6150 47.6150 94.7615 0.0000 0.0000 0.0000
# 4 0.0000 0.0000 0.0000 8.4746 0.0000 0.0000
# 5 0.0000 0.0000 0.0000 0.0000 8.4746 0.0000
# 6 0.0000 0.0000 0.0000 0.0000 0.0000 37.4540
#
#
#
# Elastic Compliance Matrix: (Units=1/GPa)
#
#
# Indices 1 2 3 4 5 6 
#
# 1 0.008284 -0.003839 -0.002234 0.000000 0.000000 0.000000
# 2 -0.003839 0.008284 -0.002234 0.000000 0.000000 0.000000
# 3 -0.002234 -0.002234 0.012797 0.000000 0.000000 0.000000
# 4 0.000000 0.000000 0.000000 0.118000 0.000000 0.000000
# 5 0.000000 0.000000 0.000000 0.000000 0.118000 0.000000
# 6 0.000000 0.000000 0.000000 0.000000 0.000000 0.026699
#
#
# Mechanical properties :
#
#
# Convention : Reuss Voigt Hill
#
# Bulk Modulus (GPa) = 78.41031 92.31763 85.36397
# Shear Modulus (GPa) = 15.97804 28.19183 22.08493
#
# Velocity S-wave (km/s) = 2.82957 3.75855 3.32665
# Velocity P-wave (km/s) = 7.06866 8.06816 7.58489
#
# Compressibility (1/GPa) = 0.01275343
#
# Stress axis : x y z
#
# Youngs Moduli (GPa) = 120.71085 120.71085 78.14101
#
# Poissons Ratio (x) = 0.46343 0.17453
# Poissons Ratio (y) = 0.46343 0.17453
# Poissons Ratio (z) = 0.26961 0.26961
#
# Static dielectric constant tensor:
#      x y z
#    x 1.760330 0.000000 0.000000 
#    y 0.000000 1.760330 0.000000 
#    z 0.000000 0.000000 1.707400 
# 
# From -- ./inp_files/7153.got.cif
#   From: 2010.05.17/outbox.cif.g08.bks.cpg/sg134_4_cif.got.tgz:7153.got - 2010.05.20 12:42:49.
