data_PCOD9568444
_publ_section_title
;
Structure prediction by ZEFSAII (Michael W. Deem and Ramdas Pophale) SiO2 
 PCOD9568444
Probable space group: P 42/N N M
;
_chemical_formula_sum "Si O2"
_cell_formula_units_Z 34
_cell_length_a 11.684563
_cell_length_b 11.684563
_cell_length_c 13.171297
_cell_angle_alpha 90.000000
_cell_angle_beta 90.000000
_cell_angle_gamma 90.000000
_cell_volume 1798.264173
_symmetry_space_group_name_H-M "P 42/N N M"
_symmetry_group_IT_number 134
_space_group.IT_coordinate_system_code '2'
_symmetry_cell_setting 'tetragonal'
loop_
_space_group_symop_operation_xyz
x,y,z
1/2-y,x,1/2+z
1/2-x,1/2-y,z
y,1/2-x,1/2+z
x,1/2-y,1/2-z
1/2-x,y,1/2-z
y,x,-z
1/2-y,1/2-x,-z
-x,-y,-z
1/2+y,-x,1/2-z
1/2+x,1/2+y,-z
-y,1/2+x,1/2-z
-x,1/2+y,1/2+z
1/2+x,-y,1/2+z
-y,-x,z
1/2+y,1/2+x,z
loop_
_atom_site_type_symbol
_atom_site_label
_atom_site_fract_x
_atom_site_fract_y
_atom_site_fract_z
Si Si1 0.839383 0.160618 0.943775
Si Si2 0.446174 0.750000 0.750000
Si Si3 0.069891 0.243499 0.466083
Si Si4 0.250000 0.750000 0.250000
O O1 0.750000 0.250000 0.992611
O O2 0.825959 0.174042 0.823597
O O3 0.960929 0.206339 0.975631
O O4 0.360924 0.639077 0.755420
O O5 0.527577 0.743274 0.650748
O O6 0.120030 0.120030 0.500000
O O7 0.167785 0.332216 0.500000
#
# Coordination Sequence:
#
# PCOD9568444 Si02
#       4
#     8   8  16   2
#     4  10  21  43  61  96 131 176 223 284 331 417
#     4  11  24  43  70 100 134 187 231 278 352 416
#     4  11  25  43  69  99 139 178 230 288 345 416
#     4   8  24  36  64  94 132 172 220 288 340 398
#
# _framework density 18.907122999999999
#
# number of rings (size 3 to 8) (size 9 to 14) (size 15 to 20)
#    0.706    0.706    2.353    2.118    0.000   11.294 
#    0.000    0.000    0.000    0.000    0.000    0.000 
#    0.000    0.000    0.000    0.000    0.000    0.000 
#
# Total GULP energy -189281.658819 kJ/mol
# GULP energy per Si atom -5567.107612 kJ/mol
# Density = 1.886409 g / cm^3
# Si number density = 18.907123 Si / 1000 Ang^3
#
#
#
# Elastic Constant Matrix: (Units=GPa)
#
#
# Indices 1 2 3 4 5 6 
#
# 1 169.9460 42.8969 69.7402 0.0000 0.0000 0.0000
# 2 42.8969 169.9528 69.7419 0.0000 0.0000 0.0000
# 3 69.7402 69.7419 205.0824 0.0000 0.0000 0.0000
# 4 0.0000 0.0000 0.0000 36.5610 0.0000 0.0000
# 5 0.0000 0.0000 0.0000 0.0000 36.5609 0.0000
# 6 0.0000 0.0000 0.0000 0.0000 0.0000 42.6647
#
#
#
# Elastic Compliance Matrix: (Units=1/GPa)
#
#
# Indices 1 2 3 4 5 6 
#
# 1 0.006958 -0.000913 -0.002056 0.000000 0.000000 0.000000
# 2 -0.000913 0.006958 -0.002056 0.000000 0.000000 0.000000
# 3 -0.002056 -0.002056 0.006274 0.000000 0.000000 0.000000
# 4 0.000000 0.000000 0.000000 0.027352 0.000000 0.000000
# 5 0.000000 0.000000 0.000000 0.000000 0.027352 0.000000
# 6 0.000000 0.000000 0.000000 0.000000 0.000000 0.023439
#
#
# Mechanical properties :
#
#
# Convention : Reuss Voigt Hill
#
# Bulk Modulus (GPa) = 98.60110 101.08214 99.84162
# Shear Modulus (GPa) = 44.73808 47.33078 46.03443
#
# Velocity S-wave (km/s) = 4.86964 5.00876 4.93969
# Velocity P-wave (km/s) = 9.15867 9.32892 9.24419
#
# Compressibility (1/GPa) = 0.01014187
#
# Stress axis : x y z
#
# Youngs Moduli (GPa) = 143.71442 143.71995 159.37980
#
# Poissons Ratio (x) = 0.13117 0.32766
# Poissons Ratio (y) = 0.13116 0.32766
# Poissons Ratio (z) = 0.29546 0.29546
#
# Static dielectric constant tensor:
#      x y z
#    x 1.752320 0.000000 0.000000 
#    y 0.000000 1.752320 0.000000 
#    z 0.000000 0.000000 1.684630 
# 
# From -- ./inp_files/3797.got.cif
#   From: 2010.05.17/outbox.cif.g08.bks.cpg/sg134_2_cif.got.tgz:3797.got - 2010.05.20 12:42:49.
