data_PCOD9568108
_publ_section_title
;
Structure prediction by ZEFSAII (Michael W. Deem and Ramdas Pophale) SiO2 
 PCOD9568108
Probable space group: P 42/N N M
;
_chemical_formula_sum "Si O2"
_cell_formula_units_Z 120
_cell_length_a 21.176720
_cell_length_b 21.176720
_cell_length_c 13.960344
_cell_angle_alpha 90.000000
_cell_angle_beta 90.000000
_cell_angle_gamma 90.000000
_cell_volume 6260.564709
_symmetry_space_group_name_H-M "P 42/N N M"
_symmetry_group_IT_number 134
_space_group.IT_coordinate_system_code '2'
_symmetry_cell_setting 'tetragonal'
loop_
_space_group_symop_operation_xyz
x,y,z
1/2-y,x,1/2+z
1/2-x,1/2-y,z
y,1/2-x,1/2+z
x,1/2-y,1/2-z
1/2-x,y,1/2-z
y,x,-z
1/2-y,1/2-x,-z
-x,-y,-z
1/2+y,-x,1/2-z
1/2+x,1/2+y,-z
-y,1/2+x,1/2-z
-x,1/2+y,1/2+z
1/2+x,-y,1/2+z
-y,-x,z
1/2+y,1/2+x,z
loop_
_atom_site_type_symbol
_atom_site_label
_atom_site_fract_x
_atom_site_fract_y
_atom_site_fract_z
Si Si1 0.843616 0.605069 0.911332
Si Si2 0.732258 0.677575 0.856615
Si Si3 0.749793 0.516596 0.540953
Si Si4 0.583480 0.312455 0.069353
Si Si5 0.198614 0.439812 0.832301
Si Si6 0.896806 0.999224 0.204101
Si Si7 0.854873 0.250000 0.250000
Si Si8 0.908363 0.872649 0.102403
O O1 0.778237 0.642641 0.930620
O O2 0.879251 0.652377 0.840263
O O3 0.891554 0.608447 0.000000
O O4 0.812946 0.536073 0.897917
O O5 0.750000 0.750000 0.859746
O O6 0.750000 0.653299 0.750000
O O7 0.660775 0.659397 0.878608
O O8 0.770836 0.445782 0.515298
O O9 0.731195 0.543494 0.433691
O O10 0.811930 0.546132 0.592447
O O11 0.641744 0.358257 0.043129
O O12 0.529064 0.357660 0.115005
O O13 0.605043 0.268624 0.157491
O O14 0.250000 0.429900 0.750000
O O15 0.151659 0.493744 0.792431
O O16 0.920100 0.928985 0.176223
O O17 0.954116 0.045885 0.224573
O O18 0.809448 0.190553 0.270862
O O19 0.905316 0.905316 0.000000
#
# Coordination Sequence:
#
# PCOD9568108 Si02
#       8
#    16  16  16  16  16  16   8  16
#     4   9  21  31  46  69  96 134 174 216 274 314
#     4  10  22  29  43  68  96 129 175 222 263 314
#     4  10  20  35  49  73 106 140 177 229 267 322
#     4  10  18  30  50  74 100 137 172 206 269 329
#     4  11  19  34  58  75 102 144 188 232 276 332
#     4  11  23  35  54  79 106 143 186 230 273 333
#     4   9  18  32  52  82 110 126 159 220 278 334
#     4  11  21  34  47  69 102 141 175 219 274 316
#
# _framework density 19.1676
#
# number of rings (size 3 to 8) (size 9 to 14) (size 15 to 20)
#    0.000    1.800    2.667    1.600    9.333    0.800 
#    0.000    0.000    0.000    4.400    0.000    0.000 
#    0.000    0.000    0.000    0.000    0.000    1.600 
#
# Total GULP energy -668307.785494 kJ/mol
# GULP energy per Si atom -5569.231546 kJ/mol
# Density = 1.912397 g / cm^3
# Si number density = 19.167600 Si / 1000 Ang^3
#
#
#
# Elastic Constant Matrix: (Units=GPa)
#
#
# Indices 1 2 3 4 5 6 
#
# 1 84.1403 48.5366 19.0087 0.0000 0.0000 0.0000
# 2 48.5366 84.1406 19.0088 0.0000 0.0000 0.0000
# 3 19.0087 19.0088 42.2269 0.0000 0.0000 0.0000
# 4 0.0000 0.0000 0.0000 21.1101 0.0000 0.0000
# 5 0.0000 0.0000 0.0000 0.0000 21.1099 0.0000
# 6 0.0000 0.0000 0.0000 0.0000 0.0000 33.7579
#
#
#
# Elastic Compliance Matrix: (Units=1/GPa)
#
#
# Indices 1 2 3 4 5 6 
#
# 1 0.018370 -0.009717 -0.003895 0.000000 0.000000 0.000000
# 2 -0.009717 0.018370 -0.003895 0.000000 0.000000 0.000000
# 3 -0.003895 -0.003895 0.027189 0.000000 0.000000 0.000000
# 4 0.000000 0.000000 0.000000 0.047371 0.000000 0.000000
# 5 0.000000 0.000000 0.000000 0.000000 0.047371 0.000000
# 6 0.000000 0.000000 0.000000 0.000000 0.000000 0.029623
#
#
# Mechanical properties :
#
#
# Convention : Reuss Voigt Hill
#
# Bulk Modulus (GPa) = 34.58551 42.62399 38.60475
# Shear Modulus (GPa) = 21.46417 23.45914 22.46166
#
# Velocity S-wave (km/s) = 3.34999 3.50222 3.42695
# Velocity P-wave (km/s) = 5.74858 6.21609 5.98690
#
# Compressibility (1/GPa) = 0.02891384
#
# Stress axis : x y z
#
# Youngs Moduli (GPa) = 54.43626 54.43640 36.78008
#
# Poissons Ratio (x) = 0.52895 0.14327
# Poissons Ratio (y) = 0.52895 0.14327
# Poissons Ratio (z) = 0.21205 0.21205
#
# Static dielectric constant tensor:
#      x y z
#    x 1.727070 0.000000 0.000000 
#    y 0.000000 1.727070 0.000000 
#    z 0.000000 0.000000 1.753720 
# 
# From -- ./inp_files/6723.got.cif
#   From: 2010.05.17/outbox.cif.g08.bks.cpg/sg134_4_cif.got.tgz:6723.got - 2010.05.20 12:42:49.
