data_PCOD9568074
_publ_section_title
;
Structure prediction by ZEFSAII (Michael W. Deem and Ramdas Pophale) SiO2 
 PCOD9568074
Probable space group: P 42/N N M
;
_chemical_formula_sum "Si O2"
_cell_formula_units_Z 36
_cell_length_a 14.248558
_cell_length_b 14.248558
_cell_length_c 10.099484
_cell_angle_alpha 90.000000
_cell_angle_beta 90.000000
_cell_angle_gamma 90.000000
_cell_volume 2050.411432
_symmetry_space_group_name_H-M "P 42/N N M"
_symmetry_group_IT_number 134
_space_group.IT_coordinate_system_code '2'
_symmetry_cell_setting 'tetragonal'
loop_
_space_group_symop_operation_xyz
x,y,z
1/2-y,x,1/2+z
1/2-x,1/2-y,z
y,1/2-x,1/2+z
x,1/2-y,1/2-z
1/2-x,y,1/2-z
y,x,-z
1/2-y,1/2-x,-z
-x,-y,-z
1/2+y,-x,1/2-z
1/2+x,1/2+y,-z
-y,1/2+x,1/2-z
-x,1/2+y,1/2+z
1/2+x,-y,1/2+z
-y,-x,z
1/2+y,1/2+x,z
loop_
_atom_site_type_symbol
_atom_site_label
_atom_site_fract_x
_atom_site_fract_y
_atom_site_fract_z
Si Si1 0.508431 0.639146 0.411758
Si Si2 0.750000 0.750000 0.250000
Si Si3 0.925858 0.844244 0.118852
O O1 0.586025 0.586025 0.500000
O O2 0.409240 0.590761 0.443742
O O3 0.530908 0.621930 0.256741
O O4 0.519071 0.750625 0.426888
O O5 0.820303 0.810778 0.159872
O O6 0.916323 0.916323 0.000000
#
# Coordination Sequence:
#
# PCOD9568074 Si02
#       3
#    16   4  16
#     4   9  18  30  43  65  98 125 146 187 244 280
#     4   8  14  24  40  66  90 110 140 188 234 264
#     4  10  17  27  47  68  90 120 159 193 224 275
#
# _framework density 17.557451
#
# number of rings (size 3 to 8) (size 9 to 14) (size 15 to 20)
#    0.000    3.111    0.000    6.000    0.000    0.889 
#    0.000    0.000    0.000   10.667    0.000    0.000 
#    0.000   14.222    0.000    0.000    0.000    0.000 
#
# Total GULP energy -200510.787041 kJ/mol
# GULP energy per Si atom -5569.744084 kJ/mol
# Density = 1.751749 g / cm^3
# Si number density = 17.557451 Si / 1000 Ang^3
#
#
#
# Elastic Constant Matrix: (Units=GPa)
#
#
# Indices 1 2 3 4 5 6 
#
# 1 45.1305 55.6611 22.0559 0.0000 0.0000 0.0000
# 2 55.6611 45.1305 22.0559 0.0000 0.0000 0.0000
# 3 22.0559 22.0559 77.0881 0.0000 0.0000 0.0000
# 4 0.0000 0.0000 0.0000 -10.3894 0.0000 0.0000
# 5 0.0000 0.0000 0.0000 0.0000 -10.3894 0.0000
# 6 0.0000 0.0000 0.0000 0.0000 0.0000 39.1280
#
#
#
# Elastic Compliance Matrix: (Units=1/GPa)
#
#
# Indices 1 2 3 4 5 6 
#
# 1 -0.041810 0.053151 -0.003245 0.000000 0.000000 0.000000
# 2 0.053151 -0.041810 -0.003245 0.000000 0.000000 0.000000
# 3 -0.003245 -0.003245 0.014829 0.000000 0.000000 0.000000
# 4 0.000000 0.000000 0.000000 -0.096252 0.000000 0.000000
# 5 0.000000 0.000000 0.000000 0.000000 -0.096252 0.000000
# 6 0.000000 0.000000 0.000000 0.000000 0.000000 0.025557
#
#
# Mechanical properties :
#
#
# Convention : Reuss Voigt Hill
#
# Bulk Modulus (GPa) = 40.76250 40.76612 40.76431
# Shear Modulus (GPa) = -15.58204 8.17492 -3.70356
#
# Velocity S-wave (km/s) = -2.98231 2.16014 -1.45395
# Velocity P-wave (km/s) = 3.37760 5.43053 4.52211
#
# Compressibility (1/GPa) = 0.02453235
#
# Stress axis : x y z
#
# Youngs Moduli (GPa) = -23.91788 -23.91788 67.43524
#
# Poissons Ratio (x) = 1.27127 0.21883
# Poissons Ratio (y) = 1.27127 0.21883
# Poissons Ratio (z) = -0.07761 -0.07761
#
# Static dielectric constant tensor:
#      x y z
#    x 1.596480 0.000000 0.000000 
#    y 0.000000 1.596480 0.000000 
#    z 0.000000 0.000000 1.629310 
# 
# From -- ./inp_files/1704.got.cif
#   From: 2010.05.17/outbox.cif.g08.bks.cpg/sg134_1_cif.got.tgz:1704.got - 2010.05.20 12:42:49.
