data_PCOD9568805
_publ_section_title
;
Structure prediction by ZEFSAII (Michael W. Deem and Ramdas Pophale) SiO2 
 PCOD9568805
Probable space group: P 42/M B C
;
_chemical_formula_sum "Si O2"
_cell_formula_units_Z 96
_cell_length_a 22.519238
_cell_length_b 22.519238
_cell_length_c 10.293812
_cell_angle_alpha 90.000000
_cell_angle_beta 90.000000
_cell_angle_gamma 90.000000
_cell_volume 5220.157591
_symmetry_space_group_name_H-M "P 42/M B C"
_symmetry_group_IT_number 135
_symmetry_cell_setting 'tetragonal'
loop_
_space_group_symop_operation_xyz
x,y,z
-y,x,1/2+z
-x,-y,z
y,-x,1/2+z
1/2+x,1/2-y,-z
1/2-x,1/2+y,-z
1/2+y,1/2+x,1/2-z
1/2-y,1/2-x,1/2-z
-x,-y,-z
y,-x,1/2-z
x,y,-z
-y,x,1/2-z
1/2-x,1/2+y,z
1/2+x,1/2-y,z
1/2-y,1/2-x,1/2+z
1/2+y,1/2+x,1/2+z
loop_
_atom_site_type_symbol
_atom_site_label
_atom_site_fract_x
_atom_site_fract_y
_atom_site_fract_z
Si Si1 0.003774 0.848330 0.144686
Si Si2 0.895355 0.126222 0.351612
Si Si3 0.305335 0.705481 0.283547
Si Si4 0.209651 0.488348 0.354358
Si Si5 0.198861 0.628952 0.358709
Si Si6 0.690654 0.111352 0.151626
O O1 0.943962 0.885097 0.168524
O O2 0.982598 0.780464 0.141988
O O3 0.053964 0.854870 0.251927
O O4 0.027095 0.863050 0.000000
O O5 0.913498 0.136572 0.500000
O O6 0.833945 0.162215 0.326295
O O7 0.255448 0.755448 0.250000
O O8 0.265532 0.655833 0.355330
O O9 0.357632 0.743980 0.348480
O O10 0.187542 0.469436 0.500000
O O11 0.197999 0.558441 0.340774
O O12 0.189727 0.450701 0.229822
O O13 0.161228 0.661228 0.250000
O O14 0.173513 0.643258 0.500000
O O15 0.652078 0.152078 0.250000
O O16 0.671449 0.108407 0.000000
#
# Coordination Sequence:
#
# PCOD9568805 Si02
#       6
#    16  16  16  16  16  16
#     4  10  22  40  59  81 115 154 195 246 295 340
#     4  11  23  40  61  83 112 154 200 245 289 343
#     4  10  21  36  54  85 118 151 185 232 288 344
#     4  10  20  38  59  82 117 155 189 232 289 342
#     4  10  21  37  58  84 116 152 186 231 284 341
#     4  11  23  37  59  88 119 154 194 238 285 344
#
# _framework density 18.390249000000001
#
# number of rings (size 3 to 8) (size 9 to 14) (size 15 to 20)
#    0.000    1.667    3.333    1.000    0.000    8.333 
#    0.000    1.667    0.000    0.500    0.000    3.500 
#    0.000    0.000    0.000    0.000    0.000    0.000 
#
# Total GULP energy -534517.201707 kJ/mol
# GULP energy per Si atom -5567.887518 kJ/mol
# Density = 1.834839 g / cm^3
# Si number density = 18.390249 Si / 1000 Ang^3
#
#
#
# Elastic Constant Matrix: (Units=GPa)
#
#
# Indices 1 2 3 4 5 6 
#
# 1 62.1119 11.1401 49.1329 0.0000 0.0000 0.0000
# 2 11.1401 62.1119 49.1329 0.0000 0.0000 0.0000
# 3 49.1329 49.1329 156.3638 0.0000 0.0000 0.0000
# 4 0.0000 0.0000 0.0000 33.1605 0.0000 0.0000
# 5 0.0000 0.0000 0.0000 0.0000 33.1605 0.0000
# 6 0.0000 0.0000 0.0000 0.0000 0.0000 15.9587
#
#
#
# Elastic Compliance Matrix: (Units=1/GPa)
#
#
# Indices 1 2 3 4 5 6 
#
# 1 0.021609 0.001990 -0.007415 0.000000 0.000000 0.000000
# 2 0.001990 0.021609 -0.007415 0.000000 0.000000 0.000000
# 3 -0.007415 -0.007415 0.011055 0.000000 0.000000 0.000000
# 4 0.000000 0.000000 0.000000 0.030156 0.000000 0.000000
# 5 0.000000 0.000000 0.000000 0.000000 0.030156 0.000000
# 6 0.000000 0.000000 0.000000 0.000000 0.000000 0.062662
#
#
# Mechanical properties :
#
#
# Convention : Reuss Voigt Hill
#
# Bulk Modulus (GPa) = 34.97460 55.48883 45.23172
# Shear Modulus (GPa) = 23.53392 27.86805 25.70098
#
# Velocity S-wave (km/s) = 3.58116 3.89700 3.74242
# Velocity P-wave (km/s) = 6.01323 7.10544 6.58203
#
# Compressibility (1/GPa) = 0.02859218
#
# Stress axis : x y z
#
# Youngs Moduli (GPa) = 46.27732 46.27732 90.45306
#
# Poissons Ratio (x) = -0.09210 0.67074
# Poissons Ratio (y) = -0.09210 0.67074
# Poissons Ratio (z) = 0.34316 0.34316
#
# Static dielectric constant tensor:
#      x y z
#    x 1.647690 0.000000 0.000000 
#    y 0.000000 1.647690 0.000000 
#    z 0.000000 0.000000 1.701790 
# 
# From -- ./inp_files/1256.got.cif
#   From: 2010.05.17/outbox.cif.g08.bks.cpg/sg135_1_cif.got.tgz:1256.got - 2010.05.20 12:50:20.
