data_PCOD9568841
_publ_section_title
;
Structure prediction by ZEFSAII (Michael W. Deem and Ramdas Pophale) SiO2 
 PCOD9568841
Probable space group: P 42/M B C
;
_chemical_formula_sum "Si O2"
_cell_formula_units_Z 56
_cell_length_a 17.083310
_cell_length_b 17.083310
_cell_length_c 10.442135
_cell_angle_alpha 90.000000
_cell_angle_beta 90.000000
_cell_angle_gamma 90.000000
_cell_volume 3047.427254
_symmetry_space_group_name_H-M "P 42/M B C"
_symmetry_group_IT_number 135
_symmetry_cell_setting 'tetragonal'
loop_
_space_group_symop_operation_xyz
x,y,z
-y,x,1/2+z
-x,-y,z
y,-x,1/2+z
1/2+x,1/2-y,-z
1/2-x,1/2+y,-z
1/2+y,1/2+x,1/2-z
1/2-y,1/2-x,1/2-z
-x,-y,-z
y,-x,1/2-z
x,y,-z
-y,x,1/2-z
1/2-x,1/2+y,z
1/2+x,1/2-y,z
1/2-y,1/2-x,1/2+z
1/2+y,1/2+x,1/2+z
loop_
_atom_site_type_symbol
_atom_site_label
_atom_site_fract_x
_atom_site_fract_y
_atom_site_fract_z
Si Si1 0.547473 0.701940 0.353219
Si Si2 0.118260 0.529395 0.140943
Si Si3 0.089024 0.195070 0.148490
Si Si4 0.861906 0.638095 0.250000
O O1 0.518737 0.688770 0.500000
O O2 0.564361 0.794615 0.343382
O O3 0.624891 0.650678 0.335442
O O4 0.482269 0.683353 0.247244
O O5 0.063404 0.563404 0.250000
O O6 0.129371 0.436319 0.156235
O O7 0.087794 0.548716 0.000000
O O8 0.127999 0.278727 0.181386
O O9 0.062873 0.195687 0.000000
#
# Coordination Sequence:
#
# PCOD9568841 Si02
#       4
#    16  16  16   8
#     4   9  21  39  57  84 117 148 190 238 282 336
#     4  10  21  36  55  82 114 147 185 230 277 331
#     4  10  21  39  61  84 113 151 194 234 285 342
#     4  10  21  36  60  82 114 147 190 232 282 334
#
# _framework density 18.376156999999999
#
# number of rings (size 3 to 8) (size 9 to 14) (size 15 to 20)
#    0.000    2.286    0.000    1.286    2.000    9.714 
#    0.000    2.857    0.000    0.000    0.000    0.000 
#    0.000    0.000    0.000    0.000    0.000    0.000 
#
# Total GULP energy -312512.180134 kJ/mol
# GULP energy per Si atom -5580.574645 kJ/mol
# Density = 1.833433 g / cm^3
# Si number density = 18.376157 Si / 1000 Ang^3
#
#
#
# Elastic Constant Matrix: (Units=GPa)
#
#
# Indices 1 2 3 4 5 6 
#
# 1 94.2984 72.4758 83.8663 0.0000 0.0000 0.0000
# 2 72.4758 94.2984 83.8666 0.0000 0.0000 0.0000
# 3 83.8663 83.8666 171.1405 0.0000 0.0000 0.0000
# 4 0.0000 0.0000 0.0000 -22.2203 0.0000 0.0000
# 5 0.0000 0.0000 0.0000 0.0000 -22.2137 0.0000
# 6 0.0000 0.0000 0.0000 0.0000 0.0000 28.5239
#
#
#
# Elastic Compliance Matrix: (Units=1/GPa)
#
#
# Indices 1 2 3 4 5 6 
#
# 1 0.028824 -0.017000 -0.005794 0.000000 0.000000 0.000000
# 2 -0.017000 0.028824 -0.005794 0.000000 0.000000 0.000000
# 3 -0.005794 -0.005794 0.011522 0.000000 0.000000 0.000000
# 4 0.000000 0.000000 0.000000 -0.045004 0.000000 0.000000
# 5 0.000000 0.000000 0.000000 0.000000 -0.045017 0.000000
# 6 0.000000 0.000000 0.000000 0.000000 0.000000 0.035058
#
#
# Mechanical properties :
#
#
# Convention : Reuss Voigt Hill
#
# Bulk Modulus (GPa) = 83.38445 93.35052 88.36748
# Shear Modulus (GPa) = 66.32991 4.78656 35.55823
#
# Velocity S-wave (km/s) = 6.01448 1.61568 4.40366
# Velocity P-wave (km/s) = 9.68023 7.37500 8.60516
#
# Compressibility (1/GPa) = 0.01199264
#
# Stress axis : x y z
#
# Youngs Moduli (GPa) = 34.69364 34.69345 86.79193
#
# Poissons Ratio (x) = 0.58980 0.50287
# Poissons Ratio (y) = 0.58980 0.50288
# Poissons Ratio (z) = 0.20101 0.20102
#
# Static dielectric constant tensor:
#      x y z
#    x 1.617430 0.000000 0.000000 
#    y 0.000000 1.617430 0.000000 
#    z 0.000000 0.000000 1.637620 
# 
# From -- ./inp_files/673.got.cif
#   From: 2010.05.17/outbox.cif.g08.bks.cpg/sg135_1_cif.got.tgz:673.got - 2010.05.20 12:50:20.
