data_PCOD9568809
_publ_section_title
;
Structure prediction by ZEFSAII (Michael W. Deem and Ramdas Pophale) SiO2 
 PCOD9568809
Probable space group: P 42/M B C
;
_chemical_formula_sum "Si O2"
_cell_formula_units_Z 88
_cell_length_a 13.711435
_cell_length_b 13.711435
_cell_length_c 21.156273
_cell_angle_alpha 90.000000
_cell_angle_beta 90.000000
_cell_angle_gamma 90.000000
_cell_volume 3977.452308
_symmetry_space_group_name_H-M "P 42/M B C"
_symmetry_group_IT_number 135
_symmetry_cell_setting 'tetragonal'
loop_
_space_group_symop_operation_xyz
x,y,z
-y,x,1/2+z
-x,-y,z
y,-x,1/2+z
1/2+x,1/2-y,-z
1/2-x,1/2+y,-z
1/2+y,1/2+x,1/2-z
1/2-y,1/2-x,1/2-z
-x,-y,-z
y,-x,1/2-z
x,y,-z
-y,x,1/2-z
1/2-x,1/2+y,z
1/2+x,1/2-y,z
1/2-y,1/2-x,1/2+z
1/2+y,1/2+x,1/2+z
loop_
_atom_site_type_symbol
_atom_site_label
_atom_site_fract_x
_atom_site_fract_y
_atom_site_fract_z
Si Si1 0.501822 0.281467 0.792658
Si Si2 0.940956 0.745258 0.000000
Si Si3 0.420640 0.583576 0.894200
Si Si4 0.782926 0.231878 0.819030
Si Si5 0.102331 0.369901 0.122551
Si Si6 0.958402 0.276703 0.347794
O O1 0.567794 0.364716 0.825025
O O2 0.391798 0.308435 0.813312
O O3 0.535335 0.179973 0.824354
O O4 0.503098 0.264006 0.718039
O O5 0.936820 0.831098 0.055413
O O6 0.938075 0.661866 0.055659
O O7 0.500000 0.500000 0.901423
O O8 0.312311 0.539607 0.897211
O O9 0.732847 0.232847 0.750000
O O10 0.710097 0.180506 0.867431
O O11 0.797019 0.344971 0.836565
O O12 0.128316 0.482369 0.132005
#
# Coordination Sequence:
#
# PCOD9568809 Si02
#       6
#    16   8  16  16  16  16
#     4  10  22  37  62  95 135 160 199 268 342 392
#     4  10  23  44  58  83 130 176 216 264 310 385
#     4  11  23  38  64  96 129 165 221 274 327 387
#     4  10  20  38  61  94 127 159 205 263 330 391
#     4  11  22  41  60  85 129 173 211 266 322 379
#     4  11  22  36  66  96 123 166 212 263 330 400
#
# _framework density 22.124714000000001
#
# number of rings (size 3 to 8) (size 9 to 14) (size 15 to 20)
#    0.000    1.455    3.636    3.000    5.091    1.455 
#    0.000   10.000    0.000    4.364    0.000    0.000 
#    0.000    0.000    0.000    0.000    0.000    0.000 
#
# Total GULP energy -490061.489407 kJ/mol
# GULP energy per Si atom -5568.880561 kJ/mol
# Density = 2.207436 g / cm^3
# Si number density = 22.124714 Si / 1000 Ang^3
#
#
#
# Elastic Constant Matrix: (Units=GPa)
#
#
# Indices 1 2 3 4 5 6 
#
# 1 50.2140 -15.0042 1.2736 0.0000 0.0000 0.0000
# 2 -15.0042 50.2140 1.2736 0.0000 0.0000 0.0000
# 3 1.2736 1.2736 67.9461 0.0000 0.0000 0.0000
# 4 0.0000 0.0000 0.0000 -9.9684 0.0000 0.0000
# 5 0.0000 0.0000 0.0000 0.0000 -9.9684 0.0000
# 6 0.0000 0.0000 0.0000 0.0000 0.0000 35.2140
#
#
#
# Elastic Compliance Matrix: (Units=1/GPa)
#
#
# Indices 1 2 3 4 5 6 
#
# 1 0.021886 0.006553 -0.000533 0.000000 0.000000 0.000000
# 2 0.006553 0.021886 -0.000533 0.000000 0.000000 0.000000
# 3 -0.000533 -0.000533 0.014738 0.000000 0.000000 0.000000
# 4 0.000000 0.000000 0.000000 -0.100317 0.000000 0.000000
# 5 0.000000 0.000000 0.000000 0.000000 -0.100317 0.000000
# 6 0.000000 0.000000 0.000000 0.000000 0.000000 0.028398
#
#
# Mechanical properties :
#
#
# Convention : Reuss Voigt Hill
#
# Bulk Modulus (GPa) = 14.39164 15.93998 15.16581
# Shear Modulus (GPa) = -49.24195 15.11086 -17.06555
#
# Velocity S-wave (km/s) = -4.72280 2.61623 -2.78030
# Velocity P-wave (km/s) = 4.81881 4.04308 1.85397
#
# Compressibility (1/GPa) = 0.06948480
#
# Stress axis : x y z
#
# Youngs Moduli (GPa) = 45.69037 45.69037 67.85393
#
# Poissons Ratio (x) = -0.29942 0.03617
# Poissons Ratio (y) = -0.29942 0.03617
# Poissons Ratio (z) = 0.02436 0.02436
#
# Static dielectric constant tensor:
#      x y z
#    x 1.858760 0.000000 0.000000 
#    y 0.000000 1.858760 0.000000 
#    z 0.000000 0.000000 1.776200 
# 
# From -- ./inp_files/5303.got.cif
#   From: 2010.05.17/outbox.cif.g08.bks.cpg/sg135_3_cif.got.tgz:5303.got - 2010.05.20 12:50:20.
