data_PCOD9568047
_publ_section_title
;
Structure prediction by ZEFSAII (Michael W. Deem and Ramdas Pophale) SiO2 
 PCOD9568047
Probable space group: P 42/N B C
;
_chemical_formula_sum "Si O2"
_cell_formula_units_Z 28
_cell_length_a 6.859521
_cell_length_b 6.859521
_cell_length_c 17.973499
_cell_angle_alpha 90.000000
_cell_angle_beta 90.000000
_cell_angle_gamma 90.000000
_cell_volume 845.707558
_symmetry_space_group_name_H-M "P 42/N B C"
_symmetry_group_IT_number 133
_space_group.IT_coordinate_system_code '2'
_symmetry_cell_setting 'tetragonal'
loop_
_space_group_symop_operation_xyz
x,y,z
1/2-y,x,1/2+z
1/2-x,1/2-y,z
y,1/2-x,1/2+z
x,1/2-y,-z
1/2-x,y,-z
y,x,1/2-z
1/2-y,1/2-x,1/2-z
-x,-y,-z
1/2+y,-x,1/2-z
1/2+x,1/2+y,-z
-y,1/2+x,1/2-z
-x,1/2+y,z
1/2+x,-y,z
-y,-x,1/2+z
1/2+y,1/2+x,1/2+z
loop_
_atom_site_type_symbol
_atom_site_label
_atom_site_fract_x
_atom_site_fract_y
_atom_site_fract_z
Si Si1 0.250000 0.250000 0.500000
Si Si2 0.970326 0.529675 0.250000
Si Si3 0.290187 0.528324 0.632203
O O1 0.334392 0.399208 0.560362
O O2 0.995276 0.279479 0.228986
O O3 0.958085 0.545439 0.345676
O O4 0.250000 0.750000 0.612688
#
# Coordination Sequence:
#
# PCOD9568047 Si02
#       3
#     4   8  16
#     4  12  30  46  80 124 168 214 266 358 468 460
#     4  12  22  52  80 106 150 222 278 326 412 508
#     4  12  26  50  76 116 165 213 285 352 404 520
#
# _framework density 33.108370000000001
#
# number of rings (size 3 to 8) (size 9 to 14) (size 15 to 20)
#    0.000    0.000    5.714    4.286    0.000    2.286 
#    0.000    0.000    0.000    0.000    0.000    0.000 
#    0.000    0.000    0.000    0.000    0.000    0.000 
#
# Total GULP energy -156382.368368 kJ/mol
# GULP energy per Si atom -5585.084585 kJ/mol
# Density = 3.303301 g / cm^3
# Si number density = 33.108370 Si / 1000 Ang^3
#
#
#
# Elastic Constant Matrix: (Units=GPa)
#
#
# Indices 1 2 3 4 5 6 
#
# 1 281.5972 91.2424 106.6696 0.0000 0.0000 0.0000
# 2 91.2424 281.5972 106.6696 0.0000 0.0000 0.0000
# 3 106.6696 106.6696 304.7591 0.0000 0.0000 0.0000
# 4 0.0000 0.0000 0.0000 46.7409 0.0000 0.0000
# 5 0.0000 0.0000 0.0000 0.0000 46.7409 0.0000
# 6 0.0000 0.0000 0.0000 0.0000 0.0000 92.1521
#
#
#
# Elastic Compliance Matrix: (Units=1/GPa)
#
#
# Indices 1 2 3 4 5 6 
#
# 1 0.004304 -0.000950 -0.001174 0.000000 0.000000 0.000000
# 2 -0.000950 0.004304 -0.001174 0.000000 0.000000 0.000000
# 3 -0.001174 -0.001174 0.004103 0.000000 0.000000 0.000000
# 4 0.000000 0.000000 0.000000 0.021395 0.000000 0.000000
# 5 0.000000 0.000000 0.000000 0.000000 0.021395 0.000000
# 6 0.000000 0.000000 0.000000 0.000000 0.000000 0.010852
#
#
# Mechanical properties :
#
#
# Convention : Reuss Voigt Hill
#
# Bulk Modulus (GPa) = 163.52856 164.12408 163.82632
# Shear Modulus (GPa) = 66.68062 74.68492 70.68277
#
# Velocity S-wave (km/s) = 4.49264 4.75465 4.62550
# Velocity P-wave (km/s) = 8.74133 8.93430 8.83834
#
# Compressibility (1/GPa) = 0.00611514
#
# Stress axis : x y z
#
# Youngs Moduli (GPa) = 232.36474 232.36471 243.72269
#
# Poissons Ratio (x) = 0.22069 0.28610
# Poissons Ratio (y) = 0.22069 0.28610
# Poissons Ratio (z) = 0.27277 0.27277
#
# Static dielectric constant tensor:
#      x y z
#    x 2.914730 0.000000 0.000000 
#    y 0.000000 2.914730 0.000000 
#    z 0.000000 0.000000 2.256790 
# 
# From -- ./inp_files/4742.got.cif
#   From: 2010.05.17/outbox.cif.g08.bks.cpg/sg133_3_cif.got.tgz:4742.got - 2010.05.20 12:37:36.
