data_PCOD9568025
_publ_section_title
;
Structure prediction by ZEFSAII (Michael W. Deem and Ramdas Pophale) SiO2 
 PCOD9568025
Probable space group: P 42/N B C
;
_chemical_formula_sum "Si O2"
_cell_formula_units_Z 116
_cell_length_a 16.379677
_cell_length_b 16.379677
_cell_length_c 18.257853
_cell_angle_alpha 90.000000
_cell_angle_beta 90.000000
_cell_angle_gamma 90.000000
_cell_volume 4898.469101
_symmetry_space_group_name_H-M "P 42/N B C"
_symmetry_group_IT_number 133
_space_group.IT_coordinate_system_code '2'
_symmetry_cell_setting 'tetragonal'
loop_
_space_group_symop_operation_xyz
x,y,z
1/2-y,x,1/2+z
1/2-x,1/2-y,z
y,1/2-x,1/2+z
x,1/2-y,-z
1/2-x,y,-z
y,x,1/2-z
1/2-y,1/2-x,1/2-z
-x,-y,-z
1/2+y,-x,1/2-z
1/2+x,1/2+y,-z
-y,1/2+x,1/2-z
-x,1/2+y,z
1/2+x,-y,z
-y,-x,1/2+z
1/2+y,1/2+x,1/2+z
loop_
_atom_site_type_symbol
_atom_site_label
_atom_site_fract_x
_atom_site_fract_y
_atom_site_fract_z
Si Si1 0.490553 0.870288 0.244012
Si Si2 0.106849 0.570505 0.110885
Si Si3 0.750000 0.250000 0.500000
Si Si4 0.975306 0.294684 0.606563
Si Si5 0.142550 0.897520 0.535688
Si Si6 0.258200 0.131013 0.692002
Si Si7 0.851879 0.826665 0.546632
Si Si8 0.931880 0.881040 0.097765
O O1 0.421817 0.893415 0.187306
O O2 0.454424 0.843720 0.320833
O O3 0.545566 0.793692 0.219327
O O4 0.554130 0.945871 0.250000
O O5 0.204396 0.559974 0.106583
O O6 0.068758 0.479336 0.106092
O O7 0.077050 0.635468 0.049285
O O8 0.801409 0.183114 0.453878
O O9 0.945357 0.355356 0.543826
O O10 0.070757 0.293921 0.592498
O O11 0.152077 0.975324 0.587426
O O12 0.303911 0.196089 0.750000
O O13 0.293259 0.147043 0.611235
O O14 0.162984 0.116305 0.666253
O O15 0.827030 0.750000 0.500000
O O16 0.866247 0.892767 0.483011
#
# Coordination Sequence:
#
# PCOD9568025 Si02
#       8
#    16  16   4  16  16  16  16  16
#     4  11  25  46  72 100 151 201 251 320 393 471
#     4  12  25  48  74 111 149 201 267 331 403 479
#     4  12  28  48  76 114 158 202 244 350 412 456
#     4  12  23  49  73 103 152 205 247 325 410 473
#     4  12  26  48  75 115 152 198 271 330 400 474
#     4  11  26  49  71 110 162 204 252 327 406 471
#     4  12  23  47  72 107 146 203 253 317 403 473
#     4  12  27  42  85 115 150 207 277 329 392 503
#
# _framework density 23.680868
#
# number of rings (size 3 to 8) (size 9 to 14) (size 15 to 20)
#    0.000    0.276    6.897    2.483    3.862    3.310 
#    0.000    4.828    0.000    0.000    0.000    0.000 
#    0.000    0.000    0.000    0.000    0.000    0.000 
#
# Total GULP energy -647252.858791 kJ/mol
# GULP energy per Si atom -5579.766024 kJ/mol
# Density = 2.362697 g / cm^3
# Si number density = 23.680868 Si / 1000 Ang^3
#
#
#
# Elastic Constant Matrix: (Units=GPa)
#
#
# Indices 1 2 3 4 5 6 
#
# 1 66.5517 30.0556 24.0628 0.0000 0.0000 0.0000
# 2 30.0556 66.5539 24.0652 0.0000 0.0000 0.0000
# 3 24.0628 24.0652 128.5404 0.0000 0.0000 0.0000
# 4 0.0000 0.0000 0.0000 21.7217 0.0000 0.0000
# 5 0.0000 0.0000 0.0000 0.0000 21.7149 0.0000
# 6 0.0000 0.0000 0.0000 0.0000 0.0000 33.9738
#
#
#
# Elastic Compliance Matrix: (Units=1/GPa)
#
#
# Indices 1 2 3 4 5 6 
#
# 1 0.019408 -0.007992 -0.002137 0.000000 0.000000 0.000000
# 2 -0.007992 0.019407 -0.002137 0.000000 0.000000 0.000000
# 3 -0.002137 -0.002137 0.008580 0.000000 0.000000 0.000000
# 4 0.000000 0.000000 0.000000 0.046037 0.000000 0.000000
# 5 0.000000 0.000000 0.000000 0.000000 0.046051 0.000000
# 6 0.000000 0.000000 0.000000 0.000000 0.000000 0.029434
#
#
# Mechanical properties :
#
#
# Convention : Reuss Voigt Hill
#
# Bulk Modulus (GPa) = 43.73923 46.44591 45.09257
# Shear Modulus (GPa) = 24.86690 27.71293 26.28991
#
# Velocity S-wave (km/s) = 3.24402 3.42463 3.33554
# Velocity P-wave (km/s) = 5.70455 5.94081 5.82388
#
# Compressibility (1/GPa) = 0.02286277
#
# Stress axis : x y z
#
# Youngs Moduli (GPa) = 51.52589 51.52696 116.55228
#
# Poissons Ratio (x) = 0.41179 0.24906
# Poissons Ratio (y) = 0.41178 0.24911
# Poissons Ratio (z) = 0.11011 0.11013
#
# Static dielectric constant tensor:
#      x y z
#    x 1.980900 0.000000 0.000000 
#    y 0.000000 1.980900 0.000000 
#    z 0.000000 0.000000 1.981180 
# 
# From -- ./inp_files/5660.got.cif
#   From: 2010.05.17/outbox.cif.g08.bks.cpg/sg133_3_cif.got.tgz:5660.got - 2010.05.20 12:37:36.
