data_PCOD9568493
_publ_section_title
;
Structure prediction by ZEFSAII (Michael W. Deem and Ramdas Pophale) SiO2 
 PCOD9568493
Probable space group: P 42/N N M
;
_chemical_formula_sum "Si O2"
_cell_formula_units_Z 64
_cell_length_a 10.852061
_cell_length_b 10.852061
_cell_length_c 27.809702
_cell_angle_alpha 90.000000
_cell_angle_beta 90.000000
_cell_angle_gamma 90.000000
_cell_volume 3275.071515
_symmetry_space_group_name_H-M "P 42/N N M"
_symmetry_group_IT_number 134
_space_group.IT_coordinate_system_code '2'
_symmetry_cell_setting 'tetragonal'
loop_
_space_group_symop_operation_xyz
x,y,z
1/2-y,x,1/2+z
1/2-x,1/2-y,z
y,1/2-x,1/2+z
x,1/2-y,1/2-z
1/2-x,y,1/2-z
y,x,-z
1/2-y,1/2-x,-z
-x,-y,-z
1/2+y,-x,1/2-z
1/2+x,1/2+y,-z
-y,1/2+x,1/2-z
-x,1/2+y,1/2+z
1/2+x,-y,1/2+z
-y,-x,z
1/2+y,1/2+x,z
loop_
_atom_site_type_symbol
_atom_site_label
_atom_site_fract_x
_atom_site_fract_y
_atom_site_fract_z
Si Si1 0.256893 0.953250 0.306351
Si Si2 0.984923 0.680704 0.567502
Si Si3 0.085932 0.110311 0.618951
Si Si4 0.280419 0.523090 0.040301
O O1 0.250000 0.984563 0.250000
O O2 0.155045 0.844956 0.313908
O O3 0.388167 0.888167 0.317416
O O4 0.213439 0.063565 0.340274
O O5 0.926988 0.777461 0.603936
O O6 0.882470 0.580685 0.552656
O O7 0.103888 0.603888 0.584705
O O8 0.019880 0.744750 0.516644
O O9 0.017185 0.167511 0.572610
O O10 0.012657 0.987344 0.633697
O O11 0.347984 0.652017 0.052132
#
# Coordination Sequence:
#
# PCOD9568493 Si02
#       4
#    16  16  16  16
#     4   8  15  29  47  68  98 131 159 198 259 320
#     4   9  19  34  48  64  95 141 179 203 237 291
#     4  11  20  28  46  76 102 126 162 209 259 308
#     4   9  18  33  50  66  91 133 179 214 245 287
#
# _framework density 19.541556
#
# number of rings (size 3 to 8) (size 9 to 14) (size 15 to 20)
#    0.000    2.750    0.000    4.500    0.000    6.000 
#    0.000    2.500    0.000    3.000    0.000    0.000 
#    0.000    0.000    0.000   27.500    0.000   14.500 
#
# Total GULP energy -356964.984603 kJ/mol
# GULP energy per Si atom -5577.577884 kJ/mol
# Density = 1.949708 g / cm^3
# Si number density = 19.541556 Si / 1000 Ang^3
#
#
#
# Elastic Constant Matrix: (Units=GPa)
#
#
# Indices 1 2 3 4 5 6 
#
# 1 143.5204 -11.0028 51.2242 0.0000 0.0000 0.0000
# 2 -11.0028 143.5204 51.2242 0.0000 0.0000 0.0000
# 3 51.2242 51.2242 78.2740 0.0000 0.0000 0.0000
# 4 0.0000 0.0000 0.0000 21.5054 0.0000 0.0000
# 5 0.0000 0.0000 0.0000 0.0000 21.5054 0.0000
# 6 0.0000 0.0000 0.0000 0.0000 0.0000 25.4825
#
#
#
# Elastic Compliance Matrix: (Units=1/GPa)
#
#
# Indices 1 2 3 4 5 6 
#
# 1 0.010872 0.004401 -0.009995 0.000000 0.000000 0.000000
# 2 0.004401 0.010872 -0.009995 0.000000 0.000000 0.000000
# 3 -0.009995 -0.009995 0.025858 0.000000 0.000000 0.000000
# 4 0.000000 0.000000 0.000000 0.046500 0.000000 0.000000
# 5 0.000000 0.000000 0.000000 0.000000 0.046500 0.000000
# 6 0.000000 0.000000 0.000000 0.000000 0.000000 0.039243
#
#
# Mechanical properties :
#
#
# Convention : Reuss Voigt Hill
#
# Bulk Modulus (GPa) = 60.88771 60.91179 60.89975
# Shear Modulus (GPa) = 23.09481 31.95662 27.52571
#
# Velocity S-wave (km/s) = 3.44151 4.04829 3.75717
# Velocity P-wave (km/s) = 6.85694 7.28626 7.07486
#
# Compressibility (1/GPa) = 0.01642367
#
# Stress axis : x y z
#
# Youngs Moduli (GPa) = 91.97539 91.97539 38.67292
#
# Poissons Ratio (x) = -0.40478 0.38655
# Poissons Ratio (y) = -0.40478 0.38655
# Poissons Ratio (z) = 0.91932 0.91932
#
# Static dielectric constant tensor:
#      x y z
#    x 1.722660 0.000000 0.000000 
#    y 0.000000 1.722660 0.000000 
#    z 0.000000 0.000000 1.690790 
# 
# From -- ./inp_files/10520.got.cif
#   From: 2010.05.17/outbox.cif.g08.bks.cpg/sg134_6_cif.got.tgz:10520.got - 2010.05.20 12:42:49.
