data_PCOD9568511
_publ_section_title
;
Structure prediction by ZEFSAII (Michael W. Deem and Ramdas Pophale) SiO2 
 PCOD9568511
Probable space group: P 42/N N M
;
_chemical_formula_sum "Si O2"
_cell_formula_units_Z 80
_cell_length_a 16.765743
_cell_length_b 16.765743
_cell_length_c 15.042541
_cell_angle_alpha 90.000000
_cell_angle_beta 90.000000
_cell_angle_gamma 90.000000
_cell_volume 4228.309931
_symmetry_space_group_name_H-M "P 42/N N M"
_symmetry_group_IT_number 134
_space_group.IT_coordinate_system_code '2'
_symmetry_cell_setting 'tetragonal'
loop_
_space_group_symop_operation_xyz
x,y,z
1/2-y,x,1/2+z
1/2-x,1/2-y,z
y,1/2-x,1/2+z
x,1/2-y,1/2-z
1/2-x,y,1/2-z
y,x,-z
1/2-y,1/2-x,-z
-x,-y,-z
1/2+y,-x,1/2-z
1/2+x,1/2+y,-z
-y,1/2+x,1/2-z
-x,1/2+y,1/2+z
1/2+x,-y,1/2+z
-y,-x,z
1/2+y,1/2+x,z
loop_
_atom_site_type_symbol
_atom_site_label
_atom_site_fract_x
_atom_site_fract_y
_atom_site_fract_z
Si Si1 0.450931 0.823685 0.182728
Si Si2 0.202671 0.567071 0.841230
Si Si3 0.043063 0.410749 0.589311
Si Si4 0.420497 0.442829 0.716756
Si Si5 0.783898 0.086363 0.972823
O O1 0.458699 0.750000 0.250000
O O2 0.388069 0.888069 0.221630
O O3 0.533845 0.870333 0.168992
O O4 0.417288 0.792237 0.090084
O O5 0.250000 0.583710 0.750000
O O6 0.137033 0.637033 0.855214
O O7 0.156405 0.483205 0.826483
O O8 0.260483 0.565366 0.926338
O O9 0.093897 0.406104 0.500000
O O10 0.089411 0.411582 0.682016
O O11 0.994525 0.494525 0.589825
O O12 0.977181 0.343080 0.573854
O O13 0.484887 0.515114 0.719069
O O14 0.829743 0.170258 0.972350
#
# Coordination Sequence:
#
# PCOD9568511 Si02
#       5
#    16  16  16  16  16
#     4  11  21  35  56  83 117 152 189 239 296 352
#     4  11  23  38  57  83 118 157 194 239 296 360
#     4   9  16  30  53  78 105 141 191 241 276 325
#     4   9  19  36  55  79 111 151 199 239 280 341
#     4  11  22  35  54  86 119 154 195 236 297 364
#
# _framework density 18.920089000000001
#
# number of rings (size 3 to 8) (size 9 to 14) (size 15 to 20)
#    0.000    1.800    2.000    3.000    0.000    7.600 
#    0.000    3.000    0.000    0.600    0.000    1.400 
#    0.000    0.000    0.000    0.000    0.000    0.000 
#
# Total GULP energy -445986.949764 kJ/mol
# GULP energy per Si atom -5574.836872 kJ/mol
# Density = 1.887703 g / cm^3
# Si number density = 18.920089 Si / 1000 Ang^3
#
#
#
# Elastic Constant Matrix: (Units=GPa)
#
#
# Indices 1 2 3 4 5 6 
#
# 1 -34.1355 84.0780 16.1062 0.0000 0.0000 0.0000
# 2 84.0780 -34.1331 16.1059 0.0000 0.0000 0.0000
# 3 16.1062 16.1059 109.8822 0.0000 0.0000 0.0000
# 4 0.0000 0.0000 0.0000 30.5437 0.0000 0.0000
# 5 0.0000 0.0000 0.0000 0.0000 30.5437 0.0000
# 6 0.0000 0.0000 0.0000 0.0000 0.0000 27.7656
#
#
#
# Elastic Compliance Matrix: (Units=1/GPa)
#
#
# Indices 1 2 3 4 5 6 
#
# 1 0.006827 0.015286 -0.003241 0.000000 0.000000 0.000000
# 2 0.015286 0.006827 -0.003241 0.000000 0.000000 0.000000
# 3 -0.003241 -0.003241 0.010051 0.000000 0.000000 0.000000
# 4 0.000000 0.000000 0.000000 0.032740 0.000000 0.000000
# 5 0.000000 0.000000 0.000000 0.000000 0.032740 0.000000
# 6 0.000000 0.000000 0.000000 0.000000 0.000000 0.036016
#
#
# Mechanical properties :
#
#
# Convention : Reuss Voigt Hill
#
# Bulk Modulus (GPa) = 24.20603 30.46596 27.33599
# Shear Modulus (GPa) = 41.19858 12.79218 26.99538
#
# Velocity S-wave (km/s) = 4.67144 2.60304 3.78141
# Velocity P-wave (km/s) = 6.47441 5.01716 5.79180
#
# Compressibility (1/GPa) = 0.04131202
#
# Stress axis : x y z
#
# Youngs Moduli (GPa) = 146.48536 146.47534 99.49425
#
# Poissons Ratio (x) = -2.23905 0.32248
# Poissons Ratio (y) = -2.23921 0.32249
# Poissons Ratio (z) = 0.47479 0.47477
#
# Static dielectric constant tensor:
#      x y z
#    x 1.692480 0.000000 0.000000 
#    y 0.000000 1.692480 0.000000 
#    z 0.000000 0.000000 1.690270 
# 
# From -- ./inp_files/6316.got.cif
#   From: 2010.05.17/outbox.cif.g08.bks.cpg/sg134_4_cif.got.tgz:6316.got - 2010.05.20 12:42:49.
