data_PCOD9568092
_publ_section_title
;
Structure prediction by ZEFSAII (Michael W. Deem and Ramdas Pophale) SiO2 
 PCOD9568092
Probable space group: P 42/N N M
;
_chemical_formula_sum "Si O2"
_cell_formula_units_Z 112
_cell_length_a 14.705265
_cell_length_b 14.705265
_cell_length_c 28.063299
_cell_angle_alpha 90.000000
_cell_angle_beta 90.000000
_cell_angle_gamma 90.000000
_cell_volume 6068.543005
_symmetry_space_group_name_H-M "P 42/N N M"
_symmetry_group_IT_number 134
_space_group.IT_coordinate_system_code '2'
_symmetry_cell_setting 'tetragonal'
loop_
_space_group_symop_operation_xyz
x,y,z
1/2-y,x,1/2+z
1/2-x,1/2-y,z
y,1/2-x,1/2+z
x,1/2-y,1/2-z
1/2-x,y,1/2-z
y,x,-z
1/2-y,1/2-x,-z
-x,-y,-z
1/2+y,-x,1/2-z
1/2+x,1/2+y,-z
-y,1/2+x,1/2-z
-x,1/2+y,1/2+z
1/2+x,-y,1/2+z
-y,-x,z
1/2+y,1/2+x,z
loop_
_atom_site_type_symbol
_atom_site_label
_atom_site_fract_x
_atom_site_fract_y
_atom_site_fract_z
Si Si1 0.827299 0.473532 0.553049
Si Si2 0.252783 0.897967 0.153719
Si Si3 0.147258 0.136785 0.896561
Si Si4 0.344098 0.146616 0.770855
Si Si5 0.353237 0.345454 0.384588
Si Si6 0.877783 0.972608 0.805752
Si Si7 0.368602 0.484042 0.463268
O O1 0.895717 0.395717 0.535322
O O2 0.779700 0.433828 0.601784
O O3 0.882583 0.565038 0.567006
O O4 0.737471 0.501673 0.524486
O O5 0.184466 0.815535 0.165697
O O6 0.352862 0.852862 0.154786
O O7 0.221611 0.980000 0.188078
O O8 0.155295 0.246208 0.897182
O O9 0.250256 0.103399 0.902602
O O10 0.107606 0.114568 0.844426
O O11 0.345013 0.250000 0.750000
O O12 0.250000 0.106938 0.750000
O O13 0.346200 0.141328 0.827532
O O14 0.431158 0.104002 0.745552
O O15 0.384665 0.435045 0.412188
O O16 0.950960 0.049041 0.818270
O O17 0.416188 0.416188 0.500000
O O18 0.420800 0.579201 0.464514
#
# Coordination Sequence:
#
# PCOD9568092 Si02
#       7
#    16  16  16  16  16  16  16
#     4   9  17  30  54  83 111 142 180 221 273 343
#     4   8  14  25  42  66  99 141 179 209 252 319
#     4   9  15  30  49  76 101 133 172 212 270 323
#     4  11  18  31  49  70  99 137 180 222 262 325
#     4  10  18  31  55  72 100 143 185 226 276 326
#     4  10  18  27  43  68 100 133 171 219 264 313
#     4  10  22  38  55  79 112 149 193 242 280 325
#
# _framework density 18.455829999999999
#
# number of rings (size 3 to 8) (size 9 to 14) (size 15 to 20)
#    0.000    2.429    2.857    2.571    0.000    1.429 
#    0.000    6.429    0.000    2.571    0.000    2.000 
#    0.000    1.429    0.000    0.000    0.000    0.000 
#
# Total GULP energy -623594.650933 kJ/mol
# GULP energy per Si atom -5567.809383 kJ/mol
# Density = 1.841382 g / cm^3
# Si number density = 18.455830 Si / 1000 Ang^3
#
#
#
# Elastic Constant Matrix: (Units=GPa)
#
#
# Indices 1 2 3 4 5 6 
#
# 1 62.7381 16.0115 -0.9566 0.0000 0.0000 0.0000
# 2 16.0115 62.7381 -0.9566 0.0000 0.0000 0.0000
# 3 -0.9566 -0.9566 27.2669 0.0000 0.0000 0.0000
# 4 0.0000 0.0000 0.0000 12.3716 0.0000 0.0000
# 5 0.0000 0.0000 0.0000 0.0000 12.3716 0.0000
# 6 0.0000 0.0000 0.0000 0.0000 0.0000 6.3156
#
#
#
# Elastic Compliance Matrix: (Units=1/GPa)
#
#
# Indices 1 2 3 4 5 6 
#
# 1 0.017055 -0.004346 0.000446 0.000000 0.000000 0.000000
# 2 -0.004346 0.017055 0.000446 0.000000 0.000000 0.000000
# 3 0.000446 0.000446 0.036706 0.000000 0.000000 0.000000
# 4 0.000000 0.000000 0.000000 0.080831 0.000000 0.000000
# 5 0.000000 0.000000 0.000000 0.000000 0.080831 0.000000
# 6 0.000000 0.000000 0.000000 0.000000 0.000000 0.158338
#
#
# Mechanical properties :
#
#
# Convention : Reuss Voigt Hill
#
# Bulk Modulus (GPa) = 15.64751 20.10442 17.87597
# Shear Modulus (GPa) = 11.93242 15.45472 13.69357
#
# Velocity S-wave (km/s) = 2.54547 2.89691 2.72686
# Velocity P-wave (km/s) = 4.13957 4.70174 4.42958
#
# Compressibility (1/GPa) = 0.06390791
#
# Stress axis : x y z
#
# Youngs Moduli (GPa) = 58.63314 58.63314 27.24363
#
# Poissons Ratio (x) = 0.25481 -0.01215
# Poissons Ratio (y) = 0.25481 -0.01215
# Poissons Ratio (z) = -0.02614 -0.02614
#
# Static dielectric constant tensor:
#      x y z
#    x 1.685040 0.000000 0.000000 
#    y 0.000000 1.685040 0.000000 
#    z 0.000000 0.000000 1.673640 
# 
# From -- ./inp_files/10859.got.cif
#   From: 2010.05.17/outbox.cif.g08.bks.cpg/sg134_6_cif.got.tgz:10859.got - 2010.05.20 12:42:49.
