data_PCOD9568364
_publ_section_title
;
Structure prediction by ZEFSAII (Michael W. Deem and Ramdas Pophale) SiO2 
 PCOD9568364
Probable space group: P 42/N N M
;
_chemical_formula_sum "Si O2"
_cell_formula_units_Z 44
_cell_length_a 15.299610
_cell_length_b 15.299610
_cell_length_c 9.210976
_cell_angle_alpha 90.000000
_cell_angle_beta 90.000000
_cell_angle_gamma 90.000000
_cell_volume 2156.087449
_symmetry_space_group_name_H-M "P 42/N N M"
_symmetry_group_IT_number 134
_space_group.IT_coordinate_system_code '2'
_symmetry_cell_setting 'tetragonal'
loop_
_space_group_symop_operation_xyz
x,y,z
1/2-y,x,1/2+z
1/2-x,1/2-y,z
y,1/2-x,1/2+z
x,1/2-y,1/2-z
1/2-x,y,1/2-z
y,x,-z
1/2-y,1/2-x,-z
-x,-y,-z
1/2+y,-x,1/2-z
1/2+x,1/2+y,-z
-y,1/2+x,1/2-z
-x,1/2+y,1/2+z
1/2+x,-y,1/2+z
-y,-x,z
1/2+y,1/2+x,z
loop_
_atom_site_type_symbol
_atom_site_label
_atom_site_fract_x
_atom_site_fract_y
_atom_site_fract_z
Si Si1 0.250000 0.750000 0.250000
Si Si2 0.853786 0.146215 0.490007
Si Si3 0.750000 0.250000 0.250000
Si Si4 0.545780 0.828919 0.069432
Si Si5 0.511613 0.875222 0.388745
O O1 0.310259 0.810259 0.139383
O O2 0.808085 0.191916 0.355976
O O3 0.957193 0.156844 0.481753
O O4 0.533208 0.883156 0.218701
O O5 0.538828 0.724991 0.088219
O O6 0.633572 0.866429 0.000000
O O7 0.568039 0.931961 0.500000
O O8 0.411586 0.911586 0.408134
#
# Coordination Sequence:
#
# PCOD9568364 Si02
#       5
#     2   8   2  16  16
#     4  10  20  38  68  90 128 178 232 274 340 418
#     4  11  23  40  61  97 133 176 219 283 341 414
#     4  10  28  38  60 102 140 186 228 278 356 410
#     4  11  24  42  67  97 136 176 217 282 342 406
#     4  10  23  43  69  98 130 177 230 275 334 403
#
# _framework density 20.407336000000001
#
# number of rings (size 3 to 8) (size 9 to 14) (size 15 to 20)
#    0.000    1.455    1.818    2.727    5.091    5.091 
#    0.000    3.636    0.000    0.000    0.000    0.000 
#    0.000    0.000    0.000    0.000    0.000    0.000 
#
# Total GULP energy -245018.457516 kJ/mol
# GULP energy per Si atom -5568.601307 kJ/mol
# Density = 2.036089 g / cm^3
# Si number density = 20.407336 Si / 1000 Ang^3
#
#
#
# Elastic Constant Matrix: (Units=GPa)
#
#
# Indices 1 2 3 4 5 6 
#
# 1 102.1202 50.5749 46.9087 0.0000 0.0000 0.0000
# 2 50.5749 102.1268 46.9102 0.0000 0.0000 0.0000
# 3 46.9087 46.9102 95.1705 0.0000 0.0000 0.0000
# 4 0.0000 0.0000 0.0000 23.4155 0.0000 0.0000
# 5 0.0000 0.0000 0.0000 0.0000 23.4103 0.0000
# 6 0.0000 0.0000 0.0000 0.0000 0.0000 40.6054
#
#
#
# Elastic Compliance Matrix: (Units=1/GPa)
#
#
# Indices 1 2 3 4 5 6 
#
# 1 0.014397 -0.005003 -0.004630 0.000000 0.000000 0.000000
# 2 -0.005003 0.014396 -0.004630 0.000000 0.000000 0.000000
# 3 -0.004630 -0.004630 0.015072 0.000000 0.000000 0.000000
# 4 0.000000 0.000000 0.000000 0.042707 0.000000 0.000000
# 5 0.000000 0.000000 0.000000 0.000000 0.042716 0.000000
# 6 0.000000 0.000000 0.000000 0.000000 0.000000 0.024627
#
#
# Mechanical properties :
#
#
# Convention : Reuss Voigt Hill
#
# Bulk Modulus (GPa) = 65.19491 65.35614 65.27552
# Shear Modulus (GPa) = 26.65903 27.82115 27.24009
#
# Velocity S-wave (km/s) = 3.61826 3.69628 3.65748
# Velocity P-wave (km/s) = 7.03363 7.09310 7.06342
#
# Compressibility (1/GPa) = 0.01533862
#
# Stress axis : x y z
#
# Youngs Moduli (GPa) = 69.45958 69.46407 66.34899
#
# Poissons Ratio (x) = 0.34751 0.30721
# Poissons Ratio (y) = 0.34749 0.30720
# Poissons Ratio (z) = 0.32161 0.32162
#
# Static dielectric constant tensor:
#      x y z
#    x 1.667650 0.000000 0.000000 
#    y 0.000000 1.667670 0.000000 
#    z 0.000000 0.000000 1.757590 
# 
# From -- ./inp_files/1913.got.cif
#   From: 2010.05.17/outbox.cif.g08.bks.cpg/sg134_1_cif.got.tgz:1913.got - 2010.05.20 12:42:49.
