data_PCOD9568729
_publ_section_title
;
Structure prediction by ZEFSAII (Michael W. Deem and Ramdas Pophale) SiO2 
 PCOD9568729
Probable space group: P 42/M B C
;
_chemical_formula_sum "Si O2"
_cell_formula_units_Z 96
_cell_length_a 25.665389
_cell_length_b 25.665389
_cell_length_c 8.878502
_cell_angle_alpha 90.000000
_cell_angle_beta 90.000000
_cell_angle_gamma 90.000000
_cell_volume 5848.377519
_symmetry_space_group_name_H-M "P 42/M B C"
_symmetry_group_IT_number 135
_symmetry_cell_setting 'tetragonal'
loop_
_space_group_symop_operation_xyz
x,y,z
-y,x,1/2+z
-x,-y,z
y,-x,1/2+z
1/2+x,1/2-y,-z
1/2-x,1/2+y,-z
1/2+y,1/2+x,1/2-z
1/2-y,1/2-x,1/2-z
-x,-y,-z
y,-x,1/2-z
x,y,-z
-y,x,1/2-z
1/2-x,1/2+y,z
1/2+x,1/2-y,z
1/2-y,1/2-x,1/2+z
1/2+y,1/2+x,1/2+z
loop_
_atom_site_type_symbol
_atom_site_label
_atom_site_fract_x
_atom_site_fract_y
_atom_site_fract_z
Si Si1 0.937349 0.857688 0.679749
Si Si2 0.248949 0.435491 0.327033
Si Si3 0.440661 0.859672 0.319773
Si Si4 0.556303 0.862722 0.817933
Si Si5 0.940372 0.139307 0.321470
Si Si6 0.746507 0.438144 0.327804
O O1 0.934368 0.852748 0.500000
O O2 0.918990 0.803624 0.755079
O O3 0.902474 0.905022 0.737164
O O4 0.998401 0.866089 0.719260
O O5 0.243964 0.418142 0.500000
O O6 0.197695 0.421852 0.232569
O O7 0.250859 0.498727 0.327926
O O8 0.402677 0.902677 0.250000
O O9 0.442175 0.862986 0.500000
O O10 0.498642 0.867248 0.252156
O O11 0.593598 0.906403 0.750000
O O12 0.577832 0.804673 0.780700
O O13 0.552804 0.866065 0.000000
O O14 0.935341 0.132452 0.500000
O O15 0.923588 0.197751 0.274627
O O16 0.736802 0.421315 0.500000
#
# Coordination Sequence:
#
# PCOD9568729 Si02
#       6
#    16  16  16  16  16  16
#     4  10  20  33  50  73 101 133 167 204 250 298
#     4   9  17  32  52  73  97 127 166 207 246 291
#     4  11  21  34  52  75 103 134 168 205 247 295
#     4  10  20  34  52  76 103 133 167 205 250 297
#     4  10  20  32  49  73  99 130 167 205 247 296
#     4   8  16  31  50  70  95 127 163 202 243 291
#
# _framework density 16.414808000000001
#
# number of rings (size 3 to 8) (size 9 to 14) (size 15 to 20)
#    0.000    2.333    0.000    4.500    0.000    7.333 
#    0.000    3.333    0.000    1.000    0.000    4.667 
#    0.000    0.000    0.000    0.000    0.000    0.000 
#
# Total GULP energy -535265.136310 kJ/mol
# GULP energy per Si atom -5575.678503 kJ/mol
# Density = 1.637745 g / cm^3
# Si number density = 16.414808 Si / 1000 Ang^3
#
#
#
# Elastic Constant Matrix: (Units=GPa)
#
#
# Indices 1 2 3 4 5 6 
#
# 1 88.6618 57.1066 53.2837 0.0000 0.0000 0.0000
# 2 57.1066 88.6605 53.2825 0.0000 0.0000 0.0000
# 3 53.2837 53.2825 99.5602 0.0000 0.0000 0.0000
# 4 0.0000 0.0000 0.0000 27.0619 0.0000 0.0000
# 5 0.0000 0.0000 0.0000 0.0000 27.0621 0.0000
# 6 0.0000 0.0000 0.0000 0.0000 0.0000 -5.6060
#
#
#
# Elastic Compliance Matrix: (Units=1/GPa)
#
#
# Indices 1 2 3 4 5 6 
#
# 1 0.021480 -0.010211 -0.006031 0.000000 0.000000 0.000000
# 2 -0.010211 0.021480 -0.006031 0.000000 0.000000 0.000000
# 3 -0.006031 -0.006031 0.016500 0.000000 0.000000 0.000000
# 4 0.000000 0.000000 0.000000 0.036952 0.000000 0.000000
# 5 0.000000 0.000000 0.000000 0.000000 0.036952 0.000000
# 6 0.000000 0.000000 0.000000 0.000000 0.000000 -0.178382
#
#
# Mechanical properties :
#
#
# Convention : Reuss Voigt Hill
#
# Bulk Modulus (GPa) = 67.05202 67.13646 67.09424
# Shear Modulus (GPa) = 1110.74858 17.25091 563.99975
#
# Velocity S-wave (km/s) = 26.04119 3.24533 18.55635
# Velocity P-wave (km/s) = 30.74295 7.41833 22.36247
#
# Compressibility (1/GPa) = 0.01491379
#
# Stress axis : x y z
#
# Youngs Moduli (GPa) = 46.55419 46.55418 60.60660
#
# Poissons Ratio (x) = 0.47536 0.36555
# Poissons Ratio (y) = 0.47536 0.36552
# Poissons Ratio (z) = 0.28079 0.28077
#
# Static dielectric constant tensor:
#      x y z
#    x 1.540700 0.000000 0.000000 
#    y 0.000000 1.540700 0.000000 
#    z 0.000000 0.000000 1.549200 
# 
# From -- ./inp_files/1245.got.cif
#   From: 2010.05.17/outbox.cif.g08.bks.cpg/sg135_1_cif.got.tgz:1245.got - 2010.05.20 12:50:20.
