data_PCOD9568726
_publ_section_title
;
Structure prediction by ZEFSAII (Michael W. Deem and Ramdas Pophale) SiO2 
 PCOD9568726
Probable space group: P 42/M B C
;
_chemical_formula_sum "Si O2"
_cell_formula_units_Z 96
_cell_length_a 25.560976
_cell_length_b 25.560976
_cell_length_c 8.883826
_cell_angle_alpha 90.000000
_cell_angle_beta 90.000000
_cell_angle_gamma 90.000000
_cell_volume 5804.367596
_symmetry_space_group_name_H-M "P 42/M B C"
_symmetry_group_IT_number 135
_symmetry_cell_setting 'tetragonal'
loop_
_space_group_symop_operation_xyz
x,y,z
-y,x,1/2+z
-x,-y,z
y,-x,1/2+z
1/2+x,1/2-y,-z
1/2-x,1/2+y,-z
1/2+y,1/2+x,1/2-z
1/2-y,1/2-x,1/2-z
-x,-y,-z
y,-x,1/2-z
x,y,-z
-y,x,1/2-z
1/2-x,1/2+y,z
1/2+x,1/2-y,z
1/2-y,1/2-x,1/2+z
1/2+y,1/2+x,1/2+z
loop_
_atom_site_type_symbol
_atom_site_label
_atom_site_fract_x
_atom_site_fract_y
_atom_site_fract_z
Si Si1 0.252506 0.557490 0.327601
Si Si2 0.554252 0.364706 0.829191
Si Si3 0.551634 0.255459 0.677131
Si Si4 0.670269 0.747829 0.680473
Si Si5 0.059512 0.878170 0.834057
Si Si6 0.836094 0.745815 0.180840
O O1 0.233403 0.559407 0.500000
O O2 0.235430 0.503170 0.248735
O O3 0.242612 0.612145 0.243225
O O4 0.315696 0.555512 0.332994
O O5 0.552655 0.317435 0.712752
O O6 0.601362 0.402764 0.793131
O O7 0.500138 0.396252 0.815552
O O8 0.557269 0.343416 0.000000
O O9 0.552397 0.245211 0.500000
O O10 0.605905 0.237882 0.754010
O O11 0.708891 0.791110 0.750000
O O12 0.669872 0.751423 0.500000
O O13 0.697960 0.691652 0.719435
O O14 0.078682 0.894628 0.000000
O O15 0.797594 0.702407 0.250000
O O16 0.837134 0.742179 0.000000
#
# Coordination Sequence:
#
# PCOD9568726 Si02
#       6
#    16  16  16  16  16  16
#     4  10  20  34  50  69  95 125 159 199 241 288
#     4  10  20  32  45  61  82 111 149 193 239 284
#     4  11  21  33  50  70  94 125 160 197 240 290
#     4  10  20  33  51  75 102 133 167 204 248 297
#     4   9  19  32  44  60  82 111 148 191 239 286
#     4  10  20  34  52  75 103 133 166 204 247 295
#
# _framework density 16.539269000000001
#
# number of rings (size 3 to 8) (size 9 to 14) (size 15 to 20)
#    0.000    2.000    0.000    5.500    0.000    9.000 
#    0.000    1.667    0.000    0.000    0.000    0.000 
#    0.000    0.667    0.000    6.667    0.000    4.000 
#
# Total GULP energy -535116.418681 kJ/mol
# GULP energy per Si atom -5574.129361 kJ/mol
# Density = 1.650163 g / cm^3
# Si number density = 16.539269 Si / 1000 Ang^3
#
#
#
# Elastic Constant Matrix: (Units=GPa)
#
#
# Indices 1 2 3 4 5 6 
#
# 1 80.4365 24.1835 38.9075 0.0000 0.0000 0.0000
# 2 24.1835 80.4366 38.9081 0.0000 0.0000 0.0000
# 3 38.9075 38.9081 98.2305 0.0000 0.0000 0.0000
# 4 0.0000 0.0000 0.0000 24.5005 0.0000 0.0000
# 5 0.0000 0.0000 0.0000 0.0000 24.4998 0.0000
# 6 0.0000 0.0000 0.0000 0.0000 0.0000 16.3801
#
#
#
# Elastic Compliance Matrix: (Units=1/GPa)
#
#
# Indices 1 2 3 4 5 6 
#
# 1 0.015664 -0.002113 -0.005367 0.000000 0.000000 0.000000
# 2 -0.002113 0.015664 -0.005367 0.000000 0.000000 0.000000
# 3 -0.005367 -0.005367 0.014432 0.000000 0.000000 0.000000
# 4 0.000000 0.000000 0.000000 0.040816 0.000000 0.000000
# 5 0.000000 0.000000 0.000000 0.000000 0.040817 0.000000
# 6 0.000000 0.000000 0.000000 0.000000 0.000000 0.061050
#
#
# Mechanical properties :
#
#
# Convention : Reuss Voigt Hill
#
# Bulk Modulus (GPa) = 49.84019 51.45577 50.64798
# Shear Modulus (GPa) = 22.64248 23.54972 23.09610
#
# Velocity S-wave (km/s) = 3.70403 3.77751 3.74095
# Velocity P-wave (km/s) = 6.96369 7.08554 7.02488
#
# Compressibility (1/GPa) = 0.02006413
#
# Stress axis : x y z
#
# Youngs Moduli (GPa) = 63.84232 63.84202 69.29113
#
# Poissons Ratio (x) = 0.13491 0.37189
# Poissons Ratio (y) = 0.13491 0.37190
# Poissons Ratio (z) = 0.34265 0.34265
#
# Static dielectric constant tensor:
#      x y z
#    x 1.569850 0.000000 0.000000 
#    y 0.000000 1.569850 0.000000 
#    z 0.000000 0.000000 1.579880 
# 
# From -- ./inp_files/1196.got.cif
#   From: 2010.05.17/outbox.cif.g08.bks.cpg/sg135_1_cif.got.tgz:1196.got - 2010.05.20 12:50:20.
