data_PCOD9568125
_publ_section_title
;
Structure prediction by ZEFSAII (Michael W. Deem and Ramdas Pophale) SiO2 
 PCOD9568125
Probable space group: P 42/N N M
;
_chemical_formula_sum "Si O2"
_cell_formula_units_Z 56
_cell_length_a 19.474153
_cell_length_b 19.474153
_cell_length_c 9.043004
_cell_angle_alpha 90.000000
_cell_angle_beta 90.000000
_cell_angle_gamma 90.000000
_cell_volume 3429.492666
_symmetry_space_group_name_H-M "P 42/N N M"
_symmetry_group_IT_number 134
_space_group.IT_coordinate_system_code '2'
_symmetry_cell_setting 'tetragonal'
loop_
_space_group_symop_operation_xyz
x,y,z
1/2-y,x,1/2+z
1/2-x,1/2-y,z
y,1/2-x,1/2+z
x,1/2-y,1/2-z
1/2-x,y,1/2-z
y,x,-z
1/2-y,1/2-x,-z
-x,-y,-z
1/2+y,-x,1/2-z
1/2+x,1/2+y,-z
-y,1/2+x,1/2-z
-x,1/2+y,1/2+z
1/2+x,-y,1/2+z
-y,-x,z
1/2+y,1/2+x,z
loop_
_atom_site_type_symbol
_atom_site_label
_atom_site_fract_x
_atom_site_fract_y
_atom_site_fract_z
Si Si1 0.072827 0.355206 0.179837
Si Si2 0.750000 0.984901 0.750000
Si Si3 0.121441 0.992688 0.406079
Si Si4 0.391030 0.281955 0.032290
O O1 0.103912 0.430851 0.156790
O O2 0.116008 0.293217 0.104948
O O3 0.069562 0.330877 0.348760
O O4 0.004748 0.358631 0.078055
O O5 0.812770 0.028994 0.687388
O O6 0.726772 0.935639 0.615286
O O7 0.057228 0.942773 0.393055
O O8 0.319797 0.319797 0.000000
#
# Coordination Sequence:
#
# PCOD9568125 Si02
#       4
#    16   8  16  16
#     4   9  18  31  49  71 100 141 178 208 250 308
#     4  10  20  34  53  75 106 132 178 222 266 307
#     4  10  19  35  54  72 101 136 174 217 263 314
#     4  10  18  32  49  70 107 142 177 218 251 297
#
# _framework density 16.328945000000001
#
# number of rings (size 3 to 8) (size 9 to 14) (size 15 to 20)
#    0.000    2.286    2.857    1.714    0.000    0.000 
#    0.000   17.143    0.000    0.429    0.000    0.000 
#    0.000    0.000    0.000    0.000    0.000    0.000 
#
# Total GULP energy -311746.838941 kJ/mol
# GULP energy per Si atom -5566.907838 kJ/mol
# Density = 1.629178 g / cm^3
# Si number density = 16.328945 Si / 1000 Ang^3
#
#
#
# Elastic Constant Matrix: (Units=GPa)
#
#
# Indices 1 2 3 4 5 6 
#
# 1 73.8822 57.9300 35.7192 0.0000 0.0000 0.0000
# 2 57.9300 73.8822 35.7192 0.0000 0.0000 0.0000
# 3 35.7192 35.7192 121.3345 0.0000 0.0000 0.0000
# 4 0.0000 0.0000 0.0000 14.7697 0.0000 0.0000
# 5 0.0000 0.0000 0.0000 0.0000 14.7697 0.0000
# 6 0.0000 0.0000 0.0000 0.0000 0.0000 30.5644
#
#
#
# Elastic Compliance Matrix: (Units=1/GPa)
#
#
# Indices 1 2 3 4 5 6 
#
# 1 0.035857 -0.026830 -0.002657 0.000000 0.000000 0.000000
# 2 -0.026830 0.035857 -0.002657 0.000000 0.000000 0.000000
# 3 -0.002657 -0.002657 0.009806 0.000000 0.000000 0.000000
# 4 0.000000 0.000000 0.000000 0.067706 0.000000 0.000000
# 5 0.000000 0.000000 0.000000 0.000000 0.067706 0.000000
# 6 0.000000 0.000000 0.000000 0.000000 0.000000 0.032718
#
#
# Mechanical properties :
#
#
# Convention : Reuss Voigt Hill
#
# Bulk Modulus (GPa) = 58.03709 58.64841 58.34275
# Shear Modulus (GPa) = 15.64049 21.33614 18.48832
#
# Velocity S-wave (km/s) = 3.09825 3.61868 3.36853
# Velocity P-wave (km/s) = 6.95834 7.31126 7.13698
#
# Compressibility (1/GPa) = 0.01723036
#
# Stress axis : x y z
#
# Youngs Moduli (GPa) = 27.88865 27.88865 101.97566
#
# Poissons Ratio (x) = 0.74826 0.27099
# Poissons Ratio (y) = 0.74826 0.27099
# Poissons Ratio (z) = 0.07411 0.07411
#
# Static dielectric constant tensor:
#      x y z
#    x 1.552630 0.000000 0.000000 
#    y 0.000000 1.552630 0.000000 
#    z 0.000000 0.000000 1.611710 
# 
# From -- ./inp_files/2412.got.cif
#   From: 2010.05.17/outbox.cif.g08.bks.cpg/sg134_2_cif.got.tgz:2412.got - 2010.05.20 12:42:49.
