data_PCOD9568561
_publ_section_title
;
Structure prediction by ZEFSAII (Michael W. Deem and Ramdas Pophale) SiO2 
 PCOD9568561
Probable space group: P 42/N N M
;
_chemical_formula_sum "Si O2"
_cell_formula_units_Z 36
_cell_length_a 8.938913
_cell_length_b 8.938913
_cell_length_c 16.648265
_cell_angle_alpha 90.000000
_cell_angle_beta 90.000000
_cell_angle_gamma 90.000000
_cell_volume 1330.265724
_symmetry_space_group_name_H-M "P 42/N N M"
_symmetry_group_IT_number 134
_space_group.IT_coordinate_system_code '2'
_symmetry_cell_setting 'tetragonal'
loop_
_space_group_symop_operation_xyz
x,y,z
1/2-y,x,1/2+z
1/2-x,1/2-y,z
y,1/2-x,1/2+z
x,1/2-y,1/2-z
1/2-x,y,1/2-z
y,x,-z
1/2-y,1/2-x,-z
-x,-y,-z
1/2+y,-x,1/2-z
1/2+x,1/2+y,-z
-y,1/2+x,1/2-z
-x,1/2+y,1/2+z
1/2+x,-y,1/2+z
-y,-x,z
1/2+y,1/2+x,z
loop_
_atom_site_type_symbol
_atom_site_label
_atom_site_fract_x
_atom_site_fract_y
_atom_site_fract_z
Si Si1 0.472693 0.298578 0.837905
Si Si2 0.000000 0.500000 0.500000
Si Si3 0.715010 0.525214 0.386981
O O1 0.523816 0.250000 0.750000
O O2 0.600781 0.399220 0.881073
O O3 0.408609 0.157929 0.885658
O O4 0.337129 0.413725 0.823731
O O5 0.825991 0.514126 0.462105
O O6 0.625531 0.374470 0.371662
#
# Coordination Sequence:
#
# PCOD9568561 Si02
#       3
#    16   4  16
#     4  11  25  49  80 120 169 208 275 347 418 508
#     4  12  26  50  78 114 164 206 294 352 392 494
#     4  11  25  50  80 111 160 219 273 340 415 493
#
# _framework density 27.062263000000002
#
# number of rings (size 3 to 8) (size 9 to 14) (size 15 to 20)
#    0.000    0.889    2.222    4.667    0.000    6.667 
#    4.000   31.111    0.000    0.000    0.000    0.000 
#    0.000    0.000    0.000    0.000    0.000    0.000 
#
# Total GULP energy -200466.134896 kJ/mol
# GULP energy per Si atom -5568.503747 kJ/mol
# Density = 2.700067 g / cm^3
# Si number density = 27.062263 Si / 1000 Ang^3
#
#
#
# Elastic Constant Matrix: (Units=GPa)
#
#
# Indices 1 2 3 4 5 6 
#
# 1 172.1992 162.8601 57.2220 0.0000 0.0000 0.0000
# 2 162.8601 172.1992 57.2220 0.0000 0.0000 0.0000
# 3 57.2220 57.2220 84.5525 0.0000 0.0000 0.0000
# 4 0.0000 0.0000 0.0000 38.8170 0.0000 0.0000
# 5 0.0000 0.0000 0.0000 0.0000 38.8170 0.0000
# 6 0.0000 0.0000 0.0000 0.0000 0.0000 125.2892
#
#
#
# Elastic Compliance Matrix: (Units=1/GPa)
#
#
# Indices 1 2 3 4 5 6 
#
# 1 0.055479 -0.051597 -0.002627 0.000000 0.000000 0.000000
# 2 -0.051597 0.055479 -0.002627 0.000000 0.000000 0.000000
# 3 -0.002627 -0.002627 0.015383 0.000000 0.000000 0.000000
# 4 0.000000 0.000000 0.000000 0.025762 0.000000 0.000000
# 5 0.000000 0.000000 0.000000 0.000000 0.025762 0.000000
# 6 0.000000 0.000000 0.000000 0.000000 0.000000 0.007982
#
#
# Mechanical properties :
#
#
# Convention : Reuss Voigt Hill
#
# Bulk Modulus (GPa) = 79.12554 109.28433 94.20494
# Shear Modulus (GPa) = 16.46029 50.69442 33.57735
#
# Velocity S-wave (km/s) = 2.46892 4.33280 3.52624
# Velocity P-wave (km/s) = 6.11794 8.09328 7.17392
#
# Compressibility (1/GPa) = 0.01263814
#
# Stress axis : x y z
#
# Youngs Moduli (GPa) = 18.02486 18.02486 65.00761
#
# Poissons Ratio (x) = 0.93003 0.17078
# Poissons Ratio (y) = 0.93003 0.17078
# Poissons Ratio (z) = 0.04735 0.04735
#
# Static dielectric constant tensor:
#      x y z
#    x 2.065110 0.000000 0.000000 
#    y 0.000000 2.065110 0.000000 
#    z 0.000000 0.000000 2.062010 
# 
# From -- ./inp_files/8319.got.cif
#   From: 2010.05.17/outbox.cif.g08.bks.cpg/sg134_5_cif.got.tgz:8319.got - 2010.05.20 12:42:49.
