data_PCOD9568139
_publ_section_title
;
Structure prediction by ZEFSAII (Michael W. Deem and Ramdas Pophale) SiO2 
 PCOD9568139
Probable space group: P 42/N N M
;
_chemical_formula_sum "Si O2"
_cell_formula_units_Z 96
_cell_length_a 18.337966
_cell_length_b 18.337966
_cell_length_c 16.624359
_cell_angle_alpha 90.000000
_cell_angle_beta 90.000000
_cell_angle_gamma 90.000000
_cell_volume 5590.456019
_symmetry_space_group_name_H-M "P 42/N N M"
_symmetry_group_IT_number 134
_space_group.IT_coordinate_system_code '2'
_symmetry_cell_setting 'tetragonal'
loop_
_space_group_symop_operation_xyz
x,y,z
1/2-y,x,1/2+z
1/2-x,1/2-y,z
y,1/2-x,1/2+z
x,1/2-y,1/2-z
1/2-x,y,1/2-z
y,x,-z
1/2-y,1/2-x,-z
-x,-y,-z
1/2+y,-x,1/2-z
1/2+x,1/2+y,-z
-y,1/2+x,1/2-z
-x,1/2+y,1/2+z
1/2+x,-y,1/2+z
-y,-x,z
1/2+y,1/2+x,z
loop_
_atom_site_type_symbol
_atom_site_label
_atom_site_fract_x
_atom_site_fract_y
_atom_site_fract_z
Si Si1 0.670237 0.835414 0.272884
Si Si2 0.001161 0.998840 0.353079
Si Si3 0.552898 0.447103 0.182994
Si Si4 0.390169 0.609832 0.561619
Si Si5 0.067990 0.137610 0.078971
Si Si6 0.972979 0.795973 0.519349
Si Si7 0.835172 0.164829 0.269145
Si Si8 0.371963 0.089972 0.117366
O O1 0.672187 0.750000 0.250000
O O2 0.750000 0.865465 0.250000
O O3 0.652865 0.862846 0.361981
O O4 0.613233 0.864816 0.208725
O O5 0.982295 0.919340 0.381890
O O6 0.985240 0.014761 0.259977
O O7 0.947186 0.052815 0.400042
O O8 0.491799 0.406662 0.130097
O O9 0.611419 0.388582 0.218503
O O10 0.445253 0.669174 0.520492
O O11 0.350945 0.649056 0.636983
O O12 0.032589 0.214804 0.053240
O O13 0.094959 0.094959 0.000000
O O14 0.931852 0.801158 0.433067
O O15 0.920274 0.847900 0.573734
O O16 0.850032 0.250000 0.250000
#
# Coordination Sequence:
#
# PCOD9568139 Si02
#       8
#    16   8   8   8  16  16   8  16
#     4  11  22  36  53  76 107 148 192 233 283 344
#     4   9  17  30  55  77  99 136 183 229 274 338
#     4  11  22  37  58  77 111 158 195 231 286 359
#     4   9  18  32  51  81 108 141 179 233 297 344
#     4  12  24  39  55  81 114 157 198 236 291 358
#     4  10  20  33  55  80 112 142 182 241 292 352
#     4  10  20  33  54  86 115 145 191 243 293 353
#     4  10  18  34  52  80 104 141 181 233 288 335
#
# _framework density 17.172122000000002
#
# number of rings (size 3 to 8) (size 9 to 14) (size 15 to 20)
#    0.000    1.583    3.333    2.750    0.000    2.667 
#    0.000    0.000    0.000    0.000    0.000    0.000 
#    0.000    0.000    0.000    1.500    0.000    0.000 
#
# Total GULP energy -534696.839122 kJ/mol
# GULP energy per Si atom -5569.758741 kJ/mol
# Density = 1.713304 g / cm^3
# Si number density = 17.172122 Si / 1000 Ang^3
#
#
#
# Elastic Constant Matrix: (Units=GPa)
#
#
# Indices 1 2 3 4 5 6 
#
# 1 66.7013 25.7358 23.0398 0.0000 0.0000 0.0000
# 2 25.7358 66.7013 23.0398 0.0000 0.0000 0.0000
# 3 23.0398 23.0398 72.9547 0.0000 0.0000 0.0000
# 4 0.0000 0.0000 0.0000 29.3716 0.0000 0.0000
# 5 0.0000 0.0000 0.0000 0.0000 29.3716 0.0000
# 6 0.0000 0.0000 0.0000 0.0000 0.0000 25.0276
#
#
#
# Elastic Compliance Matrix: (Units=1/GPa)
#
#
# Indices 1 2 3 4 5 6 
#
# 1 0.018625 -0.005786 -0.004055 0.000000 0.000000 0.000000
# 2 -0.005786 0.018625 -0.004055 0.000000 0.000000 0.000000
# 3 -0.004055 -0.004055 0.016268 0.000000 0.000000 0.000000
# 4 0.000000 0.000000 0.000000 0.034046 0.000000 0.000000
# 5 0.000000 0.000000 0.000000 0.000000 0.034046 0.000000
# 6 0.000000 0.000000 0.000000 0.000000 0.000000 0.039956
#
#
# Mechanical properties :
#
#
# Convention : Reuss Voigt Hill
#
# Bulk Modulus (GPa) = 38.86833 38.88756 38.87795
# Shear Modulus (GPa) = 25.26097 25.72364 25.49231
#
# Velocity S-wave (km/s) = 3.83958 3.87458 3.85712
# Velocity P-wave (km/s) = 6.50694 6.53540 6.52118
#
# Compressibility (1/GPa) = 0.02572789
#
# Stress axis : x y z
#
# Youngs Moduli (GPa) = 53.69094 53.69094 61.46939
#
# Poissons Ratio (x) = 0.31064 0.24925
# Poissons Ratio (y) = 0.31064 0.24925
# Poissons Ratio (z) = 0.21771 0.21771
#
# Static dielectric constant tensor:
#      x y z
#    x 1.618330 0.000000 0.000000 
#    y 0.000000 1.618330 0.000000 
#    z 0.000000 0.000000 1.592300 
# 
# From -- ./inp_files/7980.got.cif
#   From: 2010.05.17/outbox.cif.g08.bks.cpg/sg134_4_cif.got.tgz:7980.got - 2010.05.20 12:42:49.
