data_PCOD9568793
_publ_section_title
;
Structure prediction by ZEFSAII (Michael W. Deem and Ramdas Pophale) SiO2 
 PCOD9568793
Probable space group: P 42/M B C
;
_chemical_formula_sum "Si O2"
_cell_formula_units_Z 96
_cell_length_a 17.411795
_cell_length_b 17.411795
_cell_length_c 17.790248
_cell_angle_alpha 90.000000
_cell_angle_beta 90.000000
_cell_angle_gamma 90.000000
_cell_volume 5393.480251
_symmetry_space_group_name_H-M "P 42/M B C"
_symmetry_group_IT_number 135
_symmetry_cell_setting 'tetragonal'
loop_
_space_group_symop_operation_xyz
x,y,z
-y,x,1/2+z
-x,-y,z
y,-x,1/2+z
1/2+x,1/2-y,-z
1/2-x,1/2+y,-z
1/2+y,1/2+x,1/2-z
1/2-y,1/2-x,1/2-z
-x,-y,-z
y,-x,1/2-z
x,y,-z
-y,x,1/2-z
1/2-x,1/2+y,z
1/2+x,1/2-y,z
1/2-y,1/2-x,1/2+z
1/2+y,1/2+x,1/2+z
loop_
_atom_site_type_symbol
_atom_site_label
_atom_site_fract_x
_atom_site_fract_y
_atom_site_fract_z
Si Si1 0.083098 0.965981 0.911565
Si Si2 0.801164 0.429210 0.760535
Si Si3 0.339017 0.339999 0.810926
Si Si4 0.268892 0.572853 0.914878
Si Si5 0.256842 0.788178 0.586407
Si Si6 0.905379 0.708451 0.792651
O O1 0.107024 0.895176 0.859459
O O2 0.149979 0.029812 0.903665
O O3 0.080794 0.943665 0.000000
O O4 0.000000 0.000000 0.891696
O O5 0.871328 0.371328 0.750000
O O6 0.724005 0.385843 0.734159
O O7 0.787871 0.450899 0.847915
O O8 0.809763 0.505508 0.711630
O O9 0.279642 0.295849 0.865739
O O10 0.286911 0.388711 0.753474
O O11 0.279279 0.664725 0.910157
O O12 0.242603 0.554298 0.000000
O O13 0.281003 0.784471 0.500000
O O14 0.280330 0.867473 0.626171
O O15 0.857204 0.642797 0.750000
#
# Coordination Sequence:
#
# PCOD9568793 Si02
#       6
#    16  16  16  16  16  16
#     4  10  22  37  55  87 124 153 184 231 294 358
#     4  12  22  39  60  85 118 151 199 248 290 349
#     4  11  20  36  60  85 116 152 198 232 289 351
#     4  10  20  37  57  82 116 157 190 232 289 341
#     4  10  20  38  60  85 115 153 197 244 291 347
#     4  10  22  39  59  85 113 152 200 244 290 347
#
# _framework density 17.799268000000001
#
# number of rings (size 3 to 8) (size 9 to 14) (size 15 to 20)
#    0.000    1.500    5.000    1.000    2.333    0.333 
#    0.000    1.667    0.000    0.000    0.000    3.500 
#    0.000    0.000    0.000    0.000    0.000    0.000 
#
# Total GULP energy -536137.076255 kJ/mol
# GULP energy per Si atom -5584.761211 kJ/mol
# Density = 1.775876 g / cm^3
# Si number density = 17.799268 Si / 1000 Ang^3
#
#
#
# Elastic Constant Matrix: (Units=GPa)
#
#
# Indices 1 2 3 4 5 6 
#
# 1 56.7111 6.5495 9.7776 0.0000 0.0000 0.0000
# 2 6.5495 56.7090 9.7771 0.0000 0.0000 0.0000
# 3 9.7776 9.7771 85.5340 0.0000 0.0000 0.0000
# 4 0.0000 0.0000 0.0000 19.1822 0.0000 0.0000
# 5 0.0000 0.0000 0.0000 0.0000 19.1812 0.0000
# 6 0.0000 0.0000 0.0000 0.0000 0.0000 21.5404
#
#
#
# Elastic Compliance Matrix: (Units=1/GPa)
#
#
# Indices 1 2 3 4 5 6 
#
# 1 0.018161 -0.001775 -0.001873 0.000000 0.000000 0.000000
# 2 -0.001775 0.018162 -0.001873 0.000000 0.000000 0.000000
# 3 -0.001873 -0.001873 0.012119 0.000000 0.000000 0.000000
# 4 0.000000 0.000000 0.000000 0.052132 0.000000 0.000000
# 5 0.000000 0.000000 0.000000 0.000000 0.052134 0.000000
# 6 0.000000 0.000000 0.000000 0.000000 0.000000 0.046424
#
#
# Mechanical properties :
#
#
# Convention : Reuss Voigt Hill
#
# Bulk Modulus (GPa) = 26.73752 27.90694 27.32223
# Shear Modulus (GPa) = 22.45764 23.50410 22.98087
#
# Velocity S-wave (km/s) = 3.55592 3.63782 3.59710
# Velocity P-wave (km/s) = 5.64922 5.77562 5.71277
#
# Compressibility (1/GPa) = 0.03740062
#
# Stress axis : x y z
#
# Youngs Moduli (GPa) = 55.06266 55.06071 82.51169
#
# Poissons Ratio (x) = 0.09771 0.15456
# Poissons Ratio (y) = 0.09771 0.15456
# Poissons Ratio (z) = 0.10314 0.10314
#
# Static dielectric constant tensor:
#      x y z
#    x 1.586690 0.000000 0.000000 
#    y 0.000000 1.586690 0.000000 
#    z 0.000000 0.000000 1.628440 
# 
# From -- ./inp_files/4491.got.cif
#   From: 2010.05.17/outbox.cif.g08.bks.cpg/sg135_3_cif.got.tgz:4491.got - 2010.05.20 12:50:20.
