data_PCOD9568281
_publ_section_title
;
Structure prediction by ZEFSAII (Michael W. Deem and Ramdas Pophale) SiO2 
 PCOD9568281
Probable space group: P 42/N N M
;
_chemical_formula_sum "Si O2"
_cell_formula_units_Z 80
_cell_length_a 10.817211
_cell_length_b 10.817211
_cell_length_c 33.876624
_cell_angle_alpha 90.000000
_cell_angle_beta 90.000000
_cell_angle_gamma 90.000000
_cell_volume 3963.973351
_symmetry_space_group_name_H-M "P 42/N N M"
_symmetry_group_IT_number 134
_space_group.IT_coordinate_system_code '2'
_symmetry_cell_setting 'tetragonal'
loop_
_space_group_symop_operation_xyz
x,y,z
1/2-y,x,1/2+z
1/2-x,1/2-y,z
y,1/2-x,1/2+z
x,1/2-y,1/2-z
1/2-x,y,1/2-z
y,x,-z
1/2-y,1/2-x,-z
-x,-y,-z
1/2+y,-x,1/2-z
1/2+x,1/2+y,-z
-y,1/2+x,1/2-z
-x,1/2+y,1/2+z
1/2+x,-y,1/2+z
-y,-x,z
1/2+y,1/2+x,z
loop_
_atom_site_type_symbol
_atom_site_label
_atom_site_fract_x
_atom_site_fract_y
_atom_site_fract_z
Si Si1 0.491474 0.308477 0.402251
Si Si2 0.756847 0.455006 0.795839
Si Si3 0.208382 0.992907 0.427201
Si Si4 0.883413 0.918026 0.860012
Si Si5 0.546057 0.252106 0.487476
O O1 0.623959 0.376042 0.394068
O O2 0.395396 0.416180 0.410995
O O3 0.432016 0.217603 0.370392
O O4 0.496498 0.232939 0.443641
O O5 0.750000 0.491734 0.750000
O O6 0.654324 0.345677 0.800616
O O7 0.887868 0.387868 0.804486
O O8 0.716940 0.562271 0.825518
O O9 0.143763 0.856238 0.427443
O O10 0.240124 0.030258 0.472308
O O11 0.321656 0.016158 0.398183
O O12 0.003724 0.996277 0.848736
O O13 0.615996 0.384005 0.484445
O O14 0.647219 0.147219 0.495169
#
# Coordination Sequence:
#
# PCOD9568281 Si02
#       5
#    16  16  16  16  16
#     4  10  21  36  51  70 106 153 190 220 260 314
#     4   8  15  30  53  82 115 143 165 204 272 342
#     4  10  20  34  52  74 103 138 179 230 280 320
#     4  11  21  32  52  81 109 139 178 220 264 320
#     4   9  17  31  51  73  99 136 183 231 276 317
#
# _framework density 20.181768999999999
#
# number of rings (size 3 to 8) (size 9 to 14) (size 15 to 20)
#    0.000    2.400    0.000    3.600    0.000    6.400 
#    0.000    4.000    0.000    2.400    0.000    0.000 
#    0.000    3.200    0.000   34.200    0.000    0.800 
#
# Total GULP energy -446004.363696 kJ/mol
# GULP energy per Si atom -5575.054546 kJ/mol
# Density = 2.013583 g / cm^3
# Si number density = 20.181769 Si / 1000 Ang^3
#
#
#
# Elastic Constant Matrix: (Units=GPa)
#
#
# Indices 1 2 3 4 5 6 
#
# 1 74.3889 37.9228 46.0617 0.0000 0.0000 0.0000
# 2 37.9228 74.3889 46.0617 0.0000 0.0000 0.0000
# 3 46.0617 46.0617 107.2602 0.0000 0.0000 0.0000
# 4 0.0000 0.0000 0.0000 -21.8428 0.0000 0.0000
# 5 0.0000 0.0000 0.0000 0.0000 -21.8428 0.0000
# 6 0.0000 0.0000 0.0000 0.0000 0.0000 20.6929
#
#
#
# Elastic Compliance Matrix: (Units=1/GPa)
#
#
# Indices 1 2 3 4 5 6 
#
# 1 0.020584 -0.006839 -0.005903 0.000000 0.000000 0.000000
# 2 -0.006839 0.020584 -0.005903 0.000000 0.000000 0.000000
# 3 -0.005903 -0.005903 0.014393 0.000000 0.000000 0.000000
# 4 0.000000 0.000000 0.000000 -0.045782 0.000000 0.000000
# 5 0.000000 0.000000 0.000000 0.000000 -0.045782 0.000000
# 6 0.000000 0.000000 0.000000 0.000000 0.000000 0.048326
#
#
# Mechanical properties :
#
#
# Convention : Reuss Voigt Hill
#
# Bulk Modulus (GPa) = 54.72665 57.34781 56.03723
# Shear Modulus (GPa) = 89.76132 3.80092 46.78112
#
# Velocity S-wave (km/s) = 6.67630 1.37384 4.81977
# Velocity P-wave (km/s) = 9.30626 5.56722 7.66813
#
# Compressibility (1/GPa) = 0.01827263
#
# Stress axis : x y z
#
# Youngs Moduli (GPa) = 48.58104 48.58104 69.47825
#
# Poissons Ratio (x) = 0.33222 0.41012
# Poissons Ratio (y) = 0.33222 0.41012
# Poissons Ratio (z) = 0.28677 0.28677
#
# Static dielectric constant tensor:
#      x y z
#    x 1.746310 0.000000 0.000000 
#    y 0.000000 1.746310 0.000000 
#    z 0.000000 0.000000 1.747290 
# 
# From -- ./inp_files/11316.got.cif
#   From: 2010.05.17/outbox.cif.g08.bks.cpg/sg134_6_cif.got.tgz:11316.got - 2010.05.20 12:42:49.
