data_PCOD9568582
_publ_section_title
;
Structure prediction by ZEFSAII (Michael W. Deem and Ramdas Pophale) SiO2 
 PCOD9568582
Probable space group: P 42/N N M
;
_chemical_formula_sum "Si O2"
_cell_formula_units_Z 64
_cell_length_a 12.000000
_cell_length_b 12.000000
_cell_length_c 21.000000
_cell_angle_alpha 90.000000
_cell_angle_beta 90.000000
_cell_angle_gamma 90.000000
_cell_volume 3024.000000
_symmetry_space_group_name_H-M "P 42/N N M"
_symmetry_group_IT_number 134
_space_group.IT_coordinate_system_code '2'
_symmetry_cell_setting 'tetragonal'
loop_
_space_group_symop_operation_xyz
x,y,z
1/2-y,x,1/2+z
1/2-x,1/2-y,z
y,1/2-x,1/2+z
x,1/2-y,1/2-z
1/2-x,y,1/2-z
y,x,-z
1/2-y,1/2-x,-z
-x,-y,-z
1/2+y,-x,1/2-z
1/2+x,1/2+y,-z
-y,1/2+x,1/2-z
-x,1/2+y,1/2+z
1/2+x,-y,1/2+z
-y,-x,z
1/2+y,1/2+x,z
loop_
_atom_site_type_symbol
_atom_site_label
_atom_site_fract_x
_atom_site_fract_y
_atom_site_fract_z
Si Si1 0.667559 0.980713 0.955539
Si Si2 0.976581 0.296774 0.676482
Si Si3 0.933824 0.246648 0.079278
Si Si4 0.879589 0.712753 0.679386
O O1 0.560791 0.060791 0.951681
O O2 0.716227 0.987172 0.883104
O O3 0.624448 0.875553 0.000000
O O4 0.756309 0.033785 0.004765
O O5 0.971274 0.250000 0.750000
O O6 0.861059 0.361059 0.663147
O O7 0.079625 0.381606 0.677750
O O8 0.861163 0.138838 0.096437
O O9 0.853673 0.353673 0.087280
O O10 0.040481 0.258163 0.124596
O O11 0.750000 0.750000 0.671160
O O12 0.913996 0.750000 0.750000
#
# Coordination Sequence:
#
# PCOD9568582 Si02
#       4
#    16  16  16  16
#     4  10  22  41  67  99 138 185 230 280 344 416
#     4  12  25  42  68 102 141 185 231 287 355 428
#     4  10  22  41  67  98 131 171 223 284 342 402
#     4  11  23  44  65  93 134 176 227 280 343 415
#
# _framework density 21.164021000000002
#
# number of rings (size 3 to 8) (size 9 to 14) (size 15 to 20)
#    0.000    1.250    2.500    3.750    0.000    5.750 
#    0.000    6.250    0.000    0.000    0.000    0.000 
#    0.000    0.000    0.000    0.000    0.000    0.000 
#
# Total GULP energy -356813.863534 kJ/mol
# GULP energy per Si atom -5575.216618 kJ/mol
# Density = 2.111585 g / cm^3
# Si number density = 21.164021 Si / 1000 Ang^3
#
#
#
# Elastic Constant Matrix: (Units=GPa)
#
#
# Indices 1 2 3 4 5 6 
#
# 1 65.5003 23.9114 53.5572 0.0000 0.0000 0.0000
# 2 23.9114 65.5006 53.5570 0.0000 0.0000 0.0000
# 3 53.5572 53.5570 210.6693 0.0000 0.0000 0.0000
# 4 0.0000 0.0000 0.0000 32.2924 0.0000 0.0000
# 5 0.0000 0.0000 0.0000 0.0000 32.2921 0.0000
# 6 0.0000 0.0000 0.0000 0.0000 0.0000 29.0438
#
#
#
# Elastic Compliance Matrix: (Units=1/GPa)
#
#
# Indices 1 2 3 4 5 6 
#
# 1 0.020064 -0.003981 -0.004088 0.000000 0.000000 0.000000
# 2 -0.003981 0.020063 -0.004088 0.000000 0.000000 0.000000
# 3 -0.004088 -0.004088 0.006826 0.000000 0.000000 0.000000
# 4 0.000000 0.000000 0.000000 0.030967 0.000000 0.000000
# 5 0.000000 0.000000 0.000000 0.000000 0.030967 0.000000
# 6 0.000000 0.000000 0.000000 0.000000 0.000000 0.034431
#
#
# Mechanical properties :
#
#
# Convention : Reuss Voigt Hill
#
# Bulk Modulus (GPa) = 44.17751 67.08016 55.62883
# Shear Modulus (GPa) = 28.54218 32.76864 30.65541
#
# Velocity S-wave (km/s) = 3.67634 3.93914 3.81000
# Velocity P-wave (km/s) = 6.24018 7.24246 6.75992
#
# Compressibility (1/GPa) = 0.02263595
#
# Stress axis : x y z
#
# Youngs Moduli (GPa) = 49.84175 49.84204 146.50866
#
# Poissons Ratio (x) = 0.19844 0.59900
# Poissons Ratio (y) = 0.19844 0.59899
# Poissons Ratio (z) = 0.20378 0.20378
#
# Static dielectric constant tensor:
#      x y z
#    x 1.812000 0.000000 0.000000 
#    y 0.000000 1.812010 0.000000 
#    z 0.000000 0.000000 1.763040 
# 
# From -- ./inp_files/8698.got.cif
#   From: 2010.05.17/outbox.ucp.g08.bks.cvg/sg134_5_cif.got.tgz:8698.got - 2010.06.11 11:39:54.
