data_PCOD9568850
_publ_section_title
;
Structure prediction by ZEFSAII (Michael W. Deem and Ramdas Pophale) SiO2 
 PCOD9568850
Probable space group: P 42/M B C
;
_chemical_formula_sum "Si O2"
_cell_formula_units_Z 96
_cell_length_a 17.041973
_cell_length_b 17.041973
_cell_length_c 18.019322
_cell_angle_alpha 90.000000
_cell_angle_beta 90.000000
_cell_angle_gamma 90.000000
_cell_volume 5233.330853
_symmetry_space_group_name_H-M "P 42/M B C"
_symmetry_group_IT_number 135
_symmetry_cell_setting 'tetragonal'
loop_
_space_group_symop_operation_xyz
x,y,z
-y,x,1/2+z
-x,-y,z
y,-x,1/2+z
1/2+x,1/2-y,-z
1/2-x,1/2+y,-z
1/2+y,1/2+x,1/2-z
1/2-y,1/2-x,1/2-z
-x,-y,-z
y,-x,1/2-z
x,y,-z
-y,x,1/2-z
1/2-x,1/2+y,z
1/2+x,1/2-y,z
1/2-y,1/2-x,1/2+z
1/2+y,1/2+x,1/2+z
loop_
_atom_site_type_symbol
_atom_site_label
_atom_site_fract_x
_atom_site_fract_y
_atom_site_fract_z
Si Si1 0.577538 0.446519 0.079386
Si Si2 0.666935 0.492523 0.684016
Si Si3 0.988693 0.680752 0.914116
Si Si4 0.552543 0.921235 0.666722
Si Si5 0.669329 0.571504 0.841704
Si Si6 0.082636 0.328908 0.410718
O O1 0.500000 0.500000 0.074943
O O2 0.557739 0.389454 0.146472
O O3 0.645900 0.507291 0.096507
O O4 0.588491 0.405858 0.000000
O O5 0.746220 0.497159 0.638313
O O6 0.680975 0.520620 0.767393
O O7 0.626732 0.406767 0.673535
O O8 0.903084 0.641290 0.901231
O O9 0.055405 0.618330 0.892357
O O10 0.993898 0.702521 0.000000
O O11 0.587822 0.912179 0.750000
O O12 0.496472 0.854034 0.633819
O O13 0.500000 0.000000 0.671015
O O14 0.748499 0.611426 0.871967
O O15 0.070498 0.320308 0.500000
#
# Coordination Sequence:
#
# PCOD9568850 Si02
#       6
#    16  16  16  16  16  16
#     4   9  18  32  53  78 106 143 189 233 281 343
#     4  11  21  36  59  85 114 155 198 244 297 354
#     4  10  21  37  59  87 120 158 200 244 296 363
#     4   9  17  33  58  86 115 151 196 239 288 351
#     4  11  21  36  59  85 115 153 195 247 300 351
#     4  10  21  37  59  87 120 158 201 250 300 355
#
# _framework density 18.343955999999999
#
# number of rings (size 3 to 8) (size 9 to 14) (size 15 to 20)
#    0.000    2.000    1.667    2.500    0.000    6.000 
#    0.000    1.667    3.667    2.000    0.000    0.000 
#    0.000    0.000    0.000    0.000    0.000    0.000 
#
# Total GULP energy -534810.107276 kJ/mol
# GULP energy per Si atom -5570.938617 kJ/mol
# Density = 1.830220 g / cm^3
# Si number density = 18.343956 Si / 1000 Ang^3
#
#
#
# Elastic Constant Matrix: (Units=GPa)
#
#
# Indices 1 2 3 4 5 6 
#
# 1 67.6542 27.0174 37.7190 0.0000 0.0000 0.0000
# 2 27.0174 67.6540 37.7190 0.0000 0.0000 0.0000
# 3 37.7190 37.7190 118.2534 0.0000 0.0000 0.0000
# 4 0.0000 0.0000 0.0000 21.3089 0.0000 0.0000
# 5 0.0000 0.0000 0.0000 0.0000 21.3090 0.0000
# 6 0.0000 0.0000 0.0000 0.0000 0.0000 13.2977
#
#
#
# Elastic Compliance Matrix: (Units=1/GPa)
#
#
# Indices 1 2 3 4 5 6 
#
# 1 0.019385 -0.005223 -0.004517 0.000000 0.000000 0.000000
# 2 -0.005223 0.019385 -0.004517 0.000000 0.000000 0.000000
# 3 -0.004517 -0.004517 0.011338 0.000000 0.000000 0.000000
# 4 0.000000 0.000000 0.000000 0.046929 0.000000 0.000000
# 5 0.000000 0.000000 0.000000 0.000000 0.046929 0.000000
# 6 0.000000 0.000000 0.000000 0.000000 0.000000 0.075201
#
#
# Mechanical properties :
#
#
# Convention : Reuss Voigt Hill
#
# Bulk Modulus (GPa) = 46.30992 50.94139 48.62566
# Shear Modulus (GPa) = 19.61704 21.25686 20.43695
#
# Velocity S-wave (km/s) = 3.27372 3.40780 3.34143
# Velocity P-wave (km/s) = 6.29204 6.58138 6.43833
#
# Compressibility (1/GPa) = 0.02159365
#
# Stress axis : x y z
#
# Youngs Moduli (GPa) = 51.58537 51.58517 88.19739
#
# Poissons Ratio (x) = 0.26943 0.39842
# Poissons Ratio (y) = 0.26943 0.39842
# Poissons Ratio (z) = 0.23303 0.23303
#
# Static dielectric constant tensor:
#      x y z
#    x 1.658600 0.000000 0.000000 
#    y 0.000000 1.658600 0.000000 
#    z 0.000000 0.000000 1.648570 
# 
# From -- ./inp_files/4446.got.cif
#   From: 2010.05.17/outbox.cif.g08.bks.cpg/sg135_3_cif.got.tgz:4446.got - 2010.05.20 12:50:20.
