data_PCOD9568760
_publ_section_title
;
Structure prediction by ZEFSAII (Michael W. Deem and Ramdas Pophale) SiO2 
 PCOD9568760
Probable space group: P 42/M B C
;
_chemical_formula_sum "Si O2"
_cell_formula_units_Z 112
_cell_length_a 14.505127
_cell_length_b 14.505127
_cell_length_c 26.267866
_cell_angle_alpha 90.000000
_cell_angle_beta 90.000000
_cell_angle_gamma 90.000000
_cell_volume 5526.725102
_symmetry_space_group_name_H-M "P 42/M B C"
_symmetry_group_IT_number 135
_symmetry_cell_setting 'tetragonal'
loop_
_space_group_symop_operation_xyz
x,y,z
-y,x,1/2+z
-x,-y,z
y,-x,1/2+z
1/2+x,1/2-y,-z
1/2-x,1/2+y,-z
1/2+y,1/2+x,1/2-z
1/2-y,1/2-x,1/2-z
-x,-y,-z
y,-x,1/2-z
x,y,-z
-y,x,1/2-z
1/2-x,1/2+y,z
1/2+x,1/2-y,z
1/2-y,1/2-x,1/2+z
1/2+y,1/2+x,1/2+z
loop_
_atom_site_type_symbol
_atom_site_label
_atom_site_fract_x
_atom_site_fract_y
_atom_site_fract_z
Si Si1 0.816018 0.922046 0.391762
Si Si2 0.687405 0.891091 0.704850
Si Si3 0.524332 0.892897 0.626671
Si Si4 0.956184 0.794563 0.653102
Si Si5 0.823777 0.302226 0.441891
Si Si6 0.337767 0.364182 0.366264
Si Si7 0.758878 0.591338 0.260547
O O1 0.758220 0.889440 0.341677
O O2 0.907388 0.862535 0.386205
O O3 0.754757 0.880419 0.436702
O O4 0.833208 0.031803 0.389538
O O5 0.684190 0.815811 0.750000
O O6 0.589414 0.891585 0.676480
O O7 0.706492 0.988117 0.730617
O O8 0.448349 0.813873 0.637868
O O9 0.584925 0.851234 0.580706
O O10 0.500000 0.000000 0.617704
O O11 0.916498 0.804609 0.710298
O O12 0.061887 0.826543 0.649907
O O13 0.835592 0.273323 0.500000
O O14 0.802420 0.213648 0.405811
O O15 0.285441 0.373671 0.312827
O O16 0.844484 0.655517 0.250000
#
# Coordination Sequence:
#
# PCOD9568760 Si02
#       7
#    16  16  16  16  16  16  16
#     4  10  23  40  61  88 123 162 216 260 319 380
#     4  10  20  35  55  85 126 168 197 246 304 372
#     4  10  21  38  61  91 129 158 205 268 321 387
#     4  11  22  38  60  88 131 173 208 257 317 397
#     4  10  23  44  68  89 117 163 214 272 336 382
#     4  10  24  42  59  92 129 166 209 274 321 382
#     4  11  22  34  59  88 124 172 211 249 308 387
#
# _framework density 20.265167000000002
#
# number of rings (size 3 to 8) (size 9 to 14) (size 15 to 20)
#    0.000    1.714    1.429    2.143    4.000    3.714 
#    0.000    2.857    0.000    4.286    0.000    0.000 
#    0.000    0.000    0.000    0.000    0.000    0.000 
#
# Total GULP energy -624829.987038 kJ/mol
# GULP energy per Si atom -5578.839170 kJ/mol
# Density = 2.021904 g / cm^3
# Si number density = 20.265167 Si / 1000 Ang^3
#
#
#
# Elastic Constant Matrix: (Units=GPa)
#
#
# Indices 1 2 3 4 5 6 
#
# 1 66.8663 23.3469 29.3420 0.0000 0.0000 0.0000
# 2 23.3469 66.8763 29.3439 0.0000 0.0000 0.0000
# 3 29.3420 29.3439 99.5276 0.0000 0.0000 0.0000
# 4 0.0000 0.0000 0.0000 -0.7817 0.0000 0.0000
# 5 0.0000 0.0000 0.0000 0.0000 -0.7368 0.0000
# 6 0.0000 0.0000 0.0000 0.0000 0.0000 30.7081
#
#
#
# Elastic Compliance Matrix: (Units=1/GPa)
#
#
# Indices 1 2 3 4 5 6 
#
# 1 0.018346 -0.004631 -0.004043 0.000000 0.000000 0.000000
# 2 -0.004631 0.018344 -0.004043 0.000000 0.000000 0.000000
# 3 -0.004043 -0.004043 0.012432 0.000000 0.000000 0.000000
# 4 0.000000 0.000000 0.000000 -1.279334 0.000000 0.000000
# 5 0.000000 0.000000 0.000000 0.000000 -1.357216 0.000000
# 6 0.000000 0.000000 0.000000 0.000000 0.000000 0.032565
#
#
# Mechanical properties :
#
#
# Convention : Reuss Voigt Hill
#
# Bulk Modulus (GPa) = 42.21705 44.14839 43.18272
# Shear Modulus (GPa) = -1.98292 15.92043 6.96875
#
# Velocity S-wave (km/s) = -0.99026 2.80591 1.85641
# Velocity P-wave (km/s) = 4.42381 5.68596 5.09412
#
# Compressibility (1/GPa) = 0.02368711
#
# Stress axis : x y z
#
# Youngs Moduli (GPa) = 54.50665 54.51499 80.44040
#
# Poissons Ratio (x) = 0.25244 0.32526
# Poissons Ratio (y) = 0.25240 0.32523
# Poissons Ratio (z) = 0.22040 0.22041
#
# Static dielectric constant tensor:
#      x y z
#    x 1.746710 0.000000 0.000000 
#    y 0.000000 1.746840 0.000000 
#    z 0.000000 0.000000 1.717780 
# 
# From -- ./inp_files/6499.got.cif
#   From: 2010.05.17/outbox.cif.g08.bks.cpg/sg135_4_cif.got.tgz:6499.got - 2010.05.20 12:50:20.
