data_PCOD9568903
_publ_section_title
;
Structure prediction by ZEFSAII (Michael W. Deem and Ramdas Pophale) SiO2 
 PCOD9568903
Probable space group: P 42/M B C
;
_chemical_formula_sum "Si O2"
_cell_formula_units_Z 56
_cell_length_a 10.423781
_cell_length_b 10.423781
_cell_length_c 19.753278
_cell_angle_alpha 90.000000
_cell_angle_beta 90.000000
_cell_angle_gamma 90.000000
_cell_volume 2146.296576
_symmetry_space_group_name_H-M "P 42/M B C"
_symmetry_group_IT_number 135
_symmetry_cell_setting 'tetragonal'
loop_
_space_group_symop_operation_xyz
x,y,z
-y,x,1/2+z
-x,-y,z
y,-x,1/2+z
1/2+x,1/2-y,-z
1/2-x,1/2+y,-z
1/2+y,1/2+x,1/2-z
1/2-y,1/2-x,1/2-z
-x,-y,-z
y,-x,1/2-z
x,y,-z
-y,x,1/2-z
1/2-x,1/2+y,z
1/2+x,1/2-y,z
1/2-y,1/2-x,1/2+z
1/2+y,1/2+x,1/2+z
loop_
_atom_site_type_symbol
_atom_site_label
_atom_site_fract_x
_atom_site_fract_y
_atom_site_fract_z
Si Si1 0.604093 0.663066 0.148338
Si Si2 0.500000 0.000000 0.750000
Si Si3 0.779533 0.422434 0.148523
Si Si4 0.346198 0.005734 0.000000
Si Si5 0.500000 0.500000 0.250000
Si Si6 0.418995 0.368701 0.000000
O O1 0.661379 0.519829 0.146115
O O2 0.707925 0.771745 0.165401
O O3 0.506581 0.636803 0.209310
O O4 0.547090 0.690354 0.073569
O O5 0.510713 0.881622 0.698298
O O6 0.816108 0.424671 0.069573
O O7 0.500000 0.000000 0.000000
O O8 0.237342 0.890892 0.000000
O O9 0.500000 0.500000 0.000000
#
# Coordination Sequence:
#
# PCOD9568903 Si02
#       6
#    16   4  16   8   4   8
#     4  11  25  46  73 109 150 201 252 315 378 458
#     4  12  24  42  68 104 148 198 248 300 372 458
#     4  11  25  45  72 107 148 197 254 310 382 453
#     4  10  21  46  72 109 143 194 250 310 373 447
#     4  12  24  42  68 104 152 202 252 308 376 454
#     4  10  21  46  74 109 147 196 248 310 379 443
#
# _framework density 26.091455
#
# number of rings (size 3 to 8) (size 9 to 14) (size 15 to 20)
#    0.000    1.143    2.857    2.571    0.000    5.714 
#    0.000    2.857    0.000    0.000    0.000    0.000 
#    0.000    0.000    0.000    0.000    0.000    0.000 
#
# Total GULP energy -312102.284483 kJ/mol
# GULP energy per Si atom -5573.255080 kJ/mol
# Density = 2.603207 g / cm^3
# Si number density = 26.091455 Si / 1000 Ang^3
#
#
#
# Elastic Constant Matrix: (Units=GPa)
#
#
# Indices 1 2 3 4 5 6 
#
# 1 53.8291 29.7378 8.9985 0.0000 0.0000 0.0000
# 2 29.7378 53.8291 8.9985 0.0000 0.0000 0.0000
# 3 8.9985 8.9985 184.4183 0.0000 0.0000 0.0000
# 4 0.0000 0.0000 0.0000 29.7882 0.0000 0.0000
# 5 0.0000 0.0000 0.0000 0.0000 29.7882 0.0000
# 6 0.0000 0.0000 0.0000 0.0000 0.0000 39.5682
#
#
#
# Elastic Compliance Matrix: (Units=1/GPa)
#
#
# Indices 1 2 3 4 5 6 
#
# 1 0.026801 -0.014708 -0.000590 0.000000 0.000000 0.000000
# 2 -0.014708 0.026801 -0.000590 0.000000 0.000000 0.000000
# 3 -0.000590 -0.000590 0.005480 0.000000 0.000000 0.000000
# 4 0.000000 0.000000 0.000000 0.033570 0.000000 0.000000
# 5 0.000000 0.000000 0.000000 0.000000 0.033570 0.000000
# 6 0.000000 0.000000 0.000000 0.000000 0.000000 0.025273
#
#
# Mechanical properties :
#
#
# Convention : Reuss Voigt Hill
#
# Bulk Modulus (GPa) = 36.62099 43.06069 39.84084
# Shear Modulus (GPa) = 25.99110 36.11835 31.05472
#
# Velocity S-wave (km/s) = 3.15961 3.72465 3.45371
# Velocity P-wave (km/s) = 5.23230 5.91920 5.58632
#
# Compressibility (1/GPa) = 0.02730675
#
# Stress axis : x y z
#
# Youngs Moduli (GPa) = 37.31190 37.31190 182.48034
#
# Poissons Ratio (x) = 0.54877 0.10768
# Poissons Ratio (y) = 0.54877 0.10768
# Poissons Ratio (z) = 0.02202 0.02202
#
# Static dielectric constant tensor:
#      x y z
#    x 2.145440 0.000000 0.000000 
#    y 0.000000 2.145440 0.000000 
#    z 0.000000 0.000000 2.622930 
# 
# From -- ./inp_files/5022.got.cif
#   From: 2010.05.17/outbox.cif.g08.bks.cpg/sg135_3_cif.got.tgz:5022.got - 2010.05.20 12:50:20.
