data_PCOD9568133
_publ_section_title
;
Structure prediction by ZEFSAII (Michael W. Deem and Ramdas Pophale) SiO2 
 PCOD9568133
Probable space group: P 42/N N M
;
_chemical_formula_sum "Si O2"
_cell_formula_units_Z 80
_cell_length_a 13.328187
_cell_length_b 13.328187
_cell_length_c 24.797747
_cell_angle_alpha 90.000000
_cell_angle_beta 90.000000
_cell_angle_gamma 90.000000
_cell_volume 4405.085880
_symmetry_space_group_name_H-M "P 42/N N M"
_symmetry_group_IT_number 134
_space_group.IT_coordinate_system_code '2'
_symmetry_cell_setting 'tetragonal'
loop_
_space_group_symop_operation_xyz
x,y,z
1/2-y,x,1/2+z
1/2-x,1/2-y,z
y,1/2-x,1/2+z
x,1/2-y,1/2-z
1/2-x,y,1/2-z
y,x,-z
1/2-y,1/2-x,-z
-x,-y,-z
1/2+y,-x,1/2-z
1/2+x,1/2+y,-z
-y,1/2+x,1/2-z
-x,1/2+y,1/2+z
1/2+x,-y,1/2+z
-y,-x,z
1/2+y,1/2+x,z
loop_
_atom_site_type_symbol
_atom_site_label
_atom_site_fract_x
_atom_site_fract_y
_atom_site_fract_z
Si Si1 0.493968 0.832774 0.501567
Si Si2 0.486083 0.344336 0.286368
Si Si3 0.415926 0.227745 0.603536
Si Si4 0.511183 0.843896 0.280816
Si Si5 0.219363 0.413215 0.903653
O O1 0.584484 0.915517 0.500000
O O2 0.499104 0.794298 0.440472
O O3 0.516773 0.746646 0.545499
O O4 0.393804 0.893804 0.514737
O O5 0.515693 0.250000 0.250000
O O6 0.572750 0.427251 0.289459
O O7 0.391684 0.399202 0.256121
O O8 0.463223 0.301904 0.345923
O O9 0.451612 0.203459 0.663382
O O10 0.318978 0.155496 0.598672
O O11 0.373802 0.337857 0.590140
O O12 0.463799 0.750000 0.250000
O O13 0.433139 0.933139 0.290749
#
# Coordination Sequence:
#
# PCOD9568133 Si02
#       5
#    16  16  16  16  16
#     4   9  18  31  50  81 116 147 186 237 293 348
#     4  11  23  38  57  83 115 154 199 241 292 351
#     4  10  18  32  56  84 113 145 189 241 292 344
#     4  11  22  36  58  85 116 152 190 234 294 355
#     4  10  19  32  55  81 112 149 188 237 292 350
#
# _framework density 18.160827000000001
#
# number of rings (size 3 to 8) (size 9 to 14) (size 15 to 20)
#    0.000    1.800    4.000    1.200    0.000    4.800 
#    0.000    0.000    0.000    3.600    0.000    0.000 
#    0.000    0.000    0.000    0.000    0.000    0.000 
#
# Total GULP energy -445518.321587 kJ/mol
# GULP energy per Si atom -5568.979020 kJ/mol
# Density = 1.811949 g / cm^3
# Si number density = 18.160827 Si / 1000 Ang^3
#
#
#
# Elastic Constant Matrix: (Units=GPa)
#
#
# Indices 1 2 3 4 5 6 
#
# 1 55.3932 27.2464 46.4329 0.0000 0.0000 0.0000
# 2 27.2464 55.3934 46.4330 0.0000 0.0000 0.0000
# 3 46.4329 46.4330 137.5452 0.0000 0.0000 0.0000
# 4 0.0000 0.0000 0.0000 12.7251 0.0000 0.0000
# 5 0.0000 0.0000 0.0000 0.0000 12.7251 0.0000
# 6 0.0000 0.0000 0.0000 0.0000 0.0000 -6.4822
#
#
#
# Elastic Compliance Matrix: (Units=1/GPa)
#
#
# Indices 1 2 3 4 5 6 
#
# 1 0.027513 -0.008015 -0.006582 0.000000 0.000000 0.000000
# 2 -0.008015 0.027512 -0.006582 0.000000 0.000000 0.000000
# 3 -0.006582 -0.006582 0.011714 0.000000 0.000000 0.000000
# 4 0.000000 0.000000 0.000000 0.078585 0.000000 0.000000
# 5 0.000000 0.000000 0.000000 0.000000 0.078585 0.000000
# 6 0.000000 0.000000 0.000000 0.000000 0.000000 -0.154269
#
#
# Mechanical properties :
#
#
# Convention : Reuss Voigt Hill
#
# Bulk Modulus (GPa) = 41.01583 54.28404 47.64993
# Shear Modulus (GPa) = 41.62322 12.34156 26.98239
#
# Velocity S-wave (km/s) = 4.79260 2.60969 3.85872
# Velocity P-wave (km/s) = 7.29788 6.24790 6.79321
#
# Compressibility (1/GPa) = 0.02438083
#
# Stress axis : x y z
#
# Youngs Moduli (GPa) = 36.34705 36.34718 85.36646
#
# Poissons Ratio (x) = 0.29134 0.56187
# Poissons Ratio (y) = 0.29134 0.56187
# Poissons Ratio (z) = 0.23923 0.23923
#
# Static dielectric constant tensor:
#      x y z
#    x 1.631280 0.000000 0.000000 
#    y 0.000000 1.631280 0.000000 
#    z 0.000000 0.000000 1.640340 
# 
# From -- ./inp_files/8902.got.cif
#   From: 2010.05.17/outbox.cif.g08.bks.cpg/sg134_5_cif.got.tgz:8902.got - 2010.05.20 12:42:49.
