data_PCOD9568710
_publ_section_title
;
Structure prediction by ZEFSAII (Michael W. Deem and Ramdas Pophale) SiO2 
 PCOD9568710
Probable space group: P 42/M B C
;
_chemical_formula_sum "Si O2"
_cell_formula_units_Z 96
_cell_length_a 14.975734
_cell_length_b 14.975734
_cell_length_c 18.325317
_cell_angle_alpha 90.000000
_cell_angle_beta 90.000000
_cell_angle_gamma 90.000000
_cell_volume 4109.866651
_symmetry_space_group_name_H-M "P 42/M B C"
_symmetry_group_IT_number 135
_symmetry_cell_setting 'tetragonal'
loop_
_space_group_symop_operation_xyz
x,y,z
-y,x,1/2+z
-x,-y,z
y,-x,1/2+z
1/2+x,1/2-y,-z
1/2-x,1/2+y,-z
1/2+y,1/2+x,1/2-z
1/2-y,1/2-x,1/2-z
-x,-y,-z
y,-x,1/2-z
x,y,-z
-y,x,1/2-z
1/2-x,1/2+y,z
1/2+x,1/2-y,z
1/2-y,1/2-x,1/2+z
1/2+y,1/2+x,1/2+z
loop_
_atom_site_type_symbol
_atom_site_label
_atom_site_fract_x
_atom_site_fract_y
_atom_site_fract_z
Si Si1 0.172643 0.504857 0.307947
Si Si2 0.956495 0.638224 0.645924
Si Si3 0.733427 0.676569 0.080590
Si Si4 0.355233 0.154284 0.417926
Si Si5 0.644513 0.506577 0.763036
Si Si6 0.522850 0.394684 0.581533
O O1 0.102775 0.450766 0.358188
O O2 0.136189 0.501094 0.225628
O O3 0.178698 0.596526 0.349899
O O4 0.273104 0.472770 0.289596
O O5 0.878144 0.711408 0.639765
O O6 0.037873 0.657908 0.591707
O O7 0.734420 0.783166 0.087447
O O8 0.636144 0.627357 0.080562
O O9 0.771797 0.655272 0.000000
O O10 0.338389 0.118238 0.500000
O O11 0.589625 0.422534 0.733569
O O12 0.658277 0.483260 0.848913
O O13 0.500000 0.500000 0.591262
O O14 0.488702 0.370417 0.500000
#
# Coordination Sequence:
#
# PCOD9568710 Si02
#       6
#    16  16  16  16  16  16
#     4  11  25  42  69  99 134 184 248 298 364 451
#     4  11  24  46  68 100 139 187 243 305 365 444
#     4  10  22  43  69 102 139 180 237 298 369 453
#     4  11  25  45  71 101 139 189 240 306 379 447
#     4  11  21  37  63 101 143 190 240 306 387 456
#     4  10  19  36  63  97 142 190 236 299 376 457
#
# _framework density 23.358422999999998
#
# number of rings (size 3 to 8) (size 9 to 14) (size 15 to 20)
#    0.000    1.333    3.333    2.500    0.000    4.667 
#    3.000    0.000    0.000    0.000    0.000    0.000 
#    0.000    0.000    0.000    0.000    0.000    0.000 
#
# Total GULP energy -534413.143499 kJ/mol
# GULP energy per Si atom -5566.803578 kJ/mol
# Density = 2.330526 g / cm^3
# Si number density = 23.358423 Si / 1000 Ang^3
#
#
#
# Elastic Constant Matrix: (Units=GPa)
#
#
# Indices 1 2 3 4 5 6 
#
# 1 85.1019 8.3568 25.0892 0.0000 0.0000 0.0000
# 2 8.3568 85.1019 25.0892 0.0000 0.0000 0.0000
# 3 25.0892 25.0892 102.6235 0.0000 0.0000 0.0000
# 4 0.0000 0.0000 0.0000 23.0623 0.0000 0.0000
# 5 0.0000 0.0000 0.0000 0.0000 23.0623 0.0000
# 6 0.0000 0.0000 0.0000 0.0000 0.0000 26.5215
#
#
#
# Elastic Compliance Matrix: (Units=1/GPa)
#
#
# Indices 1 2 3 4 5 6 
#
# 1 0.012673 -0.000357 -0.003011 0.000000 0.000000 0.000000
# 2 -0.000357 0.012673 -0.003011 0.000000 0.000000 0.000000
# 3 -0.003011 -0.003011 0.011217 0.000000 0.000000 0.000000
# 4 0.000000 0.000000 0.000000 0.043361 0.000000 0.000000
# 5 0.000000 0.000000 0.000000 0.000000 0.043361 0.000000
# 6 0.000000 0.000000 0.000000 0.000000 0.000000 0.037705
#
#
# Mechanical properties :
#
#
# Convention : Reuss Voigt Hill
#
# Bulk Modulus (GPa) = 42.00739 43.32196 42.66467
# Shear Modulus (GPa) = 27.52038 28.81535 28.16787
#
# Velocity S-wave (km/s) = 3.43618 3.51610 3.47637
# Velocity P-wave (km/s) = 5.81085 5.92206 5.86672
#
# Compressibility (1/GPa) = 0.02380534
#
# Stress axis : x y z
#
# Youngs Moduli (GPa) = 78.90551 78.90551 89.15300
#
# Poissons Ratio (x) = 0.02815 0.26845
# Poissons Ratio (y) = 0.02815 0.26845
# Poissons Ratio (z) = 0.23760 0.23760
#
# Static dielectric constant tensor:
#      x y z
#    x 1.985310 0.000000 0.000000 
#    y 0.000000 1.985310 0.000000 
#    z 0.000000 0.000000 1.882050 
# 
# From -- ./inp_files/5589.got.cif
#   From: 2010.05.17/outbox.cif.g08.bks.cpg/sg135_3_cif.got.tgz:5589.got - 2010.05.20 12:50:20.
