data_PCOD9568228
_publ_section_title
;
Structure prediction by ZEFSAII (Michael W. Deem and Ramdas Pophale) SiO2 
 PCOD9568228
Probable space group: P 42/N N M
;
_chemical_formula_sum "Si O2"
_cell_formula_units_Z 96
_cell_length_a 15.887183
_cell_length_b 15.887183
_cell_length_c 19.834666
_cell_angle_alpha 90.000000
_cell_angle_beta 90.000000
_cell_angle_gamma 90.000000
_cell_volume 5006.320945
_symmetry_space_group_name_H-M "P 42/N N M"
_symmetry_group_IT_number 134
_space_group.IT_coordinate_system_code '2'
_symmetry_cell_setting 'tetragonal'
loop_
_space_group_symop_operation_xyz
x,y,z
1/2-y,x,1/2+z
1/2-x,1/2-y,z
y,1/2-x,1/2+z
x,1/2-y,1/2-z
1/2-x,y,1/2-z
y,x,-z
1/2-y,1/2-x,-z
-x,-y,-z
1/2+y,-x,1/2-z
1/2+x,1/2+y,-z
-y,1/2+x,1/2-z
-x,1/2+y,1/2+z
1/2+x,-y,1/2+z
-y,-x,z
1/2+y,1/2+x,z
loop_
_atom_site_type_symbol
_atom_site_label
_atom_site_fract_x
_atom_site_fract_y
_atom_site_fract_z
Si Si1 0.109492 0.750000 0.250000
Si Si2 0.706841 0.074690 0.607139
Si Si3 0.849109 0.850904 0.744280
Si Si4 0.067282 0.066110 0.873125
Si Si5 0.554317 0.913458 0.888652
Si Si6 0.854981 0.645020 0.500000
Si Si7 0.198946 0.033857 0.490442
O O1 0.168124 0.831877 0.244431
O O2 0.065331 0.742781 0.177598
O O3 0.667297 0.167297 0.601804
O O4 0.631387 0.008849 0.615711
O O5 0.753529 0.045981 0.540298
O O6 0.851266 0.750000 0.750000
O O7 0.750000 0.875747 0.750000
O O8 0.902803 0.887775 0.805950
O O9 0.893486 0.883227 0.676231
O O10 0.124644 0.082969 0.937956
O O11 0.025743 0.974257 0.869397
O O12 0.620284 0.955586 0.940293
O O13 0.478976 0.978976 0.873344
O O14 0.523681 0.834114 0.933764
O O15 0.759924 0.616473 0.517899
#
# Coordination Sequence:
#
# PCOD9568228 Si02
#       7
#     8  16  16  16  16   8  16
#     4   9  18  30  46  74 111 150 194 244 291 340
#     4   9  19  33  52  81 114 152 196 240 291 347
#     4  11  23  39  59  85 115 147 189 238 293 352
#     4  10  20  34  54  81 112 147 186 234 289 344
#     4  11  24  40  59  85 117 154 194 237 289 354
#     4  10  19  35  58  86 118 149 193 240 284 342
#     4  10  21  37  58  84 119 160 194 237 292 342
#
# _framework density 19.175757000000001
#
# number of rings (size 3 to 8) (size 9 to 14) (size 15 to 20)
#    0.000    1.917    0.000    4.750    3.500    4.667 
#    0.000    0.000    0.000    0.000    0.000    0.000 
#    0.000    4.333    0.000    0.000    0.000    0.000 
#
# Total GULP energy -535311.312229 kJ/mol
# GULP energy per Si atom -5576.159502 kJ/mol
# Density = 1.913211 g / cm^3
# Si number density = 19.175757 Si / 1000 Ang^3
#
#
#
# Elastic Constant Matrix: (Units=GPa)
#
#
# Indices 1 2 3 4 5 6 
#
# 1 67.4764 44.1811 44.0372 0.0000 0.0000 0.0000
# 2 44.1811 67.4761 44.0371 0.0000 0.0000 0.0000
# 3 44.0372 44.0371 148.8712 0.0000 0.0000 0.0000
# 4 0.0000 0.0000 0.0000 19.8675 0.0000 0.0000
# 5 0.0000 0.0000 0.0000 0.0000 19.8674 0.0000
# 6 0.0000 0.0000 0.0000 0.0000 0.0000 29.3941
#
#
#
# Elastic Compliance Matrix: (Units=1/GPa)
#
#
# Indices 1 2 3 4 5 6 
#
# 1 0.027304 -0.015623 -0.003456 0.000000 0.000000 0.000000
# 2 -0.015623 0.027305 -0.003456 0.000000 0.000000 0.000000
# 3 -0.003456 -0.003456 0.008762 0.000000 0.000000 0.000000
# 4 0.000000 0.000000 0.000000 0.050334 0.000000 0.000000
# 5 0.000000 0.000000 0.000000 0.000000 0.050334 0.000000
# 6 0.000000 0.000000 0.000000 0.000000 0.000000 0.034020
#
#
# Mechanical properties :
#
#
# Convention : Reuss Voigt Hill
#
# Bulk Modulus (GPa) = 54.63648 60.92606 57.78127
# Shear Modulus (GPa) = 20.06204 23.93035 21.99620
#
# Velocity S-wave (km/s) = 3.23804 3.53646 3.39054
# Velocity P-wave (km/s) = 6.52183 6.96540 6.74726
#
# Compressibility (1/GPa) = 0.01830279
#
# Stress axis : x y z
#
# Youngs Moduli (GPa) = 36.62413 36.62397 114.13513
#
# Poissons Ratio (x) = 0.57217 0.39440
# Poissons Ratio (y) = 0.57217 0.39440
# Poissons Ratio (z) = 0.12656 0.12655
#
# Static dielectric constant tensor:
#      x y z
#    x 1.715990 0.000000 0.000000 
#    y 0.000000 1.715990 0.000000 
#    z 0.000000 0.000000 1.428810 
# 
# From -- ./inp_files/9197.got.cif
#   From: 2010.05.17/outbox.cif.g08.bks.cpg/sg134_5_cif.got.tgz:9197.got - 2010.05.20 12:42:49.
