data_PCOD9568906
_publ_section_title
;
Structure prediction by ZEFSAII (Michael W. Deem and Ramdas Pophale) SiO2 
 PCOD9568906
Probable space group: P 42/M B C
;
_chemical_formula_sum "Si O2"
_cell_formula_units_Z 96
_cell_length_a 15.296117
_cell_length_b 15.296117
_cell_length_c 21.427501
_cell_angle_alpha 90.000000
_cell_angle_beta 90.000000
_cell_angle_gamma 90.000000
_cell_volume 5013.418021
_symmetry_space_group_name_H-M "P 42/M B C"
_symmetry_group_IT_number 135
_symmetry_cell_setting 'tetragonal'
loop_
_space_group_symop_operation_xyz
x,y,z
-y,x,1/2+z
-x,-y,z
y,-x,1/2+z
1/2+x,1/2-y,-z
1/2-x,1/2+y,-z
1/2+y,1/2+x,1/2-z
1/2-y,1/2-x,1/2-z
-x,-y,-z
y,-x,1/2-z
x,y,-z
-y,x,1/2-z
1/2-x,1/2+y,z
1/2+x,1/2-y,z
1/2-y,1/2-x,1/2+z
1/2+y,1/2+x,1/2+z
loop_
_atom_site_type_symbol
_atom_site_label
_atom_site_fract_x
_atom_site_fract_y
_atom_site_fract_z
Si Si1 0.071910 0.691289 0.610067
Si Si2 0.111269 0.384289 0.433357
Si Si3 0.279789 0.259890 0.931123
Si Si4 0.744143 0.504886 0.768369
Si Si5 0.013759 0.602321 0.822437
Si Si6 0.327231 0.302457 0.789322
O O1 0.154637 0.730727 0.574289
O O2 0.030880 0.755158 0.661332
O O3 0.112114 0.610030 0.649140
O O4 0.987191 0.654474 0.573696
O O5 0.115056 0.431903 0.500000
O O6 0.183193 0.308513 0.433026
O O7 0.130480 0.446160 0.375610
O O8 0.319053 0.289377 0.864087
O O9 0.322991 0.276009 0.000000
O O10 0.841278 0.502768 0.738749
O O11 0.711179 0.603637 0.768992
O O12 0.697891 0.429393 0.728523
O O13 0.000000 0.500000 0.815388
O O14 0.272194 0.227806 0.750000
#
# Coordination Sequence:
#
# PCOD9568906 Si02
#       6
#    16  16  16  16  16  16
#     4  11  21  37  60  90 123 165 209 261 321 384
#     4  10  22  38  58  89 125 167 214 257 320 395
#     4  11  22  40  61  88 128 172 210 258 326 384
#     4  12  24  40  65  93 128 169 220 267 325 382
#     4  10  22  35  57  91 126 158 202 260 329 385
#     4  12  24  44  68  96 133 170 218 275 319 386
#
# _framework density 19.148613000000001
#
# number of rings (size 3 to 8) (size 9 to 14) (size 15 to 20)
#    0.000    1.000    5.000    2.000    2.333    6.000 
#    0.000    0.000    0.000    0.000    0.000    1.167 
#    0.000    0.500    0.000    0.000    0.000    0.000 
#
# Total GULP energy -535381.759610 kJ/mol
# GULP energy per Si atom -5576.893329 kJ/mol
# Density = 1.910503 g / cm^3
# Si number density = 19.148613 Si / 1000 Ang^3
#
#
#
# Elastic Constant Matrix: (Units=GPa)
#
#
# Indices 1 2 3 4 5 6 
#
# 1 87.2733 31.5521 21.3572 0.0000 0.0000 0.0000
# 2 31.5521 87.2733 21.3572 0.0000 0.0000 0.0000
# 3 21.3572 21.3572 134.8058 0.0000 0.0000 0.0000
# 4 0.0000 0.0000 0.0000 8.6246 0.0000 0.0000
# 5 0.0000 0.0000 0.0000 0.0000 8.6246 0.0000
# 6 0.0000 0.0000 0.0000 0.0000 0.0000 30.8191
#
#
#
# Elastic Compliance Matrix: (Units=1/GPa)
#
#
# Indices 1 2 3 4 5 6 
#
# 1 0.013435 -0.004511 -0.001414 0.000000 0.000000 0.000000
# 2 -0.004511 0.013435 -0.001414 0.000000 0.000000 0.000000
# 3 -0.001414 -0.001414 0.007866 0.000000 0.000000 0.000000
# 4 0.000000 0.000000 0.000000 0.115947 0.000000 0.000000
# 5 0.000000 0.000000 0.000000 0.000000 0.115947 0.000000
# 6 0.000000 0.000000 0.000000 0.000000 0.000000 0.032447
#
#
# Mechanical properties :
#
#
# Convention : Reuss Voigt Hill
#
# Bulk Modulus (GPa) = 49.85376 50.87617 50.36496
# Shear Modulus (GPa) = 15.60347 25.28608 20.44477
#
# Velocity S-wave (km/s) = 2.85767 3.63783 3.27110
# Velocity P-wave (km/s) = 6.08113 6.65371 6.37385
#
# Compressibility (1/GPa) = 0.02005867
#
# Stress axis : x y z
#
# Youngs Moduli (GPa) = 74.43129 74.43129 127.12852
#
# Poissons Ratio (x) = 0.33578 0.17974
# Poissons Ratio (y) = 0.33578 0.17974
# Poissons Ratio (z) = 0.10523 0.10523
#
# Static dielectric constant tensor:
#      x y z
#    x 1.686380 0.000000 0.000000 
#    y 0.000000 1.686380 0.000000 
#    z 0.000000 0.000000 1.738550 
# 
# From -- ./inp_files/5414.got.cif
#   From: 2010.05.17/outbox.cif.g08.bks.cpg/sg135_3_cif.got.tgz:5414.got - 2010.05.20 12:50:20.
