data_PCOD9568803
_publ_section_title
;
Structure prediction by ZEFSAII (Michael W. Deem and Ramdas Pophale) SiO2 
 PCOD9568803
Probable space group: P 42/M B C
;
_chemical_formula_sum "Si O2"
_cell_formula_units_Z 96
_cell_length_a 24.466751
_cell_length_b 24.466751
_cell_length_c 8.310983
_cell_angle_alpha 90.000000
_cell_angle_beta 90.000000
_cell_angle_gamma 90.000000
_cell_volume 4975.136472
_symmetry_space_group_name_H-M "P 42/M B C"
_symmetry_group_IT_number 135
_symmetry_cell_setting 'tetragonal'
loop_
_space_group_symop_operation_xyz
x,y,z
-y,x,1/2+z
-x,-y,z
y,-x,1/2+z
1/2+x,1/2-y,-z
1/2-x,1/2+y,-z
1/2+y,1/2+x,1/2-z
1/2-y,1/2-x,1/2-z
-x,-y,-z
y,-x,1/2-z
x,y,-z
-y,x,1/2-z
1/2-x,1/2+y,z
1/2+x,1/2-y,z
1/2-y,1/2-x,1/2+z
1/2+y,1/2+x,1/2+z
loop_
_atom_site_type_symbol
_atom_site_label
_atom_site_fract_x
_atom_site_fract_y
_atom_site_fract_z
Si Si1 0.100437 0.121166 0.317736
Si Si2 0.516437 0.645281 0.315306
Si Si3 0.290917 0.326182 0.316163
Si Si4 0.222478 0.637181 0.804677
Si Si5 0.011336 0.727373 0.310839
Si Si6 0.811258 0.605281 0.808367
O O1 0.103753 0.143444 0.500000
O O2 0.037244 0.110458 0.282555
O O3 0.126343 0.164144 0.197220
O O4 0.133062 0.065569 0.301390
O O5 0.535014 0.636115 0.500000
O O6 0.499081 0.708148 0.303778
O O7 0.276356 0.313358 0.500000
O O8 0.323967 0.273303 0.247956
O O9 0.237613 0.352455 0.235952
O O10 0.168142 0.668142 0.750000
O O11 0.222022 0.573844 0.747151
O O12 0.227203 0.635541 0.000000
O O13 0.015017 0.711751 0.500000
O O14 0.956549 0.698818 0.242991
O O15 0.866907 0.633094 0.750000
O O16 0.811483 0.601244 0.000000
#
# Coordination Sequence:
#
# PCOD9568803 Si02
#       6
#    16  16  16  16  16  16
#     4  11  22  35  55  81 108 145 193 243 283 323
#     4  10  20  38  56  74 107 150 192 232 281 334
#     4  11  21  35  57  84 116 151 185 227 283 340
#     4  10  21  37  57  82 111 145 181 222 275 329
#     4   9  18  37  59  77 108 151 182 219 276 335
#     4  11  22  38  59  85 117 149 188 230 278 335
#
# _framework density 19.295953999999998
#
# number of rings (size 3 to 8) (size 9 to 14) (size 15 to 20)
#    0.000    1.667    3.333    2.000    0.000    4.333 
#    0.000    3.333    0.000    0.500    0.000    3.500 
#    0.000    0.000    0.000    0.000    0.000    0.000 
#
# Total GULP energy -535162.397508 kJ/mol
# GULP energy per Si atom -5574.608307 kJ/mol
# Density = 1.925204 g / cm^3
# Si number density = 19.295954 Si / 1000 Ang^3
#
#
#
# Elastic Constant Matrix: (Units=GPa)
#
#
# Indices 1 2 3 4 5 6 
#
# 1 49.5807 67.3893 10.4603 0.0000 0.0000 0.0000
# 2 67.3893 49.5903 10.4579 0.0000 0.0000 0.0000
# 3 10.4603 10.4579 13.5409 0.0000 0.0000 0.0000
# 4 0.0000 0.0000 0.0000 10.0389 0.0000 0.0000
# 5 0.0000 0.0000 0.0000 0.0000 10.0414 0.0000
# 6 0.0000 0.0000 0.0000 0.0000 0.0000 25.9031
#
#
#
# Elastic Compliance Matrix: (Units=1/GPa)
#
#
# Indices 1 2 3 4 5 6 
#
# 1 -0.023128 0.033043 -0.007654 0.000000 0.000000 0.000000
# 2 0.033043 -0.023121 -0.007669 0.000000 0.000000 0.000000
# 3 -0.007654 -0.007669 0.085686 0.000000 0.000000 0.000000
# 4 0.000000 0.000000 0.000000 0.099613 0.000000 0.000000
# 5 0.000000 0.000000 0.000000 0.000000 0.099587 0.000000
# 6 0.000000 0.000000 0.000000 0.000000 0.000000 0.038605
#
#
# Mechanical properties :
#
#
# Convention : Reuss Voigt Hill
#
# Bulk Modulus (GPa) = 13.35510 32.14742 22.75126
# Shear Modulus (GPa) = 18.74343 10.82365 14.78354
#
# Velocity S-wave (km/s) = 3.12006 2.37096 2.77094
# Velocity P-wave (km/s) = 4.46272 4.91850 4.69614
#
# Compressibility (1/GPa) = 0.07487779
#
# Stress axis : x y z
#
# Youngs Moduli (GPa) = -43.23740 -43.25119 11.67058
#
# Poissons Ratio (x) = 1.42916 0.08932
# Poissons Ratio (y) = 1.42871 0.08950
# Poissons Ratio (z) = -0.33092 -0.33170
#
# Static dielectric constant tensor:
#      x y z
#    x 1.694180 0.000000 0.000000 
#    y 0.000000 1.694180 0.000000 
#    z 0.000000 0.000000 1.716000 
# 
# From -- ./inp_files/1203.got.cif
#   From: 2010.05.17/outbox.cif.g08.bks.cpg/sg135_1_cif.got.tgz:1203.got - 2010.05.20 12:50:20.
