data_PCOD9568157
_publ_section_title
;
Structure prediction by ZEFSAII (Michael W. Deem and Ramdas Pophale) SiO2 
 PCOD9568157
Probable space group: P 42/N N M
;
_chemical_formula_sum "Si O2"
_cell_formula_units_Z 80
_cell_length_a 11.619495
_cell_length_b 11.619495
_cell_length_c 33.281379
_cell_angle_alpha 90.000000
_cell_angle_beta 90.000000
_cell_angle_gamma 90.000000
_cell_volume 4493.407642
_symmetry_space_group_name_H-M "P 42/N N M"
_symmetry_group_IT_number 134
_space_group.IT_coordinate_system_code '2'
_symmetry_cell_setting 'tetragonal'
loop_
_space_group_symop_operation_xyz
x,y,z
1/2-y,x,1/2+z
1/2-x,1/2-y,z
y,1/2-x,1/2+z
x,1/2-y,1/2-z
1/2-x,y,1/2-z
y,x,-z
1/2-y,1/2-x,-z
-x,-y,-z
1/2+y,-x,1/2-z
1/2+x,1/2+y,-z
-y,1/2+x,1/2-z
-x,1/2+y,1/2+z
1/2+x,-y,1/2+z
-y,-x,z
1/2+y,1/2+x,z
loop_
_atom_site_type_symbol
_atom_site_label
_atom_site_fract_x
_atom_site_fract_y
_atom_site_fract_z
Si Si1 0.441548 0.750569 0.513806
Si Si2 0.621505 0.936012 0.638680
Si Si3 0.255766 0.940150 0.202859
Si Si4 0.802577 0.486571 0.923414
Si Si5 0.382069 0.272192 0.415606
O O1 0.354341 0.645660 0.523447
O O2 0.363744 0.863744 0.509160
O O3 0.496979 0.720599 0.470897
O O4 0.531971 0.763583 0.549340
O O5 0.600958 0.806453 0.623724
O O6 0.503946 0.003946 0.647204
O O7 0.711661 0.956872 0.674852
O O8 0.686433 0.997776 0.601392
O O9 0.250000 0.969359 0.250000
O O10 0.160535 0.839466 0.196511
O O11 0.378222 0.878222 0.193721
O O12 0.865476 0.365476 0.916488
O O13 0.885265 0.590917 0.909861
O O14 0.250000 0.250000 0.428399
#
# Coordination Sequence:
#
# PCOD9568157 Si02
#       5
#    16  16  16  16  16
#     4  10  20  34  51  68  87 118 166 216 249 274
#     4  10  19  30  47  71  97 121 148 189 237 283
#     4   8  14  26  46  72  99 125 153 186 228 280
#     4  10  20  33  48  65  89 124 165 203 236 276
#     4  10  21  33  45  64  94 127 157 188 231 286
#
# _framework density 17.80386
#
# number of rings (size 3 to 8) (size 9 to 14) (size 15 to 20)
#    0.000    2.400    0.000    3.600    0.000    9.200 
#    0.000    5.000    0.000    5.400    0.000    0.000 
#    0.000    0.000    0.000    0.000    0.000  182.600 
#
# Total GULP energy -445985.170669 kJ/mol
# GULP energy per Si atom -5574.814633 kJ/mol
# Density = 1.776334 g / cm^3
# Si number density = 17.803860 Si / 1000 Ang^3
#
#
#
# Elastic Constant Matrix: (Units=GPa)
#
#
# Indices 1 2 3 4 5 6 
#
# 1 55.3269 11.3817 21.8848 0.0000 0.0000 0.0000
# 2 11.3817 55.3269 21.8848 0.0000 0.0000 0.0000
# 3 21.8848 21.8848 68.5954 0.0000 0.0000 0.0000
# 4 0.0000 0.0000 0.0000 19.1632 0.0000 0.0000
# 5 0.0000 0.0000 0.0000 0.0000 19.1632 0.0000
# 6 0.0000 0.0000 0.0000 0.0000 0.0000 12.4628
#
#
#
# Elastic Compliance Matrix: (Units=1/GPa)
#
#
# Indices 1 2 3 4 5 6 
#
# 1 0.020858 -0.001898 -0.006049 0.000000 0.000000 0.000000
# 2 -0.001898 0.020858 -0.006049 0.000000 0.000000 0.000000
# 3 -0.006049 -0.006049 0.018438 0.000000 0.000000 0.000000
# 4 0.000000 0.000000 0.000000 0.052183 0.000000 0.000000
# 5 0.000000 0.000000 0.000000 0.000000 0.052183 0.000000
# 6 0.000000 0.000000 0.000000 0.000000 0.000000 0.080239
#
#
# Mechanical properties :
#
#
# Convention : Reuss Voigt Hill
#
# Bulk Modulus (GPa) = 31.09321 32.17240 31.63281
# Shear Modulus (GPa) = 17.63851 18.43102 18.03476
#
# Velocity S-wave (km/s) = 3.15097 3.22098 3.18617
# Velocity P-wave (km/s) = 5.54440 5.65178 5.59835
#
# Compressibility (1/GPa) = 0.03216136
#
# Stress axis : x y z
#
# Youngs Moduli (GPa) = 47.94433 47.94433 54.23615
#
# Poissons Ratio (x) = 0.09100 0.32807
# Poissons Ratio (y) = 0.09100 0.32807
# Poissons Ratio (z) = 0.29001 0.29001
#
# Static dielectric constant tensor:
#      x y z
#    x 1.642600 0.000000 0.000000 
#    y 0.000000 1.642600 0.000000 
#    z 0.000000 0.000000 1.605120 
# 
# From -- ./inp_files/11253.got.cif
#   From: 2010.05.17/outbox.cif.g08.bks.cpg/sg134_6_cif.got.tgz:11253.got - 2010.05.20 12:42:49.
