data_PCOD9568158
_publ_section_title
;
Structure prediction by ZEFSAII (Michael W. Deem and Ramdas Pophale) SiO2 
 PCOD9568158
Probable space group: P 42/N N M
;
_chemical_formula_sum "Si O2"
_cell_formula_units_Z 112
_cell_length_a 16.051050
_cell_length_b 16.051050
_cell_length_c 24.961229
_cell_angle_alpha 90.000000
_cell_angle_beta 90.000000
_cell_angle_gamma 90.000000
_cell_volume 6430.916339
_symmetry_space_group_name_H-M "P 42/N N M"
_symmetry_group_IT_number 134
_space_group.IT_coordinate_system_code '2'
_symmetry_cell_setting 'tetragonal'
loop_
_space_group_symop_operation_xyz
x,y,z
1/2-y,x,1/2+z
1/2-x,1/2-y,z
y,1/2-x,1/2+z
x,1/2-y,1/2-z
1/2-x,y,1/2-z
y,x,-z
1/2-y,1/2-x,-z
-x,-y,-z
1/2+y,-x,1/2-z
1/2+x,1/2+y,-z
-y,1/2+x,1/2-z
-x,1/2+y,1/2+z
1/2+x,-y,1/2+z
-y,-x,z
1/2+y,1/2+x,z
loop_
_atom_site_type_symbol
_atom_site_label
_atom_site_fract_x
_atom_site_fract_y
_atom_site_fract_z
Si Si1 0.812572 0.673854 0.941767
Si Si2 0.247825 0.438305 0.148059
Si Si3 0.887000 0.828869 0.789303
Si Si4 0.751323 0.389752 0.468956
Si Si5 0.024968 0.222671 0.377229
Si Si6 0.748033 0.110195 0.906648
Si Si7 0.428515 0.439476 0.692190
O O1 0.750000 0.750000 0.945867
O O2 0.764218 0.602771 0.910262
O O3 0.889374 0.704066 0.907314
O O4 0.847182 0.652819 0.000000
O O5 0.312310 0.381088 0.182124
O O6 0.264780 0.535173 0.134803
O O7 0.156971 0.432315 0.175026
O O8 0.860531 0.750000 0.750000
O O9 0.949367 0.791713 0.833649
O O10 0.936747 0.891669 0.751486
O O11 0.674794 0.325207 0.462951
O O12 0.835352 0.335352 0.463840
O O13 0.745457 0.457324 0.421864
O O14 0.746738 0.420243 0.530966
O O15 0.010135 0.137221 0.344595
O O16 0.821410 0.178591 0.903327
O O17 0.661702 0.161702 0.897103
O O18 0.516818 0.483182 0.688478
#
# Coordination Sequence:
#
# PCOD9568158 Si02
#       7
#    16  16  16  16  16  16  16
#     4  10  19  30  48  77 109 134 164 204 251 311
#     4  11  20  34  57  77 103 141 181 212 266 329
#     4  10  22  37  54  75 104 141 177 222 274 327
#     4   9  18  34  56  80 108 143 180 216 260 316
#     4  10  19  34  55  76 104 140 176 212 267 319
#     4   9  19  36  56  80 111 144 179 221 264 310
#     4  10  22  35  52  76 101 130 177 231 269 307
#
# _framework density 17.415870000000002
#
# number of rings (size 3 to 8) (size 9 to 14) (size 15 to 20)
#    0.000    2.143    1.429    3.000    0.000    4.000 
#    0.000    0.000    0.000    8.571    0.000    9.000 
#    0.000    0.000    0.000    0.000    0.000    0.000 
#
# Total GULP energy -623681.576341 kJ/mol
# GULP energy per Si atom -5568.585503 kJ/mol
# Density = 1.737623 g / cm^3
# Si number density = 17.415870 Si / 1000 Ang^3
#
#
#
# Elastic Constant Matrix: (Units=GPa)
#
#
# Indices 1 2 3 4 5 6 
#
# 1 53.1794 35.0990 21.0884 0.0000 0.0000 0.0000
# 2 35.0990 53.1790 21.0882 0.0000 0.0000 0.0000
# 3 21.0884 21.0882 73.2456 0.0000 0.0000 0.0000
# 4 0.0000 0.0000 0.0000 20.8512 0.0000 0.0000
# 5 0.0000 0.0000 0.0000 0.0000 20.8511 0.0000
# 6 0.0000 0.0000 0.0000 0.0000 0.0000 23.4856
#
#
#
# Elastic Compliance Matrix: (Units=1/GPa)
#
#
# Indices 1 2 3 4 5 6 
#
# 1 0.034222 -0.021087 -0.003782 0.000000 0.000000 0.000000
# 2 -0.021087 0.034222 -0.003782 0.000000 0.000000 0.000000
# 3 -0.003782 -0.003782 0.015830 0.000000 0.000000 0.000000
# 4 0.000000 0.000000 0.000000 0.047959 0.000000 0.000000
# 5 0.000000 0.000000 0.000000 0.000000 0.047959 0.000000
# 6 0.000000 0.000000 0.000000 0.000000 0.000000 0.042579
#
#
# Mechanical properties :
#
#
# Convention : Reuss Voigt Hill
#
# Bulk Modulus (GPa) = 37.07417 37.12835 37.10126
# Shear Modulus (GPa) = 17.29726 19.85948 18.57837
#
# Velocity S-wave (km/s) = 3.15491 3.38051 3.26966
# Velocity P-wave (km/s) = 5.88261 6.04997 5.96687
#
# Compressibility (1/GPa) = 0.02697296
#
# Stress axis : x y z
#
# Youngs Moduli (GPa) = 29.22115 29.22098 63.17027
#
# Poissons Ratio (x) = 0.61619 0.23889
# Poissons Ratio (y) = 0.61620 0.23888
# Poissons Ratio (z) = 0.11050 0.11050
#
# Static dielectric constant tensor:
#      x y z
#    x 1.590030 0.000000 0.000000 
#    y 0.000000 1.590030 0.000000 
#    z 0.000000 0.000000 1.672630 
# 
# From -- ./inp_files/10827.got.cif
#   From: 2010.05.17/outbox.cif.g08.bks.cpg/sg134_6_cif.got.tgz:10827.got - 2010.05.20 12:42:49.
