data_PCOD9568933
_publ_section_title
;
Structure prediction by ZEFSAII (Michael W. Deem and Ramdas Pophale) SiO2 
 PCOD9568933
Probable space group: P 42/M B C
;
_chemical_formula_sum "Si O2"
_cell_formula_units_Z 96
_cell_length_a 14.955341
_cell_length_b 14.955341
_cell_length_c 21.078458
_cell_angle_alpha 90.000000
_cell_angle_beta 90.000000
_cell_angle_gamma 90.000000
_cell_volume 4714.454804
_symmetry_space_group_name_H-M "P 42/M B C"
_symmetry_group_IT_number 135
_symmetry_cell_setting 'tetragonal'
loop_
_space_group_symop_operation_xyz
x,y,z
-y,x,1/2+z
-x,-y,z
y,-x,1/2+z
1/2+x,1/2-y,-z
1/2-x,1/2+y,-z
1/2+y,1/2+x,1/2-z
1/2-y,1/2-x,1/2-z
-x,-y,-z
y,-x,1/2-z
x,y,-z
-y,x,1/2-z
1/2-x,1/2+y,z
1/2+x,1/2-y,z
1/2-y,1/2-x,1/2+z
1/2+y,1/2+x,1/2+z
loop_
_atom_site_type_symbol
_atom_site_label
_atom_site_fract_x
_atom_site_fract_y
_atom_site_fract_z
Si Si1 0.587826 0.556646 0.074047
Si Si2 0.673928 0.044553 0.286462
Si Si3 0.288566 0.730537 0.178703
Si Si4 0.925950 0.426160 0.617225
Si Si5 0.247866 0.142599 0.569725
Si Si6 0.976674 0.234257 0.665904
O O1 0.500000 0.500000 0.089812
O O2 0.576837 0.663689 0.078894
O O3 0.666889 0.529321 0.121180
O O4 0.610201 0.536648 0.000000
O O5 0.594829 0.094829 0.250000
O O6 0.717255 0.118805 0.332154
O O7 0.628236 0.962151 0.321314
O O8 0.748204 0.017940 0.235026
O O9 0.256711 0.756711 0.250000
O O10 0.214829 0.754386 0.126051
O O11 0.299561 0.624373 0.174495
O O12 0.843565 0.405736 0.571068
O O13 0.971862 0.332190 0.633626
O O14 0.000000 0.500000 0.599663
O O15 0.236365 0.185164 0.500000
#
# Coordination Sequence:
#
# PCOD9568933 Si02
#       6
#    16  16  16  16  16  16
#     4  10  23  44  68  91 127 179 230 276 334 397
#     4  11  21  37  64  96 133 172 218 269 337 404
#     4  10  22  40  65  96 130 177 219 275 333 398
#     4  11  23  39  69 100 132 172 215 272 336 402
#     4  10  23  44  66  93 134 174 220 279 332 392
#     4  11  22  38  64  97 130 171 220 274 328 396
#
# _framework density 20.362907
#
# number of rings (size 3 to 8) (size 9 to 14) (size 15 to 20)
#    0.000    1.500    1.667    4.500    2.333    3.000 
#    0.000    0.833    0.000    0.000    0.000    0.000 
#    0.000    0.000    0.000    0.000    0.000    0.000 
#
# Total GULP energy -536147.852538 kJ/mol
# GULP energy per Si atom -5584.873464 kJ/mol
# Density = 2.031656 g / cm^3
# Si number density = 20.362907 Si / 1000 Ang^3
#
#
#
# Elastic Constant Matrix: (Units=GPa)
#
#
# Indices 1 2 3 4 5 6 
#
# 1 91.7810 51.3234 39.2866 0.0000 0.0000 0.0000
# 2 51.3234 91.7810 39.2866 0.0000 0.0000 0.0000
# 3 39.2866 39.2866 88.0721 0.0000 0.0000 0.0000
# 4 0.0000 0.0000 0.0000 20.4938 0.0000 0.0000
# 5 0.0000 0.0000 0.0000 0.0000 20.4938 0.0000
# 6 0.0000 0.0000 0.0000 0.0000 0.0000 28.5976
#
#
#
# Elastic Compliance Matrix: (Units=1/GPa)
#
#
# Indices 1 2 3 4 5 6 
#
# 1 0.016986 -0.007731 -0.004128 0.000000 0.000000 0.000000
# 2 -0.007731 0.016986 -0.004128 0.000000 0.000000 0.000000
# 3 -0.004128 -0.004128 0.015037 0.000000 0.000000 0.000000
# 4 0.000000 0.000000 0.000000 0.048795 0.000000 0.000000
# 5 0.000000 0.000000 0.000000 0.000000 0.048795 0.000000
# 6 0.000000 0.000000 0.000000 0.000000 0.000000 0.034968
#
#
# Mechanical properties :
#
#
# Convention : Reuss Voigt Hill
#
# Bulk Modulus (GPa) = 58.70760 59.04748 58.87754
# Shear Modulus (GPa) = 22.80806 23.36622 23.08714
#
# Velocity S-wave (km/s) = 3.35039 3.39114 3.37082
# Velocity P-wave (km/s) = 6.62269 6.66285 6.64280
#
# Compressibility (1/GPa) = 0.01703357
#
# Stress axis : x y z
#
# Youngs Moduli (GPa) = 58.87241 58.87241 66.50131
#
# Poissons Ratio (x) = 0.45516 0.27453
# Poissons Ratio (y) = 0.45516 0.27453
# Poissons Ratio (z) = 0.24304 0.24304
#
# Static dielectric constant tensor:
#      x y z
#    x 1.732750 0.000000 0.000000 
#    y 0.000000 1.732750 0.000000 
#    z 0.000000 0.000000 1.735840 
# 
# From -- ./inp_files/5409.got.cif
#   From: 2010.05.17/outbox.cif.g08.bks.cpg/sg135_3_cif.got.tgz:5409.got - 2010.05.20 12:50:20.
