data_PCOD9568015
_publ_section_title
;
Structure prediction by ZEFSAII (Michael W. Deem and Ramdas Pophale) SiO2 
 PCOD9568015
Probable space group: P 42/N B C
;
_chemical_formula_sum "Si O2"
_cell_formula_units_Z 48
_cell_length_a 9.358799
_cell_length_b 9.358799
_cell_length_c 23.703298
_cell_angle_alpha 90.000000
_cell_angle_beta 90.000000
_cell_angle_gamma 90.000000
_cell_volume 2076.103576
_symmetry_space_group_name_H-M "P 42/N B C"
_symmetry_group_IT_number 133
_space_group.IT_coordinate_system_code '2'
_symmetry_cell_setting 'tetragonal'
loop_
_space_group_symop_operation_xyz
x,y,z
1/2-y,x,1/2+z
1/2-x,1/2-y,z
y,1/2-x,1/2+z
x,1/2-y,-z
1/2-x,y,-z
y,x,1/2-z
1/2-y,1/2-x,1/2-z
-x,-y,-z
1/2+y,-x,1/2-z
1/2+x,1/2+y,-z
-y,1/2+x,1/2-z
-x,1/2+y,z
1/2+x,-y,z
-y,-x,1/2+z
1/2+y,1/2+x,1/2+z
loop_
_atom_site_type_symbol
_atom_site_label
_atom_site_fract_x
_atom_site_fract_y
_atom_site_fract_z
Si Si1 0.848055 0.865302 0.943445
Si Si2 0.405847 0.683643 0.097494
Si Si3 0.035436 0.819357 0.227842
O O1 0.750000 0.750000 0.909936
O O2 0.995453 0.777706 0.943261
O O3 0.888028 0.018736 0.919448
O O4 0.750000 0.890167 0.000000
O O5 0.250000 0.750000 0.097948
O O6 0.466159 0.695054 0.160688
O O7 0.168173 0.923494 0.244387
O O8 0.892009 0.892009 0.250000
#
# Coordination Sequence:
#
# PCOD9568015 Si02
#       3
#    16  16  16
#     4  11  28  48  74 109 143 195 253 304 377 439
#     4  12  25  48  77 106 152 194 248 311 371 455
#     4  11  24  45  72 111 147 191 241 298 371 439
#
# _framework density 23.120235999999998
#
# number of rings (size 3 to 8) (size 9 to 14) (size 15 to 20)
#    0.000    0.667    3.333    4.000    4.667   13.333 
#    0.000    1.667    0.000    0.000    0.000    0.000 
#    0.000    0.000    0.000    0.000    0.000    0.000 
#
# Total GULP energy -268235.076624 kJ/mol
# GULP energy per Si atom -5588.230763 kJ/mol
# Density = 2.306761 g / cm^3
# Si number density = 23.120236 Si / 1000 Ang^3
#
#
#
# Elastic Constant Matrix: (Units=GPa)
#
#
# Indices 1 2 3 4 5 6 
#
# 1 118.9950 37.8183 47.1850 0.0000 0.0000 0.0000
# 2 37.8183 118.9950 47.1850 0.0000 0.0000 0.0000
# 3 47.1850 47.1850 156.6684 0.0000 0.0000 0.0000
# 4 0.0000 0.0000 0.0000 -56.7207 0.0000 0.0000
# 5 0.0000 0.0000 0.0000 0.0000 -56.7207 0.0000
# 6 0.0000 0.0000 0.0000 0.0000 0.0000 47.5477
#
#
#
# Elastic Compliance Matrix: (Units=1/GPa)
#
#
# Indices 1 2 3 4 5 6 
#
# 1 0.010054 -0.002265 -0.002346 0.000000 0.000000 0.000000
# 2 -0.002265 0.010054 -0.002346 0.000000 0.000000 0.000000
# 3 -0.002346 -0.002346 0.007796 0.000000 0.000000 0.000000
# 4 0.000000 0.000000 0.000000 -0.017630 0.000000 0.000000
# 5 0.000000 0.000000 0.000000 0.000000 -0.017630 0.000000
# 6 0.000000 0.000000 0.000000 0.000000 0.000000 0.021032
#
#
# Mechanical properties :
#
#
# Convention : Reuss Voigt Hill
#
# Bulk Modulus (GPa) = 71.47872 73.22609 72.35240
# Shear Modulus (GPa) = 155.03382 4.31927 79.67654
#
# Velocity S-wave (km/s) = 8.19762 1.36830 5.87679
# Velocity P-wave (km/s) = 10.98110 5.85123 8.79834
#
# Compressibility (1/GPa) = 0.01399018
#
# Stress axis : x y z
#
# Youngs Moduli (GPa) = 99.46543 99.46543 128.27255
#
# Poissons Ratio (x) = 0.22529 0.30090
# Poissons Ratio (y) = 0.22529 0.30090
# Poissons Ratio (z) = 0.23332 0.23332
#
# Static dielectric constant tensor:
#      x y z
#    x 1.855930 0.000000 0.000000 
#    y 0.000000 1.855930 0.000000 
#    z 0.000000 0.000000 2.073470 
# 
# From -- ./inp_files/7732.got.cif
#   From: 2010.05.17/outbox.cif.g08.bks.cpg/sg133_4_cif.got.tgz:7732.got - 2010.05.20 12:37:36.
