data_PCOD9568126
_publ_section_title
;
Structure prediction by ZEFSAII (Michael W. Deem and Ramdas Pophale) SiO2 
 PCOD9568126
Probable space group: P 42/N N M
;
_chemical_formula_sum "Si O2"
_cell_formula_units_Z 88
_cell_length_a 29.092501
_cell_length_b 29.092501
_cell_length_c 5.748429
_cell_angle_alpha 90.000000
_cell_angle_beta 90.000000
_cell_angle_gamma 90.000000
_cell_volume 4865.318630
_symmetry_space_group_name_H-M "P 42/N N M"
_symmetry_group_IT_number 134
_space_group.IT_coordinate_system_code '2'
_symmetry_cell_setting 'tetragonal'
loop_
_space_group_symop_operation_xyz
x,y,z
1/2-y,x,1/2+z
1/2-x,1/2-y,z
y,1/2-x,1/2+z
x,1/2-y,1/2-z
1/2-x,y,1/2-z
y,x,-z
1/2-y,1/2-x,-z
-x,-y,-z
1/2+y,-x,1/2-z
1/2+x,1/2+y,-z
-y,1/2+x,1/2-z
-x,1/2+y,1/2+z
1/2+x,-y,1/2+z
-y,-x,z
1/2+y,1/2+x,z
loop_
_atom_site_type_symbol
_atom_site_label
_atom_site_fract_x
_atom_site_fract_y
_atom_site_fract_z
Si Si1 0.494921 0.228374 0.998003
Si Si2 0.362896 0.473335 0.702907
Si Si3 0.238389 0.899895 0.003196
Si Si4 0.363378 0.562943 0.008431
Si Si5 0.416343 0.083658 0.500000
Si Si6 0.921917 0.495095 0.824435
O O1 0.480382 0.250000 0.750000
O O2 0.480877 0.250000 0.250000
O O3 0.474450 0.177258 0.013996
O O4 0.550789 0.233879 0.996183
O O5 0.410297 0.487347 0.578987
O O6 0.352289 0.516898 0.865125
O O7 0.372470 0.425791 0.836280
O O8 0.250000 0.878800 0.750000
O O9 0.250000 0.876358 0.250000
O O10 0.184188 0.910401 0.018235
O O11 0.403784 0.596217 0.911583
O O12 0.383949 0.543096 0.248875
O O13 0.462326 0.083248 0.653496
O O14 0.970355 0.470355 0.802494
#
# Coordination Sequence:
#
# PCOD9568126 Si02
#       6
#    16  16  16  16   8  16
#     4  10  19  32  54  73  94 125 167 219 270 314
#     4  11  20  34  49  70  98 134 176 217 275 314
#     4  10  18  32  50  71  95 127 157 207 267 317
#     4  10  20  32  48  73  99 128 167 215 271 324
#     4  10  23  32  46  66  98 136 176 226 259 314
#     4  10  20  33  47  64  94 136 179 217 257 304
#
# _framework density 18.087202999999999
#
# number of rings (size 3 to 8) (size 9 to 14) (size 15 to 20)
#    0.000    1.818    3.636    3.545    2.545    2.909 
#    0.000    0.000    0.000    0.000    0.000    0.000 
#    0.000    2.182    0.000    0.000    0.000    0.000 
#
# Total GULP energy -489906.142378 kJ/mol
# GULP energy per Si atom -5567.115254 kJ/mol
# Density = 1.804604 g / cm^3
# Si number density = 18.087203 Si / 1000 Ang^3
#
#
#
# Elastic Constant Matrix: (Units=GPa)
#
#
# Indices 1 2 3 4 5 6 
#
# 1 40.3802 11.7558 11.0689 0.0000 0.0000 0.0000
# 2 11.7558 40.3819 11.0672 0.0000 0.0000 0.0000
# 3 11.0689 11.0672 104.6760 0.0000 0.0000 0.0000
# 4 0.0000 0.0000 0.0000 54.0150 0.0000 0.0000
# 5 0.0000 0.0000 0.0000 0.0000 54.0133 0.0000
# 6 0.0000 0.0000 0.0000 0.0000 0.0000 3.6067
#
#
#
# Elastic Compliance Matrix: (Units=1/GPa)
#
#
# Indices 1 2 3 4 5 6 
#
# 1 0.027509 -0.007426 -0.002124 0.000000 0.000000 0.000000
# 2 -0.007426 0.027507 -0.002123 0.000000 0.000000 0.000000
# 3 -0.002124 -0.002123 0.010002 0.000000 0.000000 0.000000
# 4 0.000000 0.000000 0.000000 0.018513 0.000000 0.000000
# 5 0.000000 0.000000 0.000000 0.000000 0.018514 0.000000
# 6 0.000000 0.000000 0.000000 0.000000 0.000000 0.277260
#
#
# Mechanical properties :
#
#
# Convention : Reuss Voigt Hill
#
# Bulk Modulus (GPa) = 23.99667 28.13578 26.06622
# Shear Modulus (GPa) = 12.00359 32.43008 22.21684
#
# Velocity S-wave (km/s) = 2.57894 4.23896 3.50854
# Velocity P-wave (km/s) = 4.70786 6.28870 5.55480
#
# Compressibility (1/GPa) = 0.04167245
#
# Stress axis : x y z
#
# Youngs Moduli (GPa) = 36.35207 36.35401 99.97682
#
# Poissons Ratio (x) = 0.26997 0.21232
# Poissons Ratio (y) = 0.26996 0.21225
# Poissons Ratio (z) = 0.07720 0.07718
#
# Static dielectric constant tensor:
#      x y z
#    x 1.659590 0.000000 0.000000 
#    y 0.000000 1.659590 0.000000 
#    z 0.000000 0.000000 1.743160 
# 
# From -- ./inp_files/1269.got.cif
#   From: 2010.05.17/outbox.cif.g08.bks.cpg/sg134_1_cif.got.tgz:1269.got - 2010.05.20 12:42:49.
