data_PCOD9568797
_publ_section_title
;
Structure prediction by ZEFSAII (Michael W. Deem and Ramdas Pophale) SiO2 
 PCOD9568797
Probable space group: P 42/M B C
;
_chemical_formula_sum "Si O2"
_cell_formula_units_Z 80
_cell_length_a 14.636735
_cell_length_b 14.636735
_cell_length_c 19.245370
_cell_angle_alpha 90.000000
_cell_angle_beta 90.000000
_cell_angle_gamma 90.000000
_cell_volume 4123.012817
_symmetry_space_group_name_H-M "P 42/M B C"
_symmetry_group_IT_number 135
_symmetry_cell_setting 'tetragonal'
loop_
_space_group_symop_operation_xyz
x,y,z
-y,x,1/2+z
-x,-y,z
y,-x,1/2+z
1/2+x,1/2-y,-z
1/2-x,1/2+y,-z
1/2+y,1/2+x,1/2-z
1/2-y,1/2-x,1/2-z
-x,-y,-z
y,-x,1/2-z
x,y,-z
-y,x,1/2-z
1/2-x,1/2+y,z
1/2+x,1/2-y,z
1/2-y,1/2-x,1/2+z
1/2+y,1/2+x,1/2+z
loop_
_atom_site_type_symbol
_atom_site_label
_atom_site_fract_x
_atom_site_fract_y
_atom_site_fract_z
Si Si1 0.603748 0.500001 0.916799
Si Si2 0.296622 0.651110 0.578904
Si Si3 0.396931 0.752060 0.773314
Si Si4 0.296625 0.348887 0.578904
Si Si5 0.396934 0.247938 0.773314
O O1 0.500000 0.500000 0.886940
O O2 0.653146 0.595514 0.902298
O O3 0.653148 0.404489 0.902298
O O4 0.594574 0.500001 0.000000
O O5 0.288500 0.613635 0.500000
O O6 0.249998 0.749999 0.578386
O O7 0.250706 0.599944 0.642881
O O8 0.342140 0.842140 0.750000
O O9 0.400053 0.749291 0.857119
O O10 0.499999 0.745975 0.746160
O O11 0.332946 0.667051 0.750000
O O12 0.288503 0.386362 0.500000
O O13 0.342142 0.157859 0.750000
#
# Coordination Sequence:
#
# PCOD9568797 Si02
#       5
#    16  16  16  16  16
#     4   9  18  32  56  90 117 145 188 238 294 345
#     4  10  20  37  60  88 121 155 195 248 300 352
#     4  11  24  42  61  88 123 159 202 245 298 359
#     4  10  20  37  60  88 121 155 195 248 300 352
#     4  11  24  42  61  88 123 159 202 245 298 359
#
# _framework density 19.403288
#
# number of rings (size 3 to 8) (size 9 to 14) (size 15 to 20)
#    0.000    1.800    4.000    1.200    2.800    3.200 
#    0.000    0.000    0.000    0.000    0.000    2.800 
#    0.000    0.000    0.000    0.000    0.000    0.000 
#
# Total GULP energy -445896.032963 kJ/mol
# GULP energy per Si atom -5573.700412 kJ/mol
# Density = 1.935913 g / cm^3
# Si number density = 19.403288 Si / 1000 Ang^3
#
#
#
# Elastic Constant Matrix: (Units=GPa)
#
#
# Indices 1 2 3 4 5 6 
#
# 1 141.0485 81.8508 24.3480 0.0000 0.0000 0.0000
# 2 81.8508 141.0528 24.3491 0.0000 0.0000 0.0000
# 3 24.3480 24.3491 118.2515 0.0000 0.0000 0.0000
# 4 0.0000 0.0000 0.0000 98.9549 0.0000 0.0000
# 5 0.0000 0.0000 0.0000 0.0000 98.9469 0.0000
# 6 0.0000 0.0000 0.0000 0.0000 0.0000 4.5053
#
#
#
# Elastic Compliance Matrix: (Units=1/GPa)
#
#
# Indices 1 2 3 4 5 6 
#
# 1 0.010795 -0.006097 -0.000967 0.000000 0.000000 0.000000
# 2 -0.006097 0.010795 -0.000967 0.000000 0.000000 0.000000
# 3 -0.000967 -0.000967 0.008855 0.000000 0.000000 0.000000
# 4 0.000000 0.000000 0.000000 0.010106 0.000000 0.000000
# 5 0.000000 0.000000 0.000000 0.000000 0.010106 0.000000
# 6 0.000000 0.000000 0.000000 0.000000 0.000000 0.221960
#
#
# Mechanical properties :
#
#
# Convention : Reuss Voigt Hill
#
# Bulk Modulus (GPa) = 69.53596 73.49430 71.51513
# Shear Modulus (GPa) = 17.03729 58.46840 37.75285
#
# Velocity S-wave (km/s) = 2.96643 5.49533 4.41579
# Velocity P-wave (km/s) = 6.90275 8.84445 7.93323
#
# Compressibility (1/GPa) = 0.01438105
#
# Stress axis : x y z
#
# Youngs Moduli (GPa) = 92.63611 92.63876 112.93202
#
# Poissons Ratio (x) = 0.56483 0.10923
# Poissons Ratio (y) = 0.56482 0.10924
# Poissons Ratio (z) = 0.08960 0.08961
#
# Static dielectric constant tensor:
#      x y z
#    x 1.670780 0.000000 0.000000 
#    y 0.000000 1.670780 0.000000 
#    z 0.000000 0.000000 1.756840 
# 
# From -- ./inp_files/5170.got.cif
#   From: 2010.05.17/outbox.cif.g08.bks.cpg/sg135_3_cif.got.tgz:5170.got - 2010.05.20 12:50:20.
