data_PCOD9568347
_publ_section_title
;
Structure prediction by ZEFSAII (Michael W. Deem and Ramdas Pophale) SiO2 
 PCOD9568347
Probable space group: P 42/N N M
;
_chemical_formula_sum "Si O2"
_cell_formula_units_Z 116
_cell_length_a 17.999068
_cell_length_b 17.999068
_cell_length_c 18.395254
_cell_angle_alpha 90.000000
_cell_angle_beta 90.000000
_cell_angle_gamma 90.000000
_cell_volume 5959.445114
_symmetry_space_group_name_H-M "P 42/N N M"
_symmetry_group_IT_number 134
_space_group.IT_coordinate_system_code '2'
_symmetry_cell_setting 'tetragonal'
loop_
_space_group_symop_operation_xyz
x,y,z
1/2-y,x,1/2+z
1/2-x,1/2-y,z
y,1/2-x,1/2+z
x,1/2-y,1/2-z
1/2-x,y,1/2-z
y,x,-z
1/2-y,1/2-x,-z
-x,-y,-z
1/2+y,-x,1/2-z
1/2+x,1/2+y,-z
-y,1/2+x,1/2-z
-x,1/2+y,1/2+z
1/2+x,-y,1/2+z
-y,-x,z
1/2+y,1/2+x,z
loop_
_atom_site_type_symbol
_atom_site_label
_atom_site_fract_x
_atom_site_fract_y
_atom_site_fract_z
Si Si1 0.885251 0.504674 0.958136
Si Si2 0.750845 0.414426 0.018125
Si Si3 0.745199 0.582055 0.332837
Si Si4 0.388373 0.175388 0.841024
Si Si5 0.210180 0.908550 0.675043
Si Si6 0.384131 0.490821 0.041506
Si Si7 0.250000 0.750000 0.037327
Si Si8 0.652067 0.893873 0.672753
O O1 0.840283 0.543377 0.893720
O O2 0.944944 0.444944 0.930202
O O3 0.932810 0.567191 0.000000
O O4 0.826964 0.460654 0.008385
O O5 0.749413 0.384141 0.100869
O O6 0.684149 0.470627 0.000420
O O7 0.749890 0.342207 0.967648
O O8 0.750000 0.611410 0.250000
O O9 0.683269 0.631378 0.370762
O O10 0.716748 0.497887 0.328940
O O11 0.829525 0.596295 0.355614
O O12 0.369958 0.262301 0.837324
O O13 0.406374 0.145166 0.759553
O O14 0.250000 0.885848 0.750000
O O15 0.128909 0.871092 0.674851
O O16 0.447815 0.552186 0.047389
O O17 0.360215 0.464253 0.121517
O O18 0.420885 0.420885 0.000000
#
# Coordination Sequence:
#
# PCOD9568347 Si02
#       8
#    16  16  16  16  16  16   4  16
#     4  11  23  39  62  92 128 165 206 263 324 387
#     4  12  23  43  61  88 124 164 214 257 318 387
#     4   9  19  37  58  89 126 163 196 246 314 380
#     4  10  20  36  65  92 121 165 209 256 318 377
#     4  11  24  38  61  89 124 161 207 260 304 373
#     4  11  24  40  62  89 122 166 211 267 319 374
#     4  12  24  40  69  84 113 184 208 246 324 392
#     4  10  20  39  63  91 122 164 211 262 313 376
#
# _framework density 19.464901000000001
#
# number of rings (size 3 to 8) (size 9 to 14) (size 15 to 20)
#    0.000    1.379    3.448    2.069    0.966    4.000 
#    0.000    6.897    0.000    0.000    0.000    0.966 
#    0.000    0.000    0.000    0.000    0.000    0.000 
#
# Total GULP energy -646006.182533 kJ/mol
# GULP energy per Si atom -5569.018815 kJ/mol
# Density = 1.942060 g / cm^3
# Si number density = 19.464901 Si / 1000 Ang^3
#
#
#
# Elastic Constant Matrix: (Units=GPa)
#
#
# Indices 1 2 3 4 5 6 
#
# 1 106.0350 29.3846 21.9782 0.0000 0.0000 0.0000
# 2 29.3846 106.0349 21.9790 0.0000 0.0000 0.0000
# 3 21.9782 21.9790 61.3209 0.0000 0.0000 0.0000
# 4 0.0000 0.0000 0.0000 15.2006 0.0000 0.0000
# 5 0.0000 0.0000 0.0000 0.0000 15.2007 0.0000
# 6 0.0000 0.0000 0.0000 0.0000 0.0000 46.5114
#
#
#
# Elastic Compliance Matrix: (Units=1/GPa)
#
#
# Indices 1 2 3 4 5 6 
#
# 1 0.010701 -0.002345 -0.002995 0.000000 0.000000 0.000000
# 2 -0.002345 0.010702 -0.002995 0.000000 0.000000 0.000000
# 3 -0.002995 -0.002995 0.018455 0.000000 0.000000 0.000000
# 4 0.000000 0.000000 0.000000 0.065787 0.000000 0.000000
# 5 0.000000 0.000000 0.000000 0.000000 0.065786 0.000000
# 6 0.000000 0.000000 0.000000 0.000000 0.000000 0.021500
#
#
# Mechanical properties :
#
#
# Convention : Reuss Voigt Hill
#
# Bulk Modulus (GPa) = 43.12702 46.67493 44.90098
# Shear Modulus (GPa) = 23.00644 28.71914 25.86279
#
# Velocity S-wave (km/s) = 3.44167 3.84530 3.64907
# Velocity P-wave (km/s) = 6.16424 6.61409 6.39312
#
# Compressibility (1/GPa) = 0.02318732
#
# Stress axis : x y z
#
# Youngs Moduli (GPa) = 93.44529 93.44467 54.18658
#
# Poissons Ratio (x) = 0.21911 0.16230
# Poissons Ratio (y) = 0.21911 0.16231
# Poissons Ratio (z) = 0.27988 0.27990
#
# Static dielectric constant tensor:
#      x y z
#    x 1.690280 0.000000 0.000000 
#    y 0.000000 1.690280 0.000000 
#    z 0.000000 0.000000 1.707230 
# 
# From -- ./inp_files/8037.got.cif
#   From: 2010.05.17/outbox.cif.g08.bks.cpg/sg134_5_cif.got.tgz:8037.got - 2010.05.20 12:42:49.
