data_PCOD9568521
_publ_section_title
;
Structure prediction by ZEFSAII (Michael W. Deem and Ramdas Pophale) SiO2 
 PCOD9568521
Probable space group: P 42/N N M
;
_chemical_formula_sum "Si O2"
_cell_formula_units_Z 54
_cell_length_a 14.672542
_cell_length_b 14.672542
_cell_length_c 11.642293
_cell_angle_alpha 90.000000
_cell_angle_beta 90.000000
_cell_angle_gamma 90.000000
_cell_volume 2506.393454
_symmetry_space_group_name_H-M "P 42/N N M"
_symmetry_group_IT_number 134
_space_group.IT_coordinate_system_code '2'
_symmetry_cell_setting 'tetragonal'
loop_
_space_group_symop_operation_xyz
x,y,z
1/2-y,x,1/2+z
1/2-x,1/2-y,z
y,1/2-x,1/2+z
x,1/2-y,1/2-z
1/2-x,y,1/2-z
y,x,-z
1/2-y,1/2-x,-z
-x,-y,-z
1/2+y,-x,1/2-z
1/2+x,1/2+y,-z
-y,1/2+x,1/2-z
-x,1/2+y,1/2+z
1/2+x,-y,1/2+z
-y,-x,z
1/2+y,1/2+x,z
loop_
_atom_site_type_symbol
_atom_site_label
_atom_site_fract_x
_atom_site_fract_y
_atom_site_fract_z
Si Si1 0.499423 0.500578 0.359717
Si Si2 0.750000 0.250000 0.250000
Si Si3 0.312831 0.537403 0.985478
Si Si4 0.889011 0.900209 0.823785
Si Si5 0.250000 0.250000 0.750000
Si Si6 0.134651 0.634651 0.923359
O O1 0.500000 0.500000 0.500000
O O2 0.543167 0.586571 0.292387
O O3 0.574704 0.425297 0.340833
O O4 0.808072 0.191929 0.335650
O O5 0.369959 0.630042 0.988064
O O6 0.349750 0.478019 0.877313
O O7 0.206758 0.568090 0.988054
O O8 0.346685 0.474856 0.090450
O O9 0.816442 0.819153 0.815056
#
# Coordination Sequence:
#
# PCOD9568521 Si02
#       6
#     8   2  16  16   4   8
#     4  12  26  44  69 100 139 189 237 288 341 429
#     4  12  20  36  68 100 142 156 224 292 336 394
#     4  11  21  45  75 102 140 180 230 290 357 424
#     4  11  24  47  70  98 143 189 234 282 363 416
#     4  12  28  44  72 104 142 184 238 300 338 426
#     4  12  24  38  69 111 139 174 236 298 344 407
#
# _framework density 21.544903000000001
#
# number of rings (size 3 to 8) (size 9 to 14) (size 15 to 20)
#    0.000    0.593    4.444    4.444    4.148    2.370 
#    0.000    0.000    0.000    1.778    0.000    0.000 
#    0.000    0.000    0.000    0.000    0.000    0.000 
#
# Total GULP energy -300976.817248 kJ/mol
# GULP energy per Si atom -5573.644764 kJ/mol
# Density = 2.149587 g / cm^3
# Si number density = 21.544903 Si / 1000 Ang^3
#
#
#
# Elastic Constant Matrix: (Units=GPa)
#
#
# Indices 1 2 3 4 5 6 
#
# 1 245.4032 -103.2447 39.5023 0.0000 0.0000 0.0000
# 2 -103.2447 245.4032 39.5023 0.0000 0.0000 0.0000
# 3 39.5023 39.5023 130.6291 0.0000 0.0000 0.0000
# 4 0.0000 0.0000 0.0000 41.4947 0.0000 0.0000
# 5 0.0000 0.0000 0.0000 0.0000 41.4947 0.0000
# 6 0.0000 0.0000 0.0000 0.0000 0.0000 61.6593
#
#
#
# Elastic Compliance Matrix: (Units=1/GPa)
#
#
# Indices 1 2 3 4 5 6 
#
# 1 0.005662 0.002794 -0.002557 0.000000 0.000000 0.000000
# 2 0.002794 0.005662 -0.002557 0.000000 0.000000 0.000000
# 3 -0.002557 -0.002557 0.009202 0.000000 0.000000 0.000000
# 4 0.000000 0.000000 0.000000 0.024099 0.000000 0.000000
# 5 0.000000 0.000000 0.000000 0.000000 0.024099 0.000000
# 6 0.000000 0.000000 0.000000 0.000000 0.000000 0.016218
#
#
# Mechanical properties :
#
#
# Convention : Reuss Voigt Hill
#
# Bulk Modulus (GPa) = 62.95313 63.66168 63.30741
# Shear Modulus (GPa) = 52.69936 71.97479 62.33708
#
# Velocity S-wave (km/s) = 4.95110 5.78614 5.38483
# Velocity P-wave (km/s) = 7.87194 8.61694 8.25285
#
# Compressibility (1/GPa) = 0.01588483
#
# Stress axis : x y z
#
# Youngs Moduli (GPa) = 176.62186 176.62186 108.67576
#
# Poissons Ratio (x) = -0.49341 0.27787
# Poissons Ratio (y) = -0.49341 0.27787
# Poissons Ratio (z) = 0.45161 0.45161
#
# Static dielectric constant tensor:
#      x y z
#    x 1.677060 0.000000 0.000000 
#    y 0.000000 1.677060 0.000000 
#    z 0.000000 0.000000 1.831310 
# 
# From -- ./inp_files/4409.got.cif
#   From: 2010.05.17/outbox.cif.g08.bks.cpg/sg134_3_cif.got.tgz:4409.got - 2010.05.20 12:42:49.
