data_PCOD9568763
_publ_section_title
;
Structure prediction by ZEFSAII (Michael W. Deem and Ramdas Pophale) SiO2 
 PCOD9568763
Probable space group: P 42/M B C
;
_chemical_formula_sum "Si O2"
_cell_formula_units_Z 96
_cell_length_a 24.441475
_cell_length_b 24.441475
_cell_length_c 8.608016
_cell_angle_alpha 90.000000
_cell_angle_beta 90.000000
_cell_angle_gamma 90.000000
_cell_volume 5142.305665
_symmetry_space_group_name_H-M "P 42/M B C"
_symmetry_group_IT_number 135
_symmetry_cell_setting 'tetragonal'
loop_
_space_group_symop_operation_xyz
x,y,z
-y,x,1/2+z
-x,-y,z
y,-x,1/2+z
1/2+x,1/2-y,-z
1/2-x,1/2+y,-z
1/2+y,1/2+x,1/2-z
1/2-y,1/2-x,1/2-z
-x,-y,-z
y,-x,1/2-z
x,y,-z
-y,x,1/2-z
1/2-x,1/2+y,z
1/2+x,1/2-y,z
1/2-y,1/2-x,1/2+z
1/2+y,1/2+x,1/2+z
loop_
_atom_site_type_symbol
_atom_site_label
_atom_site_fract_x
_atom_site_fract_y
_atom_site_fract_z
Si Si1 0.365220 0.217332 0.186992
Si Si2 0.529679 0.419761 0.185621
Si Si3 0.306651 0.723754 0.687274
Si Si4 0.803857 0.070233 0.186233
Si Si5 0.509835 0.788330 0.812052
Si Si6 0.000785 0.585113 0.186337
O O1 0.337781 0.162220 0.250000
O O2 0.326104 0.267084 0.237793
O O3 0.427676 0.223888 0.235174
O O4 0.364225 0.215230 0.000000
O O5 0.468722 0.432575 0.248436
O O6 0.550726 0.360929 0.240498
O O7 0.529003 0.422801 0.000000
O O8 0.278986 0.778986 0.750000
O O9 0.305717 0.725861 0.500000
O O10 0.368312 0.711932 0.737231
O O11 0.755029 0.030418 0.236251
O O12 0.809877 0.070191 0.000000
O O13 0.497748 0.851326 0.769528
O O14 0.506074 0.783846 0.000000
O O15 0.054964 0.554964 0.250000
O O16 0.949974 0.550027 0.250000
O O17 0.001699 0.581511 0.000000
#
# Coordination Sequence:
#
# PCOD9568763 Si02
#       6
#    16  16  16  16  16  16
#     4   9  18  35  58  83 109 143 183 232 291 337
#     4  11  23  42  66  92 122 157 199 247 299 357
#     4   9  20  38  59  82 112 149 191 237 287 344
#     4  11  24  39  58  89 121 158 201 244 296 351
#     4  10  22  37  55  82 114 152 191 236 292 349
#     4  10  20  35  56  82 112 150 197 241 299 358
#
# _framework density 18.668669000000001
#
# number of rings (size 3 to 8) (size 9 to 14) (size 15 to 20)
#    0.000    2.000    0.000    4.000    2.333    4.000 
#    0.000    3.333    0.000    0.000    0.000    0.000 
#    0.000    0.000    0.000    0.000    0.000    0.000 
#
# Total GULP energy -536265.247440 kJ/mol
# GULP energy per Si atom -5586.096327 kJ/mol
# Density = 1.862618 g / cm^3
# Si number density = 18.668669 Si / 1000 Ang^3
#
#
#
# Elastic Constant Matrix: (Units=GPa)
#
#
# Indices 1 2 3 4 5 6 
#
# 1 179.3904 87.3823 51.1584 0.0000 0.0000 0.0000
# 2 87.3823 179.3907 51.1735 0.0000 0.0000 0.0000
# 3 51.1584 51.1735 64.0287 0.0000 0.0000 0.0000
# 4 0.0000 0.0000 0.0000 -331.9935 0.0000 0.0000
# 5 0.0000 0.0000 0.0000 0.0000 -332.1482 0.0000
# 6 0.0000 0.0000 0.0000 0.0000 0.0000 18.4536
#
#
#
# Elastic Compliance Matrix: (Units=1/GPa)
#
#
# Indices 1 2 3 4 5 6 
#
# 1 0.008136 -0.002732 -0.004318 0.000000 0.000000 0.000000
# 2 -0.002732 0.008138 -0.004321 0.000000 0.000000 0.000000
# 3 -0.004318 -0.004321 0.022522 0.000000 0.000000 0.000000
# 4 0.000000 0.000000 0.000000 -0.003012 0.000000 0.000000
# 5 0.000000 0.000000 0.000000 0.000000 -0.003011 0.000000
# 6 0.000000 0.000000 0.000000 0.000000 0.000000 0.054190
#
#
# Mechanical properties :
#
#
# Convention : Reuss Voigt Hill
#
# Bulk Modulus (GPa) = 62.28864 89.13756 75.71310
# Shear Modulus (GPa) = 43.45729 -113.59791 -35.07031
#
# Velocity S-wave (km/s) = 4.82998 -7.80907 -4.33894
# Velocity P-wave (km/s) = 8.03385 5.78429 3.94238
#
# Compressibility (1/GPa) = 0.01605429
#
# Stress axis : x y z
#
# Youngs Moduli (GPa) = 122.90563 122.88459 44.40185
#
# Poissons Ratio (x) = 0.33567 0.19171
# Poissons Ratio (y) = 0.33573 0.19188
# Poissons Ratio (z) = 0.53067 0.53103
#
# Static dielectric constant tensor:
#      x y z
#    x 1.625390 0.000000 0.000000 
#    y 0.000000 1.625390 0.000000 
#    z 0.000000 0.000000 1.634560 
# 
# From -- ./inp_files/1254.got.cif
#   From: 2010.05.17/outbox.cif.g08.bks.cpg/sg135_1_cif.got.tgz:1254.got - 2010.05.20 12:50:20.
