data_PCOD9568670
_publ_section_title
;
Structure prediction by ZEFSAII (Michael W. Deem and Ramdas Pophale) SiO2 
 PCOD9568670
Probable space group: P 42/M B C
;
_chemical_formula_sum "Si O2"
_cell_formula_units_Z 96
_cell_length_a 22.841186
_cell_length_b 22.841186
_cell_length_c 8.444169
_cell_angle_alpha 90.000000
_cell_angle_beta 90.000000
_cell_angle_gamma 90.000000
_cell_volume 4405.489975
_symmetry_space_group_name_H-M "P 42/M B C"
_symmetry_group_IT_number 135
_symmetry_cell_setting 'tetragonal'
loop_
_space_group_symop_operation_xyz
x,y,z
-y,x,1/2+z
-x,-y,z
y,-x,1/2+z
1/2+x,1/2-y,-z
1/2-x,1/2+y,-z
1/2+y,1/2+x,1/2-z
1/2-y,1/2-x,1/2-z
-x,-y,-z
y,-x,1/2-z
x,y,-z
-y,x,1/2-z
1/2-x,1/2+y,z
1/2+x,1/2-y,z
1/2-y,1/2-x,1/2+z
1/2+y,1/2+x,1/2+z
loop_
_atom_site_type_symbol
_atom_site_label
_atom_site_fract_x
_atom_site_fract_y
_atom_site_fract_z
Si Si1 0.950918 0.635103 0.678203
Si Si2 0.436854 0.660418 0.691935
Si Si3 0.072668 0.847548 0.307490
Si Si4 0.264534 0.853319 0.177546
Si Si5 0.347016 0.242112 0.317467
Si Si6 0.068198 0.648858 0.818026
O O1 0.923012 0.576989 0.750000
O O2 0.973917 0.626397 0.500000
O O3 0.900374 0.683254 0.669030
O O4 0.000456 0.658411 0.793226
O O5 0.436968 0.664428 0.500000
O O6 0.505299 0.665472 0.741593
O O7 0.408731 0.599064 0.746777
O O8 0.391677 0.711341 0.751587
O O9 0.073191 0.846485 0.500000
O O10 0.119908 0.798881 0.248194
O O11 0.296518 0.796518 0.250000
O O12 0.245774 0.836787 0.000000
O O13 0.289435 0.210566 0.250000
O O14 0.335323 0.254439 0.500000
O O15 0.396405 0.192845 0.292914
O O16 0.085416 0.585416 0.750000
O O17 0.085702 0.656230 0.000000
#
# Coordination Sequence:
#
# PCOD9568670 Si02
#       6
#    16  16  16  16  16  16
#     4  10  19  33  51  73 104 143 188 239 294 351
#     4  10  22  41  63  88 121 161 203 248 302 359
#     4  10  23  42  63  89 122 161 203 250 304 359
#     4   9  19  36  59  86 117 152 190 237 293 354
#     4  10  20  37  60  86 118 153 192 240 295 355
#     4  11  21  33  50  74 104 142 189 238 292 352
#
# _framework density 21.790994000000001
#
# number of rings (size 3 to 8) (size 9 to 14) (size 15 to 20)
#    0.000    2.000    0.000    4.500    0.000    7.333 
#    0.000    8.333    0.000    0.000    0.000    0.000 
#    0.000    0.000    0.000    0.000    0.000    0.000 
#
# Total GULP energy -535196.220765 kJ/mol
# GULP energy per Si atom -5574.960633 kJ/mol
# Density = 2.174140 g / cm^3
# Si number density = 21.790994 Si / 1000 Ang^3
#
#
#
# Elastic Constant Matrix: (Units=GPa)
#
#
# Indices 1 2 3 4 5 6 
#
# 1 166.5311 11.3324 15.1070 0.0000 0.0000 0.0000
# 2 11.3324 166.5115 15.1130 0.0000 0.0000 0.0000
# 3 15.1070 15.1130 23.2778 0.0000 0.0000 0.0000
# 4 0.0000 0.0000 0.0000 14.8249 0.0000 0.0000
# 5 0.0000 0.0000 0.0000 0.0000 14.8224 0.0000
# 6 0.0000 0.0000 0.0000 0.0000 0.0000 29.1804
#
#
#
# Elastic Compliance Matrix: (Units=1/GPa)
#
#
# Indices 1 2 3 4 5 6 
#
# 1 0.006381 -0.000062 -0.004101 0.000000 0.000000 0.000000
# 2 -0.000062 0.006382 -0.004103 0.000000 0.000000 0.000000
# 3 -0.004101 -0.004103 0.048285 0.000000 0.000000 0.000000
# 4 0.000000 0.000000 0.000000 0.067454 0.000000 0.000000
# 5 0.000000 0.000000 0.000000 0.000000 0.067465 0.000000
# 6 0.000000 0.000000 0.000000 0.000000 0.000000 0.034270
#
#
# Mechanical properties :
#
#
# Convention : Reuss Voigt Hill
#
# Bulk Modulus (GPa) = 22.46410 48.82503 35.64456
# Shear Modulus (GPa) = 19.11254 32.75009 25.93131
#
# Velocity S-wave (km/s) = 2.96477 3.88096 3.45338
# Velocity P-wave (km/s) = 4.69586 6.52205 5.68279
#
# Compressibility (1/GPa) = 0.04451548
#
# Stress axis : x y z
#
# Youngs Moduli (GPa) = 156.71214 156.68472 20.71043
#
# Poissons Ratio (x) = 0.00973 0.08493
# Poissons Ratio (y) = 0.00973 0.08498
# Poissons Ratio (z) = 0.64267 0.64293
#
# Static dielectric constant tensor:
#      x y z
#    x 1.819220 0.000000 0.000000 
#    y 0.000000 1.819220 0.000000 
#    z 0.000000 0.000000 1.893390 
# 
# From -- ./inp_files/1278.got.cif
#   From: 2010.05.17/outbox.cif.g08.bks.cpg/sg135_1_cif.got.tgz:1278.got - 2010.05.20 12:50:20.
