data_PCOD9568715
_publ_section_title
;
Structure prediction by ZEFSAII (Michael W. Deem and Ramdas Pophale) SiO2 
 PCOD9568715
Probable space group: P 42/M B C
;
_chemical_formula_sum "Si O2"
_cell_formula_units_Z 96
_cell_length_a 18.486235
_cell_length_b 18.486235
_cell_length_c 15.667194
_cell_angle_alpha 90.000000
_cell_angle_beta 90.000000
_cell_angle_gamma 90.000000
_cell_volume 5354.120735
_symmetry_space_group_name_H-M "P 42/M B C"
_symmetry_group_IT_number 135
_symmetry_cell_setting 'tetragonal'
loop_
_space_group_symop_operation_xyz
x,y,z
-y,x,1/2+z
-x,-y,z
y,-x,1/2+z
1/2+x,1/2-y,-z
1/2-x,1/2+y,-z
1/2+y,1/2+x,1/2-z
1/2-y,1/2-x,1/2-z
-x,-y,-z
y,-x,1/2-z
x,y,-z
-y,x,1/2-z
1/2-x,1/2+y,z
1/2+x,1/2-y,z
1/2-y,1/2-x,1/2+z
1/2+y,1/2+x,1/2+z
loop_
_atom_site_type_symbol
_atom_site_label
_atom_site_fract_x
_atom_site_fract_y
_atom_site_fract_z
Si Si1 0.476499 0.919914 0.396207
Si Si2 0.095606 0.926332 0.746493
Si Si3 0.837482 0.830350 0.899814
Si Si4 0.216056 0.566734 0.099959
Si Si5 0.419259 0.695380 0.404261
Si Si6 0.663231 0.165095 0.148539
O O1 0.476571 0.917125 0.500000
O O2 0.533233 0.858438 0.363816
O O3 0.395500 0.898045 0.368347
O O4 0.500000 0.000000 0.369713
O O5 0.130275 0.894292 0.661213
O O6 0.139997 0.902217 0.829558
O O7 0.012948 0.902683 0.754921
O O8 0.758552 0.861631 0.870380
O O9 0.847537 0.744811 0.888471
O O10 0.845659 0.849055 0.000000
O O11 0.273346 0.500669 0.106360
O O12 0.200793 0.579252 0.000000
O O13 0.412688 0.665628 0.500000
O O14 0.368350 0.764890 0.393221
O O15 0.672144 0.172144 0.250000
#
# Coordination Sequence:
#
# PCOD9568715 Si02
#       6
#    16  16  16  16  16  16
#     4   9  18  35  59  87 117 155 199 242 296 367
#     4  11  23  37  57  86 117 151 197 247 295 348
#     4  11  21  37  59  87 120 157 200 249 303 357
#     4   8  16  32  58  82 108 152 193 231 290 355
#     4  10  19  37  59  81 111 152 194 232 288 361
#     4  11  21  35  60  86 115 152 201 252 299 359
#
# _framework density 17.930116000000002
#
# number of rings (size 3 to 8) (size 9 to 14) (size 15 to 20)
#    0.000    2.000    3.333    2.500    0.000    1.000 
#    0.000    3.333    7.333    4.000    0.000    0.000 
#    0.000    0.000    0.000    0.000    0.000    0.000 
#
# Total GULP energy -535075.940565 kJ/mol
# GULP energy per Si atom -5573.707714 kJ/mol
# Density = 1.788931 g / cm^3
# Si number density = 17.930116 Si / 1000 Ang^3
#
#
#
# Elastic Constant Matrix: (Units=GPa)
#
#
# Indices 1 2 3 4 5 6 
#
# 1 100.6355 72.7919 34.2485 0.0000 0.0000 0.0000
# 2 72.7919 100.6355 34.2485 0.0000 0.0000 0.0000
# 3 34.2485 34.2485 94.2950 0.0000 0.0000 0.0000
# 4 0.0000 0.0000 0.0000 18.7630 0.0000 0.0000
# 5 0.0000 0.0000 0.0000 0.0000 18.7630 0.0000
# 6 0.0000 0.0000 0.0000 0.0000 0.0000 10.6984
#
#
#
# Elastic Compliance Matrix: (Units=1/GPa)
#
#
# Indices 1 2 3 4 5 6 
#
# 1 0.021323 -0.014591 -0.002445 0.000000 0.000000 0.000000
# 2 -0.014591 0.021323 -0.002445 0.000000 0.000000 0.000000
# 3 -0.002445 -0.002445 0.012381 0.000000 0.000000 0.000000
# 4 0.000000 0.000000 0.000000 0.053296 0.000000 0.000000
# 5 0.000000 0.000000 0.000000 0.000000 0.053296 0.000000
# 6 0.000000 0.000000 0.000000 0.000000 0.000000 0.093472
#
#
# Mechanical properties :
#
#
# Convention : Reuss Voigt Hill
#
# Bulk Modulus (GPa) = 62.24869 64.23818 63.24343
# Shear Modulus (GPa) = 16.69947 19.93002 18.31474
#
# Velocity S-wave (km/s) = 3.05514 3.33759 3.19948
# Velocity P-wave (km/s) = 6.87298 7.12443 6.99983
#
# Compressibility (1/GPa) = 0.01606460
#
# Stress axis : x y z
#
# Youngs Moduli (GPa) = 46.89709 46.89709 80.76819
#
# Poissons Ratio (x) = 0.68430 0.19748
# Poissons Ratio (y) = 0.68430 0.19748
# Poissons Ratio (z) = 0.11466 0.11466
#
# Static dielectric constant tensor:
#      x y z
#    x 1.618600 0.000000 0.000000 
#    y 0.000000 1.618600 0.000000 
#    z 0.000000 0.000000 1.607930 
# 
# From -- ./inp_files/4469.got.cif
#   From: 2010.05.17/outbox.cif.g08.bks.cpg/sg135_3_cif.got.tgz:4469.got - 2010.05.20 12:50:20.
