data_PCOD9568430
_publ_section_title
;
Structure prediction by ZEFSAII (Michael W. Deem and Ramdas Pophale) SiO2 
 PCOD9568430
Probable space group: P 42/N N M
;
_chemical_formula_sum "Si O2"
_cell_formula_units_Z 58
_cell_length_a 17.492123
_cell_length_b 17.492123
_cell_length_c 9.175344
_cell_angle_alpha 90.000000
_cell_angle_beta 90.000000
_cell_angle_gamma 90.000000
_cell_volume 2807.420073
_symmetry_space_group_name_H-M "P 42/N N M"
_symmetry_group_IT_number 134
_space_group.IT_coordinate_system_code '2'
_symmetry_cell_setting 'tetragonal'
loop_
_space_group_symop_operation_xyz
x,y,z
1/2-y,x,1/2+z
1/2-x,1/2-y,z
y,1/2-x,1/2+z
x,1/2-y,1/2-z
1/2-x,y,1/2-z
y,x,-z
1/2-y,1/2-x,-z
-x,-y,-z
1/2+y,-x,1/2-z
1/2+x,1/2+y,-z
-y,1/2+x,1/2-z
-x,1/2+y,1/2+z
1/2+x,-y,1/2+z
-y,-x,z
1/2+y,1/2+x,z
loop_
_atom_site_type_symbol
_atom_site_label
_atom_site_fract_x
_atom_site_fract_y
_atom_site_fract_z
Si Si1 0.866595 0.366595 0.080040
Si Si2 0.250000 0.750000 0.750000
Si Si3 0.065986 0.565986 0.501496
Si Si4 0.839531 0.985453 0.244179
Si Si5 0.657913 0.342088 0.749780
Si Si6 0.834201 0.675491 0.175863
O O1 0.805690 0.305690 0.153038
O O2 0.851492 0.451628 0.133834
O O3 0.865806 0.365806 0.909655
O O4 0.131591 0.524640 0.597057
O O5 0.109134 0.609134 0.368323
O O6 0.000000 0.500000 0.500000
O O7 0.750000 0.973135 0.250000
O O8 0.875552 0.902875 0.276982
O O9 0.645377 0.250000 0.750000
O O10 0.872262 0.750000 0.250000
O O11 0.750000 0.675097 0.250000
O O12 0.824015 0.675986 0.000000
#
# Coordination Sequence:
#
# PCOD9568430 Si02
#       6
#     8   2   8  16   8  16
#     4  11  22  38  65 101 133 176 226 273 355 427
#     4  12  20  36  78  92 144 188 218 280 372 456
#     4  11  26  45  64  96 147 186 216 290 378 422
#     4  10  22  40  64  90 126 173 225 268 338 423
#     4  11  24  41  72 111 141 172 239 302 359 433
#     4  10  21  39  64  93 123 167 232 290 349 411
#
# _framework density 20.65954
#
# number of rings (size 3 to 8) (size 9 to 14) (size 15 to 20)
#    0.000    1.517    1.379    4.138    3.862    6.621 
#    0.000    5.517    0.000    1.655    0.000    0.000 
#    0.000    0.000    0.000    0.000    0.000    0.000 
#
# Total GULP energy -323054.983954 kJ/mol
# GULP energy per Si atom -5569.913516 kJ/mol
# Density = 2.061252 g / cm^3
# Si number density = 20.659540 Si / 1000 Ang^3
#
#
#
# Elastic Constant Matrix: (Units=GPa)
#
#
# Indices 1 2 3 4 5 6 
#
# 1 166.6379 25.8203 71.5341 0.0000 0.0000 0.0000
# 2 25.8203 166.6380 71.5342 0.0000 0.0000 0.0000
# 3 71.5341 71.5342 197.0647 0.0000 0.0000 0.0000
# 4 0.0000 0.0000 0.0000 14.9270 0.0000 0.0000
# 5 0.0000 0.0000 0.0000 0.0000 14.9265 0.0000
# 6 0.0000 0.0000 0.0000 0.0000 0.0000 0.0559
#
#
#
# Elastic Compliance Matrix: (Units=1/GPa)
#
#
# Indices 1 2 3 4 5 6 
#
# 1 0.007109 0.000007 -0.002583 0.000000 0.000000 0.000000
# 2 0.000007 0.007109 -0.002583 0.000000 0.000000 0.000000
# 3 -0.002583 -0.002583 0.006950 0.000000 0.000000 0.000000
# 4 0.000000 0.000000 0.000000 0.066993 0.000000 0.000000
# 5 0.000000 0.000000 0.000000 0.000000 0.066995 0.000000
# 6 0.000000 0.000000 0.000000 0.000000 0.000000 17.901708
#
#
# Mechanical properties :
#
#
# Convention : Reuss Voigt Hill
#
# Bulk Modulus (GPa) = 92.16960 96.45751 94.31356
# Shear Modulus (GPa) = 0.27669 30.07867 15.17768
#
# Velocity S-wave (km/s) = 0.36636 3.81979 2.71340
# Velocity P-wave (km/s) = 6.69995 8.13910 7.45434
#
# Compressibility (1/GPa) = 0.01084956
#
# Stress axis : x y z
#
# Youngs Moduli (GPa) = 140.67107 140.67105 143.88816
#
# Poissons Ratio (x) = -0.00104 0.37169
# Poissons Ratio (y) = -0.00104 0.37169
# Poissons Ratio (z) = 0.36338 0.36338
#
# Static dielectric constant tensor:
#      x y z
#    x 1.845510 0.000000 0.000000 
#    y 0.000000 1.845510 0.000000 
#    z 0.000000 0.000000 1.724070 
# 
# From -- ./inp_files/2468.got.cif
#   From: 2010.05.17/outbox.cif.g08.bks.cpg/sg134_2_cif.got.tgz:2468.got - 2010.05.20 12:42:49.
