data_PCOD9568290
_publ_section_title
;
Structure prediction by ZEFSAII (Michael W. Deem and Ramdas Pophale) SiO2 
 PCOD9568290
Probable space group: P 42/N N M
;
_chemical_formula_sum "Si O2"
_cell_formula_units_Z 60
_cell_length_a 13.454480
_cell_length_b 13.454480
_cell_length_c 17.294565
_cell_angle_alpha 90.000000
_cell_angle_beta 90.000000
_cell_angle_gamma 90.000000
_cell_volume 3130.714595
_symmetry_space_group_name_H-M "P 42/N N M"
_symmetry_group_IT_number 134
_space_group.IT_coordinate_system_code '2'
_symmetry_cell_setting 'tetragonal'
loop_
_space_group_symop_operation_xyz
x,y,z
1/2-y,x,1/2+z
1/2-x,1/2-y,z
y,1/2-x,1/2+z
x,1/2-y,1/2-z
1/2-x,y,1/2-z
y,x,-z
1/2-y,1/2-x,-z
-x,-y,-z
1/2+y,-x,1/2-z
1/2+x,1/2+y,-z
-y,1/2+x,1/2-z
-x,1/2+y,1/2+z
1/2+x,-y,1/2+z
-y,-x,z
1/2+y,1/2+x,z
loop_
_atom_site_type_symbol
_atom_site_label
_atom_site_fract_x
_atom_site_fract_y
_atom_site_fract_z
Si Si1 0.750000 0.990378 0.750000
Si Si2 0.664029 0.164029 0.644673
Si Si3 0.084333 0.584333 0.517748
Si Si4 0.454382 0.113880 0.879726
Si Si5 0.750000 0.750000 0.500000
Si Si6 0.726023 0.536583 0.455844
O O1 0.700258 0.066267 0.689424
O O2 0.825324 0.929110 0.697000
O O3 0.750000 0.250000 0.645303
O O4 0.630948 0.130948 0.559988
O O5 0.179526 0.532455 0.557723
O O6 0.000000 0.500000 0.500000
O O7 0.370686 0.033308 0.902262
O O8 0.557514 0.057514 0.865931
O O9 0.469507 0.184199 0.955497
O O10 0.755935 0.651975 0.448725
#
# Coordination Sequence:
#
# PCOD9568290 Si02
#       6
#     8   8   8  16   4  16
#     4  12  19  34  58  93 132 166 198 271 357 404
#     4  12  22  34  58  97 131 162 201 268 347 405
#     4  12  24  38  60  90 131 176 223 270 311 385
#     4  10  20  34  54  89 129 166 202 263 330 401
#     4   8  16  34  50  70 104 150 204 256 308 354
#     4  10  20  34  56  79 124 169 212 259 312 378
#
# _framework density 19.164954000000002
#
# number of rings (size 3 to 8) (size 9 to 14) (size 15 to 20)
#    0.000    1.600    6.667    1.600    0.000    1.067 
#    0.000    0.000    0.000   28.800    0.000    0.000 
#    4.000    0.000    0.000    0.000    0.000    1.600 
#
# Total GULP energy -334283.450365 kJ/mol
# GULP energy per Si atom -5571.390839 kJ/mol
# Density = 1.912133 g / cm^3
# Si number density = 19.164954 Si / 1000 Ang^3
#
#
#
# Elastic Constant Matrix: (Units=GPa)
#
#
# Indices 1 2 3 4 5 6 
#
# 1 89.7827 42.9257 32.3178 0.0000 0.0000 0.0000
# 2 42.9257 89.7827 32.3178 0.0000 0.0000 0.0000
# 3 32.3178 32.3178 79.5048 0.0000 0.0000 0.0000
# 4 0.0000 0.0000 0.0000 26.6086 0.0000 0.0000
# 5 0.0000 0.0000 0.0000 0.0000 26.6086 0.0000
# 6 0.0000 0.0000 0.0000 0.0000 0.0000 43.3137
#
#
#
# Elastic Compliance Matrix: (Units=1/GPa)
#
#
# Indices 1 2 3 4 5 6 
#
# 1 0.015368 -0.005973 -0.003819 0.000000 0.000000 0.000000
# 2 -0.005973 0.015368 -0.003819 0.000000 0.000000 0.000000
# 3 -0.003819 -0.003819 0.015683 0.000000 0.000000 0.000000
# 4 0.000000 0.000000 0.000000 0.037582 0.000000 0.000000
# 5 0.000000 0.000000 0.000000 0.000000 0.037582 0.000000
# 6 0.000000 0.000000 0.000000 0.000000 0.000000 0.023087
#
#
# Mechanical properties :
#
#
# Convention : Reuss Voigt Hill
#
# Bulk Modulus (GPa) = 52.09135 52.68808 52.38971
# Shear Modulus (GPa) = 28.04384 29.40679 28.72531
#
# Velocity S-wave (km/s) = 3.82944 3.92140 3.87569
# Velocity P-wave (km/s) = 6.84050 6.93215 6.88648
#
# Compressibility (1/GPa) = 0.01919705
#
# Stress axis : x y z
#
# Youngs Moduli (GPa) = 65.06831 65.06831 63.76440
#
# Poissons Ratio (x) = 0.38866 0.24352
# Poissons Ratio (y) = 0.38866 0.24352
# Poissons Ratio (z) = 0.24850 0.24850
#
# Static dielectric constant tensor:
#      x y z
#    x 1.748280 0.000000 0.000000 
#    y 0.000000 1.748280 0.000000 
#    z 0.000000 0.000000 1.696550 
# 
# From -- ./inp_files/6187.got.cif
#   From: 2010.05.17/outbox.cif.g08.bks.cpg/sg134_4_cif.got.tgz:6187.got - 2010.05.20 12:42:49.
