data_PCOD9568964
_publ_section_title
;
Structure prediction by ZEFSAII (Michael W. Deem and Ramdas Pophale) SiO2 
 PCOD9568964
Probable space group: P 42/M B C
;
_chemical_formula_sum "Si O2"
_cell_formula_units_Z 108
_cell_length_a 14.493322
_cell_length_b 14.493322
_cell_length_c 23.189730
_cell_angle_alpha 90.000000
_cell_angle_beta 90.000000
_cell_angle_gamma 90.000000
_cell_volume 4871.150797
_symmetry_space_group_name_H-M "P 42/M B C"
_symmetry_group_IT_number 135
_symmetry_cell_setting 'tetragonal'
loop_
_space_group_symop_operation_xyz
x,y,z
-y,x,1/2+z
-x,-y,z
y,-x,1/2+z
1/2+x,1/2-y,-z
1/2-x,1/2+y,-z
1/2+y,1/2+x,1/2-z
1/2-y,1/2-x,1/2-z
-x,-y,-z
y,-x,1/2-z
x,y,-z
-y,x,1/2-z
1/2-x,1/2+y,z
1/2+x,1/2-y,z
1/2-y,1/2-x,1/2+z
1/2+y,1/2+x,1/2+z
loop_
_atom_site_type_symbol
_atom_site_label
_atom_site_fract_x
_atom_site_fract_y
_atom_site_fract_z
Si Si1 0.500000 0.500000 0.000000
Si Si2 0.016762 0.297744 0.066026
Si Si3 0.055636 0.731173 0.562992
Si Si4 0.821682 0.231137 0.932698
Si Si5 0.423156 0.611218 0.911279
Si Si6 0.595505 0.390786 0.774190
Si Si7 0.893791 0.668193 0.630123
Si Si8 0.200421 0.299580 0.250000
O O1 0.508532 0.577852 0.948650
O O2 0.091140 0.215698 0.068757
O O3 0.068337 0.375122 0.101755
O O4 0.925124 0.250010 0.091338
O O5 0.997923 0.325178 0.000000
O O6 0.023582 0.696262 0.500000
O O7 0.163517 0.713793 0.569222
O O8 0.048337 0.841290 0.563917
O O9 0.999076 0.690766 0.615698
O O10 0.753428 0.162583 0.899709
O O11 0.824529 0.203549 0.000000
O O12 0.422478 0.606284 0.842931
O O13 0.494105 0.373880 0.745398
O O14 0.668870 0.308159 0.760490
O O15 0.857394 0.668488 0.694629
#
# Coordination Sequence:
#
# PCOD9568964 Si02
#       8
#     4  16  16  16  16  16  16   8
#     4  12  24  32  66 100 140 172 220 272 370 404
#     4  11  22  41  63  92 134 169 213 277 341 408
#     4  11  22  41  65  96 135 171 217 273 343 411
#     4  10  23  40  66  98 129 173 219 269 347 414
#     4  12  23  40  62 101 137 167 222 288 335 422
#     4  11  25  47  70  98 141 185 241 297 354 418
#     4  12  25  41  66  94 133 177 227 280 336 401
#     4  12  26  42  70  98 130 192 238 286 350 418
#
# _framework density 22.171354000000001
#
# number of rings (size 3 to 8) (size 9 to 14) (size 15 to 20)
#    0.000    0.741    4.444    3.111    4.148    0.593 
#    0.000    2.222    0.000    1.333    0.000    0.000 
#    0.000    0.000    0.000    0.000    0.000    0.000 
#
# Total GULP energy -601707.085212 kJ/mol
# GULP energy per Si atom -5571.361900 kJ/mol
# Density = 2.212089 g / cm^3
# Si number density = 22.171354 Si / 1000 Ang^3
#
#
#
# Elastic Constant Matrix: (Units=GPa)
#
#
# Indices 1 2 3 4 5 6 
#
# 1 79.7584 19.7947 19.5978 0.0000 0.0000 0.0000
# 2 19.7947 79.7574 19.5978 0.0000 0.0000 0.0000
# 3 19.5978 19.5978 131.1111 0.0000 0.0000 0.0000
# 4 0.0000 0.0000 0.0000 -2.5197 0.0000 0.0000
# 5 0.0000 0.0000 0.0000 0.0000 -2.5212 0.0000
# 6 0.0000 0.0000 0.0000 0.0000 0.0000 39.9247
#
#
#
# Elastic Compliance Matrix: (Units=1/GPa)
#
#
# Indices 1 2 3 4 5 6 
#
# 1 0.013675 -0.003002 -0.001595 0.000000 0.000000 0.000000
# 2 -0.003002 0.013675 -0.001595 0.000000 0.000000 0.000000
# 3 -0.001595 -0.001595 0.008104 0.000000 0.000000 0.000000
# 4 0.000000 0.000000 0.000000 -0.396875 0.000000 0.000000
# 5 0.000000 0.000000 0.000000 0.000000 -0.396641 0.000000
# 6 0.000000 0.000000 0.000000 0.000000 0.000000 0.025047
#
#
# Mechanical properties :
#
#
# Convention : Reuss Voigt Hill
#
# Bulk Modulus (GPa) = 43.34869 45.40085 44.37477
# Shear Modulus (GPa) = -7.01322 22.41920 7.70299
#
# Velocity S-wave (km/s) = -1.78047 3.18335 1.86597
# Velocity P-wave (km/s) = 3.92012 5.83381 4.96995
#
# Compressibility (1/GPa) = 0.02306875
#
# Stress axis : x y z
#
# Youngs Moduli (GPa) = 73.12670 73.12574 123.39513
#
# Poissons Ratio (x) = 0.21952 0.19686
# Poissons Ratio (y) = 0.21952 0.19686
# Poissons Ratio (z) = 0.11666 0.11666
#
# Static dielectric constant tensor:
#      x y z
#    x 1.994010 0.000000 0.000000 
#    y 0.000000 1.994010 0.000000 
#    z 0.000000 0.000000 1.754390 
# 
# From -- ./inp_files/6179.got.cif
#   From: 2010.05.17/outbox.cif.g08.bks.cpg/sg135_4_cif.got.tgz:6179.got - 2010.05.20 12:50:20.
