data_PCOD9568211
_publ_section_title
;
Structure prediction by ZEFSAII (Michael W. Deem and Ramdas Pophale) SiO2 
 PCOD9568211
Probable space group: P 42/N N M
;
_chemical_formula_sum "Si O2"
_cell_formula_units_Z 120
_cell_length_a 21.376724
_cell_length_b 21.376724
_cell_length_c 13.652621
_cell_angle_alpha 90.000000
_cell_angle_beta 90.000000
_cell_angle_gamma 90.000000
_cell_volume 6238.760794
_symmetry_space_group_name_H-M "P 42/N N M"
_symmetry_group_IT_number 134
_space_group.IT_coordinate_system_code '2'
_symmetry_cell_setting 'tetragonal'
loop_
_space_group_symop_operation_xyz
x,y,z
1/2-y,x,1/2+z
1/2-x,1/2-y,z
y,1/2-x,1/2+z
x,1/2-y,1/2-z
1/2-x,y,1/2-z
y,x,-z
1/2-y,1/2-x,-z
-x,-y,-z
1/2+y,-x,1/2-z
1/2+x,1/2+y,-z
-y,1/2+x,1/2-z
-x,1/2+y,1/2+z
1/2+x,-y,1/2+z
-y,-x,z
1/2+y,1/2+x,z
loop_
_atom_site_type_symbol
_atom_site_label
_atom_site_fract_x
_atom_site_fract_y
_atom_site_fract_z
Si Si1 0.157851 0.342150 0.000000
Si Si2 0.351003 0.283839 0.909754
Si Si3 0.965517 0.811747 0.615929
Si Si4 0.604579 0.875455 0.708249
Si Si5 0.878434 0.018228 0.730616
Si Si6 0.079967 0.818025 0.084540
Si Si7 0.570415 0.326834 0.531077
Si Si8 0.823946 0.963950 0.036572
O O1 0.210536 0.336139 0.085114
O O2 0.090101 0.332575 0.043823
O O3 0.343010 0.328012 0.815588
O O4 0.310497 0.310497 0.000000
O O5 0.421905 0.297770 0.946477
O O6 0.940977 0.839142 0.717640
O O7 0.969347 0.736760 0.606823
O O8 0.030507 0.833913 0.568479
O O9 0.571470 0.874684 0.601704
O O10 0.614846 0.945252 0.746916
O O11 0.943686 0.056315 0.741393
O O12 0.831507 0.050683 0.808452
O O13 0.853733 0.029874 0.621392
O O14 0.144656 0.855345 0.078331
O O15 0.083743 0.745269 0.057290
O O16 0.029347 0.844978 0.007416
O O17 0.633165 0.366836 0.526182
#
# Coordination Sequence:
#
# PCOD9568211 Si02
#       8
#     8  16  16  16  16  16  16  16
#     4  10  19  34  49  76 112 152 202 246 289 327
#     4   9  18  32  51  74 108 151 194 244 286 330
#     4  10  21  35  54  80 111 157 199 235 284 345
#     4  11  20  34  55  83 113 157 197 233 283 341
#     4  10  21  35  56  87 116 147 190 234 287 358
#     4  10  20  37  61  89 114 143 189 243 300 356
#     4  10  22  41  60  82 117 154 189 238 295 357
#     4   9  19  36  53  78 117 148 186 243 290 334
#
# _framework density 19.234590000000001
#
# number of rings (size 3 to 8) (size 9 to 14) (size 15 to 20)
#    0.000    2.133    1.333    1.800    0.000    1.867 
#    2.400    3.000    0.000    7.200    0.000    0.000 
#    0.000    4.267    0.000    0.000    0.000    0.000 
#
# Total GULP energy -669250.395838 kJ/mol
# GULP energy per Si atom -5577.086632 kJ/mol
# Density = 1.919081 g / cm^3
# Si number density = 19.234590 Si / 1000 Ang^3
#
#
#
# Elastic Constant Matrix: (Units=GPa)
#
#
# Indices 1 2 3 4 5 6 
#
# 1 45.5205 23.1714 20.2992 0.0000 0.0000 0.0000
# 2 23.1714 45.5206 20.2988 0.0000 0.0000 0.0000
# 3 20.2992 20.2988 79.4153 0.0000 0.0000 0.0000
# 4 0.0000 0.0000 0.0000 25.4442 0.0000 0.0000
# 5 0.0000 0.0000 0.0000 0.0000 25.4442 0.0000
# 6 0.0000 0.0000 0.0000 0.0000 0.0000 18.2869
#
#
#
# Elastic Compliance Matrix: (Units=1/GPa)
#
#
# Indices 1 2 3 4 5 6 
#
# 1 0.030946 -0.013798 -0.004383 0.000000 0.000000 0.000000
# 2 -0.013798 0.030946 -0.004383 0.000000 0.000000 0.000000
# 3 -0.004383 -0.004383 0.014833 0.000000 0.000000 0.000000
# 4 0.000000 0.000000 0.000000 0.039302 0.000000 0.000000
# 5 0.000000 0.000000 0.000000 0.000000 0.039302 0.000000
# 6 0.000000 0.000000 0.000000 0.000000 0.000000 0.054684
#
#
# Mechanical properties :
#
#
# Convention : Reuss Voigt Hill
#
# Bulk Modulus (GPa) = 31.64902 33.11057 32.37980
# Shear Modulus (GPa) = 18.82008 20.94754 19.88381
#
# Velocity S-wave (km/s) = 3.13141 3.30366 3.21869
# Velocity P-wave (km/s) = 5.43730 5.63948 5.53931
#
# Compressibility (1/GPa) = 0.03159655
#
# Stress axis : x y z
#
# Youngs Moduli (GPa) = 32.31391 32.31417 67.41832
#
# Poissons Ratio (x) = 0.44587 0.29552
# Poissons Ratio (y) = 0.44587 0.29550
# Poissons Ratio (z) = 0.14164 0.14163
#
# Static dielectric constant tensor:
#      x y z
#    x 1.684530 0.000000 0.000000 
#    y 0.000000 1.684520 0.000000 
#    z 0.000000 0.000000 1.718620 
# 
# From -- ./inp_files/6743.got.cif
#   From: 2010.05.17/outbox.cif.g08.bks.cpg/sg134_4_cif.got.tgz:6743.got - 2010.05.20 12:42:49.
