data_PCOD9568636
_publ_section_title
;
Structure prediction by ZEFSAII (Michael W. Deem and Ramdas Pophale) SiO2 
 PCOD9568636
Probable space group: P 42/M B C
;
_chemical_formula_sum "Si O2"
_cell_formula_units_Z 96
_cell_length_a 17.751947
_cell_length_b 17.751947
_cell_length_c 14.109639
_cell_angle_alpha 90.000000
_cell_angle_beta 90.000000
_cell_angle_gamma 90.000000
_cell_volume 4446.393428
_symmetry_space_group_name_H-M "P 42/M B C"
_symmetry_group_IT_number 135
_symmetry_cell_setting 'tetragonal'
loop_
_space_group_symop_operation_xyz
x,y,z
-y,x,1/2+z
-x,-y,z
y,-x,1/2+z
1/2+x,1/2-y,-z
1/2-x,1/2+y,-z
1/2+y,1/2+x,1/2-z
1/2-y,1/2-x,1/2-z
-x,-y,-z
y,-x,1/2-z
x,y,-z
-y,x,1/2-z
1/2-x,1/2+y,z
1/2+x,1/2-y,z
1/2-y,1/2-x,1/2+z
1/2+y,1/2+x,1/2+z
loop_
_atom_site_type_symbol
_atom_site_label
_atom_site_fract_x
_atom_site_fract_y
_atom_site_fract_z
Si Si1 0.587881 0.497370 0.889633
Si Si2 0.856236 0.175768 0.690116
Si Si3 0.609357 0.675744 0.894512
Si Si4 0.635865 0.969180 0.287006
Si Si5 0.944797 0.746226 0.890824
Si Si6 0.602970 0.823021 0.607080
O O1 0.500000 0.500000 0.862593
O O2 0.635046 0.437461 0.828806
O O3 0.613072 0.584345 0.887882
O O4 0.592077 0.471109 0.000000
O O5 0.850493 0.201438 0.798727
O O6 0.851184 0.247114 0.621163
O O7 0.793034 0.116222 0.665190
O O8 0.523043 0.705664 0.888054
O O9 0.636966 0.697795 0.000000
O O10 0.552890 0.947111 0.250000
O O11 0.665183 0.039914 0.342975
O O12 0.646473 0.898333 0.359600
O O13 0.682984 0.960202 0.189898
O O14 0.923836 0.737924 0.000000
O O15 0.576202 0.831022 0.500000
#
# Coordination Sequence:
#
# PCOD9568636 Si02
#       6
#    16  16  16  16  16  16
#     4  10  19  28  37  55  85 122 152 183 224 260
#     4  12  20  30  44  67  87 115 159 205 231 263
#     4  10  20  29  38  55  88 126 156 188 230 273
#     4   8  19  33  47  63  85 122 156 193 231 289
#     4  11  19  31  47  65  87 117 160 204 239 273
#     4   9  18  32  48  65  83 113 158 201 232 269
#
# _framework density 21.590532
#
# number of rings (size 3 to 8) (size 9 to 14) (size 15 to 20)
#    1.000    0.833    3.333    3.000    0.000    0.000 
#    0.000    0.000    0.000    0.000    0.000    0.000 
#    0.000    0.000    0.000    3.000    1.333   17.333 
#
# Total GULP energy -535025.463249 kJ/mol
# GULP energy per Si atom -5573.181909 kJ/mol
# Density = 2.154139 g / cm^3
# Si number density = 21.590532 Si / 1000 Ang^3
#
#
#
# Elastic Constant Matrix: (Units=GPa)
#
#
# Indices 1 2 3 4 5 6 
#
# 1 88.7568 -37.9341 4.2857 0.0000 0.0000 0.0000
# 2 -37.9341 88.7708 4.2947 0.0000 0.0000 0.0000
# 3 4.2857 4.2947 158.0555 0.0000 0.0000 0.0000
# 4 0.0000 0.0000 0.0000 -8.4780 0.0000 0.0000
# 5 0.0000 0.0000 0.0000 0.0000 -8.4782 0.0000
# 6 0.0000 0.0000 0.0000 0.0000 0.0000 20.7621
#
#
#
# Elastic Compliance Matrix: (Units=1/GPa)
#
#
# Indices 1 2 3 4 5 6 
#
# 1 0.013829 0.005936 -0.000536 0.000000 0.000000 0.000000
# 2 0.005936 0.013827 -0.000537 0.000000 0.000000 0.000000
# 3 -0.000536 -0.000537 0.006356 0.000000 0.000000 0.000000
# 4 0.000000 0.000000 0.000000 -0.117953 0.000000 0.000000
# 5 0.000000 0.000000 0.000000 0.000000 -0.117950 0.000000
# 6 0.000000 0.000000 0.000000 0.000000 0.000000 0.048165
#
#
# Mechanical properties :
#
#
# Convention : Reuss Voigt Hill
#
# Bulk Modulus (GPa) = 22.86323 30.76396 26.81360
# Shear Modulus (GPa) = -33.58607 25.09033 -4.24787
#
# Velocity S-wave (km/s) = -3.94838 3.41265 -1.40419
# Velocity P-wave (km/s) = 3.18964 5.45967 3.13323
#
# Compressibility (1/GPa) = 0.04373835
#
# Stress axis : x y z
#
# Youngs Moduli (GPa) = 72.30921 72.32020 157.33133
#
# Poissons Ratio (x) = -0.42927 0.08437
# Poissons Ratio (y) = -0.42920 0.08443
# Poissons Ratio (z) = 0.03878 0.03881
#
# Static dielectric constant tensor:
#      x y z
#    x 1.815660 0.000000 0.000000 
#    y 0.000000 1.815670 0.000000 
#    z 0.000000 0.000000 1.823140 
# 
# From -- ./inp_files/3628.got.cif
#   From: 2010.05.17/outbox.cif.g08.bks.cpg/sg135_2_cif.got.tgz:3628.got - 2010.05.20 12:50:20.
