data_PCOD9568681
_publ_section_title
;
Structure prediction by ZEFSAII (Michael W. Deem and Ramdas Pophale) SiO2 
 PCOD9568681
Probable space group: P 42/M B C
;
_chemical_formula_sum "Si O2"
_cell_formula_units_Z 96
_cell_length_a 23.483891
_cell_length_b 23.483891
_cell_length_c 8.985551
_cell_angle_alpha 90.000000
_cell_angle_beta 90.000000
_cell_angle_gamma 90.000000
_cell_volume 4955.469704
_symmetry_space_group_name_H-M "P 42/M B C"
_symmetry_group_IT_number 135
_symmetry_cell_setting 'tetragonal'
loop_
_space_group_symop_operation_xyz
x,y,z
-y,x,1/2+z
-x,-y,z
y,-x,1/2+z
1/2+x,1/2-y,-z
1/2-x,1/2+y,-z
1/2+y,1/2+x,1/2-z
1/2-y,1/2-x,1/2-z
-x,-y,-z
y,-x,1/2-z
x,y,-z
-y,x,1/2-z
1/2-x,1/2+y,z
1/2+x,1/2-y,z
1/2-y,1/2-x,1/2+z
1/2+y,1/2+x,1/2+z
loop_
_atom_site_type_symbol
_atom_site_label
_atom_site_fract_x
_atom_site_fract_y
_atom_site_fract_z
Si Si1 0.702011 0.027470 0.832263
Si Si2 0.368945 0.302850 0.822072
Si Si3 0.829045 0.982808 0.835042
Si Si4 0.758512 0.653447 0.819738
Si Si5 0.912873 0.326113 0.823317
Si Si6 0.026983 0.078502 0.173213
O O1 0.764082 0.999595 0.846228
O O2 0.671678 0.978080 0.736847
O O3 0.716240 0.091261 0.774145
O O4 0.677235 0.032092 0.000000
O O5 0.418778 0.331680 0.726174
O O6 0.306934 0.328398 0.782863
O O7 0.380738 0.235121 0.794941
O O8 0.378062 0.312289 0.000000
O O9 0.857066 0.028465 0.724768
O O10 0.854673 0.987806 0.000000
O O11 0.799003 0.700998 0.750000
O O12 0.760771 0.653930 0.000000
O O13 0.874831 0.374831 0.750000
O O14 0.914298 0.332496 0.000000
O O15 0.061880 0.037362 0.280030
O O16 0.035770 0.070068 0.000000
#
# Coordination Sequence:
#
# PCOD9568681 Si02
#       6
#    16  16  16  16  16  16
#     4   9  20  37  55  78 111 147 183 221 275 334
#     4   9  19  34  53  80 112 149 186 225 274 325
#     4  10  20  34  53  79 107 143 186 230 278 325
#     4  10  21  37  57  82 112 150 185 223 276 330
#     4  10  19  33  56  84 112 143 184 231 280 328
#     4  11  22  36  51  70  98 136 185 234 280 326
#
# _framework density 19.372534000000002
#
# number of rings (size 3 to 8) (size 9 to 14) (size 15 to 20)
#    0.000    2.167    0.000    3.500    2.333    2.667 
#    0.000    0.000    0.000    0.500    0.000    3.500 
#    0.000    0.000    0.000    0.000    0.000    0.000 
#
# Total GULP energy -534630.218330 kJ/mol
# GULP energy per Si atom -5569.064774 kJ/mol
# Density = 1.932844 g / cm^3
# Si number density = 19.372534 Si / 1000 Ang^3
#
#
#
# Elastic Constant Matrix: (Units=GPa)
#
#
# Indices 1 2 3 4 5 6 
#
# 1 64.1178 13.6708 9.7697 0.0000 0.0000 0.0000
# 2 13.6708 64.1098 9.7684 0.0000 0.0000 0.0000
# 3 9.7697 9.7684 38.4355 0.0000 0.0000 0.0000
# 4 0.0000 0.0000 0.0000 11.5307 0.0000 0.0000
# 5 0.0000 0.0000 0.0000 0.0000 11.5301 0.0000
# 6 0.0000 0.0000 0.0000 0.0000 0.0000 22.4046
#
#
#
# Elastic Compliance Matrix: (Units=1/GPa)
#
#
# Indices 1 2 3 4 5 6 
#
# 1 0.016778 -0.003046 -0.003490 0.000000 0.000000 0.000000
# 2 -0.003046 0.016780 -0.003490 0.000000 0.000000 0.000000
# 3 -0.003490 -0.003490 0.027792 0.000000 0.000000 0.000000
# 4 0.000000 0.000000 0.000000 0.086725 0.000000 0.000000
# 5 0.000000 0.000000 0.000000 0.000000 0.086729 0.000000
# 6 0.000000 0.000000 0.000000 0.000000 0.000000 0.044634
#
#
# Mechanical properties :
#
#
# Convention : Reuss Voigt Hill
#
# Bulk Modulus (GPa) = 24.21558 25.89789 25.05674
# Shear Modulus (GPa) = 15.96140 17.99003 16.97572
#
# Velocity S-wave (km/s) = 2.87351 3.05066 2.96341
# Velocity P-wave (km/s) = 4.85145 5.07997 4.96702
#
# Compressibility (1/GPa) = 0.04129573
#
# Stress axis : x y z
#
# Youngs Moduli (GPa) = 59.60349 59.59632 35.98170
#
# Poissons Ratio (x) = 0.18152 0.12559
# Poissons Ratio (y) = 0.18154 0.12559
# Poissons Ratio (z) = 0.20804 0.20801
#
# Static dielectric constant tensor:
#      x y z
#    x 1.734590 0.000000 0.000000 
#    y 0.000000 1.734590 0.000000 
#    z 0.000000 0.000000 1.720770 
# 
# From -- ./inp_files/1261.got.cif
#   From: 2010.05.17/outbox.cif.g08.bks.cpg/sg135_1_cif.got.tgz:1261.got - 2010.05.20 12:50:20.
