data_PCOD9568188
_publ_section_title
;
Structure prediction by ZEFSAII (Michael W. Deem and Ramdas Pophale) SiO2 
 PCOD9568188
Probable space group: P 42/N N M
;
_chemical_formula_sum "Si O2"
_cell_formula_units_Z 80
_cell_length_a 17.465590
_cell_length_b 17.465590
_cell_length_c 12.383716
_cell_angle_alpha 90.000000
_cell_angle_beta 90.000000
_cell_angle_gamma 90.000000
_cell_volume 3777.613360
_symmetry_space_group_name_H-M "P 42/N N M"
_symmetry_group_IT_number 134
_space_group.IT_coordinate_system_code '2'
_symmetry_cell_setting 'tetragonal'
loop_
_space_group_symop_operation_xyz
x,y,z
1/2-y,x,1/2+z
1/2-x,1/2-y,z
y,1/2-x,1/2+z
x,1/2-y,1/2-z
1/2-x,y,1/2-z
y,x,-z
1/2-y,1/2-x,-z
-x,-y,-z
1/2+y,-x,1/2-z
1/2+x,1/2+y,-z
-y,1/2+x,1/2-z
-x,1/2+y,1/2+z
1/2+x,-y,1/2+z
-y,-x,z
1/2+y,1/2+x,z
loop_
_atom_site_type_symbol
_atom_site_label
_atom_site_fract_x
_atom_site_fract_y
_atom_site_fract_z
Si Si1 0.371323 0.309275 0.397883
Si Si2 0.560569 0.853256 0.594501
Si Si3 0.026508 0.856010 0.479816
Si Si4 0.551996 0.870570 0.241447
Si Si5 0.312158 0.561193 0.074640
O O1 0.314586 0.314586 0.500000
O O2 0.397196 0.224160 0.367443
O O3 0.452912 0.340380 0.445884
O O4 0.337942 0.368727 0.310180
O O5 0.613731 0.886270 0.500000
O O6 0.559161 0.915451 0.688791
O O7 0.480799 0.839851 0.534986
O O8 0.083344 0.916657 0.530637
O O9 0.070212 0.777696 0.447495
O O10 0.996122 0.886093 0.364811
O O11 0.499815 0.823563 0.326682
O O12 0.364519 0.635482 0.095634
#
# Coordination Sequence:
#
# PCOD9568188 Si02
#       5
#    16  16  16  16  16
#     4   9  19  34  52  77 106 135 171 212 255 307
#     4   9  19  34  52  77 106 135 171 212 255 307
#     4  10  21  36  53  76 105 136 174 216 255 302
#     4  10  19  32  54  76 102 133 166 207 257 304
#     4  10  21  36  53  76 105 136 174 216 255 302
#
# _framework density 21.177392999999999
#
# number of rings (size 3 to 8) (size 9 to 14) (size 15 to 20)
#    0.000    2.400    0.000    1.800    0.000   11.200 
#    0.000    0.000    0.000   14.400    0.000    0.000 
#    0.000    6.400    0.000    0.000    0.000    1.600 
#
# Total GULP energy -445661.779246 kJ/mol
# GULP energy per Si atom -5570.772241 kJ/mol
# Density = 2.112919 g / cm^3
# Si number density = 21.177393 Si / 1000 Ang^3
#
#
#
# Elastic Constant Matrix: (Units=GPa)
#
#
# Indices 1 2 3 4 5 6 
#
# 1 51.2586 76.4814 14.3087 0.0000 0.0000 0.0000
# 2 76.4814 51.2583 14.3090 0.0000 0.0000 0.0000
# 3 14.3087 14.3090 62.8668 0.0000 0.0000 0.0000
# 4 0.0000 0.0000 0.0000 14.7977 0.0000 0.0000
# 5 0.0000 0.0000 0.0000 0.0000 14.7975 0.0000
# 6 0.0000 0.0000 0.0000 0.0000 0.0000 20.7251
#
#
#
# Elastic Compliance Matrix: (Units=1/GPa)
#
#
# Indices 1 2 3 4 5 6 
#
# 1 -0.015699 0.023948 -0.001878 0.000000 0.000000 0.000000
# 2 0.023948 -0.015699 -0.001877 0.000000 0.000000 0.000000
# 3 -0.001878 -0.001877 0.016761 0.000000 0.000000 0.000000
# 4 0.000000 0.000000 0.000000 0.067578 0.000000 0.000000
# 5 0.000000 0.000000 0.000000 0.000000 0.067579 0.000000
# 6 0.000000 0.000000 0.000000 0.000000 0.000000 0.048251
#
#
# Mechanical properties :
#
#
# Convention : Reuss Voigt Hill
#
# Bulk Modulus (GPa) = 38.83605 41.73133 40.28369
# Shear Modulus (GPa) = 36.50454 14.08304 25.29379
#
# Velocity S-wave (km/s) = 4.15631 2.58156 3.45973
# Velocity P-wave (km/s) = 6.43518 5.35111 5.91802
#
# Compressibility (1/GPa) = 0.02574927
#
# Stress axis : x y z
#
# Youngs Moduli (GPa) = -63.69977 -63.69921 59.66117
#
# Poissons Ratio (x) = 1.52545 0.11202
# Poissons Ratio (y) = 1.52547 0.11201
# Poissons Ratio (z) = -0.11960 -0.11959
#
# Static dielectric constant tensor:
#      x y z
#    x 1.781500 0.000000 0.000000 
#    y 0.000000 1.781500 0.000000 
#    z 0.000000 0.000000 1.795700 
# 
# From -- ./inp_files/6354.got.cif
#   From: 2010.05.17/outbox.cif.g08.bks.cpg/sg134_4_cif.got.tgz:6354.got - 2010.05.20 12:42:49.
