data_PCOD9568059
_publ_section_title
;
Structure prediction by ZEFSAII (Michael W. Deem and Ramdas Pophale) SiO2 
 PCOD9568059
Probable space group: P 42/N B C
;
_chemical_formula_sum "Si O2"
_cell_formula_units_Z 92
_cell_length_a 15.000000
_cell_length_b 15.000000
_cell_length_c 21.000000
_cell_angle_alpha 90.000000
_cell_angle_beta 90.000000
_cell_angle_gamma 90.000000
_cell_volume 4725.000000
_symmetry_space_group_name_H-M "P 42/N B C"
_symmetry_group_IT_number 133
_space_group.IT_coordinate_system_code '2'
_symmetry_cell_setting 'tetragonal'
loop_
_space_group_symop_operation_xyz
x,y,z
1/2-y,x,1/2+z
1/2-x,1/2-y,z
y,1/2-x,1/2+z
x,1/2-y,-z
1/2-x,y,-z
y,x,1/2-z
1/2-y,1/2-x,1/2-z
-x,-y,-z
1/2+y,-x,1/2-z
1/2+x,1/2+y,-z
-y,1/2+x,1/2-z
-x,1/2+y,z
1/2+x,-y,z
-y,-x,1/2+z
1/2+y,1/2+x,1/2+z
loop_
_atom_site_type_symbol
_atom_site_label
_atom_site_fract_x
_atom_site_fract_y
_atom_site_fract_z
Si Si1 0.539046 0.021317 0.661442
Si Si2 0.267559 0.447013 0.638031
Si Si3 0.453693 0.590597 0.522889
Si Si4 0.750000 0.250000 0.750000
Si Si5 0.539929 0.250000 0.000000
Si Si6 0.589410 0.750000 0.500000
Si Si7 0.750000 0.750000 0.602016
Si Si8 0.424568 0.866999 0.210786
O O1 0.537889 0.083205 0.599096
O O2 0.551218 0.089321 0.720805
O O3 0.629483 0.964247 0.655104
O O4 0.454359 0.953280 0.667305
O O5 0.250410 0.481139 0.564930
O O6 0.246562 0.342419 0.640366
O O7 0.207886 0.507421 0.684869
O O8 0.500000 0.500000 0.500000
O O9 0.347221 0.591440 0.503483
O O10 0.520402 0.667495 0.499358
O O11 0.683566 0.325860 0.715405
O O12 0.659676 0.752304 0.558817
#
# Coordination Sequence:
#
# PCOD9568059 Si02
#       8
#    16  16  16   4   8   8   8  16
#     4  10  23  44  67  96 138 171 226 284 343 408
#     4  11  22  44  68  97 136 177 223 285 343 411
#     4  11  22  42  65  98 133 179 217 285 348 404
#     4  12  24  48  76  94 128 188 232 276 354 412
#     4  10  22  40  68 100 138 172 226 284 350 408
#     4  11  22  39  64  94 136 177 228 271 352 410
#     4  11  22  38  66  99 130 179 226 277 336 423
#     4  11  23  46  69  98 131 177 228 282 340 420
#
# _framework density 19.470898999999999
#
# number of rings (size 3 to 8) (size 9 to 14) (size 15 to 20)
#    0.000    1.217    1.739    6.261    0.000    0.348 
#   15.652    0.000    0.000    2.087    0.000    0.000 
#    0.000    0.000    0.000    0.000    0.000    0.000 
#
# Total GULP energy -512888.374305 kJ/mol
# GULP energy per Si atom -5574.873634 kJ/mol
# Density = 1.942658 g / cm^3
# Si number density = 19.470899 Si / 1000 Ang^3
#
#
#
# Elastic Constant Matrix: (Units=GPa)
#
#
# Indices 1 2 3 4 5 6 
#
# 1 180.0328 71.7411 24.0987 0.0000 0.0000 0.0000
# 2 71.7411 180.0328 24.0987 0.0000 0.0000 0.0000
# 3 24.0987 24.0987 53.9365 0.0000 0.0000 0.0000
# 4 0.0000 0.0000 0.0000 26.6568 0.0000 0.0000
# 5 0.0000 0.0000 0.0000 0.0000 26.6568 0.0000
# 6 0.0000 0.0000 0.0000 0.0000 0.0000 43.2945
#
#
#
# Elastic Compliance Matrix: (Units=1/GPa)
#
#
# Indices 1 2 3 4 5 6 
#
# 1 0.006789 -0.002446 -0.001941 0.000000 0.000000 0.000000
# 2 -0.002446 0.006789 -0.001941 0.000000 0.000000 0.000000
# 3 -0.001941 -0.001941 0.020274 0.000000 0.000000 0.000000
# 4 0.000000 0.000000 0.000000 0.037514 0.000000 0.000000
# 5 0.000000 0.000000 0.000000 0.000000 0.037514 0.000000
# 6 0.000000 0.000000 0.000000 0.000000 0.000000 0.023098
#
#
# Mechanical properties :
#
#
# Convention : Reuss Voigt Hill
#
# Bulk Modulus (GPa) = 47.17270 72.65322 59.91296
# Shear Modulus (GPa) = 32.96043 38.92585 35.94314
#
# Velocity S-wave (km/s) = 4.11883 4.47607 4.30116
# Velocity P-wave (km/s) = 6.84833 8.00677 7.45010
#
# Compressibility (1/GPa) = 0.02119870
#
# Stress axis : x y z
#
# Youngs Moduli (GPa) = 147.30113 147.30113 49.32332
#
# Poissons Ratio (x) = 0.36023 0.09572
# Poissons Ratio (y) = 0.36023 0.09572
# Poissons Ratio (z) = 0.28585 0.28585
#
# Static dielectric constant tensor:
#      x y z
#    x 1.666910 0.000000 0.000000 
#    y 0.000000 1.666910 0.000000 
#    z 0.000000 0.000000 1.457560 
# 
# From -- ./inp_files/6591.got.cif
#   From: 2010.05.17/outbox.ucp.g08.bks.cvg/sg133_4_cif.got.tgz:6591.got - 2010.06.11 11:39:40.
