data_PCOD9568313
_publ_section_title
;
Structure prediction by ZEFSAII (Michael W. Deem and Ramdas Pophale) SiO2 
 PCOD9568313
Probable space group: P 42/N N M
;
_chemical_formula_sum "Si O2"
_cell_formula_units_Z 88
_cell_length_a 13.214478
_cell_length_b 13.214478
_cell_length_c 26.260784
_cell_angle_alpha 90.000000
_cell_angle_beta 90.000000
_cell_angle_gamma 90.000000
_cell_volume 4585.721885
_symmetry_space_group_name_H-M "P 42/N N M"
_symmetry_group_IT_number 134
_space_group.IT_coordinate_system_code '2'
_symmetry_cell_setting 'tetragonal'
loop_
_space_group_symop_operation_xyz
x,y,z
1/2-y,x,1/2+z
1/2-x,1/2-y,z
y,1/2-x,1/2+z
x,1/2-y,1/2-z
1/2-x,y,1/2-z
y,x,-z
1/2-y,1/2-x,-z
-x,-y,-z
1/2+y,-x,1/2-z
1/2+x,1/2+y,-z
-y,1/2+x,1/2-z
-x,1/2+y,1/2+z
1/2+x,-y,1/2+z
-y,-x,z
1/2+y,1/2+x,z
loop_
_atom_site_type_symbol
_atom_site_label
_atom_site_fract_x
_atom_site_fract_y
_atom_site_fract_z
Si Si1 0.178811 0.993407 0.144957
Si Si2 0.276354 0.134268 0.643294
Si Si3 0.101595 0.257217 0.025743
Si Si4 0.584983 0.250180 0.188685
Si Si5 0.917335 0.254331 0.959529
Si Si6 0.420271 0.750000 0.250000
O O1 0.094395 0.905605 0.145194
O O2 0.243249 0.978043 0.093550
O O3 0.239731 0.981731 0.197710
O O4 0.129331 0.102483 0.143384
O O5 0.250000 0.250000 0.661157
O O6 0.239963 0.123459 0.585165
O O7 0.241308 0.031736 0.671464
O O8 0.169485 0.169485 0.000000
O O9 0.139892 0.360109 0.000000
O O10 0.988140 0.239314 0.008070
O O11 0.585090 0.250000 0.250000
O O12 0.647329 0.352672 0.172822
O O13 0.655423 0.155423 0.171862
O O14 0.832614 0.167387 0.958756
O O15 0.860244 0.360244 0.961153
O O16 0.346797 0.653204 0.254367
#
# Coordination Sequence:
#
# PCOD9568313 Si02
#       6
#    16  16  16  16  16   8
#     4  10  20  35  56  83 115 156 195 238 296 357
#     4  12  23  38  62  90 121 155 201 253 305 367
#     4  11  21  41  59  78 114 159 199 239 297 362
#     4   9  21  44  69  92 124 166 209 256 309 363
#     4  10  21  36  57  87 117 148 196 252 300 353
#     4   9  18  34  55  78 112 154 191 228 278 355
#
# _framework density 19.189997999999999
#
# number of rings (size 3 to 8) (size 9 to 14) (size 15 to 20)
#    0.000    1.727    3.636    1.636    0.000    6.909 
#    0.000    7.273    0.000    0.000    0.000    0.000 
#    0.000    0.000    0.000    0.000    0.000    0.000 
#
# Total GULP energy -490700.108795 kJ/mol
# GULP energy per Si atom -5576.137600 kJ/mol
# Density = 1.914632 g / cm^3
# Si number density = 19.189998 Si / 1000 Ang^3
#
#
#
# Elastic Constant Matrix: (Units=GPa)
#
#
# Indices 1 2 3 4 5 6 
#
# 1 87.5844 25.3466 24.0640 0.0000 0.0000 0.0000
# 2 25.3466 87.5815 24.0625 0.0000 0.0000 0.0000
# 3 24.0640 24.0625 43.9073 0.0000 0.0000 0.0000
# 4 0.0000 0.0000 0.0000 16.9924 0.0000 0.0000
# 5 0.0000 0.0000 0.0000 0.0000 16.9959 0.0000
# 6 0.0000 0.0000 0.0000 0.0000 0.0000 9.6783
#
#
#
# Elastic Compliance Matrix: (Units=1/GPa)
#
#
# Indices 1 2 3 4 5 6 
#
# 1 0.013811 -0.002257 -0.006332 0.000000 0.000000 0.000000
# 2 -0.002257 0.013811 -0.006332 0.000000 0.000000 0.000000
# 3 -0.006332 -0.006332 0.029715 0.000000 0.000000 0.000000
# 4 0.000000 0.000000 0.000000 0.058850 0.000000 0.000000
# 5 0.000000 0.000000 0.000000 0.000000 0.058838 0.000000
# 6 0.000000 0.000000 0.000000 0.000000 0.000000 0.103324
#
#
# Mechanical properties :
#
#
# Convention : Reuss Voigt Hill
#
# Bulk Modulus (GPa) = 36.37009 40.66881 38.51945
# Shear Modulus (GPa) = 15.75522 18.44000 17.09761
#
# Velocity S-wave (km/s) = 2.86844 3.10323 2.98814
# Velocity P-wave (km/s) = 5.47397 5.83770 5.65876
#
# Compressibility (1/GPa) = 0.02749512
#
# Stress axis : x y z
#
# Youngs Moduli (GPa) = 72.40860 72.40739 33.65248
#
# Poissons Ratio (x) = 0.16343 0.21309
# Poissons Ratio (y) = 0.16344 0.21307
# Poissons Ratio (z) = 0.45849 0.45846
#
# Static dielectric constant tensor:
#      x y z
#    x 1.688280 0.000000 0.000000 
#    y 0.000000 1.688280 0.000000 
#    z 0.000000 0.000000 1.580500 
# 
# From -- ./inp_files/11482.got.cif
#   From: 2010.05.17/outbox.cif.g08.bks.cpg/sg134_6_cif.got.tgz:11482.got - 2010.05.20 12:42:49.
