data_PCOD9568003
_publ_section_title
;
Structure prediction by ZEFSAII (Michael W. Deem and Ramdas Pophale) SiO2 
 PCOD9568003
Probable space group: P 42/N B C
;
_chemical_formula_sum "Si O2"
_cell_formula_units_Z 68
_cell_length_a 11.001173
_cell_length_b 11.001173
_cell_length_c 27.490859
_cell_angle_alpha 90.000000
_cell_angle_beta 90.000000
_cell_angle_gamma 90.000000
_cell_volume 3327.103406
_symmetry_space_group_name_H-M "P 42/N B C"
_symmetry_group_IT_number 133
_space_group.IT_coordinate_system_code '2'
_symmetry_cell_setting 'tetragonal'
loop_
_space_group_symop_operation_xyz
x,y,z
1/2-y,x,1/2+z
1/2-x,1/2-y,z
y,1/2-x,1/2+z
x,1/2-y,-z
1/2-x,y,-z
y,x,1/2-z
1/2-y,1/2-x,1/2-z
-x,-y,-z
1/2+y,-x,1/2-z
1/2+x,1/2+y,-z
-y,1/2+x,1/2-z
-x,1/2+y,z
1/2+x,-y,z
-y,-x,1/2+z
1/2+y,1/2+x,1/2+z
loop_
_atom_site_type_symbol
_atom_site_label
_atom_site_fract_x
_atom_site_fract_y
_atom_site_fract_z
Si Si1 0.421266 0.237123 0.838554
Si Si2 0.637057 0.324600 0.107770
Si Si3 0.750000 0.750000 0.750000
Si Si4 0.619037 0.937668 0.473354
Si Si5 0.754598 0.922678 0.890068
O O1 0.563261 0.239857 0.848726
O O2 0.366184 0.257655 0.785601
O O3 0.350830 0.325374 0.876879
O O4 0.366942 0.106426 0.854434
O O5 0.750000 0.250000 0.088288
O O6 0.538412 0.346664 0.066539
O O7 0.693659 0.451633 0.122339
O O8 0.750000 0.917166 0.500000
O O9 0.500000 0.000000 0.500000
O O10 0.582818 0.813638 0.444026
#
# Coordination Sequence:
#
# PCOD9568003 Si02
#       5
#    16  16   4  16  16
#     4   9  21  40  70  91 121 167 205 253 339 396
#     4  11  24  40  63  92 129 166 218 270 320 383
#     4   8  16  44  72  96 118 162 198 260 320 420
#     4  11  25  40  61  92 128 179 229 279 326 377
#     4   9  21  40  62  85 127 167 211 262 323 392
#
# _framework density 20.438199000000001
#
# number of rings (size 3 to 8) (size 9 to 14) (size 15 to 20)
#    0.000    2.353    0.000    1.412   16.471    3.294 
#    4.235    4.706    0.000    0.000    0.000    0.000 
#    0.000    0.000    0.000    0.000    0.000    0.000 
#
# Total GULP energy -378675.493160 kJ/mol
# GULP energy per Si atom -5568.757252 kJ/mol
# Density = 2.039168 g / cm^3
# Si number density = 20.438199 Si / 1000 Ang^3
#
#
#
# Elastic Constant Matrix: (Units=GPa)
#
#
# Indices 1 2 3 4 5 6 
#
# 1 92.7534 33.6554 32.4049 0.0000 0.0000 0.0000
# 2 33.6554 92.7534 32.4049 0.0000 0.0000 0.0000
# 3 32.4049 32.4049 104.1819 0.0000 0.0000 0.0000
# 4 0.0000 0.0000 0.0000 16.8167 0.0000 0.0000
# 5 0.0000 0.0000 0.0000 0.0000 16.8167 0.0000
# 6 0.0000 0.0000 0.0000 0.0000 0.0000 39.0138
#
#
#
# Elastic Compliance Matrix: (Units=1/GPa)
#
#
# Indices 1 2 3 4 5 6 
#
# 1 0.013166 -0.003755 -0.002927 0.000000 0.000000 0.000000
# 2 -0.003755 0.013166 -0.002927 0.000000 0.000000 0.000000
# 3 -0.002927 -0.002927 0.011420 0.000000 0.000000 0.000000
# 4 0.000000 0.000000 0.000000 0.059465 0.000000 0.000000
# 5 0.000000 0.000000 0.000000 0.000000 0.059465 0.000000
# 6 0.000000 0.000000 0.000000 0.000000 0.000000 0.025632
#
#
# Mechanical properties :
#
#
# Convention : Reuss Voigt Hill
#
# Bulk Modulus (GPa) = 53.95657 54.06878 54.01268
# Shear Modulus (GPa) = 24.07195 27.27768 25.67481
#
# Velocity S-wave (km/s) = 3.43562 3.65724 3.54816
# Velocity P-wave (km/s) = 6.49578 6.65928 6.57804
#
# Compressibility (1/GPa) = 0.01853342
#
# Stress axis : x y z
#
# Youngs Moduli (GPa) = 75.95094 75.95094 87.56794
#
# Poissons Ratio (x) = 0.28517 0.25635
# Poissons Ratio (y) = 0.28517 0.25635
# Poissons Ratio (z) = 0.22234 0.22234
#
# Static dielectric constant tensor:
#      x y z
#    x 1.869320 0.000000 0.000000 
#    y 0.000000 1.869320 0.000000 
#    z 0.000000 0.000000 1.773810 
# 
# From -- ./inp_files/7525.got.cif
#   From: 2010.05.17/outbox.cif.g08.bks.cpg/sg133_4_cif.got.tgz:7525.got - 2010.05.20 12:37:36.
