data_PCOD9568819
_publ_section_title
;
Structure prediction by ZEFSAII (Michael W. Deem and Ramdas Pophale) SiO2 
 PCOD9568819
Probable space group: P 42/M B C
;
_chemical_formula_sum "Si O2"
_cell_formula_units_Z 52
_cell_length_a 16.186018
_cell_length_b 16.186018
_cell_length_c 9.893646
_cell_angle_alpha 90.000000
_cell_angle_beta 90.000000
_cell_angle_gamma 90.000000
_cell_volume 2592.008403
_symmetry_space_group_name_H-M "P 42/M B C"
_symmetry_group_IT_number 135
_symmetry_cell_setting 'tetragonal'
loop_
_space_group_symop_operation_xyz
x,y,z
-y,x,1/2+z
-x,-y,z
y,-x,1/2+z
1/2+x,1/2-y,-z
1/2-x,1/2+y,-z
1/2+y,1/2+x,1/2-z
1/2-y,1/2-x,1/2-z
-x,-y,-z
y,-x,1/2-z
x,y,-z
-y,x,1/2-z
1/2-x,1/2+y,z
1/2+x,1/2-y,z
1/2-y,1/2-x,1/2+z
1/2+y,1/2+x,1/2+z
loop_
_atom_site_type_symbol
_atom_site_label
_atom_site_fract_x
_atom_site_fract_y
_atom_site_fract_z
Si Si1 0.270607 0.066091 0.500000
Si Si2 0.000000 0.500000 0.250000
Si Si3 0.672058 0.688813 0.772437
Si Si4 0.236427 0.397656 0.000000
Si Si5 0.375394 0.728440 0.000000
Si Si6 0.963509 0.385170 0.500000
O O1 0.227001 0.099717 0.636319
O O2 0.365135 0.100306 0.500000
O O3 0.260800 0.968541 0.500000
O O4 0.004007 0.574095 0.358816
O O5 0.735418 0.764582 0.750000
O O6 0.670912 0.648339 0.626310
O O7 0.711428 0.618945 0.867087
O O8 0.174510 0.316845 0.000000
O O9 0.200794 0.489366 0.000000
#
# Coordination Sequence:
#
# PCOD9568819 Si02
#       6
#     8   4  16   8   8   8
#     4  11  24  39  61  95 122 156 215 263 304 369
#     4  10  24  38  48  94 140 162 192 238 306 380
#     4   9  21  40  58  86 124 164 210 251 303 375
#     4   9  20  37  58  84 129 173 194 237 320 374
#     4  10  20  39  66  82 119 169 200 255 316 373
#     4  11  24  36  59  91 136 168 201 249 304 387
#
# _framework density 20.061664
#
# number of rings (size 3 to 8) (size 9 to 14) (size 15 to 20)
#    0.000    2.154    0.000    2.769   12.923    0.000 
#    0.000    3.077    0.000    2.769    0.000    0.000 
#    0.000    0.000    0.000    0.000    0.000    0.000 
#
# Total GULP energy -289541.073306 kJ/mol
# GULP energy per Si atom -5568.097564 kJ/mol
# Density = 2.001600 g / cm^3
# Si number density = 20.061664 Si / 1000 Ang^3
#
#
#
# Elastic Constant Matrix: (Units=GPa)
#
#
# Indices 1 2 3 4 5 6 
#
# 1 52.2016 29.5394 44.9881 0.0000 0.0000 0.0000
# 2 29.5394 52.2012 44.9884 0.0000 0.0000 0.0000
# 3 44.9881 44.9884 206.2974 0.0000 0.0000 0.0000
# 4 0.0000 0.0000 0.0000 -398.6274 0.0000 0.0000
# 5 0.0000 0.0000 0.0000 0.0000 -392.2090 0.0000
# 6 0.0000 0.0000 0.0000 0.0000 0.0000 13.7628
#
#
#
# Elastic Compliance Matrix: (Units=1/GPa)
#
#
# Indices 1 2 3 4 5 6 
#
# 1 0.030112 -0.014014 -0.003511 0.000000 0.000000 0.000000
# 2 -0.014014 0.030113 -0.003511 0.000000 0.000000 0.000000
# 3 -0.003511 -0.003511 0.006379 0.000000 0.000000 0.000000
# 4 0.000000 0.000000 0.000000 -0.002509 0.000000 0.000000
# 5 0.000000 0.000000 0.000000 0.000000 -0.002550 0.000000
# 6 0.000000 0.000000 0.000000 0.000000 0.000000 0.072660
#
#
# Mechanical properties :
#
#
# Convention : Reuss Voigt Hill
#
# Bulk Modulus (GPa) = 40.76249 61.08134 50.92192
# Shear Modulus (GPa) = 27.10715 -142.66909 -57.78097
#
# Velocity S-wave (km/s) = 3.67984 -8.44214 -5.37254
# Velocity P-wave (km/s) = 6.19820 8.03202 3.61218
#
# Compressibility (1/GPa) = 0.02453236
#
# Stress axis : x y z
#
# Youngs Moduli (GPa) = 33.20908 33.20869 156.77634
#
# Poissons Ratio (x) = 0.46540 0.55037
# Poissons Ratio (y) = 0.46540 0.55039
# Poissons Ratio (z) = 0.11658 0.11658
#
# Static dielectric constant tensor:
#      x y z
#    x 1.738610 0.000000 0.000000 
#    y 0.000000 1.738620 0.000000 
#    z 0.000000 0.000000 1.644590 
# 
# From -- ./inp_files/717.got.cif
#   From: 2010.05.17/outbox.cif.g08.bks.cpg/sg135_1_cif.got.tgz:717.got - 2010.05.20 12:50:20.
