data_PCOD9568743
_publ_section_title
;
Structure prediction by ZEFSAII (Michael W. Deem and Ramdas Pophale) SiO2 
 PCOD9568743
Probable space group: P 42/M B C
;
_chemical_formula_sum "Si O2"
_cell_formula_units_Z 112
_cell_length_a 14.861139
_cell_length_b 14.861139
_cell_length_c 29.322294
_cell_angle_alpha 90.000000
_cell_angle_beta 90.000000
_cell_angle_gamma 90.000000
_cell_volume 6475.929862
_symmetry_space_group_name_H-M "P 42/M B C"
_symmetry_group_IT_number 135
_symmetry_cell_setting 'tetragonal'
loop_
_space_group_symop_operation_xyz
x,y,z
-y,x,1/2+z
-x,-y,z
y,-x,1/2+z
1/2+x,1/2-y,-z
1/2-x,1/2+y,-z
1/2+y,1/2+x,1/2-z
1/2-y,1/2-x,1/2-z
-x,-y,-z
y,-x,1/2-z
x,y,-z
-y,x,1/2-z
1/2-x,1/2+y,z
1/2+x,1/2-y,z
1/2-y,1/2-x,1/2+z
1/2+y,1/2+x,1/2+z
loop_
_atom_site_type_symbol
_atom_site_label
_atom_site_fract_x
_atom_site_fract_y
_atom_site_fract_z
Si Si1 0.954586 0.642633 0.948718
Si Si2 0.154180 0.713744 0.206316
Si Si3 0.181081 0.454915 0.735335
Si Si4 0.645743 0.951113 0.051060
Si Si5 0.726276 0.129965 0.362090
Si Si6 0.091012 0.765165 0.637829
Si Si7 0.714911 0.603794 0.825737
O O1 0.894963 0.551624 0.945078
O O2 0.928643 0.703173 0.906065
O O3 0.058230 0.612588 0.945269
O O4 0.939672 0.679738 0.000000
O O5 0.220750 0.720750 0.250000
O O6 0.192459 0.636843 0.172647
O O7 0.147415 0.812353 0.183046
O O8 0.060451 0.685787 0.228069
O O9 0.084346 0.415655 0.750000
O O10 0.211923 0.417007 0.686541
O O11 0.243993 0.421281 0.776371
O O12 0.714767 0.928472 0.090599
O O13 0.683743 0.941116 0.000000
O O14 0.827967 0.164406 0.365996
O O15 0.653622 0.211468 0.357904
O O16 0.995207 0.805657 0.654280
#
# Coordination Sequence:
#
# PCOD9568743 Si02
#       7
#    16  16  16  16  16  16  16
#     4   9  17  32  53  79 110 138 172 230 296 343
#     4  11  21  36  54  79 113 144 189 237 281 339
#     4  10  21  36  53  77 109 142 183 232 283 328
#     4   9  18  32  53  80 107 137 177 231 290 348
#     4  10  20  34  53  77 108 143 183 230 278 333
#     4  11  20  34  55  77 107 150 188 224 283 339
#     4  10  20  35  51  74 110 145 179 228 276 327
#
# _framework density 17.294813999999999
#
# number of rings (size 3 to 8) (size 9 to 14) (size 15 to 20)
#    0.000    2.000    2.857    3.857    0.000    0.857 
#    0.000    0.714    0.000    0.000    0.000    0.000 
#    0.000    7.429    0.000    0.000    0.000    0.000 
#
# Total GULP energy -623730.113324 kJ/mol
# GULP energy per Si atom -5569.018869 kJ/mol
# Density = 1.725545 g / cm^3
# Si number density = 17.294814 Si / 1000 Ang^3
#
#
#
# Elastic Constant Matrix: (Units=GPa)
#
#
# Indices 1 2 3 4 5 6 
#
# 1 82.1434 24.9797 38.8657 0.0000 0.0000 0.0000
# 2 24.9797 82.1438 38.8652 0.0000 0.0000 0.0000
# 3 38.8657 38.8652 127.5494 0.0000 0.0000 0.0000
# 4 0.0000 0.0000 0.0000 12.1777 0.0000 0.0000
# 5 0.0000 0.0000 0.0000 0.0000 12.1779 0.0000
# 6 0.0000 0.0000 0.0000 0.0000 0.0000 18.9296
#
#
#
# Elastic Compliance Matrix: (Units=1/GPa)
#
#
# Indices 1 2 3 4 5 6 
#
# 1 0.014739 -0.002754 -0.003652 0.000000 0.000000 0.000000
# 2 -0.002754 0.014739 -0.003652 0.000000 0.000000 0.000000
# 3 -0.003652 -0.003652 0.010066 0.000000 0.000000 0.000000
# 4 0.000000 0.000000 0.000000 0.082118 0.000000 0.000000
# 5 0.000000 0.000000 0.000000 0.000000 0.082116 0.000000
# 6 0.000000 0.000000 0.000000 0.000000 0.000000 0.052827
#
#
# Mechanical properties :
#
#
# Convention : Reuss Voigt Hill
#
# Bulk Modulus (GPa) = 51.47248 55.25086 53.36167
# Shear Modulus (GPa) = 17.65553 21.26542 19.46047
#
# Velocity S-wave (km/s) = 3.19855 3.51035 3.35807
# Velocity P-wave (km/s) = 6.59298 6.96031 6.77913
#
# Compressibility (1/GPa) = 0.01942786
#
# Stress axis : x y z
#
# Youngs Moduli (GPa) = 67.84573 67.84636 99.34775
#
# Poissons Ratio (x) = 0.18687 0.36282
# Poissons Ratio (y) = 0.18687 0.36281
# Poissons Ratio (z) = 0.24777 0.24777
#
# Static dielectric constant tensor:
#      x y z
#    x 1.594860 0.000000 0.000000 
#    y 0.000000 1.594860 0.000000 
#    z 0.000000 0.000000 1.598170 
# 
# From -- ./inp_files/6489.got.cif
#   From: 2010.05.17/outbox.cif.g08.bks.cpg/sg135_4_cif.got.tgz:6489.got - 2010.05.20 12:50:20.
