data_PCOD9568755
_publ_section_title
;
Structure prediction by ZEFSAII (Michael W. Deem and Ramdas Pophale) SiO2 
 PCOD9568755
Probable space group: P 42/M B C
;
_chemical_formula_sum "Si O2"
_cell_formula_units_Z 64
_cell_length_a 19.686340
_cell_length_b 19.686340
_cell_length_c 8.823664
_cell_angle_alpha 90.000000
_cell_angle_beta 90.000000
_cell_angle_gamma 90.000000
_cell_volume 3419.628477
_symmetry_space_group_name_H-M "P 42/M B C"
_symmetry_group_IT_number 135
_symmetry_cell_setting 'tetragonal'
loop_
_space_group_symop_operation_xyz
x,y,z
-y,x,1/2+z
-x,-y,z
y,-x,1/2+z
1/2+x,1/2-y,-z
1/2-x,1/2+y,-z
1/2+y,1/2+x,1/2-z
1/2-y,1/2-x,1/2-z
-x,-y,-z
y,-x,1/2-z
x,y,-z
-y,x,1/2-z
1/2-x,1/2+y,z
1/2+x,1/2-y,z
1/2-y,1/2-x,1/2+z
1/2+y,1/2+x,1/2+z
loop_
_atom_site_type_symbol
_atom_site_label
_atom_site_fract_x
_atom_site_fract_y
_atom_site_fract_z
Si Si1 0.200437 0.801941 0.819580
Si Si2 0.069900 0.273176 0.178901
Si Si3 0.768990 0.938075 0.824474
Si Si4 0.120796 0.520179 0.174699
O O1 0.235769 0.735769 0.750000
O O2 0.246757 0.864813 0.767040
O O3 0.125509 0.805736 0.749042
O O4 0.197668 0.798008 0.000000
O O5 0.007083 0.224424 0.227959
O O6 0.042957 0.346812 0.234488
O O7 0.081417 0.272883 0.000000
O O8 0.686518 0.929086 0.823370
O O9 0.788326 0.948054 0.000000
O O10 0.057653 0.557653 0.250000
O O11 0.107242 0.502565 0.000000
#
# Coordination Sequence:
#
# PCOD9568755 Si02
#       4
#    16  16  16  16
#     4  12  23  36  56  84 115 148 186 233 283 333
#     4  10  20  35  53  78 112 148 183 229 282 332
#     4   9  19  34  53  79 109 142 182 226 273 326
#     4   9  17  29  49  75 103 135 177 221 265 317
#
# _framework density 18.715484
#
# number of rings (size 3 to 8) (size 9 to 14) (size 15 to 20)
#    1.500    0.500    0.000    6.000    0.000    2.000 
#    0.000    0.000    0.000    1.500    0.000   10.500 
#    0.000    0.000    0.000    0.000    0.000    0.000 
#
# Total GULP energy -356670.120053 kJ/mol
# GULP energy per Si atom -5572.970626 kJ/mol
# Density = 1.867289 g / cm^3
# Si number density = 18.715484 Si / 1000 Ang^3
#
#
#
# Elastic Constant Matrix: (Units=GPa)
#
#
# Indices 1 2 3 4 5 6 
#
# 1 30.8816 21.5743 5.3316 0.0000 0.0000 0.0000
# 2 21.5743 30.8816 5.3316 0.0000 0.0000 0.0000
# 3 5.3316 5.3316 121.7498 0.0000 0.0000 0.0000
# 4 0.0000 0.0000 0.0000 25.0271 0.0000 0.0000
# 5 0.0000 0.0000 0.0000 0.0000 25.0271 0.0000
# 6 0.0000 0.0000 0.0000 0.0000 0.0000 39.6780
#
#
#
# Elastic Compliance Matrix: (Units=1/GPa)
#
#
# Indices 1 2 3 4 5 6 
#
# 1 0.063338 -0.044104 -0.000842 0.000000 0.000000 0.000000
# 2 -0.044104 0.063338 -0.000842 0.000000 0.000000 0.000000
# 3 -0.000842 -0.000842 0.008287 0.000000 0.000000 0.000000
# 4 0.000000 0.000000 0.000000 0.039957 0.000000 0.000000
# 5 0.000000 0.000000 0.000000 0.000000 0.039957 0.000000
# 6 0.000000 0.000000 0.000000 0.000000 0.000000 0.025203
#
#
# Mechanical properties :
#
#
# Convention : Reuss Voigt Hill
#
# Bulk Modulus (GPa) = 23.04795 27.55420 25.30107
# Shear Modulus (GPa) = 14.44587 28.03147 21.23867
#
# Velocity S-wave (km/s) = 2.78126 3.87430 3.37236
# Velocity P-wave (km/s) = 4.75978 5.89646 5.35835
#
# Compressibility (1/GPa) = 0.04338781
#
# Stress axis : x y z
#
# Youngs Moduli (GPa) = 15.78819 15.78819 120.66598
#
# Poissons Ratio (x) = 0.69632 0.10164
# Poissons Ratio (y) = 0.69632 0.10164
# Poissons Ratio (z) = 0.01330 0.01330
#
# Static dielectric constant tensor:
#      x y z
#    x 1.679310 0.000000 0.000000 
#    y 0.000000 1.679310 0.000000 
#    z 0.000000 0.000000 1.615000 
# 
# From -- ./inp_files/938.got.cif
#   From: 2010.05.17/outbox.cif.g08.bks.cpg/sg135_1_cif.got.tgz:938.got - 2010.05.20 12:50:20.
