data_PCOD9568587
_publ_section_title
;
Structure prediction by ZEFSAII (Michael W. Deem and Ramdas Pophale) SiO2 
 PCOD9568587
Probable space group: P 42/M B C
;
_chemical_formula_sum "Si O2"
_cell_formula_units_Z 88
_cell_length_a 13.670825
_cell_length_b 13.670825
_cell_length_c 23.510735
_cell_angle_alpha 90.000000
_cell_angle_beta 90.000000
_cell_angle_gamma 90.000000
_cell_volume 4393.955500
_symmetry_space_group_name_H-M "P 42/M B C"
_symmetry_group_IT_number 135
_symmetry_cell_setting 'tetragonal'
loop_
_space_group_symop_operation_xyz
x,y,z
-y,x,1/2+z
-x,-y,z
y,-x,1/2+z
1/2+x,1/2-y,-z
1/2-x,1/2+y,-z
1/2+y,1/2+x,1/2-z
1/2-y,1/2-x,1/2-z
-x,-y,-z
y,-x,1/2-z
x,y,-z
-y,x,1/2-z
1/2-x,1/2+y,z
1/2+x,1/2-y,z
1/2-y,1/2-x,1/2+z
1/2+y,1/2+x,1/2+z
loop_
_atom_site_type_symbol
_atom_site_label
_atom_site_fract_x
_atom_site_fract_y
_atom_site_fract_z
Si Si1 0.368323 0.744162 0.877223
Si Si2 0.717273 0.999993 0.000000
Si Si3 0.203791 0.634884 0.811655
Si Si4 0.594402 0.714391 0.880045
Si Si5 0.559815 0.245643 0.627100
Si Si6 0.393786 0.207964 0.000000
Si Si7 0.372431 0.783640 0.000000
O O1 0.302382 0.690056 0.831252
O O2 0.479158 0.708782 0.872083
O O3 0.342717 0.860085 0.873211
O O4 0.342073 0.725492 0.943567
O O5 0.653514 0.899899 0.000000
O O6 0.762353 0.008449 0.064750
O O7 0.665147 0.106007 0.000000
O O8 0.166826 0.666826 0.750000
O O9 0.123887 0.682272 0.853065
O O10 0.220621 0.522336 0.826635
O O11 0.658618 0.624346 0.857415
O O12 0.627675 0.727005 0.945060
O O13 0.511234 0.201393 0.000000
#
# Coordination Sequence:
#
# PCOD9568587 Si02
#       7
#    16   8  16  16  16   8   8
#     4   9  21  39  62  90 127 162 204 260 322 377
#     4  10  16  30  57  89 125 165 202 257 316 379
#     4  11  24  40  59  85 117 162 214 267 316 371
#     4  10  21  38  60  88 124 163 208 260 317 383
#     4  10  21  37  59  93 123 164 210 258 316 380
#     4  10  16  31  57  88 126 164 201 255 319 383
#     4   8  17  31  56  94 124 159 203 254 319 385
#
# _framework density 20.027514
#
# number of rings (size 3 to 8) (size 9 to 14) (size 15 to 20)
#    0.000    2.182    1.818    0.818    0.000    7.273 
#    0.000    0.909    0.000    8.727    0.000    0.000 
#    0.000    0.000    0.000    0.000    0.000    0.000 
#
# Total GULP energy -490016.095727 kJ/mol
# GULP energy per Si atom -5568.364724 kJ/mol
# Density = 1.998193 g / cm^3
# Si number density = 20.027514 Si / 1000 Ang^3
#
#
#
# Elastic Constant Matrix: (Units=GPa)
#
#
# Indices 1 2 3 4 5 6 
#
# 1 99.7452 18.4229 45.8782 0.0000 0.0000 0.0000
# 2 18.4229 99.7452 45.8782 0.0000 0.0000 0.0000
# 3 45.8782 45.8782 79.2075 0.0000 0.0000 0.0000
# 4 0.0000 0.0000 0.0000 27.6931 0.0000 0.0000
# 5 0.0000 0.0000 0.0000 0.0000 27.6931 0.0000
# 6 0.0000 0.0000 0.0000 0.0000 0.0000 11.0112
#
#
#
# Elastic Compliance Matrix: (Units=1/GPa)
#
#
# Indices 1 2 3 4 5 6 
#
# 1 0.013838 0.001541 -0.008908 0.000000 0.000000 0.000000
# 2 0.001541 0.013838 -0.008908 0.000000 0.000000 0.000000
# 3 -0.008908 -0.008908 0.022944 0.000000 0.000000 0.000000
# 4 0.000000 0.000000 0.000000 0.036110 0.000000 0.000000
# 5 0.000000 0.000000 0.000000 0.000000 0.036110 0.000000
# 6 0.000000 0.000000 0.000000 0.000000 0.000000 0.090817
#
#
# Mechanical properties :
#
#
# Convention : Reuss Voigt Hill
#
# Bulk Modulus (GPa) = 55.33647 55.45072 55.39360
# Shear Modulus (GPa) = 19.82312 24.51404 22.16858
#
# Velocity S-wave (km/s) = 3.14951 3.50239 3.33063
# Velocity P-wave (km/s) = 6.39657 6.64101 6.51994
#
# Compressibility (1/GPa) = 0.01807126
#
# Stress axis : x y z
#
# Youngs Moduli (GPa) = 72.26410 72.26410 43.58362
#
# Poissons Ratio (x) = -0.11139 0.38824
# Poissons Ratio (y) = -0.11139 0.38824
# Poissons Ratio (z) = 0.64373 0.64373
#
# Static dielectric constant tensor:
#      x y z
#    x 1.716340 0.000000 0.000000 
#    y 0.000000 1.716340 0.000000 
#    z 0.000000 0.000000 1.769620 
# 
# From -- ./inp_files/6054.got.cif
#   From: 2010.05.17/outbox.cif.g08.bks.cpg/sg135_4_cif.got.tgz:6054.got - 2010.05.20 12:50:20.
