data_PCOD9568832
_publ_section_title
;
Structure prediction by ZEFSAII (Michael W. Deem and Ramdas Pophale) SiO2 
 PCOD9568832
Probable space group: P 42/M B C
;
_chemical_formula_sum "Si O2"
_cell_formula_units_Z 64
_cell_length_a 11.845457
_cell_length_b 11.845457
_cell_length_c 20.880778
_cell_angle_alpha 90.000000
_cell_angle_beta 90.000000
_cell_angle_gamma 90.000000
_cell_volume 2929.883265
_symmetry_space_group_name_H-M "P 42/M B C"
_symmetry_group_IT_number 135
_symmetry_cell_setting 'tetragonal'
loop_
_space_group_symop_operation_xyz
x,y,z
-y,x,1/2+z
-x,-y,z
y,-x,1/2+z
1/2+x,1/2-y,-z
1/2-x,1/2+y,-z
1/2+y,1/2+x,1/2-z
1/2-y,1/2-x,1/2-z
-x,-y,-z
y,-x,1/2-z
x,y,-z
-y,x,1/2-z
1/2-x,1/2+y,z
1/2+x,1/2-y,z
1/2-y,1/2-x,1/2+z
1/2+y,1/2+x,1/2+z
loop_
_atom_site_type_symbol
_atom_site_label
_atom_site_fract_x
_atom_site_fract_y
_atom_site_fract_z
Si Si1 0.914585 0.185857 0.500000
Si Si2 0.588576 0.593930 0.357339
Si Si3 0.044501 0.339558 0.868431
Si Si4 0.155926 0.319701 0.500000
Si Si5 0.155104 0.554130 0.185293
O O1 0.917967 0.115141 0.565884
O O2 0.783754 0.237476 0.500000
O O3 0.035580 0.252803 0.500000
O O4 0.500000 0.500000 0.338215
O O5 0.714262 0.553837 0.342222
O O6 0.564345 0.713263 0.324729
O O7 0.111948 0.426914 0.823519
O O8 0.915078 0.379742 0.869879
O O9 0.103406 0.345430 0.936940
O O10 0.111201 0.611201 0.250000
#
# Coordination Sequence:
#
# PCOD9568832 Si02
#       5
#     8  16  16   8  16
#     4  10  21  41  69 109 155 194 238 310 376 451
#     4  11  25  44  73 108 149 188 242 299 372 445
#     4  10  23  43  69 103 140 184 244 300 366 432
#     4  10  20  40  72 106 144 197 241 308 377 449
#     4  11  25  45  71  95 142 191 242 299 358 426
#
# _framework density 21.843875000000001
#
# number of rings (size 3 to 8) (size 9 to 14) (size 15 to 20)
#    0.000    1.500    2.500    1.875    3.500    5.000 
#    0.000    0.000    0.000    0.000    0.000    0.000 
#    0.000    0.000    0.000    0.000    0.000    0.000 
#
# Total GULP energy -357561.425102 kJ/mol
# GULP energy per Si atom -5586.897267 kJ/mol
# Density = 2.179416 g / cm^3
# Si number density = 21.843875 Si / 1000 Ang^3
#
#
#
# Elastic Constant Matrix: (Units=GPa)
#
#
# Indices 1 2 3 4 5 6 
#
# 1 199.8855 113.1839 32.6655 0.0000 0.0000 0.0000
# 2 113.1839 199.8855 32.6655 0.0000 0.0000 0.0000
# 3 32.6655 32.6655 78.7940 0.0000 0.0000 0.0000
# 4 0.0000 0.0000 0.0000 57.5998 0.0000 0.0000
# 5 0.0000 0.0000 0.0000 0.0000 57.5998 0.0000
# 6 0.0000 0.0000 0.0000 0.0000 0.0000 25.0960
#
#
#
# Elastic Compliance Matrix: (Units=1/GPa)
#
#
# Indices 1 2 3 4 5 6 
#
# 1 0.007515 -0.004019 -0.001450 0.000000 0.000000 0.000000
# 2 -0.004019 0.007515 -0.001450 0.000000 0.000000 0.000000
# 3 -0.001450 -0.001450 0.013893 0.000000 0.000000 0.000000
# 4 0.000000 0.000000 0.000000 0.017361 0.000000 0.000000
# 5 0.000000 0.000000 0.000000 0.000000 0.017361 0.000000
# 6 0.000000 0.000000 0.000000 0.000000 0.000000 0.039847
#
#
# Mechanical properties :
#
#
# Convention : Reuss Voigt Hill
#
# Bulk Modulus (GPa) = 66.27711 92.84386 79.56048
# Shear Modulus (GPa) = 40.86369 48.06246 44.46307
#
# Velocity S-wave (km/s) = 4.32987 4.69579 4.51654
# Velocity P-wave (km/s) = 7.44340 8.48506 7.98124
#
# Compressibility (1/GPa) = 0.01508817
#
# Stress axis : x y z
#
# Youngs Moduli (GPa) = 133.06284 133.06284 71.97735
#
# Poissons Ratio (x) = 0.53472 0.10434
# Poissons Ratio (y) = 0.53472 0.10434
# Poissons Ratio (z) = 0.19289 0.19289
#
# Static dielectric constant tensor:
#      x y z
#    x 1.801050 0.000000 0.000000 
#    y 0.000000 1.801050 0.000000 
#    z 0.000000 0.000000 1.824550 
# 
# From -- ./inp_files/5945.got.cif
#   From: 2010.05.17/outbox.cif.g08.bks.cpg/sg135_3_cif.got.tgz:5945.got - 2010.05.20 12:50:20.
