data_PCOD9568210
_publ_section_title
;
Structure prediction by ZEFSAII (Michael W. Deem and Ramdas Pophale) SiO2 
 PCOD9568210
Probable space group: P 42/N N M
;
_chemical_formula_sum "Si O2"
_cell_formula_units_Z 80
_cell_length_a 11.642970
_cell_length_b 11.642970
_cell_length_c 27.432996
_cell_angle_alpha 90.000000
_cell_angle_beta 90.000000
_cell_angle_gamma 90.000000
_cell_volume 3718.782658
_symmetry_space_group_name_H-M "P 42/N N M"
_symmetry_group_IT_number 134
_space_group.IT_coordinate_system_code '2'
_symmetry_cell_setting 'tetragonal'
loop_
_space_group_symop_operation_xyz
x,y,z
1/2-y,x,1/2+z
1/2-x,1/2-y,z
y,1/2-x,1/2+z
x,1/2-y,1/2-z
1/2-x,y,1/2-z
y,x,-z
1/2-y,1/2-x,-z
-x,-y,-z
1/2+y,-x,1/2-z
1/2+x,1/2+y,-z
-y,1/2+x,1/2-z
-x,1/2+y,1/2+z
1/2+x,-y,1/2+z
-y,-x,z
1/2+y,1/2+x,z
loop_
_atom_site_type_symbol
_atom_site_label
_atom_site_fract_x
_atom_site_fract_y
_atom_site_fract_z
Si Si1 0.750105 0.436216 0.071183
Si Si2 0.265692 0.385021 0.844850
Si Si3 0.515972 0.680060 0.026109
Si Si4 0.690770 0.002984 0.637824
Si Si5 0.051444 0.364580 0.783456
O O1 0.624148 0.375853 0.075182
O O2 0.841712 0.341712 0.085562
O O3 0.760905 0.540543 0.107896
O O4 0.765886 0.467841 0.014495
O O5 0.250000 0.250000 0.853992
O O6 0.403290 0.390816 0.838850
O O7 0.176555 0.410643 0.801051
O O8 0.423367 0.576634 0.029773
O O9 0.530577 0.716254 0.081658
O O10 0.627673 0.627673 0.000000
O O11 0.807246 0.003236 0.668068
O O12 0.622005 0.122005 0.639518
O O13 0.064706 0.250000 0.750000
O O14 0.964036 0.464036 0.766106
#
# Coordination Sequence:
#
# PCOD9568210 Si02
#       5
#    16  16  16  16  16
#     4  10  19  33  58  91 126 165 208 255 303 352
#     4  10  21  37  59  86 118 157 197 242 301 374
#     4   9  16  30  55  86 124 165 204 240 284 351
#     4  10  20  36  63  93 120 159 207 252 297 355
#     4  11  25  44  63  85 116 156 200 253 314 367
#
# _framework density 21.512416999999999
#
# number of rings (size 3 to 8) (size 9 to 14) (size 15 to 20)
#    0.000    2.000    2.000    1.800    0.000    5.800 
#    0.000    9.000    0.000    6.000    0.000    0.000 
#    0.000   28.800    0.000    0.000    0.000    0.000 
#
# Total GULP energy -446006.274858 kJ/mol
# GULP energy per Si atom -5575.078436 kJ/mol
# Density = 2.146345 g / cm^3
# Si number density = 21.512417 Si / 1000 Ang^3
#
#
#
# Elastic Constant Matrix: (Units=GPa)
#
#
# Indices 1 2 3 4 5 6 
#
# 1 48.6909 15.0577 26.5512 0.0000 0.0000 0.0000
# 2 15.0577 48.6909 26.5512 0.0000 0.0000 0.0000
# 3 26.5512 26.5512 117.8404 0.0000 0.0000 0.0000
# 4 0.0000 0.0000 0.0000 34.8350 0.0000 0.0000
# 5 0.0000 0.0000 0.0000 0.0000 34.8350 0.0000
# 6 0.0000 0.0000 0.0000 0.0000 0.0000 24.0009
#
#
#
# Elastic Compliance Matrix: (Units=1/GPa)
#
#
# Indices 1 2 3 4 5 6 
#
# 1 0.024522 -0.005211 -0.004351 0.000000 0.000000 0.000000
# 2 -0.005211 0.024522 -0.004351 0.000000 0.000000 0.000000
# 3 -0.004351 -0.004351 0.010447 0.000000 0.000000 0.000000
# 4 0.000000 0.000000 0.000000 0.028707 0.000000 0.000000
# 5 0.000000 0.000000 0.000000 0.000000 0.028707 0.000000
# 6 0.000000 0.000000 0.000000 0.000000 0.000000 0.041665
#
#
# Mechanical properties :
#
#
# Convention : Reuss Voigt Hill
#
# Bulk Modulus (GPa) = 31.58101 39.06027 35.32064
# Shear Modulus (GPa) = 25.38722 28.53834 26.96278
#
# Velocity S-wave (km/s) = 3.43901 3.64620 3.54412
# Velocity P-wave (km/s) = 5.52099 5.99357 5.76213
#
# Compressibility (1/GPa) = 0.03166460
#
# Stress axis : x y z
#
# Youngs Moduli (GPa) = 40.78007 40.78007 95.72330
#
# Poissons Ratio (x) = 0.21249 0.41650
# Poissons Ratio (y) = 0.21249 0.41650
# Poissons Ratio (z) = 0.17744 0.17744
#
# Static dielectric constant tensor:
#      x y z
#    x 1.813050 0.000000 0.000000 
#    y 0.000000 1.813050 0.000000 
#    z 0.000000 0.000000 1.837190 
# 
# From -- ./inp_files/11331.got.cif
#   From: 2010.05.17/outbox.cif.g08.bks.cpg/sg134_6_cif.got.tgz:11331.got - 2010.05.20 12:42:49.
