data_PCOD9568801
_publ_section_title
;
Structure prediction by ZEFSAII (Michael W. Deem and Ramdas Pophale) SiO2 
 PCOD9568801
Probable space group: P 42/M B C
;
_chemical_formula_sum "Si O2"
_cell_formula_units_Z 80
_cell_length_a 12.346039
_cell_length_b 12.346039
_cell_length_c 20.561726
_cell_angle_alpha 90.000000
_cell_angle_beta 90.000000
_cell_angle_gamma 90.000000
_cell_volume 3134.114485
_symmetry_space_group_name_H-M "P 42/M B C"
_symmetry_group_IT_number 135
_symmetry_cell_setting 'tetragonal'
loop_
_space_group_symop_operation_xyz
x,y,z
-y,x,1/2+z
-x,-y,z
y,-x,1/2+z
1/2+x,1/2-y,-z
1/2-x,1/2+y,-z
1/2+y,1/2+x,1/2-z
1/2-y,1/2-x,1/2-z
-x,-y,-z
y,-x,1/2-z
x,y,-z
-y,x,1/2-z
1/2-x,1/2+y,z
1/2+x,1/2-y,z
1/2-y,1/2-x,1/2+z
1/2+y,1/2+x,1/2+z
loop_
_atom_site_type_symbol
_atom_site_label
_atom_site_fract_x
_atom_site_fract_y
_atom_site_fract_z
Si Si1 0.708480 0.077293 0.784427
Si Si2 0.636147 0.664459 0.326987
Si Si3 0.351636 0.151050 0.426602
Si Si4 0.028370 0.851813 0.925115
Si Si5 0.215601 0.403750 0.928214
O O1 0.592359 0.092359 0.750000
O O2 0.689366 0.128857 0.855017
O O3 0.791136 0.135230 0.734782
O O4 0.768544 0.965022 0.797661
O O5 0.677072 0.750604 0.380177
O O6 0.611435 0.556086 0.369862
O O7 0.318472 0.175171 0.500000
O O8 0.276301 0.049190 0.410149
O O9 0.480381 0.153051 0.428132
O O10 0.150480 0.903979 0.925601
O O11 0.987569 0.865648 0.000000
O O12 0.186647 0.358416 0.000000
#
# Coordination Sequence:
#
# PCOD9568801 Si02
#       5
#    16  16  16  16  16
#     4  11  24  41  64  96 132 174 224 285 352 420
#     4  11  23  40  65  96 135 183 233 290 360 434
#     4   9  19  36  61  95 135 180 234 300 363 423
#     4  10  20  37  66 101 135 180 244 306 357 421
#     4   9  19  37  61  91 131 181 236 296 360 427
#
# _framework density 25.525551
#
# number of rings (size 3 to 8) (size 9 to 14) (size 15 to 20)
#    0.000    2.000    0.000    3.000    0.000    7.600 
#    0.000   13.000    0.000   22.200    0.000   33.600 
#    0.000    0.000    0.000    0.000    0.000    0.000 
#
# Total GULP energy -445609.439622 kJ/mol
# GULP energy per Si atom -5570.117995 kJ/mol
# Density = 2.546745 g / cm^3
# Si number density = 25.525551 Si / 1000 Ang^3
#
#
#
# Elastic Constant Matrix: (Units=GPa)
#
#
# Indices 1 2 3 4 5 6 
#
# 1 77.0538 43.3676 45.3357 0.0000 0.0000 0.0000
# 2 43.3676 77.0538 45.3357 0.0000 0.0000 0.0000
# 3 45.3357 45.3357 173.0375 0.0000 0.0000 0.0000
# 4 0.0000 0.0000 0.0000 -53.5264 0.0000 0.0000
# 5 0.0000 0.0000 0.0000 0.0000 -53.5264 0.0000
# 6 0.0000 0.0000 0.0000 0.0000 0.0000 43.0231
#
#
#
# Elastic Compliance Matrix: (Units=1/GPa)
#
#
# Indices 1 2 3 4 5 6 
#
# 1 0.020015 -0.009670 -0.002710 0.000000 0.000000 0.000000
# 2 -0.009670 0.020015 -0.002710 0.000000 0.000000 0.000000
# 3 -0.002710 -0.002710 0.007199 0.000000 0.000000 0.000000
# 4 0.000000 0.000000 0.000000 -0.018682 0.000000 0.000000
# 5 0.000000 0.000000 0.000000 0.000000 -0.018682 0.000000
# 6 0.000000 0.000000 0.000000 0.000000 0.000000 0.023243
#
#
# Mechanical properties :
#
#
# Convention : Reuss Voigt Hill
#
# Bulk Modulus (GPa) = 58.65878 66.13589 62.39733
# Shear Modulus (GPa) = 72.49168 0.06781 36.27974
#
# Velocity S-wave (km/s) = 5.33491 0.16316 3.77412
# Velocity P-wave (km/s) = 7.80889 5.09916 6.59470
#
# Compressibility (1/GPa) = 0.01704775
#
# Stress axis : x y z
#
# Youngs Moduli (GPa) = 49.96168 49.96168 138.90200
#
# Poissons Ratio (x) = 0.48315 0.37648
# Poissons Ratio (y) = 0.48315 0.37648
# Poissons Ratio (z) = 0.13541 0.13541
#
# Static dielectric constant tensor:
#      x y z
#    x 2.252920 0.000000 0.000000 
#    y 0.000000 2.252920 0.000000 
#    z 0.000000 0.000000 2.022140 
# 
# From -- ./inp_files/5215.got.cif
#   From: 2010.05.17/outbox.cif.g08.bks.cpg/sg135_3_cif.got.tgz:5215.got - 2010.05.20 12:50:20.
