data_PCOD9568397
_publ_section_title
;
Structure prediction by ZEFSAII (Michael W. Deem and Ramdas Pophale) SiO2 
 PCOD9568397
Probable space group: P 42/N N M
;
_chemical_formula_sum "Si O2"
_cell_formula_units_Z 76
_cell_length_a 14.256097
_cell_length_b 14.256097
_cell_length_c 19.264572
_cell_angle_alpha 90.000000
_cell_angle_beta 90.000000
_cell_angle_gamma 90.000000
_cell_volume 3915.260367
_symmetry_space_group_name_H-M "P 42/N N M"
_symmetry_group_IT_number 134
_space_group.IT_coordinate_system_code '2'
_symmetry_cell_setting 'tetragonal'
loop_
_space_group_symop_operation_xyz
x,y,z
1/2-y,x,1/2+z
1/2-x,1/2-y,z
y,1/2-x,1/2+z
x,1/2-y,1/2-z
1/2-x,y,1/2-z
y,x,-z
1/2-y,1/2-x,-z
-x,-y,-z
1/2+y,-x,1/2-z
1/2+x,1/2+y,-z
-y,1/2+x,1/2-z
-x,1/2+y,1/2+z
1/2+x,-y,1/2+z
-y,-x,z
1/2+y,1/2+x,z
loop_
_atom_site_type_symbol
_atom_site_label
_atom_site_fract_x
_atom_site_fract_y
_atom_site_fract_z
Si Si1 0.601404 0.545984 0.290069
Si Si2 0.879964 0.879964 0.500000
Si Si3 0.750000 0.250000 0.427666
Si Si4 0.942295 0.904638 0.869166
Si Si5 0.641776 0.766309 0.140393
Si Si6 0.779281 0.473555 0.082487
O O1 0.500227 0.499774 0.302147
O O2 0.624987 0.530181 0.209713
O O3 0.602068 0.655603 0.307712
O O4 0.671505 0.494635 0.343245
O O5 0.814873 0.857615 0.565346
O O6 0.983484 0.852157 0.526658
O O7 0.752430 0.133913 0.426029
O O8 0.830487 0.913982 0.865750
O O9 0.967632 0.817511 0.918335
O O10 0.003360 0.996641 0.886215
O O11 0.750000 0.750000 0.160853
#
# Coordination Sequence:
#
# PCOD9568397 Si02
#       6
#    16   8   4  16  16  16
#     4  10  21  37  58  88 124 159 197 244 300 369
#     4  10  23  41  62  84 117 160 205 260 289 346
#     4  12  24  42  57  90 124 162 195 240 300 384
#     4  11  22  36  57  90 126 154 195 251 311 358
#     4  11  21  37  63  88 116 156 213 249 297 346
#     4  11  22  39  60  87 121 160 201 241 300 363
#
# _framework density 19.411225999999999
#
# number of rings (size 3 to 8) (size 9 to 14) (size 15 to 20)
#    0.000    1.263    6.316    1.579    0.000    1.263 
#    3.789    3.158    0.000    0.632    0.000    2.947 
#    0.000    0.000    0.000    0.000    0.000    0.000 
#
# Total GULP energy -423171.240171 kJ/mol
# GULP energy per Si atom -5568.042634 kJ/mol
# Density = 1.936705 g / cm^3
# Si number density = 19.411226 Si / 1000 Ang^3
#
#
#
# Elastic Constant Matrix: (Units=GPa)
#
#
# Indices 1 2 3 4 5 6 
#
# 1 132.2968 70.7210 9.9668 0.0000 0.0000 0.0000
# 2 70.7210 132.2968 9.9668 0.0000 0.0000 0.0000
# 3 9.9668 9.9668 31.3232 0.0000 0.0000 0.0000
# 4 0.0000 0.0000 0.0000 10.1151 0.0000 0.0000
# 5 0.0000 0.0000 0.0000 0.0000 10.1151 0.0000
# 6 0.0000 0.0000 0.0000 0.0000 0.0000 41.8324
#
#
#
# Elastic Compliance Matrix: (Units=1/GPa)
#
#
# Indices 1 2 3 4 5 6 
#
# 1 0.010662 -0.005578 -0.001618 0.000000 0.000000 0.000000
# 2 -0.005578 0.010662 -0.001618 0.000000 0.000000 0.000000
# 3 -0.001618 -0.001618 0.032955 0.000000 0.000000 0.000000
# 4 0.000000 0.000000 0.000000 0.098862 0.000000 0.000000
# 5 0.000000 0.000000 0.000000 0.000000 0.098862 0.000000
# 6 0.000000 0.000000 0.000000 0.000000 0.000000 0.023905
#
#
# Mechanical properties :
#
#
# Convention : Reuss Voigt Hill
#
# Bulk Modulus (GPa) = 27.28334 53.02513 40.15423
# Shear Modulus (GPa) = 16.35304 26.09665 21.22484
#
# Velocity S-wave (km/s) = 2.90565 3.67060 3.31029
# Velocity P-wave (km/s) = 5.03419 6.73353 5.94489
#
# Compressibility (1/GPa) = 0.03665241
#
# Stress axis : x y z
#
# Youngs Moduli (GPa) = 93.78798 93.78798 30.34459
#
# Poissons Ratio (x) = 0.52313 0.04909
# Poissons Ratio (y) = 0.52313 0.04909
# Poissons Ratio (z) = 0.15174 0.15174
#
# Static dielectric constant tensor:
#      x y z
#    x 1.686690 0.000000 0.000000 
#    y 0.000000 1.686690 0.000000 
#    z 0.000000 0.000000 1.711400 
# 
# From -- ./inp_files/8936.got.cif
#   From: 2010.05.17/outbox.cif.g08.bks.cpg/sg134_5_cif.got.tgz:8936.got - 2010.05.20 12:42:49.
