data_PCOD9568938
_publ_section_title
;
Structure prediction by ZEFSAII (Michael W. Deem and Ramdas Pophale) SiO2 
 PCOD9568938
Probable space group: P 42/M B C
;
_chemical_formula_sum "Si O2"
_cell_formula_units_Z 112
_cell_length_a 14.161444
_cell_length_b 14.161444
_cell_length_c 26.931344
_cell_angle_alpha 90.000000
_cell_angle_beta 90.000000
_cell_angle_gamma 90.000000
_cell_volume 5400.986676
_symmetry_space_group_name_H-M "P 42/M B C"
_symmetry_group_IT_number 135
_symmetry_cell_setting 'tetragonal'
loop_
_space_group_symop_operation_xyz
x,y,z
-y,x,1/2+z
-x,-y,z
y,-x,1/2+z
1/2+x,1/2-y,-z
1/2-x,1/2+y,-z
1/2+y,1/2+x,1/2-z
1/2-y,1/2-x,1/2-z
-x,-y,-z
y,-x,1/2-z
x,y,-z
-y,x,1/2-z
1/2-x,1/2+y,z
1/2+x,1/2-y,z
1/2-y,1/2-x,1/2+z
1/2+y,1/2+x,1/2+z
loop_
_atom_site_type_symbol
_atom_site_label
_atom_site_fract_x
_atom_site_fract_y
_atom_site_fract_z
Si Si1 0.047273 0.090317 0.118404
Si Si2 0.487465 0.360546 0.224599
Si Si3 0.155019 0.497535 0.236977
Si Si4 0.944061 0.719503 0.057097
Si Si5 0.003141 0.752589 0.370922
Si Si6 0.225742 0.835475 0.943517
Si Si7 0.130663 0.627863 0.558174
O O1 0.987586 0.110040 0.167633
O O2 0.047770 0.183250 0.085883
O O3 0.153427 0.065710 0.135376
O O4 0.000000 0.000000 0.092314
O O5 0.402799 0.416912 0.250963
O O6 0.487092 0.249152 0.230884
O O7 0.097668 0.402333 0.250000
O O8 0.195375 0.492182 0.180489
O O9 0.082748 0.582748 0.250000
O O10 0.837478 0.684853 0.058297
O O11 0.019418 0.642171 0.074888
O O12 0.970509 0.737627 0.000000
O O13 0.057309 0.685080 0.409350
O O14 0.908867 0.788647 0.399003
O O15 0.172735 0.735708 0.936705
O O16 0.202993 0.869986 0.000000
O O17 0.103623 0.633208 0.500000
#
# Coordination Sequence:
#
# PCOD9568938 Si02
#       7
#    16  16  16  16  16  16  16
#     4  12  23  40  68  97 125 167 220 271 327 394
#     4  11  22  46  68  96 130 165 215 279 333 396
#     4  11  28  46  63  96 133 171 224 279 331 391
#     4  10  23  40  62  95 133 173 210 261 326 385
#     4  12  24  42  67  98 125 179 221 263 340 389
#     4  10  22  41  64  95 135 169 213 269 323 393
#     4  10  22  41  65  99 137 172 219 269 321 398
#
# _framework density 20.736951999999999
#
# number of rings (size 3 to 8) (size 9 to 14) (size 15 to 20)
#    0.000    1.143    4.286    1.286    4.000    3.143 
#    0.000    2.143    0.000    0.000    0.000    0.000 
#    0.000    0.000    0.000    0.000    0.000    0.000 
#
# Total GULP energy -626076.066751 kJ/mol
# GULP energy per Si atom -5589.964882 kJ/mol
# Density = 2.068975 g / cm^3
# Si number density = 20.736952 Si / 1000 Ang^3
#
#
#
# Elastic Constant Matrix: (Units=GPa)
#
#
# Indices 1 2 3 4 5 6 
#
# 1 70.3307 -9.6179 -5.1891 0.0000 0.0000 0.0000
# 2 -9.6179 70.3317 -5.1901 0.0000 0.0000 0.0000
# 3 -5.1891 -5.1901 46.2668 0.0000 0.0000 0.0000
# 4 0.0000 0.0000 0.0000 23.7701 0.0000 0.0000
# 5 0.0000 0.0000 0.0000 0.0000 23.7705 0.0000
# 6 0.0000 0.0000 0.0000 0.0000 0.0000 25.0672
#
#
#
# Elastic Compliance Matrix: (Units=1/GPa)
#
#
# Indices 1 2 3 4 5 6 
#
# 1 0.014650 0.002142 0.001883 0.000000 0.000000 0.000000
# 2 0.002142 0.014650 0.001884 0.000000 0.000000 0.000000
# 3 0.001883 0.001884 0.022036 0.000000 0.000000 0.000000
# 4 0.000000 0.000000 0.000000 0.042070 0.000000 0.000000
# 5 0.000000 0.000000 0.000000 0.000000 0.042069 0.000000
# 6 0.000000 0.000000 0.000000 0.000000 0.000000 0.039893
#
#
# Mechanical properties :
#
#
# Convention : Reuss Voigt Hill
#
# Bulk Modulus (GPa) = 15.83369 16.32612 16.07991
# Shear Modulus (GPa) = 27.08539 28.31664 27.70101
#
# Velocity S-wave (km/s) = 3.61798 3.69930 3.65886
# Velocity P-wave (km/s) = 5.01050 5.11238 5.06170
#
# Compressibility (1/GPa) = 0.06315646
#
# Stress axis : x y z
#
# Youngs Moduli (GPa) = 68.25709 68.25783 45.37957
#
# Poissons Ratio (x) = -0.14624 -0.08547
# Poissons Ratio (y) = -0.14624 -0.08548
# Poissons Ratio (z) = -0.12856 -0.12858
#
# Static dielectric constant tensor:
#      x y z
#    x 1.744730 0.000000 0.000000 
#    y 0.000000 1.744720 0.000000 
#    z 0.000000 0.000000 1.745970 
# 
# From -- ./inp_files/6129.got.cif
#   From: 2010.05.17/outbox.cif.g08.bks.cpg/sg135_4_cif.got.tgz:6129.got - 2010.05.20 12:50:20.
