data_PCOD9568401
_publ_section_title
;
Structure prediction by ZEFSAII (Michael W. Deem and Ramdas Pophale) SiO2 
 PCOD9568401
Probable space group: P 42/N N M
;
_chemical_formula_sum "Si O2"
_cell_formula_units_Z 112
_cell_length_a 15.326397
_cell_length_b 15.326397
_cell_length_c 24.012822
_cell_angle_alpha 90.000000
_cell_angle_beta 90.000000
_cell_angle_gamma 90.000000
_cell_volume 5640.574548
_symmetry_space_group_name_H-M "P 42/N N M"
_symmetry_group_IT_number 134
_space_group.IT_coordinate_system_code '2'
_symmetry_cell_setting 'tetragonal'
loop_
_space_group_symop_operation_xyz
x,y,z
1/2-y,x,1/2+z
1/2-x,1/2-y,z
y,1/2-x,1/2+z
x,1/2-y,1/2-z
1/2-x,y,1/2-z
y,x,-z
1/2-y,1/2-x,-z
-x,-y,-z
1/2+y,-x,1/2-z
1/2+x,1/2+y,-z
-y,1/2+x,1/2-z
-x,1/2+y,1/2+z
1/2+x,-y,1/2+z
-y,-x,z
1/2+y,1/2+x,z
loop_
_atom_site_type_symbol
_atom_site_label
_atom_site_fract_x
_atom_site_fract_y
_atom_site_fract_z
Si Si1 0.474763 0.670601 0.286468
Si Si2 0.785767 0.990708 0.891253
Si Si3 0.485686 0.657903 0.590794
Si Si4 0.566603 0.286725 0.188196
Si Si5 0.571024 0.575072 0.197493
Si Si6 0.172011 0.189118 0.566116
Si Si7 0.754485 0.110549 0.991781
O O1 0.436918 0.750000 0.250000
O O2 0.407231 0.592770 0.289828
O O3 0.490567 0.710974 0.346097
O O4 0.559051 0.636596 0.251776
O O5 0.869843 0.962349 0.855557
O O6 0.749420 0.910439 0.925005
O O7 0.792402 0.066519 0.936400
O O8 0.436857 0.563144 0.588494
O O9 0.445782 0.709956 0.643453
O O10 0.591458 0.658911 0.591039
O O11 0.455281 0.712162 0.536103
O O12 0.583610 0.250000 0.250000
O O13 0.644215 0.355786 0.174075
O O14 0.473923 0.338230 0.189621
O O15 0.502784 0.497216 0.205951
O O16 0.250000 0.250000 0.589276
O O17 0.180796 0.180796 0.500000
O O18 0.831117 0.168884 0.018683
O O19 0.677401 0.177401 0.975715
#
# Coordination Sequence:
#
# PCOD9568401 Si02
#       7
#    16  16  16  16  16  16  16
#     4   9  19  34  56  85 121 161 201 253 306 364
#     4  11  20  37  61  87 120 162 207 247 303 367
#     4  11  24  42  64  92 125 162 203 256 314 368
#     4  11  24  42  65  91 119 158 204 256 312 370
#     4   9  20  39  59  85 121 158 202 251 303 362
#     4  11  24  42  63  90 126 164 206 254 303 366
#     4  10  21  37  59  90 125 160 202 254 311 372
#
# _framework density 19.856134999999998
#
# number of rings (size 3 to 8) (size 9 to 14) (size 15 to 20)
#    0.000    1.714    1.429    2.571    2.000    3.714 
#    0.000    0.000    0.000    3.429    0.000    0.000 
#    0.000    0.000    0.000    0.000    0.000    0.000 
#
# Total GULP energy -624577.423025 kJ/mol
# GULP energy per Si atom -5576.584134 kJ/mol
# Density = 1.981094 g / cm^3
# Si number density = 19.856135 Si / 1000 Ang^3
#
#
#
# Elastic Constant Matrix: (Units=GPa)
#
#
# Indices 1 2 3 4 5 6 
#
# 1 69.7285 19.4213 -4.7591 0.0000 0.0000 0.0000
# 2 19.4213 69.7285 -4.7591 0.0000 0.0000 0.0000
# 3 -4.7591 -4.7591 56.6129 0.0000 0.0000 0.0000
# 4 0.0000 0.0000 0.0000 -13.2682 0.0000 0.0000
# 5 0.0000 0.0000 0.0000 0.0000 -13.2682 0.0000
# 6 0.0000 0.0000 0.0000 0.0000 0.0000 22.1001
#
#
#
# Elastic Compliance Matrix: (Units=1/GPa)
#
#
# Indices 1 2 3 4 5 6 
#
# 1 0.015598 -0.004280 0.000951 0.000000 0.000000 0.000000
# 2 -0.004280 0.015598 0.000951 0.000000 0.000000 0.000000
# 3 0.000951 0.000951 0.017824 0.000000 0.000000 0.000000
# 4 0.000000 0.000000 0.000000 -0.075368 0.000000 0.000000
# 5 0.000000 0.000000 0.000000 0.000000 -0.075368 0.000000
# 6 0.000000 0.000000 0.000000 0.000000 0.000000 0.045249
#
#
# Mechanical properties :
#
#
# Convention : Reuss Voigt Hill
#
# Bulk Modulus (GPa) = 22.59017 23.98625 23.28821
# Shear Modulus (GPa) = -135.28890 11.52385 -61.88253
#
# Velocity S-wave (km/s) = -8.26332 2.41169 -5.58866
# Velocity P-wave (km/s) = 8.92422 4.45660 5.46719
#
# Compressibility (1/GPa) = 0.04426704
#
# Stress axis : x y z
#
# Youngs Moduli (GPa) = 64.10966 64.10966 56.10483
#
# Poissons Ratio (x) = 0.27436 -0.05338
# Poissons Ratio (y) = 0.27436 -0.05338
# Poissons Ratio (z) = -0.06100 -0.06100
#
# Static dielectric constant tensor:
#      x y z
#    x 1.780820 0.000000 0.000000 
#    y 0.000000 1.780820 0.000000 
#    z 0.000000 0.000000 1.530820 
# 
# From -- ./inp_files/10103.got.cif
#   From: 2010.05.17/outbox.cif.g08.bks.cpg/sg134_6_cif.got.tgz:10103.got - 2010.05.20 12:42:49.
