data_PCOD9568947
_publ_section_title
;
Structure prediction by ZEFSAII (Michael W. Deem and Ramdas Pophale) SiO2 
 PCOD9568947
Probable space group: P 42/M B C
;
_chemical_formula_sum "Si O2"
_cell_formula_units_Z 60
_cell_length_a 16.718852
_cell_length_b 16.718852
_cell_length_c 10.319475
_cell_angle_alpha 90.000000
_cell_angle_beta 90.000000
_cell_angle_gamma 90.000000
_cell_volume 2884.499778
_symmetry_space_group_name_H-M "P 42/M B C"
_symmetry_group_IT_number 135
_symmetry_cell_setting 'tetragonal'
loop_
_space_group_symop_operation_xyz
x,y,z
-y,x,1/2+z
-x,-y,z
y,-x,1/2+z
1/2+x,1/2-y,-z
1/2-x,1/2+y,-z
1/2+y,1/2+x,1/2-z
1/2-y,1/2-x,1/2-z
-x,-y,-z
y,-x,1/2-z
x,y,-z
-y,x,1/2-z
1/2-x,1/2+y,z
1/2+x,1/2-y,z
1/2-y,1/2-x,1/2+z
1/2+y,1/2+x,1/2+z
loop_
_atom_site_type_symbol
_atom_site_label
_atom_site_fract_x
_atom_site_fract_y
_atom_site_fract_z
Si Si1 0.552903 0.217447 0.500000
Si Si2 0.760883 0.009553 0.500000
Si Si3 0.273838 0.226163 0.250000
Si Si4 0.500000 0.500000 0.250000
Si Si5 0.552223 0.819423 0.251783
Si Si6 0.275582 0.819364 0.500000
Si Si7 0.075153 0.091572 0.500000
O O1 0.500972 0.197172 0.374975
O O2 0.630902 0.161863 0.500000
O O3 0.576294 0.311853 0.500000
O O4 0.780816 0.103404 0.500000
O O5 0.706139 0.993322 0.375957
O O6 0.838876 0.953231 0.500000
O O7 0.369069 0.236841 0.254527
O O8 0.238966 0.266121 0.375358
O O9 0.534388 0.436655 0.360152
O O10 0.592477 0.907524 0.250000
#
# Coordination Sequence:
#
# PCOD9568947 Si02
#       7
#     8   8   8   4  16   8   8
#     4  12  23  42  68 103 130 176 225 293 330 406
#     4  12  24  42  61  97 132 173 223 284 335 398
#     4  10  22  42  68  91 127 184 230 270 334 412
#     4  10  24  42  56 102 124 190 204 278 364 402
#     4  10  23  42  69  92 130 172 231 270 343 402
#     4  12  25  40  66 101 134 174 233 282 332 405
#     4  11  24  40  68  89 144 167 229 274 347 409
#
# _framework density 20.800836
#
# number of rings (size 3 to 8) (size 9 to 14) (size 15 to 20)
#    0.800    0.267    0.000    7.200    0.000    6.400 
#    0.000    4.000    0.000    0.000    0.000    0.000 
#    0.000    0.000    0.000    0.000    0.000    0.000 
#
# Total GULP energy -334696.562150 kJ/mol
# GULP energy per Si atom -5578.276036 kJ/mol
# Density = 2.075349 g / cm^3
# Si number density = 20.800836 Si / 1000 Ang^3
#
#
#
# Elastic Constant Matrix: (Units=GPa)
#
#
# Indices 1 2 3 4 5 6 
#
# 1 95.4294 6.2678 35.2478 0.0000 0.0000 0.0000
# 2 6.2678 95.4271 35.2475 0.0000 0.0000 0.0000
# 3 35.2478 35.2475 196.2773 0.0000 0.0000 0.0000
# 4 0.0000 0.0000 0.0000 -48.5833 0.0000 0.0000
# 5 0.0000 0.0000 0.0000 0.0000 -48.5422 0.0000
# 6 0.0000 0.0000 0.0000 0.0000 0.0000 39.5577
#
#
#
# Elastic Compliance Matrix: (Units=1/GPa)
#
#
# Indices 1 2 3 4 5 6 
#
# 1 0.011223 0.000008 -0.002017 0.000000 0.000000 0.000000
# 2 0.000008 0.011224 -0.002017 0.000000 0.000000 0.000000
# 3 -0.002017 -0.002017 0.005819 0.000000 0.000000 0.000000
# 4 0.000000 0.000000 0.000000 -0.020583 0.000000 0.000000
# 5 0.000000 0.000000 0.000000 0.000000 -0.020601 0.000000
# 6 0.000000 0.000000 0.000000 0.000000 0.000000 0.025280
#
#
# Mechanical properties :
#
#
# Convention : Reuss Voigt Hill
#
# Bulk Modulus (GPa) = 49.47015 60.07333 54.77174
# Shear Modulus (GPa) = 184.14687 9.17782 96.66235
#
# Velocity S-wave (km/s) = 9.41917 2.10281 6.82432
# Velocity P-wave (km/s) = 11.92178 5.90243 9.40658
#
# Compressibility (1/GPa) = 0.02021421
#
# Stress axis : x y z
#
# Youngs Moduli (GPa) = 89.09948 89.09726 171.84377
#
# Poissons Ratio (x) = -0.00070 0.34660
# Poissons Ratio (y) = -0.00070 0.34660
# Poissons Ratio (z) = 0.17971 0.17971
#
# Static dielectric constant tensor:
#      x y z
#    x 1.765080 0.000000 0.000000 
#    y 0.000000 1.765090 0.000000 
#    z 0.000000 0.000000 1.720940 
# 
# From -- ./inp_files/828.got.cif
#   From: 2010.05.17/outbox.cif.g08.bks.cpg/sg135_1_cif.got.tgz:828.got - 2010.05.20 12:50:20.
