data_PCOD9568998
_publ_section_title
;
Structure prediction by ZEFSAII (Michael W. Deem and Ramdas Pophale) SiO2 
 PCOD9568998
Probable space group: P 42/M B C
;
_chemical_formula_sum "Si O2"
_cell_formula_units_Z 96
_cell_length_a 14.965656
_cell_length_b 14.965656
_cell_length_c 20.691820
_cell_angle_alpha 90.000000
_cell_angle_beta 90.000000
_cell_angle_gamma 90.000000
_cell_volume 4634.364710
_symmetry_space_group_name_H-M "P 42/M B C"
_symmetry_group_IT_number 135
_symmetry_cell_setting 'tetragonal'
loop_
_space_group_symop_operation_xyz
x,y,z
-y,x,1/2+z
-x,-y,z
y,-x,1/2+z
1/2+x,1/2-y,-z
1/2-x,1/2+y,-z
1/2+y,1/2+x,1/2-z
1/2-y,1/2-x,1/2-z
-x,-y,-z
y,-x,1/2-z
x,y,-z
-y,x,1/2-z
1/2-x,1/2+y,z
1/2+x,1/2-y,z
1/2-y,1/2-x,1/2+z
1/2+y,1/2+x,1/2+z
loop_
_atom_site_type_symbol
_atom_site_label
_atom_site_fract_x
_atom_site_fract_y
_atom_site_fract_z
Si Si1 0.723832 0.160441 0.683186
Si Si2 0.654204 0.853124 0.073408
Si Si3 0.764774 0.455498 0.687839
Si Si4 0.763173 0.155224 0.931859
Si Si5 0.779430 0.921998 0.172437
Si Si6 0.435116 0.583232 0.363661
O O1 0.711262 0.211262 0.750000
O O2 0.656084 0.201473 0.630940
O O3 0.827449 0.170791 0.663805
O O4 0.707683 0.057409 0.692809
O O5 0.585315 0.823188 0.129558
O O6 0.707259 0.759267 0.065983
O O7 0.716642 0.926287 0.108975
O O8 0.624929 0.877134 0.000000
O O9 0.772836 0.416968 0.760008
O O10 0.658855 0.444108 0.669407
O O11 0.852693 0.097556 0.921635
O O12 0.719339 0.132085 0.000000
O O13 0.849715 0.002738 0.177818
O O14 0.500000 0.500000 0.379559
#
# Coordination Sequence:
#
# PCOD9568998 Si02
#       6
#    16  16  16  16  16  16
#     4  11  21  37  58  87 123 169 211 253 317 385
#     4   9  20  38  58  81 116 166 213 254 307 380
#     4  11  21  36  60  91 124 159 209 263 312 371
#     4   9  20  38  56  79 122 171 209 248 309 386
#     4  11  20  35  58  90 128 162 204 257 324 387
#     4  11  22  35  58  98 129 157 196 261 326 370
#
# _framework density 20.714815000000002
#
# number of rings (size 3 to 8) (size 9 to 14) (size 15 to 20)
#    0.000    1.667    1.667    5.500    0.000    1.667 
#    0.000    0.000    0.000    7.000    0.000    5.833 
#    0.000    0.000    0.000    0.000    0.000    0.000 
#
# Total GULP energy -534880.255822 kJ/mol
# GULP energy per Si atom -5571.669331 kJ/mol
# Density = 2.066767 g / cm^3
# Si number density = 20.714815 Si / 1000 Ang^3
#
#
#
# Elastic Constant Matrix: (Units=GPa)
#
#
# Indices 1 2 3 4 5 6 
#
# 1 41.1421 28.2333 19.6485 0.0000 0.0000 0.0000
# 2 28.2333 41.1421 19.6485 0.0000 0.0000 0.0000
# 3 19.6485 19.6485 131.2394 0.0000 0.0000 0.0000
# 4 0.0000 0.0000 0.0000 -5.6370 0.0000 0.0000
# 5 0.0000 0.0000 0.0000 0.0000 -5.6370 0.0000
# 6 0.0000 0.0000 0.0000 0.0000 0.0000 32.2997
#
#
#
# Elastic Compliance Matrix: (Units=1/GPa)
#
#
# Indices 1 2 3 4 5 6 
#
# 1 0.046608 -0.030858 -0.002358 0.000000 0.000000 0.000000
# 2 -0.030858 0.046608 -0.002358 0.000000 0.000000 0.000000
# 3 -0.002358 -0.002358 0.008326 0.000000 0.000000 0.000000
# 4 0.000000 0.000000 0.000000 -0.177400 0.000000 0.000000
# 5 0.000000 0.000000 0.000000 0.000000 -0.177400 0.000000
# 6 0.000000 0.000000 0.000000 0.000000 0.000000 0.030960
#
#
# Mechanical properties :
#
#
# Convention : Reuss Voigt Hill
#
# Bulk Modulus (GPa) = 32.90159 38.73158 35.81658
# Shear Modulus (GPa) = -35.45657 13.93804 -10.75927
#
# Velocity S-wave (km/s) = -4.14170 2.59676 -2.28151
# Velocity P-wave (km/s) = 2.63704 5.26583 3.22296
#
# Compressibility (1/GPa) = 0.03039367
#
# Stress axis : x y z
#
# Youngs Moduli (GPa) = 21.45538 21.45538 120.10973
#
# Poissons Ratio (x) = 0.66208 0.28322
# Poissons Ratio (y) = 0.66208 0.28322
# Poissons Ratio (z) = 0.05059 0.05059
#
# Static dielectric constant tensor:
#      x y z
#    x 1.762260 0.000000 0.000000 
#    y 0.000000 1.762260 0.000000 
#    z 0.000000 0.000000 1.829460 
# 
# From -- ./inp_files/5443.got.cif
#   From: 2010.05.17/outbox.cif.g08.bks.cpg/sg135_3_cif.got.tgz:5443.got - 2010.05.20 12:50:20.
