data_PCOD9568742
_publ_section_title
;
Structure prediction by ZEFSAII (Michael W. Deem and Ramdas Pophale) SiO2 
 PCOD9568742
Probable space group: P 42/M B C
;
_chemical_formula_sum "Si O2"
_cell_formula_units_Z 96
_cell_length_a 24.875826
_cell_length_b 24.875826
_cell_length_c 7.940887
_cell_angle_alpha 90.000000
_cell_angle_beta 90.000000
_cell_angle_gamma 90.000000
_cell_volume 4913.874232
_symmetry_space_group_name_H-M "P 42/M B C"
_symmetry_group_IT_number 135
_symmetry_cell_setting 'tetragonal'
loop_
_space_group_symop_operation_xyz
x,y,z
-y,x,1/2+z
-x,-y,z
y,-x,1/2+z
1/2+x,1/2-y,-z
1/2-x,1/2+y,-z
1/2+y,1/2+x,1/2-z
1/2-y,1/2-x,1/2-z
-x,-y,-z
y,-x,1/2-z
x,y,-z
-y,x,1/2-z
1/2-x,1/2+y,z
1/2+x,1/2-y,z
1/2-y,1/2-x,1/2+z
1/2+y,1/2+x,1/2+z
loop_
_atom_site_type_symbol
_atom_site_label
_atom_site_fract_x
_atom_site_fract_y
_atom_site_fract_z
Si Si1 0.066533 0.945082 0.801453
Si Si2 0.852536 0.853661 0.699986
Si Si3 0.231504 0.353344 0.298264
Si Si4 0.768285 0.353036 0.703400
Si Si5 0.855996 0.560270 0.702784
Si Si6 0.939393 0.355385 0.202919
O O1 0.107385 0.899594 0.733559
O O2 0.004279 0.927793 0.778395
O O3 0.076619 0.952014 0.000000
O O4 0.850235 0.864531 0.500000
O O5 0.862677 0.790568 0.726845
O O6 0.792011 0.861552 0.768435
O O7 0.202777 0.297224 0.250000
O O8 0.234895 0.355221 0.500000
O O9 0.191043 0.399969 0.236581
O O10 0.796927 0.296927 0.750000
O O11 0.766527 0.354651 0.500000
O O12 0.808077 0.400047 0.764548
O O13 0.911895 0.588106 0.750000
O O14 0.852466 0.559103 0.500000
O O15 0.850896 0.499864 0.766820
O O16 0.911048 0.411048 0.250000
O O17 0.940668 0.351793 0.000000
#
# Coordination Sequence:
#
# PCOD9568742 Si02
#       6
#    16  16  16  16  16  16
#     4  10  21  38  58  79 106 138 172 214 263 314
#     4  10  21  35  54  80 105 133 171 213 256 307
#     4  10  20  34  53  76 105 139 173 212 258 308
#     4   9  18  33  51  72 101 133 165 205 252 300
#     4   9  19  34  51  72  99 133 170 208 251 297
#     4   9  18  33  51  71  97 130 168 207 249 297
#
# _framework density 19.536521
#
# number of rings (size 3 to 8) (size 9 to 14) (size 15 to 20)
#    0.000    2.500    0.000    2.000    0.000    6.333 
#    0.000    5.000    0.000    4.000    0.000    0.000 
#    0.000    0.000    0.000    0.000    0.000    0.000 
#
# Total GULP energy -535556.178908 kJ/mol
# GULP energy per Si atom -5578.710197 kJ/mol
# Density = 1.949206 g / cm^3
# Si number density = 19.536521 Si / 1000 Ang^3
#
#
#
# Elastic Constant Matrix: (Units=GPa)
#
#
# Indices 1 2 3 4 5 6 
#
# 1 162.1561 56.3802 -8.8326 0.0000 0.0000 0.0000
# 2 56.3802 162.1908 -8.8296 0.0000 0.0000 0.0000
# 3 -8.8326 -8.8296 12.1899 0.0000 0.0000 0.0000
# 4 0.0000 0.0000 0.0000 21.3523 0.0000 0.0000
# 5 0.0000 0.0000 0.0000 0.0000 21.3507 0.0000
# 6 0.0000 0.0000 0.0000 0.0000 0.0000 29.4865
#
#
#
# Elastic Compliance Matrix: (Units=1/GPa)
#
#
# Indices 1 2 3 4 5 6 
#
# 1 0.007157 -0.002296 0.003523 0.000000 0.000000 0.000000
# 2 -0.002296 0.007155 0.003519 0.000000 0.000000 0.000000
# 3 0.003523 0.003519 0.087136 0.000000 0.000000 0.000000
# 4 0.000000 0.000000 0.000000 0.046833 0.000000 0.000000
# 5 0.000000 0.000000 0.000000 0.000000 0.046837 0.000000
# 6 0.000000 0.000000 0.000000 0.000000 0.000000 0.033914
#
#
# Mechanical properties :
#
#
# Convention : Reuss Voigt Hill
#
# Bulk Modulus (GPa) = 9.01386 45.99696 27.50541
# Shear Modulus (GPa) = 19.49155 34.29251 26.89203
#
# Velocity S-wave (km/s) = 3.16206 4.19418 3.71415
# Velocity P-wave (km/s) = 4.23738 6.85930 5.70112
#
# Compressibility (1/GPa) = 0.11094028
#
# Stress axis : x y z
#
# Youngs Moduli (GPa) = 139.72073 139.75577 11.47626
#
# Poissons Ratio (x) = 0.32090 -0.04043
# Poissons Ratio (y) = 0.32082 -0.04039
# Poissons Ratio (z) = -0.49220 -0.49182
#
# Static dielectric constant tensor:
#      x y z
#    x 1.682150 0.000000 0.000000 
#    y 0.000000 1.682150 0.000000 
#    z 0.000000 0.000000 1.707060 
# 
# From -- ./inp_files/1231.got.cif
#   From: 2010.05.17/outbox.cif.g08.bks.cpg/sg135_1_cif.got.tgz:1231.got - 2010.05.20 12:50:20.
