data_PCOD9568799
_publ_section_title
;
Structure prediction by ZEFSAII (Michael W. Deem and Ramdas Pophale) SiO2 
 PCOD9568799
Probable space group: P 42/M B C
;
_chemical_formula_sum "Si O2"
_cell_formula_units_Z 96
_cell_length_a 16.165572
_cell_length_b 16.165572
_cell_length_c 18.396843
_cell_angle_alpha 90.000000
_cell_angle_beta 90.000000
_cell_angle_gamma 90.000000
_cell_volume 4807.568208
_symmetry_space_group_name_H-M "P 42/M B C"
_symmetry_group_IT_number 135
_symmetry_cell_setting 'tetragonal'
loop_
_space_group_symop_operation_xyz
x,y,z
-y,x,1/2+z
-x,-y,z
y,-x,1/2+z
1/2+x,1/2-y,-z
1/2-x,1/2+y,-z
1/2+y,1/2+x,1/2-z
1/2-y,1/2-x,1/2-z
-x,-y,-z
y,-x,1/2-z
x,y,-z
-y,x,1/2-z
1/2-x,1/2+y,z
1/2+x,1/2-y,z
1/2-y,1/2-x,1/2+z
1/2+y,1/2+x,1/2+z
loop_
_atom_site_type_symbol
_atom_site_label
_atom_site_fract_x
_atom_site_fract_y
_atom_site_fract_z
Si Si1 0.596306 0.977907 0.414642
Si Si2 0.863105 0.161586 0.585068
Si Si3 0.386617 0.444124 0.717773
Si Si4 0.820654 0.393308 0.183683
Si Si5 0.665354 0.155142 0.417307
Si Si6 0.291333 0.920131 0.216287
O O1 0.608293 0.959602 0.500000
O O2 0.619777 0.899977 0.366976
O O3 0.500000 0.000000 0.403459
O O4 0.646745 0.060210 0.395909
O O5 0.889100 0.161276 0.500000
O O6 0.892269 0.083045 0.633416
O O7 0.890534 0.240299 0.632858
O O8 0.763260 0.166715 0.585510
O O9 0.399254 0.540699 0.736337
O O10 0.296604 0.417057 0.744820
O O11 0.828194 0.328194 0.250000
O O12 0.823782 0.486088 0.215981
O O13 0.636413 0.164171 0.500000
O O14 0.612997 0.214649 0.366076
O O15 0.356939 0.856939 0.250000
#
# Coordination Sequence:
#
# PCOD9568799 Si02
#       6
#    16  16  16  16  16  16
#     4  10  20  37  61  92 135 175 218 276 342 412
#     4  11  25  47  69  95 137 182 230 285 345 410
#     4  11  25  47  70  98 128 173 227 284 343 404
#     4  12  26  38  64 104 135 179 227 281 340 415
#     4  10  22  39  62  93 133 180 222 276 343 406
#     4  12  23  40  67  97 138 176 222 280 339 413
#
# _framework density 19.968513999999999
#
# number of rings (size 3 to 8) (size 9 to 14) (size 15 to 20)
#    0.000    1.000    5.000    1.500    2.333    0.667 
#    0.000    2.500    0.000    0.000    0.000    0.000 
#    0.000    0.000    0.000    0.000    0.000    0.000 
#
# Total GULP energy -536413.348414 kJ/mol
# GULP energy per Si atom -5587.639046 kJ/mol
# Density = 1.992306 g / cm^3
# Si number density = 19.968514 Si / 1000 Ang^3
#
#
#
# Elastic Constant Matrix: (Units=GPa)
#
#
# Indices 1 2 3 4 5 6 
#
# 1 72.0524 23.5006 34.2139 0.0000 0.0000 0.0000
# 2 23.5006 72.0524 34.2139 0.0000 0.0000 0.0000
# 3 34.2139 34.2139 128.5260 0.0000 0.0000 0.0000
# 4 0.0000 0.0000 0.0000 23.9435 0.0000 0.0000
# 5 0.0000 0.0000 0.0000 0.0000 23.9435 0.0000
# 6 0.0000 0.0000 0.0000 0.0000 0.0000 18.5457
#
#
#
# Elastic Compliance Matrix: (Units=1/GPa)
#
#
# Indices 1 2 3 4 5 6 
#
# 1 0.016763 -0.003833 -0.003442 0.000000 0.000000 0.000000
# 2 -0.003833 0.016763 -0.003442 0.000000 0.000000 0.000000
# 3 -0.003442 -0.003442 0.009613 0.000000 0.000000 0.000000
# 4 0.000000 0.000000 0.000000 0.041765 0.000000 0.000000
# 5 0.000000 0.000000 0.000000 0.000000 0.041765 0.000000
# 6 0.000000 0.000000 0.000000 0.000000 0.000000 0.053921
#
#
# Mechanical properties :
#
#
# Convention : Reuss Voigt Hill
#
# Bulk Modulus (GPa) = 46.07135 50.72086 48.39610
# Shear Modulus (GPa) = 23.89364 25.33335 24.61349
#
# Velocity S-wave (km/s) = 3.46289 3.56570 3.51467
# Velocity P-wave (km/s) = 6.25387 6.51213 6.38431
#
# Compressibility (1/GPa) = 0.02170546
#
# Stress axis : x y z
#
# Youngs Moduli (GPa) = 59.65352 59.65352 104.02464
#
# Poissons Ratio (x) = 0.22866 0.35806
# Poissons Ratio (y) = 0.22866 0.35806
# Poissons Ratio (z) = 0.20533 0.20533
#
# Static dielectric constant tensor:
#      x y z
#    x 1.694110 0.000000 0.000000 
#    y 0.000000 1.694110 0.000000 
#    z 0.000000 0.000000 1.762170 
# 
# From -- ./inp_files/5485.got.cif
#   From: 2010.05.17/outbox.cif.g08.bks.cpg/sg135_3_cif.got.tgz:5485.got - 2010.05.20 12:50:20.
