data_PCOD9568884
_publ_section_title
;
Structure prediction by ZEFSAII (Michael W. Deem and Ramdas Pophale) SiO2 
 PCOD9568884
Probable space group: P 42/M B C
;
_chemical_formula_sum "Si O2"
_cell_formula_units_Z 112
_cell_length_a 14.261969
_cell_length_b 14.261969
_cell_length_c 24.188990
_cell_angle_alpha 90.000000
_cell_angle_beta 90.000000
_cell_angle_gamma 90.000000
_cell_volume 4920.131511
_symmetry_space_group_name_H-M "P 42/M B C"
_symmetry_group_IT_number 135
_symmetry_cell_setting 'tetragonal'
loop_
_space_group_symop_operation_xyz
x,y,z
-y,x,1/2+z
-x,-y,z
y,-x,1/2+z
1/2+x,1/2-y,-z
1/2-x,1/2+y,-z
1/2+y,1/2+x,1/2-z
1/2-y,1/2-x,1/2-z
-x,-y,-z
y,-x,1/2-z
x,y,-z
-y,x,1/2-z
1/2-x,1/2+y,z
1/2+x,1/2-y,z
1/2-y,1/2-x,1/2+z
1/2+y,1/2+x,1/2+z
loop_
_atom_site_type_symbol
_atom_site_label
_atom_site_fract_x
_atom_site_fract_y
_atom_site_fract_z
Si Si1 0.350512 0.756575 0.936564
Si Si2 0.910259 0.935229 0.665910
Si Si3 0.852647 0.149278 0.938739
Si Si4 0.938032 0.358061 0.665692
Si Si5 0.015291 0.220943 0.259444
Si Si6 0.058226 0.353119 0.167942
Si Si7 0.938110 0.226357 0.562022
O O1 0.241771 0.790384 0.931652
O O2 0.407466 0.808485 0.889194
O O3 0.347958 0.644790 0.928149
O O4 0.379207 0.778180 0.000000
O O5 0.844418 0.922086 0.612700
O O6 0.857264 0.980419 0.717278
O O7 0.938859 0.832232 0.688609
O O8 0.000000 0.000000 0.653194
O O9 0.820384 0.040156 0.937026
O O10 0.891958 0.168817 0.000000
O O11 0.931046 0.281414 0.713976
O O12 0.870903 0.446645 0.668808
O O13 0.930736 0.306624 0.607344
O O14 0.044589 0.395532 0.672835
O O15 0.078079 0.286682 0.220191
O O16 0.923347 0.264311 0.500000
#
# Coordination Sequence:
#
# PCOD9568884 Si02
#       7
#    16  16  16  16  16  16  16
#     4  10  22  42  69 104 141 180 231 285 347 420
#     4  12  25  44  67  98 137 183 230 285 341 418
#     4  10  22  44  70 100 136 175 228 290 346 407
#     4  11  24  45  67  97 137 180 232 280 348 412
#     4  12  24  43  64  95 131 179 226 284 339 407
#     4  11  25  42  68  99 137 182 223 289 344 408
#     4  10  21  39  68  98 132 180 224 282 341 403
#
# _framework density 22.763621000000001
#
# number of rings (size 3 to 8) (size 9 to 14) (size 15 to 20)
#    0.000    1.143    4.286    0.857    6.000    2.000 
#    0.000    3.571    0.000    0.000    0.000    0.000 
#    0.000    0.000    0.000    0.000    0.000    0.000 
#
# Total GULP energy -626641.085378 kJ/mol
# GULP energy per Si atom -5595.009691 kJ/mol
# Density = 2.271181 g / cm^3
# Si number density = 22.763621 Si / 1000 Ang^3
#
#
#
# Elastic Constant Matrix: (Units=GPa)
#
#
# Indices 1 2 3 4 5 6 
#
# 1 65.6079 4.9095 22.4450 0.0000 0.0000 0.0000
# 2 4.9095 65.6079 22.4450 0.0000 0.0000 0.0000
# 3 22.4450 22.4450 138.5000 0.0000 0.0000 0.0000
# 4 0.0000 0.0000 0.0000 29.0874 0.0000 0.0000
# 5 0.0000 0.0000 0.0000 0.0000 29.0874 0.0000
# 6 0.0000 0.0000 0.0000 0.0000 0.0000 27.7195
#
#
#
# Elastic Compliance Matrix: (Units=1/GPa)
#
#
# Indices 1 2 3 4 5 6 
#
# 1 0.016144 -0.000331 -0.002562 0.000000 0.000000 0.000000
# 2 -0.000331 0.016144 -0.002562 0.000000 0.000000 0.000000
# 3 -0.002562 -0.002562 0.008051 0.000000 0.000000 0.000000
# 4 0.000000 0.000000 0.000000 0.034379 0.000000 0.000000
# 5 0.000000 0.000000 0.000000 0.000000 0.034379 0.000000
# 6 0.000000 0.000000 0.000000 0.000000 0.000000 0.036076
#
#
# Mechanical properties :
#
#
# Convention : Reuss Voigt Hill
#
# Bulk Modulus (GPa) = 33.98459 41.03495 37.50977
# Shear Modulus (GPa) = 30.13996 31.83996 30.98996
#
# Velocity S-wave (km/s) = 3.64268 3.74401 3.69369
# Velocity P-wave (km/s) = 5.71436 6.06265 5.89108
#
# Compressibility (1/GPa) = 0.02942510
#
# Stress axis : x y z
#
# Youngs Moduli (GPa) = 61.94439 61.94439 124.21200
#
# Poissons Ratio (x) = 0.02053 0.31829
# Poissons Ratio (y) = 0.02053 0.31829
# Poissons Ratio (z) = 0.15873 0.15873
#
# Static dielectric constant tensor:
#      x y z
#    x 1.867840 0.000000 0.000000 
#    y 0.000000 1.867840 0.000000 
#    z 0.000000 0.000000 1.844380 
# 
# From -- ./inp_files/6151.got.cif
#   From: 2010.05.17/outbox.cif.g08.bks.cpg/sg135_4_cif.got.tgz:6151.got - 2010.05.20 12:50:20.
