data_PCOD9568746
_publ_section_title
;
Structure prediction by ZEFSAII (Michael W. Deem and Ramdas Pophale) SiO2 
 PCOD9568746
Probable space group: P 42/M B C
;
_chemical_formula_sum "Si O2"
_cell_formula_units_Z 80
_cell_length_a 13.686296
_cell_length_b 13.686296
_cell_length_c 16.454759
_cell_angle_alpha 90.000000
_cell_angle_beta 90.000000
_cell_angle_gamma 90.000000
_cell_volume 3082.218216
_symmetry_space_group_name_H-M "P 42/M B C"
_symmetry_group_IT_number 135
_symmetry_cell_setting 'tetragonal'
loop_
_space_group_symop_operation_xyz
x,y,z
-y,x,1/2+z
-x,-y,z
y,-x,1/2+z
1/2+x,1/2-y,-z
1/2-x,1/2+y,-z
1/2+y,1/2+x,1/2-z
1/2-y,1/2-x,1/2-z
-x,-y,-z
y,-x,1/2-z
x,y,-z
-y,x,1/2-z
1/2-x,1/2+y,z
1/2+x,1/2-y,z
1/2-y,1/2-x,1/2+z
1/2+y,1/2+x,1/2+z
loop_
_atom_site_type_symbol
_atom_site_label
_atom_site_fract_x
_atom_site_fract_y
_atom_site_fract_z
Si Si1 0.876068 0.163832 0.090632
Si Si2 0.344681 0.988874 0.154167
Si Si3 0.641950 0.442275 0.088929
Si Si4 0.398817 0.631191 0.753562
Si Si5 0.003248 0.337469 0.152528
O O1 0.911999 0.049867 0.093871
O O2 0.956011 0.248061 0.103831
O O3 0.821294 0.160629 0.179051
O O4 0.833103 0.176368 0.000000
O O5 0.252717 0.020300 0.101391
O O6 0.399244 0.892027 0.123225
O O7 0.318504 0.977837 0.250603
O O8 0.420834 0.078027 0.151380
O O9 0.629423 0.354516 0.153323
O O10 0.623251 0.403687 0.000000
O O11 0.515361 0.629033 0.748869
#
# Coordination Sequence:
#
# PCOD9568746 Si02
#       5
#    16  16  16  16  16
#     4  10  20  34  54  81 111 141 180 229 275 325
#     4   9  18  35  58  82 109 143 184 226 271 330
#     4  10  20  34  54  81 111 141 180 229 275 325
#     4   9  18  34  54  75 106 148 186 223 272 324
#     4   9  18  35  58  82 109 143 184 226 271 330
#
# _framework density 25.955335000000002
#
# number of rings (size 3 to 8) (size 9 to 14) (size 15 to 20)
#    0.000    2.600    2.000    1.200    0.000    2.400 
#    0.000   12.000    0.000    0.000    0.000    0.000 
#    0.000    0.000    0.000    0.000    0.000    0.000 
#
# Total GULP energy -445911.036844 kJ/mol
# GULP energy per Si atom -5573.887961 kJ/mol
# Density = 2.589626 g / cm^3
# Si number density = 25.955335 Si / 1000 Ang^3
#
#
#
# Elastic Constant Matrix: (Units=GPa)
#
#
# Indices 1 2 3 4 5 6 
#
# 1 29.8789 27.9853 1.9682 0.0000 0.0000 0.0000
# 2 27.9853 29.8789 1.9682 0.0000 0.0000 0.0000
# 3 1.9682 1.9682 179.3421 0.0000 0.0000 0.0000
# 4 0.0000 0.0000 0.0000 20.8044 0.0000 0.0000
# 5 0.0000 0.0000 0.0000 0.0000 20.8044 0.0000
# 6 0.0000 0.0000 0.0000 0.0000 0.0000 28.0722
#
#
#
# Elastic Compliance Matrix: (Units=1/GPa)
#
#
# Indices 1 2 3 4 5 6 
#
# 1 0.272692 -0.255397 -0.000190 0.000000 0.000000 0.000000
# 2 -0.255397 0.272692 -0.000190 0.000000 0.000000 0.000000
# 3 -0.000190 -0.000190 0.005580 0.000000 0.000000 0.000000
# 4 0.000000 0.000000 0.000000 0.048067 0.000000 0.000000
# 5 0.000000 0.000000 0.000000 0.000000 0.048067 0.000000
# 6 0.000000 0.000000 0.000000 0.000000 0.000000 0.035622
#
#
# Mechanical properties :
#
#
# Convention : Reuss Voigt Hill
#
# Bulk Modulus (GPa) = 25.37404 33.66038 29.51721
# Shear Modulus (GPa) = 4.14110 27.74808 15.94459
#
# Velocity S-wave (km/s) = 1.26449 3.27321 2.48121
# Velocity P-wave (km/s) = 3.45386 5.22321 4.42782
#
# Compressibility (1/GPa) = 0.03941036
#
# Stress axis : x y z
#
# Youngs Moduli (GPa) = 3.66714 3.66714 179.20824
#
# Poissons Ratio (x) = 0.93658 0.03401
# Poissons Ratio (y) = 0.93658 0.03401
# Poissons Ratio (z) = 0.00070 0.00070
#
# Static dielectric constant tensor:
#      x y z
#    x 2.080550 0.000000 0.000000 
#    y 0.000000 2.080550 0.000000 
#    z 0.000000 0.000000 2.284450 
# 
# From -- ./inp_files/3355.got.cif
#   From: 2010.05.17/outbox.cif.g08.bks.cpg/sg135_2_cif.got.tgz:3355.got - 2010.05.20 12:50:20.
