data_PCOD9568830
_publ_section_title
;
Structure prediction by ZEFSAII (Michael W. Deem and Ramdas Pophale) SiO2 
 PCOD9568830
Probable space group: P 42/M B C
;
_chemical_formula_sum "Si O2"
_cell_formula_units_Z 112
_cell_length_a 13.517627
_cell_length_b 13.517627
_cell_length_c 26.461331
_cell_angle_alpha 90.000000
_cell_angle_beta 90.000000
_cell_angle_gamma 90.000000
_cell_volume 4835.179511
_symmetry_space_group_name_H-M "P 42/M B C"
_symmetry_group_IT_number 135
_symmetry_cell_setting 'tetragonal'
loop_
_space_group_symop_operation_xyz
x,y,z
-y,x,1/2+z
-x,-y,z
y,-x,1/2+z
1/2+x,1/2-y,-z
1/2-x,1/2+y,-z
1/2+y,1/2+x,1/2-z
1/2-y,1/2-x,1/2-z
-x,-y,-z
y,-x,1/2-z
x,y,-z
-y,x,1/2-z
1/2-x,1/2+y,z
1/2+x,1/2-y,z
1/2-y,1/2-x,1/2+z
1/2+y,1/2+x,1/2+z
loop_
_atom_site_type_symbol
_atom_site_label
_atom_site_fract_x
_atom_site_fract_y
_atom_site_fract_z
Si Si1 0.083296 0.095667 0.283953
Si Si2 0.883802 0.012473 0.444266
Si Si3 0.085647 0.701444 0.055851
Si Si4 0.286569 0.023465 0.943355
Si Si5 0.064120 0.411109 0.876651
Si Si6 0.588500 0.651137 0.358122
Si Si7 0.219908 0.290420 0.191338
O O1 0.167709 0.167551 0.305691
O O2 0.009576 0.127029 0.236124
O O3 0.997577 0.100587 0.325789
O O4 0.862058 0.057440 0.500000
O O5 0.856314 0.077613 0.396354
O O6 0.819432 0.912859 0.441487
O O7 0.000000 0.000000 0.442399
O O8 0.185373 0.640339 0.057095
O O9 0.016337 0.662322 0.099963
O O10 0.043417 0.676133 0.000000
O O11 0.214369 0.021832 0.896615
O O12 0.380703 0.961305 0.924773
O O13 0.255117 0.996286 0.000000
O O14 0.145833 0.356934 0.842417
O O15 0.000000 0.500000 0.851312
O O16 0.675115 0.707418 0.326408
O O17 0.193285 0.306716 0.250000
#
# Coordination Sequence:
#
# PCOD9568830 Si02
#       7
#    16  16  16  16  16  16  16
#     4  11  26  50  73 101 132 188 237 290 374 442
#     4  10  22  38  61  96 137 186 235 280 341 424
#     4   9  18  37  62  93 135 182 226 278 351 420
#     4  10  21  39  66 101 139 177 226 284 354 431
#     4  10  20  40  66  99 133 180 230 292 361 419
#     4  12  24  43  69  98 137 180 233 297 354 428
#     4  12  25  46  69 103 135 178 245 302 358 437
#
# _framework density 23.163565999999999
#
# number of rings (size 3 to 8) (size 9 to 14) (size 15 to 20)
#    0.000    1.429    4.286    0.857    2.000    3.143 
#    5.143    1.429    0.000    0.000    0.000    0.000 
#    0.000    0.000    0.000    0.000    0.000    0.000 
#
# Total GULP energy -623598.690201 kJ/mol
# GULP energy per Si atom -5567.845448 kJ/mol
# Density = 2.311084 g / cm^3
# Si number density = 23.163566 Si / 1000 Ang^3
#
#
#
# Elastic Constant Matrix: (Units=GPa)
#
#
# Indices 1 2 3 4 5 6 
#
# 1 66.2855 18.4202 26.0939 0.0000 0.0000 0.0000
# 2 18.4202 66.2851 26.0937 0.0000 0.0000 0.0000
# 3 26.0939 26.0937 124.6235 0.0000 0.0000 0.0000
# 4 0.0000 0.0000 0.0000 73.7715 0.0000 0.0000
# 5 0.0000 0.0000 0.0000 0.0000 73.7712 0.0000
# 6 0.0000 0.0000 0.0000 0.0000 0.0000 36.6618
#
#
#
# Elastic Compliance Matrix: (Units=1/GPa)
#
#
# Indices 1 2 3 4 5 6 
#
# 1 0.017223 -0.003669 -0.002838 0.000000 0.000000 0.000000
# 2 -0.003669 0.017223 -0.002838 0.000000 0.000000 0.000000
# 3 -0.002838 -0.002838 0.009213 0.000000 0.000000 0.000000
# 4 0.000000 0.000000 0.000000 0.013555 0.000000 0.000000
# 5 0.000000 0.000000 0.000000 0.000000 0.013555 0.000000
# 6 0.000000 0.000000 0.000000 0.000000 0.000000 0.027276
#
#
# Mechanical properties :
#
#
# Convention : Reuss Voigt Hill
#
# Bulk Modulus (GPa) = 40.04980 44.26776 42.15878
# Shear Modulus (GPa) = 39.98123 49.27999 44.63061
#
# Velocity S-wave (km/s) = 4.15907 4.61746 4.39425
# Velocity P-wave (km/s) = 6.35542 6.89785 6.63218
#
# Compressibility (1/GPa) = 0.02496891
#
# Stress axis : x y z
#
# Youngs Moduli (GPa) = 58.06179 58.06154 108.54694
#
# Poissons Ratio (x) = 0.21303 0.30805
# Poissons Ratio (y) = 0.21303 0.30805
# Poissons Ratio (z) = 0.16478 0.16478
#
# Static dielectric constant tensor:
#      x y z
#    x 1.974510 0.000000 0.000000 
#    y 0.000000 1.974510 0.000000 
#    z 0.000000 0.000000 1.981030 
# 
# From -- ./inp_files/6158.got.cif
#   From: 2010.05.17/outbox.cif.g08.bks.cpg/sg135_4_cif.got.tgz:6158.got - 2010.05.20 12:50:20.
