data_PCOD9568456
_publ_section_title
;
Structure prediction by ZEFSAII (Michael W. Deem and Ramdas Pophale) SiO2 
 PCOD9568456
Probable space group: P 42/N N M
;
_chemical_formula_sum "Si O2"
_cell_formula_units_Z 52
_cell_length_a 15.676160
_cell_length_b 15.676160
_cell_length_c 10.661157
_cell_angle_alpha 90.000000
_cell_angle_beta 90.000000
_cell_angle_gamma 90.000000
_cell_volume 2619.893962
_symmetry_space_group_name_H-M "P 42/N N M"
_symmetry_group_IT_number 134
_space_group.IT_coordinate_system_code '2'
_symmetry_cell_setting 'tetragonal'
loop_
_space_group_symop_operation_xyz
x,y,z
1/2-y,x,1/2+z
1/2-x,1/2-y,z
y,1/2-x,1/2+z
x,1/2-y,1/2-z
1/2-x,y,1/2-z
y,x,-z
1/2-y,1/2-x,-z
-x,-y,-z
1/2+y,-x,1/2-z
1/2+x,1/2+y,-z
-y,1/2+x,1/2-z
-x,1/2+y,1/2+z
1/2+x,-y,1/2+z
-y,-x,z
1/2+y,1/2+x,z
loop_
_atom_site_type_symbol
_atom_site_label
_atom_site_fract_x
_atom_site_fract_y
_atom_site_fract_z
Si Si1 0.229347 0.439142 0.064134
Si Si2 0.016864 0.661146 0.806678
Si Si3 0.390219 0.032351 0.300141
Si Si4 0.750000 0.750000 0.000000
O O1 0.167549 0.468745 0.175187
O O2 0.324238 0.474362 0.085990
O O3 0.244880 0.337643 0.076159
O O4 0.186094 0.467528 0.934736
O O5 0.049518 0.750000 0.750000
O O6 0.091694 0.591694 0.828293
O O7 0.947696 0.617313 0.714004
O O8 0.454707 0.954707 0.302048
#
# Coordination Sequence:
#
# PCOD9568456 Si02
#       4
#    16  16  16   4
#     4  11  22  37  64  92 124 157 201 263 312 376
#     4  11  23  41  61  87 124 165 208 252 306 366
#     4  10  22  39  62  90 124 164 204 251 313 375
#     4  12  20  34  60  96 122 144 198 252 328 370
#
# _framework density 19.848133000000001
#
# number of rings (size 3 to 8) (size 9 to 14) (size 15 to 20)
#    0.000    1.231    3.077    2.769    0.000    5.231 
#    0.000    3.846    0.000   14.769    0.000    0.000 
#    0.000    0.000    0.000    0.000    0.000    0.000 
#
# Total GULP energy -290390.421428 kJ/mol
# GULP energy per Si atom -5584.431181 kJ/mol
# Density = 1.980296 g / cm^3
# Si number density = 19.848133 Si / 1000 Ang^3
#
#
#
# Elastic Constant Matrix: (Units=GPa)
#
#
# Indices 1 2 3 4 5 6 
#
# 1 116.4033 55.7680 21.7487 0.0000 0.0000 0.0000
# 2 55.7680 116.4033 21.7487 0.0000 0.0000 0.0000
# 3 21.7487 21.7487 52.3285 0.0000 0.0000 0.0000
# 4 0.0000 0.0000 0.0000 23.3964 0.0000 0.0000
# 5 0.0000 0.0000 0.0000 0.0000 23.3964 0.0000
# 6 0.0000 0.0000 0.0000 0.0000 0.0000 26.6166
#
#
#
# Elastic Compliance Matrix: (Units=1/GPa)
#
#
# Indices 1 2 3 4 5 6 
#
# 1 0.011491 -0.005001 -0.002697 0.000000 0.000000 0.000000
# 2 -0.005001 0.011491 -0.002697 0.000000 0.000000 0.000000
# 3 -0.002697 -0.002697 0.021352 0.000000 0.000000 0.000000
# 4 0.000000 0.000000 0.000000 0.042742 0.000000 0.000000
# 5 0.000000 0.000000 0.000000 0.000000 0.042742 0.000000
# 6 0.000000 0.000000 0.000000 0.000000 0.000000 0.037570
#
#
# Mechanical properties :
#
#
# Convention : Reuss Voigt Hill
#
# Bulk Modulus (GPa) = 42.47645 53.74066 48.10855
# Shear Modulus (GPa) = 25.50681 27.07320 26.29001
#
# Velocity S-wave (km/s) = 3.58872 3.69727 3.64340
# Velocity P-wave (km/s) = 6.21442 6.73506 6.47997
#
# Compressibility (1/GPa) = 0.02354246
#
# Stress axis : x y z
#
# Youngs Moduli (GPa) = 87.02603 87.02603 46.83394
#
# Poissons Ratio (x) = 0.43524 0.12632
# Poissons Ratio (y) = 0.43524 0.12632
# Poissons Ratio (z) = 0.23473 0.23473
#
# Static dielectric constant tensor:
#      x y z
#    x 1.698090 0.000000 0.000000 
#    y 0.000000 1.698090 0.000000 
#    z 0.000000 0.000000 1.706830 
# 
# From -- ./inp_files/4313.got.cif
#   From: 2010.05.17/outbox.cif.g08.bks.cpg/sg134_3_cif.got.tgz:4313.got - 2010.05.20 12:42:49.
