data_PCOD9568518
_publ_section_title
;
Structure prediction by ZEFSAII (Michael W. Deem and Ramdas Pophale) SiO2 
 PCOD9568518
Probable space group: P 42/N N M
;
_chemical_formula_sum "Si O2"
_cell_formula_units_Z 96
_cell_length_a 16.229133
_cell_length_b 16.229133
_cell_length_c 19.260928
_cell_angle_alpha 90.000000
_cell_angle_beta 90.000000
_cell_angle_gamma 90.000000
_cell_volume 5073.034859
_symmetry_space_group_name_H-M "P 42/N N M"
_symmetry_group_IT_number 134
_space_group.IT_coordinate_system_code '2'
_symmetry_cell_setting 'tetragonal'
loop_
_space_group_symop_operation_xyz
x,y,z
1/2-y,x,1/2+z
1/2-x,1/2-y,z
y,1/2-x,1/2+z
x,1/2-y,1/2-z
1/2-x,y,1/2-z
y,x,-z
1/2-y,1/2-x,-z
-x,-y,-z
1/2+y,-x,1/2-z
1/2+x,1/2+y,-z
-y,1/2+x,1/2-z
-x,1/2+y,1/2+z
1/2+x,-y,1/2+z
-y,-x,z
1/2+y,1/2+x,z
loop_
_atom_site_type_symbol
_atom_site_label
_atom_site_fract_x
_atom_site_fract_y
_atom_site_fract_z
Si Si1 0.246485 0.614664 0.034558
Si Si2 0.252981 0.614822 0.870831
Si Si3 0.613263 0.520546 0.715558
Si Si4 0.207381 0.021591 0.146133
Si Si5 0.560107 0.706186 0.681419
Si Si6 0.193892 0.169712 0.922079
O O1 0.312395 0.687606 0.042106
O O2 0.157628 0.657628 0.052077
O O3 0.280284 0.541295 0.082286
O O4 0.246243 0.592994 0.952856
O O5 0.341403 0.658598 0.858119
O O6 0.184777 0.684777 0.857826
O O7 0.230893 0.535108 0.827032
O O8 0.550659 0.449342 0.692917
O O9 0.637095 0.504569 0.796389
O O10 0.702371 0.518697 0.680156
O O11 0.574647 0.609315 0.694978
O O12 0.186973 0.113718 0.123049
O O13 0.595882 0.750000 0.750000
O O14 0.602345 0.747129 0.613690
O O15 0.250000 0.250000 0.923271
O O16 0.159303 0.159303 0.000000
#
# Coordination Sequence:
#
# PCOD9568518 Si02
#       6
#    16  16  16  16  16  16
#     4   9  18  36  62  88 118 158 202 251 308 364
#     4   9  20  39  61  87 120 159 203 253 309 365
#     4  11  24  38  59  90 122 160 199 244 299 360
#     4  11  21  39  61  85 125 157 199 248 298 363
#     4  12  23  40  62  86 123 162 202 250 302 362
#     4  11  23  40  63  89 117 156 204 247 301 360
#
# _framework density 18.923584000000002
#
# number of rings (size 3 to 8) (size 9 to 14) (size 15 to 20)
#    0.000    1.500    3.333    3.500    0.000    1.667 
#    0.000    0.833    0.000   11.500    0.000    0.000 
#    0.000    0.000    0.000    0.000    0.000    0.000 
#
# Total GULP energy -534968.083786 kJ/mol
# GULP energy per Si atom -5572.584206 kJ/mol
# Density = 1.888051 g / cm^3
# Si number density = 18.923584 Si / 1000 Ang^3
#
#
#
# Elastic Constant Matrix: (Units=GPa)
#
#
# Indices 1 2 3 4 5 6 
#
# 1 91.4192 48.1231 35.0129 0.0000 0.0000 0.0000
# 2 48.1231 91.4192 35.0129 0.0000 0.0000 0.0000
# 3 35.0129 35.0129 52.2831 0.0000 0.0000 0.0000
# 4 0.0000 0.0000 0.0000 -26.7463 0.0000 0.0000
# 5 0.0000 0.0000 0.0000 0.0000 -26.7463 0.0000
# 6 0.0000 0.0000 0.0000 0.0000 0.0000 15.0664
#
#
#
# Elastic Compliance Matrix: (Units=1/GPa)
#
#
# Indices 1 2 3 4 5 6 
#
# 1 0.016945 -0.006152 -0.007228 0.000000 0.000000 0.000000
# 2 -0.006152 0.016945 -0.007228 0.000000 0.000000 0.000000
# 3 -0.007228 -0.007228 0.028808 0.000000 0.000000 0.000000
# 4 0.000000 0.000000 0.000000 -0.037388 0.000000 0.000000
# 5 0.000000 0.000000 0.000000 0.000000 -0.037388 0.000000
# 6 0.000000 0.000000 0.000000 0.000000 0.000000 0.066373
#
#
# Mechanical properties :
#
#
# Convention : Reuss Voigt Hill
#
# Bulk Modulus (GPa) = 46.55049 52.37994 49.46521
# Shear Modulus (GPa) = 48.69921 0.11295 24.40608
#
# Velocity S-wave (km/s) = 5.07844 0.24457 3.59516
# Velocity P-wave (km/s) = 7.68375 5.27442 6.59013
#
# Compressibility (1/GPa) = 0.02148205
#
# Stress axis : x y z
#
# Youngs Moduli (GPa) = 59.01377 59.01377 34.71273
#
# Poissons Ratio (x) = 0.36303 0.25091
# Poissons Ratio (y) = 0.36303 0.25091
# Poissons Ratio (z) = 0.42657 0.42657
#
# Static dielectric constant tensor:
#      x y z
#    x 1.671330 0.000000 0.000000 
#    y 0.000000 1.671330 0.000000 
#    z 0.000000 0.000000 1.742130 
# 
# From -- ./inp_files/9143.got.cif
#   From: 2010.05.17/outbox.cif.g08.bks.cpg/sg134_5_cif.got.tgz:9143.got - 2010.05.20 12:42:49.
