data_PCOD9568449
_publ_section_title
;
Structure prediction by ZEFSAII (Michael W. Deem and Ramdas Pophale) SiO2 
 PCOD9568449
Probable space group: P 42/N N M
;
_chemical_formula_sum "Si O2"
_cell_formula_units_Z 96
_cell_length_a 15.646430
_cell_length_b 15.646430
_cell_length_c 22.485686
_cell_angle_alpha 90.000000
_cell_angle_beta 90.000000
_cell_angle_gamma 90.000000
_cell_volume 5504.738143
_symmetry_space_group_name_H-M "P 42/N N M"
_symmetry_group_IT_number 134
_space_group.IT_coordinate_system_code '2'
_symmetry_cell_setting 'tetragonal'
loop_
_space_group_symop_operation_xyz
x,y,z
1/2-y,x,1/2+z
1/2-x,1/2-y,z
y,1/2-x,1/2+z
x,1/2-y,1/2-z
1/2-x,y,1/2-z
y,x,-z
1/2-y,1/2-x,-z
-x,-y,-z
1/2+y,-x,1/2-z
1/2+x,1/2+y,-z
-y,1/2+x,1/2-z
-x,1/2+y,1/2+z
1/2+x,-y,1/2+z
-y,-x,z
1/2+y,1/2+x,z
loop_
_atom_site_type_symbol
_atom_site_label
_atom_site_fract_x
_atom_site_fract_y
_atom_site_fract_z
Si Si1 0.441626 0.414666 0.363914
Si Si2 0.617102 0.889685 0.609943
Si Si3 0.398815 0.210497 0.955798
Si Si4 0.149185 0.352560 0.254527
Si Si5 0.944489 0.055512 0.952060
Si Si6 0.181748 0.681748 0.523518
Si Si7 0.012947 0.746635 0.933801
O O1 0.504645 0.495356 0.364097
O O2 0.360979 0.424823 0.408028
O O3 0.404318 0.394000 0.298889
O O4 0.490884 0.332519 0.391219
O O5 0.706600 0.864604 0.578765
O O6 0.620845 0.881861 0.680425
O O7 0.541957 0.828257 0.587159
O O8 0.602081 0.985303 0.587784
O O9 0.328105 0.171896 0.000000
O O10 0.477907 0.228746 0.999671
O O11 0.139951 0.250000 0.250000
O O12 0.250000 0.372407 0.250000
O O13 0.877735 0.122266 0.980618
O O14 0.000000 0.000000 0.000000
O O15 0.250000 0.750000 0.497632
O O16 0.232462 0.612228 0.562357
#
# Coordination Sequence:
#
# PCOD9568449 Si02
#       7
#    16  16  16  16   8   8  16
#     4  11  24  41  57  87 127 165 204 246 310 382
#     4  12  21  39  62  91 126 155 208 263 314 372
#     4  10  22  35  60  92 121 156 196 252 318 369
#     4  11  23  40  62  87 116 159 207 259 309 361
#     4  12  22  40  64  96 126 160 211 268 315 376
#     4  12  24  40  62  94 130 168 206 256 318 388
#     4  11  22  39  62  89 125 163 200 257 315 377
#
# _framework density 17.439522
#
# number of rings (size 3 to 8) (size 9 to 14) (size 15 to 20)
#    0.000    0.833    6.667    1.000    1.167    8.333 
#    0.000    0.000    0.000    0.000    0.000    0.000 
#    0.000    0.000    0.000    0.000    0.000    0.000 
#
# Total GULP energy -536254.014769 kJ/mol
# GULP energy per Si atom -5585.979321 kJ/mol
# Density = 1.739983 g / cm^3
# Si number density = 17.439522 Si / 1000 Ang^3
#
#
#
# Elastic Constant Matrix: (Units=GPa)
#
#
# Indices 1 2 3 4 5 6 
#
# 1 84.3025 50.6401 53.0665 0.0000 0.0000 0.0000
# 2 50.6401 84.3021 53.0664 0.0000 0.0000 0.0000
# 3 53.0665 53.0664 147.7285 0.0000 0.0000 0.0000
# 4 0.0000 0.0000 0.0000 21.6944 0.0000 0.0000
# 5 0.0000 0.0000 0.0000 0.0000 21.6944 0.0000
# 6 0.0000 0.0000 0.0000 0.0000 0.0000 36.7831
#
#
#
# Elastic Compliance Matrix: (Units=1/GPa)
#
#
# Indices 1 2 3 4 5 6 
#
# 1 0.020018 -0.009689 -0.003710 0.000000 0.000000 0.000000
# 2 -0.009689 0.020018 -0.003710 0.000000 0.000000 0.000000
# 3 -0.003710 -0.003710 0.009435 0.000000 0.000000 0.000000
# 4 0.000000 0.000000 0.000000 0.046095 0.000000 0.000000
# 5 0.000000 0.000000 0.000000 0.000000 0.046095 0.000000
# 6 0.000000 0.000000 0.000000 0.000000 0.000000 0.027186
#
#
# Mechanical properties :
#
#
# Convention : Reuss Voigt Hill
#
# Bulk Modulus (GPa) = 65.56873 69.98656 67.77764
# Shear Modulus (GPa) = 24.02122 26.67171 25.34647
#
# Velocity S-wave (km/s) = 3.71536 3.91498 3.81647
# Velocity P-wave (km/s) = 7.48897 7.78808 7.63999
#
# Compressibility (1/GPa) = 0.01525117
#
# Stress axis : x y z
#
# Youngs Moduli (GPa) = 49.95573 49.95546 105.99149
#
# Poissons Ratio (x) = 0.48402 0.39325
# Poissons Ratio (y) = 0.48403 0.39325
# Poissons Ratio (z) = 0.18535 0.18535
#
# Static dielectric constant tensor:
#      x y z
#    x 1.616990 0.000000 0.000000 
#    y 0.000000 1.616990 0.000000 
#    z 0.000000 0.000000 1.573280 
# 
# From -- ./inp_files/10072.got.cif
#   From: 2010.05.17/outbox.cif.g08.bks.cpg/sg134_6_cif.got.tgz:10072.got - 2010.05.20 12:42:49.
