data_PCOD9568991
_publ_section_title
;
Structure prediction by ZEFSAII (Michael W. Deem and Ramdas Pophale) SiO2 
 PCOD9568991
Probable space group: P 42/M B C
;
_chemical_formula_sum "Si O2"
_cell_formula_units_Z 80
_cell_length_a 11.867468
_cell_length_b 11.867468
_cell_length_c 26.191674
_cell_angle_alpha 90.000000
_cell_angle_beta 90.000000
_cell_angle_gamma 90.000000
_cell_volume 3688.751467
_symmetry_space_group_name_H-M "P 42/M B C"
_symmetry_group_IT_number 135
_symmetry_cell_setting 'tetragonal'
loop_
_space_group_symop_operation_xyz
x,y,z
-y,x,1/2+z
-x,-y,z
y,-x,1/2+z
1/2+x,1/2-y,-z
1/2-x,1/2+y,-z
1/2+y,1/2+x,1/2-z
1/2-y,1/2-x,1/2-z
-x,-y,-z
y,-x,1/2-z
x,y,-z
-y,x,1/2-z
1/2-x,1/2+y,z
1/2+x,1/2-y,z
1/2-y,1/2-x,1/2+z
1/2+y,1/2+x,1/2+z
loop_
_atom_site_type_symbol
_atom_site_label
_atom_site_fract_x
_atom_site_fract_y
_atom_site_fract_z
Si Si1 0.442889 0.125789 0.941145
Si Si2 0.129597 0.747196 0.355133
Si Si3 0.970667 0.714189 0.258972
Si Si4 0.876960 0.013299 0.592404
Si Si5 0.633747 0.678761 0.812615
O O1 0.344404 0.127611 0.899810
O O2 0.503630 0.250493 0.932993
O O3 0.500000 0.000000 0.934634
O O4 0.404163 0.127280 0.000000
O O5 0.115707 0.867034 0.380329
O O6 0.253373 0.743477 0.329894
O O7 0.040173 0.713944 0.311716
O O8 0.892084 0.607917 0.250000
O O9 0.899974 0.829295 0.266403
O O10 0.049557 0.730000 0.210558
O O11 0.876220 0.921408 0.638161
O O12 0.000000 0.000000 0.564423
#
# Coordination Sequence:
#
# PCOD9568991 Si02
#       5
#    16  16  16  16  16
#     4  10  26  48  74 102 134 178 229 298 370 433
#     4  11  25  42  65  99 137 178 230 293 346 422
#     4  12  24  38  63  95 137 192 238 285 344 421
#     4  11  23  44  72 100 140 184 232 291 356 428
#     4  11  24  39  60  96 138 182 238 281 342 414
#
# _framework density 21.687553000000001
#
# number of rings (size 3 to 8) (size 9 to 14) (size 15 to 20)
#    0.000    1.000    2.000    4.200    8.400    2.000 
#    0.000    2.000    0.000    0.000    0.000    0.000 
#    0.000    0.000    0.000    0.000    0.000    0.000 
#
# Total GULP energy -446080.482610 kJ/mol
# GULP energy per Si atom -5576.006033 kJ/mol
# Density = 2.163819 g / cm^3
# Si number density = 21.687553 Si / 1000 Ang^3
#
#
#
# Elastic Constant Matrix: (Units=GPa)
#
#
# Indices 1 2 3 4 5 6 
#
# 1 90.3553 40.7150 17.3874 0.0000 0.0000 0.0000
# 2 40.7150 90.3558 17.3881 0.0000 0.0000 0.0000
# 3 17.3874 17.3881 72.1259 0.0000 0.0000 0.0000
# 4 0.0000 0.0000 0.0000 1.5537 0.0000 0.0000
# 5 0.0000 0.0000 0.0000 0.0000 1.5580 0.0000
# 6 0.0000 0.0000 0.0000 0.0000 0.0000 25.0587
#
#
#
# Elastic Compliance Matrix: (Units=1/GPa)
#
#
# Indices 1 2 3 4 5 6 
#
# 1 0.014148 -0.005997 -0.001965 0.000000 0.000000 0.000000
# 2 -0.005997 0.014148 -0.001965 0.000000 0.000000 0.000000
# 3 -0.001965 -0.001965 0.014812 0.000000 0.000000 0.000000
# 4 0.000000 0.000000 0.000000 0.643626 0.000000 0.000000
# 5 0.000000 0.000000 0.000000 0.000000 0.641858 0.000000
# 6 0.000000 0.000000 0.000000 0.000000 0.000000 0.039906
#
#
# Mechanical properties :
#
#
# Convention : Reuss Voigt Hill
#
# Bulk Modulus (GPa) = 43.00364 44.86868 43.93616
# Shear Modulus (GPa) = 3.58140 17.45718 10.51929
#
# Velocity S-wave (km/s) = 1.28645 2.84022 2.20475
# Velocity P-wave (km/s) = 4.69876 5.61154 5.17532
#
# Compressibility (1/GPa) = 0.02325385
#
# Stress axis : x y z
#
# Youngs Moduli (GPa) = 70.68220 70.68237 67.51263
#
# Poissons Ratio (x) = 0.42388 0.13265
# Poissons Ratio (y) = 0.42388 0.13267
# Poissons Ratio (z) = 0.13888 0.13890
#
# Static dielectric constant tensor:
#      x y z
#    x 1.862780 0.000000 0.000000 
#    y 0.000000 1.862780 0.000000 
#    z 0.000000 0.000000 1.722970 
# 
# From -- ./inp_files/6701.got.cif
#   From: 2010.05.17/outbox.cif.g08.bks.cpg/sg135_4_cif.got.tgz:6701.got - 2010.05.20 12:50:20.
