data_PCOD9568623
_publ_section_title
;
Structure prediction by ZEFSAII (Michael W. Deem and Ramdas Pophale) SiO2 
 PCOD9568623
Probable space group: P 42/M B C
;
_chemical_formula_sum "Si O2"
_cell_formula_units_Z 80
_cell_length_a 12.724800
_cell_length_b 12.724800
_cell_length_c 20.462804
_cell_angle_alpha 90.000000
_cell_angle_beta 90.000000
_cell_angle_gamma 90.000000
_cell_volume 3313.348172
_symmetry_space_group_name_H-M "P 42/M B C"
_symmetry_group_IT_number 135
_symmetry_cell_setting 'tetragonal'
loop_
_space_group_symop_operation_xyz
x,y,z
-y,x,1/2+z
-x,-y,z
y,-x,1/2+z
1/2+x,1/2-y,-z
1/2-x,1/2+y,-z
1/2+y,1/2+x,1/2-z
1/2-y,1/2-x,1/2-z
-x,-y,-z
y,-x,1/2-z
x,y,-z
-y,x,1/2-z
1/2-x,1/2+y,z
1/2+x,1/2-y,z
1/2-y,1/2-x,1/2+z
1/2+y,1/2+x,1/2+z
loop_
_atom_site_type_symbol
_atom_site_label
_atom_site_fract_x
_atom_site_fract_y
_atom_site_fract_z
Si Si1 0.438082 0.720968 0.621223
Si Si2 0.243355 0.608655 0.570779
Si Si3 0.360186 0.075327 0.814623
Si Si4 0.433791 0.606627 0.888260
Si Si5 0.820230 0.152032 0.742841
O O1 0.334762 0.698285 0.579135
O O2 0.468961 0.837314 0.645205
O O3 0.549244 0.676279 0.592623
O O4 0.404492 0.660662 0.688711
O O5 0.191526 0.621014 0.500000
O O6 0.165080 0.613316 0.632358
O O7 0.309130 0.499442 0.571334
O O8 0.428822 0.071179 0.750000
O O9 0.249322 0.106508 0.778983
O O10 0.500000 0.500000 0.887047
O O11 0.422292 0.662147 0.818309
O O12 0.706370 0.206370 0.750000
#
# Coordination Sequence:
#
# PCOD9568623 Si02
#       5
#    16  16  16  16  16
#     4  10  20  33  58  88 119 159 205 261 316 380
#     4  11  22  38  56  89 131 165 208 267 325 384
#     4  10  19  36  59  88 123 164 210 263 320 378
#     4   9  21  31  55  88 120 157 202 258 320 370
#     4  10  18  33  56  88 122 152 203 263 319 372
#
# _framework density 24.144760000000002
#
# number of rings (size 3 to 8) (size 9 to 14) (size 15 to 20)
#    0.000    2.000    4.000    1.200    8.400    4.400 
#    0.000    3.000    0.000    5.400    0.000    1.400 
#    0.000    0.000    0.000    0.000    0.000    0.000 
#
# Total GULP energy -445495.038550 kJ/mol
# GULP energy per Si atom -5568.687982 kJ/mol
# Density = 2.408981 g / cm^3
# Si number density = 24.144760 Si / 1000 Ang^3
#
#
#
# Elastic Constant Matrix: (Units=GPa)
#
#
# Indices 1 2 3 4 5 6 
#
# 1 19.5951 58.1751 24.0763 0.0000 0.0000 0.0000
# 2 58.1751 19.5981 24.0767 0.0000 0.0000 0.0000
# 3 24.0763 24.0767 140.9887 0.0000 0.0000 0.0000
# 4 0.0000 0.0000 0.0000 3.9109 0.0000 0.0000
# 5 0.0000 0.0000 0.0000 0.0000 3.9108 0.0000
# 6 0.0000 0.0000 0.0000 0.0000 0.0000 37.8765
#
#
#
# Elastic Compliance Matrix: (Units=1/GPa)
#
#
# Indices 1 2 3 4 5 6 
#
# 1 -0.005772 0.020150 -0.002455 0.000000 0.000000 0.000000
# 2 0.020150 -0.005771 -0.002455 0.000000 0.000000 0.000000
# 3 -0.002455 -0.002455 0.007931 0.000000 0.000000 0.000000
# 4 0.000000 0.000000 0.000000 0.255697 0.000000 0.000000
# 5 0.000000 0.000000 0.000000 0.000000 0.255702 0.000000
# 6 0.000000 0.000000 0.000000 0.000000 0.000000 0.026402
#
#
# Mechanical properties :
#
#
# Convention : Reuss Voigt Hill
#
# Bulk Modulus (GPa) = 37.22083 43.64867 40.43475
# Shear Modulus (GPa) = 9.75292 14.06322 11.90807
#
# Velocity S-wave (km/s) = 2.01199 2.41603 2.22321
# Velocity P-wave (km/s) = 4.56581 5.08921 4.83460
#
# Compressibility (1/GPa) = 0.02686668
#
# Stress axis : x y z
#
# Youngs Moduli (GPa) = -173.25301 -173.28539 126.08159
#
# Poissons Ratio (x) = 3.49166 0.30957
# Poissons Ratio (y) = 3.49101 0.30959
# Poissons Ratio (z) = -0.42539 -0.42549
#
# Static dielectric constant tensor:
#      x y z
#    x 2.062010 0.000000 0.000000 
#    y 0.000000 2.062010 0.000000 
#    z 0.000000 0.000000 1.956940 
# 
# From -- ./inp_files/5219.got.cif
#   From: 2010.05.17/outbox.cif.g08.bks.cpg/sg135_3_cif.got.tgz:5219.got - 2010.05.20 12:50:20.
