data_PCOD9568305
_publ_section_title
;
Structure prediction by ZEFSAII (Michael W. Deem and Ramdas Pophale) SiO2 
 PCOD9568305
Probable space group: P 42/N N M
;
_chemical_formula_sum "Si O2"
_cell_formula_units_Z 72
_cell_length_a 28.583888
_cell_length_b 28.583888
_cell_length_c 5.176416
_cell_angle_alpha 90.000000
_cell_angle_beta 90.000000
_cell_angle_gamma 90.000000
_cell_volume 4229.331957
_symmetry_space_group_name_H-M "P 42/N N M"
_symmetry_group_IT_number 134
_space_group.IT_coordinate_system_code '2'
_symmetry_cell_setting 'tetragonal'
loop_
_space_group_symop_operation_xyz
x,y,z
1/2-y,x,1/2+z
1/2-x,1/2-y,z
y,1/2-x,1/2+z
x,1/2-y,1/2-z
1/2-x,y,1/2-z
y,x,-z
1/2-y,1/2-x,-z
-x,-y,-z
1/2+y,-x,1/2-z
1/2+x,1/2+y,-z
-y,1/2+x,1/2-z
-x,1/2+y,1/2+z
1/2+x,-y,1/2+z
-y,-x,z
1/2+y,1/2+x,z
loop_
_atom_site_type_symbol
_atom_site_label
_atom_site_fract_x
_atom_site_fract_y
_atom_site_fract_z
Si Si1 0.147036 0.306488 0.750408
Si Si2 0.464182 0.535818 0.306991
Si Si3 0.645036 0.996342 0.308450
Si Si4 0.925093 0.425093 0.308373
Si Si5 0.056133 0.443868 0.500000
Si Si6 0.194880 0.462741 0.202845
O O1 0.151207 0.250000 0.750000
O O2 0.171254 0.328747 0.500000
O O3 0.091845 0.318516 0.758457
O O4 0.172296 0.327705 0.000000
O O5 0.455944 0.544057 0.606250
O O6 0.450109 0.484625 0.212070
O O7 0.432743 0.567258 0.114048
O O8 0.603809 0.957548 0.354449
O O9 0.671279 0.994474 0.579702
O O10 0.623989 0.048393 0.258075
O O11 0.677597 0.979466 0.076102
O O12 0.250000 0.465214 0.250000
#
# Coordination Sequence:
#
# PCOD9568305 Si02
#       6
#    16   8  16   8   8  16
#     4  11  24  41  59  79  99 122 167 227 282 337
#     4   9  18  32  44  70 124 130 150 204 253 314
#     4  11  22  35  58  76 107 138 173 218 255 313
#     4  10  20  35  50  82 106 134 170 209 259 294
#     4   9  20  30  50  80 100 140 165 204 268 306
#     4  11  25  41  54  75 106 143 179 214 257 324
#
# _framework density 17.023962999999998
#
# number of rings (size 3 to 8) (size 9 to 14) (size 15 to 20)
#    0.000    1.556    0.000    6.000    4.667   15.556 
#    0.000    0.000    0.000    0.000    0.000    0.000 
#    0.000    0.000    0.000    0.000    0.000   38.889 
#
# Total GULP energy -401504.217954 kJ/mol
# GULP energy per Si atom -5576.447472 kJ/mol
# Density = 1.698522 g / cm^3
# Si number density = 17.023963 Si / 1000 Ang^3
#
#
#
# Elastic Constant Matrix: (Units=GPa)
#
#
# Indices 1 2 3 4 5 6 
#
# 1 38.6651 12.9437 1.7234 0.0000 0.0000 0.0000
# 2 12.9437 38.6642 1.7199 0.0000 0.0000 0.0000
# 3 1.7234 1.7199 70.4637 0.0000 0.0000 0.0000
# 4 0.0000 0.0000 0.0000 7.2967 0.0000 0.0000
# 5 0.0000 0.0000 0.0000 0.0000 7.3209 0.0000
# 6 0.0000 0.0000 0.0000 0.0000 0.0000 15.7626
#
#
#
# Elastic Compliance Matrix: (Units=1/GPa)
#
#
# Indices 1 2 3 4 5 6 
#
# 1 0.029143 -0.009735 -0.000475 0.000000 0.000000 0.000000
# 2 -0.009735 0.029144 -0.000473 0.000000 0.000000 0.000000
# 3 -0.000475 -0.000473 0.014215 0.000000 0.000000 0.000000
# 4 0.000000 0.000000 0.000000 0.137048 0.000000 0.000000
# 5 0.000000 0.000000 0.000000 0.000000 0.136596 0.000000
# 6 0.000000 0.000000 0.000000 0.000000 0.000000 0.063441
#
#
# Mechanical properties :
#
#
# Convention : Reuss Voigt Hill
#
# Bulk Modulus (GPa) = 19.55616 20.06299 19.80958
# Shear Modulus (GPa) = 11.16074 14.83645 12.99860
#
# Velocity S-wave (km/s) = 2.56323 2.95533 2.76623
# Velocity P-wave (km/s) = 4.50251 4.84314 4.67593
#
# Compressibility (1/GPa) = 0.05113477
#
# Stress axis : x y z
#
# Youngs Moduli (GPa) = 34.31324 34.31257 70.34883
#
# Poissons Ratio (x) = 0.33404 0.03343
# Poissons Ratio (y) = 0.33405 0.03329
# Poissons Ratio (z) = 0.01630 0.01624
#
# Static dielectric constant tensor:
#      x y z
#    x 1.607400 0.000000 0.000000 
#    y 0.000000 1.607400 0.000000 
#    z 0.000000 0.000000 1.603090 
# 
# From -- ./inp_files/1098.got.cif
#   From: 2010.05.17/outbox.cif.g08.bks.cpg/sg134_1_cif.got.tgz:1098.got - 2010.05.20 12:42:49.
