data_PCOD9568963
_publ_section_title
;
Structure prediction by ZEFSAII (Michael W. Deem and Ramdas Pophale) SiO2 
 PCOD9568963
Probable space group: P 42/M B C
;
_chemical_formula_sum "Si O2"
_cell_formula_units_Z 84
_cell_length_a 13.899270
_cell_length_b 13.899270
_cell_length_c 22.107047
_cell_angle_alpha 90.000000
_cell_angle_beta 90.000000
_cell_angle_gamma 90.000000
_cell_volume 4270.853922
_symmetry_space_group_name_H-M "P 42/M B C"
_symmetry_group_IT_number 135
_symmetry_cell_setting 'tetragonal'
loop_
_space_group_symop_operation_xyz
x,y,z
-y,x,1/2+z
-x,-y,z
y,-x,1/2+z
1/2+x,1/2-y,-z
1/2-x,1/2+y,-z
1/2+y,1/2+x,1/2-z
1/2-y,1/2-x,1/2-z
-x,-y,-z
y,-x,1/2-z
x,y,-z
-y,x,1/2-z
1/2-x,1/2+y,z
1/2+x,1/2-y,z
1/2-y,1/2-x,1/2+z
1/2+y,1/2+x,1/2+z
loop_
_atom_site_type_symbol
_atom_site_label
_atom_site_fract_x
_atom_site_fract_y
_atom_site_fract_z
Si Si1 0.344130 0.960504 0.704553
Si Si2 0.000000 0.000000 0.750000
Si Si3 0.395480 0.110156 0.000000
Si Si4 0.850527 0.727432 0.376186
Si Si5 0.297429 0.528592 0.193705
Si Si6 0.881428 0.620705 0.000000
Si Si7 0.844489 0.330608 0.866832
O O1 0.429303 0.929303 0.750000
O O2 0.327143 0.863284 0.667043
O O3 0.254334 0.989427 0.745949
O O4 0.361630 0.053183 0.662087
O O5 0.909635 0.967456 0.791245
O O6 0.346407 0.140932 0.062725
O O7 0.505753 0.150709 0.000000
O O8 0.391678 0.994731 0.000000
O O9 0.954544 0.767856 0.358879
O O10 0.847464 0.679420 0.441933
O O11 0.780994 0.817609 0.365957
O O12 0.240896 0.623049 0.172814
#
# Coordination Sequence:
#
# PCOD9568963 Si02
#       7
#    16   4   8  16  16   8  16
#     4  10  23  40  64  99 130 166 211 272 326 381
#     4  12  24  44  60  86 132 180 208 252 328 414
#     4  11  23  40  70  91 124 166 211 275 339 368
#     4  11  23  40  65  91 129 166 212 264 320 387
#     4  11  24  40  63  90 129 166 211 259 318 393
#     4  11  21  42  66  93 124 164 211 273 333 372
#     4  12  23  41  65  96 126 169 217 268 325 389
#
# _framework density 19.668199000000001
#
# number of rings (size 3 to 8) (size 9 to 14) (size 15 to 20)
#    0.000    0.952    3.810    3.429    0.000    8.381 
#    0.000    0.000    0.000    1.143    0.000    0.000 
#    0.000    0.000    0.000    0.000    0.000    0.000 
#
# Total GULP energy -468915.791914 kJ/mol
# GULP energy per Si atom -5582.330856 kJ/mol
# Density = 1.962343 g / cm^3
# Si number density = 19.668199 Si / 1000 Ang^3
#
#
#
# Elastic Constant Matrix: (Units=GPa)
#
#
# Indices 1 2 3 4 5 6 
#
# 1 60.6463 12.3908 16.0163 0.0000 0.0000 0.0000
# 2 12.3908 60.6463 16.0163 0.0000 0.0000 0.0000
# 3 16.0163 16.0163 108.6363 0.0000 0.0000 0.0000
# 4 0.0000 0.0000 0.0000 -1.1225 0.0000 0.0000
# 5 0.0000 0.0000 0.0000 0.0000 -1.1225 0.0000
# 6 0.0000 0.0000 0.0000 0.0000 0.0000 26.5405
#
#
#
# Elastic Compliance Matrix: (Units=1/GPa)
#
#
# Indices 1 2 3 4 5 6 
#
# 1 0.017681 -0.003042 -0.002158 0.000000 0.000000 0.000000
# 2 -0.003042 0.017681 -0.002158 0.000000 0.000000 0.000000
# 3 -0.002158 -0.002158 0.009841 0.000000 0.000000 0.000000
# 4 0.000000 0.000000 0.000000 -0.890878 0.000000 0.000000
# 5 0.000000 0.000000 0.000000 0.000000 -0.890878 0.000000
# 6 0.000000 0.000000 0.000000 0.000000 0.000000 0.037678
#
#
# Mechanical properties :
#
#
# Convention : Reuss Voigt Hill
#
# Bulk Modulus (GPa) = 32.80271 35.41951 34.11111
# Shear Modulus (GPa) = -2.98686 17.22614 7.11964
#
# Velocity S-wave (km/s) = -1.23366 2.96267 1.90466
# Velocity P-wave (km/s) = 3.83210 5.45443 4.71359
#
# Compressibility (1/GPa) = 0.03048528
#
# Stress axis : x y z
#
# Youngs Moduli (GPa) = 56.55913 56.55913 101.61190
#
# Poissons Ratio (x) = 0.17208 0.21929
# Poissons Ratio (y) = 0.17208 0.21929
# Poissons Ratio (z) = 0.12206 0.12206
#
# Static dielectric constant tensor:
#      x y z
#    x 1.698990 0.000000 0.000000 
#    y 0.000000 1.698990 0.000000 
#    z 0.000000 0.000000 1.688640 
# 
# From -- ./inp_files/5388.got.cif
#   From: 2010.05.17/outbox.cif.g08.bks.cpg/sg135_3_cif.got.tgz:5388.got - 2010.05.20 12:50:20.
