data_PCOD9568459
_publ_section_title
;
Structure prediction by ZEFSAII (Michael W. Deem and Ramdas Pophale) SiO2 
 PCOD9568459
Probable space group: P 42/N N M
;
_chemical_formula_sum "Si O2"
_cell_formula_units_Z 58
_cell_length_a 18.280530
_cell_length_b 18.280530
_cell_length_c 8.509338
_cell_angle_alpha 90.000000
_cell_angle_beta 90.000000
_cell_angle_gamma 90.000000
_cell_volume 2843.631657
_symmetry_space_group_name_H-M "P 42/N N M"
_symmetry_group_IT_number 134
_space_group.IT_coordinate_system_code '2'
_symmetry_cell_setting 'tetragonal'
loop_
_space_group_symop_operation_xyz
x,y,z
1/2-y,x,1/2+z
1/2-x,1/2-y,z
y,1/2-x,1/2+z
x,1/2-y,1/2-z
1/2-x,y,1/2-z
y,x,-z
1/2-y,1/2-x,-z
-x,-y,-z
1/2+y,-x,1/2-z
1/2+x,1/2+y,-z
-y,1/2+x,1/2-z
-x,1/2+y,1/2+z
1/2+x,-y,1/2+z
-y,-x,z
1/2+y,1/2+x,z
loop_
_atom_site_type_symbol
_atom_site_label
_atom_site_fract_x
_atom_site_fract_y
_atom_site_fract_z
Si Si1 0.527892 0.252305 0.929385
Si Si2 0.810827 0.189174 0.536603
Si Si3 0.750000 0.250000 0.250000
Si Si4 0.602299 0.686183 0.633508
Si Si5 0.508242 0.896224 0.617619
O O1 0.500619 0.250000 0.750000
O O2 0.607663 0.214160 0.922434
O O3 0.468995 0.212595 0.038222
O O4 0.528628 0.331775 0.013059
O O5 0.750000 0.250000 0.588346
O O6 0.801963 0.198038 0.349962
O O7 0.631580 0.750000 0.750000
O O8 0.657013 0.657013 0.500000
O O9 0.567398 0.628800 0.754632
O O10 0.553524 0.946477 0.500000
O O11 0.443728 0.943728 0.693243
#
# Coordination Sequence:
#
# PCOD9568459 Si02
#       5
#    16   8   2  16  16
#     4  11  24  38  62  91 133 174 223 275 329 394
#     4  10  24  35  59  88 133 181 225 268 328 391
#     4   8  24  36  58  80 136 172 234 264 316 400
#     4  10  23  43  69  95 128 168 215 277 336 408
#     4  10  22  39  64  93 128 170 217 271 330 395
#
# _framework density 20.396453000000001
#
# number of rings (size 3 to 8) (size 9 to 14) (size 15 to 20)
#    0.414    1.379    0.000    2.483   11.586    0.552 
#    0.000    0.000    0.000   55.448    0.000    0.000 
#    0.000    0.000    0.000    0.000    0.000    0.000 
#
# Total GULP energy -323211.208830 kJ/mol
# GULP energy per Si atom -5572.607049 kJ/mol
# Density = 2.035003 g / cm^3
# Si number density = 20.396453 Si / 1000 Ang^3
#
#
#
# Elastic Constant Matrix: (Units=GPa)
#
#
# Indices 1 2 3 4 5 6 
#
# 1 87.0689 61.0317 37.5651 0.0000 0.0000 0.0000
# 2 61.0317 87.0676 37.5633 0.0000 0.0000 0.0000
# 3 37.5651 37.5633 131.8255 0.0000 0.0000 0.0000
# 4 0.0000 0.0000 0.0000 6.0644 0.0000 0.0000
# 5 0.0000 0.0000 0.0000 0.0000 6.0696 0.0000
# 6 0.0000 0.0000 0.0000 0.0000 0.0000 7.0092
#
#
#
# Elastic Compliance Matrix: (Units=1/GPa)
#
#
# Indices 1 2 3 4 5 6 
#
# 1 0.023150 -0.015257 -0.002249 0.000000 0.000000 0.000000
# 2 -0.015257 0.023150 -0.002249 0.000000 0.000000 0.000000
# 3 -0.002249 -0.002249 0.008868 0.000000 0.000000 0.000000
# 4 0.000000 0.000000 0.000000 0.164898 0.000000 0.000000
# 5 0.000000 0.000000 0.000000 0.000000 0.164755 0.000000
# 6 0.000000 0.000000 0.000000 0.000000 0.000000 0.142670
#
#
# Mechanical properties :
#
#
# Convention : Reuss Voigt Hill
#
# Bulk Modulus (GPa) = 63.86839 64.25357 64.06098
# Shear Modulus (GPa) = 8.73789 15.14876 11.94332
#
# Velocity S-wave (km/s) = 2.07203 2.72824 2.42246
# Velocity P-wave (km/s) = 6.09146 6.44167 6.26901
#
# Compressibility (1/GPa) = 0.01565720
#
# Stress axis : x y z
#
# Youngs Moduli (GPa) = 43.19603 43.19584 112.76981
#
# Poissons Ratio (x) = 0.65905 0.25367
# Poissons Ratio (y) = 0.65905 0.25361
# Poissons Ratio (z) = 0.09717 0.09715
#
# Static dielectric constant tensor:
#      x y z
#    x 1.793220 0.000000 0.000000 
#    y 0.000000 1.793220 0.000000 
#    z 0.000000 0.000000 1.766420 
# 
# From -- ./inp_files/2449.got.cif
#   From: 2010.05.17/outbox.cif.g08.bks.cpg/sg134_2_cif.got.tgz:2449.got - 2010.05.20 12:42:49.
