data_PCOD9568682
_publ_section_title
;
Structure prediction by ZEFSAII (Michael W. Deem and Ramdas Pophale) SiO2 
 PCOD9568682
Probable space group: P 42/M B C
;
_chemical_formula_sum "Si O2"
_cell_formula_units_Z 108
_cell_length_a 15.807882
_cell_length_b 15.807882
_cell_length_c 23.541340
_cell_angle_alpha 90.000000
_cell_angle_beta 90.000000
_cell_angle_gamma 90.000000
_cell_volume 5882.725050
_symmetry_space_group_name_H-M "P 42/M B C"
_symmetry_group_IT_number 135
_symmetry_cell_setting 'tetragonal'
loop_
_space_group_symop_operation_xyz
x,y,z
-y,x,1/2+z
-x,-y,z
y,-x,1/2+z
1/2+x,1/2-y,-z
1/2-x,1/2+y,-z
1/2+y,1/2+x,1/2-z
1/2-y,1/2-x,1/2-z
-x,-y,-z
y,-x,1/2-z
x,y,-z
-y,x,1/2-z
1/2-x,1/2+y,z
1/2+x,1/2-y,z
1/2-y,1/2-x,1/2+z
1/2+y,1/2+x,1/2+z
loop_
_atom_site_type_symbol
_atom_site_label
_atom_site_fract_x
_atom_site_fract_y
_atom_site_fract_z
Si Si1 0.652872 0.027495 0.566291
Si Si2 0.500000 0.000000 0.846784
Si Si3 0.768756 0.179583 0.610439
Si Si4 0.463564 0.179857 0.325946
Si Si5 0.889325 0.151906 0.290519
Si Si6 0.146558 0.664254 0.437603
Si Si7 0.357861 0.764724 0.295694
Si Si8 0.500000 0.500000 0.750000
O O1 0.628037 0.039622 0.500000
O O2 0.717278 0.101506 0.584161
O O3 0.575176 0.029499 0.610708
O O4 0.686403 0.929781 0.570571
O O5 0.581134 0.970482 0.811093
O O6 0.846939 0.143260 0.647343
O O7 0.794472 0.253388 0.567164
O O8 0.716101 0.229549 0.658776
O O9 0.417128 0.249378 0.287013
O O10 0.419207 0.177366 0.387000
O O11 0.556887 0.217102 0.328357
O O12 0.820006 0.138638 0.241276
O O13 0.961303 0.080999 0.283246
O O14 0.106474 0.662294 0.500000
O O15 0.338702 0.838702 0.250000
#
# Coordination Sequence:
#
# PCOD9568682 Si02
#       8
#    16   8  16  16  16  16  16   4
#     4  10  19  33  57  84 115 152 189 237 291 348
#     4  10  19  34  57  86 120 142 191 232 299 346
#     4  10  20  37  56  82 113 154 191 240 291 346
#     4  10  19  38  56  84 114 151 190 237 294 346
#     4  10  22  36  59  81 115 151 196 241 291 342
#     4   9  20  36  55  82 115 149 194 241 291 352
#     4  10  20  37  54  80 115 146 190 241 284 349
#     4  12  20  36  60  88 106 148 200 232 292 344
#
# _framework density 18.358837000000001
#
# number of rings (size 3 to 8) (size 9 to 14) (size 15 to 20)
#    0.000    2.074    2.963    0.667    0.000    1.778 
#    0.000    6.296    0.000    0.000    0.000    2.593 
#    0.000    0.000    0.000    0.000    0.000    0.000 
#
# Total GULP energy -601321.737888 kJ/mol
# GULP energy per Si atom -5567.793869 kJ/mol
# Density = 1.831705 g / cm^3
# Si number density = 18.358837 Si / 1000 Ang^3
#
#
#
# Elastic Constant Matrix: (Units=GPa)
#
#
# Indices 1 2 3 4 5 6 
#
# 1 99.8528 62.6302 30.4607 0.0000 0.0000 0.0000
# 2 62.6302 99.8528 30.4607 0.0000 0.0000 0.0000
# 3 30.4607 30.4607 57.9086 0.0000 0.0000 0.0000
# 4 0.0000 0.0000 0.0000 2.9855 0.0000 0.0000
# 5 0.0000 0.0000 0.0000 0.0000 2.9855 0.0000
# 6 0.0000 0.0000 0.0000 0.0000 0.0000 40.1912
#
#
#
# Elastic Compliance Matrix: (Units=1/GPa)
#
#
# Indices 1 2 3 4 5 6 
#
# 1 0.017266 -0.009599 -0.004033 0.000000 0.000000 0.000000
# 2 -0.009599 0.017266 -0.004033 0.000000 0.000000 0.000000
# 3 -0.004033 -0.004033 0.021511 0.000000 0.000000 0.000000
# 4 0.000000 0.000000 0.000000 0.334952 0.000000 0.000000
# 5 0.000000 0.000000 0.000000 0.000000 0.334952 0.000000
# 6 0.000000 0.000000 0.000000 0.000000 0.000000 0.024881
#
#
# Mechanical properties :
#
#
# Convention : Reuss Voigt Hill
#
# Bulk Modulus (GPa) = 48.27804 56.07973 52.17889
# Shear Modulus (GPa) = 6.30467 18.16994 12.23731
#
# Velocity S-wave (km/s) = 1.85515 3.14938 2.58459
# Velocity P-wave (km/s) = 5.56262 6.62099 6.11475
#
# Compressibility (1/GPa) = 0.02071335
#
# Stress axis : x y z
#
# Youngs Moduli (GPa) = 57.91745 57.91745 46.48766
#
# Poissons Ratio (x) = 0.55598 0.18747
# Poissons Ratio (y) = 0.55598 0.18747
# Poissons Ratio (z) = 0.23356 0.23356
#
# Static dielectric constant tensor:
#      x y z
#    x 1.671280 0.000000 0.000000 
#    y 0.000000 1.671280 0.000000 
#    z 0.000000 0.000000 1.621900 
# 
# From -- ./inp_files/6170.got.cif
#   From: 2010.05.17/outbox.cif.g08.bks.cpg/sg135_4_cif.got.tgz:6170.got - 2010.05.20 12:50:20.
