data_PCOD9568695
_publ_section_title
;
Structure prediction by ZEFSAII (Michael W. Deem and Ramdas Pophale) SiO2 
 PCOD9568695
Probable space group: P 42/M B C
;
_chemical_formula_sum "Si O2"
_cell_formula_units_Z 112
_cell_length_a 15.529726
_cell_length_b 15.529726
_cell_length_c 25.957205
_cell_angle_alpha 90.000000
_cell_angle_beta 90.000000
_cell_angle_gamma 90.000000
_cell_volume 6260.161158
_symmetry_space_group_name_H-M "P 42/M B C"
_symmetry_group_IT_number 135
_symmetry_cell_setting 'tetragonal'
loop_
_space_group_symop_operation_xyz
x,y,z
-y,x,1/2+z
-x,-y,z
y,-x,1/2+z
1/2+x,1/2-y,-z
1/2-x,1/2+y,-z
1/2+y,1/2+x,1/2-z
1/2-y,1/2-x,1/2-z
-x,-y,-z
y,-x,1/2-z
x,y,-z
-y,x,1/2-z
1/2-x,1/2+y,z
1/2+x,1/2-y,z
1/2-y,1/2-x,1/2+z
1/2+y,1/2+x,1/2+z
loop_
_atom_site_type_symbol
_atom_site_label
_atom_site_fract_x
_atom_site_fract_y
_atom_site_fract_z
Si Si1 0.722249 0.892765 0.781974
Si Si2 0.902121 0.815849 0.939015
Si Si3 0.251907 0.752229 0.867814
Si Si4 0.196379 0.095599 0.440650
Si Si5 0.736032 0.558472 0.160655
Si Si6 0.505603 0.337433 0.442067
Si Si7 0.902883 0.920634 0.269882
O O1 0.641610 0.858391 0.750000
O O2 0.738558 0.824647 0.827699
O O3 0.808537 0.891795 0.747045
O O4 0.716207 0.989144 0.804068
O O5 0.829800 0.770462 0.905539
O O6 0.890132 0.918711 0.932051
O O7 0.997881 0.786296 0.924685
O O8 0.890564 0.798904 0.000000
O O9 0.166287 0.765837 0.902293
O O10 0.269382 0.844157 0.840648
O O11 0.225153 0.109463 0.500000
O O12 0.092752 0.106977 0.441150
O O13 0.731003 0.520449 0.103152
O O14 0.637827 0.566266 0.182760
O O15 0.498419 0.300454 0.500000
O O16 0.975749 0.903222 0.225754
#
# Coordination Sequence:
#
# PCOD9568695 Si02
#       7
#    16  16  16  16  16  16  16
#     4  11  21  37  54  81 112 148 191 237 283 341
#     4  10  19  34  56  84 116 153 188 226 283 347
#     4  11  21  35  56  86 110 151 187 236 285 337
#     4   9  19  34  53  83 119 150 185 230 280 346
#     4  10  20  36  55  82 117 149 188 235 285 338
#     4   9  17  31  53  86 121 144 174 224 295 361
#     4   9  19  35  55  84 111 142 183 232 289 349
#
# _framework density 17.890913000000001
#
# number of rings (size 3 to 8) (size 9 to 14) (size 15 to 20)
#    0.000    2.143    2.857    0.857    0.000    4.571 
#   10.286    0.000    0.000    0.857    3.714    2.000 
#    0.000    0.000    0.000    0.000    0.000    0.000 
#
# Total GULP energy -624430.022722 kJ/mol
# GULP energy per Si atom -5575.268060 kJ/mol
# Density = 1.785019 g / cm^3
# Si number density = 17.890913 Si / 1000 Ang^3
#
#
#
# Elastic Constant Matrix: (Units=GPa)
#
#
# Indices 1 2 3 4 5 6 
#
# 1 37.8581 5.8853 10.3085 0.0000 0.0000 0.0000
# 2 5.8853 37.8573 10.3086 0.0000 0.0000 0.0000
# 3 10.3085 10.3086 33.5949 0.0000 0.0000 0.0000
# 4 0.0000 0.0000 0.0000 20.6651 0.0000 0.0000
# 5 0.0000 0.0000 0.0000 0.0000 20.6653 0.0000
# 6 0.0000 0.0000 0.0000 0.0000 0.0000 17.9598
#
#
#
# Elastic Compliance Matrix: (Units=1/GPa)
#
#
# Indices 1 2 3 4 5 6 
#
# 1 0.029001 -0.002275 -0.008201 0.000000 0.000000 0.000000
# 2 -0.002275 0.029002 -0.008201 0.000000 0.000000 0.000000
# 3 -0.008201 -0.008201 0.034799 0.000000 0.000000 0.000000
# 4 0.000000 0.000000 0.000000 0.048391 0.000000 0.000000
# 5 0.000000 0.000000 0.000000 0.000000 0.048390 0.000000
# 6 0.000000 0.000000 0.000000 0.000000 0.000000 0.055680
#
#
# Mechanical properties :
#
#
# Convention : Reuss Voigt Hill
#
# Bulk Modulus (GPa) = 18.03492 18.03501 18.03497
# Shear Modulus (GPa) = 16.60576 17.37857 16.99217
#
# Velocity S-wave (km/s) = 3.04989 3.12005 3.08517
# Velocity P-wave (km/s) = 4.74392 4.80438 4.77425
#
# Compressibility (1/GPa) = 0.05544797
#
# Stress axis : x y z
#
# Youngs Moduli (GPa) = 34.48135 34.48051 28.73624
#
# Poissons Ratio (x) = 0.07846 0.23566
# Poissons Ratio (y) = 0.07846 0.23567
# Poissons Ratio (z) = 0.28277 0.28278
#
# Static dielectric constant tensor:
#      x y z
#    x 1.600700 0.000000 0.000000 
#    y 0.000000 1.600700 0.000000 
#    z 0.000000 0.000000 1.656000 
# 
# From -- ./inp_files/6115.got.cif
#   From: 2010.05.17/outbox.cif.g08.bks.cpg/sg135_4_cif.got.tgz:6115.got - 2010.05.20 12:50:20.
