data_PCOD9568376
_publ_section_title
;
Structure prediction by ZEFSAII (Michael W. Deem and Ramdas Pophale) SiO2 
 PCOD9568376
Probable space group: P 42/N N M
;
_chemical_formula_sum "Si O2"
_cell_formula_units_Z 64
_cell_length_a 10.610403
_cell_length_b 10.610403
_cell_length_c 29.133820
_cell_angle_alpha 90.000000
_cell_angle_beta 90.000000
_cell_angle_gamma 90.000000
_cell_volume 3279.904446
_symmetry_space_group_name_H-M "P 42/N N M"
_symmetry_group_IT_number 134
_space_group.IT_coordinate_system_code '2'
_symmetry_cell_setting 'tetragonal'
loop_
_space_group_symop_operation_xyz
x,y,z
1/2-y,x,1/2+z
1/2-x,1/2-y,z
y,1/2-x,1/2+z
x,1/2-y,1/2-z
1/2-x,y,1/2-z
y,x,-z
1/2-y,1/2-x,-z
-x,-y,-z
1/2+y,-x,1/2-z
1/2+x,1/2+y,-z
-y,1/2+x,1/2-z
-x,1/2+y,1/2+z
1/2+x,-y,1/2+z
-y,-x,z
1/2+y,1/2+x,z
loop_
_atom_site_type_symbol
_atom_site_label
_atom_site_fract_x
_atom_site_fract_y
_atom_site_fract_z
Si Si1 0.750000 0.038773 0.250000
Si Si2 0.711013 0.007128 1.000000
Si Si3 0.355178 0.144822 0.430112
Si Si4 0.461228 0.750000 0.250000
Si Si5 0.606692 0.606692 0.823082
O O1 0.630423 0.130423 0.242224
O O2 0.721104 0.951765 0.293814
O O3 0.799496 0.977112 0.043853
O O4 0.640206 0.140206 0.000000
O O5 0.597866 0.902135 0.000000
O O6 0.799496 0.977113 0.956147
O O7 0.250000 0.250000 0.438821
O O8 0.367277 0.132723 0.375912
O O9 0.369577 0.630424 0.257775
O O10 0.548236 0.778895 0.293814
O O11 0.500001 0.500000 0.822880
#
# Coordination Sequence:
#
# PCOD9568376 Si02
#       5
#     8  16  16   8  16
#     4   9  20  37  52  72 106 141 176 221 270 322
#     4   8  15  31  50  72 106 138 168 212 265 315
#     4   9  18  30  50  78 100 130 174 220 261 306
#     4   9  20  37  52  72 106 141 176 221 270 322
#     4  10  21  35  53  76 104 140 176 218 271 319
#
# _framework density 19.512763
#
# number of rings (size 3 to 8) (size 9 to 14) (size 15 to 20)
#    0.000    3.000    0.000    1.500    3.500    2.000 
#    0.000    2.500    0.000    1.500    0.000    0.000 
#    0.000    0.000    0.000    0.000    0.000    0.000 
#
# Total GULP energy -356747.800035 kJ/mol
# GULP energy per Si atom -5574.184376 kJ/mol
# Density = 1.946835 g / cm^3
# Si number density = 19.512763 Si / 1000 Ang^3
#
#
#
# Elastic Constant Matrix: (Units=GPa)
#
#
# Indices 1 2 3 4 5 6 
#
# 1 76.3569 68.6342 66.1916 0.0000 0.0000 0.0000
# 2 68.6342 76.3569 66.1916 0.0000 0.0000 0.0000
# 3 66.1916 66.1916 203.7839 0.0000 0.0000 0.0000
# 4 0.0000 0.0000 0.0000 41.4057 0.0000 0.0000
# 5 0.0000 0.0000 0.0000 0.0000 41.4060 0.0000
# 6 0.0000 0.0000 0.0000 0.0000 0.0000 32.8788
#
#
#
# Elastic Compliance Matrix: (Units=1/GPa)
#
#
# Indices 1 2 3 4 5 6 
#
# 1 0.069647 -0.059842 -0.003185 0.000000 0.000000 0.000000
# 2 -0.059842 0.069647 -0.003185 0.000000 0.000000 0.000000
# 3 -0.003185 -0.003185 0.006976 0.000000 0.000000 0.000000
# 4 0.000000 0.000000 0.000000 0.024151 0.000000 0.000000
# 5 0.000000 0.000000 0.000000 0.000000 0.024151 0.000000
# 6 0.000000 0.000000 0.000000 0.000000 0.000000 0.030415
#
#
# Mechanical properties :
#
#
# Convention : Reuss Voigt Hill
#
# Bulk Modulus (GPa) = 72.21937 84.28138 78.25038
# Shear Modulus (GPa) = 13.81116 33.50345 23.65731
#
# Velocity S-wave (km/s) = 2.66334 4.14817 3.48573
# Velocity P-wave (km/s) = 6.82272 8.13817 7.50930
#
# Compressibility (1/GPa) = 0.01384670
#
# Stress axis : x y z
#
# Youngs Moduli (GPa) = 14.35812 14.35812 143.34806
#
# Poissons Ratio (x) = 0.85922 0.45652
# Poissons Ratio (y) = 0.85922 0.45652
# Poissons Ratio (z) = 0.04573 0.04573
#
# Static dielectric constant tensor:
#      x y z
#    x 1.708670 0.000000 0.000000 
#    y 0.000000 1.708670 0.000000 
#    z 0.000000 0.000000 1.668280 
# 
# From -- ./inp_files/10531.got.cif
#   From: 2010.05.17/outbox.cif.g08.bks.cpg/sg134_6_cif.got.tgz:10531.got - 2010.05.20 12:42:49.
