data_PCOD9568462
_publ_section_title
;
Structure prediction by ZEFSAII (Michael W. Deem and Ramdas Pophale) SiO2 
 PCOD9568462
Probable space group: P 42/N N M
;
_chemical_formula_sum "Si O2"
_cell_formula_units_Z 80
_cell_length_a 26.531699
_cell_length_b 26.531699
_cell_length_c 5.641899
_cell_angle_alpha 90.000000
_cell_angle_beta 90.000000
_cell_angle_gamma 90.000000
_cell_volume 3971.507897
_symmetry_space_group_name_H-M "P 42/N N M"
_symmetry_group_IT_number 134
_space_group.IT_coordinate_system_code '2'
_symmetry_cell_setting 'tetragonal'
loop_
_space_group_symop_operation_xyz
x,y,z
1/2-y,x,1/2+z
1/2-x,1/2-y,z
y,1/2-x,1/2+z
x,1/2-y,1/2-z
1/2-x,y,1/2-z
y,x,-z
1/2-y,1/2-x,-z
-x,-y,-z
1/2+y,-x,1/2-z
1/2+x,1/2+y,-z
-y,1/2+x,1/2-z
-x,1/2+y,1/2+z
1/2+x,-y,1/2+z
-y,-x,z
1/2+y,1/2+x,z
loop_
_atom_site_type_symbol
_atom_site_label
_atom_site_fract_x
_atom_site_fract_y
_atom_site_fract_z
Si Si1 0.600672 0.899329 0.500000
Si Si2 0.163261 0.540538 0.933260
Si Si3 0.189933 0.689933 0.231795
Si Si4 0.054885 0.198683 0.137977
Si Si5 0.146589 0.646589 0.727308
Si Si6 0.750000 0.013825 0.750000
Si Si7 0.070182 0.493423 0.192737
O O1 0.654938 0.904621 0.383309
O O2 0.596365 0.950018 0.655970
O O3 0.176200 0.488876 0.802137
O O4 0.156488 0.586994 0.757517
O O5 0.211933 0.547989 0.099527
O O6 0.112543 0.528766 0.076680
O O7 0.181119 0.750000 0.250000
O O8 0.165520 0.665520 0.470741
O O9 0.170590 0.670590 0.971893
O O10 0.075389 0.250000 0.250000
O O11 0.023923 0.215808 0.905762
O O12 0.030957 0.530957 0.321641
O O13 0.037697 0.462304 0.000000
#
# Coordination Sequence:
#
# PCOD9568462 Si02
#       7
#     8  16   8  16   8   8  16
#     4  12  21  38  68  90 125 186 218 266 344 405
#     4  11  23  41  61  97 133 173 221 272 338 411
#     4  11  28  52  74  98 125 172 246 311 364 418
#     4  10  23  39  61  94 131 164 220 275 327 402
#     4  12  28  43  75  98 138 182 230 287 365 420
#     4  10  22  40  62  86 132 170 214 278 330 400
#     4  11  22  38  58  91 135 170 214 264 318 404
#
# _framework density 20.143483
#
# number of rings (size 3 to 8) (size 9 to 14) (size 15 to 20)
#    0.000    1.100    5.000    0.900    4.200    4.000 
#    1.800    0.000    0.000    0.000    0.000    2.100 
#    0.000    0.000    0.000    0.000    0.000    0.000 
#
# Total GULP energy -446734.050448 kJ/mol
# GULP energy per Si atom -5584.175631 kJ/mol
# Density = 2.009764 g / cm^3
# Si number density = 20.143483 Si / 1000 Ang^3
#
#
#
# Elastic Constant Matrix: (Units=GPa)
#
#
# Indices 1 2 3 4 5 6 
#
# 1 112.0324 64.3708 26.5751 0.0000 0.0000 0.0000
# 2 64.3708 112.0361 26.5743 0.0000 0.0000 0.0000
# 3 26.5751 26.5743 57.6101 0.0000 0.0000 0.0000
# 4 0.0000 0.0000 0.0000 28.2960 0.0000 0.0000
# 5 0.0000 0.0000 0.0000 0.0000 28.2951 0.0000
# 6 0.0000 0.0000 0.0000 0.0000 0.0000 28.4366
#
#
#
# Elastic Compliance Matrix: (Units=1/GPa)
#
#
# Indices 1 2 3 4 5 6 
#
# 1 0.013782 -0.007198 -0.003037 0.000000 0.000000 0.000000
# 2 -0.007198 0.013782 -0.003037 0.000000 0.000000 0.000000
# 3 -0.003037 -0.003037 0.020160 0.000000 0.000000 0.000000
# 4 0.000000 0.000000 0.000000 0.035341 0.000000 0.000000
# 5 0.000000 0.000000 0.000000 0.000000 0.035342 0.000000
# 6 0.000000 0.000000 0.000000 0.000000 0.000000 0.035166
#
#
# Mechanical properties :
#
#
# Convention : Reuss Voigt Hill
#
# Bulk Modulus (GPa) = 47.21552 57.41323 52.31437
# Shear Modulus (GPa) = 26.71266 27.94942 27.33104
#
# Velocity S-wave (km/s) = 3.64554 3.72898 3.68750
# Velocity P-wave (km/s) = 6.41954 6.86326 6.64511
#
# Compressibility (1/GPa) = 0.02117948
#
# Stress axis : x y z
#
# Youngs Moduli (GPa) = 72.55624 72.55947 49.60334
#
# Poissons Ratio (x) = 0.52231 0.15066
# Poissons Ratio (y) = 0.52228 0.15063
# Poissons Ratio (z) = 0.22038 0.22034
#
# Static dielectric constant tensor:
#      x y z
#    x 1.765540 0.000000 0.000000 
#    y 0.000000 1.765540 0.000000 
#    z 0.000000 0.000000 1.816330 
# 
# From -- ./inp_files/1206.got.cif
#   From: 2010.05.17/outbox.cif.g08.bks.cpg/sg134_1_cif.got.tgz:1206.got - 2010.05.20 12:42:49.
