data_PCOD9568617
_publ_section_title
;
Structure prediction by ZEFSAII (Michael W. Deem and Ramdas Pophale) SiO2 
 PCOD9568617
Probable space group: P 42/M B C
;
_chemical_formula_sum "Si O2"
_cell_formula_units_Z 36
_cell_length_a 12.064225
_cell_length_b 12.064225
_cell_length_c 9.412133
_cell_angle_alpha 90.000000
_cell_angle_beta 90.000000
_cell_angle_gamma 90.000000
_cell_volume 1369.893837
_symmetry_space_group_name_H-M "P 42/M B C"
_symmetry_group_IT_number 135
_symmetry_cell_setting 'tetragonal'
loop_
_space_group_symop_operation_xyz
x,y,z
-y,x,1/2+z
-x,-y,z
y,-x,1/2+z
1/2+x,1/2-y,-z
1/2-x,1/2+y,-z
1/2+y,1/2+x,1/2-z
1/2-y,1/2-x,1/2-z
-x,-y,-z
y,-x,1/2-z
x,y,-z
-y,x,1/2-z
1/2-x,1/2+y,z
1/2+x,1/2-y,z
1/2-y,1/2-x,1/2+z
1/2+y,1/2+x,1/2+z
loop_
_atom_site_type_symbol
_atom_site_label
_atom_site_fract_x
_atom_site_fract_y
_atom_site_fract_z
Si Si1 0.297151 0.202850 0.750000
Si Si2 0.000000 0.500000 0.250000
Si Si3 0.052565 0.345789 0.500000
Si Si4 0.380027 0.700623 0.000000
Si Si5 0.109081 0.829123 0.000000
O O1 0.309401 0.305863 0.639346
O O2 0.252532 0.115459 0.634861
O O3 0.996665 0.393112 0.355789
O O4 0.169272 0.409002 0.500000
O O5 0.086672 0.215447 0.500000
O O6 0.486239 0.624115 0.000000
#
# Coordination Sequence:
#
# PCOD9568617 Si02
#       5
#     8   4   8   8   8
#     4   8  19  39  60  94 129 165 232 278 327 401
#     4  10  18  32  56  78 126 162 188 276 326 368
#     4   9  18  32  52  88 120 159 211 253 325 390
#     4  10  19  37  65  91 133 174 210 282 332 389
#     4  10  19  37  63  89 131 178 221 273 329 398
#
# _framework density 26.279408
#
# number of rings (size 3 to 8) (size 9 to 14) (size 15 to 20)
#    0.000    3.111    0.000    5.333    0.000    1.778 
#    0.000    8.889    0.000    4.000    0.000    0.000 
#    0.000    0.000    0.000    0.000    0.000    0.000 
#
# Total GULP energy -200633.173523 kJ/mol
# GULP energy per Si atom -5573.143709 kJ/mol
# Density = 2.621960 g / cm^3
# Si number density = 26.279408 Si / 1000 Ang^3
#
#
#
# Elastic Constant Matrix: (Units=GPa)
#
#
# Indices 1 2 3 4 5 6 
#
# 1 115.3103 35.3295 35.5169 0.0000 0.0000 0.0000
# 2 35.3295 115.3102 35.5165 0.0000 0.0000 0.0000
# 3 35.5169 35.5165 237.7481 0.0000 0.0000 0.0000
# 4 0.0000 0.0000 0.0000 8.3921 0.0000 0.0000
# 5 0.0000 0.0000 0.0000 0.0000 8.3922 0.0000
# 6 0.0000 0.0000 0.0000 0.0000 0.0000 33.2206
#
#
#
# Elastic Compliance Matrix: (Units=1/GPa)
#
#
# Indices 1 2 3 4 5 6 
#
# 1 0.009822 -0.002681 -0.001067 0.000000 0.000000 0.000000
# 2 -0.002681 0.009822 -0.001067 0.000000 0.000000 0.000000
# 3 -0.001067 -0.001067 0.004525 0.000000 0.000000 0.000000
# 4 0.000000 0.000000 0.000000 0.119159 0.000000 0.000000
# 5 0.000000 0.000000 0.000000 0.000000 0.119158 0.000000
# 6 0.000000 0.000000 0.000000 0.000000 0.000000 0.030102
#
#
# Mechanical properties :
#
#
# Convention : Reuss Voigt Hill
#
# Bulk Modulus (GPa) = 68.77414 75.67715 72.22565
# Shear Modulus (GPa) = 16.28325 34.13471 25.20898
#
# Velocity S-wave (km/s) = 2.49192 3.60796 3.10056
# Velocity P-wave (km/s) = 5.87424 6.79824 6.35306
#
# Compressibility (1/GPa) = 0.01454035
#
# Stress axis : x y z
#
# Youngs Moduli (GPa) = 101.81002 101.81011 221.00037
#
# Poissons Ratio (x) = 0.27293 0.23578
# Poissons Ratio (y) = 0.27293 0.23577
# Poissons Ratio (z) = 0.10862 0.10861
#
# Static dielectric constant tensor:
#      x y z
#    x 2.433010 0.000000 0.000000 
#    y 0.000000 2.432990 0.000000 
#    z 0.000000 0.000000 2.351920 
# 
# From -- ./inp_files/456.got.cif
#   From: 2010.05.17/outbox.cif.g08.bks.cpg/sg135_1_cif.got.tgz:456.got - 2010.05.20 12:50:20.
