data_PCOD9568097
_publ_section_title
;
Structure prediction by ZEFSAII (Michael W. Deem and Ramdas Pophale) SiO2 
 PCOD9568097
Probable space group: P 42/N N M
;
_chemical_formula_sum "Si O2"
_cell_formula_units_Z 48
_cell_length_a 10.394104
_cell_length_b 10.394104
_cell_length_c 23.911026
_cell_angle_alpha 90.000000
_cell_angle_beta 90.000000
_cell_angle_gamma 90.000000
_cell_volume 2583.285032
_symmetry_space_group_name_H-M "P 42/N N M"
_symmetry_group_IT_number 134
_space_group.IT_coordinate_system_code '2'
_symmetry_cell_setting 'tetragonal'
loop_
_space_group_symop_operation_xyz
x,y,z
1/2-y,x,1/2+z
1/2-x,1/2-y,z
y,1/2-x,1/2+z
x,1/2-y,1/2-z
1/2-x,y,1/2-z
y,x,-z
1/2-y,1/2-x,-z
-x,-y,-z
1/2+y,-x,1/2-z
1/2+x,1/2+y,-z
-y,1/2+x,1/2-z
-x,1/2+y,1/2+z
1/2+x,-y,1/2+z
-y,-x,z
1/2+y,1/2+x,z
loop_
_atom_site_type_symbol
_atom_site_label
_atom_site_fract_x
_atom_site_fract_y
_atom_site_fract_z
Si Si1 0.292868 0.998876 0.983289
Si Si2 0.756764 0.465070 0.813795
Si Si3 0.081748 0.125710 0.912303
O O1 0.217052 0.069554 0.933140
O O2 0.360284 0.860284 0.973694
O O3 0.405926 0.094075 0.000000
O O4 0.195805 0.009371 0.035809
O O5 0.750000 0.512421 0.750000
O O6 0.648383 0.351618 0.817522
O O7 0.891800 0.391800 0.824299
O O8 0.721119 0.570209 0.859978
O O9 0.999446 0.000555 0.897639
#
# Coordination Sequence:
#
# PCOD9568097 Si02
#       3
#    16  16  16
#     4  10  20  32  45  63  95 134 164 197 243 294
#     4   8  14  25  42  67  99 129 156 194 246 299
#     4  10  18  28  47  72  96 124 162 204 244 294
#
# _framework density 18.580992999999999
#
# number of rings (size 3 to 8) (size 9 to 14) (size 15 to 20)
#    0.000    2.667    0.000    6.000    0.000    4.000 
#    0.000    0.000    0.000    4.000    0.000    0.000 
#    0.000   10.667    0.000   73.333    0.000    1.333 
#
# Total GULP energy -267242.963677 kJ/mol
# GULP energy per Si atom -5567.561743 kJ/mol
# Density = 1.853870 g / cm^3
# Si number density = 18.580993 Si / 1000 Ang^3
#
#
#
# Elastic Constant Matrix: (Units=GPa)
#
#
# Indices 1 2 3 4 5 6 
#
# 1 93.6352 42.1899 50.2338 0.0000 0.0000 0.0000
# 2 42.1899 93.6359 50.2338 0.0000 0.0000 0.0000
# 3 50.2338 50.2338 124.3341 0.0000 0.0000 0.0000
# 4 0.0000 0.0000 0.0000 15.3965 0.0000 0.0000
# 5 0.0000 0.0000 0.0000 0.0000 15.3919 0.0000
# 6 0.0000 0.0000 0.0000 0.0000 0.0000 37.3440
#
#
#
# Elastic Compliance Matrix: (Units=1/GPa)
#
#
# Indices 1 2 3 4 5 6 
#
# 1 0.014969 -0.004469 -0.004242 0.000000 0.000000 0.000000
# 2 -0.004469 0.014969 -0.004242 0.000000 0.000000 0.000000
# 3 -0.004242 -0.004242 0.011471 0.000000 0.000000 0.000000
# 4 0.000000 0.000000 0.000000 0.064950 0.000000 0.000000
# 5 0.000000 0.000000 0.000000 0.000000 0.064969 0.000000
# 6 0.000000 0.000000 0.000000 0.000000 0.000000 0.026778
#
#
# Mechanical properties :
#
#
# Convention : Reuss Voigt Hill
#
# Bulk Modulus (GPa) = 64.50733 66.32446 65.41590
# Shear Modulus (GPa) = 21.81684 24.88968 23.35326
#
# Velocity S-wave (km/s) = 3.43030 3.66392 3.54903
# Velocity P-wave (km/s) = 7.10503 7.32607 7.21640
#
# Compressibility (1/GPa) = 0.01550211
#
# Stress axis : x y z
#
# Youngs Moduli (GPa) = 66.80351 66.80415 87.17710
#
# Poissons Ratio (x) = 0.29853 0.36984
# Poissons Ratio (y) = 0.29853 0.36984
# Poissons Ratio (z) = 0.28341 0.28341
#
# Static dielectric constant tensor:
#      x y z
#    x 1.688160 0.000000 0.000000 
#    y 0.000000 1.688160 0.000000 
#    z 0.000000 0.000000 1.667890 
# 
# From -- ./inp_files/9658.got.cif
#   From: 2010.05.17/outbox.cif.g08.bks.cpg/sg134_5_cif.got.tgz:9658.got - 2010.05.20 12:42:49.
