data_PCOD9568354
_publ_section_title
;
Structure prediction by ZEFSAII (Michael W. Deem and Ramdas Pophale) SiO2 
 PCOD9568354
Probable space group: P 42/N N M
;
_chemical_formula_sum "Si O2"
_cell_formula_units_Z 76
_cell_length_a 10.771287
_cell_length_b 10.771287
_cell_length_c 33.999503
_cell_angle_alpha 90.000000
_cell_angle_beta 90.000000
_cell_angle_gamma 90.000000
_cell_volume 3944.643541
_symmetry_space_group_name_H-M "P 42/N N M"
_symmetry_group_IT_number 134
_space_group.IT_coordinate_system_code '2'
_symmetry_cell_setting 'tetragonal'
loop_
_space_group_symop_operation_xyz
x,y,z
1/2-y,x,1/2+z
1/2-x,1/2-y,z
y,1/2-x,1/2+z
x,1/2-y,1/2-z
1/2-x,y,1/2-z
y,x,-z
1/2-y,1/2-x,-z
-x,-y,-z
1/2+y,-x,1/2-z
1/2+x,1/2+y,-z
-y,1/2+x,1/2-z
-x,1/2+y,1/2+z
1/2+x,-y,1/2+z
-y,-x,z
1/2+y,1/2+x,z
loop_
_atom_site_type_symbol
_atom_site_label
_atom_site_fract_x
_atom_site_fract_y
_atom_site_fract_z
Si Si1 0.149373 0.042561 0.694509
Si Si2 0.250000 0.250000 0.250000
Si Si3 0.785090 0.892176 0.625187
Si Si4 0.080613 0.580613 0.470492
Si Si5 0.032589 0.532589 0.379280
Si Si6 0.838452 0.956478 0.535384
Si Si7 0.147182 0.852819 0.835548
O O1 0.173521 0.159035 0.722038
O O2 0.095384 0.097185 0.653613
O O3 0.272202 0.957938 0.687179
O O4 0.049096 0.950905 0.712857
O O5 0.750000 0.750000 0.632494
O O6 0.813582 0.904048 0.578838
O O7 0.668542 0.983511 0.634590
O O8 0.044090 0.544090 0.426118
O O9 0.223835 0.545525 0.475399
O O10 0.000000 0.500000 0.500000
O O11 0.930149 0.430149 0.367726
O O12 0.859701 0.859701 0.500000
O O13 0.961737 0.038264 0.538744
O O14 0.250000 0.750000 0.849005
#
# Coordination Sequence:
#
# PCOD9568354 Si02
#       7
#    16   4  16   8   8  16   8
#     4  11  24  42  67  98 128 163 204 256 311 366
#     4  12  24  44  66  94 122 168 204 250 302 372
#     4  11  21  39  64  90 124 162 206 254 308 374
#     4  10  23  35  56  82 117 160 207 254 306 365
#     4  10  20  37  60  89 117 165 210 248 305 368
#     4  10  23  39  59  86 120 159 204 258 309 368
#     4  10  20  38  63  95 127 153 197 252 308 369
#
# _framework density 19.266631
#
# number of rings (size 3 to 8) (size 9 to 14) (size 15 to 20)
#    0.000    1.474    3.158    0.947    7.368    0.000 
#    1.895    2.632    0.000    0.000    0.000    0.000 
#    0.000    0.000    0.000    0.000    0.000    0.000 
#
# Total GULP energy -423849.962797 kJ/mol
# GULP energy per Si atom -5576.973195 kJ/mol
# Density = 1.922278 g / cm^3
# Si number density = 19.266631 Si / 1000 Ang^3
#
#
#
# Elastic Constant Matrix: (Units=GPa)
#
#
# Indices 1 2 3 4 5 6 
#
# 1 104.7747 58.3765 41.5014 0.0000 0.0000 0.0000
# 2 58.3765 104.7747 41.5014 0.0000 0.0000 0.0000
# 3 41.5014 41.5014 67.7811 0.0000 0.0000 0.0000
# 4 0.0000 0.0000 0.0000 -6.7062 0.0000 0.0000
# 5 0.0000 0.0000 0.0000 0.0000 -6.7062 0.0000
# 6 0.0000 0.0000 0.0000 0.0000 0.0000 37.8039
#
#
#
# Elastic Compliance Matrix: (Units=1/GPa)
#
#
# Indices 1 2 3 4 5 6 
#
# 1 0.015227 -0.006325 -0.005451 0.000000 0.000000 0.000000
# 2 -0.006325 0.015227 -0.005451 0.000000 0.000000 0.000000
# 3 -0.005451 -0.005451 0.021428 0.000000 0.000000 0.000000
# 4 0.000000 0.000000 0.000000 -0.149116 0.000000 0.000000
# 5 0.000000 0.000000 0.000000 0.000000 -0.149116 0.000000
# 6 0.000000 0.000000 0.000000 0.000000 0.000000 0.026452
#
#
# Mechanical properties :
#
#
# Convention : Reuss Voigt Hill
#
# Bulk Modulus (GPa) = 57.37292 62.23211 59.80251
# Shear Modulus (GPa) = -27.83454 13.94174 -6.94640
#
# Velocity S-wave (km/s) = -3.80505 2.69294 -1.90085
# Velocity P-wave (km/s) = 3.24631 6.48381 5.12730
#
# Compressibility (1/GPa) = 0.01742983
#
# Stress axis : x y z
#
# Youngs Moduli (GPa) = 65.67094 65.67094 46.66743
#
# Poissons Ratio (x) = 0.41537 0.25437
# Poissons Ratio (y) = 0.41537 0.25437
# Poissons Ratio (z) = 0.35796 0.35796
#
# Static dielectric constant tensor:
#      x y z
#    x 1.687040 0.000000 0.000000 
#    y 0.000000 1.687040 0.000000 
#    z 0.000000 0.000000 1.695520 
# 
# From -- ./inp_files/11386.got.cif
#   From: 2010.05.17/outbox.cif.g08.bks.cpg/sg134_6_cif.got.tgz:11386.got - 2010.05.20 12:42:49.
