data_PCOD9568528
_publ_section_title
;
Structure prediction by ZEFSAII (Michael W. Deem and Ramdas Pophale) SiO2 
 PCOD9568528
Probable space group: P 42/N N M
;
_chemical_formula_sum "Si O2"
_cell_formula_units_Z 68
_cell_length_a 11.451359
_cell_length_b 11.451359
_cell_length_c 25.021648
_cell_angle_alpha 90.000000
_cell_angle_beta 90.000000
_cell_angle_gamma 90.000000
_cell_volume 3281.179354
_symmetry_space_group_name_H-M "P 42/N N M"
_symmetry_group_IT_number 134
_space_group.IT_coordinate_system_code '2'
_symmetry_cell_setting 'tetragonal'
loop_
_space_group_symop_operation_xyz
x,y,z
1/2-y,x,1/2+z
1/2-x,1/2-y,z
y,1/2-x,1/2+z
x,1/2-y,1/2-z
1/2-x,y,1/2-z
y,x,-z
1/2-y,1/2-x,-z
-x,-y,-z
1/2+y,-x,1/2-z
1/2+x,1/2+y,-z
-y,1/2+x,1/2-z
-x,1/2+y,1/2+z
1/2+x,-y,1/2+z
-y,-x,z
1/2+y,1/2+x,z
loop_
_atom_site_type_symbol
_atom_site_label
_atom_site_fract_x
_atom_site_fract_y
_atom_site_fract_z
Si Si1 0.478553 0.334210 0.921188
Si Si2 0.904640 0.600273 0.118509
Si Si3 0.250000 0.750000 0.922766
Si Si4 0.942352 0.244448 0.186579
Si Si5 0.012396 0.240601 0.039603
O O1 0.582815 0.417186 0.902362
O O2 0.440493 0.235221 0.879492
O O3 0.370672 0.414603 0.939878
O O4 0.515943 0.273635 0.977289
O O5 0.799621 0.553691 0.156513
O O6 0.852735 0.583781 0.058878
O O7 0.015145 0.515145 0.126688
O O8 0.250851 0.607816 0.929184
O O9 0.964287 0.250000 0.250000
O O10 0.882816 0.117185 0.175073
O O11 0.835846 0.335846 0.175970
#
# Coordination Sequence:
#
# PCOD9568528 Si02
#       5
#    16  16   4  16  16
#     4  11  23  39  52  75 124 169 194 238 290 344
#     4  11  23  32  55  88 115 154 202 237 282 360
#     4  12  20  34  66  80 101 152 208 257 296 340
#     4   8  16  32  55  85 122 153 185 246 313 354
#     4  11  22  38  55  82 112 153 205 250 293 340
#
# _framework density 20.724257000000001
#
# number of rings (size 3 to 8) (size 9 to 14) (size 15 to 20)
#    0.000    1.647    3.529    2.824    3.294    3.294 
#    0.000    0.000    0.000    2.824    0.000    0.000 
#    3.529    0.000    0.706    1.882    0.000    0.000 
#
# Total GULP energy -378630.208861 kJ/mol
# GULP energy per Si atom -5568.091307 kJ/mol
# Density = 2.067709 g / cm^3
# Si number density = 20.724257 Si / 1000 Ang^3
#
#
#
# Elastic Constant Matrix: (Units=GPa)
#
#
# Indices 1 2 3 4 5 6 
#
# 1 138.0781 27.1402 29.9917 0.0000 0.0000 0.0000
# 2 27.1402 138.0781 29.9917 0.0000 0.0000 0.0000
# 3 29.9917 29.9917 81.8216 0.0000 0.0000 0.0000
# 4 0.0000 0.0000 0.0000 18.2714 0.0000 0.0000
# 5 0.0000 0.0000 0.0000 0.0000 18.2714 0.0000
# 6 0.0000 0.0000 0.0000 0.0000 0.0000 41.1444
#
#
#
# Elastic Compliance Matrix: (Units=1/GPa)
#
#
# Indices 1 2 3 4 5 6 
#
# 1 0.007998 -0.001016 -0.002559 0.000000 0.000000 0.000000
# 2 -0.001016 0.007998 -0.002559 0.000000 0.000000 0.000000
# 3 -0.002559 -0.002559 0.014098 0.000000 0.000000 0.000000
# 4 0.000000 0.000000 0.000000 0.054730 0.000000 0.000000
# 5 0.000000 0.000000 0.000000 0.000000 0.054730 0.000000
# 6 0.000000 0.000000 0.000000 0.000000 0.000000 0.024305
#
#
# Mechanical properties :
#
#
# Convention : Reuss Voigt Hill
#
# Bulk Modulus (GPa) = 56.10206 59.13612 57.61909
# Shear Modulus (GPa) = 27.46205 33.59438 30.52822
#
# Velocity S-wave (km/s) = 3.64416 4.03055 3.84222
# Velocity P-wave (km/s) = 6.69597 7.08923 6.89541
#
# Compressibility (1/GPa) = 0.01782466
#
# Stress axis : x y z
#
# Youngs Moduli (GPa) = 125.03307 125.03307 70.93290
#
# Poissons Ratio (x) = 0.12706 0.18153
# Poissons Ratio (y) = 0.12706 0.18153
# Poissons Ratio (z) = 0.31998 0.31998
#
# Static dielectric constant tensor:
#      x y z
#    x 1.788200 0.000000 0.000000 
#    y 0.000000 1.788200 0.000000 
#    z 0.000000 0.000000 1.853670 
# 
# From -- ./inp_files/10661.got.cif
#   From: 2010.05.17/outbox.cif.g08.bks.cpg/sg134_6_cif.got.tgz:10661.got - 2010.05.20 12:42:49.
