data_PCOD9568275
_publ_section_title
;
Structure prediction by ZEFSAII (Michael W. Deem and Ramdas Pophale) SiO2 
 PCOD9568275
Probable space group: P 42/N N M
;
_chemical_formula_sum "Si O2"
_cell_formula_units_Z 68
_cell_length_a 11.381247
_cell_length_b 11.381247
_cell_length_c 26.891373
_cell_angle_alpha 90.000000
_cell_angle_beta 90.000000
_cell_angle_gamma 90.000000
_cell_volume 3483.314391
_symmetry_space_group_name_H-M "P 42/N N M"
_symmetry_group_IT_number 134
_space_group.IT_coordinate_system_code '2'
_symmetry_cell_setting 'tetragonal'
loop_
_space_group_symop_operation_xyz
x,y,z
1/2-y,x,1/2+z
1/2-x,1/2-y,z
y,1/2-x,1/2+z
x,1/2-y,1/2-z
1/2-x,y,1/2-z
y,x,-z
1/2-y,1/2-x,-z
-x,-y,-z
1/2+y,-x,1/2-z
1/2+x,1/2+y,-z
-y,1/2+x,1/2-z
-x,1/2+y,1/2+z
1/2+x,-y,1/2+z
-y,-x,z
1/2+y,1/2+x,z
loop_
_atom_site_type_symbol
_atom_site_label
_atom_site_fract_x
_atom_site_fract_y
_atom_site_fract_z
Si Si1 0.793340 0.018286 0.611616
Si Si2 0.755054 0.444530 0.497752
Si Si3 0.221642 0.111659 0.593141
Si Si4 0.405697 0.094220 0.324246
Si Si5 0.750000 0.750000 0.250000
O O1 0.860266 0.139735 0.620254
O O2 0.744026 0.018301 0.555274
O O3 0.886902 0.911494 0.612835
O O4 0.690120 0.990426 0.649589
O O5 0.647408 0.352593 0.492620
O O6 0.873788 0.373788 0.486273
O O7 0.734695 0.548754 0.459425
O O8 0.250000 0.250000 0.589182
O O9 0.312377 0.058644 0.632907
O O10 0.334498 0.168233 0.283349
O O11 0.515245 0.015245 0.307238
#
# Coordination Sequence:
#
# PCOD9568275 Si02
#       5
#    16  16  16  16   4
#     4  10  20  37  60  90 128 167 208 253 307 372
#     4  10  20  33  53  86 129 171 212 252 293 357
#     4  10  20  37  56  87 122 165 208 245 301 366
#     4  11  24  43  68  91 119 157 203 262 322 383
#     4  12  24  52  64  98 120 156 208 268 340 390
#
# _framework density 19.521636999999998
#
# number of rings (size 3 to 8) (size 9 to 14) (size 15 to 20)
#    0.000    1.647    3.529    2.824    0.000   10.824 
#    0.000    5.882    0.000    3.176    0.000    0.000 
#    0.000    0.000    0.000    0.000    0.000    0.000 
#
# Total GULP energy -379930.798840 kJ/mol
# GULP energy per Si atom -5587.217630 kJ/mol
# Density = 1.947720 g / cm^3
# Si number density = 19.521637 Si / 1000 Ang^3
#
#
#
# Elastic Constant Matrix: (Units=GPa)
#
#
# Indices 1 2 3 4 5 6 
#
# 1 64.6454 45.5083 37.4643 0.0000 0.0000 0.0000
# 2 45.5083 64.6454 37.4643 0.0000 0.0000 0.0000
# 3 37.4643 37.4643 86.3708 0.0000 0.0000 0.0000
# 4 0.0000 0.0000 0.0000 40.3560 0.0000 0.0000
# 5 0.0000 0.0000 0.0000 0.0000 40.3560 0.0000
# 6 0.0000 0.0000 0.0000 0.0000 0.0000 35.6387
#
#
#
# Elastic Compliance Matrix: (Units=1/GPa)
#
#
# Indices 1 2 3 4 5 6 
#
# 1 0.032566 -0.019688 -0.005586 0.000000 0.000000 0.000000
# 2 -0.019688 0.032566 -0.005586 0.000000 0.000000 0.000000
# 3 -0.005586 -0.005586 0.016424 0.000000 0.000000 0.000000
# 4 0.000000 0.000000 0.000000 0.024779 0.000000 0.000000
# 5 0.000000 0.000000 0.000000 0.000000 0.024779 0.000000
# 6 0.000000 0.000000 0.000000 0.000000 0.000000 0.028059
#
#
# Mechanical properties :
#
#
# Convention : Reuss Voigt Hill
#
# Bulk Modulus (GPa) = 50.41350 50.72616 50.56983
# Shear Modulus (GPa) = 21.97737 29.61847 25.79792
#
# Velocity S-wave (km/s) = 3.35893 3.89937 3.63919
# Velocity P-wave (km/s) = 6.39716 6.80547 6.60447
#
# Compressibility (1/GPa) = 0.01983596
#
# Stress axis : x y z
#
# Youngs Moduli (GPa) = 30.70671 30.70671 60.88698
#
# Poissons Ratio (x) = 0.60456 0.34011
# Poissons Ratio (y) = 0.60456 0.34011
# Poissons Ratio (z) = 0.17152 0.17152
#
# Static dielectric constant tensor:
#      x y z
#    x 1.720680 0.000000 0.000000 
#    y 0.000000 1.720680 0.000000 
#    z 0.000000 0.000000 1.661430 
# 
# From -- ./inp_files/10599.got.cif
#   From: 2010.05.17/outbox.cif.g08.bks.cpg/sg134_6_cif.got.tgz:10599.got - 2010.05.20 12:42:49.
