data_PCOD9568118
_publ_section_title
;
Structure prediction by ZEFSAII (Michael W. Deem and Ramdas Pophale) SiO2 
 PCOD9568118
Probable space group: P 42/N N M
;
_chemical_formula_sum "Si O2"
_cell_formula_units_Z 112
_cell_length_a 14.264158
_cell_length_b 14.264158
_cell_length_c 30.828301
_cell_angle_alpha 90.000000
_cell_angle_beta 90.000000
_cell_angle_gamma 90.000000
_cell_volume 6272.517363
_symmetry_space_group_name_H-M "P 42/N N M"
_symmetry_group_IT_number 134
_space_group.IT_coordinate_system_code '2'
_symmetry_cell_setting 'tetragonal'
loop_
_space_group_symop_operation_xyz
x,y,z
1/2-y,x,1/2+z
1/2-x,1/2-y,z
y,1/2-x,1/2+z
x,1/2-y,1/2-z
1/2-x,y,1/2-z
y,x,-z
1/2-y,1/2-x,-z
-x,-y,-z
1/2+y,-x,1/2-z
1/2+x,1/2+y,-z
-y,1/2+x,1/2-z
-x,1/2+y,1/2+z
1/2+x,-y,1/2+z
-y,-x,z
1/2+y,1/2+x,z
loop_
_atom_site_type_symbol
_atom_site_label
_atom_site_fract_x
_atom_site_fract_y
_atom_site_fract_z
Si Si1 0.471730 0.120543 0.836965
Si Si2 0.973899 0.879588 0.853245
Si Si3 0.418254 0.072426 0.936181
Si Si4 0.643343 0.729770 0.699083
Si Si5 0.217930 0.451837 0.459115
Si Si6 0.536356 0.182484 0.632906
Si Si7 0.561134 0.804439 0.554098
O O1 0.440786 0.092513 0.885727
O O2 0.378967 0.125398 0.808888
O O3 0.519488 0.221237 0.842545
O O4 0.544712 0.044712 0.820332
O O5 0.932385 0.792772 0.826380
O O6 0.985272 0.850037 0.903666
O O7 0.891860 0.957547 0.852503
O O8 0.068623 0.931378 0.837958
O O9 0.441662 0.169684 0.960779
O O10 0.306998 0.060034 0.939603
O O11 0.484666 0.984666 0.949181
O O12 0.750000 0.750000 0.682941
O O13 0.639875 0.750000 0.750000
O O14 0.196144 0.518714 0.418651
O O15 0.164825 0.353069 0.448433
O O16 0.179777 0.481680 0.506199
O O17 0.636398 0.136398 0.640381
#
# Coordination Sequence:
#
# PCOD9568118 Si02
#       7
#    16  16  16  16  16  16  16
#     4  10  20  35  57  84 112 147 186 228 278 334
#     4  10  20  35  58  84 111 146 184 228 284 336
#     4  10  19  30  48  74 105 143 189 235 280 327
#     4  11  22  38  62  88 112 139 178 230 283 337
#     4   9  19  29  46  76 106 147 191 233 276 326
#     4   9  18  33  53  79 116 154 186 225 272 327
#     4  10  18  31  49  72 108 145 187 235 281 325
#
# _framework density 17.855668999999999
#
# number of rings (size 3 to 8) (size 9 to 14) (size 15 to 20)
#    0.000    2.143    2.857    0.857    0.000    3.714 
#    0.000    2.857    0.000    1.714    0.000    3.000 
#    0.000    0.000    0.000    0.000    0.000    0.000 
#
# Total GULP energy -624318.491727 kJ/mol
# GULP energy per Si atom -5574.272248 kJ/mol
# Density = 1.781503 g / cm^3
# Si number density = 17.855669 Si / 1000 Ang^3
#
#
#
# Elastic Constant Matrix: (Units=GPa)
#
#
# Indices 1 2 3 4 5 6 
#
# 1 99.3757 79.4961 36.5963 0.0000 0.0000 0.0000
# 2 79.4961 99.3757 36.5963 0.0000 0.0000 0.0000
# 3 36.5963 36.5963 55.1636 0.0000 0.0000 0.0000
# 4 0.0000 0.0000 0.0000 11.1255 0.0000 0.0000
# 5 0.0000 0.0000 0.0000 0.0000 11.1255 0.0000
# 6 0.0000 0.0000 0.0000 0.0000 0.0000 27.2504
#
#
#
# Elastic Compliance Matrix: (Units=1/GPa)
#
#
# Indices 1 2 3 4 5 6 
#
# 1 0.028988 -0.021315 -0.005091 0.000000 0.000000 0.000000
# 2 -0.021315 0.028988 -0.005091 0.000000 0.000000 0.000000
# 3 -0.005091 -0.005091 0.024883 0.000000 0.000000 0.000000
# 4 0.000000 0.000000 0.000000 0.089884 0.000000 0.000000
# 5 0.000000 0.000000 0.000000 0.000000 0.089884 0.000000
# 6 0.000000 0.000000 0.000000 0.000000 0.000000 0.036697
#
#
# Mechanical properties :
#
#
# Convention : Reuss Voigt Hill
#
# Bulk Modulus (GPa) = 50.33568 62.14358 56.23963
# Shear Modulus (GPa) = 13.55241 16.64870 15.10056
#
# Velocity S-wave (km/s) = 2.75798 3.05684 2.91125
# Velocity P-wave (km/s) = 6.19624 6.88025 6.54719
#
# Compressibility (1/GPa) = 0.01986662
#
# Stress axis : x y z
#
# Youngs Moduli (GPa) = 34.49668 34.49668 40.18873
#
# Poissons Ratio (x) = 0.73528 0.20460
# Poissons Ratio (y) = 0.73528 0.20460
# Poissons Ratio (z) = 0.17562 0.17562
#
# Static dielectric constant tensor:
#      x y z
#    x 1.604780 0.000000 0.000000 
#    y 0.000000 1.604780 0.000000 
#    z 0.000000 0.000000 1.627540 
# 
# From -- ./inp_files/11673.got.cif
#   From: 2010.05.17/outbox.cif.g08.bks.cpg/sg134_6_cif.got.tgz:11673.got - 2010.05.20 12:42:49.
