data_PCOD9568302
_publ_section_title
;
Structure prediction by ZEFSAII (Michael W. Deem and Ramdas Pophale) SiO2 
 PCOD9568302
Probable space group: P 42/N N M
;
_chemical_formula_sum "Si O2"
_cell_formula_units_Z 128
_cell_length_a 24.084960
_cell_length_b 24.084960
_cell_length_c 12.230620
_cell_angle_alpha 90.000000
_cell_angle_beta 90.000000
_cell_angle_gamma 90.000000
_cell_volume 7094.802850
_symmetry_space_group_name_H-M "P 42/N N M"
_symmetry_group_IT_number 134
_space_group.IT_coordinate_system_code '2'
_symmetry_cell_setting 'tetragonal'
loop_
_space_group_symop_operation_xyz
x,y,z
1/2-y,x,1/2+z
1/2-x,1/2-y,z
y,1/2-x,1/2+z
x,1/2-y,1/2-z
1/2-x,y,1/2-z
y,x,-z
1/2-y,1/2-x,-z
-x,-y,-z
1/2+y,-x,1/2-z
1/2+x,1/2+y,-z
-y,1/2+x,1/2-z
-x,1/2+y,1/2+z
1/2+x,-y,1/2+z
-y,-x,z
1/2+y,1/2+x,z
loop_
_atom_site_type_symbol
_atom_site_label
_atom_site_fract_x
_atom_site_fract_y
_atom_site_fract_z
Si Si1 0.096858 0.322238 0.567318
Si Si2 0.609672 0.018371 0.263241
Si Si3 0.498422 0.693177 0.574257
Si Si4 0.307025 0.896602 0.318567
Si Si5 0.420734 0.392005 0.716229
Si Si6 0.685066 0.025840 0.467002
Si Si7 0.885042 0.805594 0.469742
Si Si8 0.461129 0.626176 0.366136
O O1 0.143004 0.356997 0.500000
O O2 0.088904 0.350542 0.683914
O O3 0.111122 0.256857 0.575373
O O4 0.036072 0.326056 0.512576
O O5 0.553776 0.053776 0.247181
O O6 0.637642 0.036513 0.377646
O O7 0.652922 0.026616 0.164659
O O8 0.601063 0.951877 0.254330
O O9 0.478797 0.755567 0.592138
O O10 0.565886 0.692544 0.561894
O O11 0.477861 0.671139 0.456551
O O12 0.250000 0.889950 0.250000
O O13 0.338137 0.838137 0.336371
O O14 0.307190 0.930961 0.432611
O O15 0.344171 0.932411 0.235536
O O16 0.398446 0.356011 0.613754
O O17 0.484136 0.402044 0.681340
O O18 0.822309 0.822309 0.500000
O O19 0.419081 0.580920 0.413728
#
# Coordination Sequence:
#
# PCOD9568302 Si02
#       8
#    16  16  16  16  16  16  16  16
#     4  11  22  38  60  83 117 159 202 250 306 359
#     4  12  24  38  59  89 128 162 196 244 303 365
#     4  10  21  38  61  82 120 162 205 244 292 354
#     4  11  22  39  63  92 122 152 197 250 304 367
#     4  11  21  38  56  89 122 155 195 247 312 367
#     4  11  22  40  61  87 121 163 203 245 292 361
#     4  10  21  38  61  85 114 153 204 262 296 345
#     4  10  20  34  59  89 116 151 198 247 298 361
#
# _framework density 18.041374999999999
#
# number of rings (size 3 to 8) (size 9 to 14) (size 15 to 20)
#    0.000    1.250    5.000    1.875    0.000    0.375 
#    0.000    3.125    0.000    1.500    0.000    0.000 
#    0.000    2.000    0.000    0.000    0.000    0.000 
#
# Total GULP energy -713144.281932 kJ/mol
# GULP energy per Si atom -5571.439703 kJ/mol
# Density = 1.800031 g / cm^3
# Si number density = 18.041375 Si / 1000 Ang^3
#
#
#
# Elastic Constant Matrix: (Units=GPa)
#
#
# Indices 1 2 3 4 5 6 
#
# 1 80.8988 27.1571 27.8765 0.0000 0.0000 0.0000
# 2 27.1571 80.8955 27.8761 0.0000 0.0000 0.0000
# 3 27.8765 27.8761 64.3847 0.0000 0.0000 0.0000
# 4 0.0000 0.0000 0.0000 23.2273 0.0000 0.0000
# 5 0.0000 0.0000 0.0000 0.0000 23.2280 0.0000
# 6 0.0000 0.0000 0.0000 0.0000 0.0000 27.8722
#
#
#
# Elastic Compliance Matrix: (Units=1/GPa)
#
#
# Indices 1 2 3 4 5 6 
#
# 1 0.015262 -0.003346 -0.005159 0.000000 0.000000 0.000000
# 2 -0.003346 0.015263 -0.005160 0.000000 0.000000 0.000000
# 3 -0.005159 -0.005160 0.019999 0.000000 0.000000 0.000000
# 4 0.000000 0.000000 0.000000 0.043053 0.000000 0.000000
# 5 0.000000 0.000000 0.000000 0.000000 0.043051 0.000000
# 6 0.000000 0.000000 0.000000 0.000000 0.000000 0.035878
#
#
# Mechanical properties :
#
#
# Convention : Reuss Voigt Hill
#
# Bulk Modulus (GPa) = 43.11309 43.55539 43.33424
# Shear Modulus (GPa) = 24.08853 24.41680 24.25267
#
# Velocity S-wave (km/s) = 3.65798 3.68282 3.67042
# Velocity P-wave (km/s) = 6.46450 6.50220 6.48338
#
# Compressibility (1/GPa) = 0.02319481
#
# Stress axis : x y z
#
# Youngs Moduli (GPa) = 65.52169 65.51897 50.00140
#
# Poissons Ratio (x) = 0.21920 0.25798
# Poissons Ratio (y) = 0.21921 0.25799
# Poissons Ratio (z) = 0.33806 0.33805
#
# Static dielectric constant tensor:
#      x y z
#    x 1.623550 0.000000 0.000000 
#    y 0.000000 1.623550 0.000000 
#    z 0.000000 0.000000 1.617800 
# 
# From -- ./inp_files/5314.got.cif
#   From: 2010.05.17/outbox.cif.g08.bks.cpg/sg134_3_cif.got.tgz:5314.got - 2010.05.20 12:42:49.
