data_PCOD9568960
_publ_section_title
;
Structure prediction by ZEFSAII (Michael W. Deem and Ramdas Pophale) SiO2 
 PCOD9568960
Probable space group: P 42/M B C
;
_chemical_formula_sum "Si O2"
_cell_formula_units_Z 88
_cell_length_a 15.028178
_cell_length_b 15.028178
_cell_length_c 22.333222
_cell_angle_alpha 90.000000
_cell_angle_beta 90.000000
_cell_angle_gamma 90.000000
_cell_volume 5043.871848
_symmetry_space_group_name_H-M "P 42/M B C"
_symmetry_group_IT_number 135
_symmetry_cell_setting 'tetragonal'
loop_
_space_group_symop_operation_xyz
x,y,z
-y,x,1/2+z
-x,-y,z
y,-x,1/2+z
1/2+x,1/2-y,-z
1/2-x,1/2+y,-z
1/2+y,1/2+x,1/2-z
1/2-y,1/2-x,1/2-z
-x,-y,-z
y,-x,1/2-z
x,y,-z
-y,x,1/2-z
1/2-x,1/2+y,z
1/2+x,1/2-y,z
1/2-y,1/2-x,1/2+z
1/2+y,1/2+x,1/2+z
loop_
_atom_site_type_symbol
_atom_site_label
_atom_site_fract_x
_atom_site_fract_y
_atom_site_fract_z
Si Si1 0.288181 0.179005 0.342735
Si Si2 0.787884 0.954378 0.135418
Si Si3 0.808823 0.691178 0.750000
Si Si4 0.627162 0.343719 0.569342
Si Si5 0.594966 0.523236 0.370074
Si Si6 0.006836 0.757721 0.229607
O O1 0.385104 0.207091 0.366392
O O2 0.239028 0.257420 0.305098
O O3 0.221415 0.164895 0.397816
O O4 0.292463 0.092233 0.299301
O O5 0.875609 0.907602 0.108747
O O6 0.800396 0.966678 0.206880
O O7 0.786978 0.050747 0.104015
O O8 0.792628 0.585712 0.742885
O O9 0.629030 0.320616 0.500000
O O10 0.604104 0.448053 0.579462
O O11 0.500000 0.500000 0.341237
O O12 0.668903 0.512724 0.320160
#
# Coordination Sequence:
#
# PCOD9568960 Si02
#       6
#    16  16   8  16  16  16
#     4  11  21  37  59  85 119 151 193 247 290 354
#     4  11  20  33  57  84 114 151 185 240 293 342
#     4  12  20  36  61  87 124 148 194 232 304 354
#     4  10  23  39  54  82 118 157 198 236 287 354
#     4   9  20  29  54  83 113 145 177 236 293 345
#     4  11  20  33  55  88 119 149 187 238 293 351
#
# _framework density 17.446915000000001
#
# number of rings (size 3 to 8) (size 9 to 14) (size 15 to 20)
#    0.000    1.455    5.455    0.000    5.091    4.000 
#    0.000    1.818    0.000    0.000    0.000    1.273 
#    0.000    0.000    0.000    0.000    0.000    0.000 
#
# Total GULP energy -490155.596102 kJ/mol
# GULP energy per Si atom -5569.949956 kJ/mol
# Density = 1.740720 g / cm^3
# Si number density = 17.446915 Si / 1000 Ang^3
#
#
#
# Elastic Constant Matrix: (Units=GPa)
#
#
# Indices 1 2 3 4 5 6 
#
# 1 53.6127 17.1526 4.3390 0.0000 0.0000 0.0000
# 2 17.1526 53.6123 4.3391 0.0000 0.0000 0.0000
# 3 4.3390 4.3391 74.8669 0.0000 0.0000 0.0000
# 4 0.0000 0.0000 0.0000 17.4170 0.0000 0.0000
# 5 0.0000 0.0000 0.0000 0.0000 17.4168 0.0000
# 6 0.0000 0.0000 0.0000 0.0000 0.0000 28.7887
#
#
#
# Elastic Compliance Matrix: (Units=1/GPa)
#
#
# Indices 1 2 3 4 5 6 
#
# 1 0.020830 -0.006597 -0.000825 0.000000 0.000000 0.000000
# 2 -0.006597 0.020830 -0.000825 0.000000 0.000000 0.000000
# 3 -0.000825 -0.000825 0.013453 0.000000 0.000000 0.000000
# 4 0.000000 0.000000 0.000000 0.057415 0.000000 0.000000
# 5 0.000000 0.000000 0.000000 0.000000 0.057416 0.000000
# 6 0.000000 0.000000 0.000000 0.000000 0.000000 0.034736
#
#
# Mechanical properties :
#
#
# Convention : Reuss Voigt Hill
#
# Bulk Modulus (GPa) = 25.89465 25.97259 25.93362
# Shear Modulus (GPa) = 21.36329 23.14191 22.25260
#
# Velocity S-wave (km/s) = 3.50304 3.64595 3.57521
# Velocity P-wave (km/s) = 5.58891 5.71340 5.65150
#
# Compressibility (1/GPa) = 0.03861802
#
# Stress axis : x y z
#
# Youngs Moduli (GPa) = 48.00813 48.00771 74.33477
#
# Poissons Ratio (x) = 0.31673 0.06132
# Poissons Ratio (y) = 0.31673 0.06132
# Poissons Ratio (z) = 0.03960 0.03960
#
# Static dielectric constant tensor:
#      x y z
#    x 1.629020 0.000000 0.000000 
#    y 0.000000 1.629020 0.000000 
#    z 0.000000 0.000000 1.573690 
# 
# From -- ./inp_files/5302.got.cif
#   From: 2010.05.17/outbox.cif.g08.bks.cpg/sg135_3_cif.got.tgz:5302.got - 2010.05.20 12:50:20.
