data_PCOD9568328
_publ_section_title
;
Structure prediction by ZEFSAII (Michael W. Deem and Ramdas Pophale) SiO2 
 PCOD9568328
Probable space group: P 42/N N M
;
_chemical_formula_sum "Si O2"
_cell_formula_units_Z 72
_cell_length_a 25.846026
_cell_length_b 25.846026
_cell_length_c 5.127568
_cell_angle_alpha 90.000000
_cell_angle_beta 90.000000
_cell_angle_gamma 90.000000
_cell_volume 3425.302900
_symmetry_space_group_name_H-M "P 42/N N M"
_symmetry_group_IT_number 134
_space_group.IT_coordinate_system_code '2'
_symmetry_cell_setting 'tetragonal'
loop_
_space_group_symop_operation_xyz
x,y,z
1/2-y,x,1/2+z
1/2-x,1/2-y,z
y,1/2-x,1/2+z
x,1/2-y,1/2-z
1/2-x,y,1/2-z
y,x,-z
1/2-y,1/2-x,-z
-x,-y,-z
1/2+y,-x,1/2-z
1/2+x,1/2+y,-z
-y,1/2+x,1/2-z
-x,1/2+y,1/2+z
1/2+x,-y,1/2+z
-y,-x,z
1/2+y,1/2+x,z
loop_
_atom_site_type_symbol
_atom_site_label
_atom_site_fract_x
_atom_site_fract_y
_atom_site_fract_z
Si Si1 0.409925 0.676844 0.026806
Si Si2 0.445232 0.395348 0.754228
Si Si3 0.361191 0.189072 0.740650
Si Si4 0.949430 0.138607 0.486240
Si Si5 0.250000 0.667783 0.750000
O O1 0.374838 0.625162 0.039339
O O2 0.452371 0.664360 0.800900
O O3 0.370108 0.720718 0.944005
O O4 0.430869 0.683050 0.315989
O O5 0.418359 0.418359 0.500000
O O6 0.414638 0.342070 0.810994
O O7 0.502506 0.385003 0.646205
O O8 0.433484 0.433484 0.000000
O O9 0.370049 0.250000 0.750000
O O10 0.324159 0.175842 0.500000
O O11 0.334210 0.165791 0.000000
O O12 0.906717 0.093284 0.461231
O O13 0.205928 0.705928 0.865829
#
# Coordination Sequence:
#
# PCOD9568328 Si02
#       5
#    16  16  16  16   8
#     4   9  19  35  53  78 111 144 182 236 288 327
#     4  10  21  37  57  81 114 146 181 231 277 325
#     4  10  21  37  56  80 110 141 174 220 265 317
#     4  10  20  36  57  80 113 148 185 233 281 334
#     4   9  18  36  60  84 114 156 204 248 293 344
#
# _framework density 21.020040999999999
#
# number of rings (size 3 to 8) (size 9 to 14) (size 15 to 20)
#    0.000    2.333    0.000    2.000    0.000    3.111 
#    4.000    3.333    0.000    9.333    0.000    0.000 
#    0.000    0.000    0.000    0.000    0.000    0.000 
#
# Total GULP energy -401276.605665 kJ/mol
# GULP energy per Si atom -5573.286190 kJ/mol
# Density = 2.097220 g / cm^3
# Si number density = 21.020041 Si / 1000 Ang^3
#
#
#
# Elastic Constant Matrix: (Units=GPa)
#
#
# Indices 1 2 3 4 5 6 
#
# 1 32.3410 21.3828 7.1515 0.0000 0.0000 0.0000
# 2 21.3828 32.3447 7.1596 0.0000 0.0000 0.0000
# 3 7.1515 7.1596 99.2785 0.0000 0.0000 0.0000
# 4 0.0000 0.0000 0.0000 20.8868 0.0000 0.0000
# 5 0.0000 0.0000 0.0000 0.0000 20.8836 0.0000
# 6 0.0000 0.0000 0.0000 0.0000 0.0000 13.0100
#
#
#
# Elastic Compliance Matrix: (Units=1/GPa)
#
#
# Indices 1 2 3 4 5 6 
#
# 1 0.055111 -0.036132 -0.001364 0.000000 0.000000 0.000000
# 2 -0.036132 0.055107 -0.001371 0.000000 0.000000 0.000000
# 3 -0.001364 -0.001371 0.010270 0.000000 0.000000 0.000000
# 4 0.000000 0.000000 0.000000 0.047877 0.000000 0.000000
# 5 0.000000 0.000000 0.000000 0.000000 0.047885 0.000000
# 6 0.000000 0.000000 0.000000 0.000000 0.000000 0.076864
#
#
# Mechanical properties :
#
#
# Convention : Reuss Voigt Hill
#
# Bulk Modulus (GPa) = 23.38992 26.15023 24.77007
# Shear Modulus (GPa) = 12.98369 19.50743 16.24556
#
# Velocity S-wave (km/s) = 2.48802 3.04968 2.78305
# Velocity P-wave (km/s) = 4.40514 4.98682 4.70497
#
# Compressibility (1/GPa) = 0.04275346
#
# Stress axis : x y z
#
# Youngs Moduli (GPa) = 18.14514 18.14660 97.37242
#
# Poissons Ratio (x) = 0.65566 0.13284
# Poissons Ratio (y) = 0.65561 0.13353
# Poissons Ratio (z) = 0.02475 0.02489
#
# Static dielectric constant tensor:
#      x y z
#    x 1.739750 0.000000 0.000000 
#    y 0.000000 1.739750 0.000000 
#    z 0.000000 0.000000 1.791550 
# 
# From -- ./inp_files/1070.got.cif
#   From: 2010.05.17/outbox.cif.g08.bks.cpg/sg134_1_cif.got.tgz:1070.got - 2010.05.20 12:42:49.
