data_PCOD9568295
_publ_section_title
;
Structure prediction by ZEFSAII (Michael W. Deem and Ramdas Pophale) SiO2 
 PCOD9568295
Probable space group: P 42/N N M
;
_chemical_formula_sum "Si O2"
_cell_formula_units_Z 64
_cell_length_a 12.808235
_cell_length_b 12.808235
_cell_length_c 23.387598
_cell_angle_alpha 90.000000
_cell_angle_beta 90.000000
_cell_angle_gamma 90.000000
_cell_volume 3836.756122
_symmetry_space_group_name_H-M "P 42/N N M"
_symmetry_group_IT_number 134
_space_group.IT_coordinate_system_code '2'
_symmetry_cell_setting 'tetragonal'
loop_
_space_group_symop_operation_xyz
x,y,z
1/2-y,x,1/2+z
1/2-x,1/2-y,z
y,1/2-x,1/2+z
x,1/2-y,1/2-z
1/2-x,y,1/2-z
y,x,-z
1/2-y,1/2-x,-z
-x,-y,-z
1/2+y,-x,1/2-z
1/2+x,1/2+y,-z
-y,1/2+x,1/2-z
-x,1/2+y,1/2+z
1/2+x,-y,1/2+z
-y,-x,z
1/2+y,1/2+x,z
loop_
_atom_site_type_symbol
_atom_site_label
_atom_site_fract_x
_atom_site_fract_y
_atom_site_fract_z
Si Si1 0.669446 0.169446 0.380433
Si Si2 0.013761 0.812824 0.692230
Si Si3 0.189583 0.987816 0.484688
Si Si4 0.587657 0.087657 0.494305
Si Si5 0.824140 0.646647 0.090876
O O1 0.750000 0.250000 0.410604
O O2 0.738257 0.093931 0.341880
O O3 0.606545 0.106545 0.427119
O O4 0.988581 0.750000 0.750000
O O5 0.079072 0.920929 0.701939
O O6 0.913937 0.824198 0.650925
O O7 0.095190 0.904811 0.493205
O O8 0.301911 0.939178 0.478924
O O9 0.172716 0.059042 0.429274
O O10 0.202867 0.063421 0.540309
O O11 0.500000 0.000000 0.500000
O O12 0.750000 0.750000 0.089493
#
# Coordination Sequence:
#
# PCOD9568295 Si02
#       5
#     8  16  16   8  16
#     4  10  20  34  56  86 120 143 185 238 293 342
#     4  11  21  36  59  86 114 148 190 239 294 348
#     4  11  21  36  56  81 113 155 195 233 286 345
#     4  12  22  34  56  86 118 152 189 234 293 354
#     4  11  22  36  54  80 117 152 187 233 291 348
#
# _framework density 16.680757
#
# number of rings (size 3 to 8) (size 9 to 14) (size 15 to 20)
#    0.000    1.000    3.750    7.125    0.000    0.500 
#    0.000    0.000    0.000    0.000    0.000    0.000 
#    0.000    0.000    0.000    0.000    0.000    0.000 
#
# Total GULP energy -356751.876091 kJ/mol
# GULP energy per Si atom -5574.248064 kJ/mol
# Density = 1.664279 g / cm^3
# Si number density = 16.680757 Si / 1000 Ang^3
#
#
#
# Elastic Constant Matrix: (Units=GPa)
#
#
# Indices 1 2 3 4 5 6 
#
# 1 127.4762 80.0792 59.2633 0.0000 0.0000 0.0000
# 2 80.0792 127.4762 59.2633 0.0000 0.0000 0.0000
# 3 59.2633 59.2633 118.2642 0.0000 0.0000 0.0000
# 4 0.0000 0.0000 0.0000 30.1602 0.0000 0.0000
# 5 0.0000 0.0000 0.0000 0.0000 30.1602 0.0000
# 6 0.0000 0.0000 0.0000 0.0000 0.0000 47.8815
#
#
#
# Elastic Compliance Matrix: (Units=1/GPa)
#
#
# Indices 1 2 3 4 5 6 
#
# 1 0.013924 -0.007174 -0.003382 0.000000 0.000000 0.000000
# 2 -0.007174 0.013924 -0.003382 0.000000 0.000000 0.000000
# 3 -0.003382 -0.003382 0.011845 0.000000 0.000000 0.000000
# 4 0.000000 0.000000 0.000000 0.033156 0.000000 0.000000
# 5 0.000000 0.000000 0.000000 0.000000 0.033156 0.000000
# 6 0.000000 0.000000 0.000000 0.000000 0.000000 0.020885
#
#
# Mechanical properties :
#
#
# Convention : Reuss Voigt Hill
#
# Bulk Modulus (GPa) = 84.63529 85.60313 85.11921
# Shear Modulus (GPa) = 31.50461 33.28108 32.39284
#
# Velocity S-wave (km/s) = 4.35061 4.47159 4.41151
# Velocity P-wave (km/s) = 8.72270 8.83686 8.77996
#
# Compressibility (1/GPa) = 0.01181540
#
# Stress axis : x y z
#
# Youngs Moduli (GPa) = 71.81889 71.81889 84.42120
#
# Poissons Ratio (x) = 0.51526 0.28553
# Poissons Ratio (y) = 0.51526 0.28553
# Poissons Ratio (z) = 0.24291 0.24291
#
# Static dielectric constant tensor:
#      x y z
#    x 1.517150 0.000000 0.000000 
#    y 0.000000 1.517150 0.000000 
#    z 0.000000 0.000000 1.556610 
# 
# From -- ./inp_files/9830.got.cif
#   From: 2010.05.17/outbox.cif.g08.bks.cpg/sg134_5_cif.got.tgz:9830.got - 2010.05.20 12:42:49.
