data_PCOD9568708
_publ_section_title
;
Structure prediction by ZEFSAII (Michael W. Deem and Ramdas Pophale) SiO2 
 PCOD9568708
Probable space group: P 42/M B C
;
_chemical_formula_sum "Si O2"
_cell_formula_units_Z 112
_cell_length_a 14.332599
_cell_length_b 14.332599
_cell_length_c 27.307662
_cell_angle_alpha 90.000000
_cell_angle_beta 90.000000
_cell_angle_gamma 90.000000
_cell_volume 5609.632613
_symmetry_space_group_name_H-M "P 42/M B C"
_symmetry_group_IT_number 135
_symmetry_cell_setting 'tetragonal'
loop_
_space_group_symop_operation_xyz
x,y,z
-y,x,1/2+z
-x,-y,z
y,-x,1/2+z
1/2+x,1/2-y,-z
1/2-x,1/2+y,-z
1/2+y,1/2+x,1/2-z
1/2-y,1/2-x,1/2-z
-x,-y,-z
y,-x,1/2-z
x,y,-z
-y,x,1/2-z
1/2-x,1/2+y,z
1/2+x,1/2-y,z
1/2-y,1/2-x,1/2+z
1/2+y,1/2+x,1/2+z
loop_
_atom_site_type_symbol
_atom_site_label
_atom_site_fract_x
_atom_site_fract_y
_atom_site_fract_z
Si Si1 0.142337 0.766100 0.276270
Si Si2 0.614778 0.200770 0.603502
Si Si3 0.122184 0.784122 0.943462
Si Si4 0.687986 0.661474 0.626941
Si Si5 0.082791 0.707544 0.557705
Si Si6 0.305759 0.427235 0.203698
Si Si7 0.400467 0.519291 0.635152
O O1 0.170207 0.670207 0.250000
O O2 0.185389 0.760207 0.330998
O O3 0.192446 0.848527 0.245316
O O4 0.031769 0.784805 0.278277
O O5 0.657072 0.284519 0.570125
O O6 0.708195 0.138652 0.608581
O O7 0.515054 0.173000 0.580662
O O8 0.593682 0.236566 0.658349
O O9 0.141589 0.673910 0.936275
O O10 0.051102 0.826435 0.904975
O O11 0.097232 0.798951 0.000000
O O12 0.618733 0.698302 0.584711
O O13 0.640216 0.576355 0.654694
O O14 0.069672 0.722818 0.500000
O O15 0.406510 0.419219 0.177328
O O16 0.500000 0.500000 0.610651
#
# Coordination Sequence:
#
# PCOD9568708 Si02
#       7
#    16  16  16  16  16  16  16
#     4  12  23  39  63  91 125 167 207 260 315 382
#     4  10  19  36  58  83 118 156 205 254 302 373
#     4   9  20  35  56  85 117 157 203 251 313 378
#     4  11  21  37  58  90 121 156 208 256 319 379
#     4  10  20  38  61  82 117 164 209 258 314 376
#     4  11  23  37  60  89 120 160 203 248 315 377
#     4  11  21  36  58  87 124 154 191 260 319 379
#
# _framework density 19.965658000000001
#
# number of rings (size 3 to 8) (size 9 to 14) (size 15 to 20)
#    0.000    1.429    4.286    2.143    0.000    1.429 
#    0.000    0.714    0.000    2.143    0.000    0.000 
#    0.000    0.000    0.000    0.000    0.000    0.000 
#
# Total GULP energy -624348.942032 kJ/mol
# GULP energy per Si atom -5574.544125 kJ/mol
# Density = 1.992022 g / cm^3
# Si number density = 19.965658 Si / 1000 Ang^3
#
#
#
# Elastic Constant Matrix: (Units=GPa)
#
#
# Indices 1 2 3 4 5 6 
#
# 1 87.8489 24.0274 28.1928 0.0000 0.0000 0.0000
# 2 24.0274 87.8489 28.1928 0.0000 0.0000 0.0000
# 3 28.1928 28.1928 88.4446 0.0000 0.0000 0.0000
# 4 0.0000 0.0000 0.0000 11.4167 0.0000 0.0000
# 5 0.0000 0.0000 0.0000 0.0000 11.4167 0.0000
# 6 0.0000 0.0000 0.0000 0.0000 0.0000 17.2400
#
#
#
# Elastic Compliance Matrix: (Units=1/GPa)
#
#
# Indices 1 2 3 4 5 6 
#
# 1 0.013159 -0.002510 -0.003395 0.000000 0.000000 0.000000
# 2 -0.002510 0.013159 -0.003395 0.000000 0.000000 0.000000
# 3 -0.003395 -0.003395 0.013471 0.000000 0.000000 0.000000
# 4 0.000000 0.000000 0.000000 0.087591 0.000000 0.000000
# 5 0.000000 0.000000 0.000000 0.000000 0.087591 0.000000
# 6 0.000000 0.000000 0.000000 0.000000 0.000000 0.058005
#
#
# Mechanical properties :
#
#
# Convention : Reuss Voigt Hill
#
# Bulk Modulus (GPa) = 47.19009 47.21871 47.20440
# Shear Modulus (GPa) = 16.74277 20.26331 18.50304
#
# Velocity S-wave (km/s) = 2.89896 3.18922 3.04755
# Velocity P-wave (km/s) = 5.90697 6.10433 6.00646
#
# Compressibility (1/GPa) = 0.02119089
#
# Stress axis : x y z
#
# Youngs Moduli (GPa) = 75.99353 75.99353 74.23541
#
# Poissons Ratio (x) = 0.19072 0.25200
# Poissons Ratio (y) = 0.19072 0.25200
# Poissons Ratio (z) = 0.25797 0.25797
#
# Static dielectric constant tensor:
#      x y z
#    x 1.737220 0.000000 0.000000 
#    y 0.000000 1.737220 0.000000 
#    z 0.000000 0.000000 1.728800 
# 
# From -- ./inp_files/6495.got.cif
#   From: 2010.05.17/outbox.cif.g08.bks.cpg/sg135_4_cif.got.tgz:6495.got - 2010.05.20 12:50:20.
