data_PCOD9568607
_publ_section_title
;
Structure prediction by ZEFSAII (Michael W. Deem and Ramdas Pophale) SiO2 
 PCOD9568607
Probable space group: P 42/M B C
;
_chemical_formula_sum "Si O2"
_cell_formula_units_Z 72
_cell_length_a 15.018654
_cell_length_b 15.018654
_cell_length_c 16.785909
_cell_angle_alpha 90.000000
_cell_angle_beta 90.000000
_cell_angle_gamma 90.000000
_cell_volume 3786.229096
_symmetry_space_group_name_H-M "P 42/M B C"
_symmetry_group_IT_number 135
_symmetry_cell_setting 'tetragonal'
loop_
_space_group_symop_operation_xyz
x,y,z
-y,x,1/2+z
-x,-y,z
y,-x,1/2+z
1/2+x,1/2-y,-z
1/2-x,1/2+y,-z
1/2+y,1/2+x,1/2-z
1/2-y,1/2-x,1/2-z
-x,-y,-z
y,-x,1/2-z
x,y,-z
-y,x,1/2-z
1/2-x,1/2+y,z
1/2+x,1/2-y,z
1/2-y,1/2-x,1/2+z
1/2+y,1/2+x,1/2+z
loop_
_atom_site_type_symbol
_atom_site_label
_atom_site_fract_x
_atom_site_fract_y
_atom_site_fract_z
Si Si1 0.090893 0.944641 0.911575
Si Si2 0.383438 0.253153 0.147110
Si Si3 0.944391 0.416510 0.653809
Si Si4 0.020636 0.244425 0.710934
Si Si5 0.716968 0.216968 0.750000
O O1 0.086907 0.836883 0.905503
O O2 0.156735 0.969664 0.840808
O O3 0.125017 0.967243 0.000000
O O4 0.000000 0.000000 0.901271
O O5 0.404996 0.153775 0.117754
O O6 0.439512 0.264651 0.228526
O O7 0.280127 0.257158 0.175297
O O8 0.930939 0.430939 0.750000
O O9 0.000000 0.500000 0.623195
O O10 0.000597 0.326284 0.651793
O O11 0.111590 0.265813 0.758607
#
# Coordination Sequence:
#
# PCOD9568607 Si02
#       5
#    16  16  16  16   8
#     4  10  24  39  52  77 115 152 185 228 283 340
#     4  10  19  33  58  83 112 139 190 229 281 332
#     4   9  16  31  53  85 111 136 173 234 287 321
#     4  10  19  32  59  81 111 140 184 230 277 327
#     4  10  18  30  50  86 110 134 178 230 268 330
#
# _framework density 19.016283000000001
#
# number of rings (size 3 to 8) (size 9 to 14) (size 15 to 20)
#    0.000    2.222    3.333    2.667    6.222    0.000 
#    0.000    1.111    0.000   13.333    0.000    0.000 
#    0.000    0.000    0.000    0.000    0.000    0.000 
#
# Total GULP energy -401181.275453 kJ/mol
# GULP energy per Si atom -5571.962159 kJ/mol
# Density = 1.897300 g / cm^3
# Si number density = 19.016283 Si / 1000 Ang^3
#
#
#
# Elastic Constant Matrix: (Units=GPa)
#
#
# Indices 1 2 3 4 5 6 
#
# 1 93.9973 51.0984 20.3859 0.0000 0.0000 0.0000
# 2 51.0984 93.9973 20.3859 0.0000 0.0000 0.0000
# 3 20.3859 20.3859 33.3612 0.0000 0.0000 0.0000
# 4 0.0000 0.0000 0.0000 -27.6755 0.0000 0.0000
# 5 0.0000 0.0000 0.0000 0.0000 -27.6755 0.0000
# 6 0.0000 0.0000 0.0000 0.0000 0.0000 29.7182
#
#
#
# Elastic Compliance Matrix: (Units=1/GPa)
#
#
# Indices 1 2 3 4 5 6 
#
# 1 0.015816 -0.007495 -0.005085 0.000000 0.000000 0.000000
# 2 -0.007495 0.015816 -0.005085 0.000000 0.000000 0.000000
# 3 -0.005085 -0.005085 0.036189 0.000000 0.000000 0.000000
# 4 0.000000 0.000000 0.000000 -0.036133 0.000000 0.000000
# 5 0.000000 0.000000 0.000000 0.000000 -0.036133 0.000000
# 6 0.000000 0.000000 0.000000 0.000000 0.000000 0.033649
#
#
# Mechanical properties :
#
#
# Convention : Reuss Voigt Hill
#
# Bulk Modulus (GPa) = 30.77651 45.01068 37.89360
# Shear Modulus (GPa) = 66.34617 3.50581 34.92599
#
# Velocity S-wave (km/s) = 5.91311 1.35926 4.29025
# Velocity P-wave (km/s) = 7.92712 5.11707 6.67172
#
# Compressibility (1/GPa) = 0.03249231
#
# Stress axis : x y z
#
# Youngs Moduli (GPa) = 63.22843 63.22843 27.63279
#
# Poissons Ratio (x) = 0.47389 0.14050
# Poissons Ratio (y) = 0.47389 0.14050
# Poissons Ratio (z) = 0.32149 0.32149
#
# Static dielectric constant tensor:
#      x y z
#    x 1.698290 0.000000 0.000000 
#    y 0.000000 1.698290 0.000000 
#    z 0.000000 0.000000 1.625760 
# 
# From -- ./inp_files/4293.got.cif
#   From: 2010.05.17/outbox.cif.g08.bks.cpg/sg135_3_cif.got.tgz:4293.got - 2010.05.20 12:50:20.
