data_PCOD9568931
_publ_section_title
;
Structure prediction by ZEFSAII (Michael W. Deem and Ramdas Pophale) SiO2 
 PCOD9568931
Probable space group: P 42/M B C
;
_chemical_formula_sum "Si O2"
_cell_formula_units_Z 96
_cell_length_a 15.308224
_cell_length_b 15.308224
_cell_length_c 21.196899
_cell_angle_alpha 90.000000
_cell_angle_beta 90.000000
_cell_angle_gamma 90.000000
_cell_volume 4967.317813
_symmetry_space_group_name_H-M "P 42/M B C"
_symmetry_group_IT_number 135
_symmetry_cell_setting 'tetragonal'
loop_
_space_group_symop_operation_xyz
x,y,z
-y,x,1/2+z
-x,-y,z
y,-x,1/2+z
1/2+x,1/2-y,-z
1/2-x,1/2+y,-z
1/2+y,1/2+x,1/2-z
1/2-y,1/2-x,1/2-z
-x,-y,-z
y,-x,1/2-z
x,y,-z
-y,x,1/2-z
1/2-x,1/2+y,z
1/2+x,1/2-y,z
1/2-y,1/2-x,1/2+z
1/2+y,1/2+x,1/2+z
loop_
_atom_site_type_symbol
_atom_site_label
_atom_site_fract_x
_atom_site_fract_y
_atom_site_fract_z
Si Si1 0.527566 0.092025 0.108488
Si Si2 0.500000 0.500000 0.892553
Si Si3 0.636656 0.629647 0.862747
Si Si4 0.401061 0.696222 0.500000
Si Si5 0.114102 0.088280 0.000000
Si Si6 0.917727 0.305586 0.204925
Si Si7 0.583015 0.187131 0.704452
Si Si8 0.200178 0.381939 0.500000
O O1 0.447460 0.128694 0.149623
O O2 0.603774 0.071151 0.159176
O O3 0.563866 0.165275 0.060689
O O4 0.500000 0.000000 0.077757
O O5 0.564866 0.556247 0.850982
O O6 0.556098 0.436594 0.938689
O O7 0.609438 0.717670 0.829175
O O8 0.729996 0.600669 0.837753
O O9 0.646167 0.632958 0.938294
O O10 0.508839 0.688024 0.500000
O O11 0.356649 0.791874 0.500000
O O12 0.133529 0.193492 0.000000
O O13 0.843246 0.343246 0.250000
O O14 0.001145 0.296416 0.250451
O O15 0.663696 0.163696 0.750000
#
# Coordination Sequence:
#
# PCOD9568931 Si02
#       8
#    16   8  16   8   8  16  16   8
#     4  11  22  41  65  95 132 173 218 282 338 405
#     4   9  20  40  67  86 126 176 209 261 336 390
#     4  11  22  42  64  98 128 169 225 277 325 405
#     4  10  23  44  63  98 141 170 217 280 353 394
#     4   9  20  41  65  87 135 179 209 258 341 411
#     4  11  23  40  66  92 128 177 226 269 338 395
#     4  10  22  40  63  88 132 177 212 269 336 390
#     4  12  22  41  68 105 129 177 228 277 337 428
#
# _framework density 19.326326000000002
#
# number of rings (size 3 to 8) (size 9 to 14) (size 15 to 20)
#    0.000    1.500    3.333    2.250    0.000    2.000 
#    9.000    0.000    0.000    0.000    0.000    0.000 
#    0.000    0.000    0.000    0.000    0.000    0.000 
#
# Total GULP energy -535621.144339 kJ/mol
# GULP energy per Si atom -5579.386920 kJ/mol
# Density = 1.928234 g / cm^3
# Si number density = 19.326326 Si / 1000 Ang^3
#
#
#
# Elastic Constant Matrix: (Units=GPa)
#
#
# Indices 1 2 3 4 5 6 
#
# 1 107.8977 50.6427 31.4742 0.0000 0.0000 0.0000
# 2 50.6427 107.8977 31.4742 0.0000 0.0000 0.0000
# 3 31.4742 31.4742 85.9103 0.0000 0.0000 0.0000
# 4 0.0000 0.0000 0.0000 42.2318 0.0000 0.0000
# 5 0.0000 0.0000 0.0000 0.0000 42.2318 0.0000
# 6 0.0000 0.0000 0.0000 0.0000 0.0000 23.3418
#
#
#
# Elastic Compliance Matrix: (Units=1/GPa)
#
#
# Indices 1 2 3 4 5 6 
#
# 1 0.012423 -0.005042 -0.002704 0.000000 0.000000 0.000000
# 2 -0.005042 0.012423 -0.002704 0.000000 0.000000 0.000000
# 3 -0.002704 -0.002704 0.013621 0.000000 0.000000 0.000000
# 4 0.000000 0.000000 0.000000 0.023679 0.000000 0.000000
# 5 0.000000 0.000000 0.000000 0.000000 0.023679 0.000000
# 6 0.000000 0.000000 0.000000 0.000000 0.000000 0.042842
#
#
# Mechanical properties :
#
#
# Convention : Reuss Voigt Hill
#
# Bulk Modulus (GPa) = 56.92441 58.76533 57.84487
# Shear Modulus (GPa) = 32.16989 34.10202 33.13596
#
# Velocity S-wave (km/s) = 4.08433 4.20520 4.14520
# Velocity P-wave (km/s) = 7.19449 7.35195 7.27364
#
# Compressibility (1/GPa) = 0.01756716
#
# Stress axis : x y z
#
# Youngs Moduli (GPa) = 80.49268 80.49268 73.41341
#
# Poissons Ratio (x) = 0.40586 0.19853
# Poissons Ratio (y) = 0.40586 0.19853
# Poissons Ratio (z) = 0.21767 0.21767
#
# Static dielectric constant tensor:
#      x y z
#    x 1.678930 0.000000 0.000000 
#    y 0.000000 1.678930 0.000000 
#    z 0.000000 0.000000 1.671970 
# 
# From -- ./inp_files/5547.got.cif
#   From: 2010.05.17/outbox.cif.g08.bks.cpg/sg135_3_cif.got.tgz:5547.got - 2010.05.20 12:50:20.
