data_PCOD9568396
_publ_section_title
;
Structure prediction by ZEFSAII (Michael W. Deem and Ramdas Pophale) SiO2 
 PCOD9568396
Probable space group: P 42/N N M
;
_chemical_formula_sum "Si O2"
_cell_formula_units_Z 96
_cell_length_a 13.911729
_cell_length_b 13.911729
_cell_length_c 21.647098
_cell_angle_alpha 90.000000
_cell_angle_beta 90.000000
_cell_angle_gamma 90.000000
_cell_volume 4189.497170
_symmetry_space_group_name_H-M "P 42/N N M"
_symmetry_group_IT_number 134
_space_group.IT_coordinate_system_code '2'
_symmetry_cell_setting 'tetragonal'
loop_
_space_group_symop_operation_xyz
x,y,z
1/2-y,x,1/2+z
1/2-x,1/2-y,z
y,1/2-x,1/2+z
x,1/2-y,1/2-z
1/2-x,y,1/2-z
y,x,-z
1/2-y,1/2-x,-z
-x,-y,-z
1/2+y,-x,1/2-z
1/2+x,1/2+y,-z
-y,1/2+x,1/2-z
-x,1/2+y,1/2+z
1/2+x,-y,1/2+z
-y,-x,z
1/2+y,1/2+x,z
loop_
_atom_site_type_symbol
_atom_site_label
_atom_site_fract_x
_atom_site_fract_y
_atom_site_fract_z
Si Si1 0.143223 0.488331 0.424106
Si Si2 0.653394 0.005809 0.268817
Si Si3 0.576781 0.230059 0.823088
Si Si4 0.908744 0.253524 0.027846
Si Si5 0.572472 0.922988 0.861157
Si Si6 0.580220 0.717857 0.888205
O O1 0.044066 0.544066 0.440403
O O2 0.178780 0.537354 0.360405
O O3 0.225755 0.519072 0.472610
O O4 0.126312 0.374077 0.421526
O O5 0.750000 0.061762 0.250000
O O6 0.572957 0.072957 0.298118
O O7 0.614233 0.966291 0.204662
O O8 0.684259 0.924482 0.316978
O O9 0.579289 0.250000 0.750000
O O10 0.678099 0.178099 0.840313
O O11 0.497920 0.152746 0.842634
O O12 0.824605 0.175396 0.024254
O O13 0.856188 0.356188 0.023276
O O14 0.970437 0.234696 0.089112
O O15 0.616069 0.827984 0.893996
O O16 0.484659 0.984659 0.891205
#
# Coordination Sequence:
#
# PCOD9568396 Si02
#       6
#    16  16  16  16  16  16
#     4  11  23  38  58  88 123 154 196 258 314 361
#     4   9  17  29  47  75 111 147 183 228 280 336
#     4  11  23  40  64  90 118 158 204 249 304 367
#     4  10  21  37  58  85 118 158 206 259 312 366
#     4   9  20  38  57  84 121 156 197 249 298 354
#     4  11  20  35  59  84 115 159 201 240 301 376
#
# _framework density 22.914444
#
# number of rings (size 3 to 8) (size 9 to 14) (size 15 to 20)
#    0.000    1.833    0.000    4.500    0.000    6.000 
#    0.000    1.667    0.000    5.000    0.000    0.000 
#    0.000    0.000    0.000    0.000    0.000    0.000 
#
# Total GULP energy -535341.112721 kJ/mol
# GULP energy per Si atom -5576.469924 kJ/mol
# Density = 2.286229 g / cm^3
# Si number density = 22.914444 Si / 1000 Ang^3
#
#
#
# Elastic Constant Matrix: (Units=GPa)
#
#
# Indices 1 2 3 4 5 6 
#
# 1 226.1611 -22.9295 12.8035 0.0000 0.0000 0.0000
# 2 -22.9295 226.1611 12.8035 0.0000 0.0000 0.0000
# 3 12.8035 12.8035 50.5850 0.0000 0.0000 0.0000
# 4 0.0000 0.0000 0.0000 -21.6207 0.0000 0.0000
# 5 0.0000 0.0000 0.0000 0.0000 -21.6207 0.0000
# 6 0.0000 0.0000 0.0000 0.0000 0.0000 22.0096
#
#
#
# Elastic Compliance Matrix: (Units=1/GPa)
#
#
# Indices 1 2 3 4 5 6 
#
# 1 0.004549 0.000534 -0.001286 0.000000 0.000000 0.000000
# 2 0.000534 0.004549 -0.001286 0.000000 0.000000 0.000000
# 3 -0.001286 -0.001286 0.020420 0.000000 0.000000 0.000000
# 4 0.000000 0.000000 0.000000 -0.046252 0.000000 0.000000
# 5 0.000000 0.000000 0.000000 0.000000 -0.046252 0.000000
# 6 0.000000 0.000000 0.000000 0.000000 0.000000 0.045435
#
#
# Mechanical properties :
#
#
# Convention : Reuss Voigt Hill
#
# Bulk Modulus (GPa) = 39.30925 56.47360 47.89143
# Shear Modulus (GPa) = -1001.07155 29.10229 -485.98463
#
# Velocity S-wave (km/s) = -20.92420 3.56763 -14.57899
# Velocity P-wave (km/s) = 23.80274 6.45520 16.20033
#
# Compressibility (1/GPa) = 0.02543930
#
# Stress axis : x y z
#
# Youngs Moduli (GPa) = 219.84813 219.84813 48.97177
#
# Poissons Ratio (x) = -0.11740 0.06300
# Poissons Ratio (y) = -0.11740 0.06300
# Poissons Ratio (z) = 0.28282 0.28282
#
# Static dielectric constant tensor:
#      x y z
#    x 1.928210 0.000000 0.000000 
#    y 0.000000 1.928210 0.000000 
#    z 0.000000 0.000000 1.920750 
# 
# From -- ./inp_files/9135.got.cif
#   From: 2010.05.17/outbox.cif.g08.bks.cpg/sg134_5_cif.got.tgz:9135.got - 2010.05.20 12:42:49.
