data_PCOD9568058
_publ_section_title
;
Structure prediction by ZEFSAII (Michael W. Deem and Ramdas Pophale) SiO2 
 PCOD9568058
Probable space group: P 42/N B C
;
_chemical_formula_sum "Si O2"
_cell_formula_units_Z 112
_cell_length_a 30.000000
_cell_length_b 30.000000
_cell_length_c 6.000000
_cell_angle_alpha 90.000000
_cell_angle_beta 90.000000
_cell_angle_gamma 90.000000
_cell_volume 5400.000000
_symmetry_space_group_name_H-M "P 42/N B C"
_symmetry_group_IT_number 133
_space_group.IT_coordinate_system_code '2'
_symmetry_cell_setting 'tetragonal'
loop_
_space_group_symop_operation_xyz
x,y,z
1/2-y,x,1/2+z
1/2-x,1/2-y,z
y,1/2-x,1/2+z
x,1/2-y,-z
1/2-x,y,-z
y,x,1/2-z
1/2-y,1/2-x,1/2-z
-x,-y,-z
1/2+y,-x,1/2-z
1/2+x,1/2+y,-z
-y,1/2+x,1/2-z
-x,1/2+y,z
1/2+x,-y,z
-y,-x,1/2+z
1/2+y,1/2+x,1/2+z
loop_
_atom_site_type_symbol
_atom_site_label
_atom_site_fract_x
_atom_site_fract_y
_atom_site_fract_z
Si Si1 0.899010 0.371528 0.800807
Si Si2 0.825462 0.799532 0.004290
Si Si3 0.954463 0.708080 0.372820
Si Si4 0.859170 0.905560 0.569674
Si Si5 0.514055 0.858986 0.749774
Si Si6 0.704778 0.460110 0.588855
Si Si7 0.036748 0.949332 0.342565
O O1 0.874028 0.377889 0.557327
O O2 0.925124 0.325312 0.781881
O O3 0.935374 0.411189 0.821186
O O4 0.804390 0.804390 0.750000
O O5 0.858322 0.841947 0.016419
O O6 0.846296 0.750000 0.000000
O O7 0.800856 0.800856 0.250000
O O8 0.934164 0.750000 0.500000
O O9 0.923263 0.684596 0.196322
O O10 0.968566 0.671202 0.550250
O O11 0.999159 0.721482 0.242535
O O12 0.897472 0.897472 0.750000
O O13 0.872080 0.942819 0.394303
O O14 0.490079 0.902839 0.661053
O O15 0.481656 0.828158 0.902142
O O16 0.750000 0.438805 0.500000
O O17 0.030805 0.971214 0.590683
#
# Coordination Sequence:
#
# PCOD9568058 Si02
#       7
#    16  16  16  16  16  16  16
#     4  10  19  33  55  79 122 169 210 248 305 380
#     4  11  26  46  72  99 129 164 209 262 319 380
#     4  11  23  36  62  91 124 161 203 258 324 392
#     4  10  27  42  60  89 122 166 211 256 315 387
#     4  11  22  37  61  86 123 163 203 256 316 383
#     4  11  21  34  52  93 130 162 202 260 323 382
#     4  10  19  34  59  85 116 159 207 249 308 371
#
# _framework density 20.740741
#
# number of rings (size 3 to 8) (size 9 to 14) (size 15 to 20)
#    0.000    1.429    4.286    2.143    8.000    0.857 
#    0.000    0.000    0.000    0.857    0.000    0.000 
#    0.000    1.714    0.000    0.000    0.000    0.000 
#
# Total GULP energy -624465.561894 kJ/mol
# GULP energy per Si atom -5575.585374 kJ/mol
# Density = 2.069353 g / cm^3
# Si number density = 20.740741 Si / 1000 Ang^3
#
#
#
# Elastic Constant Matrix: (Units=GPa)
#
#
# Indices 1 2 3 4 5 6 
#
# 1 24.1937 19.2841 17.5578 0.0000 0.0000 0.0000
# 2 19.2841 24.1937 17.5578 0.0000 0.0000 0.0000
# 3 17.5578 17.5578 135.3679 0.0000 0.0000 0.0000
# 4 0.0000 0.0000 0.0000 16.5376 0.0000 0.0000
# 5 0.0000 0.0000 0.0000 0.0000 16.5376 0.0000
# 6 0.0000 0.0000 0.0000 0.0000 0.0000 12.8653
#
#
#
# Elastic Compliance Matrix: (Units=1/GPa)
#
#
# Indices 1 2 3 4 5 6 
#
# 1 0.114687 -0.088996 -0.003332 0.000000 0.000000 0.000000
# 2 -0.088996 0.114687 -0.003332 0.000000 0.000000 0.000000
# 3 -0.003332 -0.003332 0.008252 0.000000 0.000000 0.000000
# 4 0.000000 0.000000 0.000000 0.060468 0.000000 0.000000
# 5 0.000000 0.000000 0.000000 0.000000 0.060468 0.000000
# 6 0.000000 0.000000 0.000000 0.000000 0.000000 0.077728
#
#
# Mechanical properties :
#
#
# Convention : Reuss Voigt Hill
#
# Bulk Modulus (GPa) = 21.59563 32.50610 27.05086
# Shear Modulus (GPa) = 7.77548 17.81179 12.79364
#
# Velocity S-wave (km/s) = 1.93831 2.93368 2.48631
# Velocity P-wave (km/s) = 3.92990 5.21363 4.61660
#
# Compressibility (1/GPa) = 0.04630567
#
# Stress axis : x y z
#
# Youngs Moduli (GPa) = 8.71936 8.71936 121.18702
#
# Poissons Ratio (x) = 0.77599 0.40383
# Poissons Ratio (y) = 0.77599 0.40383
# Poissons Ratio (z) = 0.02906 0.02906
#
# Static dielectric constant tensor:
#      x y z
#    x 1.718550 0.000000 0.000000 
#    y 0.000000 1.718550 0.000000 
#    z 0.000000 0.000000 1.825720 
# 
# From -- ./inp_files/609.got.cif
#   From: 2010.05.17/outbox.ucp.g08.bks.cvg/sg133_1_cif.got.tgz:609.got - 2010.06.11 11:39:40.
