data_PCOD9568720
_publ_section_title
;
Structure prediction by ZEFSAII (Michael W. Deem and Ramdas Pophale) SiO2 
 PCOD9568720
Probable space group: P 42/M B C
;
_chemical_formula_sum "Si O2"
_cell_formula_units_Z 64
_cell_length_a 13.319248
_cell_length_b 13.319248
_cell_length_c 18.365924
_cell_angle_alpha 90.000000
_cell_angle_beta 90.000000
_cell_angle_gamma 90.000000
_cell_volume 3258.158395
_symmetry_space_group_name_H-M "P 42/M B C"
_symmetry_group_IT_number 135
_symmetry_cell_setting 'tetragonal'
loop_
_space_group_symop_operation_xyz
x,y,z
-y,x,1/2+z
-x,-y,z
y,-x,1/2+z
1/2+x,1/2-y,-z
1/2-x,1/2+y,-z
1/2+y,1/2+x,1/2-z
1/2-y,1/2-x,1/2-z
-x,-y,-z
y,-x,1/2-z
x,y,-z
-y,x,1/2-z
1/2-x,1/2+y,z
1/2+x,1/2-y,z
1/2-y,1/2-x,1/2+z
1/2+y,1/2+x,1/2+z
loop_
_atom_site_type_symbol
_atom_site_label
_atom_site_fract_x
_atom_site_fract_y
_atom_site_fract_z
Si Si1 0.826273 0.326273 0.750000
Si Si2 0.678320 0.628808 0.000000
Si Si3 0.889851 0.181360 0.500000
Si Si4 0.192987 0.260275 0.122670
Si Si5 0.881378 0.505640 0.657008
Si Si6 0.671106 0.917504 0.500000
O O1 0.799316 0.254679 0.683242
O O2 0.822561 0.435685 0.713689
O O3 0.740932 0.666919 0.070528
O O4 0.660413 0.509187 0.000000
O O5 0.586355 0.707360 0.000000
O O6 0.825735 0.146666 0.570087
O O7 0.872574 0.303359 0.500000
O O8 0.114043 0.332933 0.159995
O O9 0.865117 0.468397 0.573949
O O10 0.000000 0.500000 0.670406
#
# Coordination Sequence:
#
# PCOD9568720 Si02
#       6
#     8   8   8  16  16   8
#     4  12  25  42  59  98 140 158 212 262 327 396
#     4  10  19  40  70  89 128 173 212 276 327 377
#     4  10  19  41  65  94 124 175 214 272 333 371
#     4  10  24  40  64  94 135 165 216 277 320 381
#     4  12  24  42  70  98 121 175 222 264 324 387
#     4  10  19  41  64  97 128 154 229 282 302 382
#
# _framework density 19.642997000000001
#
# number of rings (size 3 to 8) (size 9 to 14) (size 15 to 20)
#    0.000    1.500    5.000    3.750    3.500    0.000 
#    0.000    2.500    0.000    0.000    0.000    0.000 
#    0.000    0.000    0.000    0.000    0.000    0.000 
#
# Total GULP energy -357142.397518 kJ/mol
# GULP energy per Si atom -5580.349961 kJ/mol
# Density = 1.959829 g / cm^3
# Si number density = 19.642997 Si / 1000 Ang^3
#
#
#
# Elastic Constant Matrix: (Units=GPa)
#
#
# Indices 1 2 3 4 5 6 
#
# 1 118.3162 38.4197 39.6469 0.0000 0.0000 0.0000
# 2 38.4197 118.3162 39.6469 0.0000 0.0000 0.0000
# 3 39.6469 39.6469 119.6007 0.0000 0.0000 0.0000
# 4 0.0000 0.0000 0.0000 5.3359 0.0000 0.0000
# 5 0.0000 0.0000 0.0000 0.0000 5.3359 0.0000
# 6 0.0000 0.0000 0.0000 0.0000 0.0000 27.7435
#
#
#
# Elastic Compliance Matrix: (Units=1/GPa)
#
#
# Indices 1 2 3 4 5 6 
#
# 1 0.010091 -0.002425 -0.002541 0.000000 0.000000 0.000000
# 2 -0.002425 0.010091 -0.002541 0.000000 0.000000 0.000000
# 3 -0.002541 -0.002541 0.010046 0.000000 0.000000 0.000000
# 4 0.000000 0.000000 0.000000 0.187408 0.000000 0.000000
# 5 0.000000 0.000000 0.000000 0.000000 0.187408 0.000000
# 6 0.000000 0.000000 0.000000 0.000000 0.000000 0.036045
#
#
# Mechanical properties :
#
#
# Convention : Reuss Voigt Hill
#
# Bulk Modulus (GPa) = 65.73413 65.74004 65.73708
# Shear Modulus (GPa) = 10.84187 23.58437 17.21312
#
# Velocity S-wave (km/s) = 2.35190 3.46880 2.96344
# Velocity P-wave (km/s) = 6.39627 7.04155 6.72666
#
# Compressibility (1/GPa) = 0.01521280
#
# Stress axis : x y z
#
# Youngs Moduli (GPa) = 99.09850 99.09850 99.54301
#
# Poissons Ratio (x) = 0.24034 0.25295
# Poissons Ratio (y) = 0.24034 0.25295
# Poissons Ratio (z) = 0.25182 0.25182
#
# Static dielectric constant tensor:
#      x y z
#    x 1.698080 0.000000 0.000000 
#    y 0.000000 1.698080 0.000000 
#    z 0.000000 0.000000 1.714600 
# 
# From -- ./inp_files/4234.got.cif
#   From: 2010.05.17/outbox.cif.g08.bks.cpg/sg135_3_cif.got.tgz:4234.got - 2010.05.20 12:50:20.
