data_PCOD9568054
_publ_section_title
;
Structure prediction by ZEFSAII (Michael W. Deem and Ramdas Pophale) SiO2 
 PCOD9568054
Probable space group: P 42/N B C
;
_chemical_formula_sum "Si O2"
_cell_formula_units_Z 64
_cell_length_a 11.142000
_cell_length_b 11.142000
_cell_length_c 19.865237
_cell_angle_alpha 90.000000
_cell_angle_beta 90.000000
_cell_angle_gamma 90.000000
_cell_volume 2466.153240
_symmetry_space_group_name_H-M "P 42/N B C"
_symmetry_group_IT_number 133
_space_group.IT_coordinate_system_code '2'
_symmetry_cell_setting 'tetragonal'
loop_
_space_group_symop_operation_xyz
x,y,z
1/2-y,x,1/2+z
1/2-x,1/2-y,z
y,1/2-x,1/2+z
x,1/2-y,-z
1/2-x,y,-z
y,x,1/2-z
1/2-y,1/2-x,1/2-z
-x,-y,-z
1/2+y,-x,1/2-z
1/2+x,1/2+y,-z
-y,1/2+x,1/2-z
-x,1/2+y,z
1/2+x,-y,z
-y,-x,1/2+z
1/2+y,1/2+x,1/2+z
loop_
_atom_site_type_symbol
_atom_site_label
_atom_site_fract_x
_atom_site_fract_y
_atom_site_fract_z
Si Si1 0.178265 0.358346 0.642548
Si Si2 0.580315 0.239982 0.645280
Si Si3 0.471554 0.844437 0.776766
Si Si4 0.439330 0.880705 0.036573
O O1 0.250000 0.250000 0.608180
O O2 0.256782 0.420964 0.700248
O O3 0.143421 0.462717 0.593004
O O4 0.056332 0.292670 0.660773
O O5 0.643570 0.112292 0.656855
O O6 0.609830 0.316493 0.711485
O O7 0.592518 0.313563 0.576397
O O8 0.534206 0.965795 0.750000
O O9 0.426421 0.750000 0.000000
O O10 0.500000 0.000000 0.000000
#
# Coordination Sequence:
#
# PCOD9568054 Si02
#       4
#    16  16  16  16
#     4  12  27  52  83 120 168 233 288 361 446 552
#     4  12  27  50  82 126 171 218 295 374 449 541
#     4  12  25  49  83 127 170 221 286 367 472 539
#     4  12  31  59  87 123 175 244 308 370 452 550
#
# _framework density 25.951347999999999
#
# number of rings (size 3 to 8) (size 9 to 14) (size 15 to 20)
#    0.000    0.000    2.500    6.750    3.500    7.000 
#    4.500    0.000    0.000    0.000    0.000    0.000 
#    0.000    0.000    0.000    0.000    0.000    0.000 
#
# Total GULP energy -357622.995022 kJ/mol
# GULP energy per Si atom -5587.859297 kJ/mol
# Density = 2.589228 g / cm^3
# Si number density = 25.951348 Si / 1000 Ang^3
#
#
#
# Elastic Constant Matrix: (Units=GPa)
#
#
# Indices 1 2 3 4 5 6 
#
# 1 168.0963 43.8040 67.1391 0.0000 0.0000 0.0000
# 2 43.8040 168.0959 67.1383 0.0000 0.0000 0.0000
# 3 67.1391 67.1383 143.0294 0.0000 0.0000 0.0000
# 4 0.0000 0.0000 0.0000 3.6707 0.0000 0.0000
# 5 0.0000 0.0000 0.0000 0.0000 3.6723 0.0000
# 6 0.0000 0.0000 0.0000 0.0000 0.0000 61.0535
#
#
#
# Elastic Compliance Matrix: (Units=1/GPa)
#
#
# Indices 1 2 3 4 5 6 
#
# 1 0.007381 -0.000664 -0.003153 0.000000 0.000000 0.000000
# 2 -0.000664 0.007381 -0.003153 0.000000 0.000000 0.000000
# 3 -0.003153 -0.003153 0.009952 0.000000 0.000000 0.000000
# 4 0.000000 0.000000 0.000000 0.272430 0.000000 0.000000
# 5 0.000000 0.000000 0.000000 0.000000 0.272312 0.000000
# 6 0.000000 0.000000 0.000000 0.000000 0.000000 0.016379
#
#
# Mechanical properties :
#
#
# Convention : Reuss Voigt Hill
#
# Bulk Modulus (GPa) = 92.81759 92.82049 92.81904
# Shear Modulus (GPa) = 8.28682 33.75531 21.02107
#
# Velocity S-wave (km/s) = 1.78890 3.61046 2.84917
# Velocity P-wave (km/s) = 6.33329 7.29557 6.83139
#
# Compressibility (1/GPa) = 0.01077382
#
# Stress axis : x y z
#
# Youngs Moduli (GPa) = 135.47508 135.47541 100.48481
#
# Poissons Ratio (x) = 0.08997 0.31684
# Poissons Ratio (y) = 0.08997 0.31684
# Poissons Ratio (z) = 0.42717 0.42717
#
# Static dielectric constant tensor:
#      x y z
#    x 2.149280 0.000000 0.000000 
#    y 0.000000 2.149280 0.000000 
#    z 0.000000 0.000000 2.058400 
# 
# From -- ./inp_files/6133.got.cif
#   From: 2010.05.17/outbox.cif.g08.bks.cpg/sg133_4_cif.got.tgz:6133.got - 2010.05.20 12:37:36.
