data_PCOD9568932
_publ_section_title
;
Structure prediction by ZEFSAII (Michael W. Deem and Ramdas Pophale) SiO2 
 PCOD9568932
Probable space group: P 42/M B C
;
_chemical_formula_sum "Si O2"
_cell_formula_units_Z 72
_cell_length_a 19.727212
_cell_length_b 19.727212
_cell_length_c 9.185289
_cell_angle_alpha 90.000000
_cell_angle_beta 90.000000
_cell_angle_gamma 90.000000
_cell_volume 3574.573643
_symmetry_space_group_name_H-M "P 42/M B C"
_symmetry_group_IT_number 135
_symmetry_cell_setting 'tetragonal'
loop_
_space_group_symop_operation_xyz
x,y,z
-y,x,1/2+z
-x,-y,z
y,-x,1/2+z
1/2+x,1/2-y,-z
1/2-x,1/2+y,-z
1/2+y,1/2+x,1/2-z
1/2-y,1/2-x,1/2-z
-x,-y,-z
y,-x,1/2-z
x,y,-z
-y,x,1/2-z
1/2-x,1/2+y,z
1/2+x,1/2-y,z
1/2-y,1/2-x,1/2+z
1/2+y,1/2+x,1/2+z
loop_
_atom_site_type_symbol
_atom_site_label
_atom_site_fract_x
_atom_site_fract_y
_atom_site_fract_z
Si Si1 0.650346 0.290520 0.838146
Si Si2 0.801353 0.301353 0.250000
Si Si3 0.650434 0.942171 0.334302
Si Si4 0.674600 0.076091 0.173148
Si Si5 0.074370 0.934643 0.327656
O O1 0.730855 0.300003 0.834849
O O2 0.623717 0.237122 0.720585
O O3 0.614830 0.362317 0.811568
O O4 0.630080 0.265739 0.000000
O O5 0.873065 0.305062 0.165862
O O6 0.582711 0.917290 0.250000
O O7 0.637610 0.963011 0.500000
O O8 0.684077 0.001825 0.242072
O O9 0.609162 0.109162 0.250000
O O10 0.667729 0.073356 0.000000
O O11 0.060220 0.941822 0.500000
O O12 0.007579 0.909597 0.243449
#
# Coordination Sequence:
#
# PCOD9568932 Si02
#       5
#    16   8  16  16  16
#     4  11  24  43  66  96 132 172 219 271 325 389
#     4  10  24  42  73  96 133 168 218 266 330 378
#     4  10  23  43  69  99 132 169 216 268 323 388
#     4  12  26  44  68  97 133 174 220 271 327 391
#     4  10  22  40  63  93 130 171 218 269 323 390
#
# _framework density 20.142261999999999
#
# number of rings (size 3 to 8) (size 9 to 14) (size 15 to 20)
#    0.667    0.667    1.111    4.667    3.111    3.111 
#    0.000    2.222    0.000    0.000    0.000    0.000 
#    0.000    0.000    0.000    0.000    0.000    0.000 
#
# Total GULP energy -401839.954469 kJ/mol
# GULP energy per Si atom -5581.110479 kJ/mol
# Density = 2.009642 g / cm^3
# Si number density = 20.142262 Si / 1000 Ang^3
#
#
#
# Elastic Constant Matrix: (Units=GPa)
#
#
# Indices 1 2 3 4 5 6 
#
# 1 50.9001 84.9451 54.2311 0.0000 0.0000 0.0000
# 2 84.9451 50.9001 54.2319 0.0000 0.0000 0.0000
# 3 54.2311 54.2319 176.5140 0.0000 0.0000 0.0000
# 4 0.0000 0.0000 0.0000 22.1069 0.0000 0.0000
# 5 0.0000 0.0000 0.0000 0.0000 22.1077 0.0000
# 6 0.0000 0.0000 0.0000 0.0000 0.0000 28.9229
#
#
#
# Elastic Compliance Matrix: (Units=1/GPa)
#
#
# Indices 1 2 3 4 5 6 
#
# 1 -0.009809 0.019563 -0.002997 0.000000 0.000000 0.000000
# 2 0.019563 -0.009809 -0.002997 0.000000 0.000000 0.000000
# 3 -0.002997 -0.002997 0.007507 0.000000 0.000000 0.000000
# 4 0.000000 0.000000 0.000000 0.045235 0.000000 0.000000
# 5 0.000000 0.000000 0.000000 0.000000 0.045233 0.000000
# 6 0.000000 0.000000 0.000000 0.000000 0.000000 0.034575
#
#
# Mechanical properties :
#
#
# Convention : Reuss Voigt Hill
#
# Bulk Modulus (GPa) = 66.54406 73.90339 70.22372
# Shear Modulus (GPa) = 55.06615 20.28791 37.67703
#
# Velocity S-wave (km/s) = 5.23431 3.17713 4.32967
# Velocity P-wave (km/s) = 8.34502 7.08726 7.74173
#
# Compressibility (1/GPa) = 0.01502764
#
# Stress axis : x y z
#
# Youngs Moduli (GPa) = -101.94353 -101.94219 133.21393
#
# Poissons Ratio (x) = 1.99434 0.39923
# Poissons Ratio (y) = 1.99437 0.39920
# Poissons Ratio (z) = -0.30551 -0.30549
#
# Static dielectric constant tensor:
#      x y z
#    x 1.710710 0.000000 0.000000 
#    y 0.000000 1.710710 0.000000 
#    z 0.000000 0.000000 1.698480 
# 
# From -- ./inp_files/1051.got.cif
#   From: 2010.05.17/outbox.cif.g08.bks.cpg/sg135_1_cif.got.tgz:1051.got - 2010.05.20 12:50:20.
