data_PCOD9568361
_publ_section_title
;
Structure prediction by ZEFSAII (Michael W. Deem and Ramdas Pophale) SiO2 
 PCOD9568361
Probable space group: P 42/N N M
;
_chemical_formula_sum "Si O2"
_cell_formula_units_Z 116
_cell_length_a 18.332611
_cell_length_b 18.332611
_cell_length_c 18.058017
_cell_angle_alpha 90.000000
_cell_angle_beta 90.000000
_cell_angle_gamma 90.000000
_cell_volume 6069.021891
_symmetry_space_group_name_H-M "P 42/N N M"
_symmetry_group_IT_number 134
_space_group.IT_coordinate_system_code '2'
_symmetry_cell_setting 'tetragonal'
loop_
_space_group_symop_operation_xyz
x,y,z
1/2-y,x,1/2+z
1/2-x,1/2-y,z
y,1/2-x,1/2+z
x,1/2-y,1/2-z
1/2-x,y,1/2-z
y,x,-z
1/2-y,1/2-x,-z
-x,-y,-z
1/2+y,-x,1/2-z
1/2+x,1/2+y,-z
-y,1/2+x,1/2-z
-x,1/2+y,1/2+z
1/2+x,-y,1/2+z
-y,-x,z
1/2+y,1/2+x,z
loop_
_atom_site_type_symbol
_atom_site_label
_atom_site_fract_x
_atom_site_fract_y
_atom_site_fract_z
Si Si1 0.072519 0.744908 0.055463
Si Si2 0.366852 0.980077 0.929116
Si Si3 0.884191 0.230241 0.335642
Si Si4 0.248509 0.060226 0.162111
Si Si5 0.340746 0.368149 0.912519
Si Si6 0.462768 0.851420 0.569734
Si Si7 0.648135 0.824382 0.916651
Si Si8 0.750000 0.250000 0.929660
O O1 0.158705 0.749287 0.069248
O O2 0.018963 0.738622 0.125441
O O3 0.052890 0.679244 0.998144
O O4 0.046190 0.816956 0.011351
O O5 0.448412 0.948412 0.933854
O O6 0.329539 0.945216 0.856050
O O7 0.352524 0.065371 0.925878
O O8 0.879017 0.250000 0.250000
O O9 0.808601 0.191400 0.360071
O O10 0.910386 0.300038 0.380789
O O11 0.250000 0.055939 0.250000
O O12 0.174200 0.097623 0.132584
O O13 0.308557 0.117100 0.131275
O O14 0.345884 0.454878 0.904599
O O15 0.258485 0.347687 0.888025
O O16 0.350557 0.350557 0.000000
O O17 0.432287 0.932287 0.572124
O O18 0.678561 0.821440 0.000000
#
# Coordination Sequence:
#
# PCOD9568361 Si02
#       8
#    16  16  16  16  16  16  16   4
#     4  11  21  42  67 104 133 170 222 287 331 400
#     4  10  20  38  66  98 135 170 218 277 335 408
#     4  10  21  36  55  87 134 173 207 258 326 394
#     4  12  28  47  67  97 137 179 231 291 345 400
#     4  12  22  42  68 100 132 172 224 276 335 411
#     4  11  22  37  66  97 131 175 222 277 335 400
#     4  12  21  40  72 102 129 174 220 276 343 403
#     4  12  24  40  85 104 133 176 244 282 328 408
#
# _framework density 19.113458000000001
#
# number of rings (size 3 to 8) (size 9 to 14) (size 15 to 20)
#    0.000    0.828    8.276    0.828    0.966    3.724 
#    2.483    1.034    0.000    0.000    0.000    0.000 
#    0.000    0.000    0.000    0.000    0.000    0.000 
#
# Total GULP energy -646594.474276 kJ/mol
# GULP energy per Si atom -5574.090295 kJ/mol
# Density = 1.906996 g / cm^3
# Si number density = 19.113458 Si / 1000 Ang^3
#
#
#
# Elastic Constant Matrix: (Units=GPa)
#
#
# Indices 1 2 3 4 5 6 
#
# 1 373.4719 -195.9384 35.7015 0.0000 0.0000 0.0000
# 2 -195.9384 373.4967 35.6940 0.0000 0.0000 0.0000
# 3 35.7015 35.6940 100.5151 0.0000 0.0000 0.0000
# 4 0.0000 0.0000 0.0000 6.9535 0.0000 0.0000
# 5 0.0000 0.0000 0.0000 0.0000 6.9534 0.0000
# 6 0.0000 0.0000 0.0000 0.0000 0.0000 24.4900
#
#
#
# Elastic Compliance Matrix: (Units=1/GPa)
#
#
# Indices 1 2 3 4 5 6 
#
# 1 0.004164 0.002407 -0.002334 0.000000 0.000000 0.000000
# 2 0.002407 0.004163 -0.002333 0.000000 0.000000 0.000000
# 3 -0.002334 -0.002333 0.011606 0.000000 0.000000 0.000000
# 4 0.000000 0.000000 0.000000 0.143812 0.000000 0.000000
# 5 0.000000 0.000000 0.000000 0.000000 0.143815 0.000000
# 6 0.000000 0.000000 0.000000 0.000000 0.000000 0.040833
#
#
# Mechanical properties :
#
#
# Convention : Reuss Voigt Hill
#
# Bulk Modulus (GPa) = 64.87853 66.48867 65.68360
# Shear Modulus (GPa) = 13.96449 72.48114 43.22282
#
# Velocity S-wave (km/s) = 2.70591 6.16473 4.76056
# Velocity P-wave (km/s) = 6.61666 9.24844 8.04095
#
# Compressibility (1/GPa) = 0.01541342
#
# Stress axis : x y z
#
# Youngs Moduli (GPa) = 240.17530 240.19538 86.16016
#
# Poissons Ratio (x) = -0.57822 0.20107
# Poissons Ratio (y) = -0.57817 0.20105
# Poissons Ratio (z) = 0.56050 0.56049
#
# Static dielectric constant tensor:
#      x y z
#    x 1.921730 0.000000 0.000000 
#    y 0.000000 1.921800 0.000000 
#    z 0.000000 0.000000 1.645910 
# 
# From -- ./inp_files/8047.got.cif
#   From: 2010.05.17/outbox.cif.g08.bks.cpg/sg134_5_cif.got.tgz:8047.got - 2010.05.20 12:42:49.
