data_PCOD9568625
_publ_section_title
;
Structure prediction by ZEFSAII (Michael W. Deem and Ramdas Pophale) SiO2 
 PCOD9568625
Probable space group: P 42/M B C
;
_chemical_formula_sum "Si O2"
_cell_formula_units_Z 56
_cell_length_a 18.170278
_cell_length_b 18.170278
_cell_length_c 9.422181
_cell_angle_alpha 90.000000
_cell_angle_beta 90.000000
_cell_angle_gamma 90.000000
_cell_volume 3110.817881
_symmetry_space_group_name_H-M "P 42/M B C"
_symmetry_group_IT_number 135
_symmetry_cell_setting 'tetragonal'
loop_
_space_group_symop_operation_xyz
x,y,z
-y,x,1/2+z
-x,-y,z
y,-x,1/2+z
1/2+x,1/2-y,-z
1/2-x,1/2+y,-z
1/2+y,1/2+x,1/2-z
1/2-y,1/2-x,1/2-z
-x,-y,-z
y,-x,1/2-z
x,y,-z
-y,x,1/2-z
1/2-x,1/2+y,z
1/2+x,1/2-y,z
1/2-y,1/2-x,1/2+z
1/2+y,1/2+x,1/2+z
loop_
_atom_site_type_symbol
_atom_site_label
_atom_site_fract_x
_atom_site_fract_y
_atom_site_fract_z
Si Si1 0.811766 0.547625 0.500000
Si Si2 0.150312 0.349689 0.250000
Si Si3 0.665579 0.644644 0.500000
Si Si4 0.895726 0.945285 0.752820
Si Si5 0.701925 0.251283 0.500000
Si Si6 0.287942 0.574074 0.500000
O O1 0.847497 0.580497 0.356126
O O2 0.730917 0.585178 0.500000
O O3 0.793003 0.461768 0.500000
O O4 0.160245 0.281667 0.361034
O O5 0.612511 0.632904 0.632738
O O6 0.715089 0.718134 0.500000
O O7 0.833701 0.952409 0.635511
O O8 0.973075 0.914700 0.690744
O O9 0.707759 0.338059 0.500000
#
# Coordination Sequence:
#
# PCOD9568625 Si02
#       6
#     8   8   8  16   8   8
#     4  10  18  34  52  75 103 141 181 232 256 329
#     4   8  18  36  54  70 106 144 182 218 282 310
#     4  10  19  37  48  73 111 143 182 223 265 316
#     4  11  21  33  49  74 113 154 180 208 258 327
#     4  10  20  32  56  75 104 144 180 234 267 309
#     4  12  21  31  53  79 108 142 189 223 269 311
#
# _framework density 18.001697
#
# number of rings (size 3 to 8) (size 9 to 14) (size 15 to 20)
#    0.000    2.000    2.857    4.286    0.000    2.286 
#    0.000    0.000    0.000    0.000    0.000    0.000 
#    0.000   40.000    0.000    0.000    0.000    0.000 
#
# Total GULP energy -312024.011567 kJ/mol
# GULP energy per Si atom -5571.857349 kJ/mol
# Density = 1.796072 g / cm^3
# Si number density = 18.001697 Si / 1000 Ang^3
#
#
#
# Elastic Constant Matrix: (Units=GPa)
#
#
# Indices 1 2 3 4 5 6 
#
# 1 39.6613 -9.6952 -7.2357 0.0000 0.0000 0.0000
# 2 -9.6952 39.6615 -7.2356 0.0000 0.0000 0.0000
# 3 -7.2357 -7.2356 79.9036 0.0000 0.0000 0.0000
# 4 0.0000 0.0000 0.0000 -84.2458 0.0000 0.0000
# 5 0.0000 0.0000 0.0000 0.0000 -84.2228 0.0000
# 6 0.0000 0.0000 0.0000 0.0000 0.0000 32.2538
#
#
#
# Elastic Compliance Matrix: (Units=1/GPa)
#
#
# Indices 1 2 3 4 5 6 
#
# 1 0.027579 0.007318 0.003160 0.000000 0.000000 0.000000
# 2 0.007318 0.027579 0.003160 0.000000 0.000000 0.000000
# 3 0.003160 0.003160 0.013087 0.000000 0.000000 0.000000
# 4 0.000000 0.000000 0.000000 -0.011870 0.000000 0.000000
# 5 0.000000 0.000000 0.000000 0.000000 -0.011873 0.000000
# 6 0.000000 0.000000 0.000000 0.000000 0.000000 0.031004
#
#
# Mechanical properties :
#
#
# Convention : Reuss Voigt Hill
#
# Bulk Modulus (GPa) = 10.46881 12.32148 11.39514
# Shear Modulus (GPa) = 62.44548 -15.01676 23.71436
#
# Velocity S-wave (km/s) = 5.89610 -2.89136 3.63346
# Velocity P-wave (km/s) = 7.22358 2.07054 4.89351
#
# Compressibility (1/GPa) = 0.09552186
#
# Stress axis : x y z
#
# Youngs Moduli (GPa) = 36.25955 36.25975 76.40934
#
# Poissons Ratio (x) = -0.26535 -0.24146
# Poissons Ratio (y) = -0.26535 -0.24146
# Poissons Ratio (z) = -0.11458 -0.11458
#
# Static dielectric constant tensor:
#      x y z
#    x 1.647670 0.000000 0.000000 
#    y 0.000000 1.647660 0.000000 
#    z 0.000000 0.000000 1.650750 
# 
# From -- ./inp_files/818.got.cif
#   From: 2010.05.17/outbox.cif.g08.bks.cpg/sg135_1_cif.got.tgz:818.got - 2010.05.20 12:50:20.
