data_PCOD9568506
_publ_section_title
;
Structure prediction by ZEFSAII (Michael W. Deem and Ramdas Pophale) SiO2 
 PCOD9568506
Probable space group: P 42/N N M
;
_chemical_formula_sum "Si O2"
_cell_formula_units_Z 96
_cell_length_a 27.199382
_cell_length_b 27.199382
_cell_length_c 9.345493
_cell_angle_alpha 90.000000
_cell_angle_beta 90.000000
_cell_angle_gamma 90.000000
_cell_volume 6913.855357
_symmetry_space_group_name_H-M "P 42/N N M"
_symmetry_group_IT_number 134
_space_group.IT_coordinate_system_code '2'
_symmetry_cell_setting 'tetragonal'
loop_
_space_group_symop_operation_xyz
x,y,z
1/2-y,x,1/2+z
1/2-x,1/2-y,z
y,1/2-x,1/2+z
x,1/2-y,1/2-z
1/2-x,y,1/2-z
y,x,-z
1/2-y,1/2-x,-z
-x,-y,-z
1/2+y,-x,1/2-z
1/2+x,1/2+y,-z
-y,1/2+x,1/2-z
-x,1/2+y,1/2+z
1/2+x,-y,1/2+z
-y,-x,z
1/2+y,1/2+x,z
loop_
_atom_site_type_symbol
_atom_site_label
_atom_site_fract_x
_atom_site_fract_y
_atom_site_fract_z
Si Si1 0.711425 0.131315 0.873116
Si Si2 0.937875 0.353519 0.060470
Si Si3 0.490836 0.424502 0.593010
Si Si4 0.719308 0.361315 0.110457
Si Si5 0.506470 0.921704 0.423182
Si Si6 0.559957 0.143909 0.391038
O O1 0.750000 0.118297 0.750000
O O2 0.666760 0.166760 0.823134
O O3 0.688777 0.085399 0.961171
O O4 0.744070 0.158970 0.991934
O O5 0.894168 0.394168 0.066645
O O6 0.951040 0.342809 0.225518
O O7 0.983801 0.378868 0.984613
O O8 0.446164 0.446164 0.500000
O O9 0.532004 0.467997 0.594897
O O10 0.480575 0.412081 0.758029
O O11 0.750000 0.374974 0.250000
O O12 0.678777 0.321223 0.152311
O O13 0.689581 0.408370 0.050596
O O14 0.552234 0.947767 0.500000
O O15 0.484652 0.875668 0.512100
O O16 0.462771 0.962771 0.422017
O O17 0.598078 0.098078 0.386049
#
# Coordination Sequence:
#
# PCOD9568506 Si02
#       6
#    16  16  16  16  16  16
#     4  11  23  35  45  58  76 100 132 175 223 265
#     4   9  17  30  43  56  76  98 121 153 197 247
#     4   9  16  25  40  60  80 100 117 138 177 234
#     4  11  21  33  47  60  74  98 134 175 220 262
#     4   9  16  25  40  61  80  97 117 142 177 230
#     4   9  17  29  43  58  76  96 121 156 196 243
#
# _framework density 13.885161
#
# number of rings (size 3 to 8) (size 9 to 14) (size 15 to 20)
#    0.000    2.333    1.667    2.000    2.333    6.000 
#    0.000    0.000    0.000    0.000    0.000    0.000 
#    0.000    0.000    0.000    0.000    0.000    0.000 
#
# Total GULP energy -534492.373950 kJ/mol
# GULP energy per Si atom -5567.628895 kJ/mol
# Density = 1.385356 g / cm^3
# Si number density = 13.885161 Si / 1000 Ang^3
#
#
#
# Elastic Constant Matrix: (Units=GPa)
#
#
# Indices 1 2 3 4 5 6 
#
# 1 40.3500 38.8563 31.7592 0.0000 0.0000 0.0000
# 2 38.8563 40.3502 31.7598 0.0000 0.0000 0.0000
# 3 31.7592 31.7598 92.2824 0.0000 0.0000 0.0000
# 4 0.0000 0.0000 0.0000 20.1271 0.0000 0.0000
# 5 0.0000 0.0000 0.0000 0.0000 20.1271 0.0000
# 6 0.0000 0.0000 0.0000 0.0000 0.0000 18.6702
#
#
#
# Elastic Compliance Matrix: (Units=1/GPa)
#
#
# Indices 1 2 3 4 5 6 
#
# 1 0.343421 -0.325984 -0.005999 0.000000 0.000000 0.000000
# 2 -0.325984 0.343423 -0.006004 0.000000 0.000000 0.000000
# 3 -0.005999 -0.006004 0.014967 0.000000 0.000000 0.000000
# 4 0.000000 0.000000 0.000000 0.049684 0.000000 0.000000
# 5 0.000000 0.000000 0.000000 0.000000 0.049684 0.000000
# 6 0.000000 0.000000 0.000000 0.000000 0.000000 0.053561
#
#
# Mechanical properties :
#
#
# Convention : Reuss Voigt Hill
#
# Bulk Modulus (GPa) = 38.70329 41.97034 40.33682
# Shear Modulus (GPa) = 3.24817 16.49205 9.87011
#
# Velocity S-wave (km/s) = 1.53114 3.45011 2.66905
# Velocity P-wave (km/s) = 5.57317 6.79436 6.21384
#
# Compressibility (1/GPa) = 0.02583760
#
# Stress axis : x y z
#
# Youngs Moduli (GPa) = 2.91188 2.91186 66.81307
#
# Poissons Ratio (x) = 0.94922 0.40082
# Poissons Ratio (y) = 0.94923 0.40112
# Poissons Ratio (z) = 0.01747 0.01748
#
# Static dielectric constant tensor:
#      x y z
#    x 1.457070 0.000000 0.000000 
#    y 0.000000 1.457070 0.000000 
#    z 0.000000 0.000000 1.504200 
# 
# From -- ./inp_files/3325.got.cif
#   From: 2010.05.17/outbox.cif.g08.bks.cpg/sg134_2_cif.got.tgz:3325.got - 2010.05.20 12:42:49.
