data_PCOD9568529
_publ_section_title
;
Structure prediction by ZEFSAII (Michael W. Deem and Ramdas Pophale) SiO2 
 PCOD9568529
Probable space group: P 42/N N M
;
_chemical_formula_sum "Si O2"
_cell_formula_units_Z 52
_cell_length_a 15.008196
_cell_length_b 15.008196
_cell_length_c 10.471725
_cell_angle_alpha 90.000000
_cell_angle_beta 90.000000
_cell_angle_gamma 90.000000
_cell_volume 2358.713616
_symmetry_space_group_name_H-M "P 42/N N M"
_symmetry_group_IT_number 134
_space_group.IT_coordinate_system_code '2'
_symmetry_cell_setting 'tetragonal'
loop_
_space_group_symop_operation_xyz
x,y,z
1/2-y,x,1/2+z
1/2-x,1/2-y,z
y,1/2-x,1/2+z
x,1/2-y,1/2-z
1/2-x,y,1/2-z
y,x,-z
1/2-y,1/2-x,-z
-x,-y,-z
1/2+y,-x,1/2-z
1/2+x,1/2+y,-z
-y,1/2+x,1/2-z
-x,1/2+y,1/2+z
1/2+x,-y,1/2+z
-y,-x,z
1/2+y,1/2+x,z
loop_
_atom_site_type_symbol
_atom_site_label
_atom_site_fract_x
_atom_site_fract_y
_atom_site_fract_z
Si Si1 0.507838 0.857563 0.547605
Si Si2 0.829681 0.471071 0.937454
Si Si3 0.870171 0.591143 0.181920
Si Si4 0.250000 0.250000 0.750000
O O1 0.599695 0.900306 0.500000
O O2 0.477028 0.775425 0.460890
O O3 0.534687 0.841349 0.694741
O O4 0.431550 0.931550 0.544885
O O5 0.874357 0.374357 0.934490
O O6 0.869953 0.529375 0.821202
O O7 0.861962 0.524333 0.063857
O O8 0.810751 0.680902 0.170511
#
# Coordination Sequence:
#
# PCOD9568529 Si02
#       4
#    16  16  16   4
#     4  11  23  41  63  90 129 171 215 268 326 393
#     4  11  23  39  63  90 127 170 212 264 329 399
#     4  11  22  38  60  93 127 162 206 271 333 388
#     4  12  20  34  64  92 124 162 214 280 324 406
#
# _framework density 22.045915999999998
#
# number of rings (size 3 to 8) (size 9 to 14) (size 15 to 20)
#    0.000    0.923    3.077    5.538    0.000    1.846 
#    0.000    0.000    0.000    3.692    0.000    4.308 
#    0.000    0.000    0.000    0.000    0.000    0.000 
#
# Total GULP energy -290250.780418 kJ/mol
# GULP energy per Si atom -5581.745777 kJ/mol
# Density = 2.199574 g / cm^3
# Si number density = 22.045916 Si / 1000 Ang^3
#
#
#
# Elastic Constant Matrix: (Units=GPa)
#
#
# Indices 1 2 3 4 5 6 
#
# 1 88.2565 80.8628 2.3463 0.0000 0.0000 0.0000
# 2 80.8628 88.2493 2.3477 0.0000 0.0000 0.0000
# 3 2.3463 2.3477 25.3990 0.0000 0.0000 0.0000
# 4 0.0000 0.0000 0.0000 20.5263 0.0000 0.0000
# 5 0.0000 0.0000 0.0000 0.0000 20.5257 0.0000
# 6 0.0000 0.0000 0.0000 0.0000 0.0000 43.2870
#
#
#
# Elastic Compliance Matrix: (Units=1/GPa)
#
#
# Indices 1 2 3 4 5 6 
#
# 1 0.070620 -0.064694 -0.000544 0.000000 0.000000 0.000000
# 2 -0.064694 0.070626 -0.000552 0.000000 0.000000 0.000000
# 3 -0.000544 -0.000552 0.039473 0.000000 0.000000 0.000000
# 4 0.000000 0.000000 0.000000 0.048718 0.000000 0.000000
# 5 0.000000 0.000000 0.000000 0.000000 0.048719 0.000000
# 6 0.000000 0.000000 0.000000 0.000000 0.000000 0.023102
#
#
# Mechanical properties :
#
#
# Convention : Reuss Voigt Hill
#
# Bulk Modulus (GPa) = 20.35072 41.44649 30.89860
# Shear Modulus (GPa) = 11.13048 24.62433 17.87741
#
# Velocity S-wave (km/s) = 2.24939 3.34572 2.85075
# Velocity P-wave (km/s) = 3.99968 5.81085 4.98816
#
# Compressibility (1/GPa) = 0.04913832
#
# Stress axis : x y z
#
# Youngs Moduli (GPa) = 14.16035 14.15916 25.33382
#
# Poissons Ratio (x) = 0.91602 0.01378
# Poissons Ratio (y) = 0.91610 0.01398
# Poissons Ratio (z) = 0.00770 0.00781
#
# Static dielectric constant tensor:
#      x y z
#    x 1.840830 0.000000 0.000000 
#    y 0.000000 1.840830 0.000000 
#    z 0.000000 0.000000 2.035970 
# 
# From -- ./inp_files/4315.got.cif
#   From: 2010.05.17/outbox.cif.g08.bks.cpg/sg134_3_cif.got.tgz:4315.got - 2010.05.20 12:42:49.
