data_PCOD9568201
_publ_section_title
;
Structure prediction by ZEFSAII (Michael W. Deem and Ramdas Pophale) SiO2 
 PCOD9568201
Probable space group: P 42/N N M
;
_chemical_formula_sum "Si O2"
_cell_formula_units_Z 80
_cell_length_a 24.652087
_cell_length_b 24.652087
_cell_length_c 7.725258
_cell_angle_alpha 90.000000
_cell_angle_beta 90.000000
_cell_angle_gamma 90.000000
_cell_volume 4694.835458
_symmetry_space_group_name_H-M "P 42/N N M"
_symmetry_group_IT_number 134
_space_group.IT_coordinate_system_code '2'
_symmetry_cell_setting 'tetragonal'
loop_
_space_group_symop_operation_xyz
x,y,z
1/2-y,x,1/2+z
1/2-x,1/2-y,z
y,1/2-x,1/2+z
x,1/2-y,1/2-z
1/2-x,y,1/2-z
y,x,-z
1/2-y,1/2-x,-z
-x,-y,-z
1/2+y,-x,1/2-z
1/2+x,1/2+y,-z
-y,1/2+x,1/2-z
-x,1/2+y,1/2+z
1/2+x,-y,1/2+z
-y,-x,z
1/2+y,1/2+x,z
loop_
_atom_site_type_symbol
_atom_site_label
_atom_site_fract_x
_atom_site_fract_y
_atom_site_fract_z
Si Si1 0.045620 0.289893 0.587426
Si Si2 0.447365 0.638255 0.618734
Si Si3 0.127468 0.372533 0.500000
Si Si4 0.250000 0.988419 0.750000
Si Si5 0.920064 0.558504 0.191404
Si Si6 0.386358 0.970988 0.276743
O O1 0.043565 0.250000 0.750000
O O2 0.105925 0.314385 0.561688
O O3 0.025875 0.260406 0.415747
O O4 0.002913 0.339595 0.619925
O O5 0.391701 0.608300 0.660838
O O6 0.454037 0.696717 0.703736
O O7 0.497211 0.600235 0.680989
O O8 0.454076 0.638637 0.409534
O O9 0.114126 0.411065 0.663264
O O10 0.982460 0.568673 0.240804
O O11 0.915244 0.584757 0.000000
O O12 0.418849 0.918849 0.350282
#
# Coordination Sequence:
#
# PCOD9568201 Si02
#       6
#    16  16   8   8  16  16
#     4  11  22  37  54  80 114 145 184 231 268 330
#     4  10  19  33  53  78 112 146 180 221 265 318
#     4  10  20  34  55  80 107 146 182 214 282 319
#     4  12  22  36  54  81 111 146 188 220 274 314
#     4   9  17  31  50  78 113 143 169 206 262 338
#     4   9  18  33  54  79 113 148 175 213 272 336
#
# _framework density 17.040001
#
# number of rings (size 3 to 8) (size 9 to 14) (size 15 to 20)
#    0.000    2.000    4.000    0.600    0.000    3.200 
#    0.000    2.500    0.000    0.300    0.000    2.100 
#    0.000    0.400    0.000    0.000    0.000    0.000 
#
# Total GULP energy -445879.958741 kJ/mol
# GULP energy per Si atom -5573.499484 kJ/mol
# Density = 1.700122 g / cm^3
# Si number density = 17.040001 Si / 1000 Ang^3
#
#
#
# Elastic Constant Matrix: (Units=GPa)
#
#
# Indices 1 2 3 4 5 6 
#
# 1 74.7263 51.3527 37.3206 0.0000 0.0000 0.0000
# 2 51.3527 74.7254 37.3208 0.0000 0.0000 0.0000
# 3 37.3206 37.3208 88.1567 0.0000 0.0000 0.0000
# 4 0.0000 0.0000 0.0000 12.0003 0.0000 0.0000
# 5 0.0000 0.0000 0.0000 0.0000 12.0006 0.0000
# 6 0.0000 0.0000 0.0000 0.0000 0.0000 19.9824
#
#
#
# Elastic Compliance Matrix: (Units=1/GPa)
#
#
# Indices 1 2 3 4 5 6 
#
# 1 0.026684 -0.016100 -0.004481 0.000000 0.000000 0.000000
# 2 -0.016100 0.026684 -0.004481 0.000000 0.000000 0.000000
# 3 -0.004481 -0.004481 0.015137 0.000000 0.000000 0.000000
# 4 0.000000 0.000000 0.000000 0.083331 0.000000 0.000000
# 5 0.000000 0.000000 0.000000 0.000000 0.083329 0.000000
# 6 0.000000 0.000000 0.000000 0.000000 0.000000 0.050044
#
#
# Mechanical properties :
#
#
# Convention : Reuss Voigt Hill
#
# Bulk Modulus (GPa) = 54.39908 54.39960 54.39934
# Shear Modulus (GPa) = 14.64296 16.23761 15.44029
#
# Velocity S-wave (km/s) = 2.93461 3.09028 3.01345
# Velocity P-wave (km/s) = 6.59365 6.68783 6.64091
#
# Compressibility (1/GPa) = 0.01838266
#
# Stress axis : x y z
#
# Youngs Moduli (GPa) = 37.47572 37.47500 66.06197
#
# Poissons Ratio (x) = 0.60334 0.29600
# Poissons Ratio (y) = 0.60335 0.29602
# Poissons Ratio (z) = 0.16792 0.16792
#
# Static dielectric constant tensor:
#      x y z
#    x 1.582570 0.000000 0.000000 
#    y 0.000000 1.582580 0.000000 
#    z 0.000000 0.000000 1.612340 
# 
# From -- ./inp_files/3134.got.cif
#   From: 2010.05.17/outbox.cif.g08.bks.cpg/sg134_2_cif.got.tgz:3134.got - 2010.05.20 12:42:49.
