data_PCOD9568342
_publ_section_title
;
Structure prediction by ZEFSAII (Michael W. Deem and Ramdas Pophale) SiO2 
 PCOD9568342
Probable space group: P 42/N N M
;
_chemical_formula_sum "Si O2"
_cell_formula_units_Z 64
_cell_length_a 10.296633
_cell_length_b 10.296633
_cell_length_c 26.806067
_cell_angle_alpha 90.000000
_cell_angle_beta 90.000000
_cell_angle_gamma 90.000000
_cell_volume 2841.996678
_symmetry_space_group_name_H-M "P 42/N N M"
_symmetry_group_IT_number 134
_space_group.IT_coordinate_system_code '2'
_symmetry_cell_setting 'tetragonal'
loop_
_space_group_symop_operation_xyz
x,y,z
1/2-y,x,1/2+z
1/2-x,1/2-y,z
y,1/2-x,1/2+z
x,1/2-y,1/2-z
1/2-x,y,1/2-z
y,x,-z
1/2-y,1/2-x,-z
-x,-y,-z
1/2+y,-x,1/2-z
1/2+x,1/2+y,-z
-y,1/2+x,1/2-z
-x,1/2+y,1/2+z
1/2+x,-y,1/2+z
-y,-x,z
1/2+y,1/2+x,z
loop_
_atom_site_type_symbol
_atom_site_label
_atom_site_fract_x
_atom_site_fract_y
_atom_site_fract_z
Si Si1 0.868259 0.917568 0.054074
Si Si2 0.548534 0.246580 0.877294
Si Si3 0.091684 0.121569 0.716806
Si Si4 0.247126 0.967426 0.853339
O O1 0.958786 0.820102 0.084528
O O2 0.757943 0.953908 0.094450
O O3 0.853527 0.853527 0.000000
O O4 0.947543 0.052458 0.045577
O O5 0.645253 0.354748 0.854511
O O6 0.640196 0.140196 0.902984
O O7 0.470830 0.176761 0.834211
O O8 0.103309 0.250000 0.750000
O O9 0.222813 0.054697 0.695132
O O10 0.990407 0.009594 0.735468
O O11 0.112565 0.887436 0.848255
O O12 0.362074 0.862074 0.855576
#
# Coordination Sequence:
#
# PCOD9568342 Si02
#       4
#    16  16  16  16
#     4   9  18  34  58  86 116 157 205 246 293 357
#     4   9  18  33  54  84 120 150 184 241 305 359
#     4  10  20  36  62  92 118 151 196 246 306 370
#     4   9  19  37  60  88 124 162 202 251 303 360
#
# _framework density 22.519380000000002
#
# number of rings (size 3 to 8) (size 9 to 14) (size 15 to 20)
#    0.000    2.750    0.000    0.750    0.000    3.250 
#    0.000   10.000    0.000   13.500    0.000   12.250 
#    0.000    0.000    0.000    0.000    0.000    0.000 
#
# Total GULP energy -357291.370335 kJ/mol
# GULP energy per Si atom -5582.677661 kJ/mol
# Density = 2.246812 g / cm^3
# Si number density = 22.519380 Si / 1000 Ang^3
#
#
#
# Elastic Constant Matrix: (Units=GPa)
#
#
# Indices 1 2 3 4 5 6 
#
# 1 79.2676 37.5775 40.6893 0.0000 0.0000 0.0000
# 2 37.5775 79.2676 40.6893 0.0000 0.0000 0.0000
# 3 40.6893 40.6893 116.5039 0.0000 0.0000 0.0000
# 4 0.0000 0.0000 0.0000 19.6305 0.0000 0.0000
# 5 0.0000 0.0000 0.0000 0.0000 19.6305 0.0000
# 6 0.0000 0.0000 0.0000 0.0000 0.0000 33.2773
#
#
#
# Elastic Compliance Matrix: (Units=1/GPa)
#
#
# Indices 1 2 3 4 5 6 
#
# 1 0.017648 -0.006339 -0.003950 0.000000 0.000000 0.000000
# 2 -0.006339 0.017648 -0.003950 0.000000 0.000000 0.000000
# 3 -0.003950 -0.003950 0.011342 0.000000 0.000000 0.000000
# 4 0.000000 0.000000 0.000000 0.050941 0.000000 0.000000
# 5 0.000000 0.000000 0.000000 0.000000 0.050941 0.000000
# 6 0.000000 0.000000 0.000000 0.000000 0.000000 0.030050
#
#
# Mechanical properties :
#
#
# Convention : Reuss Voigt Hill
#
# Bulk Modulus (GPa) = 55.06099 56.99460 56.02779
# Shear Modulus (GPa) = 23.46305 24.91320 24.18812
#
# Velocity S-wave (km/s) = 3.23136 3.32972 3.28091
# Velocity P-wave (km/s) = 6.19885 6.33615 6.26788
#
# Compressibility (1/GPa) = 0.01816168
#
# Stress axis : x y z
#
# Youngs Moduli (GPa) = 56.66401 56.66401 88.16513
#
# Poissons Ratio (x) = 0.35917 0.34823
# Poissons Ratio (y) = 0.35917 0.34823
# Poissons Ratio (z) = 0.22381 0.22381
#
# Static dielectric constant tensor:
#      x y z
#    x 1.885470 0.000000 0.000000 
#    y 0.000000 1.885470 0.000000 
#    z 0.000000 0.000000 1.814640 
# 
# From -- ./inp_files/8677.got.cif
#   From: 2010.05.17/outbox.cif.g08.bks.cpg/sg134_5_cif.got.tgz:8677.got - 2010.05.20 12:42:49.
