data_PCOD9568337
_publ_section_title
;
Structure prediction by ZEFSAII (Michael W. Deem and Ramdas Pophale) SiO2 
 PCOD9568337
Probable space group: P 42/N N M
;
_chemical_formula_sum "Si O2"
_cell_formula_units_Z 64
_cell_length_a 11.285016
_cell_length_b 11.285016
_cell_length_c 22.615796
_cell_angle_alpha 90.000000
_cell_angle_beta 90.000000
_cell_angle_gamma 90.000000
_cell_volume 2880.157492
_symmetry_space_group_name_H-M "P 42/N N M"
_symmetry_group_IT_number 134
_space_group.IT_coordinate_system_code '2'
_symmetry_cell_setting 'tetragonal'
loop_
_space_group_symop_operation_xyz
x,y,z
1/2-y,x,1/2+z
1/2-x,1/2-y,z
y,1/2-x,1/2+z
x,1/2-y,1/2-z
1/2-x,y,1/2-z
y,x,-z
1/2-y,1/2-x,-z
-x,-y,-z
1/2+y,-x,1/2-z
1/2+x,1/2+y,-z
-y,1/2+x,1/2-z
-x,1/2+y,1/2+z
1/2+x,-y,1/2+z
-y,-x,z
1/2+y,1/2+x,z
loop_
_atom_site_type_symbol
_atom_site_label
_atom_site_fract_x
_atom_site_fract_y
_atom_site_fract_z
Si Si1 0.557881 0.632584 0.709566
Si Si2 0.109476 0.235614 0.870685
Si Si3 0.750677 0.052690 0.518574
Si Si4 0.805873 0.494008 0.388844
O O1 0.572007 0.750000 0.750000
O O2 0.467759 0.532242 0.732144
O O3 0.684378 0.583971 0.686658
O O4 0.502731 0.688482 0.649632
O O5 0.250000 0.250000 0.882480
O O6 0.103654 0.094152 0.865168
O O7 0.031571 0.273386 0.926150
O O8 0.862762 0.137239 0.507372
O O9 0.639620 0.139620 0.532042
O O10 0.719022 0.985550 0.458085
O O11 0.866993 0.366993 0.383674
#
# Coordination Sequence:
#
# PCOD9568337 Si02
#       4
#    16  16  16  16
#     4  11  24  41  61  84 113 152 200 254 307 361
#     4  10  22  37  57  85 120 157 194 243 301 360
#     4  10  20  36  60  90 126 166 206 248 296 356
#     4  10  21  37  59  88 123 162 201 244 298 360
#
# _framework density 22.221005000000002
#
# number of rings (size 3 to 8) (size 9 to 14) (size 15 to 20)
#    0.000    1.750    0.000    3.750    0.000   16.250 
#    0.000    6.250    0.000    0.000    0.000    0.000 
#    0.000   36.000    0.000    0.000    0.000    0.000 
#
# Total GULP energy -357489.232548 kJ/mol
# GULP energy per Si atom -5585.769259 kJ/mol
# Density = 2.217043 g / cm^3
# Si number density = 22.221005 Si / 1000 Ang^3
#
#
#
# Elastic Constant Matrix: (Units=GPa)
#
#
# Indices 1 2 3 4 5 6 
#
# 1 69.4974 24.9461 40.6629 0.0000 0.0000 0.0000
# 2 24.9461 69.4974 40.6629 0.0000 0.0000 0.0000
# 3 40.6629 40.6629 113.0250 0.0000 0.0000 0.0000
# 4 0.0000 0.0000 0.0000 36.8754 0.0000 0.0000
# 5 0.0000 0.0000 0.0000 0.0000 36.8754 0.0000
# 6 0.0000 0.0000 0.0000 0.0000 0.0000 21.3266
#
#
#
# Elastic Compliance Matrix: (Units=1/GPa)
#
#
# Indices 1 2 3 4 5 6 
#
# 1 0.018894 -0.003553 -0.005519 0.000000 0.000000 0.000000
# 2 -0.003553 0.018894 -0.005519 0.000000 0.000000 0.000000
# 3 -0.005519 -0.005519 0.012819 0.000000 0.000000 0.000000
# 4 0.000000 0.000000 0.000000 0.027118 0.000000 0.000000
# 5 0.000000 0.000000 0.000000 0.000000 0.027118 0.000000
# 6 0.000000 0.000000 0.000000 0.000000 0.000000 0.046890
#
#
# Mechanical properties :
#
#
# Convention : Reuss Voigt Hill
#
# Bulk Modulus (GPa) = 46.67666 51.61819 49.14742
# Shear Modulus (GPa) = 26.58789 28.73201 27.65995
#
# Velocity S-wave (km/s) = 3.46283 3.59975 3.53195
# Velocity P-wave (km/s) = 6.08601 6.36847 6.22884
#
# Compressibility (1/GPa) = 0.02142398
#
# Stress axis : x y z
#
# Youngs Moduli (GPa) = 52.92825 52.92825 78.00991
#
# Poissons Ratio (x) = 0.18803 0.43055
# Poissons Ratio (y) = 0.18803 0.43055
# Poissons Ratio (z) = 0.29212 0.29212
#
# Static dielectric constant tensor:
#      x y z
#    x 1.862420 0.000000 0.000000 
#    y 0.000000 1.862420 0.000000 
#    z 0.000000 0.000000 1.842090 
# 
# From -- ./inp_files/8679.got.cif
#   From: 2010.05.17/outbox.cif.g08.bks.cpg/sg134_5_cif.got.tgz:8679.got - 2010.05.20 12:42:49.
