data_PCOD9568612
_publ_section_title
;
Structure prediction by ZEFSAII (Michael W. Deem and Ramdas Pophale) SiO2 
 PCOD9568612
Probable space group: P 42/M B C
;
_chemical_formula_sum "Si O2"
_cell_formula_units_Z 96
_cell_length_a 20.892851
_cell_length_b 20.892851
_cell_length_c 13.414674
_cell_angle_alpha 90.000000
_cell_angle_beta 90.000000
_cell_angle_gamma 90.000000
_cell_volume 5855.655753
_symmetry_space_group_name_H-M "P 42/M B C"
_symmetry_group_IT_number 135
_symmetry_cell_setting 'tetragonal'
loop_
_space_group_symop_operation_xyz
x,y,z
-y,x,1/2+z
-x,-y,z
y,-x,1/2+z
1/2+x,1/2-y,-z
1/2-x,1/2+y,-z
1/2+y,1/2+x,1/2-z
1/2-y,1/2-x,1/2-z
-x,-y,-z
y,-x,1/2-z
x,y,-z
-y,x,1/2-z
1/2-x,1/2+y,z
1/2+x,1/2-y,z
1/2-y,1/2-x,1/2+z
1/2+y,1/2+x,1/2+z
loop_
_atom_site_type_symbol
_atom_site_label
_atom_site_fract_x
_atom_site_fract_y
_atom_site_fract_z
Si Si1 0.814512 0.903396 0.386768
Si Si2 0.486708 0.393938 0.755550
Si Si3 0.637029 0.270765 0.318703
Si Si4 0.230032 0.000165 0.117334
Si Si5 0.232107 0.797448 0.616796
Si Si6 0.786773 0.379937 0.787194
O O1 0.793376 0.906418 0.500000
O O2 0.856197 0.964245 0.354003
O O3 0.857672 0.840563 0.368479
O O4 0.756454 0.893377 0.310340
O O5 0.432304 0.447181 0.733499
O O6 0.488962 0.338402 0.672229
O O7 0.568188 0.243994 0.345890
O O8 0.697498 0.231838 0.362212
O O9 0.646882 0.276250 0.199323
O O10 0.277977 0.056929 0.147764
O O11 0.220301 0.999369 0.000000
O O12 0.224687 0.812907 0.500000
O O13 0.179078 0.745451 0.651692
O O14 0.855187 0.355187 0.750000
#
# Coordination Sequence:
#
# PCOD9568612 Si02
#       6
#    16  16  16  16  16  16
#     4  10  18  31  49  64  92 133 172 218 262 298
#     4  10  21  33  44  64  98 140 191 226 247 306
#     4  10  19  32  51  80 102 131 179 225 264 328
#     4  11  22  35  53  75 107 145 179 228 281 323
#     4  10  18  33  57  78 103 138 178 229 278 322
#     4  10  20  34  50  79 106 132 178 222 267 334
#
# _framework density 16.394406
#
# number of rings (size 3 to 8) (size 9 to 14) (size 15 to 20)
#    0.000    1.833    5.000    2.000    0.000    1.333 
#    0.000    5.000    0.000    0.000    0.000    2.333 
#    0.000    6.667    0.000    0.000    0.000    0.000 
#
# Total GULP energy -535160.224457 kJ/mol
# GULP energy per Si atom -5574.585671 kJ/mol
# Density = 1.635709 g / cm^3
# Si number density = 16.394406 Si / 1000 Ang^3
#
#
#
# Elastic Constant Matrix: (Units=GPa)
#
#
# Indices 1 2 3 4 5 6 
#
# 1 55.9646 4.1145 20.5935 0.0000 0.0000 0.0000
# 2 4.1145 55.9646 20.5935 0.0000 0.0000 0.0000
# 3 20.5935 20.5935 131.8507 0.0000 0.0000 0.0000
# 4 0.0000 0.0000 0.0000 10.2110 0.0000 0.0000
# 5 0.0000 0.0000 0.0000 0.0000 10.2110 0.0000
# 6 0.0000 0.0000 0.0000 0.0000 0.0000 17.8596
#
#
#
# Elastic Compliance Matrix: (Units=1/GPa)
#
#
# Indices 1 2 3 4 5 6 
#
# 1 0.018964 -0.000323 -0.002911 0.000000 0.000000 0.000000
# 2 -0.000323 0.018964 -0.002911 0.000000 0.000000 0.000000
# 3 -0.002911 -0.002911 0.008494 0.000000 0.000000 0.000000
# 4 0.000000 0.000000 0.000000 0.097933 0.000000 0.000000
# 5 0.000000 0.000000 0.000000 0.000000 0.097933 0.000000
# 6 0.000000 0.000000 0.000000 0.000000 0.000000 0.055992
#
#
# Mechanical properties :
#
#
# Convention : Reuss Voigt Hill
#
# Bulk Modulus (GPa) = 29.30031 37.15365 33.22698
# Shear Modulus (GPa) = 15.53048 20.88822 18.20935
#
# Velocity S-wave (km/s) = 3.08117 3.57334 3.33634
# Velocity P-wave (km/s) = 5.52893 6.30369 5.92898
#
# Compressibility (1/GPa) = 0.03412933
#
# Stress axis : x y z
#
# Youngs Moduli (GPa) = 52.73282 52.73282 117.73294
#
# Poissons Ratio (x) = 0.01703 0.34277
# Poissons Ratio (y) = 0.01703 0.34277
# Poissons Ratio (z) = 0.15353 0.15353
#
# Static dielectric constant tensor:
#      x y z
#    x 1.566820 0.000000 0.000000 
#    y 0.000000 1.566820 0.000000 
#    z 0.000000 0.000000 1.553690 
# 
# From -- ./inp_files/2541.got.cif
#   From: 2010.05.17/outbox.cif.g08.bks.cpg/sg135_2_cif.got.tgz:2541.got - 2010.05.20 12:50:20.
