data_PCOD9568724
_publ_section_title
;
Structure prediction by ZEFSAII (Michael W. Deem and Ramdas Pophale) SiO2 
 PCOD9568724
Probable space group: P 42/M B C
;
_chemical_formula_sum "Si O2"
_cell_formula_units_Z 40
_cell_length_a 13.344658
_cell_length_b 13.344658
_cell_length_c 10.215510
_cell_angle_alpha 90.000000
_cell_angle_beta 90.000000
_cell_angle_gamma 90.000000
_cell_volume 1819.176970
_symmetry_space_group_name_H-M "P 42/M B C"
_symmetry_group_IT_number 135
_symmetry_cell_setting 'tetragonal'
loop_
_space_group_symop_operation_xyz
x,y,z
-y,x,1/2+z
-x,-y,z
y,-x,1/2+z
1/2+x,1/2-y,-z
1/2-x,1/2+y,-z
1/2+y,1/2+x,1/2-z
1/2-y,1/2-x,1/2-z
-x,-y,-z
y,-x,1/2-z
x,y,-z
-y,x,1/2-z
1/2-x,1/2+y,z
1/2+x,1/2-y,z
1/2-y,1/2-x,1/2+z
1/2+y,1/2+x,1/2+z
loop_
_atom_site_type_symbol
_atom_site_label
_atom_site_fract_x
_atom_site_fract_y
_atom_site_fract_z
Si Si1 0.456277 0.784102 0.500000
Si Si2 0.906362 0.366659 0.000000
Si Si3 0.816665 0.782285 0.000000
Si Si4 0.551360 0.218970 0.782474
O O1 0.513710 0.890899 0.500000
O O2 0.336970 0.794656 0.500000
O O3 0.480899 0.738137 0.641860
O O4 0.962548 0.323202 0.126856
O O5 0.790394 0.333073 0.000000
O O6 0.884128 0.795215 0.129266
O O7 0.624818 0.124818 0.750000
#
# Coordination Sequence:
#
# PCOD9568724 Si02
#       4
#     8   8   8  16
#     4  10  20  31  52  83 112 142 192 245 288 343
#     4  11  21  36  60  84 119 165 192 236 316 366
#     4   9  21  38  52  78 119 159 198 236 292 369
#     4   9  20  35  54  83 118 148 193 247 293 356
#
# _framework density 21.987966
#
# number of rings (size 3 to 8) (size 9 to 14) (size 15 to 20)
#    0.000    2.400    0.000    2.400    0.000   27.200 
#    0.000    0.000    0.000    4.800    0.000   22.400 
#    0.000    0.000    0.000    0.000    0.000    0.000 
#
# Total GULP energy -223016.118551 kJ/mol
# GULP energy per Si atom -5575.402964 kJ/mol
# Density = 2.193792 g / cm^3
# Si number density = 21.987966 Si / 1000 Ang^3
#
#
#
# Elastic Constant Matrix: (Units=GPa)
#
#
# Indices 1 2 3 4 5 6 
#
# 1 47.5357 36.1598 30.7546 0.0000 0.0000 0.0000
# 2 36.1598 47.5357 30.7546 0.0000 0.0000 0.0000
# 3 30.7546 30.7546 237.2949 0.0000 0.0000 0.0000
# 4 0.0000 0.0000 0.0000 6.1824 0.0000 0.0000
# 5 0.0000 0.0000 0.0000 0.0000 6.1824 0.0000
# 6 0.0000 0.0000 0.0000 0.0000 0.0000 31.1677
#
#
#
# Elastic Compliance Matrix: (Units=1/GPa)
#
#
# Indices 1 2 3 4 5 6 
#
# 1 0.050555 -0.037349 -0.001712 0.000000 0.000000 0.000000
# 2 -0.037349 0.050555 -0.001712 0.000000 0.000000 0.000000
# 3 -0.001712 -0.001712 0.004658 0.000000 0.000000 0.000000
# 4 0.000000 0.000000 0.000000 0.161750 0.000000 0.000000
# 5 0.000000 0.000000 0.000000 0.000000 0.161750 0.000000
# 6 0.000000 0.000000 0.000000 0.000000 0.000000 0.032085
#
#
# Mechanical properties :
#
#
# Convention : Reuss Voigt Hill
#
# Bulk Modulus (GPa) = 41.28231 58.63382 49.95807
# Shear Modulus (GPa) = 9.07484 24.35297 16.71390
#
# Velocity S-wave (km/s) = 2.03375 3.33161 2.76005
# Velocity P-wave (km/s) = 4.93260 6.44389 5.73822
#
# Compressibility (1/GPa) = 0.02422345
#
# Stress axis : x y z
#
# Youngs Moduli (GPa) = 19.78028 19.78028 214.69281
#
# Poissons Ratio (x) = 0.73878 0.36746
# Poissons Ratio (y) = 0.73878 0.36746
# Poissons Ratio (z) = 0.03386 0.03386
#
# Static dielectric constant tensor:
#      x y z
#    x 1.821970 0.000000 0.000000 
#    y 0.000000 1.821970 0.000000 
#    z 0.000000 0.000000 1.923890 
# 
# From -- ./inp_files/1831.got.cif
#   From: 2010.05.17/outbox.cif.g08.bks.cpg/sg135_1_cif.got.tgz:1831.got - 2010.05.20 12:50:20.
