data_PCOD9568327
_publ_section_title
;
Structure prediction by ZEFSAII (Michael W. Deem and Ramdas Pophale) SiO2 
 PCOD9568327
Probable space group: P 42/N N M
;
_chemical_formula_sum "Si O2"
_cell_formula_units_Z 120
_cell_length_a 27.188010
_cell_length_b 27.188010
_cell_length_c 9.159772
_cell_angle_alpha 90.000000
_cell_angle_beta 90.000000
_cell_angle_gamma 90.000000
_cell_volume 6770.792517
_symmetry_space_group_name_H-M "P 42/N N M"
_symmetry_group_IT_number 134
_space_group.IT_coordinate_system_code '2'
_symmetry_cell_setting 'tetragonal'
loop_
_space_group_symop_operation_xyz
x,y,z
1/2-y,x,1/2+z
1/2-x,1/2-y,z
y,1/2-x,1/2+z
x,1/2-y,1/2-z
1/2-x,y,1/2-z
y,x,-z
1/2-y,1/2-x,-z
-x,-y,-z
1/2+y,-x,1/2-z
1/2+x,1/2+y,-z
-y,1/2+x,1/2-z
-x,1/2+y,1/2+z
1/2+x,-y,1/2+z
-y,-x,z
1/2+y,1/2+x,z
loop_
_atom_site_type_symbol
_atom_site_label
_atom_site_fract_x
_atom_site_fract_y
_atom_site_fract_z
Si Si1 0.054804 0.250000 0.250000
Si Si2 0.979898 0.580783 0.892862
Si Si3 0.145988 0.568532 0.003957
Si Si4 0.410101 0.167590 0.031795
Si Si5 0.984908 0.319194 0.450791
Si Si6 0.989917 0.807230 0.284434
Si Si7 0.493413 0.069970 0.420686
Si Si8 0.304952 0.887277 0.713585
O O1 0.085564 0.285288 0.139475
O O2 0.020034 0.282949 0.356981
O O3 0.939939 0.624563 0.885905
O O4 0.983818 0.554054 0.741973
O O5 0.958688 0.541313 0.000000
O O6 0.029295 0.606014 0.947896
O O7 0.115785 0.615785 0.062703
O O8 0.178744 0.537717 0.118177
O O9 0.175958 0.585630 0.861255
O O10 0.356525 0.143476 0.000000
O O11 0.442544 0.176788 0.882981
O O12 0.928881 0.303609 0.413504
O O13 0.001033 0.325954 0.619776
O O14 0.990422 0.374692 0.397660
O O15 0.985545 0.750000 0.250000
O O16 0.442785 0.057216 0.500000
O O17 0.537388 0.037388 0.488127
O O18 0.250000 0.869381 0.750000
O O19 0.343736 0.843736 0.681239
#
# Coordination Sequence:
#
# PCOD9568327 Si02
#       8
#     8  16  16  16  16  16  16  16
#     4  12  20  40  68  88 122 166 196 252 306 358
#     4  10  20  36  55  76 114 164 203 236 281 351
#     4  10  21  37  56  80 113 156 200 244 296 357
#     4  10  22  39  61  93 122 156 203 248 297 363
#     4  12  22  36  61  86 121 158 206 244 304 360
#     4  11  22  37  59  88 120 152 197 249 297 361
#     4  11  24  36  49  80 124 162 201 242 287 353
#     4  11  22  39  62  85 114 157 208 264 318 374
#
# _framework density 17.723184
#
# number of rings (size 3 to 8) (size 9 to 14) (size 15 to 20)
#    0.000    1.200    4.667    2.400    5.600    2.267 
#    0.000    0.000    0.000    0.000    0.000    1.400 
#    0.000    3.200    0.000    0.000    0.000    0.000 
#
# Total GULP energy -668283.113669 kJ/mol
# GULP energy per Si atom -5569.025947 kJ/mol
# Density = 1.768285 g / cm^3
# Si number density = 17.723184 Si / 1000 Ang^3
#
#
#
# Elastic Constant Matrix: (Units=GPa)
#
#
# Indices 1 2 3 4 5 6 
#
# 1 77.0189 47.4231 29.4754 0.0000 0.0000 0.0000
# 2 47.4231 76.9860 29.4755 0.0000 0.0000 0.0000
# 3 29.4754 29.4755 102.7377 0.0000 0.0000 0.0000
# 4 0.0000 0.0000 0.0000 26.1873 0.0000 0.0000
# 5 0.0000 0.0000 0.0000 0.0000 26.1868 0.0000
# 6 0.0000 0.0000 0.0000 0.0000 0.0000 23.2264
#
#
#
# Elastic Compliance Matrix: (Units=1/GPa)
#
#
# Indices 1 2 3 4 5 6 
#
# 1 0.021549 -0.012253 -0.002667 0.000000 0.000000 0.000000
# 2 -0.012253 0.021560 -0.002670 0.000000 0.000000 0.000000
# 3 -0.002667 -0.002670 0.011265 0.000000 0.000000 0.000000
# 4 0.000000 0.000000 0.000000 0.038187 0.000000 0.000000
# 5 0.000000 0.000000 0.000000 0.000000 0.038187 0.000000
# 6 0.000000 0.000000 0.000000 0.000000 0.000000 0.043054
#
#
# Mechanical properties :
#
#
# Convention : Reuss Voigt Hill
#
# Bulk Modulus (GPa) = 52.10206 52.16563 52.13384
# Shear Modulus (GPa) = 23.21484 25.14467 24.17976
#
# Velocity S-wave (km/s) = 3.62312 3.77071 3.69765
# Velocity P-wave (km/s) = 6.85304 6.96097 6.90722
#
# Compressibility (1/GPa) = 0.01919310
#
# Stress axis : x y z
#
# Youngs Moduli (GPa) = 46.40555 46.38324 88.77274
#
# Poissons Ratio (x) = 0.56834 0.23676
# Poissons Ratio (y) = 0.56861 0.23703
# Poissons Ratio (z) = 0.12376 0.12384
#
# Static dielectric constant tensor:
#      x y z
#    x 1.565200 0.000000 0.000000 
#    y 0.000000 1.565280 0.000000 
#    z 0.000000 0.000000 1.771140 
# 
# From -- ./inp_files/3438.got.cif
#   From: 2010.05.17/outbox.cif.g08.bks.cpg/sg134_2_cif.got.tgz:3438.got - 2010.05.20 12:42:49.
