data_PCOD9568494
_publ_section_title
;
Structure prediction by ZEFSAII (Michael W. Deem and Ramdas Pophale) SiO2 
 PCOD9568494
Probable space group: P 42/N N M
;
_chemical_formula_sum "Si O2"
_cell_formula_units_Z 96
_cell_length_a 19.503678
_cell_length_b 19.503678
_cell_length_c 14.229007
_cell_angle_alpha 90.000000
_cell_angle_beta 90.000000
_cell_angle_gamma 90.000000
_cell_volume 5412.621141
_symmetry_space_group_name_H-M "P 42/N N M"
_symmetry_group_IT_number 134
_space_group.IT_coordinate_system_code '2'
_symmetry_cell_setting 'tetragonal'
loop_
_space_group_symop_operation_xyz
x,y,z
1/2-y,x,1/2+z
1/2-x,1/2-y,z
y,1/2-x,1/2+z
x,1/2-y,1/2-z
1/2-x,y,1/2-z
y,x,-z
1/2-y,1/2-x,-z
-x,-y,-z
1/2+y,-x,1/2-z
1/2+x,1/2+y,-z
-y,1/2+x,1/2-z
-x,1/2+y,1/2+z
1/2+x,-y,1/2+z
-y,-x,z
1/2+y,1/2+x,z
loop_
_atom_site_type_symbol
_atom_site_label
_atom_site_fract_x
_atom_site_fract_y
_atom_site_fract_z
Si Si1 0.404578 0.794039 0.030244
Si Si2 0.492674 0.110983 0.039735
Si Si3 0.685501 0.428534 0.822134
Si Si4 0.495880 0.622024 0.755452
Si Si5 0.079945 0.462392 0.397631
Si Si6 0.390306 0.718372 0.844206
O O1 0.347075 0.847075 0.062244
O O2 0.399728 0.724798 0.087283
O O3 0.478252 0.831226 0.030410
O O4 0.394881 0.776265 0.921386
O O5 0.553026 0.053026 0.041198
O O6 0.484221 0.135324 0.147387
O O7 0.425800 0.074201 0.000000
O O8 0.750000 0.438619 0.750000
O O9 0.626981 0.373020 0.790369
O O10 0.646835 0.496911 0.859759
O O11 0.435350 0.564650 0.751899
O O12 0.556063 0.590090 0.817323
O O13 0.461876 0.684870 0.811492
O O14 0.075081 0.424920 0.500000
O O15 0.022191 0.522191 0.403190
O O16 0.360252 0.750000 0.750000
O O17 0.342154 0.657847 0.880402
#
# Coordination Sequence:
#
# PCOD9568494 Si02
#       6
#    16  16  16  16  16  16
#     4  11  22  35  50  72 105 146 183 213 253 310
#     4   9  18  31  49  71  95 128 170 220 275 313
#     4  11  24  38  53  76 110 152 193 228 262 320
#     4   9  17  31  51  72  96 127 168 221 272 311
#     4   9  18  34  55  76  98 135 183 232 282 314
#     4  11  20  31  47  73 107 140 172 207 250 311
#
# _framework density 17.736324
#
# number of rings (size 3 to 8) (size 9 to 14) (size 15 to 20)
#    0.000    2.000    1.667    2.500    2.333    5.667 
#    0.000    0.000    0.000    0.000    0.000    0.000 
#    0.000   12.000    0.000    0.000    0.000    0.000 
#
# Total GULP energy -534674.910088 kJ/mol
# GULP energy per Si atom -5569.530313 kJ/mol
# Density = 1.769596 g / cm^3
# Si number density = 17.736324 Si / 1000 Ang^3
#
#
#
# Elastic Constant Matrix: (Units=GPa)
#
#
# Indices 1 2 3 4 5 6 
#
# 1 50.7163 54.5916 19.0322 0.0000 0.0000 0.0000
# 2 54.5916 50.7165 19.0324 0.0000 0.0000 0.0000
# 3 19.0322 19.0324 65.1680 0.0000 0.0000 0.0000
# 4 0.0000 0.0000 0.0000 21.8014 0.0000 0.0000
# 5 0.0000 0.0000 0.0000 0.0000 21.8019 0.0000
# 6 0.0000 0.0000 0.0000 0.0000 0.0000 29.4657
#
#
#
# Elastic Compliance Matrix: (Units=1/GPa)
#
#
# Indices 1 2 3 4 5 6 
#
# 1 -0.123716 0.134333 -0.003101 0.000000 0.000000 0.000000
# 2 0.134333 -0.123716 -0.003100 0.000000 0.000000 0.000000
# 3 -0.003101 -0.003100 0.017156 0.000000 0.000000 0.000000
# 4 0.000000 0.000000 0.000000 0.045869 0.000000 0.000000
# 5 0.000000 0.000000 0.000000 0.000000 0.045868 0.000000
# 6 0.000000 0.000000 0.000000 0.000000 0.000000 0.033938
#
#
# Mechanical properties :
#
#
# Convention : Reuss Voigt Hill
#
# Bulk Modulus (GPa) = 38.48079 39.10147 38.79113
# Shear Modulus (GPa) = -14.19634 19.54343 2.67355
#
# Velocity S-wave (km/s) = -2.83222 3.32307 1.22909
# Velocity P-wave (km/s) = 3.32383 6.06775 4.89211
#
# Compressibility (1/GPa) = 0.02598700
#
# Stress axis : x y z
#
# Youngs Moduli (GPa) = -8.08301 -8.08302 58.28860
#
# Poissons Ratio (x) = 1.08582 0.18076
# Poissons Ratio (y) = 1.08581 0.18070
# Poissons Ratio (z) = -0.02507 -0.02506
#
# Static dielectric constant tensor:
#      x y z
#    x 1.630950 0.000000 0.000000 
#    y 0.000000 1.630950 0.000000 
#    z 0.000000 0.000000 1.654670 
# 
# From -- ./inp_files/5029.got.cif
#   From: 2010.05.17/outbox.cif.g08.bks.cpg/sg134_3_cif.got.tgz:5029.got - 2010.05.20 12:42:49.
