data_PCOD9568033
_publ_section_title
;
Structure prediction by ZEFSAII (Michael W. Deem and Ramdas Pophale) SiO2 
 PCOD9568033
Probable space group: P 42/N B C
;
_chemical_formula_sum "Si O2"
_cell_formula_units_Z 48
_cell_length_a 9.042980
_cell_length_b 9.042980
_cell_length_c 22.337681
_cell_angle_alpha 90.000000
_cell_angle_beta 90.000000
_cell_angle_gamma 90.000000
_cell_volume 1826.674748
_symmetry_space_group_name_H-M "P 42/N B C"
_symmetry_group_IT_number 133
_space_group.IT_coordinate_system_code '2'
_symmetry_cell_setting 'tetragonal'
loop_
_space_group_symop_operation_xyz
x,y,z
1/2-y,x,1/2+z
1/2-x,1/2-y,z
y,1/2-x,1/2+z
x,1/2-y,-z
1/2-x,y,-z
y,x,1/2-z
1/2-y,1/2-x,1/2-z
-x,-y,-z
1/2+y,-x,1/2-z
1/2+x,1/2+y,-z
-y,1/2+x,1/2-z
-x,1/2+y,z
1/2+x,-y,z
-y,-x,1/2+z
1/2+y,1/2+x,1/2+z
loop_
_atom_site_type_symbol
_atom_site_label
_atom_site_fract_x
_atom_site_fract_y
_atom_site_fract_z
Si Si1 0.355916 0.118488 0.895567
Si Si2 0.805961 0.416041 0.563388
Si Si3 0.480208 0.795817 0.272353
O O1 0.250000 0.250000 0.918449
O O2 0.498922 0.221037 0.883298
O O3 0.413879 0.982263 0.934860
O O4 0.279952 0.025528 0.842009
O O5 0.750000 0.250000 0.565603
O O6 0.750000 0.479312 0.500000
O O7 0.416471 0.647618 0.242704
O O8 0.632020 0.867981 0.250000
#
# Coordination Sequence:
#
# PCOD9568033 Si02
#       3
#    16  16  16
#     4  12  27  47  80 111 157 209 261 327 410 480
#     4  11  26  48  76 115 157 201 261 332 401 488
#     4  11  28  47  73 108 152 198 262 321 390 471
#
# _framework density 26.277255
#
# number of rings (size 3 to 8) (size 9 to 14) (size 15 to 20)
#    0.000    0.667    0.000    5.000   18.667    3.333 
#    0.000    0.000    0.000    0.000    0.000    0.000 
#    0.000    0.000    0.000    0.000    0.000    0.000 
#
# Total GULP energy -268087.110046 kJ/mol
# GULP energy per Si atom -5585.148126 kJ/mol
# Density = 2.621745 g / cm^3
# Si number density = 26.277255 Si / 1000 Ang^3
#
#
#
# Elastic Constant Matrix: (Units=GPa)
#
#
# Indices 1 2 3 4 5 6 
#
# 1 186.2182 88.4428 39.4631 0.0000 0.0000 0.0000
# 2 88.4428 186.2209 39.4625 0.0000 0.0000 0.0000
# 3 39.4631 39.4625 76.4614 0.0000 0.0000 0.0000
# 4 0.0000 0.0000 0.0000 -4.2929 0.0000 0.0000
# 5 0.0000 0.0000 0.0000 0.0000 -4.2931 0.0000
# 6 0.0000 0.0000 0.0000 0.0000 0.0000 78.8081
#
#
#
# Elastic Compliance Matrix: (Units=1/GPa)
#
#
# Indices 1 2 3 4 5 6 
#
# 1 0.007251 -0.002976 -0.002206 0.000000 0.000000 0.000000
# 2 -0.002976 0.007251 -0.002206 0.000000 0.000000 0.000000
# 3 -0.002206 -0.002206 0.015356 0.000000 0.000000 0.000000
# 4 0.000000 0.000000 0.000000 -0.232941 0.000000 0.000000
# 5 0.000000 0.000000 0.000000 0.000000 -0.232932 0.000000
# 6 0.000000 0.000000 0.000000 0.000000 0.000000 0.012689
#
#
# Mechanical properties :
#
#
# Convention : Reuss Voigt Hill
#
# Bulk Modulus (GPa) = 66.31146 87.07082 76.69114
# Shear Modulus (GPa) = -12.39093 32.81323 10.21115
#
# Velocity S-wave (km/s) = -2.17387 3.53757 1.97341
# Velocity P-wave (km/s) = 4.35766 7.06352 5.86866
#
# Compressibility (1/GPa) = 0.01508035
#
# Stress axis : x y z
#
# Youngs Moduli (GPa) = 137.90872 137.91150 65.12160
#
# Poissons Ratio (x) = 0.41046 0.14368
# Poissons Ratio (y) = 0.41045 0.14367
# Poissons Ratio (z) = 0.30428 0.30426
#
# Static dielectric constant tensor:
#      x y z
#    x 2.134780 0.000000 0.000000 
#    y 0.000000 2.134770 0.000000 
#    z 0.000000 0.000000 2.453890 
# 
# From -- ./inp_files/7750.got.cif
#   From: 2010.05.17/outbox.cif.g08.bks.cpg/sg133_4_cif.got.tgz:7750.got - 2010.05.20 12:37:36.
