data_PCOD9568473
_publ_section_title
;
Structure prediction by ZEFSAII (Michael W. Deem and Ramdas Pophale) SiO2 
 PCOD9568473
Probable space group: P 42/N N M
;
_chemical_formula_sum "Si O2"
_cell_formula_units_Z 48
_cell_length_a 12.731299
_cell_length_b 12.731299
_cell_length_c 11.036721
_cell_angle_alpha 90.000000
_cell_angle_beta 90.000000
_cell_angle_gamma 90.000000
_cell_volume 1788.897676
_symmetry_space_group_name_H-M "P 42/N N M"
_symmetry_group_IT_number 134
_space_group.IT_coordinate_system_code '2'
_symmetry_cell_setting 'tetragonal'
loop_
_space_group_symop_operation_xyz
x,y,z
1/2-y,x,1/2+z
1/2-x,1/2-y,z
y,1/2-x,1/2+z
x,1/2-y,1/2-z
1/2-x,y,1/2-z
y,x,-z
1/2-y,1/2-x,-z
-x,-y,-z
1/2+y,-x,1/2-z
1/2+x,1/2+y,-z
-y,1/2+x,1/2-z
-x,1/2+y,1/2+z
1/2+x,-y,1/2+z
-y,-x,z
1/2+y,1/2+x,z
loop_
_atom_site_type_symbol
_atom_site_label
_atom_site_fract_x
_atom_site_fract_y
_atom_site_fract_z
Si Si1 0.243353 0.580104 0.569396
Si Si2 0.625664 0.609351 0.368593
Si Si3 0.559874 0.662458 0.113333
O O1 0.340693 0.659308 0.575581
O O2 0.143971 0.643971 0.622022
O O3 0.276335 0.470146 0.630643
O O4 0.214891 0.548493 0.431143
O O5 0.578608 0.578608 0.500000
O O6 0.564098 0.605330 0.241857
O O7 0.636785 0.735892 0.381389
O O8 0.590027 0.590027 0.000000
#
# Coordination Sequence:
#
# PCOD9568473 Si02
#       3
#    16  16  16
#     4  10  23  44  70 105 150 197 246 303 368 438
#     4   9  21  42  69 100 138 183 237 300 363 422
#     4  10  22  43  70 100 137 185 244 301 358 429
#
# _framework density 26.832166999999998
#
# number of rings (size 3 to 8) (size 9 to 14) (size 15 to 20)
#    0.000    2.333    0.000    0.000    0.000   19.333 
#    0.000   45.000    0.000   40.000    0.000    0.000 
#    0.000   30.667    0.000    0.667    0.000    0.000 
#
# Total GULP energy -267714.187305 kJ/mol
# GULP energy per Si atom -5577.378902 kJ/mol
# Density = 2.677110 g / cm^3
# Si number density = 26.832167 Si / 1000 Ang^3
#
#
#
# Elastic Constant Matrix: (Units=GPa)
#
#
# Indices 1 2 3 4 5 6 
#
# 1 126.4588 67.4567 44.1999 0.0000 0.0000 0.0000
# 2 67.4567 126.4588 44.1999 0.0000 0.0000 0.0000
# 3 44.1999 44.1999 277.5594 0.0000 0.0000 0.0000
# 4 0.0000 0.0000 0.0000 -5.8263 0.0000 0.0000
# 5 0.0000 0.0000 0.0000 0.0000 -5.8263 0.0000
# 6 0.0000 0.0000 0.0000 0.0000 0.0000 52.4719
#
#
#
# Elastic Compliance Matrix: (Units=1/GPa)
#
#
# Indices 1 2 3 4 5 6 
#
# 1 0.011255 -0.005694 -0.000885 0.000000 0.000000 0.000000
# 2 -0.005694 0.011255 -0.000885 0.000000 0.000000 0.000000
# 3 -0.000885 -0.000885 0.003885 0.000000 0.000000 0.000000
# 4 0.000000 0.000000 0.000000 -0.171634 0.000000 0.000000
# 5 0.000000 0.000000 0.000000 0.000000 -0.171634 0.000000
# 6 0.000000 0.000000 0.000000 0.000000 0.000000 0.019058
#
#
# Mechanical properties :
#
#
# Convention : Reuss Voigt Hill
#
# Bulk Modulus (GPa) = 87.22959 93.57665 90.40312
# Shear Modulus (GPa) = -17.91695 33.13855 7.61080
#
# Velocity S-wave (km/s) = -2.58687 3.51811 1.68600
# Velocity P-wave (km/s) = 4.86388 7.17310 6.12824
#
# Compressibility (1/GPa) = 0.01146400
#
# Stress axis : x y z
#
# Youngs Moduli (GPa) = 88.85298 88.85298 257.41014
#
# Poissons Ratio (x) = 0.50593 0.22793
# Poissons Ratio (y) = 0.50593 0.22793
# Poissons Ratio (z) = 0.07868 0.07868
#
# Static dielectric constant tensor:
#      x y z
#    x 2.134900 0.000000 0.000000 
#    y 0.000000 2.134900 0.000000 
#    z 0.000000 0.000000 2.151150 
# 
# From -- ./inp_files/4181.got.cif
#   From: 2010.05.17/outbox.cif.g08.bks.cpg/sg134_3_cif.got.tgz:4181.got - 2010.05.20 12:42:49.
