data_PCOD9568351
_publ_section_title
;
Structure prediction by ZEFSAII (Michael W. Deem and Ramdas Pophale) SiO2 
 PCOD9568351
Probable space group: P 42/N N M
;
_chemical_formula_sum "Si O2"
_cell_formula_units_Z 64
_cell_length_a 13.273821
_cell_length_b 13.273821
_cell_length_c 16.472304
_cell_angle_alpha 90.000000
_cell_angle_beta 90.000000
_cell_angle_gamma 90.000000
_cell_volume 2902.326467
_symmetry_space_group_name_H-M "P 42/N N M"
_symmetry_group_IT_number 134
_space_group.IT_coordinate_system_code '2'
_symmetry_cell_setting 'tetragonal'
loop_
_space_group_symop_operation_xyz
x,y,z
1/2-y,x,1/2+z
1/2-x,1/2-y,z
y,1/2-x,1/2+z
x,1/2-y,1/2-z
1/2-x,y,1/2-z
y,x,-z
1/2-y,1/2-x,-z
-x,-y,-z
1/2+y,-x,1/2-z
1/2+x,1/2+y,-z
-y,1/2+x,1/2-z
-x,1/2+y,1/2+z
1/2+x,-y,1/2+z
-y,-x,z
1/2+y,1/2+x,z
loop_
_atom_site_type_symbol
_atom_site_label
_atom_site_fract_x
_atom_site_fract_y
_atom_site_fract_z
Si Si1 0.724754 0.439885 0.424863
Si Si2 0.376490 0.464467 0.803165
Si Si3 0.312784 0.437749 0.058663
Si Si4 0.929246 0.905641 0.365121
O O1 0.666972 0.333029 0.424024
O O2 0.787417 0.472469 0.345298
O O3 0.798392 0.465265 0.499997
O O4 0.636658 0.523445 0.423736
O O5 0.449001 0.551000 0.771457
O O6 0.369982 0.399602 0.721457
O O7 0.431301 0.398396 0.872504
O O8 0.206046 0.430604 0.101500
O O9 0.345282 0.345282 0.000000
O O10 0.039397 0.960604 0.359680
#
# Coordination Sequence:
#
# PCOD9568351 Si02
#       4
#    16  16  16  16
#     4  10  21  36  56  83 114 149 189 232 284 345
#     4  10  22  38  57  82 114 152 194 238 281 334
#     4  10  21  35  57  86 117 149 187 237 294 344
#     4  10  20  37  58  81 112 150 192 236 286 345
#
# _framework density 22.051273999999999
#
# number of rings (size 3 to 8) (size 9 to 14) (size 15 to 20)
#    0.000    2.000    0.000    3.000    0.000   14.000 
#    0.000    5.000    0.000    6.750    0.000    7.000 
#    0.000    0.000    0.000    0.000    0.000    0.000 
#
# Total GULP energy -356575.891391 kJ/mol
# GULP energy per Si atom -5571.498303 kJ/mol
# Density = 2.200108 g / cm^3
# Si number density = 22.051274 Si / 1000 Ang^3
#
#
#
# Elastic Constant Matrix: (Units=GPa)
#
#
# Indices 1 2 3 4 5 6 
#
# 1 114.8538 37.1590 31.0189 0.0000 0.0000 0.0000
# 2 37.1590 114.8538 31.0189 0.0000 0.0000 0.0000
# 3 31.0189 31.0189 118.8798 0.0000 0.0000 0.0000
# 4 0.0000 0.0000 0.0000 2.7027 0.0000 0.0000
# 5 0.0000 0.0000 0.0000 0.0000 2.7027 0.0000
# 6 0.0000 0.0000 0.0000 0.0000 0.0000 44.5819
#
#
#
# Elastic Compliance Matrix: (Units=1/GPa)
#
#
# Indices 1 2 3 4 5 6 
#
# 1 0.010117 -0.002754 -0.001921 0.000000 0.000000 0.000000
# 2 -0.002754 0.010117 -0.001921 0.000000 0.000000 0.000000
# 3 -0.001921 -0.001921 0.009414 0.000000 0.000000 0.000000
# 4 0.000000 0.000000 0.000000 0.370002 0.000000 0.000000
# 5 0.000000 0.000000 0.000000 0.000000 0.370002 0.000000
# 6 0.000000 0.000000 0.000000 0.000000 0.000000 0.022431
#
#
# Mechanical properties :
#
#
# Convention : Reuss Voigt Hill
#
# Bulk Modulus (GPa) = 60.77190 60.77564 60.77377
# Shear Modulus (GPa) = 6.16705 26.62350 16.39528
#
# Velocity S-wave (km/s) = 1.67414 3.47846 2.72969
# Velocity P-wave (km/s) = 5.59966 6.61466 6.12821
#
# Compressibility (1/GPa) = 0.01645497
#
# Stress axis : x y z
#
# Youngs Moduli (GPa) = 98.84711 98.84711 106.22074
#
# Poissons Ratio (x) = 0.27225 0.20405
# Poissons Ratio (y) = 0.27225 0.20405
# Poissons Ratio (z) = 0.18989 0.18989
#
# Static dielectric constant tensor:
#      x y z
#    x 1.838980 0.000000 0.000000 
#    y 0.000000 1.838980 0.000000 
#    z 0.000000 0.000000 1.854200 
# 
# From -- ./inp_files/7436.got.cif
#   From: 2010.05.17/outbox.cif.g08.bks.cpg/sg134_4_cif.got.tgz:7436.got - 2010.05.20 12:42:49.
