data_PCOD9568865
_publ_section_title
;
Structure prediction by ZEFSAII (Michael W. Deem and Ramdas Pophale) SiO2 
 PCOD9568865
Probable space group: P 42/M B C
;
_chemical_formula_sum "Si O2"
_cell_formula_units_Z 80
_cell_length_a 16.374805
_cell_length_b 16.374805
_cell_length_c 13.649799
_cell_angle_alpha 90.000000
_cell_angle_beta 90.000000
_cell_angle_gamma 90.000000
_cell_volume 3659.978464
_symmetry_space_group_name_H-M "P 42/M B C"
_symmetry_group_IT_number 135
_symmetry_cell_setting 'tetragonal'
loop_
_space_group_symop_operation_xyz
x,y,z
-y,x,1/2+z
-x,-y,z
y,-x,1/2+z
1/2+x,1/2-y,-z
1/2-x,1/2+y,-z
1/2+y,1/2+x,1/2-z
1/2-y,1/2-x,1/2-z
-x,-y,-z
y,-x,1/2-z
x,y,-z
-y,x,1/2-z
1/2-x,1/2+y,z
1/2+x,1/2-y,z
1/2-y,1/2-x,1/2+z
1/2+y,1/2+x,1/2+z
loop_
_atom_site_type_symbol
_atom_site_label
_atom_site_fract_x
_atom_site_fract_y
_atom_site_fract_z
Si Si1 0.541376 0.586544 0.886574
Si Si2 0.088287 0.529949 0.617412
Si Si3 0.704011 0.842757 0.884144
Si Si4 0.668629 0.677406 0.765120
Si Si5 0.250164 0.929669 0.615727
O O1 0.500000 0.500000 0.862020
O O2 0.617708 0.608630 0.819257
O O3 0.482533 0.666311 0.880629
O O4 0.567483 0.580611 0.000000
O O5 0.087205 0.523758 0.500000
O O6 0.105121 0.624117 0.638755
O O7 0.169453 0.480311 0.644222
O O8 0.000000 0.500000 0.650625
O O9 0.688913 0.750709 0.841482
O O10 0.777578 0.880797 0.822202
O O11 0.717795 0.839852 0.000000
O O12 0.739628 0.638010 0.699367
O O13 0.257924 0.902962 0.500000
#
# Coordination Sequence:
#
# PCOD9568865 Si02
#       5
#    16  16  16  16  16
#     4  10  22  39  63  95 136 184 233 291 355 425
#     4   9  18  38  71 100 132 179 228 290 359 418
#     4  10  21  41  65  95 133 179 234 294 360 422
#     4  11  22  36  66  96 131 185 231 282 353 429
#     4  10  21  38  62  98 141 178 226 295 357 419
#
# _framework density 21.858052000000001
#
# number of rings (size 3 to 8) (size 9 to 14) (size 15 to 20)
#    0.000    2.000    2.000    1.200    2.800    0.000 
#    0.000    6.000    0.000    4.200    0.000    0.000 
#    0.000    3.200    0.000    0.000    0.000    0.000 
#
# Total GULP energy -446439.752168 kJ/mol
# GULP energy per Si atom -5580.496902 kJ/mol
# Density = 2.180830 g / cm^3
# Si number density = 21.858052 Si / 1000 Ang^3
#
#
#
# Elastic Constant Matrix: (Units=GPa)
#
#
# Indices 1 2 3 4 5 6 
#
# 1 119.2418 46.7732 36.8837 0.0000 0.0000 0.0000
# 2 46.7732 119.2418 36.8837 0.0000 0.0000 0.0000
# 3 36.8837 36.8837 154.2934 0.0000 0.0000 0.0000
# 4 0.0000 0.0000 0.0000 41.4501 0.0000 0.0000
# 5 0.0000 0.0000 0.0000 0.0000 41.4501 0.0000
# 6 0.0000 0.0000 0.0000 0.0000 0.0000 16.8378
#
#
#
# Elastic Compliance Matrix: (Units=1/GPa)
#
#
# Indices 1 2 3 4 5 6 
#
# 1 0.010269 -0.003530 -0.001611 0.000000 0.000000 0.000000
# 2 -0.003530 0.010269 -0.001611 0.000000 0.000000 0.000000
# 3 -0.001611 -0.001611 0.007251 0.000000 0.000000 0.000000
# 4 0.000000 0.000000 0.000000 0.024125 0.000000 0.000000
# 5 0.000000 0.000000 0.000000 0.000000 0.024125 0.000000
# 6 0.000000 0.000000 0.000000 0.000000 0.000000 0.059390
#
#
# Mechanical properties :
#
#
# Convention : Reuss Voigt Hill
#
# Bulk Modulus (GPa) = 69.99850 70.42868 70.21359
# Shear Modulus (GPa) = 32.53161 38.09670 35.31416
#
# Velocity S-wave (km/s) = 3.86205 4.17935 4.02383
# Velocity P-wave (km/s) = 7.20978 7.45521 7.33352
#
# Compressibility (1/GPa) = 0.01428602
#
# Stress axis : x y z
#
# Youngs Moduli (GPa) = 97.37817 97.37817 137.90440
#
# Poissons Ratio (x) = 0.34373 0.22217
# Poissons Ratio (y) = 0.34373 0.22217
# Poissons Ratio (z) = 0.15688 0.15688
#
# Static dielectric constant tensor:
#      x y z
#    x 1.998860 0.000000 0.000000 
#    y 0.000000 1.998860 0.000000 
#    z 0.000000 0.000000 1.829640 
# 
# From -- ./inp_files/3431.got.cif
#   From: 2010.05.17/outbox.cif.g08.bks.cpg/sg135_2_cif.got.tgz:3431.got - 2010.05.20 12:50:20.
