data_PCOD9568142
_publ_section_title
;
Structure prediction by ZEFSAII (Michael W. Deem and Ramdas Pophale) SiO2 
 PCOD9568142
Probable space group: P 42/N N M
;
_chemical_formula_sum "Si O2"
_cell_formula_units_Z 64
_cell_length_a 13.830120
_cell_length_b 13.830120
_cell_length_c 16.894635
_cell_angle_alpha 90.000000
_cell_angle_beta 90.000000
_cell_angle_gamma 90.000000
_cell_volume 3231.474329
_symmetry_space_group_name_H-M "P 42/N N M"
_symmetry_group_IT_number 134
_space_group.IT_coordinate_system_code '2'
_symmetry_cell_setting 'tetragonal'
loop_
_space_group_symop_operation_xyz
x,y,z
1/2-y,x,1/2+z
1/2-x,1/2-y,z
y,1/2-x,1/2+z
x,1/2-y,1/2-z
1/2-x,y,1/2-z
y,x,-z
1/2-y,1/2-x,-z
-x,-y,-z
1/2+y,-x,1/2-z
1/2+x,1/2+y,-z
-y,1/2+x,1/2-z
-x,1/2+y,1/2+z
1/2+x,-y,1/2+z
-y,-x,z
1/2+y,1/2+x,z
loop_
_atom_site_type_symbol
_atom_site_label
_atom_site_fract_x
_atom_site_fract_y
_atom_site_fract_z
Si Si1 0.148546 0.307915 0.177567
Si Si2 0.669405 0.169405 0.628262
Si Si3 0.681847 0.483015 0.640144
Si Si4 0.270960 0.432395 0.976563
Si Si5 0.578145 0.078145 0.472349
O O1 0.250000 0.250000 0.168768
O O2 0.099465 0.250000 0.250000
O O3 0.161586 0.421741 0.191686
O O4 0.099889 0.299748 0.092216
O O5 0.750000 0.250000 0.610073
O O6 0.727150 0.082248 0.667991
O O7 0.626067 0.126067 0.548798
O O8 0.589269 0.410732 0.634171
O O9 0.718102 0.524355 0.553967
O O10 0.337461 0.515025 0.935569
O O11 0.343291 0.343291 0.000000
O O12 0.500000 0.000000 0.500000
#
# Coordination Sequence:
#
# PCOD9568142 Si02
#       5
#    16   8  16  16   8
#     4  11  23  37  53  79 122 164 192 238 302 368
#     4   8  16  32  56  92 122 140 182 253 314 342
#     4  10  20  36  64  94 118 153 203 258 305 359
#     4  10  18  34  58  82 110 154 195 252 305 351
#     4   8  16  28  50  82 108 134 194 237 289 358
#
# _framework density 19.805202999999999
#
# number of rings (size 3 to 8) (size 9 to 14) (size 15 to 20)
#    0.000    2.250    2.500    0.750    0.000    2.000 
#    2.250    0.000    8.250    0.000    0.000    0.000 
#    0.000    0.000    0.000    0.000    0.000    0.000 
#
# Total GULP energy -356371.808682 kJ/mol
# GULP energy per Si atom -5568.309511 kJ/mol
# Density = 1.976013 g / cm^3
# Si number density = 19.805203 Si / 1000 Ang^3
#
#
#
# Elastic Constant Matrix: (Units=GPa)
#
#
# Indices 1 2 3 4 5 6 
#
# 1 123.2147 50.6749 23.6111 0.0000 0.0000 0.0000
# 2 50.6749 123.2147 23.6111 0.0000 0.0000 0.0000
# 3 23.6111 23.6111 75.0201 0.0000 0.0000 0.0000
# 4 0.0000 0.0000 0.0000 12.0977 0.0000 0.0000
# 5 0.0000 0.0000 0.0000 0.0000 12.0977 0.0000
# 6 0.0000 0.0000 0.0000 0.0000 0.0000 27.2294
#
#
#
# Elastic Compliance Matrix: (Units=1/GPa)
#
#
# Indices 1 2 3 4 5 6 
#
# 1 0.010037 -0.003749 -0.001979 0.000000 0.000000 0.000000
# 2 -0.003749 0.010037 -0.001979 0.000000 0.000000 0.000000
# 3 -0.001979 -0.001979 0.014576 0.000000 0.000000 0.000000
# 4 0.000000 0.000000 0.000000 0.082661 0.000000 0.000000
# 5 0.000000 0.000000 0.000000 0.000000 0.082661 0.000000
# 6 0.000000 0.000000 0.000000 0.000000 0.000000 0.036725
#
#
# Mechanical properties :
#
#
# Convention : Reuss Voigt Hill
#
# Bulk Modulus (GPa) = 51.98692 57.47149 54.72920
# Shear Modulus (GPa) = 19.34078 25.18843 22.26461
#
# Velocity S-wave (km/s) = 3.12837 3.57011 3.35652
# Velocity P-wave (km/s) = 6.27336 6.78790 6.53570
#
# Compressibility (1/GPa) = 0.01923561
#
# Stress axis : x y z
#
# Youngs Moduli (GPa) = 99.63255 99.63255 68.60814
#
# Poissons Ratio (x) = 0.37349 0.13578
# Poissons Ratio (y) = 0.37349 0.13578
# Poissons Ratio (z) = 0.19718 0.19718
#
# Static dielectric constant tensor:
#      x y z
#    x 1.736780 0.000000 0.000000 
#    y 0.000000 1.736780 0.000000 
#    z 0.000000 0.000000 1.699000 
# 
# From -- ./inp_files/7484.got.cif
#   From: 2010.05.17/outbox.cif.g08.bks.cpg/sg134_4_cif.got.tgz:7484.got - 2010.05.20 12:42:49.
