data_PCOD9568915
_publ_section_title
;
Structure prediction by ZEFSAII (Michael W. Deem and Ramdas Pophale) SiO2 
 PCOD9568915
Probable space group: P 42/M B C
;
_chemical_formula_sum "Si O2"
_cell_formula_units_Z 116
_cell_length_a 17.802813
_cell_length_b 17.802813
_cell_length_c 17.817452
_cell_angle_alpha 90.000000
_cell_angle_beta 90.000000
_cell_angle_gamma 90.000000
_cell_volume 5647.065922
_symmetry_space_group_name_H-M "P 42/M B C"
_symmetry_group_IT_number 135
_symmetry_cell_setting 'tetragonal'
loop_
_space_group_symop_operation_xyz
x,y,z
-y,x,1/2+z
-x,-y,z
y,-x,1/2+z
1/2+x,1/2-y,-z
1/2-x,1/2+y,-z
1/2+y,1/2+x,1/2-z
1/2-y,1/2-x,1/2-z
-x,-y,-z
y,-x,1/2-z
x,y,-z
-y,x,1/2-z
1/2-x,1/2+y,z
1/2+x,1/2-y,z
1/2-y,1/2-x,1/2+z
1/2+y,1/2+x,1/2+z
loop_
_atom_site_type_symbol
_atom_site_label
_atom_site_fract_x
_atom_site_fract_y
_atom_site_fract_z
Si Si1 0.556008 0.349812 0.827203
Si Si2 0.702799 0.396849 0.911240
Si Si3 0.555575 0.064496 0.591161
Si Si4 0.231612 0.446436 0.910894
Si Si5 0.166810 0.224597 0.291418
Si Si6 0.500000 0.500000 0.250000
Si Si7 0.655662 0.822814 0.170097
Si Si8 0.791141 0.491858 0.410833
O O1 0.620790 0.371568 0.886456
O O2 0.602766 0.313419 0.758717
O O3 0.513216 0.424343 0.799035
O O4 0.506211 0.284669 0.864626
O O5 0.713676 0.484760 0.893280
O O6 0.767537 0.353015 0.866237
O O7 0.714419 0.386315 0.000000
O O8 0.552735 0.061364 0.500000
O O9 0.530727 0.147542 0.613623
O O10 0.500000 0.000000 0.619769
O O11 0.642553 0.049975 0.610716
O O12 0.252816 0.371196 0.868885
O O13 0.231251 0.435159 0.000000
O O14 0.203999 0.296002 0.250000
O O15 0.236173 0.169562 0.307022
O O16 0.638192 0.861809 0.250000
O O17 0.588713 0.825478 0.111151
O O18 0.777548 0.496728 0.500000
#
# Coordination Sequence:
#
# PCOD9568915 Si02
#       8
#    16  16  16  16  16   4  16  16
#     4  12  24  45  66  98 132 182 235 282 351 411
#     4  11  23  42  68  96 131 172 223 281 338 400
#     4   9  18  36  60  91 130 168 206 257 330 401
#     4  10  22  38  63  94 125 166 213 269 330 400
#     4  11  22  41  64  93 127 165 218 277 338 396
#     4  12  28  44  70  92 140 196 226 300 360 424
#     4  11  23  41  63  97 129 174 216 273 338 405
#     4  11  24  41  67  99 135 178 226 283 344 414
#
# _framework density 20.541640999999998
#
# number of rings (size 3 to 8) (size 9 to 14) (size 15 to 20)
#    0.000    1.241    2.759    4.138    1.931    3.310 
#    0.000    2.759    0.000    0.000    0.000    0.000 
#    0.000    0.000    0.000    0.000    0.000    0.000 
#
# Total GULP energy -648295.316739 kJ/mol
# GULP energy per Si atom -5588.752731 kJ/mol
# Density = 2.049489 g / cm^3
# Si number density = 20.541641 Si / 1000 Ang^3
#
#
#
# Elastic Constant Matrix: (Units=GPa)
#
#
# Indices 1 2 3 4 5 6 
#
# 1 63.7867 13.5601 16.1090 0.0000 0.0000 0.0000
# 2 13.5601 63.7854 16.1089 0.0000 0.0000 0.0000
# 3 16.1090 16.1089 46.7359 0.0000 0.0000 0.0000
# 4 0.0000 0.0000 0.0000 32.5763 0.0000 0.0000
# 5 0.0000 0.0000 0.0000 0.0000 32.5765 0.0000
# 6 0.0000 0.0000 0.0000 0.0000 0.0000 36.7717
#
#
#
# Elastic Compliance Matrix: (Units=1/GPa)
#
#
# Indices 1 2 3 4 5 6 
#
# 1 0.017503 -0.002407 -0.005203 0.000000 0.000000 0.000000
# 2 -0.002407 0.017503 -0.005203 0.000000 0.000000 0.000000
# 3 -0.005203 -0.005203 0.024984 0.000000 0.000000 0.000000
# 4 0.000000 0.000000 0.000000 0.030697 0.000000 0.000000
# 5 0.000000 0.000000 0.000000 0.000000 0.030697 0.000000
# 6 0.000000 0.000000 0.000000 0.000000 0.000000 0.027195
#
#
# Mechanical properties :
#
#
# Convention : Reuss Voigt Hill
#
# Bulk Modulus (GPa) = 29.10117 29.54044 29.32081
# Shear Modulus (GPa) = 26.93084 28.95356 27.94220
#
# Velocity S-wave (km/s) = 3.62475 3.75841 3.69219
# Velocity P-wave (km/s) = 5.63171 5.76595 5.69922
#
# Compressibility (1/GPa) = 0.03436288
#
# Stress axis : x y z
#
# Youngs Moduli (GPa) = 57.13309 57.13187 40.02589
#
# Poissons Ratio (x) = 0.13751 0.20827
# Poissons Ratio (y) = 0.13751 0.20827
# Poissons Ratio (z) = 0.29728 0.29728
#
# Static dielectric constant tensor:
#      x y z
#    x 1.729960 0.000000 0.000000 
#    y 0.000000 1.729960 0.000000 
#    z 0.000000 0.000000 1.717210 
# 
# From -- ./inp_files/4599.got.cif
#   From: 2010.05.17/outbox.cif.g08.bks.cpg/sg135_3_cif.got.tgz:4599.got - 2010.05.20 12:50:20.
