data_PCOD9568153
_publ_section_title
;
Structure prediction by ZEFSAII (Michael W. Deem and Ramdas Pophale) SiO2 
 PCOD9568153
Probable space group: P 42/N N M
;
_chemical_formula_sum "Si O2"
_cell_formula_units_Z 112
_cell_length_a 16.604741
_cell_length_b 16.604741
_cell_length_c 20.610277
_cell_angle_alpha 90.000000
_cell_angle_beta 90.000000
_cell_angle_gamma 90.000000
_cell_volume 5682.612476
_symmetry_space_group_name_H-M "P 42/N N M"
_symmetry_group_IT_number 134
_space_group.IT_coordinate_system_code '2'
_symmetry_cell_setting 'tetragonal'
loop_
_space_group_symop_operation_xyz
x,y,z
1/2-y,x,1/2+z
1/2-x,1/2-y,z
y,1/2-x,1/2+z
x,1/2-y,1/2-z
1/2-x,y,1/2-z
y,x,-z
1/2-y,1/2-x,-z
-x,-y,-z
1/2+y,-x,1/2-z
1/2+x,1/2+y,-z
-y,1/2+x,1/2-z
-x,1/2+y,1/2+z
1/2+x,-y,1/2+z
-y,-x,z
1/2+y,1/2+x,z
loop_
_atom_site_type_symbol
_atom_site_label
_atom_site_fract_x
_atom_site_fract_y
_atom_site_fract_z
Si Si1 0.522528 0.342621 0.419507
Si Si2 0.508359 0.876210 0.245479
Si Si3 0.879735 0.254329 0.526093
Si Si4 0.146494 0.334220 0.927737
Si Si5 0.178830 0.336402 0.787853
Si Si6 0.245908 0.995953 0.139386
Si Si7 0.380413 0.745964 0.827087
O O1 0.578364 0.421637 0.413022
O O2 0.557360 0.289304 0.478782
O O3 0.430756 0.368449 0.429290
O O4 0.540095 0.280943 0.360472
O O5 0.454658 0.954658 0.251355
O O6 0.598305 0.887701 0.219125
O O7 0.516040 0.828609 0.313489
O O8 0.472513 0.816429 0.190316
O O9 0.813016 0.186985 0.540184
O O10 0.830935 0.330935 0.498556
O O11 0.924896 0.276863 0.591561
O O12 0.200124 0.324205 0.862968
O O13 0.069213 0.281020 0.905034
O O14 0.181097 0.318904 0.000000
O O15 0.164960 0.250000 0.750000
O O16 0.250000 0.377347 0.750000
O O17 0.387591 0.750000 0.750000
O O18 0.341032 0.658969 0.843646
O O19 0.311277 0.811277 0.846765
#
# Coordination Sequence:
#
# PCOD9568153 Si02
#       7
#    16  16  16  16  16  16  16
#     4  10  20  30  46  75 111 153 200 252 306 363
#     4  10  19  35  63  93 123 161 205 258 315 375
#     4  10  19  30  46  71 112 164 209 250 305 375
#     4  11  21  36  57  83 119 155 202 254 314 378
#     4  10  21  42  66  89 122 159 207 261 316 371
#     4  10  19  35  52  86 122 162 207 250 312 371
#     4   8  14  27  46  66  96 142 198 254 304 362
#
# _framework density 19.709244000000002
#
# number of rings (size 3 to 8) (size 9 to 14) (size 15 to 20)
#    0.000    2.143    4.286    1.714    0.000    5.429 
#    0.000    1.429    0.000    5.143    0.000    1.000 
#    0.000    0.286    0.000    0.000    0.000    0.000 
#
# Total GULP energy -623664.096500 kJ/mol
# GULP energy per Si atom -5568.429433 kJ/mol
# Density = 1.966438 g / cm^3
# Si number density = 19.709244 Si / 1000 Ang^3
#
#
#
# Elastic Constant Matrix: (Units=GPa)
#
#
# Indices 1 2 3 4 5 6 
#
# 1 66.1765 22.6882 24.1161 0.0000 0.0000 0.0000
# 2 22.6882 66.1765 24.1161 0.0000 0.0000 0.0000
# 3 24.1161 24.1161 132.8908 0.0000 0.0000 0.0000
# 4 0.0000 0.0000 0.0000 21.0506 0.0000 0.0000
# 5 0.0000 0.0000 0.0000 0.0000 21.0506 0.0000
# 6 0.0000 0.0000 0.0000 0.0000 0.0000 25.4721
#
#
#
# Elastic Compliance Matrix: (Units=1/GPa)
#
#
# Indices 1 2 3 4 5 6 
#
# 1 0.017739 -0.005256 -0.002265 0.000000 0.000000 0.000000
# 2 -0.005256 0.017739 -0.002265 0.000000 0.000000 0.000000
# 3 -0.002265 -0.002265 0.008347 0.000000 0.000000 0.000000
# 4 0.000000 0.000000 0.000000 0.047505 0.000000 0.000000
# 5 0.000000 0.000000 0.000000 0.000000 0.047505 0.000000
# 6 0.000000 0.000000 0.000000 0.000000 0.000000 0.039259
#
#
# Mechanical properties :
#
#
# Convention : Reuss Voigt Hill
#
# Bulk Modulus (GPa) = 41.23501 45.23164 43.23333
# Shear Modulus (GPa) = 24.30145 26.46956 25.38551
#
# Velocity S-wave (km/s) = 3.51522 3.66868 3.59277
# Velocity P-wave (km/s) = 6.11905 6.39882 6.26049
#
# Compressibility (1/GPa) = 0.02425124
#
# Stress axis : x y z
#
# Youngs Moduli (GPa) = 56.37421 56.37417 119.80158
#
# Poissons Ratio (x) = 0.29631 0.27138
# Poissons Ratio (y) = 0.29631 0.27138
# Poissons Ratio (z) = 0.12770 0.12770
#
# Static dielectric constant tensor:
#      x y z
#    x 1.717900 0.000000 0.000000 
#    y 0.000000 1.717900 0.000000 
#    z 0.000000 0.000000 1.749040 
# 
# From -- ./inp_files/9364.got.cif
#   From: 2010.05.17/outbox.cif.g08.bks.cpg/sg134_5_cif.got.tgz:9364.got - 2010.05.20 12:42:49.
