data_PCOD9568929
_publ_section_title
;
Structure prediction by ZEFSAII (Michael W. Deem and Ramdas Pophale) SiO2 
 PCOD9568929
Probable space group: P 42/M B C
;
_chemical_formula_sum "Si O2"
_cell_formula_units_Z 80
_cell_length_a 16.210817
_cell_length_b 16.210817
_cell_length_c 13.724790
_cell_angle_alpha 90.000000
_cell_angle_beta 90.000000
_cell_angle_gamma 90.000000
_cell_volume 3606.745632
_symmetry_space_group_name_H-M "P 42/M B C"
_symmetry_group_IT_number 135
_symmetry_cell_setting 'tetragonal'
loop_
_space_group_symop_operation_xyz
x,y,z
-y,x,1/2+z
-x,-y,z
y,-x,1/2+z
1/2+x,1/2-y,-z
1/2-x,1/2+y,-z
1/2+y,1/2+x,1/2-z
1/2-y,1/2-x,1/2-z
-x,-y,-z
y,-x,1/2-z
x,y,-z
-y,x,1/2-z
1/2-x,1/2+y,z
1/2+x,1/2-y,z
1/2-y,1/2-x,1/2+z
1/2+y,1/2+x,1/2+z
loop_
_atom_site_type_symbol
_atom_site_label
_atom_site_fract_x
_atom_site_fract_y
_atom_site_fract_z
Si Si1 0.417090 0.585844 0.104633
Si Si2 0.775984 0.206098 0.609878
Si Si3 0.422807 0.199694 0.274205
Si Si4 0.407691 0.761977 0.383143
Si Si5 0.578088 0.638218 0.819509
O O1 0.381945 0.679203 0.108147
O O2 0.385661 0.552733 0.208136
O O3 0.514480 0.592713 0.111187
O O4 0.388058 0.551964 0.000000
O O5 0.772571 0.239727 0.500000
O O6 0.843590 0.260984 0.667168
O O7 0.681476 0.197582 0.641847
O O8 0.391730 0.108271 0.250000
O O9 0.508966 0.205238 0.332236
O O10 0.429050 0.262673 0.182761
O O11 0.418588 0.765927 0.500000
O O12 0.389189 0.669000 0.347385
#
# Coordination Sequence:
#
# PCOD9568929 Si02
#       5
#    16  16  16  16  16
#     4  10  22  40  61  90 130 173 218 275 344 415
#     4   9  20  39  63  90 128 179 222 274 344 407
#     4  11  21  38  64  98 136 172 223 282 333 407
#     4  11  22  39  66  99 132 175 230 283 340 413
#     4  11  21  40  61  93 129 174 223 273 347 413
#
# _framework density 22.180661000000001
#
# number of rings (size 3 to 8) (size 9 to 14) (size 15 to 20)
#    0.000    1.600    4.000    1.200    0.000    1.200 
#    0.000    1.000    0.000    2.400    0.000    4.200 
#    0.000    0.000    0.000    0.000    0.000    0.000 
#
# Total GULP energy -446371.883091 kJ/mol
# GULP energy per Si atom -5579.648539 kJ/mol
# Density = 2.213018 g / cm^3
# Si number density = 22.180661 Si / 1000 Ang^3
#
#
#
# Elastic Constant Matrix: (Units=GPa)
#
#
# Indices 1 2 3 4 5 6 
#
# 1 87.2633 20.8525 16.6558 0.0000 0.0000 0.0000
# 2 20.8525 87.2643 16.6551 0.0000 0.0000 0.0000
# 3 16.6558 16.6551 91.7604 0.0000 0.0000 0.0000
# 4 0.0000 0.0000 0.0000 23.4394 0.0000 0.0000
# 5 0.0000 0.0000 0.0000 0.0000 23.4392 0.0000
# 6 0.0000 0.0000 0.0000 0.0000 0.0000 35.2936
#
#
#
# Elastic Compliance Matrix: (Units=1/GPa)
#
#
# Indices 1 2 3 4 5 6 
#
# 1 0.012428 -0.002630 -0.001778 0.000000 0.000000 0.000000
# 2 -0.002630 0.012427 -0.001778 0.000000 0.000000 0.000000
# 3 -0.001778 -0.001778 0.011544 0.000000 0.000000 0.000000
# 4 0.000000 0.000000 0.000000 0.042663 0.000000 0.000000
# 5 0.000000 0.000000 0.000000 0.000000 0.042664 0.000000
# 6 0.000000 0.000000 0.000000 0.000000 0.000000 0.028334
#
#
# Mechanical properties :
#
#
# Convention : Reuss Voigt Hill
#
# Bulk Modulus (GPa) = 41.62379 41.62388 41.62383
# Shear Modulus (GPa) = 29.33570 30.57607 29.95588
#
# Velocity S-wave (km/s) = 3.64067 3.71685 3.67896
# Velocity P-wave (km/s) = 6.03980 6.10135 6.07066
#
# Compressibility (1/GPa) = 0.02402472
#
# Stress axis : x y z
#
# Youngs Moduli (GPa) = 80.46647 80.46772 86.62880
#
# Poissons Ratio (x) = 0.21165 0.15406
# Poissons Ratio (y) = 0.21165 0.15405
# Poissons Ratio (z) = 0.14310 0.14309
#
# Static dielectric constant tensor:
#      x y z
#    x 1.888610 0.000000 0.000000 
#    y 0.000000 1.888610 0.000000 
#    z 0.000000 0.000000 1.871570 
# 
# From -- ./inp_files/3398.got.cif
#   From: 2010.05.17/outbox.cif.g08.bks.cpg/sg135_2_cif.got.tgz:3398.got - 2010.05.20 12:50:20.
