data_PCOD9568062
_publ_section_title
;
Structure prediction by ZEFSAII (Michael W. Deem and Ramdas Pophale) SiO2 
 PCOD9568062
Probable space group: P 42/N N M
;
_chemical_formula_sum "Si O2"
_cell_formula_units_Z 78
_cell_length_a 16.002652
_cell_length_b 16.002652
_cell_length_c 14.498725
_cell_angle_alpha 90.000000
_cell_angle_beta 90.000000
_cell_angle_gamma 90.000000
_cell_volume 3712.904122
_symmetry_space_group_name_H-M "P 42/N N M"
_symmetry_group_IT_number 134
_space_group.IT_coordinate_system_code '2'
_symmetry_cell_setting 'tetragonal'
loop_
_space_group_symop_operation_xyz
x,y,z
1/2-y,x,1/2+z
1/2-x,1/2-y,z
y,1/2-x,1/2+z
x,1/2-y,1/2-z
1/2-x,y,1/2-z
y,x,-z
1/2-y,1/2-x,-z
-x,-y,-z
1/2+y,-x,1/2-z
1/2+x,1/2+y,-z
-y,1/2+x,1/2-z
-x,1/2+y,1/2+z
1/2+x,-y,1/2+z
-y,-x,z
1/2+y,1/2+x,z
loop_
_atom_site_type_symbol
_atom_site_label
_atom_site_fract_x
_atom_site_fract_y
_atom_site_fract_z
Si Si1 0.250000 0.750000 0.062078
Si Si2 0.120336 0.879665 0.093423
Si Si3 0.149052 0.649052 0.907936
Si Si4 0.837452 0.899698 0.101458
Si Si5 0.284536 0.035325 0.346484
Si Si6 0.250000 0.750000 0.750000
Si Si7 0.946730 0.446730 0.423727
Si Si8 0.327740 0.038598 0.972155
O O1 0.189018 0.810983 0.118149
O O2 0.192969 0.692969 0.995895
O O3 0.029722 0.856267 0.127870
O O4 0.113961 0.886040 0.982517
O O5 0.191806 0.691806 0.817561
O O6 0.161497 0.549654 0.921378
O O7 0.873554 0.825828 0.163166
O O8 0.885264 0.986795 0.124783
O O9 0.871397 0.871397 0.000000
O O10 0.738793 0.910065 0.090360
O O11 0.250000 0.007813 0.250000
O O12 0.219733 0.027701 0.429984
O O13 0.000000 0.500000 0.500000
O O14 0.410630 0.089371 0.000000
#
# Coordination Sequence:
#
# PCOD9568062 Si02
#       8
#     4   8   8  16  16   2   8  16
#     4  11  20  35  71  89 120 172 207 278 331 429
#     4  12  19  36  61  96 129 167 221 267 348 404
#     4  11  22  47  71  97 137 168 234 285 362 400
#     4   9  17  34  60  90 124 173 227 267 325 397
#     4  11  23  38  61 101 141 172 225 287 343 425
#     4  10  28  48  76 110 126 184 250 324 320 420
#     4  10  12  29  59  83 107 152 228 265 295 373
#     4  11  23  42  70  93 133 188 229 276 357 430
#
# _framework density 21.007814
#
# number of rings (size 3 to 8) (size 9 to 14) (size 15 to 20)
#    0.000    1.436    8.205    0.308    0.000    6.154 
#    3.692    1.026    0.000    0.000    0.000    0.000 
#    0.000    0.000    0.000    0.000    0.000    0.000 
#
# Total GULP energy -434930.405724 kJ/mol
# GULP energy per Si atom -5576.030843 kJ/mol
# Density = 2.096000 g / cm^3
# Si number density = 21.007814 Si / 1000 Ang^3
#
#
#
# Elastic Constant Matrix: (Units=GPa)
#
#
# Indices 1 2 3 4 5 6 
#
# 1 100.0076 59.6824 27.3642 0.0000 0.0000 0.0000
# 2 59.6824 100.0156 27.3646 0.0000 0.0000 0.0000
# 3 27.3642 27.3646 52.4863 0.0000 0.0000 0.0000
# 4 0.0000 0.0000 0.0000 -17.7839 0.0000 0.0000
# 5 0.0000 0.0000 0.0000 0.0000 -17.7773 0.0000
# 6 0.0000 0.0000 0.0000 0.0000 0.0000 43.2066
#
#
#
# Elastic Compliance Matrix: (Units=1/GPa)
#
#
# Indices 1 2 3 4 5 6 
#
# 1 0.016211 -0.008586 -0.003975 0.000000 0.000000 0.000000
# 2 -0.008586 0.016209 -0.003975 0.000000 0.000000 0.000000
# 3 -0.003975 -0.003975 0.023197 0.000000 0.000000 0.000000
# 4 0.000000 0.000000 0.000000 -0.056231 0.000000 0.000000
# 5 0.000000 0.000000 0.000000 0.000000 -0.056252 0.000000
# 6 0.000000 0.000000 0.000000 0.000000 0.000000 0.023145
#
#
# Mechanical properties :
#
#
# Convention : Reuss Voigt Hill
#
# Bulk Modulus (GPa) = 44.35390 53.48132 48.91761
# Shear Modulus (GPa) = 728.11588 10.73563 369.42575
#
# Velocity S-wave (km/s) = 18.63720 2.26305 13.27529
# Velocity P-wave (km/s) = 22.00650 5.68697 16.07214
#
# Compressibility (1/GPa) = 0.02254593
#
# Stress axis : x y z
#
# Youngs Moduli (GPa) = 61.68729 61.69271 43.10819
#
# Poissons Ratio (x) = 0.52968 0.17137
# Poissons Ratio (y) = 0.52964 0.17134
# Poissons Ratio (z) = 0.24522 0.24521
#
# Static dielectric constant tensor:
#      x y z
#    x 1.846460 0.000000 0.000000 
#    y 0.000000 1.846460 0.000000 
#    z 0.000000 0.000000 1.753720 
# 
# From -- ./inp_files/6448.got.cif
#   From: 2010.05.17/outbox.cif.g08.bks.cpg/sg134_4_cif.got.tgz:6448.got - 2010.05.20 12:42:49.
