data_PCOD9568839
_publ_section_title
;
Structure prediction by ZEFSAII (Michael W. Deem and Ramdas Pophale) SiO2 
 PCOD9568839
Probable space group: P 42/M B C
;
_chemical_formula_sum "Si O2"
_cell_formula_units_Z 112
_cell_length_a 14.433882
_cell_length_b 14.433882
_cell_length_c 25.113978
_cell_angle_alpha 90.000000
_cell_angle_beta 90.000000
_cell_angle_gamma 90.000000
_cell_volume 5232.169569
_symmetry_space_group_name_H-M "P 42/M B C"
_symmetry_group_IT_number 135
_symmetry_cell_setting 'tetragonal'
loop_
_space_group_symop_operation_xyz
x,y,z
-y,x,1/2+z
-x,-y,z
y,-x,1/2+z
1/2+x,1/2-y,-z
1/2-x,1/2+y,-z
1/2+y,1/2+x,1/2-z
1/2-y,1/2-x,1/2-z
-x,-y,-z
y,-x,1/2-z
x,y,-z
-y,x,1/2-z
1/2-x,1/2+y,z
1/2+x,1/2-y,z
1/2-y,1/2-x,1/2+z
1/2+y,1/2+x,1/2+z
loop_
_atom_site_type_symbol
_atom_site_label
_atom_site_fract_x
_atom_site_fract_y
_atom_site_fract_z
Si Si1 0.654615 0.233527 0.557655
Si Si2 0.028846 0.605611 0.560051
Si Si3 0.260926 0.069178 0.148375
Si Si4 0.732592 0.198938 0.329870
Si Si5 0.405954 0.455538 0.096552
Si Si6 0.536815 0.250913 0.248445
Si Si7 0.857492 0.891144 0.298336
O O1 0.700786 0.225602 0.500000
O O2 0.563907 0.168176 0.558123
O O3 0.713877 0.196502 0.607088
O O4 0.617111 0.339263 0.565352
O O5 0.070089 0.607532 0.500000
O O6 0.086241 0.656377 0.606455
O O7 0.000000 0.500000 0.571922
O O8 0.226361 0.161182 0.176748
O O9 0.171009 0.029662 0.116792
O O10 0.289495 0.995862 0.194430
O O11 0.710538 0.111117 0.292903
O O12 0.672526 0.285348 0.310740
O O13 0.500000 0.500000 0.072648
O O14 0.436819 0.401929 0.149923
O O15 0.441961 0.264404 0.216733
O O16 0.562875 0.361165 0.256891
#
# Coordination Sequence:
#
# PCOD9568839 Si02
#       7
#    16  16  16  16  16  16  16
#     4   9  20  38  60  85 118 164 207 257 325 380
#     4   9  19  39  63  86 114 158 216 266 307 367
#     4  10  21  35  58  89 118 162 209 255 317 380
#     4  11  22  39  56  86 129 157 206 262 314 376
#     4   9  18  34  56  86 116 150 202 256 315 374
#     4  11  21  36  57  83 121 162 204 253 314 380
#     4  10  22  34  55  82 116 162 198 250 308 383
#
# _framework density 21.406033999999998
#
# number of rings (size 3 to 8) (size 9 to 14) (size 15 to 20)
#    0.000    2.143    1.429    2.143    2.000    2.000 
#    0.000    0.000    0.000    9.429    0.000    0.000 
#    0.000    0.000    0.000    0.000    0.000    0.000 
#
# Total GULP energy -623531.231833 kJ/mol
# GULP energy per Si atom -5567.243141 kJ/mol
# Density = 2.135731 g / cm^3
# Si number density = 21.406034 Si / 1000 Ang^3
#
#
#
# Elastic Constant Matrix: (Units=GPa)
#
#
# Indices 1 2 3 4 5 6 
#
# 1 49.7680 -14.3507 19.4028 0.0000 0.0000 0.0000
# 2 -14.3507 49.7680 19.4028 0.0000 0.0000 0.0000
# 3 19.4028 19.4028 94.8779 0.0000 0.0000 0.0000
# 4 0.0000 0.0000 0.0000 15.3214 0.0000 0.0000
# 5 0.0000 0.0000 0.0000 0.0000 15.3214 0.0000
# 6 0.0000 0.0000 0.0000 0.0000 0.0000 16.3261
#
#
#
# Elastic Compliance Matrix: (Units=1/GPa)
#
#
# Indices 1 2 3 4 5 6 
#
# 1 0.025992 0.010396 -0.007441 0.000000 0.000000 0.000000
# 2 0.010396 0.025992 -0.007441 0.000000 0.000000 0.000000
# 3 -0.007441 -0.007441 0.013583 0.000000 0.000000 0.000000
# 4 0.000000 0.000000 0.000000 0.065268 0.000000 0.000000
# 5 0.000000 0.000000 0.000000 0.000000 0.065268 0.000000
# 6 0.000000 0.000000 0.000000 0.000000 0.000000 0.061252
#
#
# Mechanical properties :
#
#
# Convention : Reuss Voigt Hill
#
# Bulk Modulus (GPa) = 17.66975 27.03595 22.35285
# Shear Modulus (GPa) = 17.53189 20.72437 19.12813
#
# Velocity S-wave (km/s) = 2.86495 3.11489 2.99253
# Velocity P-wave (km/s) = 4.38365 5.05907 4.73343
#
# Compressibility (1/GPa) = 0.05659391
#
# Stress axis : x y z
#
# Youngs Moduli (GPa) = 38.47322 38.47322 73.61900
#
# Poissons Ratio (x) = -0.39997 0.54783
# Poissons Ratio (y) = -0.39997 0.54783
# Poissons Ratio (z) = 0.28630 0.28630
#
# Static dielectric constant tensor:
#      x y z
#    x 2.041840 0.000000 0.000000 
#    y 0.000000 2.041840 0.000000 
#    z 0.000000 0.000000 1.954030 
# 
# From -- ./inp_files/6521.got.cif
#   From: 2010.05.17/outbox.cif.g08.bks.cpg/sg135_4_cif.got.tgz:6521.got - 2010.05.20 12:50:20.
