data_PCOD9568277
_publ_section_title
;
Structure prediction by ZEFSAII (Michael W. Deem and Ramdas Pophale) SiO2 
 PCOD9568277
Probable space group: P 42/N N M
;
_chemical_formula_sum "Si O2"
_cell_formula_units_Z 46
_cell_length_a 12.177380
_cell_length_b 12.177380
_cell_length_c 18.097459
_cell_angle_alpha 90.000000
_cell_angle_beta 90.000000
_cell_angle_gamma 90.000000
_cell_volume 2683.646563
_symmetry_space_group_name_H-M "P 42/N N M"
_symmetry_group_IT_number 134
_space_group.IT_coordinate_system_code '2'
_symmetry_cell_setting 'tetragonal'
loop_
_space_group_symop_operation_xyz
x,y,z
1/2-y,x,1/2+z
1/2-x,1/2-y,z
y,1/2-x,1/2+z
x,1/2-y,1/2-z
1/2-x,y,1/2-z
y,x,-z
1/2-y,1/2-x,-z
-x,-y,-z
1/2+y,-x,1/2-z
1/2+x,1/2+y,-z
-y,1/2+x,1/2-z
-x,1/2+y,1/2+z
1/2+x,-y,1/2+z
-y,-x,z
1/2+y,1/2+x,z
loop_
_atom_site_type_symbol
_atom_site_label
_atom_site_fract_x
_atom_site_fract_y
_atom_site_fract_z
Si Si1 0.426867 0.254848 0.873312
Si Si2 0.250000 0.750000 0.250000
Si Si3 0.835700 0.164301 0.892032
Si Si4 0.433209 0.380185 0.253229
Si Si5 0.750000 0.750000 0.000000
O O1 0.544740 0.290094 0.904961
O O2 0.413767 0.143712 0.823986
O O3 0.395660 0.353078 0.817215
O O4 0.350738 0.247964 0.944057
O O5 0.323345 0.823345 0.302538
O O6 0.750000 0.250000 0.925064
O O7 0.462491 0.250000 0.250000
O O8 0.537257 0.462744 0.250126
#
# Coordination Sequence:
#
# PCOD9568277 Si02
#       5
#    16   2   8  16   4
#     4  11  21  39  62  92 122 160 212 251 308 367
#     4   8  16  32  60  88 120 132 196 270 308 308
#     4  10  20  33  59  96 115 151 199 273 304 344
#     4  11  21  39  64  92 120 161 211 266 304 357
#     4  12  24  40  62  84 132 180 198 240 314 396
#
# _framework density 17.140857
#
# number of rings (size 3 to 8) (size 9 to 14) (size 15 to 20)
#    0.522    0.696    5.217    4.174    0.000    1.043 
#    0.000    3.478    0.000    0.000    0.000    0.000 
#    0.000    0.000    0.000    0.000    0.000    0.000 
#
# Total GULP energy -256093.302674 kJ/mol
# GULP energy per Si atom -5567.245710 kJ/mol
# Density = 1.710184 g / cm^3
# Si number density = 17.140857 Si / 1000 Ang^3
#
#
#
# Elastic Constant Matrix: (Units=GPa)
#
#
# Indices 1 2 3 4 5 6 
#
# 1 154.1150 99.2929 57.5637 0.0000 0.0000 0.0000
# 2 99.2929 154.1150 57.5637 0.0000 0.0000 0.0000
# 3 57.5637 57.5637 101.5882 0.0000 0.0000 0.0000
# 4 0.0000 0.0000 0.0000 19.2368 0.0000 0.0000
# 5 0.0000 0.0000 0.0000 0.0000 19.2368 0.0000
# 6 0.0000 0.0000 0.0000 0.0000 0.0000 24.2190
#
#
#
# Elastic Compliance Matrix: (Units=1/GPa)
#
#
# Indices 1 2 3 4 5 6 
#
# 1 0.011778 -0.006463 -0.003011 0.000000 0.000000 0.000000
# 2 -0.006463 0.011778 -0.003011 0.000000 0.000000 0.000000
# 3 -0.003011 -0.003011 0.013256 0.000000 0.000000 0.000000
# 4 0.000000 0.000000 0.000000 0.051984 0.000000 0.000000
# 5 0.000000 0.000000 0.000000 0.000000 0.051984 0.000000
# 6 0.000000 0.000000 0.000000 0.000000 0.000000 0.041290
#
#
# Mechanical properties :
#
#
# Convention : Reuss Voigt Hill
#
# Bulk Modulus (GPa) = 84.46134 93.18432 88.82283
# Shear Modulus (GPa) = 23.69816 25.56505 24.63161
#
# Velocity S-wave (km/s) = 3.72230 3.86614 3.79491
# Velocity P-wave (km/s) = 8.23747 8.62620 8.43407
#
# Compressibility (1/GPa) = 0.01183974
#
# Stress axis : x y z
#
# Youngs Moduli (GPa) = 84.90738 84.90738 75.43608
#
# Poissons Ratio (x) = 0.54878 0.22716
# Poissons Ratio (y) = 0.54878 0.22716
# Poissons Ratio (z) = 0.25568 0.25568
#
# Static dielectric constant tensor:
#      x y z
#    x 1.521550 0.000000 0.000000 
#    y 0.000000 1.521550 0.000000 
#    z 0.000000 0.000000 1.563200 
# 
# From -- ./inp_files/7289.got.cif
#   From: 2010.05.17/outbox.cif.g08.bks.cpg/sg134_4_cif.got.tgz:7289.got - 2010.05.20 12:42:49.
