data_PCOD9568411
_publ_section_title
;
Structure prediction by ZEFSAII (Michael W. Deem and Ramdas Pophale) SiO2 
 PCOD9568411
Probable space group: P 42/N N M
;
_chemical_formula_sum "Si O2"
_cell_formula_units_Z 112
_cell_length_a 14.972022
_cell_length_b 14.972022
_cell_length_c 22.179489
_cell_angle_alpha 90.000000
_cell_angle_beta 90.000000
_cell_angle_gamma 90.000000
_cell_volume 4971.786254
_symmetry_space_group_name_H-M "P 42/N N M"
_symmetry_group_IT_number 134
_space_group.IT_coordinate_system_code '2'
_symmetry_cell_setting 'tetragonal'
loop_
_space_group_symop_operation_xyz
x,y,z
1/2-y,x,1/2+z
1/2-x,1/2-y,z
y,1/2-x,1/2+z
x,1/2-y,1/2-z
1/2-x,y,1/2-z
y,x,-z
1/2-y,1/2-x,-z
-x,-y,-z
1/2+y,-x,1/2-z
1/2+x,1/2+y,-z
-y,1/2+x,1/2-z
-x,1/2+y,1/2+z
1/2+x,-y,1/2+z
-y,-x,z
1/2+y,1/2+x,z
loop_
_atom_site_type_symbol
_atom_site_label
_atom_site_fract_x
_atom_site_fract_y
_atom_site_fract_z
Si Si1 0.845575 0.012735 0.748630
Si Si2 0.394027 0.190326 0.637954
Si Si3 0.635137 0.986622 0.032132
Si Si4 0.207792 0.939263 0.688193
Si Si5 0.639611 0.000403 0.395988
Si Si6 0.313988 0.960910 0.470143
Si Si7 0.388684 0.369291 0.342491
O O1 0.750000 0.061844 0.750000
O O2 0.923267 0.076734 0.769254
O O3 0.828265 0.934415 0.796222
O O4 0.872453 0.968839 0.684733
O O5 0.340983 0.100790 0.622836
O O6 0.473371 0.188243 0.587474
O O7 0.345723 0.286147 0.641770
O O8 0.645377 0.949617 0.099104
O O9 0.554556 0.054556 0.034315
O O10 0.603938 0.896063 0.000000
O O11 0.712834 0.037012 0.995761
O O12 0.250000 0.904388 0.750000
O O13 0.123853 0.876148 0.672051
O O14 0.284132 0.940688 0.636457
O O15 0.175823 0.041271 0.703272
O O16 0.544671 0.044671 0.377347
O O17 0.640436 0.001643 0.468563
O O18 0.368887 0.868887 0.457008
#
# Coordination Sequence:
#
# PCOD9568411 Si02
#       7
#    16  16  16  16  16  16  16
#     4  10  21  37  61  90 123 169 222 281 347 415
#     4  11  23  43  68  97 135 181 233 292 354 425
#     4  11  22  41  68  98 138 187 238 295 360 434
#     4  12  26  45  71 102 138 183 235 292 358 437
#     4  11  24  41  66  98 137 185 231 288 356 426
#     4  11  23  41  66 101 142 188 239 295 364 439
#     4  11  23  43  70  98 133 182 236 294 356 428
#
# _framework density 22.527115999999999
#
# number of rings (size 3 to 8) (size 9 to 14) (size 15 to 20)
#    0.000    1.000    2.857    4.286    0.000    3.143 
#    0.000    2.143    0.000    1.714    0.000    0.000 
#    0.000    0.000    0.000    0.000    0.000    0.000 
#
# Total GULP energy -623905.252196 kJ/mol
# GULP energy per Si atom -5570.582609 kJ/mol
# Density = 2.247584 g / cm^3
# Si number density = 22.527116 Si / 1000 Ang^3
#
#
#
# Elastic Constant Matrix: (Units=GPa)
#
#
# Indices 1 2 3 4 5 6 
#
# 1 106.4863 63.4210 22.2954 0.0000 0.0000 0.0000
# 2 63.4210 106.4860 22.2956 0.0000 0.0000 0.0000
# 3 22.2954 22.2956 82.1701 0.0000 0.0000 0.0000
# 4 0.0000 0.0000 0.0000 26.6728 0.0000 0.0000
# 5 0.0000 0.0000 0.0000 0.0000 26.6727 0.0000
# 6 0.0000 0.0000 0.0000 0.0000 0.0000 24.6856
#
#
#
# Elastic Compliance Matrix: (Units=1/GPa)
#
#
# Indices 1 2 3 4 5 6 
#
# 1 0.014779 -0.008442 -0.001719 0.000000 0.000000 0.000000
# 2 -0.008442 0.014779 -0.001719 0.000000 0.000000 0.000000
# 3 -0.001719 -0.001719 0.013103 0.000000 0.000000 0.000000
# 4 0.000000 0.000000 0.000000 0.037491 0.000000 0.000000
# 5 0.000000 0.000000 0.000000 0.000000 0.037491 0.000000
# 6 0.000000 0.000000 0.000000 0.000000 0.000000 0.040509
#
#
# Mechanical properties :
#
#
# Convention : Reuss Voigt Hill
#
# Bulk Modulus (GPa) = 52.91289 56.79629 54.85459
# Shear Modulus (GPa) = 26.56556 28.08159 27.32357
#
# Velocity S-wave (km/s) = 3.43778 3.53451 3.48648
# Velocity P-wave (km/s) = 6.26875 6.47489 6.37265
#
# Compressibility (1/GPa) = 0.01889899
#
# Stress axis : x y z
#
# Youngs Moduli (GPa) = 67.66504 67.66477 76.31880
#
# Poissons Ratio (x) = 0.57122 0.13122
# Poissons Ratio (y) = 0.57122 0.13122
# Poissons Ratio (z) = 0.11634 0.11634
#
# Static dielectric constant tensor:
#      x y z
#    x 1.901120 0.000000 0.000000 
#    y 0.000000 1.901120 0.000000 
#    z 0.000000 0.000000 1.935370 
# 
# From -- ./inp_files/10116.got.cif
#   From: 2010.05.17/outbox.cif.g08.bks.cpg/sg134_6_cif.got.tgz:10116.got - 2010.05.20 12:42:49.
