data_PCOD9568586
_publ_section_title
;
Structure prediction by ZEFSAII (Michael W. Deem and Ramdas Pophale) SiO2 
 PCOD9568586
Probable space group: P 42/M B C
;
_chemical_formula_sum "Si O2"
_cell_formula_units_Z 60
_cell_length_a 13.902873
_cell_length_b 13.902873
_cell_length_c 14.208035
_cell_angle_alpha 90.000000
_cell_angle_beta 90.000000
_cell_angle_gamma 90.000000
_cell_volume 2746.269347
_symmetry_space_group_name_H-M "P 42/M B C"
_symmetry_group_IT_number 135
_symmetry_cell_setting 'tetragonal'
loop_
_space_group_symop_operation_xyz
x,y,z
-y,x,1/2+z
-x,-y,z
y,-x,1/2+z
1/2+x,1/2-y,-z
1/2-x,1/2+y,-z
1/2+y,1/2+x,1/2-z
1/2-y,1/2-x,1/2-z
-x,-y,-z
y,-x,1/2-z
x,y,-z
-y,x,1/2-z
1/2-x,1/2+y,z
1/2+x,1/2-y,z
1/2-y,1/2-x,1/2+z
1/2+y,1/2+x,1/2+z
loop_
_atom_site_type_symbol
_atom_site_label
_atom_site_fract_x
_atom_site_fract_y
_atom_site_fract_z
Si Si1 0.249869 0.446189 0.500000
Si Si2 0.000000 0.500000 0.000000
Si Si3 0.150129 0.847673 0.000000
Si Si4 0.151373 0.562729 0.156641
Si Si5 0.189805 0.340109 0.847335
Si Si6 0.190050 0.072752 0.000000
O O1 0.280129 0.557158 0.500000
O O2 0.192978 0.401021 0.589269
O O3 0.351807 0.393970 0.500000
O O4 0.935086 0.446548 0.082056
O O5 0.217433 0.827110 0.911382
O O6 0.145549 0.964860 0.000000
O O7 0.120917 0.620917 0.250000
O O8 0.173981 0.451161 0.180903
O O9 0.243733 0.590509 0.092393
O O10 0.210328 0.289673 0.750000
#
# Coordination Sequence:
#
# PCOD9568586 Si02
#       6
#     8   4   8  16  16   8
#     4  11  22  44  68  91 134 192 224 285 345 422
#     4  10  16  28  54  92 124 166 214 248 358 406
#     4   9  21  45  69  91 137 187 219 290 351 408
#     4  10  20  37  62  96 133 173 216 292 347 403
#     4  10  22  43  62  98 139 169 229 291 343 414
#     4   9  21  40  66  96 127 173 244 278 337 427
#
# _framework density 21.847821
#
# number of rings (size 3 to 8) (size 9 to 14) (size 15 to 20)
#    0.000    2.133    0.000    4.800    0.000    1.067 
#   38.400    1.333    0.000    0.000    0.000    0.000 
#    0.000    0.000    0.000    0.533    0.000    0.000 
#
# Total GULP energy -334105.886933 kJ/mol
# GULP energy per Si atom -5568.431449 kJ/mol
# Density = 2.179809 g / cm^3
# Si number density = 21.847821 Si / 1000 Ang^3
#
#
#
# Elastic Constant Matrix: (Units=GPa)
#
#
# Indices 1 2 3 4 5 6 
#
# 1 107.9916 44.9585 32.5989 0.0000 0.0000 0.0000
# 2 44.9585 107.9926 32.5995 0.0000 0.0000 0.0000
# 3 32.5989 32.5995 169.6521 0.0000 0.0000 0.0000
# 4 0.0000 0.0000 0.0000 53.4501 0.0000 0.0000
# 5 0.0000 0.0000 0.0000 0.0000 53.4411 0.0000
# 6 0.0000 0.0000 0.0000 0.0000 0.0000 40.9481
#
#
#
# Elastic Compliance Matrix: (Units=1/GPa)
#
#
# Indices 1 2 3 4 5 6 
#
# 1 0.011493 -0.004372 -0.001368 0.000000 0.000000 0.000000
# 2 -0.004372 0.011493 -0.001368 0.000000 0.000000 0.000000
# 3 -0.001368 -0.001368 0.006420 0.000000 0.000000 0.000000
# 4 0.000000 0.000000 0.000000 0.018709 0.000000 0.000000
# 5 0.000000 0.000000 0.000000 0.000000 0.018712 0.000000
# 6 0.000000 0.000000 0.000000 0.000000 0.000000 0.024421
#
#
# Mechanical properties :
#
#
# Convention : Reuss Voigt Hill
#
# Bulk Modulus (GPa) = 65.83515 67.32780 66.58148
# Shear Modulus (GPa) = 45.23719 47.93315 46.58517
#
# Velocity S-wave (km/s) = 4.55528 4.68905 4.62265
# Velocity P-wave (km/s) = 7.60699 7.75886 7.68330
#
# Compressibility (1/GPa) = 0.01518945
#
# Stress axis : x y z
#
# Youngs Moduli (GPa) = 87.00950 87.01011 155.75602
#
# Poissons Ratio (x) = 0.38037 0.21313
# Poissons Ratio (y) = 0.38037 0.21314
# Poissons Ratio (z) = 0.11906 0.11907
#
# Static dielectric constant tensor:
#      x y z
#    x 1.846480 0.000000 0.000000 
#    y 0.000000 1.846480 0.000000 
#    z 0.000000 0.000000 1.752350 
# 
# From -- ./inp_files/3256.got.cif
#   From: 2010.05.17/outbox.cif.g08.bks.cpg/sg135_2_cif.got.tgz:3256.got - 2010.05.20 12:50:20.
