data_PCOD9568463
_publ_section_title
;
Structure prediction by ZEFSAII (Michael W. Deem and Ramdas Pophale) SiO2 
 PCOD9568463
Probable space group: P 42/N N M
;
_chemical_formula_sum "Si O2"
_cell_formula_units_Z 80
_cell_length_a 12.380760
_cell_length_b 12.380760
_cell_length_c 25.863287
_cell_angle_alpha 90.000000
_cell_angle_beta 90.000000
_cell_angle_gamma 90.000000
_cell_volume 3964.407864
_symmetry_space_group_name_H-M "P 42/N N M"
_symmetry_group_IT_number 134
_space_group.IT_coordinate_system_code '2'
_symmetry_cell_setting 'tetragonal'
loop_
_space_group_symop_operation_xyz
x,y,z
1/2-y,x,1/2+z
1/2-x,1/2-y,z
y,1/2-x,1/2+z
x,1/2-y,1/2-z
1/2-x,y,1/2-z
y,x,-z
1/2-y,1/2-x,-z
-x,-y,-z
1/2+y,-x,1/2-z
1/2+x,1/2+y,-z
-y,1/2+x,1/2-z
-x,1/2+y,1/2+z
1/2+x,-y,1/2+z
-y,-x,z
1/2+y,1/2+x,z
loop_
_atom_site_type_symbol
_atom_site_label
_atom_site_fract_x
_atom_site_fract_y
_atom_site_fract_z
Si Si1 0.434041 0.750256 0.108374
Si Si2 0.622532 0.721717 0.310668
Si Si3 0.314128 0.508694 0.698773
Si Si4 0.925844 0.257337 0.406415
Si Si5 0.246027 0.427850 0.497025
O O1 0.350894 0.649107 0.108624
O O2 0.357485 0.857485 0.115833
O O3 0.528863 0.734597 0.151514
O O4 0.496270 0.756787 0.053247
O O5 0.750000 0.750000 0.323439
O O6 0.606322 0.750000 0.250000
O O7 0.613237 0.592617 0.315811
O O8 0.250000 0.480547 0.750000
O O9 0.385357 0.614644 0.707973
O O10 0.235159 0.526984 0.650807
O O11 0.837648 0.162353 0.403876
O O12 0.866113 0.366113 0.420976
O O13 0.008098 0.232434 0.450720
O O14 0.333697 0.333697 0.500000
O O15 0.129209 0.370792 0.500000
#
# Coordination Sequence:
#
# PCOD9568463 Si02
#       5
#    16  16  16  16  16
#     4  11  26  46  70 101 137 178 229 286 343 410
#     4  11  24  45  67  97 132 173 224 274 331 404
#     4  11  22  39  65  95 128 168 213 268 333 398
#     4  10  22  40  62  89 125 166 210 264 326 394
#     4  11  25  41  64  96 132 176 225 276 335 399
#
# _framework density 20.179556999999999
#
# number of rings (size 3 to 8) (size 9 to 14) (size 15 to 20)
#    0.000    1.200    2.000    3.600    5.600    9.000 
#    0.000    1.000    0.000    0.000    0.000    0.000 
#    0.000    0.000    0.000    0.000    0.000    0.000 
#
# Total GULP energy -446561.830680 kJ/mol
# GULP energy per Si atom -5582.022884 kJ/mol
# Density = 2.013363 g / cm^3
# Si number density = 20.179557 Si / 1000 Ang^3
#
#
#
# Elastic Constant Matrix: (Units=GPa)
#
#
# Indices 1 2 3 4 5 6 
#
# 1 84.8708 33.0323 45.4168 0.0000 0.0000 0.0000
# 2 33.0323 84.8860 45.4159 0.0000 0.0000 0.0000
# 3 45.4168 45.4159 111.0174 0.0000 0.0000 0.0000
# 4 0.0000 0.0000 0.0000 32.3535 0.0000 0.0000
# 5 0.0000 0.0000 0.0000 0.0000 32.3543 0.0000
# 6 0.0000 0.0000 0.0000 0.0000 0.0000 150.6476
#
#
#
# Elastic Compliance Matrix: (Units=1/GPa)
#
#
# Indices 1 2 3 4 5 6 
#
# 1 0.015838 -0.003452 -0.005067 0.000000 0.000000 0.000000
# 2 -0.003452 0.015834 -0.005065 0.000000 0.000000 0.000000
# 3 -0.005067 -0.005065 0.013153 0.000000 0.000000 0.000000
# 4 0.000000 0.000000 0.000000 0.030909 0.000000 0.000000
# 5 0.000000 0.000000 0.000000 0.000000 0.030908 0.000000
# 6 0.000000 0.000000 0.000000 0.000000 0.000000 0.006638
#
#
# Mechanical properties :
#
#
# Convention : Reuss Voigt Hill
#
# Bulk Modulus (GPa) = 56.63913 58.72268 57.68091
# Shear Modulus (GPa) = 34.16888 53.53170 43.85029
#
# Velocity S-wave (km/s) = 4.11937 5.15609 4.66661
# Velocity P-wave (km/s) = 7.12419 8.03805 7.59488
#
# Compressibility (1/GPa) = 0.01765564
#
# Stress axis : x y z
#
# Youngs Moduli (GPa) = 63.14075 63.15590 76.03087
#
# Poissons Ratio (x) = 0.21802 0.38524
# Poissons Ratio (y) = 0.21797 0.38511
# Poissons Ratio (z) = 0.31993 0.31990
#
# Static dielectric constant tensor:
#      x y z
#    x 1.766350 0.000000 0.000000 
#    y 0.000000 1.766310 0.000000 
#    z 0.000000 0.000000 1.633840 
# 
# From -- ./inp_files/11274.got.cif
#   From: 2010.05.17/outbox.cif.g08.bks.cpg/sg134_6_cif.got.tgz:11274.got - 2010.05.20 12:42:49.
