data_PCOD9568597
_publ_section_title
;
Structure prediction by ZEFSAII (Michael W. Deem and Ramdas Pophale) SiO2 
 PCOD9568597
Probable space group: P 42/M B C
;
_chemical_formula_sum "Si O2"
_cell_formula_units_Z 112
_cell_length_a 21.134687
_cell_length_b 21.134687
_cell_length_c 17.134848
_cell_angle_alpha 90.000000
_cell_angle_beta 90.000000
_cell_angle_gamma 90.000000
_cell_volume 7653.708138
_symmetry_space_group_name_H-M "P 42/M B C"
_symmetry_group_IT_number 135
_symmetry_cell_setting 'tetragonal'
loop_
_space_group_symop_operation_xyz
x,y,z
-y,x,1/2+z
-x,-y,z
y,-x,1/2+z
1/2+x,1/2-y,-z
1/2-x,1/2+y,-z
1/2+y,1/2+x,1/2-z
1/2-y,1/2-x,1/2-z
-x,-y,-z
y,-x,1/2-z
x,y,-z
-y,x,1/2-z
1/2-x,1/2+y,z
1/2+x,1/2-y,z
1/2-y,1/2-x,1/2+z
1/2+y,1/2+x,1/2+z
loop_
_atom_site_type_symbol
_atom_site_label
_atom_site_fract_x
_atom_site_fract_y
_atom_site_fract_z
Si Si1 0.204191 0.623421 0.407124
Si Si2 0.725634 0.117927 0.236848
Si Si3 0.559936 0.045424 0.412300
Si Si4 0.503646 0.827102 0.814589
Si Si5 0.720529 0.326100 0.731622
Si Si6 0.959365 0.694686 0.412481
Si Si7 0.799904 0.414197 0.833256
O O1 0.208781 0.631639 0.500000
O O2 0.198646 0.550262 0.381424
O O3 0.262281 0.651470 0.356031
O O4 0.140332 0.657914 0.373665
O O5 0.668797 0.168797 0.250000
O O6 0.792111 0.154043 0.244613
O O7 0.719795 0.090026 0.150131
O O8 0.715648 0.056624 0.291542
O O9 0.587952 0.037745 0.500000
O O10 0.540267 0.118317 0.404898
O O11 0.500000 0.000000 0.408145
O O12 0.608085 0.025348 0.345740
O O13 0.548365 0.834175 0.738154
O O14 0.772041 0.272041 0.750000
O O15 0.739809 0.381620 0.791359
O O16 0.941302 0.711142 0.500000
O O17 0.030323 0.716822 0.392944
#
# Coordination Sequence:
#
# PCOD9568597 Si02
#       7
#    16  16  16  16  16  16  16
#     4  10  18  30  47  66  88 117 152 194 231 260
#     4  10  18  32  45  63  89 122 155 188 224 266
#     4  10  19  28  39  62  94 128 158 184 214 254
#     4  10  18  29  44  64  90 122 153 188 221 263
#     4   8  17  31  47  62  83 113 158 195 224 265
#     4  10  19  29  44  65  92 121 152 188 224 262
#     4   9  18  31  45  65  85 116 157 195 224 256
#
# _framework density 14.633430000000001
#
# number of rings (size 3 to 8) (size 9 to 14) (size 15 to 20)
#    0.000    2.429    1.429    3.000    0.000    2.857 
#    0.000    1.429    0.000    2.571    0.000    0.000 
#    0.000   46.286    0.000   23.143    0.000    0.000 
#
# Total GULP energy -623709.626354 kJ/mol
# GULP energy per Si atom -5568.835950 kJ/mol
# Density = 1.460012 g / cm^3
# Si number density = 14.633430 Si / 1000 Ang^3
#
#
#
# Elastic Constant Matrix: (Units=GPa)
#
#
# Indices 1 2 3 4 5 6 
#
# 1 55.0977 49.6689 41.0545 0.0000 0.0000 0.0000
# 2 49.6689 55.0977 41.0545 0.0000 0.0000 0.0000
# 3 41.0545 41.0545 90.9599 0.0000 0.0000 0.0000
# 4 0.0000 0.0000 0.0000 27.6186 0.0000 0.0000
# 5 0.0000 0.0000 0.0000 0.0000 27.6186 0.0000
# 6 0.0000 0.0000 0.0000 0.0000 0.0000 24.6286
#
#
#
# Elastic Compliance Matrix: (Units=1/GPa)
#
#
# Indices 1 2 3 4 5 6 
#
# 1 0.099486 -0.084716 -0.006666 0.000000 0.000000 0.000000
# 2 -0.084716 0.099486 -0.006666 0.000000 0.000000 0.000000
# 3 -0.006666 -0.006666 0.017011 0.000000 0.000000 0.000000
# 4 0.000000 0.000000 0.000000 0.036207 0.000000 0.000000
# 5 0.000000 0.000000 0.000000 0.000000 0.036207 0.000000
# 6 0.000000 0.000000 0.000000 0.000000 0.000000 0.040603
#
#
# Mechanical properties :
#
#
# Convention : Reuss Voigt Hill
#
# Bulk Modulus (GPa) = 50.28738 51.63457 50.96097
# Shear Modulus (GPa) = 9.40334 20.59830 15.00082
#
# Velocity S-wave (km/s) = 2.53769 3.75590 3.20520
# Velocity P-wave (km/s) = 6.55941 7.36009 6.97125
#
# Compressibility (1/GPa) = 0.01988571
#
# Stress axis : x y z
#
# Youngs Moduli (GPa) = 10.05171 10.05171 58.78405
#
# Poissons Ratio (x) = 0.85154 0.39187
# Poissons Ratio (y) = 0.85154 0.39187
# Poissons Ratio (z) = 0.06701 0.06701
#
# Static dielectric constant tensor:
#      x y z
#    x 1.480070 0.000000 0.000000 
#    y 0.000000 1.480070 0.000000 
#    z 0.000000 0.000000 1.515350 
# 
# From -- ./inp_files/4687.got.cif
#   From: 2010.05.17/outbox.cif.g08.bks.cpg/sg135_3_cif.got.tgz:4687.got - 2010.05.20 12:50:20.
