data_PCOD9568477
_publ_section_title
;
Structure prediction by ZEFSAII (Michael W. Deem and Ramdas Pophale) SiO2 
 PCOD9568477
Probable space group: P 42/N N M
;
_chemical_formula_sum "Si O2"
_cell_formula_units_Z 70
_cell_length_a 14.403660
_cell_length_b 14.403660
_cell_length_c 18.910784
_cell_angle_alpha 90.000000
_cell_angle_beta 90.000000
_cell_angle_gamma 90.000000
_cell_volume 3923.333771
_symmetry_space_group_name_H-M "P 42/N N M"
_symmetry_group_IT_number 134
_space_group.IT_coordinate_system_code '2'
_symmetry_cell_setting 'tetragonal'
loop_
_space_group_symop_operation_xyz
x,y,z
1/2-y,x,1/2+z
1/2-x,1/2-y,z
y,1/2-x,1/2+z
x,1/2-y,1/2-z
1/2-x,y,1/2-z
y,x,-z
1/2-y,1/2-x,-z
-x,-y,-z
1/2+y,-x,1/2-z
1/2+x,1/2+y,-z
-y,1/2+x,1/2-z
-x,1/2+y,1/2+z
1/2+x,-y,1/2+z
-y,-x,z
1/2+y,1/2+x,z
loop_
_atom_site_type_symbol
_atom_site_label
_atom_site_fract_x
_atom_site_fract_y
_atom_site_fract_z
Si Si1 0.750000 0.750000 0.500000
Si Si2 0.620967 0.379034 0.348417
Si Si3 0.839661 0.010170 0.800204
Si Si4 0.213726 0.066885 0.411827
Si Si5 0.078003 0.921998 0.489598
Si Si6 0.151828 0.416147 0.788640
Si Si7 0.250000 0.750000 0.750000
O O1 0.753809 0.848522 0.539844
O O2 0.616212 0.383789 0.434745
O O3 0.517999 0.351898 0.322153
O O4 0.688581 0.311419 0.304359
O O5 0.750000 0.018830 0.750000
O O6 0.895927 0.104074 0.800917
O O7 0.801565 0.979793 0.875304
O O8 0.903479 0.928582 0.769150
O O9 0.153154 0.119839 0.351268
O O10 0.155565 0.982450 0.447498
O O11 0.000000 0.000000 0.500000
O O12 0.250000 0.396140 0.750000
#
# Coordination Sequence:
#
# PCOD9568477 Si02
#       7
#     4   8  16  16   8  16   2
#     4  12  20  38  60  92 112 158 200 276 300 366
#     4  12  22  40  66  91 126 165 213 260 323 383
#     4  10  23  39  60  91 125 159 205 257 315 368
#     4  11  23  39  63  89 128 160 219 255 315 387
#     4  12  22  42  66  86 120 181 211 256 320 405
#     4  11  20  37  65  94 123 166 207 265 319 369
#     4  12  28  44  60 104 124 160 218 276 328 408
#
# _framework density 17.841968999999999
#
# number of rings (size 3 to 8) (size 9 to 14) (size 15 to 20)
#    0.000    0.914    5.714    1.371    4.800    3.429 
#    2.057    0.571    0.000    0.000    0.000    0.000 
#    0.000    0.000    0.000    0.000    0.000    0.000 
#
# Total GULP energy -390212.817344 kJ/mol
# GULP energy per Si atom -5574.468819 kJ/mol
# Density = 1.780136 g / cm^3
# Si number density = 17.841969 Si / 1000 Ang^3
#
#
#
# Elastic Constant Matrix: (Units=GPa)
#
#
# Indices 1 2 3 4 5 6 
#
# 1 81.0275 55.2179 50.6837 0.0000 0.0000 0.0000
# 2 55.2179 81.0275 50.6837 0.0000 0.0000 0.0000
# 3 50.6837 50.6837 109.2974 0.0000 0.0000 0.0000
# 4 0.0000 0.0000 0.0000 25.0668 0.0000 0.0000
# 5 0.0000 0.0000 0.0000 0.0000 25.0668 0.0000
# 6 0.0000 0.0000 0.0000 0.0000 0.0000 34.4616
#
#
#
# Elastic Compliance Matrix: (Units=1/GPa)
#
#
# Indices 1 2 3 4 5 6 
#
# 1 0.024976 -0.013770 -0.005196 0.000000 0.000000 0.000000
# 2 -0.013770 0.024976 -0.005196 0.000000 0.000000 0.000000
# 3 -0.005196 -0.005196 0.013969 0.000000 0.000000 0.000000
# 4 0.000000 0.000000 0.000000 0.039893 0.000000 0.000000
# 5 0.000000 0.000000 0.000000 0.000000 0.039893 0.000000
# 6 0.000000 0.000000 0.000000 0.000000 0.000000 0.029018
#
#
# Mechanical properties :
#
#
# Convention : Reuss Voigt Hill
#
# Bulk Modulus (GPa) = 64.12393 64.94701 64.53547
# Shear Modulus (GPa) = 22.09965 24.57016 23.33491
#
# Velocity S-wave (km/s) = 3.52324 3.71495 3.62037
# Velocity P-wave (km/s) = 7.25044 7.40820 7.32975
#
# Compressibility (1/GPa) = 0.01559480
#
# Stress axis : x y z
#
# Youngs Moduli (GPa) = 40.03914 40.03914 71.58838
#
# Poissons Ratio (x) = 0.55133 0.37200
# Poissons Ratio (y) = 0.55133 0.37200
# Poissons Ratio (z) = 0.20806 0.20806
#
# Static dielectric constant tensor:
#      x y z
#    x 1.549880 0.000000 0.000000 
#    y 0.000000 1.549880 0.000000 
#    z 0.000000 0.000000 1.642100 
# 
# From -- ./inp_files/7718.got.cif
#   From: 2010.05.17/outbox.cif.g08.bks.cpg/sg134_4_cif.got.tgz:7718.got - 2010.05.20 12:42:49.
