data_PCOD9568103
_publ_section_title
;
Structure prediction by ZEFSAII (Michael W. Deem and Ramdas Pophale) SiO2 
 PCOD9568103
Probable space group: P 42/N N M
;
_chemical_formula_sum "Si O2"
_cell_formula_units_Z 96
_cell_length_a 30.133239
_cell_length_b 30.133239
_cell_length_c 7.888772
_cell_angle_alpha 90.000000
_cell_angle_beta 90.000000
_cell_angle_gamma 90.000000
_cell_volume 7163.100372
_symmetry_space_group_name_H-M "P 42/N N M"
_symmetry_group_IT_number 134
_space_group.IT_coordinate_system_code '2'
_symmetry_cell_setting 'tetragonal'
loop_
_space_group_symop_operation_xyz
x,y,z
1/2-y,x,1/2+z
1/2-x,1/2-y,z
y,1/2-x,1/2+z
x,1/2-y,1/2-z
1/2-x,y,1/2-z
y,x,-z
1/2-y,1/2-x,-z
-x,-y,-z
1/2+y,-x,1/2-z
1/2+x,1/2+y,-z
-y,1/2+x,1/2-z
-x,1/2+y,1/2+z
1/2+x,-y,1/2+z
-y,-x,z
1/2+y,1/2+x,z
loop_
_atom_site_type_symbol
_atom_site_label
_atom_site_fract_x
_atom_site_fract_y
_atom_site_fract_z
Si Si1 0.964499 0.884816 0.686334
Si Si2 0.813351 0.699954 0.701757
Si Si3 0.954993 0.616586 0.190148
Si Si4 0.400720 0.298094 0.789766
Si Si5 0.701894 0.584987 0.192745
Si Si6 0.502521 0.426123 0.995246
O O1 0.922627 0.918464 0.696678
O O2 0.978864 0.885185 0.491245
O O3 0.945552 0.837123 0.739188
O O4 0.999478 0.901866 0.824006
O O5 0.797670 0.750000 0.750000
O O6 0.804747 0.695254 0.500000
O O7 0.797267 0.651411 0.765855
O O8 0.864615 0.699124 0.760001
O O9 0.927485 0.662040 0.205146
O O10 0.987637 0.607198 0.346650
O O11 0.419755 0.250000 0.750000
O O12 0.406864 0.304097 0.991706
O O13 0.750000 0.567930 0.250000
O O14 0.548531 0.451470 0.965530
O O15 0.464683 0.464683 0.000000
#
# Coordination Sequence:
#
# PCOD9568103 Si02
#       6
#    16  16  16  16  16  16
#     4  10  18  30  48  63  84 109 132 166 214 257
#     4   9  19  33  47  56  75 101 135 183 227 268
#     4  10  19  30  47  65  84 108 134 169 210 259
#     4  11  20  31  45  61  81 108 142 178 219 264
#     4  10  18  31  46  62  79 104 140 176 215 263
#     4   9  18  31  48  67  87 107 130 163 207 262
#
# _framework density 13.402018
#
# number of rings (size 3 to 8) (size 9 to 14) (size 15 to 20)
#    0.000    2.167    3.333    1.000    0.000    1.000 
#    0.000    5.833    0.000    0.000    0.000    0.000 
#    0.000    0.000    0.000    0.000    0.000    0.000 
#
# Total GULP energy -534624.905669 kJ/mol
# GULP energy per Si atom -5569.009434 kJ/mol
# Density = 1.337151 g / cm^3
# Si number density = 13.402018 Si / 1000 Ang^3
#
#
#
# Elastic Constant Matrix: (Units=GPa)
#
#
# Indices 1 2 3 4 5 6 
#
# 1 42.1362 28.4864 21.6850 0.0000 0.0000 0.0000
# 2 28.4864 42.1361 21.6850 0.0000 0.0000 0.0000
# 3 21.6850 21.6850 70.0831 0.0000 0.0000 0.0000
# 4 0.0000 0.0000 0.0000 10.7319 0.0000 0.0000
# 5 0.0000 0.0000 0.0000 0.0000 10.7319 0.0000
# 6 0.0000 0.0000 0.0000 0.0000 0.0000 -19.0484
#
#
#
# Elastic Compliance Matrix: (Units=1/GPa)
#
#
# Indices 1 2 3 4 5 6 
#
# 1 0.045371 -0.027890 -0.005409 0.000000 0.000000 0.000000
# 2 -0.027890 0.045372 -0.005409 0.000000 0.000000 0.000000
# 3 -0.005409 -0.005409 0.017616 0.000000 0.000000 0.000000
# 4 0.000000 0.000000 0.000000 0.093180 0.000000 0.000000
# 5 0.000000 0.000000 0.000000 0.000000 0.093180 0.000000
# 6 0.000000 0.000000 0.000000 0.000000 0.000000 -0.052498
#
#
# Mechanical properties :
#
#
# Convention : Reuss Voigt Hill
#
# Bulk Modulus (GPa) = 32.31767 33.11868 32.71818
# Shear Modulus (GPa) = 15.15372 5.98301 10.56837
#
# Velocity S-wave (km/s) = 3.36624 2.11517 2.81119
# Velocity P-wave (km/s) = 6.26699 5.54352 5.91632
#
# Compressibility (1/GPa) = 0.03094282
#
# Stress axis : x y z
#
# Youngs Moduli (GPa) = 22.04031 22.04026 56.76616
#
# Poissons Ratio (x) = 0.61470 0.30705
# Poissons Ratio (y) = 0.61470 0.30706
# Poissons Ratio (z) = 0.11922 0.11922
#
# Static dielectric constant tensor:
#      x y z
#    x 1.425130 0.000000 0.000000 
#    y 0.000000 1.425130 0.000000 
#    z 0.000000 0.000000 2.086380 
# 
# From -- ./inp_files/3342.got.cif
#   From: 2010.05.17/outbox.cif.g08.bks.cpg/sg134_2_cif.got.tgz:3342.got - 2010.05.20 12:42:49.
