data_PCOD9568747
_publ_section_title
;
Structure prediction by ZEFSAII (Michael W. Deem and Ramdas Pophale) SiO2 
 PCOD9568747
Probable space group: P 42/M B C
;
_chemical_formula_sum "Si O2"
_cell_formula_units_Z 96
_cell_length_a 23.907292
_cell_length_b 23.907292
_cell_length_c 8.970500
_cell_angle_alpha 90.000000
_cell_angle_beta 90.000000
_cell_angle_gamma 90.000000
_cell_volume 5127.166518
_symmetry_space_group_name_H-M "P 42/M B C"
_symmetry_group_IT_number 135
_symmetry_cell_setting 'tetragonal'
loop_
_space_group_symop_operation_xyz
x,y,z
-y,x,1/2+z
-x,-y,z
y,-x,1/2+z
1/2+x,1/2-y,-z
1/2-x,1/2+y,-z
1/2+y,1/2+x,1/2-z
1/2-y,1/2-x,1/2-z
-x,-y,-z
y,-x,1/2-z
x,y,-z
-y,x,1/2-z
1/2-x,1/2+y,z
1/2+x,1/2-y,z
1/2-y,1/2-x,1/2+z
1/2+y,1/2+x,1/2+z
loop_
_atom_site_type_symbol
_atom_site_label
_atom_site_fract_x
_atom_site_fract_y
_atom_site_fract_z
Si Si1 0.303184 0.473359 0.329990
Si Si2 0.299847 0.031742 0.178006
Si Si3 0.083071 0.028214 0.747929
Si Si4 0.498804 0.914544 0.820464
Si Si5 0.762076 0.345641 0.820158
Si Si6 0.363791 0.643066 0.171075
O O1 0.281800 0.469757 0.500000
O O2 0.258779 0.504958 0.228893
O O3 0.363538 0.504021 0.338355
O O4 0.317601 0.412161 0.263966
O O5 0.351106 0.004577 0.266166
O O6 0.295293 0.097492 0.215599
O O7 0.307325 0.025946 0.000000
O O8 0.111769 0.080122 0.831260
O O9 0.027667 0.056940 0.675546
O O10 0.550546 0.949455 0.750000
O O11 0.444482 0.944482 0.750000
O O12 0.499034 0.919253 0.000000
O O13 0.793178 0.293178 0.750000
O O14 0.698196 0.353010 0.764280
O O15 0.761579 0.341229 0.000000
O O16 0.358848 0.660866 0.000000
#
# Coordination Sequence:
#
# PCOD9568747 Si02
#       6
#    16  16  16  16  16  16
#     4  10  20  34  54  82 115 151 194 241 291 343
#     4  11  22  38  59  84 115 153 194 237 293 346
#     4   9  17  30  51  81 115 152 191 235 288 349
#     4  11  22  39  63  92 123 151 184 227 284 348
#     4  10  21  37  57  80 108 147 190 236 284 336
#     4   9  18  35  54  75 111 155 190 234 295 346
#
# _framework density 18.723790999999999
#
# number of rings (size 3 to 8) (size 9 to 14) (size 15 to 20)
#    0.000    2.000    1.667    3.000    0.000    3.333 
#    0.000    7.500    0.000    2.000    0.000    0.000 
#    0.000    0.000    0.000    0.000    0.000    0.000 
#
# Total GULP energy -534444.028169 kJ/mol
# GULP energy per Si atom -5567.125293 kJ/mol
# Density = 1.868118 g / cm^3
# Si number density = 18.723791 Si / 1000 Ang^3
#
#
#
# Elastic Constant Matrix: (Units=GPa)
#
#
# Indices 1 2 3 4 5 6 
#
# 1 110.9472 55.6641 25.8032 0.0000 0.0000 0.0000
# 2 55.6641 110.9471 25.8022 0.0000 0.0000 0.0000
# 3 25.8032 25.8022 65.2626 0.0000 0.0000 0.0000
# 4 0.0000 0.0000 0.0000 8.3841 0.0000 0.0000
# 5 0.0000 0.0000 0.0000 0.0000 8.3840 0.0000
# 6 0.0000 0.0000 0.0000 0.0000 0.0000 28.3080
#
#
#
# Elastic Compliance Matrix: (Units=1/GPa)
#
#
# Indices 1 2 3 4 5 6 
#
# 1 0.012464 -0.005625 -0.002704 0.000000 0.000000 0.000000
# 2 -0.005625 0.012464 -0.002704 0.000000 0.000000 0.000000
# 3 -0.002704 -0.002704 0.017461 0.000000 0.000000 0.000000
# 4 0.000000 0.000000 0.000000 0.119273 0.000000 0.000000
# 5 0.000000 0.000000 0.000000 0.000000 0.119275 0.000000
# 6 0.000000 0.000000 0.000000 0.000000 0.000000 0.035326
#
#
# Mechanical properties :
#
#
# Convention : Reuss Voigt Hill
#
# Bulk Modulus (GPa) = 49.20402 55.74397 52.47400
# Shear Modulus (GPa) = 14.48839 21.00770 17.74805
#
# Velocity S-wave (km/s) = 2.78474 3.35323 3.08212
# Velocity P-wave (km/s) = 6.05604 6.69541 6.38374
#
# Compressibility (1/GPa) = 0.02032354
#
# Stress axis : x y z
#
# Youngs Moduli (GPa) = 80.22977 80.23032 57.27060
#
# Poissons Ratio (x) = 0.45126 0.15488
# Poissons Ratio (y) = 0.45126 0.15486
# Poissons Ratio (z) = 0.21696 0.21694
#
# Static dielectric constant tensor:
#      x y z
#    x 1.659040 0.000000 0.000000 
#    y 0.000000 1.659040 0.000000 
#    z 0.000000 0.000000 1.655750 
# 
# From -- ./inp_files/1258.got.cif
#   From: 2010.05.17/outbox.cif.g08.bks.cpg/sg135_1_cif.got.tgz:1258.got - 2010.05.20 12:50:20.
