data_PCOD9568523
_publ_section_title
;
Structure prediction by ZEFSAII (Michael W. Deem and Ramdas Pophale) SiO2 
 PCOD9568523
Probable space group: P 42/N N M
;
_chemical_formula_sum "Si O2"
_cell_formula_units_Z 72
_cell_length_a 14.874529
_cell_length_b 14.874529
_cell_length_c 17.406330
_cell_angle_alpha 90.000000
_cell_angle_beta 90.000000
_cell_angle_gamma 90.000000
_cell_volume 3851.178588
_symmetry_space_group_name_H-M "P 42/N N M"
_symmetry_group_IT_number 134
_space_group.IT_coordinate_system_code '2'
_symmetry_cell_setting 'tetragonal'
loop_
_space_group_symop_operation_xyz
x,y,z
1/2-y,x,1/2+z
1/2-x,1/2-y,z
y,1/2-x,1/2+z
x,1/2-y,1/2-z
1/2-x,y,1/2-z
y,x,-z
1/2-y,1/2-x,-z
-x,-y,-z
1/2+y,-x,1/2-z
1/2+x,1/2+y,-z
-y,1/2+x,1/2-z
-x,1/2+y,1/2+z
1/2+x,-y,1/2+z
-y,-x,z
1/2+y,1/2+x,z
loop_
_atom_site_type_symbol
_atom_site_label
_atom_site_fract_x
_atom_site_fract_y
_atom_site_fract_z
Si Si1 0.815755 0.914714 0.683024
Si Si2 0.958218 0.041783 0.609862
Si Si3 0.801787 0.043617 0.101514
Si Si4 0.394820 0.894820 0.943193
Si Si5 0.246576 0.108379 0.482598
Si Si6 0.931218 0.750000 0.750000
O O1 0.750000 0.941492 0.750000
O O2 0.755403 0.904197 0.607647
O O3 0.868530 0.823689 0.707290
O O4 0.885916 0.990297 0.660181
O O5 0.911163 0.088838 0.535147
O O6 0.033103 0.966898 0.588331
O O7 0.884948 0.115053 0.096904
O O8 0.704705 0.088280 0.088131
O O9 0.797384 0.991960 0.183840
O O10 0.790931 0.970533 0.032678
O O11 0.143131 0.143131 0.500000
O O12 0.310353 0.189648 0.500000
#
# Coordination Sequence:
#
# PCOD9568523 Si02
#       6
#    16   8  16   8  16   8
#     4  12  25  43  69 101 132 173 223 283 342 402
#     4  11  22  44  76  94 130 182 237 282 330 427
#     4  12  26  42  65  99 137 175 223 281 338 406
#     4  11  21  46  70  96 127 183 236 269 334 413
#     4  11  22  44  68  95 129 176 233 280 335 404
#     4  12  25  42  65 104 138 174 214 279 347 410
#
# _framework density 18.695575999999999
#
# number of rings (size 3 to 8) (size 9 to 14) (size 15 to 20)
#    0.000    0.444    6.667    2.000    6.222    0.444 
#    2.000    0.000    0.000    0.000    0.000    0.000 
#    0.000    0.000    0.000    0.000    0.000    0.000 
#
# Total GULP energy -401350.247450 kJ/mol
# GULP energy per Si atom -5574.308992 kJ/mol
# Density = 1.865302 g / cm^3
# Si number density = 18.695576 Si / 1000 Ang^3
#
#
#
# Elastic Constant Matrix: (Units=GPa)
#
#
# Indices 1 2 3 4 5 6 
#
# 1 116.2874 54.4701 66.5409 0.0000 0.0000 0.0000
# 2 54.4701 116.2862 66.5401 0.0000 0.0000 0.0000
# 3 66.5409 66.5401 175.2480 0.0000 0.0000 0.0000
# 4 0.0000 0.0000 0.0000 35.0482 0.0000 0.0000
# 5 0.0000 0.0000 0.0000 0.0000 35.0495 0.0000
# 6 0.0000 0.0000 0.0000 0.0000 0.0000 33.1089
#
#
#
# Elastic Compliance Matrix: (Units=1/GPa)
#
#
# Indices 1 2 3 4 5 6 
#
# 1 0.012247 -0.003930 -0.003158 0.000000 0.000000 0.000000
# 2 -0.003930 0.012247 -0.003158 0.000000 0.000000 0.000000
# 3 -0.003158 -0.003158 0.008104 0.000000 0.000000 0.000000
# 4 0.000000 0.000000 0.000000 0.028532 0.000000 0.000000
# 5 0.000000 0.000000 0.000000 0.000000 0.028531 0.000000
# 6 0.000000 0.000000 0.000000 0.000000 0.000000 0.030203
#
#
# Mechanical properties :
#
#
# Convention : Reuss Voigt Hill
#
# Bulk Modulus (GPa) = 82.59614 86.99152 84.79383
# Shear Modulus (GPa) = 34.62772 35.32603 34.97688
#
# Velocity S-wave (km/s) = 4.30837 4.35160 4.33004
# Velocity P-wave (km/s) = 8.30812 8.47821 8.39360
#
# Compressibility (1/GPa) = 0.01210710
#
# Stress axis : x y z
#
# Youngs Moduli (GPa) = 81.65140 81.65085 123.38907
#
# Poissons Ratio (x) = 0.32086 0.38968
# Poissons Ratio (y) = 0.32086 0.38968
# Poissons Ratio (z) = 0.25787 0.25786
#
# Static dielectric constant tensor:
#      x y z
#    x 1.623520 0.000000 0.000000 
#    y 0.000000 1.623520 0.000000 
#    z 0.000000 0.000000 2.218930 
# 
# From -- ./inp_files/7695.got.cif
#   From: 2010.05.17/outbox.cif.g08.bks.cpg/sg134_4_cif.got.tgz:7695.got - 2010.05.20 12:42:49.
