data_PCOD9568879
_publ_section_title
;
Structure prediction by ZEFSAII (Michael W. Deem and Ramdas Pophale) SiO2 
 PCOD9568879
Probable space group: P 42/M B C
;
_chemical_formula_sum "Si O2"
_cell_formula_units_Z 88
_cell_length_a 13.604704
_cell_length_b 13.604704
_cell_length_c 22.853844
_cell_angle_alpha 90.000000
_cell_angle_beta 90.000000
_cell_angle_gamma 90.000000
_cell_volume 4229.971614
_symmetry_space_group_name_H-M "P 42/M B C"
_symmetry_group_IT_number 135
_symmetry_cell_setting 'tetragonal'
loop_
_space_group_symop_operation_xyz
x,y,z
-y,x,1/2+z
-x,-y,z
y,-x,1/2+z
1/2+x,1/2-y,-z
1/2-x,1/2+y,-z
1/2+y,1/2+x,1/2-z
1/2-y,1/2-x,1/2-z
-x,-y,-z
y,-x,1/2-z
x,y,-z
-y,x,1/2-z
1/2-x,1/2+y,z
1/2+x,1/2-y,z
1/2-y,1/2-x,1/2+z
1/2+y,1/2+x,1/2+z
loop_
_atom_site_type_symbol
_atom_site_label
_atom_site_fract_x
_atom_site_fract_y
_atom_site_fract_z
Si Si1 0.584798 0.195803 0.320192
Si Si2 0.417456 0.342624 0.000000
Si Si3 0.800256 0.413676 0.611653
Si Si4 0.408514 0.284805 0.374557
Si Si5 0.636398 0.433497 0.000000
Si Si6 0.774575 0.083727 0.689753
Si Si7 0.500000 0.000000 0.638459
O O1 0.522767 0.259584 0.365136
O O2 0.693666 0.160960 0.335650
O O3 0.582121 0.250170 0.258156
O O4 0.527327 0.091731 0.320502
O O5 0.402942 0.272317 0.943435
O O6 0.527852 0.386728 0.000000
O O7 0.359457 0.446775 0.000000
O O8 0.841484 0.310988 0.635716
O O9 0.745354 0.478659 0.660587
O O10 0.903579 0.472559 0.600548
O O11 0.394870 0.314235 0.441293
O O12 0.376845 0.370965 0.330628
#
# Coordination Sequence:
#
# PCOD9568879 Si02
#       7
#    16   8  16  16   8  16   8
#     4   9  21  38  62  92 127 165 199 261 318 376
#     4  11  23  43  64  85 125 170 209 255 325 367
#     4  10  21  39  66  93 121 167 205 267 311 367
#     4  11  23  42  63  94 126 165 219 254 316 380
#     4  11  25  44  62  86 128 174 207 261 310 389
#     4  10  21  39  63  95 129 161 210 260 316 374
#     4   8  18  38  62  92 126 153 206 257 316 376
#
# _framework density 20.803923999999999
#
# number of rings (size 3 to 8) (size 9 to 14) (size 15 to 20)
#    0.000    2.000    1.818    0.545    2.545   14.182 
#    0.000    5.455    0.000    0.000    0.000    0.000 
#    0.000    0.000    0.000    0.000    0.000    0.000 
#
# Total GULP energy -490619.126354 kJ/mol
# GULP energy per Si atom -5575.217345 kJ/mol
# Density = 2.075657 g / cm^3
# Si number density = 20.803924 Si / 1000 Ang^3
#
#
#
# Elastic Constant Matrix: (Units=GPa)
#
#
# Indices 1 2 3 4 5 6 
#
# 1 48.9427 11.4357 8.0292 0.0000 0.0000 0.0000
# 2 11.4357 48.9427 8.0292 0.0000 0.0000 0.0000
# 3 8.0292 8.0292 41.3841 0.0000 0.0000 0.0000
# 4 0.0000 0.0000 0.0000 34.5480 0.0000 0.0000
# 5 0.0000 0.0000 0.0000 0.0000 34.5480 0.0000
# 6 0.0000 0.0000 0.0000 0.0000 0.0000 29.7914
#
#
#
# Elastic Compliance Matrix: (Units=1/GPa)
#
#
# Indices 1 2 3 4 5 6 
#
# 1 0.022063 -0.004599 -0.003388 0.000000 0.000000 0.000000
# 2 -0.004599 0.022063 -0.003388 0.000000 0.000000 0.000000
# 3 -0.003388 -0.003388 0.025479 0.000000 0.000000 0.000000
# 4 0.000000 0.000000 0.000000 0.028945 0.000000 0.000000
# 5 0.000000 0.000000 0.000000 0.000000 0.028945 0.000000
# 6 0.000000 0.000000 0.000000 0.000000 0.000000 0.033567
#
#
# Mechanical properties :
#
#
# Convention : Reuss Voigt Hill
#
# Bulk Modulus (GPa) = 21.34357 21.58421 21.46389
# Shear Modulus (GPa) = 25.07153 27.22918 26.15035
#
# Velocity S-wave (km/s) = 3.47527 3.62173 3.54925
# Velocity P-wave (km/s) = 5.13663 5.28079 5.20921
#
# Compressibility (1/GPa) = 0.04685252
#
# Stress axis : x y z
#
# Youngs Moduli (GPa) = 45.32576 45.32576 39.24862
#
# Poissons Ratio (x) = 0.20846 0.13298
# Poissons Ratio (y) = 0.20846 0.13298
# Poissons Ratio (z) = 0.15357 0.15357
#
# Static dielectric constant tensor:
#      x y z
#    x 1.773500 0.000000 0.000000 
#    y 0.000000 1.773500 0.000000 
#    z 0.000000 0.000000 1.689050 
# 
# From -- ./inp_files/5368.got.cif
#   From: 2010.05.17/outbox.cif.g08.bks.cpg/sg135_3_cif.got.tgz:5368.got - 2010.05.20 12:50:20.
