data_PCOD9568474
_publ_section_title
;
Structure prediction by ZEFSAII (Michael W. Deem and Ramdas Pophale) SiO2 
 PCOD9568474
Probable space group: P 42/N N M
;
_chemical_formula_sum "Si O2"
_cell_formula_units_Z 60
_cell_length_a 16.906869
_cell_length_b 16.906869
_cell_length_c 9.298419
_cell_angle_alpha 90.000000
_cell_angle_beta 90.000000
_cell_angle_gamma 90.000000
_cell_volume 2657.880724
_symmetry_space_group_name_H-M "P 42/N N M"
_symmetry_group_IT_number 134
_space_group.IT_coordinate_system_code '2'
_symmetry_cell_setting 'tetragonal'
loop_
_space_group_symop_operation_xyz
x,y,z
1/2-y,x,1/2+z
1/2-x,1/2-y,z
y,1/2-x,1/2+z
x,1/2-y,1/2-z
1/2-x,y,1/2-z
y,x,-z
1/2-y,1/2-x,-z
-x,-y,-z
1/2+y,-x,1/2-z
1/2+x,1/2+y,-z
-y,1/2+x,1/2-z
-x,1/2+y,1/2+z
1/2+x,-y,1/2+z
-y,-x,z
1/2+y,1/2+x,z
loop_
_atom_site_type_symbol
_atom_site_label
_atom_site_fract_x
_atom_site_fract_y
_atom_site_fract_z
Si Si1 0.473204 0.250000 0.750000
Si Si2 0.000345 0.131946 0.500000
Si Si3 0.750000 0.526795 0.250000
Si Si4 0.655768 0.155768 0.500000
Si Si5 0.250000 0.750000 0.750000
Si Si6 0.534140 0.849269 0.500000
Si Si7 0.750000 0.250000 0.750000
O O1 0.512825 0.313689 0.641209
O O2 0.430735 0.194335 0.637495
O O3 0.935513 0.064488 0.500001
O O4 0.987174 0.186310 0.358790
O O5 0.085723 0.085723 0.500000
O O6 0.694336 0.569266 0.137494
O O7 0.696305 0.196305 0.359056
O O8 0.560336 0.164011 0.500000
O O9 0.696305 0.196305 0.640944
O O10 0.561264 0.938737 0.500000
#
# Coordination Sequence:
#
# PCOD9568474 Si02
#       7
#     8  16   8   8   2  16   2
#     4  10  23  42  66 102 137 172 226 298 347 408
#     4  10  22  43  73 100 133 182 234 287 353 426
#     4  10  23  42  66 102 137 172 226 298 347 408
#     4  11  23  42  66  98 135 187 230 284 346 425
#     4  10  24  46  68  98 148 186 224 282 372 418
#     4  11  23  41  69 100 136 180 238 293 343 419
#     4  10  24  46  68  98 148 186 224 282 372 418
#
# _framework density 22.574376000000001
#
# number of rings (size 3 to 8) (size 9 to 14) (size 15 to 20)
#    0.000    1.600    0.000    3.600    3.733    0.000 
#   19.200    0.000    0.000   58.400    0.000    0.000 
#    0.000    0.000    0.000    0.000    0.000    0.000 
#
# Total GULP energy -334049.967108 kJ/mol
# GULP energy per Si atom -5567.499452 kJ/mol
# Density = 2.252300 g / cm^3
# Si number density = 22.574376 Si / 1000 Ang^3
#
#
#
# Elastic Constant Matrix: (Units=GPa)
#
#
# Indices 1 2 3 4 5 6 
#
# 1 117.2253 100.7178 61.2446 0.0000 0.0000 0.0000
# 2 100.7178 117.2180 61.2423 0.0000 0.0000 0.0000
# 3 61.2446 61.2423 210.2637 0.0000 0.0000 0.0000
# 4 0.0000 0.0000 0.0000 -257.3102 0.0000 0.0000
# 5 0.0000 0.0000 0.0000 0.0000 -257.7538 0.0000
# 6 0.0000 0.0000 0.0000 0.0000 0.0000 38.1348
#
#
#
# Elastic Compliance Matrix: (Units=1/GPa)
#
#
# Indices 1 2 3 4 5 6 
#
# 1 0.033038 -0.027553 -0.001598 0.000000 0.000000 0.000000
# 2 -0.027553 0.033040 -0.001598 0.000000 0.000000 0.000000
# 3 -0.001598 -0.001598 0.005687 0.000000 0.000000 0.000000
# 4 0.000000 0.000000 0.000000 -0.003886 0.000000 0.000000
# 5 0.000000 0.000000 0.000000 0.000000 -0.003880 0.000000
# 6 0.000000 0.000000 0.000000 0.000000 0.000000 0.026223
#
#
# Mechanical properties :
#
#
# Convention : Reuss Voigt Hill
#
# Bulk Modulus (GPa) = 97.39241 99.01294 98.20268
# Shear Modulus (GPa) = 32.22843 -80.61904 -24.19530
#
# Velocity S-wave (km/s) = 3.78253 -5.98249 -3.27739
# Velocity P-wave (km/s) = 7.89388 1.94016 5.41059
#
# Compressibility (1/GPa) = 0.01026774
#
# Stress axis : x y z
#
# Youngs Moduli (GPa) = 30.26791 30.26607 175.84342
#
# Poissons Ratio (x) = 0.83391 0.28102
# Poissons Ratio (y) = 0.83396 0.28100
# Poissons Ratio (z) = 0.04837 0.04837
#
# Static dielectric constant tensor:
#      x y z
#    x 1.885360 0.000000 0.000000 
#    y 0.000000 1.885360 0.000000 
#    z 0.000000 0.000000 1.843040 
# 
# From -- ./inp_files/2512.got.cif
#   From: 2010.05.17/outbox.cif.g08.bks.cpg/sg134_2_cif.got.tgz:2512.got - 2010.05.20 12:42:49.
