data_PCOD9568644
_publ_section_title
;
Structure prediction by ZEFSAII (Michael W. Deem and Ramdas Pophale) SiO2 
 PCOD9568644
Probable space group: P 42/M B C
;
_chemical_formula_sum "Si O2"
_cell_formula_units_Z 96
_cell_length_a 25.835461
_cell_length_b 25.835461
_cell_length_c 9.102932
_cell_angle_alpha 90.000000
_cell_angle_beta 90.000000
_cell_angle_gamma 90.000000
_cell_volume 6075.943535
_symmetry_space_group_name_H-M "P 42/M B C"
_symmetry_group_IT_number 135
_symmetry_cell_setting 'tetragonal'
loop_
_space_group_symop_operation_xyz
x,y,z
-y,x,1/2+z
-x,-y,z
y,-x,1/2+z
1/2+x,1/2-y,-z
1/2-x,1/2+y,-z
1/2+y,1/2+x,1/2-z
1/2-y,1/2-x,1/2-z
-x,-y,-z
y,-x,1/2-z
x,y,-z
-y,x,1/2-z
1/2-x,1/2+y,z
1/2+x,1/2-y,z
1/2-y,1/2-x,1/2+z
1/2+y,1/2+x,1/2+z
loop_
_atom_site_type_symbol
_atom_site_label
_atom_site_fract_x
_atom_site_fract_y
_atom_site_fract_z
Si Si1 0.833330 0.743942 0.675331
Si Si2 0.624670 0.054720 0.332732
Si Si3 0.249027 0.440861 0.667086
Si Si4 0.237188 0.553513 0.677363
Si Si5 0.253333 0.170821 0.674614
Si Si6 0.874257 0.451441 0.174766
O O1 0.806229 0.693772 0.750000
O O2 0.834679 0.736020 0.500000
O O3 0.890502 0.757729 0.733809
O O4 0.794522 0.791479 0.710525
O O5 0.604984 0.104984 0.250000
O O6 0.606027 0.052367 0.500000
O O7 0.686608 0.054232 0.336097
O O8 0.605828 0.005784 0.239446
O O9 0.266923 0.430845 0.500000
O O10 0.266426 0.499233 0.712268
O O11 0.226991 0.550991 0.500000
O O12 0.259180 0.610816 0.708660
O O13 0.184358 0.552801 0.768901
O O14 0.304188 0.195813 0.750000
O O15 0.262086 0.173751 0.500000
O O16 0.906267 0.406267 0.250000
O O17 0.877509 0.449653 0.000000
#
# Coordination Sequence:
#
# PCOD9568644 Si02
#       6
#    16  16  16  16  16  16
#     4  10  19  30  46  68  94 122 152 185 222 267
#     4  10  20  33  46  61  80 106 142 182 223 263
#     4   9  18  31  47  65  87 115 145 179 218 263
#     4   9  18  33  49  65  87 115 148 183 221 265
#     4   9  18  31  47  68  93 121 151 185 225 268
#     4  11  21  32  45  61  81 107 141 180 222 264
#
# _framework density 15.800013999999999
#
# number of rings (size 3 to 8) (size 9 to 14) (size 15 to 20)
#    0.000    2.333    0.000    4.500    0.000    7.667 
#    0.000    1.667    0.000    0.000    0.000    0.000 
#    0.000    0.667    0.000    8.333    0.000    0.000 
#
# Total GULP energy -534663.637036 kJ/mol
# GULP energy per Si atom -5569.412886 kJ/mol
# Density = 1.576405 g / cm^3
# Si number density = 15.800014 Si / 1000 Ang^3
#
#
#
# Elastic Constant Matrix: (Units=GPa)
#
#
# Indices 1 2 3 4 5 6 
#
# 1 78.9341 23.9069 31.3230 0.0000 0.0000 0.0000
# 2 23.9069 78.9367 31.3231 0.0000 0.0000 0.0000
# 3 31.3230 31.3231 68.2312 0.0000 0.0000 0.0000
# 4 0.0000 0.0000 0.0000 11.7621 0.0000 0.0000
# 5 0.0000 0.0000 0.0000 0.0000 11.7621 0.0000
# 6 0.0000 0.0000 0.0000 0.0000 0.0000 18.7527
#
#
#
# Elastic Compliance Matrix: (Units=1/GPa)
#
#
# Indices 1 2 3 4 5 6 
#
# 1 0.015836 -0.002337 -0.006197 0.000000 0.000000 0.000000
# 2 -0.002337 0.015835 -0.006197 0.000000 0.000000 0.000000
# 3 -0.006197 -0.006197 0.020346 0.000000 0.000000 0.000000
# 4 0.000000 0.000000 0.000000 0.085019 0.000000 0.000000
# 5 0.000000 0.000000 0.000000 0.000000 0.085019 0.000000
# 6 0.000000 0.000000 0.000000 0.000000 0.000000 0.053326
#
#
# Mechanical properties :
#
#
# Convention : Reuss Voigt Hill
#
# Bulk Modulus (GPa) = 44.33537 44.35644 44.34591
# Shear Modulus (GPa) = 16.00721 17.75864 16.88293
#
# Velocity S-wave (km/s) = 3.18640 3.35619 3.27240
# Velocity P-wave (km/s) = 6.45436 6.56912 6.51199
#
# Compressibility (1/GPa) = 0.02255535
#
# Stress axis : x y z
#
# Youngs Moduli (GPa) = 63.14861 63.15099 49.15087
#
# Poissons Ratio (x) = 0.14759 0.30458
# Poissons Ratio (y) = 0.14758 0.30457
# Poissons Ratio (z) = 0.39132 0.39132
#
# Static dielectric constant tensor:
#      x y z
#    x 1.571090 0.000000 0.000000 
#    y 0.000000 1.571090 0.000000 
#    z 0.000000 0.000000 1.529970 
# 
# From -- ./inp_files/1264.got.cif
#   From: 2010.05.17/outbox.cif.g08.bks.cpg/sg135_1_cif.got.tgz:1264.got - 2010.05.20 12:50:20.
