data_PCOD9568199
_publ_section_title
;
Structure prediction by ZEFSAII (Michael W. Deem and Ramdas Pophale) SiO2 
 PCOD9568199
Probable space group: P 42/N N M
;
_chemical_formula_sum "Si O2"
_cell_formula_units_Z 112
_cell_length_a 18.724378
_cell_length_b 18.724378
_cell_length_c 19.881937
_cell_angle_alpha 90.000000
_cell_angle_beta 90.000000
_cell_angle_gamma 90.000000
_cell_volume 6970.653467
_symmetry_space_group_name_H-M "P 42/N N M"
_symmetry_group_IT_number 134
_space_group.IT_coordinate_system_code '2'
_symmetry_cell_setting 'tetragonal'
loop_
_space_group_symop_operation_xyz
x,y,z
1/2-y,x,1/2+z
1/2-x,1/2-y,z
y,1/2-x,1/2+z
x,1/2-y,1/2-z
1/2-x,y,1/2-z
y,x,-z
1/2-y,1/2-x,-z
-x,-y,-z
1/2+y,-x,1/2-z
1/2+x,1/2+y,-z
-y,1/2+x,1/2-z
-x,1/2+y,1/2+z
1/2+x,-y,1/2+z
-y,-x,z
1/2+y,1/2+x,z
loop_
_atom_site_type_symbol
_atom_site_label
_atom_site_fract_x
_atom_site_fract_y
_atom_site_fract_z
Si Si1 0.232921 0.330240 0.384800
Si Si2 0.219406 0.425182 0.639508
Si Si3 0.095835 0.480562 0.062397
Si Si4 0.459360 0.422622 0.190767
Si Si5 0.249678 0.040139 0.484931
Si Si6 0.628489 0.875282 0.183067
Si Si7 0.015344 0.099761 0.947916
O O1 0.250000 0.250000 0.406542
O O2 0.151319 0.322190 0.361567
O O3 0.244160 0.384012 0.446234
O O4 0.290841 0.354560 0.328403
O O5 0.158851 0.477727 0.668451
O O6 0.241630 0.446668 0.564051
O O7 0.293595 0.412832 0.678622
O O8 0.102103 0.421848 0.120986
O O9 0.049504 0.549504 0.082635
O O10 0.056324 0.443677 0.000000
O O11 0.175763 0.495506 0.036547
O O12 0.527510 0.472491 0.208377
O O13 0.403601 0.412527 0.251609
O O14 0.422617 0.459936 0.126173
O O15 0.317931 0.998611 0.456824
O O16 0.078274 0.078274 0.000000
O O17 0.948439 0.051562 0.967557
#
# Coordination Sequence:
#
# PCOD9568199 Si02
#       7
#    16  16  16  16  16  16  16
#     4   9  19  29  48  74 107 137 169 205 248 315
#     4  11  19  32  50  77 104 134 174 212 259 316
#     4  10  20  35  53  75 103 140 185 219 252 310
#     4  11  22  35  50  70 104 139 173 219 259 302
#     4  11  18  32  52  77 102 139 172 221 264 313
#     4  10  21  34  50  73 105 142 175 207 259 311
#     4  10  19  33  53  75 100 134 176 220 267 319
#
# _framework density 16.067360000000001
#
# number of rings (size 3 to 8) (size 9 to 14) (size 15 to 20)
#    0.000    1.714    4.286    1.286    0.000    2.286 
#    0.000    2.143    0.000    0.429    0.000    0.000 
#    0.000   11.143    0.000    5.000    0.000    0.000 
#
# Total GULP energy -624304.916299 kJ/mol
# GULP energy per Si atom -5574.151038 kJ/mol
# Density = 1.603079 g / cm^3
# Si number density = 16.067360 Si / 1000 Ang^3
#
#
#
# Elastic Constant Matrix: (Units=GPa)
#
#
# Indices 1 2 3 4 5 6 
#
# 1 62.0365 50.5919 13.4463 0.0000 0.0000 0.0000
# 2 50.5919 62.0323 13.4457 0.0000 0.0000 0.0000
# 3 13.4463 13.4457 77.5149 0.0000 0.0000 0.0000
# 4 0.0000 0.0000 0.0000 22.3889 0.0000 0.0000
# 5 0.0000 0.0000 0.0000 0.0000 22.3890 0.0000
# 6 0.0000 0.0000 0.0000 0.0000 0.0000 31.7387
#
#
#
# Elastic Compliance Matrix: (Units=1/GPa)
#
#
# Indices 1 2 3 4 5 6 
#
# 1 0.048326 -0.039065 -0.001607 0.000000 0.000000 0.000000
# 2 -0.039065 0.048329 -0.001607 0.000000 0.000000 0.000000
# 3 -0.001607 -0.001607 0.013458 0.000000 0.000000 0.000000
# 4 0.000000 0.000000 0.000000 0.044665 0.000000 0.000000
# 5 0.000000 0.000000 0.000000 0.000000 0.044665 0.000000
# 6 0.000000 0.000000 0.000000 0.000000 0.000000 0.031507
#
#
# Mechanical properties :
#
#
# Convention : Reuss Voigt Hill
#
# Bulk Modulus (GPa) = 39.12912 39.61684 39.37298
# Shear Modulus (GPa) = 15.43081 23.57664 19.50373
#
# Velocity S-wave (km/s) = 3.10237 3.83477 3.48785
# Velocity P-wave (km/s) = 6.10237 6.65714 6.38578
#
# Compressibility (1/GPa) = 0.02555641
#
# Stress axis : x y z
#
# Youngs Moduli (GPa) = 20.69269 20.69133 74.30435
#
# Poissons Ratio (x) = 0.80831 0.11939
# Poissons Ratio (y) = 0.80837 0.11938
# Poissons Ratio (z) = 0.03325 0.03324
#
# Static dielectric constant tensor:
#      x y z
#    x 1.563640 0.000000 0.000000 
#    y 0.000000 1.563640 0.000000 
#    z 0.000000 0.000000 1.577800 
# 
# From -- ./inp_files/9367.got.cif
#   From: 2010.05.17/outbox.cif.g08.bks.cpg/sg134_5_cif.got.tgz:9367.got - 2010.05.20 12:42:49.
