data_PCOD9568588
_publ_section_title
;
Structure prediction by ZEFSAII (Michael W. Deem and Ramdas Pophale) SiO2 
 PCOD9568588
Probable space group: P 42/M B C
;
_chemical_formula_sum "Si O2"
_cell_formula_units_Z 88
_cell_length_a 14.141242
_cell_length_b 14.141242
_cell_length_c 21.278995
_cell_angle_alpha 90.000000
_cell_angle_beta 90.000000
_cell_angle_gamma 90.000000
_cell_volume 4255.261180
_symmetry_space_group_name_H-M "P 42/M B C"
_symmetry_group_IT_number 135
_symmetry_cell_setting 'tetragonal'
loop_
_space_group_symop_operation_xyz
x,y,z
-y,x,1/2+z
-x,-y,z
y,-x,1/2+z
1/2+x,1/2-y,-z
1/2-x,1/2+y,-z
1/2+y,1/2+x,1/2-z
1/2-y,1/2-x,1/2-z
-x,-y,-z
y,-x,1/2-z
x,y,-z
-y,x,1/2-z
1/2-x,1/2+y,z
1/2+x,1/2-y,z
1/2-y,1/2-x,1/2+z
1/2+y,1/2+x,1/2+z
loop_
_atom_site_type_symbol
_atom_site_label
_atom_site_fract_x
_atom_site_fract_y
_atom_site_fract_z
Si Si1 0.136616 0.068464 0.000000
Si Si2 0.249433 0.488037 0.500000
Si Si3 0.124986 0.718609 0.811271
Si Si4 0.918344 0.717318 0.140122
Si Si5 0.779398 0.892152 0.869101
Si Si6 0.138609 0.168103 0.500000
Si Si7 0.393808 0.735876 0.357742
O O1 0.056478 0.145911 0.000000
O O2 0.199801 0.087591 0.940557
O O3 0.108896 0.959487 0.000000
O O4 0.208219 0.450884 0.433526
O O5 0.270602 0.599985 0.500000
O O6 0.170399 0.670399 0.750000
O O7 0.177833 0.655850 0.863437
O O8 0.164228 0.824430 0.821370
O O9 0.013305 0.715753 0.819236
O O10 0.859193 0.815277 0.150420
O O11 0.842958 0.636588 0.156740
O O12 0.782988 0.997264 0.840355
O O13 0.130728 0.222394 0.567012
#
# Coordination Sequence:
#
# PCOD9568588 Si02
#       7
#     8   8  16  16  16   8  16
#     4   8  17  31  54  90 124 153 197 246 317 371
#     4  10  16  30  57  91 123 163 196 243 304 377
#     4  11  24  40  59  85 117 162 214 258 310 363
#     4  10  21  37  59  92 123 162 206 249 309 376
#     4   9  21  38  60  89 122 159 200 260 312 371
#     4  10  16  31  59  92 124 160 193 253 309 371
#     4  10  21  39  62  91 127 159 205 256 312 371
#
# _framework density 20.680281000000001
#
# number of rings (size 3 to 8) (size 9 to 14) (size 15 to 20)
#    0.000    2.182    1.818    0.818    0.000    7.273 
#    0.000    0.909    0.000    8.727    0.000    0.000 
#    0.000    0.000    0.000    0.000    0.000    0.000 
#
# Total GULP energy -490522.587273 kJ/mol
# GULP energy per Si atom -5574.120310 kJ/mol
# Density = 2.063321 g / cm^3
# Si number density = 20.680281 Si / 1000 Ang^3
#
#
#
# Elastic Constant Matrix: (Units=GPa)
#
#
# Indices 1 2 3 4 5 6 
#
# 1 108.5592 25.2540 19.7086 0.0000 0.0000 0.0000
# 2 25.2540 108.5592 19.7086 0.0000 0.0000 0.0000
# 3 19.7086 19.7086 41.5204 0.0000 0.0000 0.0000
# 4 0.0000 0.0000 0.0000 16.5728 0.0000 0.0000
# 5 0.0000 0.0000 0.0000 0.0000 16.5728 0.0000
# 6 0.0000 0.0000 0.0000 0.0000 0.0000 19.3949
#
#
#
# Elastic Compliance Matrix: (Units=1/GPa)
#
#
# Indices 1 2 3 4 5 6 
#
# 1 0.010346 -0.001658 -0.004124 0.000000 0.000000 0.000000
# 2 -0.001658 0.010346 -0.004124 0.000000 0.000000 0.000000
# 3 -0.004124 -0.004124 0.028000 0.000000 0.000000 0.000000
# 4 0.000000 0.000000 0.000000 0.060340 0.000000 0.000000
# 5 0.000000 0.000000 0.000000 0.000000 0.060340 0.000000
# 6 0.000000 0.000000 0.000000 0.000000 0.000000 0.051560
#
#
# Mechanical properties :
#
#
# Convention : Reuss Voigt Hill
#
# Bulk Modulus (GPa) = 34.62637 43.10901 38.86769
# Shear Modulus (GPa) = 19.97050 23.43928 21.70489
#
# Velocity S-wave (km/s) = 3.11091 3.37027 3.24318
# Velocity P-wave (km/s) = 5.44827 6.00297 5.73234
#
# Compressibility (1/GPa) = 0.02887972
#
# Stress axis : x y z
#
# Youngs Moduli (GPa) = 96.65602 96.65602 35.71484
#
# Poissons Ratio (x) = 0.16026 0.14728
# Poissons Ratio (y) = 0.16026 0.14728
# Poissons Ratio (z) = 0.39860 0.39860
#
# Static dielectric constant tensor:
#      x y z
#    x 1.753360 0.000000 0.000000 
#    y 0.000000 1.753360 0.000000 
#    z 0.000000 0.000000 1.803370 
# 
# From -- ./inp_files/5385.got.cif
#   From: 2010.05.17/outbox.cif.g08.bks.cpg/sg135_3_cif.got.tgz:5385.got - 2010.05.20 12:50:20.
