data_PCOD9568447
_publ_section_title
;
Structure prediction by ZEFSAII (Michael W. Deem and Ramdas Pophale) SiO2 
 PCOD9568447
Probable space group: P 42/N N M
;
_chemical_formula_sum "Si O2"
_cell_formula_units_Z 96
_cell_length_a 25.331783
_cell_length_b 25.331783
_cell_length_c 9.696107
_cell_angle_alpha 90.000000
_cell_angle_beta 90.000000
_cell_angle_gamma 90.000000
_cell_volume 6221.984396
_symmetry_space_group_name_H-M "P 42/N N M"
_symmetry_group_IT_number 134
_space_group.IT_coordinate_system_code '2'
_symmetry_cell_setting 'tetragonal'
loop_
_space_group_symop_operation_xyz
x,y,z
1/2-y,x,1/2+z
1/2-x,1/2-y,z
y,1/2-x,1/2+z
x,1/2-y,1/2-z
1/2-x,y,1/2-z
y,x,-z
1/2-y,1/2-x,-z
-x,-y,-z
1/2+y,-x,1/2-z
1/2+x,1/2+y,-z
-y,1/2+x,1/2-z
-x,1/2+y,1/2+z
1/2+x,-y,1/2+z
-y,-x,z
1/2+y,1/2+x,z
loop_
_atom_site_type_symbol
_atom_site_label
_atom_site_fract_x
_atom_site_fract_y
_atom_site_fract_z
Si Si1 0.302633 0.325357 0.162531
Si Si2 0.123298 0.466985 0.488993
Si Si3 0.460440 0.960440 0.922527
Si Si4 0.037872 0.962129 0.906842
Si Si5 0.808184 0.922880 0.220126
Si Si6 0.037904 0.125961 0.473786
Si Si7 0.448117 0.309173 0.745914
O O1 0.250000 0.308651 0.250000
O O2 0.359138 0.308158 0.223976
O O3 0.304689 0.388847 0.188874
O O4 0.306437 0.306437 0.000000
O O5 0.079579 0.420422 0.500000
O O6 0.095938 0.518625 0.551304
O O7 0.171974 0.444788 0.575602
O O8 0.145323 0.475367 0.336738
O O9 0.468140 0.968140 0.757550
O O10 0.480703 0.902079 0.964094
O O11 0.500000 0.000000 0.000000
O O12 0.000000 0.000000 0.000000
O O13 0.750000 0.941943 0.250000
O O14 0.848675 0.945977 0.329706
O O15 0.079272 0.079272 0.500000
O O16 0.048742 0.169212 0.591104
O O17 0.470485 0.250000 0.750000
#
# Coordination Sequence:
#
# PCOD9568447 Si02
#       7
#    16  16   8   8  16  16  16
#     4  11  23  40  55  69  96 131 175 228 277 315
#     4  11  19  37  52  73 100 129 172 219 260 318
#     4  10  22  34  50  78 104 128 166 211 272 319
#     4  10  22  32  56  76 100 130 166 215 268 315
#     4  12  22  34  54  71  96 133 177 220 270 307
#     4  11  21  34  52  76 103 132 169 220 265 318
#     4  11  21  35  56  75 102 134 175 215 266 312
#
# _framework density 15.429161000000001
#
# number of rings (size 3 to 8) (size 9 to 14) (size 15 to 20)
#    0.000    1.000    6.667    1.000    9.333    0.333 
#    0.000    1.667    0.000    0.000    0.000    0.000 
#    0.000    0.000    0.000    0.000    0.000   58.333 
#
# Total GULP energy -534849.807718 kJ/mol
# GULP energy per Si atom -5571.352164 kJ/mol
# Density = 1.539404 g / cm^3
# Si number density = 15.429161 Si / 1000 Ang^3
#
#
#
# Elastic Constant Matrix: (Units=GPa)
#
#
# Indices 1 2 3 4 5 6 
#
# 1 37.1526 27.0517 -5.8781 0.0000 0.0000 0.0000
# 2 27.0517 37.1566 -5.8753 0.0000 0.0000 0.0000
# 3 -5.8781 -5.8753 48.8011 0.0000 0.0000 0.0000
# 4 0.0000 0.0000 0.0000 7.4534 0.0000 0.0000
# 5 0.0000 0.0000 0.0000 0.0000 7.4538 0.0000
# 6 0.0000 0.0000 0.0000 0.0000 0.0000 11.4915
#
#
#
# Elastic Compliance Matrix: (Units=1/GPa)
#
#
# Indices 1 2 3 4 5 6 
#
# 1 0.057457 -0.041528 0.001921 0.000000 0.000000 0.000000
# 2 -0.041528 0.057450 0.001915 0.000000 0.000000 0.000000
# 3 0.001921 0.001915 0.020953 0.000000 0.000000 0.000000
# 4 0.000000 0.000000 0.000000 0.134168 0.000000 0.000000
# 5 0.000000 0.000000 0.000000 0.000000 0.134159 0.000000
# 6 0.000000 0.000000 0.000000 0.000000 0.000000 0.087021
#
#
# Mechanical properties :
#
#
# Convention : Reuss Voigt Hill
#
# Bulk Modulus (GPa) = 16.53541 17.07853 16.80697
# Shear Modulus (GPa) = 8.52150 12.46720 10.49435
#
# Velocity S-wave (km/s) = 2.35265 2.84567 2.61082
# Velocity P-wave (km/s) = 4.25678 4.67869 4.47271
#
# Compressibility (1/GPa) = 0.06047627
#
# Stress axis : x y z
#
# Youngs Moduli (GPa) = 17.40424 17.40644 47.72529
#
# Poissons Ratio (x) = 0.72285 -0.09168
# Poissons Ratio (y) = 0.72276 -0.09137
# Poissons Ratio (z) = -0.03343 -0.03333
#
# Static dielectric constant tensor:
#      x y z
#    x 1.539890 0.000000 0.000000 
#    y 0.000000 1.539890 0.000000 
#    z 0.000000 0.000000 1.529700 
# 
# From -- ./inp_files/3248.got.cif
#   From: 2010.05.17/outbox.cif.g08.bks.cpg/sg134_2_cif.got.tgz:3248.got - 2010.05.20 12:42:49.
