data_PCOD9568229
_publ_section_title
;
Structure prediction by ZEFSAII (Michael W. Deem and Ramdas Pophale) SiO2 
 PCOD9568229
Probable space group: P 42/N N M
;
_chemical_formula_sum "Si O2"
_cell_formula_units_Z 72
_cell_length_a 19.290505
_cell_length_b 19.290505
_cell_length_c 9.516396
_cell_angle_alpha 90.000000
_cell_angle_beta 90.000000
_cell_angle_gamma 90.000000
_cell_volume 3541.275378
_symmetry_space_group_name_H-M "P 42/N N M"
_symmetry_group_IT_number 134
_space_group.IT_coordinate_system_code '2'
_symmetry_cell_setting 'tetragonal'
loop_
_space_group_symop_operation_xyz
x,y,z
1/2-y,x,1/2+z
1/2-x,1/2-y,z
y,1/2-x,1/2+z
x,1/2-y,1/2-z
1/2-x,y,1/2-z
y,x,-z
1/2-y,1/2-x,-z
-x,-y,-z
1/2+y,-x,1/2-z
1/2+x,1/2+y,-z
-y,1/2+x,1/2-z
-x,1/2+y,1/2+z
1/2+x,-y,1/2+z
-y,-x,z
1/2+y,1/2+x,z
loop_
_atom_site_type_symbol
_atom_site_label
_atom_site_fract_x
_atom_site_fract_y
_atom_site_fract_z
Si Si1 0.632040 0.019529 0.255119
Si Si2 0.318922 0.072488 0.480362
Si Si3 0.867726 0.250000 0.750000
Si Si4 0.912359 0.518462 0.769608
Si Si5 0.701560 0.023135 0.973811
O O1 0.585838 0.085838 0.295877
O O2 0.659773 0.977340 0.389242
O O3 0.579790 0.963389 0.185377
O O4 0.687330 0.039449 0.136265
O O5 0.350067 0.149934 0.500000
O O6 0.358382 0.046011 0.343122
O O7 0.239164 0.051917 0.462350
O O8 0.817168 0.182833 0.756906
O O9 0.918432 0.243277 0.614268
O O10 0.870899 0.483772 0.894472
O O11 0.961443 0.461443 0.698117
#
# Coordination Sequence:
#
# PCOD9568229 Si02
#       5
#    16  16   8  16  16
#     4  10  21  35  57  87 115 142 186 248 303 347
#     4  10  21  36  54  81 117 154 190 237 301 357
#     4  11  24  38  56  84 120 161 200 234 282 363
#     4  10  19  35  59  86 112 143 189 245 297 347
#     4  12  21  36  58  83 113 151 194 239 289 348
#
# _framework density 20.331658000000001
#
# number of rings (size 3 to 8) (size 9 to 14) (size 15 to 20)
#    0.000    1.444    2.222    4.000    0.000    5.333 
#    0.000    0.000    0.000    2.667    0.000   15.556 
#    0.000    0.000    0.000    0.000    0.000    0.000 
#
# Total GULP energy -401497.386499 kJ/mol
# GULP energy per Si atom -5576.352590 kJ/mol
# Density = 2.028538 g / cm^3
# Si number density = 20.331658 Si / 1000 Ang^3
#
#
#
# Elastic Constant Matrix: (Units=GPa)
#
#
# Indices 1 2 3 4 5 6 
#
# 1 46.9714 30.2918 7.7054 0.0000 0.0000 0.0000
# 2 30.2918 46.9719 7.7044 0.0000 0.0000 0.0000
# 3 7.7054 7.7044 86.8794 0.0000 0.0000 0.0000
# 4 0.0000 0.0000 0.0000 17.8168 0.0000 0.0000
# 5 0.0000 0.0000 0.0000 0.0000 17.8185 0.0000
# 6 0.0000 0.0000 0.0000 0.0000 0.0000 25.7199
#
#
#
# Elastic Compliance Matrix: (Units=1/GPa)
#
#
# Indices 1 2 3 4 5 6 
#
# 1 0.036564 -0.023388 -0.001169 0.000000 0.000000 0.000000
# 2 -0.023388 0.036564 -0.001168 0.000000 0.000000 0.000000
# 3 -0.001169 -0.001168 0.011717 0.000000 0.000000 0.000000
# 4 0.000000 0.000000 0.000000 0.056127 0.000000 0.000000
# 5 0.000000 0.000000 0.000000 0.000000 0.056122 0.000000
# 6 0.000000 0.000000 0.000000 0.000000 0.000000 0.038880
#
#
# Mechanical properties :
#
#
# Convention : Reuss Voigt Hill
#
# Bulk Modulus (GPa) = 29.94457 30.24733 30.09595
# Shear Modulus (GPa) = 16.74724 21.27911 19.01318
#
# Velocity S-wave (km/s) = 2.87314 3.23863 3.06134
# Velocity P-wave (km/s) = 5.07608 5.37533 5.22785
#
# Compressibility (1/GPa) = 0.03339504
#
# Stress axis : x y z
#
# Youngs Moduli (GPa) = 27.34901 27.34942 85.34266
#
# Poissons Ratio (x) = 0.63966 0.09975
# Poissons Ratio (y) = 0.63965 0.09969
# Poissons Ratio (z) = 0.03197 0.03195
#
# Static dielectric constant tensor:
#      x y z
#    x 1.754060 0.000000 0.000000 
#    y 0.000000 1.754060 0.000000 
#    z 0.000000 0.000000 1.720780 
# 
# From -- ./inp_files/2926.got.cif
#   From: 2010.05.17/outbox.cif.g08.bks.cpg/sg134_2_cif.got.tgz:2926.got - 2010.05.20 12:42:49.
