data_PCOD9568383
_publ_section_title
;
Structure prediction by ZEFSAII (Michael W. Deem and Ramdas Pophale) SiO2 
 PCOD9568383
Probable space group: P 42/N N M
;
_chemical_formula_sum "Si O2"
_cell_formula_units_Z 88
_cell_length_a 14.639738
_cell_length_b 14.639738
_cell_length_c 20.936301
_cell_angle_alpha 90.000000
_cell_angle_beta 90.000000
_cell_angle_gamma 90.000000
_cell_volume 4487.108410
_symmetry_space_group_name_H-M "P 42/N N M"
_symmetry_group_IT_number 134
_space_group.IT_coordinate_system_code '2'
_symmetry_cell_setting 'tetragonal'
loop_
_space_group_symop_operation_xyz
x,y,z
1/2-y,x,1/2+z
1/2-x,1/2-y,z
y,1/2-x,1/2+z
x,1/2-y,1/2-z
1/2-x,y,1/2-z
y,x,-z
1/2-y,1/2-x,-z
-x,-y,-z
1/2+y,-x,1/2-z
1/2+x,1/2+y,-z
-y,1/2+x,1/2-z
-x,1/2+y,1/2+z
1/2+x,-y,1/2+z
-y,-x,z
1/2+y,1/2+x,z
loop_
_atom_site_type_symbol
_atom_site_label
_atom_site_fract_x
_atom_site_fract_y
_atom_site_fract_z
Si Si1 0.900890 0.956315 0.341225
Si Si2 0.193456 0.957703 0.312601
Si Si3 0.444636 0.196177 0.032800
Si Si4 0.669478 0.676115 0.880141
Si Si5 0.892194 0.750000 0.750000
Si Si6 0.186926 0.534298 0.426526
O O1 0.872400 0.979986 0.412976
O O2 0.815796 0.949162 0.295128
O O3 0.953233 0.859364 0.339660
O O4 0.970311 0.029690 0.315269
O O5 0.250000 0.981077 0.250000
O O6 0.117466 0.882535 0.296795
O O7 0.259214 0.921003 0.367696
O O8 0.408212 0.280490 0.075051
O O9 0.361232 0.138769 0.000000
O O10 0.516250 0.240472 0.983739
O O11 0.750000 0.750000 0.894125
O O12 0.658377 0.687797 0.803398
O O13 0.671051 0.570390 0.901129
O O14 0.096997 0.596997 0.440968
#
# Coordination Sequence:
#
# PCOD9568383 Si02
#       6
#    16  16  16  16   8  16
#     4  10  22  40  65  91 118 163 216 262 315 384
#     4  11  23  40  61  87 124 167 211 259 319 390
#     4  11  21  39  62  89 119 162 214 262 313 385
#     4  11  21  36  61  87 124 163 206 257 317 383
#     4  10  21  36  58  93 122 152 204 262 310 365
#     4  12  25  39  60  93 129 166 209 264 329 391
#
# _framework density 19.611739
#
# number of rings (size 3 to 8) (size 9 to 14) (size 15 to 20)
#    0.000    1.091    3.636    3.545    0.000    6.000 
#    0.000    2.727    0.000    1.364    0.000    0.000 
#    0.000    0.000    0.000    0.000    0.000    0.000 
#
# Total GULP energy -490295.717561 kJ/mol
# GULP energy per Si atom -5571.542245 kJ/mol
# Density = 1.956710 g / cm^3
# Si number density = 19.611739 Si / 1000 Ang^3
#
#
#
# Elastic Constant Matrix: (Units=GPa)
#
#
# Indices 1 2 3 4 5 6 
#
# 1 90.6381 52.8139 33.1967 0.0000 0.0000 0.0000
# 2 52.8139 90.6378 33.1969 0.0000 0.0000 0.0000
# 3 33.1967 33.1969 90.4521 0.0000 0.0000 0.0000
# 4 0.0000 0.0000 0.0000 14.7835 0.0000 0.0000
# 5 0.0000 0.0000 0.0000 0.0000 14.7833 0.0000
# 6 0.0000 0.0000 0.0000 0.0000 0.0000 30.4525
#
#
#
# Elastic Compliance Matrix: (Units=1/GPa)
#
#
# Indices 1 2 3 4 5 6 
#
# 1 0.017418 -0.009020 -0.003082 0.000000 0.000000 0.000000
# 2 -0.009020 0.017418 -0.003082 0.000000 0.000000 0.000000
# 3 -0.003082 -0.003082 0.013318 0.000000 0.000000 0.000000
# 4 0.000000 0.000000 0.000000 0.067643 0.000000 0.000000
# 5 0.000000 0.000000 0.000000 0.000000 0.067644 0.000000
# 6 0.000000 0.000000 0.000000 0.000000 0.000000 0.032838
#
#
# Mechanical properties :
#
#
# Convention : Reuss Voigt Hill
#
# Bulk Modulus (GPa) = 56.22765 56.68256 56.45510
# Shear Modulus (GPa) = 19.79610 22.17190 20.98400
#
# Velocity S-wave (km/s) = 3.18055 3.36600 3.27459
# Velocity P-wave (km/s) = 6.49773 6.63865 6.56857
#
# Compressibility (1/GPa) = 0.01778484
#
# Stress axis : x y z
#
# Youngs Moduli (GPa) = 57.41273 57.41234 75.08773
#
# Poissons Ratio (x) = 0.51788 0.23141
# Poissons Ratio (y) = 0.51789 0.23142
# Poissons Ratio (z) = 0.17694 0.17694
#
# Static dielectric constant tensor:
#      x y z
#    x 1.741370 0.000000 0.000000 
#    y 0.000000 1.741370 0.000000 
#    z 0.000000 0.000000 1.713400 
# 
# From -- ./inp_files/9031.got.cif
#   From: 2010.05.17/outbox.cif.g08.bks.cpg/sg134_5_cif.got.tgz:9031.got - 2010.05.20 12:42:49.
