data_PCOD9568730
_publ_section_title
;
Structure prediction by ZEFSAII (Michael W. Deem and Ramdas Pophale) SiO2 
 PCOD9568730
Probable space group: P 42/M B C
;
_chemical_formula_sum "Si O2"
_cell_formula_units_Z 96
_cell_length_a 25.723344
_cell_length_b 25.723344
_cell_length_c 8.876485
_cell_angle_alpha 90.000000
_cell_angle_beta 90.000000
_cell_angle_gamma 90.000000
_cell_volume 5873.485146
_symmetry_space_group_name_H-M "P 42/M B C"
_symmetry_group_IT_number 135
_symmetry_cell_setting 'tetragonal'
loop_
_space_group_symop_operation_xyz
x,y,z
-y,x,1/2+z
-x,-y,z
y,-x,1/2+z
1/2+x,1/2-y,-z
1/2-x,1/2+y,-z
1/2+y,1/2+x,1/2-z
1/2-y,1/2-x,1/2-z
-x,-y,-z
y,-x,1/2-z
x,y,-z
-y,x,1/2-z
1/2-x,1/2+y,z
1/2+x,1/2-y,z
1/2-y,1/2-x,1/2+z
1/2+y,1/2+x,1/2+z
loop_
_atom_site_type_symbol
_atom_site_label
_atom_site_fract_x
_atom_site_fract_y
_atom_site_fract_z
Si Si1 0.687390 0.004066 0.827801
Si Si2 0.190960 0.388722 0.321381
Si Si3 0.692452 0.888412 0.182409
Si Si4 0.186485 0.999537 0.826040
Si Si5 0.109741 0.186961 0.818986
Si Si6 0.692261 0.391462 0.319511
O O1 0.672825 0.054083 0.731393
O O2 0.750406 0.001724 0.827524
O O3 0.671690 0.946338 0.776860
O O4 0.670316 0.012079 0.000000
O O5 0.155595 0.344406 0.250000
O O6 0.187656 0.385443 0.500000
O O7 0.251933 0.383082 0.279476
O O8 0.655158 0.844843 0.250000
O O9 0.750269 0.883143 0.250142
O O10 0.695232 0.885792 0.000000
O O11 0.170267 0.946847 0.742620
O O12 0.172679 0.052395 0.739910
O O13 0.169112 0.000642 0.000000
O O14 0.153872 0.152535 0.742185
O O15 0.111580 0.182114 0.000000
O O16 0.694931 0.391167 0.500000
#
# Coordination Sequence:
#
# PCOD9568730 Si02
#       6
#    16  16  16  16  16  16
#     4   8  16  31  50  70  95 126 163 202 242 289
#     4  10  20  32  50  73  99 130 164 202 246 293
#     4  10  20  34  52  75 102 133 166 206 251 299
#     4   9  17  32  52  73  97 128 167 209 248 293
#     4  10  20  34  51  74 102 133 169 208 249 297
#     4  11  21  33  51  75 103 136 169 205 249 297
#
# _framework density 16.344639999999998
#
# number of rings (size 3 to 8) (size 9 to 14) (size 15 to 20)
#    0.000    2.333    0.000    4.500    0.000    7.333 
#    0.000    1.667    0.000    1.000    0.000    7.000 
#    0.000    0.000    0.000    0.000    0.000    0.000 
#
# Total GULP energy -535240.783015 kJ/mol
# GULP energy per Si atom -5575.424823 kJ/mol
# Density = 1.630744 g / cm^3
# Si number density = 16.344640 Si / 1000 Ang^3
#
#
#
# Elastic Constant Matrix: (Units=GPa)
#
#
# Indices 1 2 3 4 5 6 
#
# 1 105.0891 73.4755 61.5015 0.0000 0.0000 0.0000
# 2 73.4755 105.0947 61.5015 0.0000 0.0000 0.0000
# 3 61.5015 61.5015 100.7342 0.0000 0.0000 0.0000
# 4 0.0000 0.0000 0.0000 26.0086 0.0000 0.0000
# 5 0.0000 0.0000 0.0000 0.0000 26.0083 0.0000
# 6 0.0000 0.0000 0.0000 0.0000 0.0000 -5.3830
#
#
#
# Elastic Compliance Matrix: (Units=1/GPa)
#
#
# Indices 1 2 3 4 5 6 
#
# 1 0.020648 -0.010982 -0.005901 0.000000 0.000000 0.000000
# 2 -0.010982 0.020646 -0.005900 0.000000 0.000000 0.000000
# 3 -0.005901 -0.005900 0.017132 0.000000 0.000000 0.000000
# 4 0.000000 0.000000 0.000000 0.038449 0.000000 0.000000
# 5 0.000000 0.000000 0.000000 0.000000 0.038449 0.000000
# 6 0.000000 0.000000 0.000000 0.000000 0.000000 -0.185771
#
#
# Mechanical properties :
#
#
# Convention : Reuss Voigt Hill
#
# Bulk Modulus (GPa) = 77.76610 78.20833 77.98721
# Shear Modulus (GPa) = -8413.39083 16.95610 -4198.21737
#
# Velocity S-wave (km/s) = -71.82386 3.22438 -50.73594
# Velocity P-wave (km/s) = 82.64708 7.86229 58.17527
#
# Compressibility (1/GPa) = 0.01285907
#
# Stress axis : x y z
#
# Youngs Moduli (GPa) = 48.43146 48.43551 58.37000
#
# Poissons Ratio (x) = 0.53193 0.34445
# Poissons Ratio (y) = 0.53189 0.34439
# Poissons Ratio (z) = 0.28580 0.28577
#
# Static dielectric constant tensor:
#      x y z
#    x 1.539860 0.000000 0.000000 
#    y 0.000000 1.539860 0.000000 
#    z 0.000000 0.000000 1.546880 
# 
# From -- ./inp_files/1210.got.cif
#   From: 2010.05.17/outbox.cif.g08.bks.cpg/sg135_1_cif.got.tgz:1210.got - 2010.05.20 12:50:20.
