data_PCOD9568737
_publ_section_title
;
Structure prediction by ZEFSAII (Michael W. Deem and Ramdas Pophale) SiO2 
 PCOD9568737
Probable space group: P 42/M B C
;
_chemical_formula_sum "Si O2"
_cell_formula_units_Z 88
_cell_length_a 12.588187
_cell_length_b 12.588187
_cell_length_c 21.380809
_cell_angle_alpha 90.000000
_cell_angle_beta 90.000000
_cell_angle_gamma 90.000000
_cell_volume 3388.055419
_symmetry_space_group_name_H-M "P 42/M B C"
_symmetry_group_IT_number 135
_symmetry_cell_setting 'tetragonal'
loop_
_space_group_symop_operation_xyz
x,y,z
-y,x,1/2+z
-x,-y,z
y,-x,1/2+z
1/2+x,1/2-y,-z
1/2-x,1/2+y,-z
1/2+y,1/2+x,1/2-z
1/2-y,1/2-x,1/2-z
-x,-y,-z
y,-x,1/2-z
x,y,-z
-y,x,1/2-z
1/2-x,1/2+y,z
1/2+x,1/2-y,z
1/2-y,1/2-x,1/2+z
1/2+y,1/2+x,1/2+z
loop_
_atom_site_type_symbol
_atom_site_label
_atom_site_fract_x
_atom_site_fract_y
_atom_site_fract_z
Si Si1 0.416386 0.594419 0.424262
Si Si2 0.231005 0.825135 0.365675
Si Si3 0.050001 0.710454 0.427980
Si Si4 0.176542 0.516692 0.424558
Si Si5 0.139960 0.053133 0.773280
Si Si6 0.195200 0.695200 0.750000
O O1 0.500000 0.500000 0.411178
O O2 0.419830 0.604836 0.500000
O O3 0.463269 0.708119 0.401124
O O4 0.293937 0.565775 0.411576
O O5 0.162759 0.773974 0.421776
O O6 0.139092 0.886839 0.326523
O O7 0.254844 0.740149 0.311517
O O8 0.319495 0.902886 0.391383
O O9 0.023848 0.691263 0.500000
O O10 0.085285 0.596752 0.400980
O O11 0.167109 0.505014 0.500000
O O12 0.263726 0.075653 0.759707
O O13 0.064551 0.099024 0.718152
#
# Coordination Sequence:
#
# PCOD9568737 Si02
#       6
#    16  16  16  16  16   8
#     4   9  16  30  51  81 118 153 200 248 289 345
#     4  10  20  34  56  84 119 154 192 254 295 357
#     4  10  20  34  54  88 124 158 197 248 309 358
#     4  10  20  33  57  89 123 159 200 247 300 363
#     4   9  20  37  58  86 115 149 199 248 299 349
#     4   8  22  36  54  88 116 154 194 260 292 352
#
# _framework density 25.973600999999999
#
# number of rings (size 3 to 8) (size 9 to 14) (size 15 to 20)
#    1.091    1.455    1.818    0.545    2.545    2.909 
#    0.000    0.000    0.000    1.636    4.727    6.364 
#    0.000    0.000    0.000    0.000    0.000    0.000 
#
# Total GULP energy -490514.306162 kJ/mol
# GULP energy per Si atom -5574.026206 kJ/mol
# Density = 2.591448 g / cm^3
# Si number density = 25.973601 Si / 1000 Ang^3
#
#
#
# Elastic Constant Matrix: (Units=GPa)
#
#
# Indices 1 2 3 4 5 6 
#
# 1 75.2952 40.6534 6.1361 0.0000 0.0000 0.0000
# 2 40.6534 75.2952 6.1361 0.0000 0.0000 0.0000
# 3 6.1361 6.1361 60.7890 0.0000 0.0000 0.0000
# 4 0.0000 0.0000 0.0000 22.7751 0.0000 0.0000
# 5 0.0000 0.0000 0.0000 0.0000 22.7751 0.0000
# 6 0.0000 0.0000 0.0000 0.0000 0.0000 66.4580
#
#
#
# Elastic Compliance Matrix: (Units=1/GPa)
#
#
# Indices 1 2 3 4 5 6 
#
# 1 0.018792 -0.010075 -0.000880 0.000000 0.000000 0.000000
# 2 -0.010075 0.018792 -0.000880 0.000000 0.000000 0.000000
# 3 -0.000880 -0.000880 0.016628 0.000000 0.000000 0.000000
# 4 0.000000 0.000000 0.000000 0.043908 0.000000 0.000000
# 5 0.000000 0.000000 0.000000 0.000000 0.043908 0.000000
# 6 0.000000 0.000000 0.000000 0.000000 0.000000 0.015047
#
#
# Mechanical properties :
#
#
# Convention : Reuss Voigt Hill
#
# Bulk Modulus (GPa) = 32.74030 35.24786 33.99408
# Shear Modulus (GPa) = 26.18828 32.96521 29.57675
#
# Velocity S-wave (km/s) = 3.17876 3.56642 3.37816
# Velocity P-wave (km/s) = 5.10934 5.52804 5.32281
#
# Compressibility (1/GPa) = 0.03054340
#
# Stress axis : x y z
#
# Youngs Moduli (GPa) = 53.21340 53.21340 60.13957
#
# Poissons Ratio (x) = 0.53610 0.05292
# Poissons Ratio (y) = 0.53610 0.05292
# Poissons Ratio (z) = 0.04683 0.04683
#
# Static dielectric constant tensor:
#      x y z
#    x 2.071870 0.000000 0.000000 
#    y 0.000000 2.071870 0.000000 
#    z 0.000000 0.000000 2.096930 
# 
# From -- ./inp_files/6436.got.cif
#   From: 2010.05.17/outbox.cif.g08.bks.cpg/sg135_4_cif.got.tgz:6436.got - 2010.05.20 12:50:20.
