data_PCOD9568818
_publ_section_title
;
Structure prediction by ZEFSAII (Michael W. Deem and Ramdas Pophale) SiO2 
 PCOD9568818
Probable space group: P 42/M B C
;
_chemical_formula_sum "Si O2"
_cell_formula_units_Z 56
_cell_length_a 13.738508
_cell_length_b 13.738508
_cell_length_c 13.594024
_cell_angle_alpha 90.000000
_cell_angle_beta 90.000000
_cell_angle_gamma 90.000000
_cell_volume 2565.825838
_symmetry_space_group_name_H-M "P 42/M B C"
_symmetry_group_IT_number 135
_symmetry_cell_setting 'tetragonal'
loop_
_space_group_symop_operation_xyz
x,y,z
-y,x,1/2+z
-x,-y,z
y,-x,1/2+z
1/2+x,1/2-y,-z
1/2-x,1/2+y,-z
1/2+y,1/2+x,1/2-z
1/2-y,1/2-x,1/2-z
-x,-y,-z
y,-x,1/2-z
x,y,-z
-y,x,1/2-z
1/2-x,1/2+y,z
1/2+x,1/2-y,z
1/2-y,1/2-x,1/2+z
1/2+y,1/2+x,1/2+z
loop_
_atom_site_type_symbol
_atom_site_label
_atom_site_fract_x
_atom_site_fract_y
_atom_site_fract_z
Si Si1 0.796253 0.569527 0.500000
Si Si2 0.932546 0.654111 0.335467
Si Si3 0.065799 0.126412 0.295319
Si Si4 0.902472 0.433409 0.000000
Si Si5 0.390541 0.535486 0.500000
O O1 0.845048 0.625003 0.408928
O O2 0.829650 0.454335 0.500000
O O3 0.681831 0.556102 0.500000
O O4 0.925238 0.574763 0.250000
O O5 0.918871 0.759179 0.287067
O O6 0.029994 0.652301 0.402458
O O7 0.114713 0.096017 0.398744
O O8 0.949023 0.107376 0.285857
O O9 0.000000 0.500000 0.000000
O O10 0.500000 0.500000 0.500000
#
# Coordination Sequence:
#
# PCOD9568818 Si02
#       5
#     8  16  16   8   8
#     4  10  23  41  67  96 125 175 222 270 339 401
#     4  10  20  39  65  92 136 164 215 271 326 391
#     4  11  23  41  62  95 128 174 219 264 334 398
#     4   8  19  39  61  90 126 166 214 259 330 389
#     4  12  22  42  68  82 130 178 212 276 336 383
#
# _framework density 21.825333000000001
#
# number of rings (size 3 to 8) (size 9 to 14) (size 15 to 20)
#    0.000    2.000    2.857    3.429    0.000    5.143 
#    5.143    2.857    0.000    0.000    0.000    0.000 
#    0.000    0.000    0.000    0.000    0.000    0.000 
#
# Total GULP energy -312043.328462 kJ/mol
# GULP energy per Si atom -5572.202294 kJ/mol
# Density = 2.177566 g / cm^3
# Si number density = 21.825333 Si / 1000 Ang^3
#
#
#
# Elastic Constant Matrix: (Units=GPa)
#
#
# Indices 1 2 3 4 5 6 
#
# 1 96.8436 43.9006 24.6144 0.0000 0.0000 0.0000
# 2 43.9006 96.8452 24.6137 0.0000 0.0000 0.0000
# 3 24.6144 24.6137 97.2507 0.0000 0.0000 0.0000
# 4 0.0000 0.0000 0.0000 38.2304 0.0000 0.0000
# 5 0.0000 0.0000 0.0000 0.0000 38.2294 0.0000
# 6 0.0000 0.0000 0.0000 0.0000 0.0000 18.3412
#
#
#
# Elastic Compliance Matrix: (Units=1/GPa)
#
#
# Indices 1 2 3 4 5 6 
#
# 1 0.013342 -0.005546 -0.001973 0.000000 0.000000 0.000000
# 2 -0.005546 0.013341 -0.001973 0.000000 0.000000 0.000000
# 3 -0.001973 -0.001973 0.011281 0.000000 0.000000 0.000000
# 4 0.000000 0.000000 0.000000 0.026157 0.000000 0.000000
# 5 0.000000 0.000000 0.000000 0.000000 0.026158 0.000000
# 6 0.000000 0.000000 0.000000 0.000000 0.000000 0.054522
#
#
# Mechanical properties :
#
#
# Convention : Reuss Voigt Hill
#
# Bulk Modulus (GPa) = 52.68735 53.02188 52.85462
# Shear Modulus (GPa) = 29.39224 32.14758 30.76991
#
# Velocity S-wave (km/s) = 3.67373 3.84206 3.75884
# Velocity P-wave (km/s) = 6.49522 6.63539 6.56568
#
# Compressibility (1/GPa) = 0.01897989
#
# Stress axis : x y z
#
# Youngs Moduli (GPa) = 74.95313 74.95467 88.64149
#
# Poissons Ratio (x) = 0.41573 0.17489
# Poissons Ratio (y) = 0.41572 0.17488
# Poissons Ratio (z) = 0.14789 0.14787
#
# Static dielectric constant tensor:
#      x y z
#    x 1.819440 0.000000 0.000000 
#    y 0.000000 1.819430 0.000000 
#    z 0.000000 0.000000 1.894970 
# 
# From -- ./inp_files/2104.got.cif
#   From: 2010.05.17/outbox.cif.g08.bks.cpg/sg135_2_cif.got.tgz:2104.got - 2010.05.20 12:50:20.
