data_PCOD9568232
_publ_section_title
;
Structure prediction by ZEFSAII (Michael W. Deem and Ramdas Pophale) SiO2 
 PCOD9568232
Probable space group: P 42/N N M
;
_chemical_formula_sum "Si O2"
_cell_formula_units_Z 58
_cell_length_a 20.928125
_cell_length_b 20.928125
_cell_length_c 6.975557
_cell_angle_alpha 90.000000
_cell_angle_beta 90.000000
_cell_angle_gamma 90.000000
_cell_volume 3055.199210
_symmetry_space_group_name_H-M "P 42/N N M"
_symmetry_group_IT_number 134
_space_group.IT_coordinate_system_code '2'
_symmetry_cell_setting 'tetragonal'
loop_
_space_group_symop_operation_xyz
x,y,z
1/2-y,x,1/2+z
1/2-x,1/2-y,z
y,1/2-x,1/2+z
x,1/2-y,1/2-z
1/2-x,y,1/2-z
y,x,-z
1/2-y,1/2-x,-z
-x,-y,-z
1/2+y,-x,1/2-z
1/2+x,1/2+y,-z
-y,1/2+x,1/2-z
-x,1/2+y,1/2+z
1/2+x,-y,1/2+z
-y,-x,z
1/2+y,1/2+x,z
loop_
_atom_site_type_symbol
_atom_site_label
_atom_site_fract_x
_atom_site_fract_y
_atom_site_fract_z
Si Si1 0.356401 0.643600 0.131469
Si Si2 0.250000 0.750000 0.250000
Si Si3 0.309485 0.503625 0.116132
Si Si4 0.469629 0.530371 0.688256
Si Si5 0.750000 0.435535 0.250000
Si Si6 0.134435 0.865566 0.672069
Si Si7 0.072443 0.072443 0.000000
O O1 0.302590 0.697411 0.170708
O O2 0.338944 0.571150 0.193932
O O3 0.361619 0.638382 0.902238
O O4 0.250000 0.487019 0.250000
O O5 0.286864 0.521065 0.900995
O O6 0.360464 0.446944 0.094775
O O7 0.500000 0.500000 0.500000
O O8 0.417831 0.582170 0.623925
O O9 0.437776 0.478599 0.829050
O O10 0.795647 0.389992 0.121922
#
# Coordination Sequence:
#
# PCOD9568232 Si02
#       7
#     8   2  16   8   8   8   8
#     4  10  19  36  51  86 123 165 217 252 279 366
#     4  12  20  28  60  86 128 180 222 236 304 382
#     4  11  23  38  62  87 121 166 201 262 316 366
#     4  11  22  37  61  87 120 165 199 255 319 350
#     4  10  22  39  54  86 125 156 212 240 288 376
#     4  10  21  38  53  81 123 160 197 252 281 360
#     4  11  22  42  60  90 125 148 220 271 298 381
#
# _framework density 18.984033
#
# number of rings (size 3 to 8) (size 9 to 14) (size 15 to 20)
#    0.000    1.379    6.897    0.828    3.862    5.793 
#    0.000    0.000    0.000    0.000    0.000    2.897 
#    0.000    0.000    0.000    0.000    0.000    0.000 
#
# Total GULP energy -323460.106149 kJ/mol
# GULP energy per Si atom -5576.898382 kJ/mol
# Density = 1.894082 g / cm^3
# Si number density = 18.984033 Si / 1000 Ang^3
#
#
#
# Elastic Constant Matrix: (Units=GPa)
#
#
# Indices 1 2 3 4 5 6 
#
# 1 105.4208 84.5302 22.3009 0.0000 0.0000 0.0000
# 2 84.5302 105.4208 22.3009 0.0000 0.0000 0.0000
# 3 22.3009 22.3009 66.0535 0.0000 0.0000 0.0000
# 4 0.0000 0.0000 0.0000 30.2935 0.0000 0.0000
# 5 0.0000 0.0000 0.0000 0.0000 30.2935 0.0000
# 6 0.0000 0.0000 0.0000 0.0000 0.0000 42.4561
#
#
#
# Elastic Compliance Matrix: (Units=1/GPa)
#
#
# Indices 1 2 3 4 5 6 
#
# 1 0.026793 -0.021075 -0.001930 0.000000 0.000000 0.000000
# 2 -0.021075 0.026793 -0.001930 0.000000 0.000000 0.000000
# 3 -0.001930 -0.001930 0.016443 0.000000 0.000000 0.000000
# 4 0.000000 0.000000 0.000000 0.033010 0.000000 0.000000
# 5 0.000000 0.000000 0.000000 0.000000 0.033010 0.000000
# 6 0.000000 0.000000 0.000000 0.000000 0.000000 0.023554
#
#
# Mechanical properties :
#
#
# Convention : Reuss Voigt Hill
#
# Bulk Modulus (GPa) = 49.61154 59.46211 54.53682
# Shear Modulus (GPa) = 23.12729 30.45950 26.79340
#
# Velocity S-wave (km/s) = 3.49413 4.00994 3.76089
# Velocity P-wave (km/s) = 6.51680 7.26840 6.90284
#
# Compressibility (1/GPa) = 0.02015660
#
# Stress axis : x y z
#
# Youngs Moduli (GPa) = 37.32297 37.32297 60.81713
#
# Poissons Ratio (x) = 0.78660 0.11740
# Poissons Ratio (y) = 0.78660 0.11740
# Poissons Ratio (z) = 0.07205 0.07205
#
# Static dielectric constant tensor:
#      x y z
#    x 1.729020 0.000000 0.000000 
#    y 0.000000 1.729020 0.000000 
#    z 0.000000 0.000000 1.706580 
# 
# From -- ./inp_files/2505.got.cif
#   From: 2010.05.17/outbox.cif.g08.bks.cpg/sg134_2_cif.got.tgz:2505.got - 2010.05.20 12:42:49.
