data_PCOD9568631
_publ_section_title
;
Structure prediction by ZEFSAII (Michael W. Deem and Ramdas Pophale) SiO2 
 PCOD9568631
Probable space group: P 42/M B C
;
_chemical_formula_sum "Si O2"
_cell_formula_units_Z 112
_cell_length_a 14.866632
_cell_length_b 14.866632
_cell_length_c 25.472658
_cell_angle_alpha 90.000000
_cell_angle_beta 90.000000
_cell_angle_gamma 90.000000
_cell_volume 5629.884009
_symmetry_space_group_name_H-M "P 42/M B C"
_symmetry_group_IT_number 135
_symmetry_cell_setting 'tetragonal'
loop_
_space_group_symop_operation_xyz
x,y,z
-y,x,1/2+z
-x,-y,z
y,-x,1/2+z
1/2+x,1/2-y,-z
1/2-x,1/2+y,-z
1/2+y,1/2+x,1/2-z
1/2-y,1/2-x,1/2-z
-x,-y,-z
y,-x,1/2-z
x,y,-z
-y,x,1/2-z
1/2-x,1/2+y,z
1/2+x,1/2-y,z
1/2-y,1/2-x,1/2+z
1/2+y,1/2+x,1/2+z
loop_
_atom_site_type_symbol
_atom_site_label
_atom_site_fract_x
_atom_site_fract_y
_atom_site_fract_z
Si Si1 0.480881 0.601619 0.936642
Si Si2 0.205850 0.157286 0.233042
Si Si3 0.499105 0.147158 0.353065
Si Si4 0.986753 0.640223 0.866248
Si Si5 0.032029 0.262147 0.244386
Si Si6 0.283865 0.642255 0.110361
Si Si7 0.385207 0.247288 0.937515
O O1 0.500000 0.500000 0.919544
O O2 0.382812 0.634853 0.915641
O O3 0.571826 0.656599 0.921929
O O4 0.474727 0.605272 0.000000
O O5 0.301224 0.198777 0.250000
O O6 0.125319 0.214208 0.256225
O O7 0.200893 0.166961 0.170774
O O8 0.198657 0.054658 0.250338
O O9 0.427978 0.066407 0.350998
O O10 0.518926 0.169591 0.292508
O O11 0.453254 0.229721 0.384196
O O12 0.587550 0.104681 0.378840
O O13 0.031808 0.687490 0.915904
O O14 0.969651 0.698976 0.814306
O O15 0.209434 0.711199 0.086154
O O16 0.377026 0.242177 0.000000
#
# Coordination Sequence:
#
# PCOD9568631 Si02
#       7
#    16  16  16  16  16  16  16
#     4  10  22  43  64  89 123 162 209 257 312 375
#     4  11  23  39  57  84 120 158 199 242 305 359
#     4   9  19  34  57  88 114 157 201 239 306 367
#     4  10  18  35  59  84 119 152 202 252 301 362
#     4  11  21  36  55  82 118 160 198 247 293 360
#     4  10  21  41  61  91 121 161 203 253 306 371
#     4  10  21  39  64  90 119 158 203 260 313 362
#
# _framework density 19.893837999999999
#
# number of rings (size 3 to 8) (size 9 to 14) (size 15 to 20)
#    0.000    1.857    0.000    5.571    0.000    1.429 
#   20.571    6.429    0.000    0.000    0.000    0.000 
#    0.000    0.000    0.000    0.000    0.000    0.000 
#
# Total GULP energy -624151.990137 kJ/mol
# GULP energy per Si atom -5572.785626 kJ/mol
# Density = 1.984856 g / cm^3
# Si number density = 19.893838 Si / 1000 Ang^3
#
#
#
# Elastic Constant Matrix: (Units=GPa)
#
#
# Indices 1 2 3 4 5 6 
#
# 1 82.5622 30.9101 17.2669 0.0000 0.0000 0.0000
# 2 30.9101 82.5637 17.2665 0.0000 0.0000 0.0000
# 3 17.2669 17.2665 25.7717 0.0000 0.0000 0.0000
# 4 0.0000 0.0000 0.0000 6.6020 0.0000 0.0000
# 5 0.0000 0.0000 0.0000 0.0000 6.6021 0.0000
# 6 0.0000 0.0000 0.0000 0.0000 0.0000 22.3823
#
#
#
# Elastic Compliance Matrix: (Units=1/GPa)
#
#
# Indices 1 2 3 4 5 6 
#
# 1 0.015215 -0.004145 -0.007417 0.000000 0.000000 0.000000
# 2 -0.004145 0.015215 -0.007416 0.000000 0.000000 0.000000
# 3 -0.007417 -0.007416 0.048740 0.000000 0.000000 0.000000
# 4 0.000000 0.000000 0.000000 0.151469 0.000000 0.000000
# 5 0.000000 0.000000 0.000000 0.000000 0.151466 0.000000
# 6 0.000000 0.000000 0.000000 0.000000 0.000000 0.044678
#
#
# Mechanical properties :
#
#
# Convention : Reuss Voigt Hill
#
# Bulk Modulus (GPa) = 24.26393 35.75385 30.00889
# Shear Modulus (GPa) = 10.44980 15.48090 12.96535
#
# Velocity S-wave (km/s) = 2.29438 2.79261 2.55566
# Velocity P-wave (km/s) = 4.38658 5.33006 4.88117
#
# Compressibility (1/GPa) = 0.04121344
#
# Stress axis : x y z
#
# Youngs Moduli (GPa) = 65.72412 65.72606 20.51693
#
# Poissons Ratio (x) = 0.27244 0.15217
# Poissons Ratio (y) = 0.27244 0.15216
# Poissons Ratio (z) = 0.48747 0.48744
#
# Static dielectric constant tensor:
#      x y z
#    x 1.755310 0.000000 0.000000 
#    y 0.000000 1.755310 0.000000 
#    z 0.000000 0.000000 1.660850 
# 
# From -- ./inp_files/6153.got.cif
#   From: 2010.05.17/outbox.cif.g08.bks.cpg/sg135_4_cif.got.tgz:6153.got - 2010.05.20 12:50:20.
