data_PCOD9568458
_publ_section_title
;
Structure prediction by ZEFSAII (Michael W. Deem and Ramdas Pophale) SiO2 
 PCOD9568458
Probable space group: P 42/N N M
;
_chemical_formula_sum "Si O2"
_cell_formula_units_Z 64
_cell_length_a 13.163532
_cell_length_b 13.163532
_cell_length_c 19.971842
_cell_angle_alpha 90.000000
_cell_angle_beta 90.000000
_cell_angle_gamma 90.000000
_cell_volume 3460.692316
_symmetry_space_group_name_H-M "P 42/N N M"
_symmetry_group_IT_number 134
_space_group.IT_coordinate_system_code '2'
_symmetry_cell_setting 'tetragonal'
loop_
_space_group_symop_operation_xyz
x,y,z
1/2-y,x,1/2+z
1/2-x,1/2-y,z
y,1/2-x,1/2+z
x,1/2-y,1/2-z
1/2-x,y,1/2-z
y,x,-z
1/2-y,1/2-x,-z
-x,-y,-z
1/2+y,-x,1/2-z
1/2+x,1/2+y,-z
-y,1/2+x,1/2-z
-x,1/2+y,1/2+z
1/2+x,-y,1/2+z
-y,-x,z
1/2+y,1/2+x,z
loop_
_atom_site_type_symbol
_atom_site_label
_atom_site_fract_x
_atom_site_fract_y
_atom_site_fract_z
Si Si1 0.474522 0.144439 0.441932
Si Si2 0.227488 0.370755 0.825043
Si Si3 0.583564 0.254300 0.554050
Si Si4 0.826626 0.999571 0.686628
O O1 0.401844 0.098157 0.500000
O O2 0.422403 0.199151 0.379428
O O3 0.531692 0.230351 0.484372
O O4 0.553977 0.053977 0.423438
O O5 0.250000 0.250000 0.828508
O O6 0.250000 0.406874 0.750000
O O7 0.105883 0.382905 0.830242
O O8 0.638668 0.361333 0.550261
O O9 0.667286 0.167286 0.563816
O O10 0.518369 0.257532 0.621108
O O11 0.750000 0.990038 0.750000
O O12 0.906766 0.093235 0.696427
#
# Coordination Sequence:
#
# PCOD9568458 Si02
#       4
#    16  16  16  16
#     4  10  22  39  63  88 115 163 214 255 302 364
#     4  11  23  41  57  85 126 160 198 254 313 366
#     4   9  19  36  57  85 119 150 190 247 302 355
#     4  11  22  37  61  90 122 161 201 250 314 378
#
# _framework density 18.493410000000001
#
# number of rings (size 3 to 8) (size 9 to 14) (size 15 to 20)
#    0.000    1.750    2.500    2.250    0.000    6.750 
#    0.000    2.500    0.000    0.000    0.000    1.750 
#    0.000    0.000    0.000    0.000    0.000    0.000 
#
# Total GULP energy -356653.680052 kJ/mol
# GULP energy per Si atom -5572.713751 kJ/mol
# Density = 1.845132 g / cm^3
# Si number density = 18.493410 Si / 1000 Ang^3
#
#
#
# Elastic Constant Matrix: (Units=GPa)
#
#
# Indices 1 2 3 4 5 6 
#
# 1 74.7912 23.7433 66.2653 0.0000 0.0000 0.0000
# 2 23.7433 74.7906 66.2642 0.0000 0.0000 0.0000
# 3 66.2653 66.2642 155.9375 0.0000 0.0000 0.0000
# 4 0.0000 0.0000 0.0000 -325.2940 0.0000 0.0000
# 5 0.0000 0.0000 0.0000 0.0000 -325.8483 0.0000
# 6 0.0000 0.0000 0.0000 0.0000 0.0000 -17.2508
#
#
#
# Elastic Compliance Matrix: (Units=1/GPa)
#
#
# Indices 1 2 3 4 5 6 
#
# 1 0.021639 0.002049 -0.010066 0.000000 0.000000 0.000000
# 2 0.002049 0.021638 -0.010066 0.000000 0.000000 0.000000
# 3 -0.010066 -0.010066 0.014968 0.000000 0.000000 0.000000
# 4 0.000000 0.000000 0.000000 -0.003074 0.000000 0.000000
# 5 0.000000 0.000000 0.000000 0.000000 -0.003069 0.000000
# 6 0.000000 0.000000 0.000000 0.000000 0.000000 -0.057968
#
#
# Mechanical properties :
#
#
# Convention : Reuss Voigt Hill
#
# Bulk Modulus (GPa) = 45.29163 68.67387 56.98275
# Shear Modulus (GPa) = 132.77344 -123.72883 4.52230
#
# Velocity S-wave (km/s) = 8.48239 -8.18838 1.56546
# Velocity P-wave (km/s) = 10.97626 7.22389 5.84354
#
# Compressibility (1/GPa) = 0.02207913
#
# Stress axis : x y z
#
# Youngs Moduli (GPa) = 46.21382 46.21421 66.81086
#
# Poissons Ratio (x) = -0.09469 0.67251
# Poissons Ratio (y) = -0.09469 0.67250
# Poissons Ratio (z) = 0.46518 0.46518
#
# Static dielectric constant tensor:
#      x y z
#    x 1.716540 0.000000 0.000000 
#    y 0.000000 1.716550 0.000000 
#    z 0.000000 0.000000 2.395440 
# 
# From -- ./inp_files/7434.got.cif
#   From: 2010.05.17/outbox.cif.g08.bks.cpg/sg134_4_cif.got.tgz:7434.got - 2010.05.20 12:42:49.
