data_PCOD9568472
_publ_section_title
;
Structure prediction by ZEFSAII (Michael W. Deem and Ramdas Pophale) SiO2 
 PCOD9568472
Probable space group: P 42/N N M
;
_chemical_formula_sum "Si O2"
_cell_formula_units_Z 72
_cell_length_a 16.333312
_cell_length_b 16.333312
_cell_length_c 12.105636
_cell_angle_alpha 90.000000
_cell_angle_beta 90.000000
_cell_angle_gamma 90.000000
_cell_volume 3229.506234
_symmetry_space_group_name_H-M "P 42/N N M"
_symmetry_group_IT_number 134
_space_group.IT_coordinate_system_code '2'
_symmetry_cell_setting 'tetragonal'
loop_
_space_group_symop_operation_xyz
x,y,z
1/2-y,x,1/2+z
1/2-x,1/2-y,z
y,1/2-x,1/2+z
x,1/2-y,1/2-z
1/2-x,y,1/2-z
y,x,-z
1/2-y,1/2-x,-z
-x,-y,-z
1/2+y,-x,1/2-z
1/2+x,1/2+y,-z
-y,1/2+x,1/2-z
-x,1/2+y,1/2+z
1/2+x,-y,1/2+z
-y,-x,z
1/2+y,1/2+x,z
loop_
_atom_site_type_symbol
_atom_site_label
_atom_site_fract_x
_atom_site_fract_y
_atom_site_fract_z
Si Si1 0.903062 0.903062 0.000000
Si Si2 0.167243 0.534367 0.882038
Si Si3 0.875479 0.840780 0.761088
Si Si4 0.508709 0.145843 0.868449
Si Si5 0.693651 0.434057 0.965605
O O1 0.876665 0.856089 0.890703
O O2 0.875019 0.995435 0.974021
O O3 0.108756 0.608756 0.852743
O O4 0.166197 0.466117 0.790197
O O5 0.134070 0.496067 0.998673
O O6 0.256472 0.564417 0.919216
O O7 0.838079 0.750000 0.750000
O O8 0.846604 0.923525 0.697804
O O9 0.572671 0.072671 0.832791
O O10 0.548514 0.263697 0.624768
O O11 0.650657 0.349343 0.944820
#
# Coordination Sequence:
#
# PCOD9568472 Si02
#       5
#     8  16  16  16  16
#     4  12  27  44  67 102 140 197 247 296 376 460
#     4   9  20  41  73 104 137 187 245 306 372 444
#     4  12  23  45  70 103 147 189 247 308 364 449
#     4   9  21  42  73 105 138 190 249 306 380 458
#     4  10  22  43  68 106 147 182 240 311 380 454
#
# _framework density 22.294430999999999
#
# number of rings (size 3 to 8) (size 9 to 14) (size 15 to 20)
#    1.333    0.444    2.222    1.667    0.000    8.000 
#    0.000    3.333    0.000    0.000    0.000    6.222 
#    0.000    0.000    0.000    0.000    0.000    0.000 
#
# Total GULP energy -401159.716980 kJ/mol
# GULP energy per Si atom -5571.662736 kJ/mol
# Density = 2.224369 g / cm^3
# Si number density = 22.294431 Si / 1000 Ang^3
#
#
#
# Elastic Constant Matrix: (Units=GPa)
#
#
# Indices 1 2 3 4 5 6 
#
# 1 115.9031 126.7656 44.5666 0.0000 0.0000 0.0000
# 2 126.7656 115.9031 44.5666 0.0000 0.0000 0.0000
# 3 44.5666 44.5666 118.8569 0.0000 0.0000 0.0000
# 4 0.0000 0.0000 0.0000 33.6752 0.0000 0.0000
# 5 0.0000 0.0000 0.0000 0.0000 33.6752 0.0000
# 6 0.0000 0.0000 0.0000 0.0000 0.0000 14.2197
#
#
#
# Elastic Compliance Matrix: (Units=1/GPa)
#
#
# Indices 1 2 3 4 5 6 
#
# 1 -0.043640 0.048419 -0.001792 0.000000 0.000000 0.000000
# 2 0.048419 -0.043640 -0.001792 0.000000 0.000000 0.000000
# 3 -0.001792 -0.001792 0.009757 0.000000 0.000000 0.000000
# 4 0.000000 0.000000 0.000000 0.029695 0.000000 0.000000
# 5 0.000000 0.000000 0.000000 0.000000 0.029695 0.000000
# 6 0.000000 0.000000 0.000000 0.000000 0.000000 0.070325
#
#
# Mechanical properties :
#
#
# Convention : Reuss Voigt Hill
#
# Bulk Modulus (GPa) = 82.32096 86.94008 84.63052
# Shear Modulus (GPa) = -149.57240 25.29831 -62.13704
#
# Velocity S-wave (km/s) = -8.19971 3.37224 -5.28504
# Velocity P-wave (km/s) = 7.25551 7.36503 0.89479
#
# Compressibility (1/GPa) = 0.01214757
#
# Stress axis : x y z
#
# Youngs Moduli (GPa) = -22.91469 -22.91469 102.48743
#
# Poissons Ratio (x) = 1.10951 0.18365
# Poissons Ratio (y) = 1.10951 0.18365
# Poissons Ratio (z) = -0.04106 -0.04106
#
# Static dielectric constant tensor:
#      x y z
#    x 1.842650 0.000000 0.000000 
#    y 0.000000 1.842650 0.000000 
#    z 0.000000 0.000000 1.848870 
# 
# From -- ./inp_files/4734.got.cif
#   From: 2010.05.17/outbox.cif.g08.bks.cpg/sg134_3_cif.got.tgz:4734.got - 2010.05.20 12:42:49.
