data_PCOD9568436
_publ_section_title
;
Structure prediction by ZEFSAII (Michael W. Deem and Ramdas Pophale) SiO2 
 PCOD9568436
Probable space group: P 42/N N M
;
_chemical_formula_sum "Si O2"
_cell_formula_units_Z 96
_cell_length_a 23.161729
_cell_length_b 23.161729
_cell_length_c 9.157098
_cell_angle_alpha 90.000000
_cell_angle_beta 90.000000
_cell_angle_gamma 90.000000
_cell_volume 4912.468899
_symmetry_space_group_name_H-M "P 42/N N M"
_symmetry_group_IT_number 134
_space_group.IT_coordinate_system_code '2'
_symmetry_cell_setting 'tetragonal'
loop_
_space_group_symop_operation_xyz
x,y,z
1/2-y,x,1/2+z
1/2-x,1/2-y,z
y,1/2-x,1/2+z
x,1/2-y,1/2-z
1/2-x,y,1/2-z
y,x,-z
1/2-y,1/2-x,-z
-x,-y,-z
1/2+y,-x,1/2-z
1/2+x,1/2+y,-z
-y,1/2+x,1/2-z
-x,1/2+y,1/2+z
1/2+x,-y,1/2+z
-y,-x,z
1/2+y,1/2+x,z
loop_
_atom_site_type_symbol
_atom_site_label
_atom_site_fract_x
_atom_site_fract_y
_atom_site_fract_z
Si Si1 0.509186 0.802271 0.012758
Si Si2 0.669369 0.498112 0.983704
Si Si3 0.312540 0.906103 0.247725
Si Si4 0.600081 0.496677 0.279586
Si Si5 0.373036 0.418630 0.273840
Si Si6 0.190050 0.188505 0.175828
O O1 0.516722 0.734930 0.974849
O O2 0.458427 0.805932 0.133300
O O3 0.564051 0.831763 0.091700
O O4 0.491554 0.843907 0.881960
O O5 0.674226 0.436510 0.902329
O O6 0.646063 0.542383 0.862732
O O7 0.625225 0.495898 0.116193
O O8 0.250000 0.876483 0.250000
O O9 0.363105 0.863105 0.206936
O O10 0.553524 0.446477 0.303491
O O11 0.572572 0.559825 0.307432
O O12 0.360882 0.353791 0.223254
O O13 0.180540 0.250000 0.250000
O O14 0.250000 0.166366 0.250000
O O15 0.193697 0.193697 0.000000
#
# Coordination Sequence:
#
# PCOD9568436 Si02
#       6
#    16  16  16  16  16  16
#     4  10  22  40  61  81 111 154 199 240 285 349
#     4  10  21  40  61  81 110 154 199 240 284 348
#     4   9  18  34  57  83 111 145 184 232 290 348
#     4  12  25  38  58  90 122 153 192 244 305 363
#     4  11  24  39  58  83 114 153 196 242 294 356
#     4  11  23  39  59  85 117 154 201 255 308 357
#
# _framework density 19.542110000000001
#
# number of rings (size 3 to 8) (size 9 to 14) (size 15 to 20)
#    0.000    1.500    0.000    7.000    0.000   10.833 
#    0.000    0.000    0.000    0.000    0.000    0.000 
#    0.000   12.000    0.000    0.000    0.000    0.000 
#
# Total GULP energy -536527.975518 kJ/mol
# GULP energy per Si atom -5588.833078 kJ/mol
# Density = 1.949763 g / cm^3
# Si number density = 19.542110 Si / 1000 Ang^3
#
#
#
# Elastic Constant Matrix: (Units=GPa)
#
#
# Indices 1 2 3 4 5 6 
#
# 1 53.7492 20.5838 3.1766 0.0000 0.0000 0.0000
# 2 20.5838 53.7492 3.1766 0.0000 0.0000 0.0000
# 3 3.1766 3.1766 43.0421 0.0000 0.0000 0.0000
# 4 0.0000 0.0000 0.0000 20.5166 0.0000 0.0000
# 5 0.0000 0.0000 0.0000 0.0000 20.5166 0.0000
# 6 0.0000 0.0000 0.0000 0.0000 0.0000 23.7055
#
#
#
# Elastic Compliance Matrix: (Units=1/GPa)
#
#
# Indices 1 2 3 4 5 6 
#
# 1 0.021845 -0.008307 -0.000999 0.000000 0.000000 0.000000
# 2 -0.008307 0.021845 -0.000999 0.000000 0.000000 0.000000
# 3 -0.000999 -0.000999 0.023381 0.000000 0.000000 0.000000
# 4 0.000000 0.000000 0.000000 0.048741 0.000000 0.000000
# 5 0.000000 0.000000 0.000000 0.000000 0.048741 0.000000
# 6 0.000000 0.000000 0.000000 0.000000 0.000000 0.042184
#
#
# Mechanical properties :
#
#
# Convention : Reuss Voigt Hill
#
# Bulk Modulus (GPa) = 21.52362 22.71275 22.11818
# Shear Modulus (GPa) = 20.59018 21.18797 20.88907
#
# Velocity S-wave (km/s) = 3.24949 3.29632 3.27299
# Velocity P-wave (km/s) = 5.01167 5.11228 5.06222
#
# Compressibility (1/GPa) = 0.04646059
#
# Stress axis : x y z
#
# Youngs Moduli (GPa) = 45.77672 45.77672 42.77062
#
# Poissons Ratio (x) = 0.38026 0.04274
# Poissons Ratio (y) = 0.38026 0.04274
# Poissons Ratio (z) = 0.04574 0.04574
#
# Static dielectric constant tensor:
#      x y z
#    x 1.685500 0.000000 0.000000 
#    y 0.000000 1.685500 0.000000 
#    z 0.000000 0.000000 1.701270 
# 
# From -- ./inp_files/3206.got.cif
#   From: 2010.05.17/outbox.cif.g08.bks.cpg/sg134_2_cif.got.tgz:3206.got - 2010.05.20 12:42:49.
