data_PCOD9568468
_publ_section_title
;
Structure prediction by ZEFSAII (Michael W. Deem and Ramdas Pophale) SiO2 
 PCOD9568468
Probable space group: P 42/N N M
;
_chemical_formula_sum "Si O2"
_cell_formula_units_Z 32
_cell_length_a 10.206525
_cell_length_b 10.206525
_cell_length_c 12.433625
_cell_angle_alpha 90.000000
_cell_angle_beta 90.000000
_cell_angle_gamma 90.000000
_cell_volume 1295.249914
_symmetry_space_group_name_H-M "P 42/N N M"
_symmetry_group_IT_number 134
_space_group.IT_coordinate_system_code '2'
_symmetry_cell_setting 'tetragonal'
loop_
_space_group_symop_operation_xyz
x,y,z
1/2-y,x,1/2+z
1/2-x,1/2-y,z
y,1/2-x,1/2+z
x,1/2-y,1/2-z
1/2-x,y,1/2-z
y,x,-z
1/2-y,1/2-x,-z
-x,-y,-z
1/2+y,-x,1/2-z
1/2+x,1/2+y,-z
-y,1/2+x,1/2-z
-x,1/2+y,1/2+z
1/2+x,-y,1/2+z
-y,-x,z
1/2+y,1/2+x,z
loop_
_atom_site_type_symbol
_atom_site_label
_atom_site_fract_x
_atom_site_fract_y
_atom_site_fract_z
Si Si1 0.285435 0.502278 0.470903
Si Si2 0.923446 0.626114 0.676433
O O1 0.393093 0.393093 0.500000
O O2 0.361922 0.638079 0.456390
O O3 0.200632 0.452878 0.369821
O O4 0.188808 0.495018 0.572407
O O5 0.893687 0.750000 0.750000
O O6 0.023670 0.523670 0.730556
#
# Coordination Sequence:
#
# PCOD9568468 Si02
#       2
#    16  16
#     4  10  22  41  67  97 133 180 229 283 347 411
#     4  11  23  39  65 101 141 183 228 281 338 405
#
# _framework density 24.705656999999999
#
# number of rings (size 3 to 8) (size 9 to 14) (size 15 to 20)
#    0.000    1.500    0.000    7.500    0.000   10.500 
#    0.000    0.000    0.000   12.000    0.000   28.000 
#    0.000    0.000    0.000    0.000    0.000    0.000 
#
# Total GULP energy -179362.840268 kJ/mol
# GULP energy per Si atom -5605.088758 kJ/mol
# Density = 2.464943 g / cm^3
# Si number density = 24.705657 Si / 1000 Ang^3
#
#
#
# Elastic Constant Matrix: (Units=GPa)
#
#
# Indices 1 2 3 4 5 6 
#
# 1 138.8400 135.9169 46.1576 0.0000 0.0000 0.0000
# 2 135.9169 138.8400 46.1576 0.0000 0.0000 0.0000
# 3 46.1576 46.1576 115.2350 0.0000 0.0000 0.0000
# 4 0.0000 0.0000 0.0000 29.7135 0.0000 0.0000
# 5 0.0000 0.0000 0.0000 0.0000 29.7135 0.0000
# 6 0.0000 0.0000 0.0000 0.0000 0.0000 83.4941
#
#
#
# Elastic Compliance Matrix: (Units=1/GPa)
#
#
# Indices 1 2 3 4 5 6 
#
# 1 0.173152 -0.168947 -0.001685 0.000000 0.000000 0.000000
# 2 -0.168947 0.173152 -0.001685 0.000000 0.000000 0.000000
# 3 -0.001685 -0.001685 0.010027 0.000000 0.000000 0.000000
# 4 0.000000 0.000000 0.000000 0.033655 0.000000 0.000000
# 5 0.000000 0.000000 0.000000 0.000000 0.033655 0.000000
# 6 0.000000 0.000000 0.000000 0.000000 0.000000 0.011977
#
#
# Mechanical properties :
#
#
# Convention : Reuss Voigt Hill
#
# Bulk Modulus (GPa) = 85.46744 94.37546 89.92145
# Shear Modulus (GPa) = 6.37632 39.56309 22.96971
#
# Velocity S-wave (km/s) = 1.60827 4.00606 3.05246
# Velocity P-wave (km/s) = 6.17398 7.72534 6.99282
#
# Compressibility (1/GPa) = 0.01170036
#
# Stress axis : x y z
#
# Youngs Moduli (GPa) = 5.77526 5.77526 99.72662
#
# Poissons Ratio (x) = 0.97571 0.16799
# Poissons Ratio (y) = 0.97571 0.16799
# Poissons Ratio (z) = 0.00973 0.00973
#
# Static dielectric constant tensor:
#      x y z
#    x 1.951280 0.000000 0.000000 
#    y 0.000000 1.951280 0.000000 
#    z 0.000000 0.000000 1.973970 
# 
# From -- ./inp_files/3643.got.cif
#   From: 2010.05.17/outbox.cif.g08.bks.cpg/sg134_2_cif.got.tgz:3643.got - 2010.05.20 12:42:49.
