data_PCOD9568141
_publ_section_title
;
Structure prediction by ZEFSAII (Michael W. Deem and Ramdas Pophale) SiO2 
 PCOD9568141
Probable space group: P 42/N N M
;
_chemical_formula_sum "Si O2"
_cell_formula_units_Z 96
_cell_length_a 19.695404
_cell_length_b 19.695404
_cell_length_c 14.906576
_cell_angle_alpha 90.000000
_cell_angle_beta 90.000000
_cell_angle_gamma 90.000000
_cell_volume 5782.394076
_symmetry_space_group_name_H-M "P 42/N N M"
_symmetry_group_IT_number 134
_space_group.IT_coordinate_system_code '2'
_symmetry_cell_setting 'tetragonal'
loop_
_space_group_symop_operation_xyz
x,y,z
1/2-y,x,1/2+z
1/2-x,1/2-y,z
y,1/2-x,1/2+z
x,1/2-y,1/2-z
1/2-x,y,1/2-z
y,x,-z
1/2-y,1/2-x,-z
-x,-y,-z
1/2+y,-x,1/2-z
1/2+x,1/2+y,-z
-y,1/2+x,1/2-z
-x,1/2+y,1/2+z
1/2+x,-y,1/2+z
-y,-x,z
1/2+y,1/2+x,z
loop_
_atom_site_type_symbol
_atom_site_label
_atom_site_fract_x
_atom_site_fract_y
_atom_site_fract_z
Si Si1 0.074436 0.298066 0.165749
Si Si2 0.180344 0.217699 0.602082
Si Si3 0.904242 0.982165 0.920847
Si Si4 0.601975 0.507352 0.559545
Si Si5 0.255490 0.458280 0.030277
Si Si6 0.434227 0.042689 0.762301
O O1 0.076380 0.250000 0.250000
O O2 0.148415 0.331932 0.153849
O O3 0.028032 0.361337 0.193537
O O4 0.058520 0.255812 0.075567
O O5 0.250000 0.250000 0.637897
O O6 0.197310 0.197310 0.500000
O O7 0.111631 0.259369 0.588908
O O8 0.825844 0.994956 0.946986
O O9 0.914443 0.939210 0.829155
O O10 0.938008 0.938008 0.000000
O O11 0.949106 0.050895 0.911602
O O12 0.568744 0.568744 0.500000
O O13 0.560510 0.439491 0.531972
O O14 0.683041 0.506684 0.551721
O O15 0.582012 0.523982 0.661158
O O16 0.472710 0.972710 0.742969
#
# Coordination Sequence:
#
# PCOD9568141 Si02
#       6
#    16  16  16  16  16  16
#     4  11  21  32  48  78 106 138 179 221 263 320
#     4   9  19  31  43  66 104 139 165 199 256 315
#     4  10  23  39  54  73 104 152 193 224 264 322
#     4  10  18  34  57  82 109 135 172 226 281 327
#     4  11  20  35  55  75 106 145 180 224 274 327
#     4  10  20  36  55  76 105 141 184 227 266 322
#
# _framework density 16.602119999999999
#
# number of rings (size 3 to 8) (size 9 to 14) (size 15 to 20)
#    0.000    1.833    3.333    1.500    7.000    1.000 
#    0.000    0.000    0.000    0.500    0.000    0.000 
#    0.000    5.667    0.000    0.167    0.000    0.000 
#
# Total GULP energy -534693.463195 kJ/mol
# GULP energy per Si atom -5569.723575 kJ/mol
# Density = 1.656433 g / cm^3
# Si number density = 16.602120 Si / 1000 Ang^3
#
#
#
# Elastic Constant Matrix: (Units=GPa)
#
#
# Indices 1 2 3 4 5 6 
#
# 1 72.5539 36.7775 11.6120 0.0000 0.0000 0.0000
# 2 36.7775 72.5539 11.6120 0.0000 0.0000 0.0000
# 3 11.6120 11.6120 78.4526 0.0000 0.0000 0.0000
# 4 0.0000 0.0000 0.0000 19.3134 0.0000 0.0000
# 5 0.0000 0.0000 0.0000 0.0000 19.3134 0.0000
# 6 0.0000 0.0000 0.0000 0.0000 0.0000 23.1074
#
#
#
# Elastic Compliance Matrix: (Units=1/GPa)
#
#
# Indices 1 2 3 4 5 6 
#
# 1 0.018697 -0.009254 -0.001398 0.000000 0.000000 0.000000
# 2 -0.009254 0.018697 -0.001398 0.000000 0.000000 0.000000
# 3 -0.001398 -0.001398 0.013160 0.000000 0.000000 0.000000
# 4 0.000000 0.000000 0.000000 0.051777 0.000000 0.000000
# 5 0.000000 0.000000 0.000000 0.000000 0.051777 0.000000
# 6 0.000000 0.000000 0.000000 0.000000 0.000000 0.043276
#
#
# Mechanical properties :
#
#
# Convention : Reuss Voigt Hill
#
# Bulk Modulus (GPa) = 37.79838 38.17370 37.98604
# Shear Modulus (GPa) = 21.71046 23.25078 22.48062
#
# Velocity S-wave (km/s) = 3.62013 3.74635 3.68378
# Velocity P-wave (km/s) = 6.34747 6.46194 6.40496
#
# Compressibility (1/GPa) = 0.02645616
#
# Stress axis : x y z
#
# Youngs Moduli (GPa) = 53.48342 53.48342 75.98598
#
# Poissons Ratio (x) = 0.49493 0.10621
# Poissons Ratio (y) = 0.49493 0.10621
# Poissons Ratio (z) = 0.07476 0.07476
#
# Static dielectric constant tensor:
#      x y z
#    x 1.614440 0.000000 0.000000 
#    y 0.000000 1.614440 0.000000 
#    z 0.000000 0.000000 1.588460 
# 
# From -- ./inp_files/6651.got.cif
#   From: 2010.05.17/outbox.cif.g08.bks.cpg/sg134_4_cif.got.tgz:6651.got - 2010.05.20 12:42:49.
