data_PCOD9568312
_publ_section_title
;
Structure prediction by ZEFSAII (Michael W. Deem and Ramdas Pophale) SiO2 
 PCOD9568312
Probable space group: P 42/N N M
;
_chemical_formula_sum "Si O2"
_cell_formula_units_Z 52
_cell_length_a 17.463908
_cell_length_b 17.463908
_cell_length_c 7.535900
_cell_angle_alpha 90.000000
_cell_angle_beta 90.000000
_cell_angle_gamma 90.000000
_cell_volume 2298.359692
_symmetry_space_group_name_H-M "P 42/N N M"
_symmetry_group_IT_number 134
_space_group.IT_coordinate_system_code '2'
_symmetry_cell_setting 'tetragonal'
loop_
_space_group_symop_operation_xyz
x,y,z
1/2-y,x,1/2+z
1/2-x,1/2-y,z
y,1/2-x,1/2+z
x,1/2-y,1/2-z
1/2-x,y,1/2-z
y,x,-z
1/2-y,1/2-x,-z
-x,-y,-z
1/2+y,-x,1/2-z
1/2+x,1/2+y,-z
-y,1/2+x,1/2-z
-x,1/2+y,1/2+z
1/2+x,-y,1/2+z
-y,-x,z
1/2+y,1/2+x,z
loop_
_atom_site_type_symbol
_atom_site_label
_atom_site_fract_x
_atom_site_fract_y
_atom_site_fract_z
Si Si1 0.665077 0.961746 0.198448
Si Si2 0.629474 0.129474 0.146446
Si Si3 0.250000 0.750000 0.750000
Si Si4 0.544227 0.662431 0.272544
Si Si5 0.375002 0.624998 0.220732
Si Si6 0.250000 0.750000 0.250000
O O1 0.750000 0.937248 0.250000
O O2 0.603390 0.903884 0.280288
O O3 0.653973 0.051051 0.241043
O O4 0.655162 0.961758 0.985691
O O5 0.693533 0.193533 0.151292
O O6 0.620215 0.120215 0.935460
O O7 0.570181 0.750000 0.250000
O O8 0.461942 0.650090 0.177148
O O9 0.311563 0.688438 0.166674
#
# Coordination Sequence:
#
# PCOD9568312 Si02
#       6
#    16   8   2  16   8   2
#     4  10  21  38  59  82 112 150 189 229 276 331
#     4  10  20  35  56  83 114 146 181 225 283 342
#     4  12  18  32  60  86 108 140 182 232 282 336
#     4  10  21  38  59  82 112 150 189 229 276 331
#     4  10  20  35  56  83 114 146 181 225 283 342
#     4  12  18  32  60  86 108 140 182 232 282 336
#
# _framework density 22.624829999999999
#
# number of rings (size 3 to 8) (size 9 to 14) (size 15 to 20)
#    0.000    1.846    3.077    1.385    0.000    5.538 
#    0.000    4.615    0.000    3.692    0.000    0.000 
#    0.000    0.000    0.000    0.000    0.000    0.000 
#
# Total GULP energy -290269.391648 kJ/mol
# GULP energy per Si atom -5582.103686 kJ/mol
# Density = 2.257334 g / cm^3
# Si number density = 22.624830 Si / 1000 Ang^3
#
#
#
# Elastic Constant Matrix: (Units=GPa)
#
#
# Indices 1 2 3 4 5 6 
#
# 1 166.8816 121.9491 8.0066 0.0000 0.0000 0.0000
# 2 121.9491 166.8816 8.0066 0.0000 0.0000 0.0000
# 3 8.0066 8.0066 55.1921 0.0000 0.0000 0.0000
# 4 0.0000 0.0000 0.0000 20.3343 0.0000 0.0000
# 5 0.0000 0.0000 0.0000 0.0000 20.3343 0.0000
# 6 0.0000 0.0000 0.0000 0.0000 0.0000 35.5987
#
#
#
# Elastic Compliance Matrix: (Units=1/GPa)
#
#
# Indices 1 2 3 4 5 6 
#
# 1 0.012873 -0.009383 -0.000506 0.000000 0.000000 0.000000
# 2 -0.009383 0.012873 -0.000506 0.000000 0.000000 0.000000
# 3 -0.000506 -0.000506 0.018265 0.000000 0.000000 0.000000
# 4 0.000000 0.000000 0.000000 0.049178 0.000000 0.000000
# 5 0.000000 0.000000 0.000000 0.000000 0.049178 0.000000
# 6 0.000000 0.000000 0.000000 0.000000 0.000000 0.028091
#
#
# Mechanical properties :
#
#
# Convention : Reuss Voigt Hill
#
# Bulk Modulus (GPa) = 43.06495 73.87554 58.47025
# Shear Modulus (GPa) = 25.12702 31.98634 28.55668
#
# Velocity S-wave (km/s) = 3.33617 3.76409 3.55658
# Velocity P-wave (km/s) = 5.82373 7.18432 6.53951
#
# Compressibility (1/GPa) = 0.02322074
#
# Stress axis : x y z
#
# Youngs Moduli (GPa) = 77.68236 77.68236 54.74816
#
# Poissons Ratio (x) = 0.72886 0.02772
# Poissons Ratio (y) = 0.72886 0.02772
# Poissons Ratio (z) = 0.03933 0.03933
#
# Static dielectric constant tensor:
#      x y z
#    x 1.834810 0.000000 0.000000 
#    y 0.000000 1.834810 0.000000 
#    z 0.000000 0.000000 1.987540 
# 
# From -- ./inp_files/2323.got.cif
#   From: 2010.05.17/outbox.cif.g08.bks.cpg/sg134_2_cif.got.tgz:2323.got - 2010.05.20 12:42:49.
