data_PCOD9568725
_publ_section_title
;
Structure prediction by ZEFSAII (Michael W. Deem and Ramdas Pophale) SiO2 
 PCOD9568725
Probable space group: P 42/M B C
;
_chemical_formula_sum "Si O2"
_cell_formula_units_Z 96
_cell_length_a 26.051707
_cell_length_b 26.051707
_cell_length_c 8.559311
_cell_angle_alpha 90.000000
_cell_angle_beta 90.000000
_cell_angle_gamma 90.000000
_cell_volume 5809.131088
_symmetry_space_group_name_H-M "P 42/M B C"
_symmetry_group_IT_number 135
_symmetry_cell_setting 'tetragonal'
loop_
_space_group_symop_operation_xyz
x,y,z
-y,x,1/2+z
-x,-y,z
y,-x,1/2+z
1/2+x,1/2-y,-z
1/2-x,1/2+y,-z
1/2+y,1/2+x,1/2-z
1/2-y,1/2-x,1/2-z
-x,-y,-z
y,-x,1/2-z
x,y,-z
-y,x,1/2-z
1/2-x,1/2+y,z
1/2+x,1/2-y,z
1/2-y,1/2-x,1/2+z
1/2+y,1/2+x,1/2+z
loop_
_atom_site_type_symbol
_atom_site_label
_atom_site_fract_x
_atom_site_fract_y
_atom_site_fract_z
Si Si1 0.060416 0.638782 0.686110
Si Si2 0.167669 0.253591 0.187116
Si Si3 0.449970 0.871154 0.315085
Si Si4 0.247987 0.054584 0.315837
Si Si5 0.250076 0.671386 0.688663
Si Si6 0.746743 0.054870 0.812040
O O1 0.107145 0.607145 0.750000
O O2 0.063926 0.648664 0.500000
O O3 0.056248 0.691788 0.776803
O O4 0.007220 0.609255 0.717509
O O5 0.192288 0.307713 0.250000
O O6 0.206918 0.210335 0.248562
O O7 0.110750 0.238092 0.246368
O O8 0.168036 0.256000 0.000000
O O9 0.406707 0.906707 0.250000
O O10 0.443944 0.868540 0.500000
O O11 0.447028 0.812797 0.258468
O O12 0.238098 0.051571 0.500000
O O13 0.234393 0.113065 0.262595
O O14 0.229372 0.000104 0.241942
O O15 0.195962 0.695962 0.750000
O O16 0.247901 0.672397 0.500000
O O17 0.749574 0.056037 0.000000
#
# Coordination Sequence:
#
# PCOD9568725 Si02
#       6
#    16  16  16  16  16  16
#     4  10  20  32  44  60  82 111 149 192 238 284
#     4  11  21  33  51  74 101 132 167 204 246 295
#     4   9  19  31  43  59  79 108 145 186 231 276
#     4  10  20  33  50  71  94 123 158 196 239 289
#     4  10  20  33  50  73 101 131 165 204 247 295
#     4  10  20  34  50  69  95 125 158 196 239 287
#
# _framework density 16.525708999999999
#
# number of rings (size 3 to 8) (size 9 to 14) (size 15 to 20)
#    0.000    2.000    0.000    6.500    0.000    9.667 
#    0.000    1.667    0.000    0.000    0.000    0.000 
#    0.000    0.667    0.000    7.000    0.000    3.000 
#
# Total GULP energy -534424.569755 kJ/mol
# GULP energy per Si atom -5566.922602 kJ/mol
# Density = 1.648810 g / cm^3
# Si number density = 16.525709 Si / 1000 Ang^3
#
#
#
# Elastic Constant Matrix: (Units=GPa)
#
#
# Indices 1 2 3 4 5 6 
#
# 1 83.0027 21.7350 20.9988 0.0000 0.0000 0.0000
# 2 21.7350 83.0002 20.9983 0.0000 0.0000 0.0000
# 3 20.9988 20.9983 47.0312 0.0000 0.0000 0.0000
# 4 0.0000 0.0000 0.0000 20.8967 0.0000 0.0000
# 5 0.0000 0.0000 0.0000 0.0000 20.8969 0.0000
# 6 0.0000 0.0000 0.0000 0.0000 0.0000 19.8774
#
#
#
# Elastic Compliance Matrix: (Units=1/GPa)
#
#
# Indices 1 2 3 4 5 6 
#
# 1 0.013976 -0.002346 -0.005193 0.000000 0.000000 0.000000
# 2 -0.002346 0.013976 -0.005193 0.000000 0.000000 0.000000
# 3 -0.005193 -0.005193 0.025899 0.000000 0.000000 0.000000
# 4 0.000000 0.000000 0.000000 0.047854 0.000000 0.000000
# 5 0.000000 0.000000 0.000000 0.000000 0.047854 0.000000
# 6 0.000000 0.000000 0.000000 0.000000 0.000000 0.050308
#
#
# Mechanical properties :
#
#
# Convention : Reuss Voigt Hill
#
# Bulk Modulus (GPa) = 35.22507 37.83314 36.52910
# Shear Modulus (GPa) = 21.29533 22.28768 21.79150
#
# Velocity S-wave (km/s) = 3.59363 3.67640 3.63525
# Velocity P-wave (km/s) = 6.21132 6.40035 6.30654
#
# Compressibility (1/GPa) = 0.02838887
#
# Stress axis : x y z
#
# Youngs Moduli (GPa) = 71.55226 71.55016 38.61123
#
# Poissons Ratio (x) = 0.16787 0.20049
# Poissons Ratio (y) = 0.16787 0.20049
# Poissons Ratio (z) = 0.37154 0.37153
#
# Static dielectric constant tensor:
#      x y z
#    x 1.611460 0.000000 0.000000 
#    y 0.000000 1.611460 0.000000 
#    z 0.000000 0.000000 1.573230 
# 
# From -- ./inp_files/1280.got.cif
#   From: 2010.05.17/outbox.cif.g08.bks.cpg/sg135_1_cif.got.tgz:1280.got - 2010.05.20 12:50:20.
