data_PCOD9568994
_publ_section_title
;
Structure prediction by ZEFSAII (Michael W. Deem and Ramdas Pophale) SiO2 
 PCOD9568994
Probable space group: P 42/M B C
;
_chemical_formula_sum "Si O2"
_cell_formula_units_Z 128
_cell_length_a 18.967539
_cell_length_b 18.967539
_cell_length_c 23.029425
_cell_angle_alpha 90.000000
_cell_angle_beta 90.000000
_cell_angle_gamma 90.000000
_cell_volume 8285.239481
_symmetry_space_group_name_H-M "P 42/M B C"
_symmetry_group_IT_number 135
_symmetry_cell_setting 'tetragonal'
loop_
_space_group_symop_operation_xyz
x,y,z
-y,x,1/2+z
-x,-y,z
y,-x,1/2+z
1/2+x,1/2-y,-z
1/2-x,1/2+y,-z
1/2+y,1/2+x,1/2-z
1/2-y,1/2-x,1/2-z
-x,-y,-z
y,-x,1/2-z
x,y,-z
-y,x,1/2-z
1/2-x,1/2+y,z
1/2+x,1/2-y,z
1/2-y,1/2-x,1/2+z
1/2+y,1/2+x,1/2+z
loop_
_atom_site_type_symbol
_atom_site_label
_atom_site_fract_x
_atom_site_fract_y
_atom_site_fract_z
Si Si1 0.731990 0.829620 0.065938
Si Si2 0.422126 0.589866 0.256000
Si Si3 0.491354 0.416518 0.436947
Si Si4 0.785003 0.666894 0.934206
Si Si5 0.366800 0.362546 0.637717
Si Si6 0.073721 0.265626 0.069316
Si Si7 0.852314 0.122707 0.880475
Si Si8 0.911056 0.266430 0.930921
O O1 0.757443 0.747927 0.063930
O O2 0.782399 0.863513 0.114096
O O3 0.648864 0.825404 0.079835
O O4 0.742132 0.857796 0.000000
O O5 0.506067 0.595250 0.243494
O O6 0.377503 0.628997 0.205867
O O7 0.403481 0.624006 0.317616
O O8 0.500000 0.500000 0.435129
O O9 0.462060 0.396468 0.500000
O O10 0.438313 0.394530 0.387398
O O11 0.566324 0.381482 0.426274
O O12 0.867427 0.674440 0.919009
O O13 0.731553 0.629175 0.890686
O O14 0.777779 0.638641 0.000000
O O15 0.302013 0.403620 0.607085
O O16 0.992448 0.284909 0.080520
O O17 0.080207 0.248803 0.000000
O O18 0.888452 0.197402 0.895252
O O19 0.905265 0.249670 0.000000
#
# Coordination Sequence:
#
# PCOD9568994 Si02
#       8
#    16  16  16  16  16  16  16  16
#     4   8  15  28  45  66  91 116 149 196 243 283
#     4  11  22  34  43  56  90 134 171 194 231 290
#     4  11  20  28  42  66  89 113 155 203 236 278
#     4   8  15  28  45  66  91 116 149 196 243 283
#     4  11  19  30  44  62  90 127 160 194 234 285
#     4   9  16  28  48  71  93 118 151 195 246 294
#     4  11  19  30  44  62  90 127 160 194 234 285
#     4   9  16  28  48  71  93 118 151 195 246 294
#
# _framework density 15.449161
#
# number of rings (size 3 to 8) (size 9 to 14) (size 15 to 20)
#    0.000    2.250    1.250    6.000    0.000    2.000 
#    0.000    5.625    0.000    0.000    0.000    0.875 
#    0.000    5.000    0.000    0.000   25.250    0.000 
#
# Total GULP energy -712902.155730 kJ/mol
# GULP energy per Si atom -5569.548092 kJ/mol
# Density = 1.541400 g / cm^3
# Si number density = 15.449161 Si / 1000 Ang^3
#
#
#
# Elastic Constant Matrix: (Units=GPa)
#
#
# Indices 1 2 3 4 5 6 
#
# 1 79.8218 26.6176 29.5746 0.0000 0.0000 0.0000
# 2 26.6176 79.8218 29.5746 0.0000 0.0000 0.0000
# 3 29.5746 29.5746 67.8536 0.0000 0.0000 0.0000
# 4 0.0000 0.0000 0.0000 17.7949 0.0000 0.0000
# 5 0.0000 0.0000 0.0000 0.0000 17.7949 0.0000
# 6 0.0000 0.0000 0.0000 0.0000 0.0000 20.6255
#
#
#
# Elastic Compliance Matrix: (Units=1/GPa)
#
#
# Indices 1 2 3 4 5 6 
#
# 1 0.015597 -0.003199 -0.005404 0.000000 0.000000 0.000000
# 2 -0.003199 0.015597 -0.005404 0.000000 0.000000 0.000000
# 3 -0.005404 -0.005404 0.019448 0.000000 0.000000 0.000000
# 4 0.000000 0.000000 0.000000 0.056196 0.000000 0.000000
# 5 0.000000 0.000000 0.000000 0.000000 0.056196 0.000000
# 6 0.000000 0.000000 0.000000 0.000000 0.000000 0.048484
#
#
# Mechanical properties :
#
#
# Convention : Reuss Voigt Hill
#
# Bulk Modulus (GPa) = 44.19105 44.33676 44.26391
# Shear Modulus (GPa) = 20.23697 20.69175 20.46436
#
# Velocity S-wave (km/s) = 3.62319 3.66368 3.64349
# Velocity P-wave (km/s) = 6.79482 6.83063 6.81275
#
# Compressibility (1/GPa) = 0.02262901
#
# Stress axis : x y z
#
# Youngs Moduli (GPa) = 64.11611 64.11611 51.41872
#
# Poissons Ratio (x) = 0.20509 0.27785
# Poissons Ratio (y) = 0.20509 0.27785
# Poissons Ratio (z) = 0.34647 0.34647
#
# Static dielectric constant tensor:
#      x y z
#    x 1.530900 0.000000 0.000000 
#    y 0.000000 1.530900 0.000000 
#    z 0.000000 0.000000 1.517360 
# 
# From -- ./inp_files/6273.got.cif
#   From: 2010.05.17/outbox.cif.g08.bks.cpg/sg135_4_cif.got.tgz:6273.got - 2010.05.20 12:50:20.
