data_PCOD9568387
_publ_section_title
;
Structure prediction by ZEFSAII (Michael W. Deem and Ramdas Pophale) SiO2 
 PCOD9568387
Probable space group: P 42/N N M
;
_chemical_formula_sum "Si O2"
_cell_formula_units_Z 104
_cell_length_a 18.079989
_cell_length_b 18.079989
_cell_length_c 18.340862
_cell_angle_alpha 90.000000
_cell_angle_beta 90.000000
_cell_angle_gamma 90.000000
_cell_volume 5995.371057
_symmetry_space_group_name_H-M "P 42/N N M"
_symmetry_group_IT_number 134
_space_group.IT_coordinate_system_code '2'
_symmetry_cell_setting 'tetragonal'
loop_
_space_group_symop_operation_xyz
x,y,z
1/2-y,x,1/2+z
1/2-x,1/2-y,z
y,1/2-x,1/2+z
x,1/2-y,1/2-z
1/2-x,y,1/2-z
y,x,-z
1/2-y,1/2-x,-z
-x,-y,-z
1/2+y,-x,1/2-z
1/2+x,1/2+y,-z
-y,1/2+x,1/2-z
-x,1/2+y,1/2+z
1/2+x,-y,1/2+z
-y,-x,z
1/2+y,1/2+x,z
loop_
_atom_site_type_symbol
_atom_site_label
_atom_site_fract_x
_atom_site_fract_y
_atom_site_fract_z
Si Si1 0.538211 0.158499 0.138124
Si Si2 0.400212 0.184549 0.696905
Si Si3 0.937941 0.184117 0.082928
Si Si4 0.330761 0.444444 0.028389
Si Si5 0.250000 0.250000 0.351010
Si Si6 0.190447 0.113864 0.559164
Si Si7 0.485079 0.393693 0.211472
O O1 0.586879 0.086879 0.117055
O O2 0.576709 0.232736 0.108877
O O3 0.455944 0.166160 0.105984
O O4 0.525095 0.152169 0.224585
O O5 0.429690 0.250000 0.750000
O O6 0.433845 0.181187 0.614827
O O7 0.312941 0.202661 0.688833
O O8 0.406046 0.101215 0.726943
O O9 0.867326 0.132674 0.091576
O O10 0.001133 0.151315 0.137204
O O11 0.972470 0.176532 0.002299
O O12 0.406409 0.406409 0.000000
O O13 0.265728 0.402708 0.984526
O O14 0.188890 0.205085 0.396783
O O15 0.128215 0.128215 0.500000
O O16 0.528995 0.471006 0.205321
#
# Coordination Sequence:
#
# PCOD9568387 Si02
#       7
#    16  16  16  16   8  16  16
#     4  10  22  37  53  76 111 147 184 231 283 345
#     4  12  23  33  52  83 117 153 189 227 283 350
#     4  10  21  36  60  82 103 141 190 244 294 334
#     4  11  19  35  52  78 114 146 184 226 277 338
#     4  12  20  32  52  86 116 148 188 232 280 342
#     4  11  19  32  54  75 111 147 186 224 269 331
#     4  10  21  38  55  79 113 151 188 229 285 350
#
# _framework density 17.346717000000002
#
# number of rings (size 3 to 8) (size 9 to 14) (size 15 to 20)
#    0.000    1.231    4.615    2.769    0.000    2.769 
#    0.000    0.000    0.000    2.769    0.000    0.000 
#    0.000    0.308    0.000    0.000    0.000    0.000 
#
# Total GULP energy -579990.590936 kJ/mol
# GULP energy per Si atom -5576.832605 kJ/mol
# Density = 1.730724 g / cm^3
# Si number density = 17.346717 Si / 1000 Ang^3
#
#
#
# Elastic Constant Matrix: (Units=GPa)
#
#
# Indices 1 2 3 4 5 6 
#
# 1 75.8454 32.6779 25.3908 0.0000 0.0000 0.0000
# 2 32.6779 75.8454 25.3908 0.0000 0.0000 0.0000
# 3 25.3908 25.3908 82.4365 0.0000 0.0000 0.0000
# 4 0.0000 0.0000 0.0000 16.2869 0.0000 0.0000
# 5 0.0000 0.0000 0.0000 0.0000 16.2869 0.0000
# 6 0.0000 0.0000 0.0000 0.0000 0.0000 23.2784
#
#
#
# Elastic Compliance Matrix: (Units=1/GPa)
#
#
# Indices 1 2 3 4 5 6 
#
# 1 0.016966 -0.006200 -0.003316 0.000000 0.000000 0.000000
# 2 -0.006200 0.016966 -0.003316 0.000000 0.000000 0.000000
# 3 -0.003316 -0.003316 0.014173 0.000000 0.000000 0.000000
# 4 0.000000 0.000000 0.000000 0.061399 0.000000 0.000000
# 5 0.000000 0.000000 0.000000 0.000000 0.061399 0.000000
# 6 0.000000 0.000000 0.000000 0.000000 0.000000 0.042958
#
#
# Mechanical properties :
#
#
# Convention : Reuss Voigt Hill
#
# Bulk Modulus (GPa) = 44.56005 44.56068 44.56037
# Shear Modulus (GPa) = 20.24247 21.21498 20.72872
#
# Velocity S-wave (km/s) = 3.41975 3.50093 3.46058
# Velocity P-wave (km/s) = 6.42935 6.48738 6.45843
#
# Compressibility (1/GPa) = 0.02244163
#
# Stress axis : x y z
#
# Youngs Moduli (GPa) = 58.94168 58.94168 70.55532
#
# Poissons Ratio (x) = 0.36542 0.23397
# Poissons Ratio (y) = 0.36542 0.23397
# Poissons Ratio (z) = 0.19545 0.19545
#
# Static dielectric constant tensor:
#      x y z
#    x 1.600900 0.000000 0.000000 
#    y 0.000000 1.600900 0.000000 
#    z 0.000000 0.000000 1.641910 
# 
# From -- ./inp_files/7991.got.cif
#   From: 2010.05.17/outbox.cif.g08.bks.cpg/sg134_4_cif.got.tgz:7991.got - 2010.05.20 12:42:49.
