data_PCOD9568641
_publ_section_title
;
Structure prediction by ZEFSAII (Michael W. Deem and Ramdas Pophale) SiO2 
 PCOD9568641
Probable space group: P 42/M B C
;
_chemical_formula_sum "Si O2"
_cell_formula_units_Z 96
_cell_length_a 24.351595
_cell_length_b 24.351595
_cell_length_c 8.858977
_cell_angle_alpha 90.000000
_cell_angle_beta 90.000000
_cell_angle_gamma 90.000000
_cell_volume 5253.374947
_symmetry_space_group_name_H-M "P 42/M B C"
_symmetry_group_IT_number 135
_symmetry_cell_setting 'tetragonal'
loop_
_space_group_symop_operation_xyz
x,y,z
-y,x,1/2+z
-x,-y,z
y,-x,1/2+z
1/2+x,1/2-y,-z
1/2-x,1/2+y,-z
1/2+y,1/2+x,1/2-z
1/2-y,1/2-x,1/2-z
-x,-y,-z
y,-x,1/2-z
x,y,-z
-y,x,1/2-z
1/2-x,1/2+y,z
1/2+x,1/2-y,z
1/2-y,1/2-x,1/2+z
1/2+y,1/2+x,1/2+z
loop_
_atom_site_type_symbol
_atom_site_label
_atom_site_fract_x
_atom_site_fract_y
_atom_site_fract_z
Si Si1 0.345943 0.930996 0.819745
Si Si2 0.641883 0.942797 0.820128
Si Si3 0.637699 0.648191 0.674115
Si Si4 0.738041 0.432093 0.319427
Si Si5 0.433229 0.537472 0.168687
Si Si6 0.725722 0.557262 0.682654
O O1 0.385996 0.885996 0.750000
O O2 0.285681 0.928555 0.745991
O O3 0.367923 0.992621 0.789485
O O4 0.341528 0.924079 0.000000
O O5 0.595443 0.904558 0.750000
O O6 0.701232 0.929026 0.749907
O O7 0.644183 0.935216 0.000000
O O8 0.651595 0.662336 0.500000
O O9 0.619493 0.701858 0.764960
O O10 0.581330 0.614025 0.673916
O O11 0.683017 0.604645 0.732625
O O12 0.740802 0.432055 0.500000
O O13 0.714893 0.493209 0.273028
O O14 0.489447 0.569207 0.209236
O O15 0.435655 0.513883 0.000000
O O16 0.725462 0.558290 0.500000
#
# Coordination Sequence:
#
# PCOD9568641 Si02
#       6
#    16  16  16  16  16  16
#     4  10  21  37  59  86 114 143 175 214 262 317
#     4  10  21  38  60  86 115 145 177 214 261 317
#     4  10  20  33  50  73 102 139 183 228 271 320
#     4  10  20  35  56  80 108 144 184 227 275 323
#     4  10  19  30  44  65  95 130 171 222 279 330
#     4   9  19  36  55  76 107 145 183 225 273 322
#
# _framework density 18.273966999999999
#
# number of rings (size 3 to 8) (size 9 to 14) (size 15 to 20)
#    0.000    2.167    0.000    3.500    0.000    6.333 
#    0.000    2.500    0.000    4.000    0.000    0.000 
#    0.000    0.000    0.000    0.000    0.000    0.000 
#
# Total GULP energy -535330.423759 kJ/mol
# GULP energy per Si atom -5576.358581 kJ/mol
# Density = 1.823237 g / cm^3
# Si number density = 18.273967 Si / 1000 Ang^3
#
#
#
# Elastic Constant Matrix: (Units=GPa)
#
#
# Indices 1 2 3 4 5 6 
#
# 1 75.3983 68.6636 31.4796 0.0000 0.0000 0.0000
# 2 68.6636 75.3952 31.4795 0.0000 0.0000 0.0000
# 3 31.4796 31.4795 40.4721 0.0000 0.0000 0.0000
# 4 0.0000 0.0000 0.0000 24.9567 0.0000 0.0000
# 5 0.0000 0.0000 0.0000 0.0000 24.9566 0.0000
# 6 0.0000 0.0000 0.0000 0.0000 0.0000 39.4598
#
#
#
# Elastic Compliance Matrix: (Units=1/GPa)
#
#
# Indices 1 2 3 4 5 6 
#
# 1 0.079516 -0.069002 -0.008178 0.000000 0.000000 0.000000
# 2 -0.069002 0.079520 -0.008181 0.000000 0.000000 0.000000
# 3 -0.008178 -0.008181 0.037433 0.000000 0.000000 0.000000
# 4 0.000000 0.000000 0.000000 0.040069 0.000000 0.000000
# 5 0.000000 0.000000 0.000000 0.000000 0.040070 0.000000
# 6 0.000000 0.000000 0.000000 0.000000 0.000000 0.025342
#
#
# Mechanical properties :
#
#
# Convention : Reuss Voigt Hill
#
# Bulk Modulus (GPa) = 38.83985 50.50122 44.67053
# Shear Modulus (GPa) = 10.38951 21.85081 16.12016
#
# Velocity S-wave (km/s) = 2.38700 3.46169 2.97330
# Velocity P-wave (km/s) = 5.37563 6.60858 6.02373
#
# Compressibility (1/GPa) = 0.02574676
#
# Stress axis : x y z
#
# Youngs Moduli (GPa) = 12.57613 12.57538 26.71449
#
# Poissons Ratio (x) = 0.86772 0.21847
# Poissons Ratio (y) = 0.86778 0.21856
# Poissons Ratio (z) = 0.10285 0.10288
#
# Static dielectric constant tensor:
#      x y z
#    x 1.628580 0.000000 0.000000 
#    y 0.000000 1.628580 0.000000 
#    z 0.000000 0.000000 1.629420 
# 
# From -- ./inp_files/1246.got.cif
#   From: 2010.05.17/outbox.cif.g08.bks.cpg/sg135_1_cif.got.tgz:1246.got - 2010.05.20 12:50:20.
