data_PCOD9568930
_publ_section_title
;
Structure prediction by ZEFSAII (Michael W. Deem and Ramdas Pophale) SiO2 
 PCOD9568930
Probable space group: P 42/M B C
;
_chemical_formula_sum "Si O2"
_cell_formula_units_Z 84
_cell_length_a 12.453464
_cell_length_b 12.453464
_cell_length_c 24.907392
_cell_angle_alpha 90.000000
_cell_angle_beta 90.000000
_cell_angle_gamma 90.000000
_cell_volume 3862.856680
_symmetry_space_group_name_H-M "P 42/M B C"
_symmetry_group_IT_number 135
_symmetry_cell_setting 'tetragonal'
loop_
_space_group_symop_operation_xyz
x,y,z
-y,x,1/2+z
-x,-y,z
y,-x,1/2+z
1/2+x,1/2-y,-z
1/2-x,1/2+y,-z
1/2+y,1/2+x,1/2-z
1/2-y,1/2-x,1/2-z
-x,-y,-z
y,-x,1/2-z
x,y,-z
-y,x,1/2-z
1/2-x,1/2+y,z
1/2+x,1/2-y,z
1/2-y,1/2-x,1/2+z
1/2+y,1/2+x,1/2+z
loop_
_atom_site_type_symbol
_atom_site_label
_atom_site_fract_x
_atom_site_fract_y
_atom_site_fract_z
Si Si1 0.326169 0.458038 0.439986
Si Si2 0.500000 0.500000 0.750000
Si Si3 0.993343 0.663940 0.654913
Si Si4 0.383193 0.287803 0.748715
Si Si5 0.494792 0.173866 0.846859
Si Si6 0.458347 0.678391 0.560594
O O1 0.281203 0.446621 0.500000
O O2 0.241322 0.449791 0.393304
O O3 0.422897 0.373538 0.434284
O O4 0.378991 0.576611 0.435434
O O5 0.404086 0.412972 0.736959
O O6 0.051304 0.727608 0.702102
O O7 0.088724 0.591352 0.629895
O O8 0.945090 0.740240 0.609270
O O9 0.902537 0.585535 0.678241
O O10 0.262664 0.237337 0.750000
O O11 0.433339 0.250013 0.805411
O O12 0.447527 0.723283 0.500000
#
# Coordination Sequence:
#
# PCOD9568930 Si02
#       6
#    16   4  16  16  16  16
#     4   9  20  38  59  85 120 160 208 270 330 390
#     4  12  28  44  76 104 126 188 236 260 324 410
#     4  10  22  40  62  88 126 171 210 264 333 395
#     4  10  25  45  65  99 136 168 216 274 324 386
#     4  10  22  40  62  88 126 171 210 264 333 395
#     4   9  20  38  59  85 120 160 208 270 330 390
#
# _framework density 21.745567000000001
#
# number of rings (size 3 to 8) (size 9 to 14) (size 15 to 20)
#    0.000    2.286    0.000    1.714    5.333    6.857 
#    0.000    5.714    0.000    0.000    0.000    0.000 
#    0.000    0.000    0.000    0.000    0.000    0.000 
#
# Total GULP energy -468388.716115 kJ/mol
# GULP energy per Si atom -5576.056144 kJ/mol
# Density = 2.169607 g / cm^3
# Si number density = 21.745567 Si / 1000 Ang^3
#
#
#
# Elastic Constant Matrix: (Units=GPa)
#
#
# Indices 1 2 3 4 5 6 
#
# 1 67.4226 10.7726 6.2753 0.0000 0.0000 0.0000
# 2 10.7726 67.4214 6.2748 0.0000 0.0000 0.0000
# 3 6.2753 6.2748 54.5309 0.0000 0.0000 0.0000
# 4 0.0000 0.0000 0.0000 54.6373 0.0000 0.0000
# 5 0.0000 0.0000 0.0000 0.0000 54.6348 0.0000
# 6 0.0000 0.0000 0.0000 0.0000 0.0000 19.9270
#
#
#
# Elastic Compliance Matrix: (Units=1/GPa)
#
#
# Indices 1 2 3 4 5 6 
#
# 1 0.015341 -0.002312 -0.001499 0.000000 0.000000 0.000000
# 2 -0.002312 0.015341 -0.001499 0.000000 0.000000 0.000000
# 3 -0.001499 -0.001499 0.018683 0.000000 0.000000 0.000000
# 4 0.000000 0.000000 0.000000 0.018303 0.000000 0.000000
# 5 0.000000 0.000000 0.000000 0.000000 0.018303 0.000000
# 6 0.000000 0.000000 0.000000 0.000000 0.000000 0.050183
#
#
# Mechanical properties :
#
#
# Convention : Reuss Voigt Hill
#
# Bulk Modulus (GPa) = 25.81008 26.22445 26.01727
# Shear Modulus (GPa) = 31.31078 36.90995 34.11036
#
# Velocity S-wave (km/s) = 3.79868 4.12437 3.96487
# Velocity P-wave (km/s) = 5.57986 5.89630 5.74026
#
# Compressibility (1/GPa) = 0.03874455
#
# Stress axis : x y z
#
# Youngs Moduli (GPa) = 65.18604 65.18491 53.52374
#
# Poissons Ratio (x) = 0.15068 0.08025
# Poissons Ratio (y) = 0.15068 0.08025
# Poissons Ratio (z) = 0.09774 0.09773
#
# Static dielectric constant tensor:
#      x y z
#    x 1.813400 0.000000 0.000000 
#    y 0.000000 1.813400 0.000000 
#    z 0.000000 0.000000 1.765480 
# 
# From -- ./inp_files/6767.got.cif
#   From: 2010.05.17/outbox.cif.g08.bks.cpg/sg135_4_cif.got.tgz:6767.got - 2010.05.20 12:50:20.
