data_PCOD9568956
_publ_section_title
;
Structure prediction by ZEFSAII (Michael W. Deem and Ramdas Pophale) SiO2 
 PCOD9568956
Probable space group: P 42/M B C
;
_chemical_formula_sum "Si O2"
_cell_formula_units_Z 112
_cell_length_a 15.497231
_cell_length_b 15.497231
_cell_length_c 23.197134
_cell_angle_alpha 90.000000
_cell_angle_beta 90.000000
_cell_angle_gamma 90.000000
_cell_volume 5571.120403
_symmetry_space_group_name_H-M "P 42/M B C"
_symmetry_group_IT_number 135
_symmetry_cell_setting 'tetragonal'
loop_
_space_group_symop_operation_xyz
x,y,z
-y,x,1/2+z
-x,-y,z
y,-x,1/2+z
1/2+x,1/2-y,-z
1/2-x,1/2+y,-z
1/2+y,1/2+x,1/2-z
1/2-y,1/2-x,1/2-z
-x,-y,-z
y,-x,1/2-z
x,y,-z
-y,x,1/2-z
1/2-x,1/2+y,z
1/2+x,1/2-y,z
1/2-y,1/2-x,1/2+z
1/2+y,1/2+x,1/2+z
loop_
_atom_site_type_symbol
_atom_site_label
_atom_site_fract_x
_atom_site_fract_y
_atom_site_fract_z
Si Si1 0.756914 0.558453 0.158302
Si Si2 0.918016 0.439656 0.817776
Si Si3 0.912612 0.949627 0.829938
Si Si4 0.823816 0.051746 0.565994
Si Si5 0.683952 0.325407 0.737276
Si Si6 0.738365 0.893142 0.623571
Si Si7 0.293515 0.779807 0.567720
O O1 0.829882 0.488340 0.167664
O O2 0.663152 0.515782 0.153920
O O3 0.748229 0.619353 0.214298
O O4 0.778455 0.618422 0.103992
O O5 0.918030 0.418030 0.750000
O O6 0.922900 0.354802 0.856081
O O7 0.000000 0.500000 0.828800
O O8 0.936744 0.897725 0.887153
O O9 0.866208 0.882691 0.784837
O O10 0.000000 0.000000 0.811152
O O11 0.853969 0.055021 0.500000
O O12 0.756414 0.130207 0.574785
O O13 0.778687 0.961232 0.579993
O O14 0.773318 0.273318 0.750000
O O15 0.705575 0.385434 0.682273
O O16 0.738452 0.798437 0.595207
O O17 0.307619 0.765096 0.500000
#
# Coordination Sequence:
#
# PCOD9568956 Si02
#       7
#    16  16  16  16  16  16  16
#     4  11  24  40  63  96 132 170 213 277 340 394
#     4  11  24  38  62  94 131 172 212 267 334 401
#     4  12  26  40  64  98 134 172 222 280 342 415
#     4  11  25  44  68  92 127 179 224 275 337 404
#     4  11  25  41  66  93 134 179 218 269 340 411
#     4  11  22  43  64  92 130 169 224 272 327 407
#     4  10  22  43  68  92 122 171 227 272 330 400
#
# _framework density 20.103677000000001
#
# number of rings (size 3 to 8) (size 9 to 14) (size 15 to 20)
#    0.000    1.000    0.000    7.714    8.000    0.857 
#    0.000    1.429    0.000    3.857    0.000    0.000 
#    0.000    0.000    0.000    0.000    0.000    0.000 
#
# Total GULP energy -626260.017374 kJ/mol
# GULP energy per Si atom -5591.607298 kJ/mol
# Density = 2.005792 g / cm^3
# Si number density = 20.103677 Si / 1000 Ang^3
#
#
#
# Elastic Constant Matrix: (Units=GPa)
#
#
# Indices 1 2 3 4 5 6 
#
# 1 100.4092 16.2730 37.6309 0.0000 0.0000 0.0000
# 2 16.2730 100.4092 37.6309 0.0000 0.0000 0.0000
# 3 37.6309 37.6309 118.4354 0.0000 0.0000 0.0000
# 4 0.0000 0.0000 0.0000 2.4564 0.0000 0.0000
# 5 0.0000 0.0000 0.0000 0.0000 2.4564 0.0000
# 6 0.0000 0.0000 0.0000 0.0000 0.0000 33.9773
#
#
#
# Elastic Compliance Matrix: (Units=1/GPa)
#
#
# Indices 1 2 3 4 5 6 
#
# 1 0.011332 -0.000553 -0.003425 0.000000 0.000000 0.000000
# 2 -0.000553 0.011332 -0.003425 0.000000 0.000000 0.000000
# 3 -0.003425 -0.003425 0.010620 0.000000 0.000000 0.000000
# 4 0.000000 0.000000 0.000000 0.407096 0.000000 0.000000
# 5 0.000000 0.000000 0.000000 0.000000 0.407096 0.000000
# 6 0.000000 0.000000 0.000000 0.000000 0.000000 0.029431
#
#
# Mechanical properties :
#
#
# Convention : Reuss Voigt Hill
#
# Bulk Modulus (GPa) = 54.11596 55.81369 54.96482
# Shear Modulus (GPa) = 5.56872 22.95929 14.26400
#
# Velocity S-wave (km/s) = 1.66614 3.38308 2.66658
# Velocity P-wave (km/s) = 5.53879 6.56380 6.07296
#
# Compressibility (1/GPa) = 0.01847884
#
# Stress axis : x y z
#
# Youngs Moduli (GPa) = 88.24196 88.24196 94.16292
#
# Poissons Ratio (x) = 0.04880 0.32251
# Poissons Ratio (y) = 0.04880 0.32251
# Poissons Ratio (z) = 0.30223 0.30223
#
# Static dielectric constant tensor:
#      x y z
#    x 1.727080 0.000000 0.000000 
#    y 0.000000 1.727080 0.000000 
#    z 0.000000 0.000000 1.693130 
# 
# From -- ./inp_files/6126.got.cif
#   From: 2010.05.17/outbox.cif.g08.bks.cpg/sg135_4_cif.got.tgz:6126.got - 2010.05.20 12:50:20.
