data_PCOD9568284
_publ_section_title
;
Structure prediction by ZEFSAII (Michael W. Deem and Ramdas Pophale) SiO2 
 PCOD9568284
Probable space group: P 42/N N M
;
_chemical_formula_sum "Si O2"
_cell_formula_units_Z 112
_cell_length_a 14.476784
_cell_length_b 14.476784
_cell_length_c 27.275103
_cell_angle_alpha 90.000000
_cell_angle_beta 90.000000
_cell_angle_gamma 90.000000
_cell_volume 5716.241762
_symmetry_space_group_name_H-M "P 42/N N M"
_symmetry_group_IT_number 134
_space_group.IT_coordinate_system_code '2'
_symmetry_cell_setting 'tetragonal'
loop_
_space_group_symop_operation_xyz
x,y,z
1/2-y,x,1/2+z
1/2-x,1/2-y,z
y,1/2-x,1/2+z
x,1/2-y,1/2-z
1/2-x,y,1/2-z
y,x,-z
1/2-y,1/2-x,-z
-x,-y,-z
1/2+y,-x,1/2-z
1/2+x,1/2+y,-z
-y,1/2+x,1/2-z
-x,1/2+y,1/2+z
1/2+x,-y,1/2+z
-y,-x,z
1/2+y,1/2+x,z
loop_
_atom_site_type_symbol
_atom_site_label
_atom_site_fract_x
_atom_site_fract_y
_atom_site_fract_z
Si Si1 0.703468 0.052820 0.299192
Si Si2 0.911550 0.933232 0.760152
Si Si3 0.834486 0.491140 0.109990
Si Si4 0.096418 0.750526 0.516724
Si Si5 0.330647 0.985025 0.357423
Si Si6 0.125859 0.468865 0.151558
Si Si7 0.468639 0.375833 0.957508
O O1 0.750000 0.092213 0.250000
O O2 0.623449 0.123449 0.316086
O O3 0.775002 0.033019 0.342103
O O4 0.658680 0.956762 0.281459
O O5 0.866335 0.928161 0.706888
O O6 0.852215 0.978459 0.803175
O O7 0.999302 0.000699 0.752862
O O8 0.915437 0.415437 0.107598
O O9 0.774806 0.471151 0.061694
O O10 0.885811 0.588981 0.117153
O O11 0.160602 0.839399 0.504679
O O12 0.168647 0.668647 0.530628
O O13 0.033673 0.709631 0.473518
O O14 0.390318 0.890318 0.363839
O O15 0.363969 0.055172 0.400409
O O16 0.221039 0.982361 0.362289
O O17 0.046748 0.546748 0.151587
O O18 0.534435 0.465566 0.957756
O O19 0.393743 0.393743 0.000000
#
# Coordination Sequence:
#
# PCOD9568284 Si02
#       7
#    16  16  16  16  16  16  16
#     4  11  20  31  52  80 112 150 191 230 269 324
#     4   9  19  35  54  79 113 150 183 223 280 337
#     4  10  20  34  52  80 116 154 186 219 277 341
#     4   9  18  33  55  82 113 148 186 230 274 328
#     4  10  21  37  60  84 103 139 192 237 284 340
#     4  10  20  37  57  80 115 148 179 229 286 339
#     4   9  19  35  57  85 113 142 183 237 292 339
#
# _framework density 19.593294
#
# number of rings (size 3 to 8) (size 9 to 14) (size 15 to 20)
#    0.000    2.286    1.429    1.286    2.000    2.429 
#    0.000    2.857    0.000    6.000    0.000    0.000 
#    0.000    0.000    0.000    0.000    0.000    0.000 
#
# Total GULP energy -623940.324017 kJ/mol
# GULP energy per Si atom -5570.895750 kJ/mol
# Density = 1.954870 g / cm^3
# Si number density = 19.593294 Si / 1000 Ang^3
#
#
#
# Elastic Constant Matrix: (Units=GPa)
#
#
# Indices 1 2 3 4 5 6 
#
# 1 37.9374 11.9014 4.0534 0.0000 0.0000 0.0000
# 2 11.9014 37.9374 4.0534 0.0000 0.0000 0.0000
# 3 4.0534 4.0534 48.0064 0.0000 0.0000 0.0000
# 4 0.0000 0.0000 0.0000 -0.5717 0.0000 0.0000
# 5 0.0000 0.0000 0.0000 0.0000 -0.5717 0.0000
# 6 0.0000 0.0000 0.0000 0.0000 0.0000 6.3993
#
#
#
# Elastic Compliance Matrix: (Units=1/GPa)
#
#
# Indices 1 2 3 4 5 6 
#
# 1 0.029376 -0.009032 -0.001718 0.000000 0.000000 0.000000
# 2 -0.009032 0.029376 -0.001718 0.000000 0.000000 0.000000
# 3 -0.001718 -0.001718 0.021121 0.000000 0.000000 0.000000
# 4 0.000000 0.000000 0.000000 -1.749130 0.000000 0.000000
# 5 0.000000 0.000000 0.000000 0.000000 -1.749130 0.000000
# 6 0.000000 0.000000 0.000000 0.000000 0.000000 0.156267
#
#
# Mechanical properties :
#
#
# Convention : Reuss Voigt Hill
#
# Bulk Modulus (GPa) = 18.20241 18.21086 18.20664
# Shear Modulus (GPa) = -1.55334 7.97605 3.21135
#
# Velocity S-wave (km/s) = -0.89135 2.01981 1.28163
# Velocity P-wave (km/s) = 2.87244 3.84111 3.39154
#
# Compressibility (1/GPa) = 0.05493779
#
# Stress axis : x y z
#
# Youngs Moduli (GPa) = 34.04118 34.04118 47.34706
#
# Poissons Ratio (x) = 0.30746 0.08133
# Poissons Ratio (y) = 0.30746 0.08133
# Poissons Ratio (z) = 0.05847 0.05847
#
# Static dielectric constant tensor:
#      x y z
#    x 1.702380 0.000000 0.000000 
#    y 0.000000 1.702380 0.000000 
#    z 0.000000 0.000000 1.715930 
# 
# From -- ./inp_files/10133.got.cif
#   From: 2010.05.17/outbox.cif.g08.bks.cpg/sg134_6_cif.got.tgz:10133.got - 2010.05.20 12:42:49.
