data_PCOD9568012
_publ_section_title
;
Structure prediction by ZEFSAII (Michael W. Deem and Ramdas Pophale) SiO2 
 PCOD9568012
Probable space group: P 42/N B C
;
_chemical_formula_sum "Si O2"
_cell_formula_units_Z 48
_cell_length_a 16.345108
_cell_length_b 16.345108
_cell_length_c 8.174326
_cell_angle_alpha 90.000000
_cell_angle_beta 90.000000
_cell_angle_gamma 90.000000
_cell_volume 2183.873824
_symmetry_space_group_name_H-M "P 42/N B C"
_symmetry_group_IT_number 133
_space_group.IT_coordinate_system_code '2'
_symmetry_cell_setting 'tetragonal'
loop_
_space_group_symop_operation_xyz
x,y,z
1/2-y,x,1/2+z
1/2-x,1/2-y,z
y,1/2-x,1/2+z
x,1/2-y,-z
1/2-x,y,-z
y,x,1/2-z
1/2-y,1/2-x,1/2-z
-x,-y,-z
1/2+y,-x,1/2-z
1/2+x,1/2+y,-z
-y,1/2+x,1/2-z
-x,1/2+y,z
1/2+x,-y,z
-y,-x,1/2+z
1/2+y,1/2+x,1/2+z
loop_
_atom_site_type_symbol
_atom_site_label
_atom_site_fract_x
_atom_site_fract_y
_atom_site_fract_z
Si Si1 0.488481 0.662572 0.920021
Si Si2 0.162800 0.379549 0.068411
Si Si3 0.058212 0.836570 0.539472
O O1 0.471596 0.662788 0.726777
O O2 0.473644 0.750000 0.000000
O O3 0.582655 0.641232 0.961579
O O4 0.420474 0.604056 0.000529
O O5 0.152698 0.347303 0.250000
O O6 0.250000 0.351337 0.000000
O O7 0.165646 0.477903 0.073689
O O8 0.103208 0.750000 0.500000
#
# Coordination Sequence:
#
# PCOD9568012 Si02
#       3
#    16  16  16
#     4  12  24  43  68  99 137 176 220 278 336 400
#     4  11  24  45  69  97 132 178 227 277 334 399
#     4  11  24  44  69 100 132 176 226 276 335 399
#
# _framework density 21.979291
#
# number of rings (size 3 to 8) (size 9 to 14) (size 15 to 20)
#    0.000    0.667    0.000   10.000    0.000    1.333 
#    0.000   10.000    0.000    0.000    0.000    0.000 
#    0.000    0.000    0.000    0.000    0.000    0.000 
#
# Total GULP energy -268712.741121 kJ/mol
# GULP energy per Si atom -5598.182107 kJ/mol
# Density = 2.192927 g / cm^3
# Si number density = 21.979291 Si / 1000 Ang^3
#
#
#
# Elastic Constant Matrix: (Units=GPa)
#
#
# Indices 1 2 3 4 5 6 
#
# 1 135.0264 95.2750 75.9888 0.0000 0.0000 0.0000
# 2 95.2750 135.0267 75.9882 0.0000 0.0000 0.0000
# 3 75.9888 75.9882 129.8878 0.0000 0.0000 0.0000
# 4 0.0000 0.0000 0.0000 51.7473 0.0000 0.0000
# 5 0.0000 0.0000 0.0000 0.0000 51.7446 0.0000
# 6 0.0000 0.0000 0.0000 0.0000 0.0000 494.9957
#
#
#
# Elastic Compliance Matrix: (Units=1/GPa)
#
#
# Indices 1 2 3 4 5 6 
#
# 1 0.016115 -0.009042 -0.004138 0.000000 0.000000 0.000000
# 2 -0.009042 0.016114 -0.004138 0.000000 0.000000 0.000000
# 3 -0.004138 -0.004138 0.012540 0.000000 0.000000 0.000000
# 4 0.000000 0.000000 0.000000 0.019325 0.000000 0.000000
# 5 0.000000 0.000000 0.000000 0.000000 0.019326 0.000000
# 6 0.000000 0.000000 0.000000 0.000000 0.000000 0.002020
#
#
# Mechanical properties :
#
#
# Convention : Reuss Voigt Hill
#
# Bulk Modulus (GPa) = 98.67047 99.38277 99.02662
# Shear Modulus (GPa) = 40.50139 129.87678 85.18909
#
# Velocity S-wave (km/s) = 4.29733 7.69538 6.23241
# Velocity P-wave (km/s) = 8.34342 11.14779 9.84596
#
# Compressibility (1/GPa) = 0.01013474
#
# Stress axis : x y z
#
# Youngs Moduli (GPa) = 62.05574 62.05647 79.74264
#
# Poissons Ratio (x) = 0.56110 0.32996
# Poissons Ratio (y) = 0.56110 0.32994
# Poissons Ratio (z) = 0.25678 0.25676
#
# Static dielectric constant tensor:
#      x y z
#    x 1.854710 0.000000 0.000000 
#    y 0.000000 1.854710 0.000000 
#    z 0.000000 0.000000 1.751860 
# 
# From -- ./inp_files/1091.got.cif
#   From: 2010.05.17/outbox.cif.g08.bks.cpg/sg133_1_cif.got.tgz:1091.got - 2010.05.20 12:37:36.
