data_PCOD9568643
_publ_section_title
;
Structure prediction by ZEFSAII (Michael W. Deem and Ramdas Pophale) SiO2 
 PCOD9568643
Probable space group: P 42/M B C
;
_chemical_formula_sum "Si O2"
_cell_formula_units_Z 96
_cell_length_a 26.025156
_cell_length_b 26.025156
_cell_length_c 8.782932
_cell_angle_alpha 90.000000
_cell_angle_beta 90.000000
_cell_angle_gamma 90.000000
_cell_volume 5948.756649
_symmetry_space_group_name_H-M "P 42/M B C"
_symmetry_group_IT_number 135
_symmetry_cell_setting 'tetragonal'
loop_
_space_group_symop_operation_xyz
x,y,z
-y,x,1/2+z
-x,-y,z
y,-x,1/2+z
1/2+x,1/2-y,-z
1/2-x,1/2+y,-z
1/2+y,1/2+x,1/2-z
1/2-y,1/2-x,1/2-z
-x,-y,-z
y,-x,1/2-z
x,y,-z
-y,x,1/2-z
1/2-x,1/2+y,z
1/2+x,1/2-y,z
1/2-y,1/2-x,1/2+z
1/2+y,1/2+x,1/2+z
loop_
_atom_site_type_symbol
_atom_site_label
_atom_site_fract_x
_atom_site_fract_y
_atom_site_fract_z
Si Si1 0.442186 0.871178 0.673273
Si Si2 0.165766 0.744411 0.818975
Si Si3 0.453497 0.125693 0.819804
Si Si4 0.239372 0.556054 0.183775
Si Si5 0.555701 0.252260 0.325719
Si Si6 0.330694 0.752226 0.682447
O O1 0.390623 0.890623 0.750000
O O2 0.446729 0.889199 0.500000
O O3 0.489323 0.891112 0.773442
O O4 0.444406 0.809776 0.670619
O O5 0.193424 0.693424 0.750000
O O6 0.110770 0.758186 0.746360
O O7 0.205617 0.790978 0.792120
O O8 0.159806 0.736837 0.000000
O O9 0.413164 0.086837 0.750000
O O10 0.445506 0.180917 0.742609
O O11 0.447908 0.129891 0.000000
O O12 0.265031 0.501591 0.236799
O O13 0.240219 0.555803 0.000000
O O14 0.556572 0.272010 0.500000
O O15 0.612296 0.262540 0.256947
O O16 0.302601 0.802601 0.750000
O O17 0.335786 0.760312 0.500000
#
# Coordination Sequence:
#
# PCOD9568643 Si02
#       6
#    16  16  16  16  16  16
#     4  10  19  31  45  62  82 107 141 179 221 264
#     4  10  19  30  46  68  94 122 152 185 222 266
#     4  11  21  33  46  60  79 105 141 182 224 264
#     4  10  19  32  48  65  88 116 147 181 219 265
#     4   8  16  30  47  65  86 114 146 180 218 263
#     4   9  17  30  47  68  93 120 150 183 222 266
#
# _framework density 16.137827000000001
#
# number of rings (size 3 to 8) (size 9 to 14) (size 15 to 20)
#    0.000    2.333    0.000    5.000    0.000    1.000 
#    0.000    5.833    0.000    0.000    0.000    0.000 
#    0.000    0.667    0.000    8.333    0.000    0.000 
#
# Total GULP energy -534538.934840 kJ/mol
# GULP energy per Si atom -5568.113905 kJ/mol
# Density = 1.610110 g / cm^3
# Si number density = 16.137827 Si / 1000 Ang^3
#
#
#
# Elastic Constant Matrix: (Units=GPa)
#
#
# Indices 1 2 3 4 5 6 
#
# 1 81.3793 16.8352 26.2439 0.0000 0.0000 0.0000
# 2 16.8352 81.3790 26.2440 0.0000 0.0000 0.0000
# 3 26.2439 26.2440 52.2118 0.0000 0.0000 0.0000
# 4 0.0000 0.0000 0.0000 13.2713 0.0000 0.0000
# 5 0.0000 0.0000 0.0000 0.0000 13.2721 0.0000
# 6 0.0000 0.0000 0.0000 0.0000 0.0000 19.0996
#
#
#
# Elastic Compliance Matrix: (Units=1/GPa)
#
#
# Indices 1 2 3 4 5 6 
#
# 1 0.014707 -0.000786 -0.006997 0.000000 0.000000 0.000000
# 2 -0.000786 0.014707 -0.006998 0.000000 0.000000 0.000000
# 3 -0.006997 -0.006998 0.026187 0.000000 0.000000 0.000000
# 4 0.000000 0.000000 0.000000 0.075351 0.000000 0.000000
# 5 0.000000 0.000000 0.000000 0.000000 0.075346 0.000000
# 6 0.000000 0.000000 0.000000 0.000000 0.000000 0.052357
#
#
# Mechanical properties :
#
#
# Convention : Reuss Voigt Hill
#
# Bulk Modulus (GPa) = 38.40239 39.29072 38.84655
# Shear Modulus (GPa) = 16.84083 18.83841 17.83962
#
# Velocity S-wave (km/s) = 3.23393 3.42035 3.32844
# Velocity P-wave (km/s) = 6.14756 6.32441 6.23662
#
# Compressibility (1/GPa) = 0.02604005
#
# Stress axis : x y z
#
# Youngs Moduli (GPa) = 67.99330 67.99286 38.18645
#
# Poissons Ratio (x) = 0.05344 0.26721
# Poissons Ratio (y) = 0.05344 0.26721
# Poissons Ratio (z) = 0.47578 0.47579
#
# Static dielectric constant tensor:
#      x y z
#    x 1.575340 0.000000 0.000000 
#    y 0.000000 1.575340 0.000000 
#    z 0.000000 0.000000 1.554420 
# 
# From -- ./inp_files/1348.got.cif
#   From: 2010.05.17/outbox.cif.g08.bks.cpg/sg135_1_cif.got.tgz:1348.got - 2010.05.20 12:50:20.
