data_PCOD9568363
_publ_section_title
;
Structure prediction by ZEFSAII (Michael W. Deem and Ramdas Pophale) SiO2 
 PCOD9568363
Probable space group: P 42/N N M
;
_chemical_formula_sum "Si O2"
_cell_formula_units_Z 88
_cell_length_a 11.436966
_cell_length_b 11.436966
_cell_length_c 29.681584
_cell_angle_alpha 90.000000
_cell_angle_beta 90.000000
_cell_angle_gamma 90.000000
_cell_volume 3882.475591
_symmetry_space_group_name_H-M "P 42/N N M"
_symmetry_group_IT_number 134
_space_group.IT_coordinate_system_code '2'
_symmetry_cell_setting 'tetragonal'
loop_
_space_group_symop_operation_xyz
x,y,z
1/2-y,x,1/2+z
1/2-x,1/2-y,z
y,1/2-x,1/2+z
x,1/2-y,1/2-z
1/2-x,y,1/2-z
y,x,-z
1/2-y,1/2-x,-z
-x,-y,-z
1/2+y,-x,1/2-z
1/2+x,1/2+y,-z
-y,1/2+x,1/2-z
-x,1/2+y,1/2+z
1/2+x,-y,1/2+z
-y,-x,z
1/2+y,1/2+x,z
loop_
_atom_site_type_symbol
_atom_site_label
_atom_site_fract_x
_atom_site_fract_y
_atom_site_fract_z
Si Si1 0.250000 0.250000 0.418296
Si Si2 0.216775 0.045843 0.474821
Si Si3 0.026625 0.329766 0.792676
Si Si4 0.434254 0.745295 0.117782
Si Si5 0.530212 0.664602 0.642671
Si Si6 0.589520 0.410481 0.022763
Si Si7 0.845545 0.345545 0.381553
O O1 0.294329 0.151104 0.453100
O O2 0.361380 0.295613 0.389698
O O3 0.108553 0.108553 0.500000
O O4 0.196783 0.982817 0.427273
O O5 0.283981 0.953618 0.505545
O O6 0.048844 0.250000 0.750000
O O7 0.128436 0.415534 0.809569
O O8 0.912267 0.412267 0.784531
O O9 0.011337 0.248395 0.837456
O O10 0.381405 0.618596 0.107177
O O11 0.329711 0.829711 0.131355
O O12 0.450447 0.549554 0.628130
O O13 0.441249 0.771598 0.644879
O O14 0.593614 0.406386 0.076147
O O15 0.500000 0.500000 0.000000
O O16 0.750000 0.250000 0.398898
#
# Coordination Sequence:
#
# PCOD9568363 Si02
#       7
#     8  16  16  16  16   8   8
#     4  12  23  42  69 100 138 194 245 302 367 420
#     4  12  24  38  59  89 131 183 244 295 342 412
#     4  10  20  38  68 104 139 175 223 287 361 439
#     4  10  21  39  61  92 135 177 221 281 355 425
#     4  10  22  42  70 106 143 189 245 297 360 439
#     4  12  24  38  58  90 130 186 248 298 340 409
#     4  10  22  42  66  98 148 200 246 296 355 427
#
# _framework density 22.665952000000001
#
# number of rings (size 3 to 8) (size 9 to 14) (size 15 to 20)
#    0.000    1.273    2.727    4.091    0.000    2.000 
#    0.000    0.455    0.000    1.636    2.364    0.000 
#    0.000    0.000    0.000    0.000    0.182    0.000 
#
# Total GULP energy -490696.694053 kJ/mol
# GULP energy per Si atom -5576.098796 kJ/mol
# Density = 2.261436 g / cm^3
# Si number density = 22.665952 Si / 1000 Ang^3
#
#
#
# Elastic Constant Matrix: (Units=GPa)
#
#
# Indices 1 2 3 4 5 6 
#
# 1 109.8400 77.7041 70.5396 0.0000 0.0000 0.0000
# 2 77.7041 109.8400 70.5396 0.0000 0.0000 0.0000
# 3 70.5396 70.5396 161.2084 0.0000 0.0000 0.0000
# 4 0.0000 0.0000 0.0000 31.7852 0.0000 0.0000
# 5 0.0000 0.0000 0.0000 0.0000 31.7852 0.0000
# 6 0.0000 0.0000 0.0000 0.0000 0.0000 42.1578
#
#
#
# Elastic Compliance Matrix: (Units=1/GPa)
#
#
# Indices 1 2 3 4 5 6 
#
# 1 0.019533 -0.011585 -0.003478 0.000000 0.000000 0.000000
# 2 -0.011585 0.019533 -0.003478 0.000000 0.000000 0.000000
# 3 -0.003478 -0.003478 0.009247 0.000000 0.000000 0.000000
# 4 0.000000 0.000000 0.000000 0.031461 0.000000 0.000000
# 5 0.000000 0.000000 0.000000 0.000000 0.031461 0.000000
# 6 0.000000 0.000000 0.000000 0.000000 0.000000 0.023720
#
#
# Mechanical properties :
#
#
# Convention : Reuss Voigt Hill
#
# Bulk Modulus (GPa) = 89.03330 90.93942 89.98636
# Shear Modulus (GPa) = 28.44449 31.95265 30.19857
#
# Velocity S-wave (km/s) = 3.54636 3.75870 3.65407
# Velocity P-wave (km/s) = 7.49232 7.68412 7.58883
#
# Compressibility (1/GPa) = 0.01123175
#
# Stress axis : x y z
#
# Youngs Moduli (GPa) = 51.19510 51.19510 108.14538
#
# Poissons Ratio (x) = 0.59308 0.37612
# Poissons Ratio (y) = 0.59308 0.37612
# Poissons Ratio (z) = 0.17805 0.17805
#
# Static dielectric constant tensor:
#      x y z
#    x 1.997840 0.000000 0.000000 
#    y 0.000000 1.997840 0.000000 
#    z 0.000000 0.000000 1.791800 
# 
# From -- ./inp_files/11513.got.cif
#   From: 2010.05.17/outbox.cif.g08.bks.cpg/sg134_6_cif.got.tgz:11513.got - 2010.05.20 12:42:49.
