data_PCOD9568868
_publ_section_title
;
Structure prediction by ZEFSAII (Michael W. Deem and Ramdas Pophale) SiO2 
 PCOD9568868
Probable space group: P 42/M B C
;
_chemical_formula_sum "Si O2"
_cell_formula_units_Z 96
_cell_length_a 24.522959
_cell_length_b 24.522959
_cell_length_c 8.947380
_cell_angle_alpha 90.000000
_cell_angle_beta 90.000000
_cell_angle_gamma 90.000000
_cell_volume 5380.735283
_symmetry_space_group_name_H-M "P 42/M B C"
_symmetry_group_IT_number 135
_symmetry_cell_setting 'tetragonal'
loop_
_space_group_symop_operation_xyz
x,y,z
-y,x,1/2+z
-x,-y,z
y,-x,1/2+z
1/2+x,1/2-y,-z
1/2-x,1/2+y,-z
1/2+y,1/2+x,1/2-z
1/2-y,1/2-x,1/2-z
-x,-y,-z
y,-x,1/2-z
x,y,-z
-y,x,1/2-z
1/2-x,1/2+y,z
1/2+x,1/2-y,z
1/2-y,1/2-x,1/2+z
1/2+y,1/2+x,1/2+z
loop_
_atom_site_type_symbol
_atom_site_label
_atom_site_fract_x
_atom_site_fract_y
_atom_site_fract_z
Si Si1 0.764122 0.502178 0.821033
Si Si2 0.809686 0.812335 0.176253
Si Si3 0.708396 0.128513 0.178203
Si Si4 0.701004 0.879298 0.179334
Si Si5 0.890843 0.888006 0.334341
Si Si6 0.850735 0.009315 0.667259
O O1 0.788139 0.563108 0.792461
O O2 0.793313 0.444080 0.786575
O O3 0.710570 0.500992 0.720563
O O4 0.751942 0.500612 0.000000
O O5 0.835645 0.759063 0.255859
O O6 0.752851 0.840993 0.228008
O O7 0.853780 0.858617 0.212678
O O8 0.804981 0.800774 0.000000
O O9 0.654738 0.154738 0.250000
O O10 0.708594 0.135620 0.000000
O O11 0.647860 0.852141 0.250000
O O12 0.699281 0.875061 0.000000
O O13 0.879081 0.864851 0.500000
O O14 0.952204 0.877797 0.288271
O O15 0.878737 0.951204 0.336082
O O16 0.852668 0.033075 0.500000
#
# Coordination Sequence:
#
# PCOD9568868 Si02
#       6
#    16  16  16  16  16  16
#     4  10  21  39  60  83 114 152 187 232 290 342
#     4  11  21  35  58  87 118 152 191 235 287 345
#     4  11  23  38  59  86 119 154 191 236 288 344
#     4  10  22  38  58  86 118 151 188 233 285 343
#     4  11  23  37  55  81 113 151 196 245 290 336
#     4  11  23  37  57  82 109 151 200 241 285 341
#
# _framework density 17.841428000000001
#
# number of rings (size 3 to 8) (size 9 to 14) (size 15 to 20)
#    0.000    1.333    3.333    2.500    0.000    6.333 
#    0.000    1.667    0.000    0.500    0.000    3.500 
#    0.000    0.000    0.000    0.000    0.000    0.000 
#
# Total GULP energy -535212.097781 kJ/mol
# GULP energy per Si atom -5575.126019 kJ/mol
# Density = 1.780082 g / cm^3
# Si number density = 17.841428 Si / 1000 Ang^3
#
#
#
# Elastic Constant Matrix: (Units=GPa)
#
#
# Indices 1 2 3 4 5 6 
#
# 1 151.5148 18.6128 44.1659 0.0000 0.0000 0.0000
# 2 18.6128 151.5161 44.1725 0.0000 0.0000 0.0000
# 3 44.1659 44.1725 44.2063 0.0000 0.0000 0.0000
# 4 0.0000 0.0000 0.0000 18.8540 0.0000 0.0000
# 5 0.0000 0.0000 0.0000 0.0000 18.8551 0.0000
# 6 0.0000 0.0000 0.0000 0.0000 0.0000 30.3725
#
#
#
# Elastic Compliance Matrix: (Units=1/GPa)
#
#
# Indices 1 2 3 4 5 6 
#
# 1 0.009869 0.002346 -0.012204 0.000000 0.000000 0.000000
# 2 0.002346 0.009870 -0.012206 0.000000 0.000000 0.000000
# 3 -0.012204 -0.012206 0.047011 0.000000 0.000000 0.000000
# 4 0.000000 0.000000 0.000000 0.053039 0.000000 0.000000
# 5 0.000000 0.000000 0.000000 0.000000 0.053036 0.000000
# 6 0.000000 0.000000 0.000000 0.000000 0.000000 0.032924
#
#
# Mechanical properties :
#
#
# Convention : Reuss Voigt Hill
#
# Bulk Modulus (GPa) = 44.20628 62.34887 53.27757
# Shear Modulus (GPa) = 19.42348 29.63539 24.52944
#
# Velocity S-wave (km/s) = 3.30308 4.08001 3.71193
# Velocity P-wave (km/s) = 6.27521 7.56421 6.94966
#
# Compressibility (1/GPa) = 0.02262122
#
# Stress axis : x y z
#
# Youngs Moduli (GPa) = 101.32424 101.31303 21.27160
#
# Poissons Ratio (x) = -0.23763 0.25960
# Poissons Ratio (y) = -0.23766 0.25965
# Poissons Ratio (z) = 1.23657 1.23665
#
# Static dielectric constant tensor:
#      x y z
#    x 1.607090 0.000000 0.000000 
#    y 0.000000 1.607090 0.000000 
#    z 0.000000 0.000000 1.609480 
# 
# From -- ./inp_files/1216.got.cif
#   From: 2010.05.17/outbox.cif.g08.bks.cpg/sg135_1_cif.got.tgz:1216.got - 2010.05.20 12:50:20.
