data_PCOD9568941
_publ_section_title
;
Structure prediction by ZEFSAII (Michael W. Deem and Ramdas Pophale) SiO2 
 PCOD9568941
Probable space group: P 42/M B C
;
_chemical_formula_sum "Si O2"
_cell_formula_units_Z 64
_cell_length_a 11.398320
_cell_length_b 11.398320
_cell_length_c 20.323872
_cell_angle_alpha 90.000000
_cell_angle_beta 90.000000
_cell_angle_gamma 90.000000
_cell_volume 2640.511977
_symmetry_space_group_name_H-M "P 42/M B C"
_symmetry_group_IT_number 135
_symmetry_cell_setting 'tetragonal'
loop_
_space_group_symop_operation_xyz
x,y,z
-y,x,1/2+z
-x,-y,z
y,-x,1/2+z
1/2+x,1/2-y,-z
1/2-x,1/2+y,-z
1/2+y,1/2+x,1/2-z
1/2-y,1/2-x,1/2-z
-x,-y,-z
y,-x,1/2-z
x,y,-z
-y,x,1/2-z
1/2-x,1/2+y,z
1/2+x,1/2-y,z
1/2-y,1/2-x,1/2+z
1/2+y,1/2+x,1/2+z
loop_
_atom_site_type_symbol
_atom_site_label
_atom_site_fract_x
_atom_site_fract_y
_atom_site_fract_z
Si Si1 0.093327 0.600720 0.114526
Si Si2 0.268309 0.288093 0.677998
Si Si3 0.025461 0.158178 0.075408
Si Si4 0.270712 0.420461 0.929204
O O1 0.169131 0.655445 0.173482
O O2 0.030674 0.709448 0.079042
O O3 0.195063 0.537797 0.072597
O O4 0.000000 0.500000 0.131190
O O5 0.210926 0.289075 0.750000
O O6 0.340499 0.393057 0.641601
O O7 0.161208 0.273855 0.628147
O O8 0.910334 0.074695 0.079916
O O9 0.073771 0.144679 0.000000
O O10 0.251579 0.363061 0.000000
#
# Coordination Sequence:
#
# PCOD9568941 Si02
#       4
#    16  16  16  16
#     4  11  23  42  70 103 134 185 238 285 357 427
#     4  11  25  42  64 101 141 183 236 295 353 427
#     4  10  22  43  70 102 140 181 235 297 351 417
#     4  10  22  41  67 103 139 180 234 292 348 413
#
# _framework density 24.237724
#
# number of rings (size 3 to 8) (size 9 to 14) (size 15 to 20)
#    0.000    1.500    2.500    1.500    0.000    9.500 
#    0.000    2.500    0.000    6.000    0.000    0.000 
#    0.000    0.000    0.000    0.000    0.000    0.000 
#
# Total GULP energy -357161.337368 kJ/mol
# GULP energy per Si atom -5580.645896 kJ/mol
# Density = 2.418256 g / cm^3
# Si number density = 24.237724 Si / 1000 Ang^3
#
#
#
# Elastic Constant Matrix: (Units=GPa)
#
#
# Indices 1 2 3 4 5 6 
#
# 1 96.8846 42.3509 42.3869 0.0000 0.0000 0.0000
# 2 42.3509 96.8845 42.3868 0.0000 0.0000 0.0000
# 3 42.3869 42.3868 214.9161 0.0000 0.0000 0.0000
# 4 0.0000 0.0000 0.0000 -32.1330 0.0000 0.0000
# 5 0.0000 0.0000 0.0000 0.0000 -32.1394 0.0000
# 6 0.0000 0.0000 0.0000 0.0000 0.0000 73.5989
#
#
#
# Elastic Compliance Matrix: (Units=1/GPa)
#
#
# Indices 1 2 3 4 5 6 
#
# 1 0.013250 -0.005088 -0.001610 0.000000 0.000000 0.000000
# 2 -0.005088 0.013250 -0.001610 0.000000 0.000000 0.000000
# 3 -0.001610 -0.001610 0.005288 0.000000 0.000000 0.000000
# 4 0.000000 0.000000 0.000000 -0.031121 0.000000 0.000000
# 5 0.000000 0.000000 0.000000 0.000000 -0.031114 0.000000
# 6 0.000000 0.000000 0.000000 0.000000 0.000000 0.013587
#
#
# Mechanical properties :
#
#
# Convention : Reuss Voigt Hill
#
# Bulk Modulus (GPa) = 65.90570 73.65940 69.78255
# Shear Modulus (GPa) = 1039.16540 20.63600 529.90070
#
# Velocity S-wave (km/s) = 20.72847 2.92104 14.80206
# Velocity P-wave (km/s) = 24.49782 6.46784 17.91614
#
# Compressibility (1/GPa) = 0.01517319
#
# Stress axis : x y z
#
# Youngs Moduli (GPa) = 75.47316 75.47306 189.10878
#
# Poissons Ratio (x) = 0.38397 0.30443
# Poissons Ratio (y) = 0.38397 0.30443
# Poissons Ratio (z) = 0.12150 0.12150
#
# Static dielectric constant tensor:
#      x y z
#    x 2.044160 0.000000 0.000000 
#    y 0.000000 2.044160 0.000000 
#    z 0.000000 0.000000 1.852930 
# 
# From -- ./inp_files/5069.got.cif
#   From: 2010.05.17/outbox.cif.g08.bks.cpg/sg135_3_cif.got.tgz:5069.got - 2010.05.20 12:50:20.
