data_PCOD9568250
_publ_section_title
;
Structure prediction by ZEFSAII (Michael W. Deem and Ramdas Pophale) SiO2 
 PCOD9568250
Probable space group: P 42/N N M
;
_chemical_formula_sum "Si O2"
_cell_formula_units_Z 56
_cell_length_a 19.597407
_cell_length_b 19.597407
_cell_length_c 8.019599
_cell_angle_alpha 90.000000
_cell_angle_beta 90.000000
_cell_angle_gamma 90.000000
_cell_volume 3079.994049
_symmetry_space_group_name_H-M "P 42/N N M"
_symmetry_group_IT_number 134
_space_group.IT_coordinate_system_code '2'
_symmetry_cell_setting 'tetragonal'
loop_
_space_group_symop_operation_xyz
x,y,z
1/2-y,x,1/2+z
1/2-x,1/2-y,z
y,1/2-x,1/2+z
x,1/2-y,1/2-z
1/2-x,y,1/2-z
y,x,-z
1/2-y,1/2-x,-z
-x,-y,-z
1/2+y,-x,1/2-z
1/2+x,1/2+y,-z
-y,1/2+x,1/2-z
-x,1/2+y,1/2+z
1/2+x,-y,1/2+z
-y,-x,z
1/2+y,1/2+x,z
loop_
_atom_site_type_symbol
_atom_site_label
_atom_site_fract_x
_atom_site_fract_y
_atom_site_fract_z
Si Si1 0.350520 0.536398 0.579690
Si Si2 0.492044 0.390171 0.077508
Si Si3 0.750000 0.358924 0.250000
Si Si4 0.059136 0.825446 0.228077
O O1 0.420500 0.579501 0.572583
O O2 0.358834 0.486869 0.737740
O O3 0.291890 0.591638 0.627863
O O4 0.338351 0.512112 0.391710
O O5 0.550730 0.449271 0.084920
O O6 0.426215 0.426215 0.000000
O O7 0.519594 0.335974 0.943951
O O8 0.807996 0.307996 0.325068
O O9 0.087189 0.750000 0.250000
O O10 0.119401 0.880600 0.232448
#
# Coordination Sequence:
#
# PCOD9568250 Si02
#       4
#    16  16   8  16
#     4   9  17  28  42  61  86 118 157 197 230 263
#     4   9  18  32  47  62  84 118 159 199 238 278
#     4   9  16  26  42  64  94 134 167 186 216 264
#     4  10  20  31  45  68  95 125 160 193 229 276
#
# _framework density 18.181854000000001
#
# number of rings (size 3 to 8) (size 9 to 14) (size 15 to 20)
#    0.000    2.714    0.000    1.714    0.000    4.857 
#    0.000    8.571    0.000    0.000    0.000    0.000 
#    0.000    0.000    0.000   37.286    0.000    6.571 
#
# Total GULP energy -311817.430306 kJ/mol
# GULP energy per Si atom -5568.168398 kJ/mol
# Density = 1.814047 g / cm^3
# Si number density = 18.181854 Si / 1000 Ang^3
#
#
#
# Elastic Constant Matrix: (Units=GPa)
#
#
# Indices 1 2 3 4 5 6 
#
# 1 22.3448 14.6424 3.0744 0.0000 0.0000 0.0000
# 2 14.6424 22.3448 3.0744 0.0000 0.0000 0.0000
# 3 3.0744 3.0744 105.8304 0.0000 0.0000 0.0000
# 4 0.0000 0.0000 0.0000 9.1912 0.0000 0.0000
# 5 0.0000 0.0000 0.0000 0.0000 9.1912 0.0000
# 6 0.0000 0.0000 0.0000 0.0000 0.0000 3.9802
#
#
#
# Elastic Compliance Matrix: (Units=1/GPa)
#
#
# Indices 1 2 3 4 5 6 
#
# 1 0.078499 -0.051331 -0.000789 0.000000 0.000000 0.000000
# 2 -0.051331 0.078499 -0.000789 0.000000 0.000000 0.000000
# 3 -0.000789 -0.000789 0.009495 0.000000 0.000000 0.000000
# 4 0.000000 0.000000 0.000000 0.108800 0.000000 0.000000
# 5 0.000000 0.000000 0.000000 0.000000 0.108800 0.000000
# 6 0.000000 0.000000 0.000000 0.000000 0.000000 0.251245
#
#
# Mechanical properties :
#
#
# Convention : Reuss Voigt Hill
#
# Bulk Modulus (GPa) = 16.48174 21.34472 18.91323
# Shear Modulus (GPa) = 6.56701 13.12109 9.84405
#
# Velocity S-wave (km/s) = 1.90255 2.68928 2.32937
# Velocity P-wave (km/s) = 3.72973 4.62688 4.20232
#
# Compressibility (1/GPa) = 0.06067319
#
# Stress axis : x y z
#
# Youngs Moduli (GPa) = 12.73905 12.73905 105.31935
#
# Poissons Ratio (x) = 0.65391 0.08312
# Poissons Ratio (y) = 0.65391 0.08312
# Poissons Ratio (z) = 0.01005 0.01005
#
# Static dielectric constant tensor:
#      x y z
#    x 1.631030 0.000000 0.000000 
#    y 0.000000 1.631030 0.000000 
#    z 0.000000 0.000000 1.710730 
# 
# From -- ./inp_files/2606.got.cif
#   From: 2010.05.17/outbox.cif.g08.bks.cpg/sg134_2_cif.got.tgz:2606.got - 2010.05.20 12:42:49.
