data_PCOD9568218
_publ_section_title
;
Structure prediction by ZEFSAII (Michael W. Deem and Ramdas Pophale) SiO2 
 PCOD9568218
Probable space group: P 42/N N M
;
_chemical_formula_sum "Si O2"
_cell_formula_units_Z 72
_cell_length_a 11.618051
_cell_length_b 11.618051
_cell_length_c 27.400340
_cell_angle_alpha 90.000000
_cell_angle_beta 90.000000
_cell_angle_gamma 90.000000
_cell_volume 3698.473481
_symmetry_space_group_name_H-M "P 42/N N M"
_symmetry_group_IT_number 134
_space_group.IT_coordinate_system_code '2'
_symmetry_cell_setting 'tetragonal'
loop_
_space_group_symop_operation_xyz
x,y,z
1/2-y,x,1/2+z
1/2-x,1/2-y,z
y,1/2-x,1/2+z
x,1/2-y,1/2-z
1/2-x,y,1/2-z
y,x,-z
1/2-y,1/2-x,-z
-x,-y,-z
1/2+y,-x,1/2-z
1/2+x,1/2+y,-z
-y,1/2+x,1/2-z
-x,1/2+y,1/2+z
1/2+x,-y,1/2+z
-y,-x,z
1/2+y,1/2+x,z
loop_
_atom_site_type_symbol
_atom_site_label
_atom_site_fract_x
_atom_site_fract_y
_atom_site_fract_z
Si Si1 0.700638 0.479897 0.408899
Si Si2 0.620682 0.720388 0.396542
Si Si3 0.250000 0.559166 0.750000
Si Si4 0.497767 0.808934 0.489030
Si Si5 0.937127 0.617864 0.663623
O O1 0.640705 0.359296 0.397921
O O2 0.622860 0.584533 0.388774
O O3 0.718795 0.493681 0.466729
O O4 0.822546 0.502810 0.383455
O O5 0.750000 0.750000 0.416194
O O6 0.529335 0.754042 0.437369
O O7 0.610486 0.802967 0.349595
O O8 0.145862 0.645862 0.765445
O O9 0.300827 0.478718 0.792440
O O10 0.598009 0.901992 0.500000
O O11 0.379127 0.879127 0.487765
O O12 0.994137 0.494137 0.671026
#
# Coordination Sequence:
#
# PCOD9568218 Si02
#       5
#    16  16   8  16  16
#     4  11  23  35  51  77 109 145 182 225 273 321
#     4  10  20  33  51  73 104 143 179 215 262 319
#     4   9  18  32  53  84 118 142 167 219 282 330
#     4  11  20  32  51  74 101 138 182 224 264 317
#     4  10  19  34  57  80 105 139 177 218 270 328
#
# _framework density 19.467492
#
# number of rings (size 3 to 8) (size 9 to 14) (size 15 to 20)
#    0.000    1.667    4.444    2.667    0.000    4.444 
#    0.000    5.000    0.000    2.000    0.000    0.000 
#    0.000    0.000    0.000   33.778    0.000    0.000 
#
# Total GULP energy -401669.158295 kJ/mol
# GULP energy per Si atom -5578.738310 kJ/mol
# Density = 1.942318 g / cm^3
# Si number density = 19.467492 Si / 1000 Ang^3
#
#
#
# Elastic Constant Matrix: (Units=GPa)
#
#
# Indices 1 2 3 4 5 6 
#
# 1 52.1687 27.0591 18.1945 0.0000 0.0000 0.0000
# 2 27.0591 52.1688 18.1945 0.0000 0.0000 0.0000
# 3 18.1945 18.1945 74.3405 0.0000 0.0000 0.0000
# 4 0.0000 0.0000 0.0000 22.0707 0.0000 0.0000
# 5 0.0000 0.0000 0.0000 0.0000 22.0704 0.0000
# 6 0.0000 0.0000 0.0000 0.0000 0.0000 22.4852
#
#
#
# Elastic Compliance Matrix: (Units=1/GPa)
#
#
# Indices 1 2 3 4 5 6 
#
# 1 0.027023 -0.012802 -0.003480 0.000000 0.000000 0.000000
# 2 -0.012802 0.027023 -0.003480 0.000000 0.000000 0.000000
# 3 -0.003480 -0.003480 0.015155 0.000000 0.000000 0.000000
# 4 0.000000 0.000000 0.000000 0.045309 0.000000 0.000000
# 5 0.000000 0.000000 0.000000 0.000000 0.045310 0.000000
# 6 0.000000 0.000000 0.000000 0.000000 0.000000 0.044474
#
#
# Mechanical properties :
#
#
# Convention : Reuss Voigt Hill
#
# Bulk Modulus (GPa) = 33.69903 33.95270 33.82586
# Shear Modulus (GPa) = 19.70748 21.00727 20.35737
#
# Velocity S-wave (km/s) = 3.18516 3.28852 3.23725
# Velocity P-wave (km/s) = 5.55653 5.64781 5.60235
#
# Compressibility (1/GPa) = 0.02967445
#
# Stress axis : x y z
#
# Youngs Moduli (GPa) = 37.00575 37.00583 65.98389
#
# Poissons Ratio (x) = 0.47377 0.22965
# Poissons Ratio (y) = 0.47376 0.22965
# Poissons Ratio (z) = 0.12879 0.12879
#
# Static dielectric constant tensor:
#      x y z
#    x 1.694500 0.000000 0.000000 
#    y 0.000000 1.694500 0.000000 
#    z 0.000000 0.000000 1.683680 
# 
# From -- ./inp_files/10588.got.cif
#   From: 2010.05.17/outbox.cif.g08.bks.cpg/sg134_6_cif.got.tgz:10588.got - 2010.05.20 12:42:49.
