data_PCOD9568807
_publ_section_title
;
Structure prediction by ZEFSAII (Michael W. Deem and Ramdas Pophale) SiO2 
 PCOD9568807
Probable space group: P 42/M B C
;
_chemical_formula_sum "Si O2"
_cell_formula_units_Z 68
_cell_length_a 12.986425
_cell_length_b 12.986425
_cell_length_c 18.343596
_cell_angle_alpha 90.000000
_cell_angle_beta 90.000000
_cell_angle_gamma 90.000000
_cell_volume 3093.596732
_symmetry_space_group_name_H-M "P 42/M B C"
_symmetry_group_IT_number 135
_symmetry_cell_setting 'tetragonal'
loop_
_space_group_symop_operation_xyz
x,y,z
-y,x,1/2+z
-x,-y,z
y,-x,1/2+z
1/2+x,1/2-y,-z
1/2-x,1/2+y,-z
1/2+y,1/2+x,1/2-z
1/2-y,1/2-x,1/2-z
-x,-y,-z
y,-x,1/2-z
x,y,-z
-y,x,1/2-z
1/2-x,1/2+y,z
1/2+x,1/2-y,z
1/2-y,1/2-x,1/2+z
1/2+y,1/2+x,1/2+z
loop_
_atom_site_type_symbol
_atom_site_label
_atom_site_fract_x
_atom_site_fract_y
_atom_site_fract_z
Si Si1 0.804223 0.214220 0.133717
Si Si2 0.000000 0.000000 0.750000
Si Si3 0.842467 0.540571 0.131812
Si Si4 0.144151 0.526473 0.419964
Si Si5 0.393705 0.303086 0.295675
O O1 0.748269 0.113895 0.103233
O O2 0.904657 0.256185 0.093671
O O3 0.722337 0.307635 0.143952
O O4 0.841247 0.195204 0.216629
O O5 0.087998 0.050262 0.800086
O O6 0.892880 0.450942 0.083421
O O7 0.789685 0.476797 0.197377
O O8 0.940123 0.617004 0.140300
O O9 0.148398 0.477709 0.500000
#
# Coordination Sequence:
#
# PCOD9568807 Si02
#       5
#    16   4  16  16  16
#     4  10  22  37  58  88 119 152 194 248 298 356
#     4  12  20  36  60  84 130 156 176 244 300 386
#     4  10  20  38  61  82 119 158 191 248 298 357
#     4  10  23  40  60  87 115 160 214 248 288 345
#     4  10  22  35  57  91 119 152 189 231 307 370
#
# _framework density 21.980886000000002
#
# number of rings (size 3 to 8) (size 9 to 14) (size 15 to 20)
#    0.000    1.882    2.353    1.412    3.294    2.824 
#    0.000    4.706    0.000    0.000    0.000   11.529 
#    0.000    0.000    0.000    0.000    0.000    0.000 
#
# Total GULP energy -378845.156118 kJ/mol
# GULP energy per Si atom -5571.252296 kJ/mol
# Density = 2.193086 g / cm^3
# Si number density = 21.980886 Si / 1000 Ang^3
#
#
#
# Elastic Constant Matrix: (Units=GPa)
#
#
# Indices 1 2 3 4 5 6 
#
# 1 77.0285 37.2270 -4.5259 0.0000 0.0000 0.0000
# 2 37.2270 77.0285 -4.5259 0.0000 0.0000 0.0000
# 3 -4.5259 -4.5259 11.5145 0.0000 0.0000 0.0000
# 4 0.0000 0.0000 0.0000 4.0471 0.0000 0.0000
# 5 0.0000 0.0000 0.0000 0.0000 4.0471 0.0000
# 6 0.0000 0.0000 0.0000 0.0000 0.0000 61.2776
#
#
#
# Elastic Compliance Matrix: (Units=1/GPa)
#
#
# Indices 1 2 3 4 5 6 
#
# 1 0.017079 -0.008046 0.003551 0.000000 0.000000 0.000000
# 2 -0.008046 0.017079 0.003551 0.000000 0.000000 0.000000
# 3 0.003551 0.003551 0.089638 0.000000 0.000000 0.000000
# 4 0.000000 0.000000 0.000000 0.247089 0.000000 0.000000
# 5 0.000000 0.000000 0.000000 0.000000 0.247089 0.000000
# 6 0.000000 0.000000 0.000000 0.000000 0.000000 0.016319
#
#
# Mechanical properties :
#
#
# Convention : Reuss Voigt Hill
#
# Bulk Modulus (GPa) = 8.20286 24.65798 16.43042
# Shear Modulus (GPa) = 7.38752 23.03413 15.21082
#
# Velocity S-wave (km/s) = 1.83526 3.24067 2.63345
# Velocity P-wave (km/s) = 2.86894 5.02442 4.09119
#
# Compressibility (1/GPa) = 0.12190863
#
# Stress axis : x y z
#
# Youngs Moduli (GPa) = 58.55097 58.55097 11.15595
#
# Poissons Ratio (x) = 0.47107 -0.03961
# Poissons Ratio (y) = 0.47107 -0.03961
# Poissons Ratio (z) = -0.20790 -0.20790
#
# Static dielectric constant tensor:
#      x y z
#    x 1.862530 0.000000 0.000000 
#    y 0.000000 1.862530 0.000000 
#    z 0.000000 0.000000 1.779890 
# 
# From -- ./inp_files/5135.got.cif
#   From: 2010.05.17/outbox.cif.g08.bks.cpg/sg135_3_cif.got.tgz:5135.got - 2010.05.20 12:50:20.
