data_PCOD9568341
_publ_section_title
;
Structure prediction by ZEFSAII (Michael W. Deem and Ramdas Pophale) SiO2 
 PCOD9568341
Probable space group: P 42/N N M
;
_chemical_formula_sum "Si O2"
_cell_formula_units_Z 48
_cell_length_a 13.096290
_cell_length_b 13.096290
_cell_length_c 12.064831
_cell_angle_alpha 90.000000
_cell_angle_beta 90.000000
_cell_angle_gamma 90.000000
_cell_volume 2069.273088
_symmetry_space_group_name_H-M "P 42/N N M"
_symmetry_group_IT_number 134
_space_group.IT_coordinate_system_code '2'
_symmetry_cell_setting 'tetragonal'
loop_
_space_group_symop_operation_xyz
x,y,z
1/2-y,x,1/2+z
1/2-x,1/2-y,z
y,1/2-x,1/2+z
x,1/2-y,1/2-z
1/2-x,y,1/2-z
y,x,-z
1/2-y,1/2-x,-z
-x,-y,-z
1/2+y,-x,1/2-z
1/2+x,1/2+y,-z
-y,1/2+x,1/2-z
-x,1/2+y,1/2+z
1/2+x,-y,1/2+z
-y,-x,z
1/2+y,1/2+x,z
loop_
_atom_site_type_symbol
_atom_site_label
_atom_site_fract_x
_atom_site_fract_y
_atom_site_fract_z
Si Si1 0.802591 0.469343 0.097906
Si Si2 0.460889 0.708950 0.128355
Si Si3 0.606989 0.557425 0.206636
O O1 0.867736 0.367736 0.129599
O O2 0.687679 0.485889 0.142806
O O3 0.855382 0.561626 0.166548
O O4 0.793420 0.468726 0.966591
O O5 0.434120 0.750000 0.250000
O O6 0.372644 0.627357 0.094190
O O7 0.573299 0.657942 0.142605
O O8 0.501120 0.498881 0.212880
#
# Coordination Sequence:
#
# PCOD9568341 Si02
#       3
#    16  16  16
#     4  10  20  36  61  90 119 155 205 260 309 365
#     4  11  23  38  58  87 125 167 210 257 313 374
#     4   9  20  38  59  86 122 162 202 252 316 377
#
# _framework density 23.196552000000001
#
# number of rings (size 3 to 8) (size 9 to 14) (size 15 to 20)
#    0.000    2.000    0.000    3.000    0.000    9.667 
#    0.000   15.000    0.000    8.000    0.000    0.000 
#    0.000    0.000    0.000    0.000    0.000    0.000 
#
# Total GULP energy -267285.944888 kJ/mol
# GULP energy per Si atom -5568.457185 kJ/mol
# Density = 2.314376 g / cm^3
# Si number density = 23.196552 Si / 1000 Ang^3
#
#
#
# Elastic Constant Matrix: (Units=GPa)
#
#
# Indices 1 2 3 4 5 6 
#
# 1 59.1494 30.2211 23.7167 0.0000 0.0000 0.0000
# 2 30.2211 59.1494 23.7167 0.0000 0.0000 0.0000
# 3 23.7167 23.7167 130.9785 0.0000 0.0000 0.0000
# 4 0.0000 0.0000 0.0000 104.6089 0.0000 0.0000
# 5 0.0000 0.0000 0.0000 0.0000 104.6089 0.0000
# 6 0.0000 0.0000 0.0000 0.0000 0.0000 40.8081
#
#
#
# Elastic Compliance Matrix: (Units=1/GPa)
#
#
# Indices 1 2 3 4 5 6 
#
# 1 0.023474 -0.011095 -0.002242 0.000000 0.000000 0.000000
# 2 -0.011095 0.023474 -0.002242 0.000000 0.000000 0.000000
# 3 -0.002242 -0.002242 0.008447 0.000000 0.000000 0.000000
# 4 0.000000 0.000000 0.000000 0.009559 0.000000 0.000000
# 5 0.000000 0.000000 0.000000 0.000000 0.009559 0.000000
# 6 0.000000 0.000000 0.000000 0.000000 0.000000 0.024505
#
#
# Mechanical properties :
#
#
# Convention : Reuss Voigt Hill
#
# Bulk Modulus (GPa) = 41.25642 44.95403 43.10522
# Shear Modulus (GPa) = 36.16575 61.44671 48.80623
#
# Velocity S-wave (km/s) = 3.95283 5.15239 4.59195
# Velocity P-wave (km/s) = 6.21750 7.40391 6.83649
#
# Compressibility (1/GPa) = 0.02423865
#
# Stress axis : x y z
#
# Youngs Moduli (GPa) = 42.60101 42.60101 118.39088
#
# Poissons Ratio (x) = 0.47264 0.26537
# Poissons Ratio (y) = 0.47264 0.26537
# Poissons Ratio (z) = 0.09549 0.09549
#
# Static dielectric constant tensor:
#      x y z
#    x 1.917310 0.000000 0.000000 
#    y 0.000000 1.917310 0.000000 
#    z 0.000000 0.000000 1.927160 
# 
# From -- ./inp_files/4040.got.cif
#   From: 2010.05.17/outbox.cif.g08.bks.cpg/sg134_3_cif.got.tgz:4040.got - 2010.05.20 12:42:49.
