data_PCOD9568911
_publ_section_title
;
Structure prediction by ZEFSAII (Michael W. Deem and Ramdas Pophale) SiO2 
 PCOD9568911
Probable space group: P 42/M B C
;
_chemical_formula_sum "Si O2"
_cell_formula_units_Z 48
_cell_length_a 11.858608
_cell_length_b 11.858608
_cell_length_c 14.157107
_cell_angle_alpha 90.000000
_cell_angle_beta 90.000000
_cell_angle_gamma 90.000000
_cell_volume 1990.865592
_symmetry_space_group_name_H-M "P 42/M B C"
_symmetry_group_IT_number 135
_symmetry_cell_setting 'tetragonal'
loop_
_space_group_symop_operation_xyz
x,y,z
-y,x,1/2+z
-x,-y,z
y,-x,1/2+z
1/2+x,1/2-y,-z
1/2-x,1/2+y,-z
1/2+y,1/2+x,1/2-z
1/2-y,1/2-x,1/2-z
-x,-y,-z
y,-x,1/2-z
x,y,-z
-y,x,1/2-z
1/2-x,1/2+y,z
1/2+x,1/2-y,z
1/2-y,1/2-x,1/2+z
1/2+y,1/2+x,1/2+z
loop_
_atom_site_type_symbol
_atom_site_label
_atom_site_fract_x
_atom_site_fract_y
_atom_site_fract_z
Si Si1 0.465052 0.330355 0.897288
Si Si2 0.389380 0.069098 0.107485
Si Si3 0.819602 0.853419 0.214290
O O1 0.425055 0.200415 0.897682
O O2 0.596250 0.334727 0.871712
O O3 0.402427 0.380789 0.806877
O O4 0.440178 0.379319 0.000000
O O5 0.283652 0.067939 0.177984
O O6 0.500000 0.000000 0.136770
O O7 0.359564 0.032601 0.000000
O O8 0.761802 0.738199 0.250000
#
# Coordination Sequence:
#
# PCOD9568911 Si02
#       3
#    16  16  16
#     4  10  22  40  60  87 125 160 204 257 310 374
#     4   9  19  37  64  96 124 158 209 260 306 364
#     4  10  22  37  62  89 123 164 206 252 316 371
#
# _framework density 24.110116999999999
#
# number of rings (size 3 to 8) (size 9 to 14) (size 15 to 20)
#    0.000    2.333    0.000    1.000    4.667    6.667 
#    0.000    5.000    0.000    2.000    0.000    0.000 
#    0.000    0.000    0.000    0.000    0.000    0.000 
#
# Total GULP energy -268369.498305 kJ/mol
# GULP energy per Si atom -5591.031215 kJ/mol
# Density = 2.405524 g / cm^3
# Si number density = 24.110117 Si / 1000 Ang^3
#
#
#
# Elastic Constant Matrix: (Units=GPa)
#
#
# Indices 1 2 3 4 5 6 
#
# 1 53.3951 26.0307 29.6284 0.0000 0.0000 0.0000
# 2 26.0307 53.3960 29.6287 0.0000 0.0000 0.0000
# 3 29.6284 29.6287 194.3817 0.0000 0.0000 0.0000
# 4 0.0000 0.0000 0.0000 26.5749 0.0000 0.0000
# 5 0.0000 0.0000 0.0000 0.0000 26.5749 0.0000
# 6 0.0000 0.0000 0.0000 0.0000 0.0000 39.5102
#
#
#
# Elastic Compliance Matrix: (Units=1/GPa)
#
#
# Indices 1 2 3 4 5 6 
#
# 1 0.025375 -0.011169 -0.002165 0.000000 0.000000 0.000000
# 2 -0.011169 0.025374 -0.002165 0.000000 0.000000 0.000000
# 3 -0.002165 -0.002165 0.005805 0.000000 0.000000 0.000000
# 4 0.000000 0.000000 0.000000 0.037629 0.000000 0.000000
# 5 0.000000 0.000000 0.000000 0.000000 0.037629 0.000000
# 6 0.000000 0.000000 0.000000 0.000000 0.000000 0.025310
#
#
# Mechanical properties :
#
#
# Convention : Reuss Voigt Hill
#
# Bulk Modulus (GPa) = 39.13145 52.41649 45.77397
# Shear Modulus (GPa) = 25.42723 32.92433 29.17578
#
# Velocity S-wave (km/s) = 3.25103 3.69939 3.48243
# Velocity P-wave (km/s) = 5.50979 6.32732 5.93265
#
# Compressibility (1/GPa) = 0.02555489
#
# Stress axis : x y z
#
# Youngs Moduli (GPa) = 39.40931 39.40992 172.27692
#
# Poissons Ratio (x) = 0.44016 0.37303
# Poissons Ratio (y) = 0.44015 0.37303
# Poissons Ratio (z) = 0.08533 0.08533
#
# Static dielectric constant tensor:
#      x y z
#    x 1.906320 0.000000 0.000000 
#    y 0.000000 1.906320 0.000000 
#    z 0.000000 0.000000 1.966780 
# 
# From -- ./inp_files/4018.got.cif
#   From: 2010.05.17/outbox.cif.g08.bks.cpg/sg135_3_cif.got.tgz:4018.got - 2010.05.20 12:50:20.
