data_PCOD9568751
_publ_section_title
;
Structure prediction by ZEFSAII (Michael W. Deem and Ramdas Pophale) SiO2 
 PCOD9568751
Probable space group: P 42/M B C
;
_chemical_formula_sum "Si O2"
_cell_formula_units_Z 112
_cell_length_a 17.147314
_cell_length_b 17.147314
_cell_length_c 21.315196
_cell_angle_alpha 90.000000
_cell_angle_beta 90.000000
_cell_angle_gamma 90.000000
_cell_volume 6267.315125
_symmetry_space_group_name_H-M "P 42/M B C"
_symmetry_group_IT_number 135
_symmetry_cell_setting 'tetragonal'
loop_
_space_group_symop_operation_xyz
x,y,z
-y,x,1/2+z
-x,-y,z
y,-x,1/2+z
1/2+x,1/2-y,-z
1/2-x,1/2+y,-z
1/2+y,1/2+x,1/2-z
1/2-y,1/2-x,1/2-z
-x,-y,-z
y,-x,1/2-z
x,y,-z
-y,x,1/2-z
1/2-x,1/2+y,z
1/2+x,1/2-y,z
1/2-y,1/2-x,1/2+z
1/2+y,1/2+x,1/2+z
loop_
_atom_site_type_symbol
_atom_site_label
_atom_site_fract_x
_atom_site_fract_y
_atom_site_fract_z
Si Si1 0.846683 0.695616 0.070286
Si Si2 0.435453 0.225899 0.160266
Si Si3 0.731201 0.702037 0.814264
Si Si4 0.907367 0.505846 0.425458
Si Si5 0.559439 0.570977 0.329435
Si Si6 0.666355 0.526798 0.430202
Si Si7 0.467286 0.699642 0.734921
O O1 0.785139 0.709388 0.124751
O O2 0.905068 0.769211 0.069524
O O3 0.905290 0.623244 0.082957
O O4 0.813145 0.686968 0.000000
O O5 0.347064 0.246824 0.177507
O O6 0.454140 0.146860 0.121245
O O7 0.461377 0.296518 0.114200
O O8 0.489394 0.235044 0.222890
O O9 0.770681 0.729320 0.750000
O O10 0.719183 0.609927 0.803188
O O11 0.892914 0.486741 0.500000
O O12 0.000000 0.500000 0.413952
O O13 0.500000 0.500000 0.317898
O O14 0.589111 0.561466 0.399803
O O15 0.634013 0.558264 0.285252
O O16 0.525067 0.654177 0.311437
O O17 0.654953 0.497447 0.500000
#
# Coordination Sequence:
#
# PCOD9568751 Si02
#       7
#    16  16  16  16  16  16  16
#     4   9  20  39  60  82 112 152 196 241 297 353
#     4  10  20  34  59  85 113 152 193 242 291 353
#     4  12  23  37  58  84 118 155 197 245 293 350
#     4   9  18  38  64  85 111 153 201 246 298 359
#     4  11  17  31  55  80 111 146 179 217 279 347
#     4   9  19  36  58  82 110 145 187 232 283 354
#     4  11  19  35  55  80 112 152 186 230 285 345
#
# _framework density 17.870491000000001
#
# number of rings (size 3 to 8) (size 9 to 14) (size 15 to 20)
#    0.000    1.857    2.857    4.714    0.000    1.429 
#    2.571    0.714    0.000    3.429    0.000    0.000 
#    0.000    0.000    0.000    0.000    0.000    0.000 
#
# Total GULP energy -624188.026629 kJ/mol
# GULP energy per Si atom -5573.107381 kJ/mol
# Density = 1.782982 g / cm^3
# Si number density = 17.870491 Si / 1000 Ang^3
#
#
#
# Elastic Constant Matrix: (Units=GPa)
#
#
# Indices 1 2 3 4 5 6 
#
# 1 70.2959 22.0962 26.6516 0.0000 0.0000 0.0000
# 2 22.0962 70.2972 26.6530 0.0000 0.0000 0.0000
# 3 26.6516 26.6530 75.5582 0.0000 0.0000 0.0000
# 4 0.0000 0.0000 0.0000 13.0348 0.0000 0.0000
# 5 0.0000 0.0000 0.0000 0.0000 13.0349 0.0000
# 6 0.0000 0.0000 0.0000 0.0000 0.0000 5.4803
#
#
#
# Elastic Compliance Matrix: (Units=1/GPa)
#
#
# Indices 1 2 3 4 5 6 
#
# 1 0.017168 -0.003579 -0.004793 0.000000 0.000000 0.000000
# 2 -0.003579 0.017168 -0.004793 0.000000 0.000000 0.000000
# 3 -0.004793 -0.004793 0.016616 0.000000 0.000000 0.000000
# 4 0.000000 0.000000 0.000000 0.076718 0.000000 0.000000
# 5 0.000000 0.000000 0.000000 0.000000 0.076717 0.000000
# 6 0.000000 0.000000 0.000000 0.000000 0.000000 0.182471
#
#
# Mechanical properties :
#
#
# Convention : Reuss Voigt Hill
#
# Bulk Modulus (GPa) = 40.61610 40.77256 40.69433
# Shear Modulus (GPa) = 11.86531 15.69335 13.77933
#
# Velocity S-wave (km/s) = 2.57954 2.96661 2.77982
# Velocity P-wave (km/s) = 5.62578 5.88213 5.75538
#
# Compressibility (1/GPa) = 0.02462078
#
# Stress axis : x y z
#
# Youngs Moduli (GPa) = 58.24851 58.24886 60.18151
#
# Poissons Ratio (x) = 0.20847 0.28846
# Poissons Ratio (y) = 0.20847 0.28848
# Poissons Ratio (z) = 0.27919 0.27921
#
# Static dielectric constant tensor:
#      x y z
#    x 1.568710 0.000000 0.000000 
#    y 0.000000 1.568710 0.000000 
#    z 0.000000 0.000000 1.734550 
# 
# From -- ./inp_files/6106.got.cif
#   From: 2010.05.17/outbox.cif.g08.bks.cpg/sg135_4_cif.got.tgz:6106.got - 2010.05.20 12:50:20.
