data_PCOD9568608
_publ_section_title
;
Structure prediction by ZEFSAII (Michael W. Deem and Ramdas Pophale) SiO2 
 PCOD9568608
Probable space group: P 42/M B C
;
_chemical_formula_sum "Si O2"
_cell_formula_units_Z 80
_cell_length_a 16.128223
_cell_length_b 16.128223
_cell_length_c 14.247844
_cell_angle_alpha 90.000000
_cell_angle_beta 90.000000
_cell_angle_gamma 90.000000
_cell_volume 3706.143156
_symmetry_space_group_name_H-M "P 42/M B C"
_symmetry_group_IT_number 135
_symmetry_cell_setting 'tetragonal'
loop_
_space_group_symop_operation_xyz
x,y,z
-y,x,1/2+z
-x,-y,z
y,-x,1/2+z
1/2+x,1/2-y,-z
1/2-x,1/2+y,-z
1/2+y,1/2+x,1/2-z
1/2-y,1/2-x,1/2-z
-x,-y,-z
y,-x,1/2-z
x,y,-z
-y,x,1/2-z
1/2-x,1/2+y,z
1/2+x,1/2-y,z
1/2-y,1/2-x,1/2+z
1/2+y,1/2+x,1/2+z
loop_
_atom_site_type_symbol
_atom_site_label
_atom_site_fract_x
_atom_site_fract_y
_atom_site_fract_z
Si Si1 0.614082 0.465955 0.205201
Si Si2 0.633875 0.461308 0.000000
Si Si3 0.229145 0.151317 0.692561
Si Si4 0.503191 0.828175 0.500000
Si Si5 0.320171 0.860907 0.850910
Si Si6 0.160845 0.224476 0.000000
Si Si7 0.189569 0.640413 0.500000
O O1 0.540128 0.401826 0.223928
O O2 0.695179 0.416647 0.235074
O O3 0.606269 0.497010 0.099097
O O4 0.732133 0.472066 0.000000
O O5 0.615174 0.362922 0.000000
O O6 0.297810 0.202190 0.750000
O O7 0.160188 0.221601 0.663980
O O8 0.266122 0.113564 0.596616
O O9 0.443024 0.837885 0.589655
O O10 0.590725 0.876147 0.500000
O O11 0.361259 0.861259 0.750000
O O12 0.353368 0.782056 0.909989
O O13 0.259415 0.203977 0.000000
#
# Coordination Sequence:
#
# PCOD9568608 Si02
#       7
#    16   8  16   8  16   8   8
#     4  11  25  39  56  86 124 165 199 239 308 376
#     4  11  20  36  56  77 119 160 205 251 285 359
#     4  10  19  34  55  81 115 155 207 256 298 355
#     4  10  18  30  53  86 117 156 199 245 310 356
#     4   9  16  28  50  80 116 153 197 248 299 357
#     4   8  16  28  45  74 107 150 198 246 291 334
#     4   9  18  31  52  80 113 148 190 251 300 350
#
# _framework density 21.585782999999999
#
# number of rings (size 3 to 8) (size 9 to 14) (size 15 to 20)
#    0.000    2.200    0.000    6.600    0.000    3.200 
#    0.000    0.000    0.000    0.000    0.000    4.200 
#    0.000  110.400    0.000    0.000    0.000    0.000 
#
# Total GULP energy -446643.638670 kJ/mol
# GULP energy per Si atom -5583.045483 kJ/mol
# Density = 2.153665 g / cm^3
# Si number density = 21.585783 Si / 1000 Ang^3
#
#
#
# Elastic Constant Matrix: (Units=GPa)
#
#
# Indices 1 2 3 4 5 6 
#
# 1 42.2904 14.6934 28.9722 0.0000 0.0000 0.0000
# 2 14.6934 42.2904 28.9722 0.0000 0.0000 0.0000
# 3 28.9722 28.9722 175.2774 0.0000 0.0000 0.0000
# 4 0.0000 0.0000 0.0000 -0.5344 0.0000 0.0000
# 5 0.0000 0.0000 0.0000 0.0000 -0.5344 0.0000
# 6 0.0000 0.0000 0.0000 0.0000 0.0000 23.6025
#
#
#
# Elastic Compliance Matrix: (Units=1/GPa)
#
#
# Indices 1 2 3 4 5 6 
#
# 1 0.028665 -0.007571 -0.003487 0.000000 0.000000 0.000000
# 2 -0.007571 0.028665 -0.003487 0.000000 0.000000 0.000000
# 3 -0.003487 -0.003487 0.006858 0.000000 0.000000 0.000000
# 4 0.000000 0.000000 0.000000 -1.871388 0.000000 0.000000
# 5 0.000000 0.000000 0.000000 0.000000 -1.871388 0.000000
# 6 0.000000 0.000000 0.000000 0.000000 0.000000 0.042368
#
#
# Mechanical properties :
#
#
# Convention : Reuss Voigt Hill
#
# Bulk Modulus (GPa) = 28.49030 45.01487 36.75259
# Shear Modulus (GPa) = -1.39065 16.98810 7.79872
#
# Velocity S-wave (km/s) = -0.80352 2.80840 1.90282
# Velocity P-wave (km/s) = 3.51659 5.60494 4.67877
#
# Compressibility (1/GPa) = 0.03509966
#
# Stress axis : x y z
#
# Youngs Moduli (GPa) = 34.88558 34.88558 145.81675
#
# Poissons Ratio (x) = 0.26411 0.50843
# Poissons Ratio (y) = 0.26411 0.50843
# Poissons Ratio (z) = 0.12164 0.12164
#
# Static dielectric constant tensor:
#      x y z
#    x 1.796050 0.000000 0.000000 
#    y 0.000000 1.796050 0.000000 
#    z 0.000000 0.000000 1.812590 
# 
# From -- ./inp_files/3489.got.cif
#   From: 2010.05.17/outbox.cif.g08.bks.cpg/sg135_2_cif.got.tgz:3489.got - 2010.05.20 12:50:20.
