data_PCOD9568867
_publ_section_title
;
Structure prediction by ZEFSAII (Michael W. Deem and Ramdas Pophale) SiO2 
 PCOD9568867
Probable space group: P 42/M B C
;
_chemical_formula_sum "Si O2"
_cell_formula_units_Z 88
_cell_length_a 13.483178
_cell_length_b 13.483178
_cell_length_c 21.951760
_cell_angle_alpha 90.000000
_cell_angle_beta 90.000000
_cell_angle_gamma 90.000000
_cell_volume 3990.744114
_symmetry_space_group_name_H-M "P 42/M B C"
_symmetry_group_IT_number 135
_symmetry_cell_setting 'tetragonal'
loop_
_space_group_symop_operation_xyz
x,y,z
-y,x,1/2+z
-x,-y,z
y,-x,1/2+z
1/2+x,1/2-y,-z
1/2-x,1/2+y,-z
1/2+y,1/2+x,1/2-z
1/2-y,1/2-x,1/2-z
-x,-y,-z
y,-x,1/2-z
x,y,-z
-y,x,1/2-z
1/2-x,1/2+y,z
1/2+x,1/2-y,z
1/2-y,1/2-x,1/2+z
1/2+y,1/2+x,1/2+z
loop_
_atom_site_type_symbol
_atom_site_label
_atom_site_fract_x
_atom_site_fract_y
_atom_site_fract_z
Si Si1 0.235865 0.851645 0.635381
Si Si2 0.757662 0.874958 0.500000
Si Si3 0.598898 0.228996 0.000000
Si Si4 0.983167 0.840621 0.236359
Si Si5 0.271454 0.948830 0.000000
Si Si6 0.860945 0.546762 0.192621
Si Si7 0.395704 0.184498 0.603675
O O1 0.234430 0.855401 0.562710
O O2 0.190468 0.946559 0.669258
O O3 0.348814 0.844230 0.657728
O O4 0.165439 0.758211 0.647543
O O5 0.857743 0.808211 0.500000
O O6 0.686792 0.859142 0.558645
O O7 0.775293 0.990860 0.500000
O O8 0.622284 0.110270 0.000000
O O9 0.983507 0.743842 0.277722
O O10 0.084999 0.900093 0.237031
O O11 0.266068 0.020412 0.059194
O O12 0.928770 0.571231 0.250000
O O13 0.889029 0.459025 0.146298
#
# Coordination Sequence:
#
# PCOD9568867 Si02
#       7
#    16   8   8  16   8  16  16
#     4  11  22  41  64  93 132 172 211 269 325 383
#     4  11  25  40  69  93 124 181 212 257 348 389
#     4  12  23  43  64  97 131 161 220 268 321 395
#     4  10  21  38  63  95 125 165 216 264 324 383
#     4  11  22  42  62  94 131 166 214 272 315 396
#     4  10  21  38  64  90 130 170 214 274 320 381
#     4  11  20  40  68  88 132 172 214 262 333 387
#
# _framework density 22.051026
#
# number of rings (size 3 to 8) (size 9 to 14) (size 15 to 20)
#    0.000    1.273    5.455    0.545    0.000    4.364 
#    0.000    0.909    0.000    5.455    0.000    0.000 
#    0.000    0.000    0.000    0.000    0.000    0.000 
#
# Total GULP energy -491289.446052 kJ/mol
# GULP energy per Si atom -5582.834614 kJ/mol
# Density = 2.200084 g / cm^3
# Si number density = 22.051026 Si / 1000 Ang^3
#
#
#
# Elastic Constant Matrix: (Units=GPa)
#
#
# Indices 1 2 3 4 5 6 
#
# 1 35.3638 3.5376 6.1610 0.0000 0.0000 0.0000
# 2 3.5376 35.3639 6.1601 0.0000 0.0000 0.0000
# 3 6.1610 6.1601 92.7772 0.0000 0.0000 0.0000
# 4 0.0000 0.0000 0.0000 -79.7874 0.0000 0.0000
# 5 0.0000 0.0000 0.0000 0.0000 -79.8436 0.0000
# 6 0.0000 0.0000 0.0000 0.0000 0.0000 14.2286
#
#
#
# Elastic Compliance Matrix: (Units=1/GPa)
#
#
# Indices 1 2 3 4 5 6 
#
# 1 0.028840 -0.002581 -0.001744 0.000000 0.000000 0.000000
# 2 -0.002581 0.028839 -0.001743 0.000000 0.000000 0.000000
# 3 -0.001744 -0.001743 0.011010 0.000000 0.000000 0.000000
# 4 0.000000 0.000000 0.000000 -0.012533 0.000000 0.000000
# 5 0.000000 0.000000 0.000000 0.000000 -0.012524 0.000000
# 6 0.000000 0.000000 0.000000 0.000000 0.000000 0.070281
#
#
# Mechanical properties :
#
#
# Convention : Reuss Voigt Hill
#
# Bulk Modulus (GPa) = 17.68281 21.69138 19.68710
# Shear Modulus (GPa) = 34.50668 -19.23740 7.63464
#
# Velocity S-wave (km/s) = 3.96012 -2.95685 1.86273
# Velocity P-wave (km/s) = 5.38019 1.34128 3.68425
#
# Compressibility (1/GPa) = 0.05655208
#
# Stress axis : x y z
#
# Youngs Moduli (GPa) = 34.67464 34.67493 90.82601
#
# Poissons Ratio (x) = 0.08950 0.15838
# Poissons Ratio (y) = 0.08950 0.15835
# Poissons Ratio (z) = 0.06046 0.06045
#
# Static dielectric constant tensor:
#      x y z
#    x 1.821040 0.000000 0.000000 
#    y 0.000000 1.821040 0.000000 
#    z 0.000000 0.000000 1.829820 
# 
# From -- ./inp_files/5380.got.cif
#   From: 2010.05.17/outbox.cif.g08.bks.cpg/sg135_3_cif.got.tgz:5380.got - 2010.05.20 12:50:20.
