data_PCOD9568517
_publ_section_title
;
Structure prediction by ZEFSAII (Michael W. Deem and Ramdas Pophale) SiO2 
 PCOD9568517
Probable space group: P 42/N N M
;
_chemical_formula_sum "Si O2"
_cell_formula_units_Z 84
_cell_length_a 11.332525
_cell_length_b 11.332525
_cell_length_c 32.066516
_cell_angle_alpha 90.000000
_cell_angle_beta 90.000000
_cell_angle_gamma 90.000000
_cell_volume 4118.178324
_symmetry_space_group_name_H-M "P 42/N N M"
_symmetry_group_IT_number 134
_space_group.IT_coordinate_system_code '2'
_symmetry_cell_setting 'tetragonal'
loop_
_space_group_symop_operation_xyz
x,y,z
1/2-y,x,1/2+z
1/2-x,1/2-y,z
y,1/2-x,1/2+z
x,1/2-y,1/2-z
1/2-x,y,1/2-z
y,x,-z
1/2-y,1/2-x,-z
-x,-y,-z
1/2+y,-x,1/2-z
1/2+x,1/2+y,-z
-y,1/2+x,1/2-z
-x,1/2+y,1/2+z
1/2+x,-y,1/2+z
-y,-x,z
1/2+y,1/2+x,z
loop_
_atom_site_type_symbol
_atom_site_label
_atom_site_fract_x
_atom_site_fract_y
_atom_site_fract_z
Si Si1 0.686734 0.995350 0.116248
Si Si2 0.908038 0.408038 0.430205
Si Si3 0.214467 0.110571 0.203632
Si Si4 0.098524 0.901477 0.064468
Si Si5 0.250000 0.750000 0.504707
Si Si6 0.710777 0.028435 0.297990
Si Si7 0.305740 0.493819 0.380201
O O1 0.600922 0.100922 0.102309
O O2 0.815594 0.017719 0.097955
O O3 0.694214 0.000582 0.166637
O O4 0.623643 0.873787 0.103947
O O5 0.826306 0.326306 0.459788
O O6 0.001160 0.501160 0.449804
O O7 0.250000 0.250000 0.199886
O O8 0.250000 0.072806 0.250000
O O9 0.269161 0.034407 0.167045
O O10 0.074510 0.114926 0.198964
O O11 0.029347 0.806058 0.092636
O O12 0.174474 0.825527 0.031358
O O13 0.750000 0.028728 0.250000
O O14 0.652664 0.152664 0.308093
O O15 0.401028 0.598973 0.381579
#
# Coordination Sequence:
#
# PCOD9568517 Si02
#       7
#    16   8  16   8   4  16  16
#     4  11  22  40  66 104 142 179 234 284 339 417
#     4  12  25  45  81 107 138 181 213 290 364 429
#     4  11  21  39  59  92 138 184 243 289 336 394
#     4  12  27  49  77 105 138 185 229 283 358 428
#     4  12  26  56  74 110 150 158 238 282 362 448
#     4  12  23  35  57  94 138 184 227 282 343 404
#     4  11  24  44  70  99 141 190 237 292 338 405
#
# _framework density 20.397369000000001
#
# number of rings (size 3 to 8) (size 9 to 14) (size 15 to 20)
#    0.000    0.571    6.667    2.000    1.333    3.238 
#    0.000    1.905    0.000    2.286    0.000    0.000 
#    0.000    0.000    0.000    0.000    0.000    0.000 
#
# Total GULP energy -468019.440688 kJ/mol
# GULP energy per Si atom -5571.660008 kJ/mol
# Density = 2.035094 g / cm^3
# Si number density = 20.397369 Si / 1000 Ang^3
#
#
#
# Elastic Constant Matrix: (Units=GPa)
#
#
# Indices 1 2 3 4 5 6 
#
# 1 102.5753 69.0178 41.4404 0.0000 0.0000 0.0000
# 2 69.0178 102.5753 41.4404 0.0000 0.0000 0.0000
# 3 41.4404 41.4404 107.8401 0.0000 0.0000 0.0000
# 4 0.0000 0.0000 0.0000 -40.3595 0.0000 0.0000
# 5 0.0000 0.0000 0.0000 0.0000 -40.3595 0.0000
# 6 0.0000 0.0000 0.0000 0.0000 0.0000 45.1061
#
#
#
# Elastic Compliance Matrix: (Units=1/GPa)
#
#
# Indices 1 2 3 4 5 6 
#
# 1 0.018478 -0.011322 -0.002750 0.000000 0.000000 0.000000
# 2 -0.011322 0.018478 -0.002750 0.000000 0.000000 0.000000
# 3 -0.002750 -0.002750 0.011386 0.000000 0.000000 0.000000
# 4 0.000000 0.000000 0.000000 -0.024777 0.000000 0.000000
# 5 0.000000 0.000000 0.000000 0.000000 -0.024777 0.000000
# 6 0.000000 0.000000 0.000000 0.000000 0.000000 0.022170
#
#
# Mechanical properties :
#
#
# Convention : Reuss Voigt Hill
#
# Bulk Modulus (GPa) = 68.03251 68.53196 68.28224
# Shear Modulus (GPa) = 84.03371 3.61690 43.82531
#
# Velocity S-wave (km/s) = 6.42555 1.33307 4.64030
# Velocity P-wave (km/s) = 9.40618 6.00340 7.89041
#
# Compressibility (1/GPa) = 0.01469885
#
# Stress axis : x y z
#
# Youngs Moduli (GPa) = 54.11909 54.11909 87.82407
#
# Poissons Ratio (x) = 0.61273 0.24150
# Poissons Ratio (y) = 0.61273 0.24150
# Poissons Ratio (z) = 0.14882 0.14882
#
# Static dielectric constant tensor:
#      x y z
#    x 1.686270 0.000000 0.000000 
#    y 0.000000 1.686270 0.000000 
#    z 0.000000 0.000000 1.713320 
# 
# From -- ./inp_files/11518.got.cif
#   From: 2010.05.17/outbox.cif.g08.bks.cpg/sg134_6_cif.got.tgz:11518.got - 2010.05.20 12:42:49.
