data_PCOD9568889
_publ_section_title
;
Structure prediction by ZEFSAII (Michael W. Deem and Ramdas Pophale) SiO2 
 PCOD9568889
Probable space group: P 42/M B C
;
_chemical_formula_sum "Si O2"
_cell_formula_units_Z 48
_cell_length_a 11.950292
_cell_length_b 11.950292
_cell_length_c 16.013332
_cell_angle_alpha 90.000000
_cell_angle_beta 90.000000
_cell_angle_gamma 90.000000
_cell_volume 2286.855598
_symmetry_space_group_name_H-M "P 42/M B C"
_symmetry_group_IT_number 135
_symmetry_cell_setting 'tetragonal'
loop_
_space_group_symop_operation_xyz
x,y,z
-y,x,1/2+z
-x,-y,z
y,-x,1/2+z
1/2+x,1/2-y,-z
1/2-x,1/2+y,-z
1/2+y,1/2+x,1/2-z
1/2-y,1/2-x,1/2-z
-x,-y,-z
y,-x,1/2-z
x,y,-z
-y,x,1/2-z
1/2-x,1/2+y,z
1/2+x,1/2-y,z
1/2-y,1/2-x,1/2+z
1/2+y,1/2+x,1/2+z
loop_
_atom_site_type_symbol
_atom_site_label
_atom_site_fract_x
_atom_site_fract_y
_atom_site_fract_z
Si Si1 0.840952 0.449864 0.905567
Si Si2 0.444399 0.845329 0.835304
Si Si3 0.914776 0.901275 0.100739
O O1 0.877559 0.579377 0.902560
O O2 0.712571 0.436975 0.881371
O O3 0.927503 0.384871 0.846475
O O4 0.854941 0.406691 0.000000
O O5 0.387450 0.887450 0.750000
O O6 0.437008 0.714827 0.852719
O O7 0.925238 0.884193 0.000000
O O8 0.000000 0.000000 0.124168
#
# Coordination Sequence:
#
# PCOD9568889 Si02
#       3
#    16  16  16
#     4  10  21  40  67  93 126 177 232 284 335 400
#     4  11  23  40  65  94 136 176 222 281 351 414
#     4  10  23  42  68 101 134 177 235 289 340 404
#
# _framework density 20.989519999999999
#
# number of rings (size 3 to 8) (size 9 to 14) (size 15 to 20)
#    0.000    1.667    0.000    6.000    4.667    2.667 
#    0.000    0.000    0.000    0.000    0.000    0.000 
#    0.000    0.000    0.000    0.000    0.000    0.000 
#
# Total GULP energy -268202.288816 kJ/mol
# GULP energy per Si atom -5587.547684 kJ/mol
# Density = 2.094175 g / cm^3
# Si number density = 20.989520 Si / 1000 Ang^3
#
#
#
# Elastic Constant Matrix: (Units=GPa)
#
#
# Indices 1 2 3 4 5 6 
#
# 1 200.5086 112.5844 62.8314 0.0000 0.0000 0.0000
# 2 112.5844 200.5086 62.8314 0.0000 0.0000 0.0000
# 3 62.8314 62.8314 77.7595 0.0000 0.0000 0.0000
# 4 0.0000 0.0000 0.0000 23.9398 0.0000 0.0000
# 5 0.0000 0.0000 0.0000 0.0000 23.9398 0.0000
# 6 0.0000 0.0000 0.0000 0.0000 0.0000 13.3982
#
#
#
# Elastic Compliance Matrix: (Units=1/GPa)
#
#
# Indices 1 2 3 4 5 6 
#
# 1 0.008050 -0.003323 -0.003819 0.000000 0.000000 0.000000
# 2 -0.003323 0.008050 -0.003819 0.000000 0.000000 0.000000
# 3 -0.003819 -0.003819 0.019033 0.000000 0.000000 0.000000
# 4 0.000000 0.000000 0.000000 0.041771 0.000000 0.000000
# 5 0.000000 0.000000 0.000000 0.000000 0.041771 0.000000
# 6 0.000000 0.000000 0.000000 0.000000 0.000000 0.074637
#
#
# Mechanical properties :
#
#
# Convention : Reuss Voigt Hill
#
# Bulk Modulus (GPa) = 75.70831 106.14122 90.92476
# Shear Modulus (GPa) = 22.76457 28.29088 25.52772
#
# Velocity S-wave (km/s) = 3.29685 3.67530 3.49121
# Velocity P-wave (km/s) = 7.11619 8.28788 7.72428
#
# Compressibility (1/GPa) = 0.01320859
#
# Stress axis : x y z
#
# Youngs Moduli (GPa) = 124.22097 124.22097 52.54159
#
# Poissons Ratio (x) = 0.41282 0.20068
# Poissons Ratio (y) = 0.41282 0.20068
# Poissons Ratio (z) = 0.47445 0.47445
#
# Static dielectric constant tensor:
#      x y z
#    x 1.723770 0.000000 0.000000 
#    y 0.000000 1.723770 0.000000 
#    z 0.000000 0.000000 1.837980 
# 
# From -- ./inp_files/4003.got.cif
#   From: 2010.05.17/outbox.cif.g08.bks.cpg/sg135_3_cif.got.tgz:4003.got - 2010.05.20 12:50:20.
