data_PCOD9568883
_publ_section_title
;
Structure prediction by ZEFSAII (Michael W. Deem and Ramdas Pophale) SiO2 
 PCOD9568883
Probable space group: P 42/M B C
;
_chemical_formula_sum "Si O2"
_cell_formula_units_Z 112
_cell_length_a 14.757232
_cell_length_b 14.757232
_cell_length_c 26.140741
_cell_angle_alpha 90.000000
_cell_angle_beta 90.000000
_cell_angle_gamma 90.000000
_cell_volume 5692.823301
_symmetry_space_group_name_H-M "P 42/M B C"
_symmetry_group_IT_number 135
_symmetry_cell_setting 'tetragonal'
loop_
_space_group_symop_operation_xyz
x,y,z
-y,x,1/2+z
-x,-y,z
y,-x,1/2+z
1/2+x,1/2-y,-z
1/2-x,1/2+y,-z
1/2+y,1/2+x,1/2-z
1/2-y,1/2-x,1/2-z
-x,-y,-z
y,-x,1/2-z
x,y,-z
-y,x,1/2-z
1/2-x,1/2+y,z
1/2+x,1/2-y,z
1/2-y,1/2-x,1/2+z
1/2+y,1/2+x,1/2+z
loop_
_atom_site_type_symbol
_atom_site_label
_atom_site_fract_x
_atom_site_fract_y
_atom_site_fract_z
Si Si1 0.279812 0.539344 0.295393
Si Si2 0.424070 0.435215 0.365327
Si Si3 0.126511 0.556933 0.057469
Si Si4 0.321208 0.433131 0.801769
Si Si5 0.319220 0.302716 0.441033
Si Si6 0.007856 0.600030 0.155590
Si Si7 0.183848 0.374681 0.889353
O O1 0.341948 0.488426 0.337942
O O2 0.344121 0.624660 0.283619
O O3 0.269525 0.475591 0.246113
O O4 0.179559 0.560428 0.315497
O O5 0.500000 0.500000 0.390666
O O6 0.485686 0.386041 0.322110
O O7 0.379190 0.368278 0.405692
O O8 0.206669 0.630073 0.059824
O O9 0.055623 0.582982 0.101100
O O10 0.165711 0.458186 0.072164
O O11 0.089477 0.556977 0.000000
O O12 0.261130 0.404245 0.849872
O O13 0.315127 0.334116 0.500000
O O14 0.218456 0.295864 0.418137
O O15 0.000000 0.500000 0.180350
O O16 0.907463 0.635736 0.143957
#
# Coordination Sequence:
#
# PCOD9568883 Si02
#       7
#    16  16  16  16  16  16  16
#     4  11  21  41  65  97 128 167 214 264 322 397
#     4  10  21  39  65  96 127 159 212 268 322 393
#     4  10  22  41  63  88 123 170 215 263 326 384
#     4  11  22  38  69  96 126 168 213 265 331 378
#     4  11  22  40  65  93 128 168 212 268 333 384
#     4  10  23  41  62  87 126 166 209 261 309 378
#     4  11  22  39  63  91 127 165 217 265 310 388
#
# _framework density 19.673893
#
# number of rings (size 3 to 8) (size 9 to 14) (size 15 to 20)
#    0.000    1.429    4.286    1.286    0.000    4.000 
#    0.000    5.000    0.000    0.000    0.000    0.000 
#    0.000    0.000    0.000    0.000    0.000    0.000 
#
# Total GULP energy -625347.949951 kJ/mol
# GULP energy per Si atom -5583.463839 kJ/mol
# Density = 1.962911 g / cm^3
# Si number density = 19.673893 Si / 1000 Ang^3
#
#
#
# Elastic Constant Matrix: (Units=GPa)
#
#
# Indices 1 2 3 4 5 6 
#
# 1 87.9475 17.6780 23.7258 0.0000 0.0000 0.0000
# 2 17.6780 87.9475 23.7258 0.0000 0.0000 0.0000
# 3 23.7258 23.7258 69.9105 0.0000 0.0000 0.0000
# 4 0.0000 0.0000 0.0000 -53.0386 0.0000 0.0000
# 5 0.0000 0.0000 0.0000 0.0000 -53.0386 0.0000
# 6 0.0000 0.0000 0.0000 0.0000 0.0000 26.1700
#
#
#
# Elastic Compliance Matrix: (Units=1/GPa)
#
#
# Indices 1 2 3 4 5 6 
#
# 1 0.012701 -0.001530 -0.003791 0.000000 0.000000 0.000000
# 2 -0.001530 0.012701 -0.003791 0.000000 0.000000 0.000000
# 3 -0.003791 -0.003791 0.016877 0.000000 0.000000 0.000000
# 4 0.000000 0.000000 0.000000 -0.018854 0.000000 0.000000
# 5 0.000000 0.000000 0.000000 0.000000 -0.018854 0.000000
# 6 0.000000 0.000000 0.000000 0.000000 0.000000 0.038212
#
#
# Mechanical properties :
#
#
# Convention : Reuss Voigt Hill
#
# Bulk Modulus (GPa) = 41.57278 41.78497 41.67888
# Shear Modulus (GPa) = 72.43832 -3.93637 34.25098
#
# Velocity S-wave (km/s) = 6.07449 -1.41603 4.17698
# Velocity P-wave (km/s) = 8.38905 4.31409 6.67036
#
# Compressibility (1/GPa) = 0.02405420
#
# Stress axis : x y z
#
# Youngs Moduli (GPa) = 78.73584 78.73584 59.25182
#
# Poissons Ratio (x) = 0.12048 0.22462
# Poissons Ratio (y) = 0.12048 0.22462
# Poissons Ratio (z) = 0.29848 0.29848
#
# Static dielectric constant tensor:
#      x y z
#    x 1.703490 0.000000 0.000000 
#    y 0.000000 1.703490 0.000000 
#    z 0.000000 0.000000 1.669750 
# 
# From -- ./inp_files/6094.got.cif
#   From: 2010.05.17/outbox.cif.g08.bks.cpg/sg135_4_cif.got.tgz:6094.got - 2010.05.20 12:50:20.
