data_PCOD9568919
_publ_section_title
;
Structure prediction by ZEFSAII (Michael W. Deem and Ramdas Pophale) SiO2 
 PCOD9568919
Probable space group: P 42/M B C
;
_chemical_formula_sum "Si O2"
_cell_formula_units_Z 56
_cell_length_a 13.450979
_cell_length_b 13.450979
_cell_length_c 14.925294
_cell_angle_alpha 90.000000
_cell_angle_beta 90.000000
_cell_angle_gamma 90.000000
_cell_volume 2700.416071
_symmetry_space_group_name_H-M "P 42/M B C"
_symmetry_group_IT_number 135
_symmetry_cell_setting 'tetragonal'
loop_
_space_group_symop_operation_xyz
x,y,z
-y,x,1/2+z
-x,-y,z
y,-x,1/2+z
1/2+x,1/2-y,-z
1/2-x,1/2+y,-z
1/2+y,1/2+x,1/2-z
1/2-y,1/2-x,1/2-z
-x,-y,-z
y,-x,1/2-z
x,y,-z
-y,x,1/2-z
1/2-x,1/2+y,z
1/2+x,1/2-y,z
1/2-y,1/2-x,1/2+z
1/2+y,1/2+x,1/2+z
loop_
_atom_site_type_symbol
_atom_site_label
_atom_site_fract_x
_atom_site_fract_y
_atom_site_fract_z
Si Si1 0.337681 0.162320 0.750000
Si Si2 0.885922 0.031555 0.101270
Si Si3 0.732333 0.063928 0.743643
Si Si4 0.311444 0.311550 0.597540
O O1 0.453773 0.188164 0.752561
O O2 0.295847 0.219344 0.663264
O O3 0.821921 0.078997 0.183206
O O4 0.826347 0.928854 0.090144
O O5 0.888453 0.078434 0.000000
O O6 0.000000 0.000000 0.124541
O O7 0.642701 0.142701 0.750000
O O8 0.775825 0.088675 0.646327
O O9 0.266108 0.298495 0.500000
#
# Coordination Sequence:
#
# PCOD9568919 Si02
#       4
#     8  16  16  16
#     4  10  23  44  62  87 132 176 214 272 333 404
#     4   9  21  39  63  94 128 166 215 274 330 389
#     4  11  23  39  64  96 129 177 219 274 334 403
#     4  10  22  39  60  93 124 163 218 268 327 392
#
# _framework density 20.737545000000001
#
# number of rings (size 3 to 8) (size 9 to 14) (size 15 to 20)
#    0.000    2.000    1.429    0.429    8.000    2.286 
#    0.000    0.000    0.000    8.571    0.000    0.000 
#    0.000    0.000    0.000    0.000    0.000    0.000 
#
# Total GULP energy -312015.125986 kJ/mol
# GULP energy per Si atom -5571.698678 kJ/mol
# Density = 2.069035 g / cm^3
# Si number density = 20.737545 Si / 1000 Ang^3
#
#
#
# Elastic Constant Matrix: (Units=GPa)
#
#
# Indices 1 2 3 4 5 6 
#
# 1 116.4512 33.0357 64.5393 0.0000 0.0000 0.0000
# 2 33.0357 116.4501 64.5390 0.0000 0.0000 0.0000
# 3 64.5393 64.5390 189.6985 0.0000 0.0000 0.0000
# 4 0.0000 0.0000 0.0000 17.1918 0.0000 0.0000
# 5 0.0000 0.0000 0.0000 0.0000 17.1921 0.0000
# 6 0.0000 0.0000 0.0000 0.0000 0.0000 32.0820
#
#
#
# Elastic Compliance Matrix: (Units=1/GPa)
#
#
# Indices 1 2 3 4 5 6 
#
# 1 0.010730 -0.001258 -0.003223 0.000000 0.000000 0.000000
# 2 -0.001258 0.010730 -0.003223 0.000000 0.000000 0.000000
# 3 -0.003223 -0.003223 0.007464 0.000000 0.000000 0.000000
# 4 0.000000 0.000000 0.000000 0.058167 0.000000 0.000000
# 5 0.000000 0.000000 0.000000 0.000000 0.058166 0.000000
# 6 0.000000 0.000000 0.000000 0.000000 0.000000 0.031170
#
#
# Mechanical properties :
#
#
# Convention : Reuss Voigt Hill
#
# Bulk Modulus (GPa) = 73.97398 82.98087 78.47742
# Shear Modulus (GPa) = 25.46588 30.65891 28.06240
#
# Velocity S-wave (km/s) = 3.50810 3.84920 3.68260
# Velocity P-wave (km/s) = 7.22205 7.73672 7.48381
#
# Compressibility (1/GPa) = 0.01351827
#
# Stress axis : x y z
#
# Youngs Moduli (GPa) = 93.19487 93.19393 133.97039
#
# Poissons Ratio (x) = 0.11724 0.43174
# Poissons Ratio (y) = 0.11724 0.43174
# Poissons Ratio (z) = 0.30033 0.30033
#
# Static dielectric constant tensor:
#      x y z
#    x 1.774350 0.000000 0.000000 
#    y 0.000000 1.774350 0.000000 
#    z 0.000000 0.000000 1.844750 
# 
# From -- ./inp_files/2062.got.cif
#   From: 2010.05.17/outbox.cif.g08.bks.cpg/sg135_2_cif.got.tgz:2062.got - 2010.05.20 12:50:20.
