data_PCOD9568666
_publ_section_title
;
Structure prediction by ZEFSAII (Michael W. Deem and Ramdas Pophale) SiO2 
 PCOD9568666
Probable space group: P 42/M B C
;
_chemical_formula_sum "Si O2"
_cell_formula_units_Z 80
_cell_length_a 13.631731
_cell_length_b 13.631731
_cell_length_c 25.033184
_cell_angle_alpha 90.000000
_cell_angle_beta 90.000000
_cell_angle_gamma 90.000000
_cell_volume 4651.768638
_symmetry_space_group_name_H-M "P 42/M B C"
_symmetry_group_IT_number 135
_symmetry_cell_setting 'tetragonal'
loop_
_space_group_symop_operation_xyz
x,y,z
-y,x,1/2+z
-x,-y,z
y,-x,1/2+z
1/2+x,1/2-y,-z
1/2-x,1/2+y,-z
1/2+y,1/2+x,1/2-z
1/2-y,1/2-x,1/2-z
-x,-y,-z
y,-x,1/2-z
x,y,-z
-y,x,1/2-z
1/2-x,1/2+y,z
1/2+x,1/2-y,z
1/2-y,1/2-x,1/2+z
1/2+y,1/2+x,1/2+z
loop_
_atom_site_type_symbol
_atom_site_label
_atom_site_fract_x
_atom_site_fract_y
_atom_site_fract_z
Si Si1 0.236768 0.571681 0.064395
Si Si2 0.213240 0.357133 0.112206
Si Si3 0.298921 0.416652 0.561052
Si Si4 0.773799 0.397891 0.372464
Si Si5 0.038734 0.397882 0.809342
O O1 0.229524 0.463163 0.087399
O O2 0.346269 0.611454 0.077496
O O3 0.155040 0.640336 0.092807
O O4 0.224884 0.575468 0.000000
O O5 0.159965 0.290743 0.067561
O O6 0.311760 0.305670 0.133485
O O7 0.133572 0.362293 0.159127
O O8 0.311592 0.446770 0.500000
O O9 0.275367 0.512164 0.595491
O O10 0.821726 0.449665 0.320112
O O11 0.073941 0.426060 0.750000
O O12 0.000000 0.500000 0.833908
#
# Coordination Sequence:
#
# PCOD9568666 Si02
#       5
#    16  16  16  16  16
#     4  10  19  32  52  79 111 149 186 222 266 324
#     4  10  20  35  54  80 108 141 179 224 276 323
#     4   9  19  32  50  78 111 148 186 219 265 326
#     4  10  20  36  54  80 111 143 179 229 272 323
#     4  10  20  39  60  79 102 135 182 229 274 324
#
# _framework density 17.197759999999999
#
# number of rings (size 3 to 8) (size 9 to 14) (size 15 to 20)
#    0.000    2.200    2.000    1.200    0.000    3.200 
#    3.600    5.000    0.000    0.000    0.000    0.000 
#    0.000    0.000    0.000    0.000    0.000    0.000 
#
# Total GULP energy -445452.714747 kJ/mol
# GULP energy per Si atom -5568.158934 kJ/mol
# Density = 1.715862 g / cm^3
# Si number density = 17.197760 Si / 1000 Ang^3
#
#
#
# Elastic Constant Matrix: (Units=GPa)
#
#
# Indices 1 2 3 4 5 6 
#
# 1 101.4987 50.1773 25.2402 0.0000 0.0000 0.0000
# 2 50.1773 101.4986 25.2401 0.0000 0.0000 0.0000
# 3 25.2402 25.2401 53.2721 0.0000 0.0000 0.0000
# 4 0.0000 0.0000 0.0000 17.2491 0.0000 0.0000
# 5 0.0000 0.0000 0.0000 0.0000 17.2492 0.0000
# 6 0.0000 0.0000 0.0000 0.0000 0.0000 30.1197
#
#
#
# Elastic Compliance Matrix: (Units=1/GPa)
#
#
# Indices 1 2 3 4 5 6 
#
# 1 0.013656 -0.005829 -0.003709 0.000000 0.000000 0.000000
# 2 -0.005829 0.013656 -0.003709 0.000000 0.000000 0.000000
# 3 -0.003709 -0.003709 0.022286 0.000000 0.000000 0.000000
# 4 0.000000 0.000000 0.000000 0.057974 0.000000 0.000000
# 5 0.000000 0.000000 0.000000 0.000000 0.057974 0.000000
# 6 0.000000 0.000000 0.000000 0.000000 0.000000 0.033201
#
#
# Mechanical properties :
#
#
# Convention : Reuss Voigt Hill
#
# Bulk Modulus (GPa) = 43.27853 50.84271 47.06062
# Shear Modulus (GPa) = 21.46467 23.29770 22.38118
#
# Velocity S-wave (km/s) = 3.53669 3.68461 3.61141
# Velocity P-wave (km/s) = 6.47282 6.90866 6.69429
#
# Compressibility (1/GPa) = 0.02310615
#
# Stress axis : x y z
#
# Youngs Moduli (GPa) = 73.22699 73.22698 44.87173
#
# Poissons Ratio (x) = 0.42683 0.16641
# Poissons Ratio (y) = 0.42683 0.16641
# Poissons Ratio (z) = 0.27157 0.27156
#
# Static dielectric constant tensor:
#      x y z
#    x 1.605280 0.000000 0.000000 
#    y 0.000000 1.605280 0.000000 
#    z 0.000000 0.000000 1.586070 
# 
# From -- ./inp_files/6666.got.cif
#   From: 2010.05.17/outbox.cif.g08.bks.cpg/sg135_4_cif.got.tgz:6666.got - 2010.05.20 12:50:20.
