data_PCOD9568282
_publ_section_title
;
Structure prediction by ZEFSAII (Michael W. Deem and Ramdas Pophale) SiO2 
 PCOD9568282
Probable space group: P 42/N N M
;
_chemical_formula_sum "Si O2"
_cell_formula_units_Z 72
_cell_length_a 16.308039
_cell_length_b 16.308039
_cell_length_c 16.183562
_cell_angle_alpha 90.000000
_cell_angle_beta 90.000000
_cell_angle_gamma 90.000000
_cell_volume 4304.052882
_symmetry_space_group_name_H-M "P 42/N N M"
_symmetry_group_IT_number 134
_space_group.IT_coordinate_system_code '2'
_symmetry_cell_setting 'tetragonal'
loop_
_space_group_symop_operation_xyz
x,y,z
1/2-y,x,1/2+z
1/2-x,1/2-y,z
y,1/2-x,1/2+z
x,1/2-y,1/2-z
1/2-x,y,1/2-z
y,x,-z
1/2-y,1/2-x,-z
-x,-y,-z
1/2+y,-x,1/2-z
1/2+x,1/2+y,-z
-y,1/2+x,1/2-z
-x,1/2+y,1/2+z
1/2+x,-y,1/2+z
-y,-x,z
1/2+y,1/2+x,z
loop_
_atom_site_type_symbol
_atom_site_label
_atom_site_fract_x
_atom_site_fract_y
_atom_site_fract_z
Si Si1 0.028698 0.263379 0.869426
Si Si2 0.055368 0.418503 0.178000
Si Si3 0.146551 0.325170 0.312549
Si Si4 0.385783 0.750000 0.250000
Si Si5 0.212353 0.412146 0.956710
O O1 0.037159 0.358964 0.845219
O O2 0.108618 0.216593 0.833528
O O3 0.946927 0.231629 0.825927
O O4 0.032343 0.257405 0.968013
O O5 0.074460 0.372785 0.264060
O O6 0.044240 0.351958 0.104988
O O7 0.982164 0.482164 0.182570
O O8 0.166650 0.250000 0.250000
O O9 0.120917 0.283931 0.398420
O O10 0.327009 0.672992 0.267339
O O11 0.162989 0.337011 0.000000
#
# Coordination Sequence:
#
# PCOD9568282 Si02
#       5
#    16  16  16   8  16
#     4  11  20  33  53  77 104 140 179 225 267 320
#     4  10  20  34  52  75 107 144 179 218 264 321
#     4  10  20  34  52  82 113 143 176 216 278 334
#     4  11  24  40  55  72 100 144 193 232 268 315
#     4   9  21  33  52  81 112 142 174 219 272 335
#
# _framework density 16.728418999999999
#
# number of rings (size 3 to 8) (size 9 to 14) (size 15 to 20)
#    0.000    1.889    2.222    1.333    0.000   20.000 
#    0.000    1.111    0.000    2.667    0.000    0.000 
#    0.000   21.778    0.000    0.000    0.000    0.000 
#
# Total GULP energy -401727.917672 kJ/mol
# GULP energy per Si atom -5579.554412 kJ/mol
# Density = 1.669034 g / cm^3
# Si number density = 16.728419 Si / 1000 Ang^3
#
#
#
# Elastic Constant Matrix: (Units=GPa)
#
#
# Indices 1 2 3 4 5 6 
#
# 1 93.3723 55.9168 43.0632 0.0000 0.0000 0.0000
# 2 55.9168 93.3723 43.0632 0.0000 0.0000 0.0000
# 3 43.0632 43.0632 130.0617 0.0000 0.0000 0.0000
# 4 0.0000 0.0000 0.0000 14.8079 0.0000 0.0000
# 5 0.0000 0.0000 0.0000 0.0000 14.8079 0.0000
# 6 0.0000 0.0000 0.0000 0.0000 0.0000 25.9474
#
#
#
# Elastic Compliance Matrix: (Units=1/GPa)
#
#
# Indices 1 2 3 4 5 6 
#
# 1 0.017489 -0.009209 -0.002741 0.000000 0.000000 0.000000
# 2 -0.009209 0.017489 -0.002741 0.000000 0.000000 0.000000
# 3 -0.002741 -0.002741 0.009504 0.000000 0.000000 0.000000
# 4 0.000000 0.000000 0.000000 0.067532 0.000000 0.000000
# 5 0.000000 0.000000 0.000000 0.000000 0.067532 0.000000
# 6 0.000000 0.000000 0.000000 0.000000 0.000000 0.038539
#
#
# Mechanical properties :
#
#
# Convention : Reuss Voigt Hill
#
# Bulk Modulus (GPa) = 66.23351 66.76587 66.49969
# Shear Modulus (GPa) = 19.80183 22.76353 21.28268
#
# Velocity S-wave (km/s) = 3.44426 3.69286 3.57073
# Velocity P-wave (km/s) = 7.44960 7.62766 7.53916
#
# Compressibility (1/GPa) = 0.01509810
#
# Stress axis : x y z
#
# Youngs Moduli (GPa) = 57.17828 57.17828 105.21814
#
# Poissons Ratio (x) = 0.52656 0.28846
# Poissons Ratio (y) = 0.52656 0.28846
# Poissons Ratio (z) = 0.15675 0.15675
#
# Static dielectric constant tensor:
#      x y z
#    x 1.565620 0.000000 0.000000 
#    y 0.000000 1.565620 0.000000 
#    z 0.000000 0.000000 1.593730 
# 
# From -- ./inp_files/7647.got.cif
#   From: 2010.05.17/outbox.cif.g08.bks.cpg/sg134_4_cif.got.tgz:7647.got - 2010.05.20 12:42:49.
