data_PCOD9568555
_publ_section_title
;
Structure prediction by ZEFSAII (Michael W. Deem and Ramdas Pophale) SiO2 
 PCOD9568555
Probable space group: P 42/N N M
;
_chemical_formula_sum "Si O2"
_cell_formula_units_Z 64
_cell_length_a 10.610806
_cell_length_b 10.610806
_cell_length_c 23.454476
_cell_angle_alpha 90.000000
_cell_angle_beta 90.000000
_cell_angle_gamma 90.000000
_cell_volume 2640.720782
_symmetry_space_group_name_H-M "P 42/N N M"
_symmetry_group_IT_number 134
_space_group.IT_coordinate_system_code '2'
_symmetry_cell_setting 'tetragonal'
loop_
_space_group_symop_operation_xyz
x,y,z
1/2-y,x,1/2+z
1/2-x,1/2-y,z
y,1/2-x,1/2+z
x,1/2-y,1/2-z
1/2-x,y,1/2-z
y,x,-z
1/2-y,1/2-x,-z
-x,-y,-z
1/2+y,-x,1/2-z
1/2+x,1/2+y,-z
-y,1/2+x,1/2-z
-x,1/2+y,1/2+z
1/2+x,-y,1/2+z
-y,-x,z
1/2+y,1/2+x,z
loop_
_atom_site_type_symbol
_atom_site_label
_atom_site_fract_x
_atom_site_fract_y
_atom_site_fract_z
Si Si1 0.256498 0.539402 0.962667
Si Si2 0.117129 0.315867 0.693823
Si Si3 0.244084 0.957823 0.415287
Si Si4 0.744825 0.453538 0.338596
O O1 0.394095 0.605906 0.960536
O O2 0.151719 0.651719 0.966169
O O3 0.230490 0.479715 0.900814
O O4 0.244283 0.471663 0.023602
O O5 0.250000 0.250000 0.684661
O O6 0.059753 0.250000 0.750000
O O7 0.167849 0.457651 0.699991
O O8 0.033058 0.291276 0.639101
O O9 0.109003 0.890998 0.405435
O O10 0.344773 0.844773 0.423012
O O11 0.611694 0.388307 0.321010
O O12 0.835991 0.335991 0.349495
#
# Coordination Sequence:
#
# PCOD9568555 Si02
#       4
#    16  16  16  16
#     4   7  12  27  55  91 122 145 182 242 303 360
#     4  11  25  41  54  76 117 164 203 249 303 356
#     4   9  18  35  61  91 122 156 192 234 293 369
#     4   9  18  37  66  92 113 147 202 262 312 360
#
# _framework density 24.235806
#
# number of rings (size 3 to 8) (size 9 to 14) (size 15 to 20)
#    0.000    3.000    0.000    3.750    0.000    4.000 
#    0.000   15.000    0.000   10.500    0.000    0.000 
#    0.000    0.000    0.000    0.000    0.000    0.000 
#
# Total GULP energy -356614.034112 kJ/mol
# GULP energy per Si atom -5572.094283 kJ/mol
# Density = 2.418064 g / cm^3
# Si number density = 24.235806 Si / 1000 Ang^3
#
#
#
# Elastic Constant Matrix: (Units=GPa)
#
#
# Indices 1 2 3 4 5 6 
#
# 1 62.9374 5.0424 41.3793 0.0000 0.0000 0.0000
# 2 5.0424 62.9374 41.3793 0.0000 0.0000 0.0000
# 3 41.3793 41.3793 156.9041 0.0000 0.0000 0.0000
# 4 0.0000 0.0000 0.0000 34.7761 0.0000 0.0000
# 5 0.0000 0.0000 0.0000 0.0000 34.7761 0.0000
# 6 0.0000 0.0000 0.0000 0.0000 0.0000 12.0912
#
#
#
# Elastic Compliance Matrix: (Units=1/GPa)
#
#
# Indices 1 2 3 4 5 6 
#
# 1 0.019470 0.002197 -0.005714 0.000000 0.000000 0.000000
# 2 0.002197 0.019470 -0.005714 0.000000 0.000000 0.000000
# 3 -0.005714 -0.005714 0.009387 0.000000 0.000000 0.000000
# 4 0.000000 0.000000 0.000000 0.028755 0.000000 0.000000
# 5 0.000000 0.000000 0.000000 0.000000 0.028755 0.000000
# 6 0.000000 0.000000 0.000000 0.000000 0.000000 0.082704
#
#
# Mechanical properties :
#
#
# Convention : Reuss Voigt Hill
#
# Bulk Modulus (GPa) = 33.48496 50.93122 42.20809
# Shear Modulus (GPa) = 23.04592 29.32720 26.18656
#
# Velocity S-wave (km/s) = 3.08702 3.48239 3.29065
# Velocity P-wave (km/s) = 5.15292 6.10163 5.64723
#
# Compressibility (1/GPa) = 0.02986416
#
# Stress axis : x y z
#
# Youngs Moduli (GPa) = 51.36234 51.36234 106.52897
#
# Poissons Ratio (x) = -0.11284 0.60870
# Poissons Ratio (y) = -0.11284 0.60870
# Poissons Ratio (z) = 0.29348 0.29348
#
# Static dielectric constant tensor:
#      x y z
#    x 1.974850 0.000000 0.000000 
#    y 0.000000 1.974850 0.000000 
#    z 0.000000 0.000000 2.032780 
# 
# From -- ./inp_files/9775.got.cif
#   From: 2010.05.17/outbox.cif.g08.bks.cpg/sg134_5_cif.got.tgz:9775.got - 2010.05.20 12:42:49.
