data_PCOD9568514
_publ_section_title
;
Structure prediction by ZEFSAII (Michael W. Deem and Ramdas Pophale) SiO2 
 PCOD9568514
Probable space group: P 42/N N M
;
_chemical_formula_sum "Si O2"
_cell_formula_units_Z 112
_cell_length_a 14.960113
_cell_length_b 14.960113
_cell_length_c 24.228884
_cell_angle_alpha 90.000000
_cell_angle_beta 90.000000
_cell_angle_gamma 90.000000
_cell_volume 5422.544923
_symmetry_space_group_name_H-M "P 42/N N M"
_symmetry_group_IT_number 134
_space_group.IT_coordinate_system_code '2'
_symmetry_cell_setting 'tetragonal'
loop_
_space_group_symop_operation_xyz
x,y,z
1/2-y,x,1/2+z
1/2-x,1/2-y,z
y,1/2-x,1/2+z
x,1/2-y,1/2-z
1/2-x,y,1/2-z
y,x,-z
1/2-y,1/2-x,-z
-x,-y,-z
1/2+y,-x,1/2-z
1/2+x,1/2+y,-z
-y,1/2+x,1/2-z
-x,1/2+y,1/2+z
1/2+x,-y,1/2+z
-y,-x,z
1/2+y,1/2+x,z
loop_
_atom_site_type_symbol
_atom_site_label
_atom_site_fract_x
_atom_site_fract_y
_atom_site_fract_z
Si Si1 0.464859 0.679294 0.292186
Si Si2 0.797630 0.987354 0.890329
Si Si3 0.473301 0.679213 0.583180
Si Si4 0.567348 0.286837 0.191077
Si Si5 0.573361 0.578385 0.208202
Si Si6 0.171894 0.181813 0.566051
Si Si7 0.997007 0.143285 0.006599
O O1 0.422861 0.750000 0.250000
O O2 0.407700 0.592301 0.299254
O O3 0.464122 0.731506 0.348979
O O4 0.554964 0.645752 0.259680
O O5 0.871328 0.946515 0.849151
O O6 0.735639 0.913950 0.917396
O O7 0.837733 0.032375 0.943976
O O8 0.404249 0.595751 0.568059
O O9 0.441654 0.715108 0.642726
O O10 0.580038 0.659685 0.587284
O O11 0.479506 0.766242 0.541714
O O12 0.598121 0.250000 0.250000
O O13 0.636808 0.363193 0.172634
O O14 0.471538 0.333092 0.203241
O O15 0.499442 0.500559 0.213608
O O16 0.250000 0.250000 0.585764
O O17 0.177265 0.177265 0.500000
O O18 0.935076 0.064925 0.031376
O O19 0.097046 0.097046 0.000000
#
# Coordination Sequence:
#
# PCOD9568514 Si02
#       7
#    16  16  16  16  16  16  16
#     4   9  20  37  59  88 125 166 205 258 319 383
#     4  11  21  37  63  93 125 160 210 262 319 382
#     4  12  27  44  65  96 134 171 212 272 337 388
#     4  11  24  42  66  91 122 168 215 260 315 384
#     4   9  19  39  64  91 123 161 211 262 312 374
#     4  11  23  42  67  93 128 171 214 262 319 392
#     4  11  23  42  69  96 126 172 226 274 326 397
#
# _framework density 20.654509000000001
#
# number of rings (size 3 to 8) (size 9 to 14) (size 15 to 20)
#    0.000    1.429    1.429    3.857    2.000    6.286 
#    0.000    0.000    0.000    0.000    0.000    0.000 
#    0.000    0.000    0.000    0.000    0.000    0.000 
#
# Total GULP energy -623561.867562 kJ/mol
# GULP energy per Si atom -5567.516675 kJ/mol
# Density = 2.060750 g / cm^3
# Si number density = 20.654509 Si / 1000 Ang^3
#
#
#
# Elastic Constant Matrix: (Units=GPa)
#
#
# Indices 1 2 3 4 5 6 
#
# 1 48.0642 98.1679 20.1325 0.0000 0.0000 0.0000
# 2 98.1679 48.0642 20.1325 0.0000 0.0000 0.0000
# 3 20.1325 20.1325 81.5371 0.0000 0.0000 0.0000
# 4 0.0000 0.0000 0.0000 14.2512 0.0000 0.0000
# 5 0.0000 0.0000 0.0000 0.0000 14.2512 0.0000
# 6 0.0000 0.0000 0.0000 0.0000 0.0000 35.4712
#
#
#
# Elastic Compliance Matrix: (Units=1/GPa)
#
#
# Indices 1 2 3 4 5 6 
#
# 1 -0.006311 0.013648 -0.001812 0.000000 0.000000 0.000000
# 2 0.013648 -0.006311 -0.001812 0.000000 0.000000 0.000000
# 3 -0.001812 -0.001812 0.013159 0.000000 0.000000 0.000000
# 4 0.000000 0.000000 0.000000 0.070169 0.000000 0.000000
# 5 0.000000 0.000000 0.000000 0.000000 0.070169 0.000000
# 6 0.000000 0.000000 0.000000 0.000000 0.000000 0.028192
#
#
# Mechanical properties :
#
#
# Convention : Reuss Voigt Hill
#
# Bulk Modulus (GPa) = 48.57454 50.50346 49.53900
# Shear Modulus (GPa) = 32.07569 15.41026 23.74297
#
# Velocity S-wave (km/s) = 3.94504 2.73444 3.39415
# Velocity P-wave (km/s) = 6.65731 5.87147 6.27670
#
# Compressibility (1/GPa) = 0.02058692
#
# Stress axis : x y z
#
# Youngs Moduli (GPa) = -158.46189 -158.46189 75.99365
#
# Poissons Ratio (x) = 2.16268 0.13767
# Poissons Ratio (y) = 2.16268 0.13767
# Poissons Ratio (z) = -0.28708 -0.28708
#
# Static dielectric constant tensor:
#      x y z
#    x 1.773350 0.000000 0.000000 
#    y 0.000000 1.773350 0.000000 
#    z 0.000000 0.000000 1.666400 
# 
# From -- ./inp_files/10104.got.cif
#   From: 2010.05.17/outbox.cif.g08.bks.cpg/sg134_6_cif.got.tgz:10104.got - 2010.05.20 12:42:49.
