data_PCOD9568322
_publ_section_title
;
Structure prediction by ZEFSAII (Michael W. Deem and Ramdas Pophale) SiO2 
 PCOD9568322
Probable space group: P 42/N N M
;
_chemical_formula_sum "Si O2"
_cell_formula_units_Z 72
_cell_length_a 17.535993
_cell_length_b 17.535993
_cell_length_c 12.159445
_cell_angle_alpha 90.000000
_cell_angle_beta 90.000000
_cell_angle_gamma 90.000000
_cell_volume 3739.163705
_symmetry_space_group_name_H-M "P 42/N N M"
_symmetry_group_IT_number 134
_space_group.IT_coordinate_system_code '2'
_symmetry_cell_setting 'tetragonal'
loop_
_space_group_symop_operation_xyz
x,y,z
1/2-y,x,1/2+z
1/2-x,1/2-y,z
y,1/2-x,1/2+z
x,1/2-y,1/2-z
1/2-x,y,1/2-z
y,x,-z
1/2-y,1/2-x,-z
-x,-y,-z
1/2+y,-x,1/2-z
1/2+x,1/2+y,-z
-y,1/2+x,1/2-z
-x,1/2+y,1/2+z
1/2+x,-y,1/2+z
-y,-x,z
1/2+y,1/2+x,z
loop_
_atom_site_type_symbol
_atom_site_label
_atom_site_fract_x
_atom_site_fract_y
_atom_site_fract_z
Si Si1 0.331553 0.954700 0.808715
Si Si2 0.290585 0.982469 0.051618
Si Si3 0.872095 0.250000 0.750000
Si Si4 0.418916 0.454867 0.312222
Si Si5 0.117647 0.004765 0.062601
O O1 0.250000 0.954018 0.750000
O O2 0.387646 0.887646 0.767401
O O3 0.377043 0.034387 0.796160
O O4 0.320349 0.946703 0.939422
O O5 0.280482 0.922104 0.149920
O O6 0.350910 0.043295 0.099786
O O7 0.205094 0.011011 0.028634
O O8 0.817850 0.182151 0.790178
O O9 0.481304 0.518697 0.347217
O O10 0.387895 0.479963 0.193019
O O11 0.066070 0.066070 0.000000
O O12 0.076838 0.923163 0.040399
#
# Coordination Sequence:
#
# PCOD9568322 Si02
#       5
#    16  16   8  16  16
#     4  11  25  42  62  88 122 163 206 252 306 377
#     4  12  21  37  62  89 121 156 205 254 311 364
#     4  11  22  34  54  90 127 154 188 244 309 366
#     4  10  20  38  61  87 116 154 206 254 300 364
#     4  10  20  35  59  89 123 161 205 254 308 370
#
# _framework density 19.255644
#
# number of rings (size 3 to 8) (size 9 to 14) (size 15 to 20)
#    0.000    1.222    2.222    4.667    0.000    5.556 
#    0.000    0.000    0.000   13.333    0.000    0.000 
#    0.000    0.000    0.000    0.000    0.000    0.000 
#
# Total GULP energy -402328.168357 kJ/mol
# GULP energy per Si atom -5587.891227 kJ/mol
# Density = 1.921182 g / cm^3
# Si number density = 19.255644 Si / 1000 Ang^3
#
#
#
# Elastic Constant Matrix: (Units=GPa)
#
#
# Indices 1 2 3 4 5 6 
#
# 1 110.7000 45.2860 6.7958 0.0000 0.0000 0.0000
# 2 45.2860 110.7000 6.7958 0.0000 0.0000 0.0000
# 3 6.7958 6.7958 54.7580 0.0000 0.0000 0.0000
# 4 0.0000 0.0000 0.0000 23.8041 0.0000 0.0000
# 5 0.0000 0.0000 0.0000 0.0000 23.8041 0.0000
# 6 0.0000 0.0000 0.0000 0.0000 0.0000 24.5962
#
#
#
# Elastic Compliance Matrix: (Units=1/GPa)
#
#
# Indices 1 2 3 4 5 6 
#
# 1 0.010884 -0.004403 -0.000804 0.000000 0.000000 0.000000
# 2 -0.004403 0.010884 -0.000804 0.000000 0.000000 0.000000
# 3 -0.000804 -0.000804 0.018462 0.000000 0.000000 0.000000
# 4 0.000000 0.000000 0.000000 0.042010 0.000000 0.000000
# 5 0.000000 0.000000 0.000000 0.000000 0.042010 0.000000
# 6 0.000000 0.000000 0.000000 0.000000 0.000000 0.040657
#
#
# Mechanical properties :
#
#
# Convention : Reuss Voigt Hill
#
# Bulk Modulus (GPa) = 35.45301 43.76815 39.61058
# Shear Modulus (GPa) = 26.83390 28.92625 27.88007
#
# Velocity S-wave (km/s) = 3.73709 3.88006 3.80924
# Velocity P-wave (km/s) = 6.08875 6.54618 6.32160
#
# Compressibility (1/GPa) = 0.02820635
#
# Stress axis : x y z
#
# Youngs Moduli (GPa) = 91.87736 91.87736 54.16584
#
# Poissons Ratio (x) = 0.40455 0.04357
# Poissons Ratio (y) = 0.40455 0.04357
# Poissons Ratio (z) = 0.07390 0.07390
#
# Static dielectric constant tensor:
#      x y z
#    x 1.680980 0.000000 0.000000 
#    y 0.000000 1.680980 0.000000 
#    z 0.000000 0.000000 1.675670 
# 
# From -- ./inp_files/4742.got.cif
#   From: 2010.05.17/outbox.cif.g08.bks.cpg/sg134_3_cif.got.tgz:4742.got - 2010.05.20 12:42:49.
