data_PCOD9568084
_publ_section_title
;
Structure prediction by ZEFSAII (Michael W. Deem and Ramdas Pophale) SiO2 
 PCOD9568084
Probable space group: P 42/N N M
;
_chemical_formula_sum "Si O2"
_cell_formula_units_Z 128
_cell_length_a 15.744573
_cell_length_b 15.744573
_cell_length_c 23.080072
_cell_angle_alpha 90.000000
_cell_angle_beta 90.000000
_cell_angle_gamma 90.000000
_cell_volume 5721.355490
_symmetry_space_group_name_H-M "P 42/N N M"
_symmetry_group_IT_number 134
_space_group.IT_coordinate_system_code '2'
_symmetry_cell_setting 'tetragonal'
loop_
_space_group_symop_operation_xyz
x,y,z
1/2-y,x,1/2+z
1/2-x,1/2-y,z
y,1/2-x,1/2+z
x,1/2-y,1/2-z
1/2-x,y,1/2-z
y,x,-z
1/2-y,1/2-x,-z
-x,-y,-z
1/2+y,-x,1/2-z
1/2+x,1/2+y,-z
-y,1/2+x,1/2-z
-x,1/2+y,1/2+z
1/2+x,-y,1/2+z
-y,-x,z
1/2+y,1/2+x,z
loop_
_atom_site_type_symbol
_atom_site_label
_atom_site_fract_x
_atom_site_fract_y
_atom_site_fract_z
Si Si1 0.422824 0.354560 0.054974
Si Si2 0.442331 0.079727 0.862570
Si Si3 0.921405 0.214311 0.996635
Si Si4 0.342292 0.985719 0.382798
Si Si5 0.196483 0.934526 0.611762
Si Si6 0.330842 0.193671 0.068049
Si Si7 0.467300 0.673150 0.794522
Si Si8 0.395975 0.040699 0.270548
O O1 0.513993 0.354595 0.025177
O O2 0.396545 0.434099 0.093197
O O3 0.405287 0.261675 0.080346
O O4 0.359291 0.359291 0.000000
O O5 0.395251 0.151169 0.900758
O O6 0.451703 0.116641 0.797952
O O7 0.530713 0.030713 0.878892
O O8 0.371856 0.003946 0.866124
O O9 0.828892 0.171109 0.995295
O O10 0.929581 0.290688 0.042078
O O11 0.957965 0.225987 0.931564
O O12 0.323899 0.012496 0.316444
O O13 0.405112 0.905112 0.382349
O O14 0.155528 0.844473 0.629376
O O15 0.286265 0.946344 0.643516
O O16 0.250000 0.250000 0.086681
O O17 0.325905 0.174096 0.000000
O O18 0.463907 0.750000 0.750000
O O19 0.397579 0.602422 0.779980
O O20 0.558393 0.627710 0.790451
O O21 0.468044 0.968044 0.276670
#
# Coordination Sequence:
#
# PCOD9568084 Si02
#       8
#    16  16  16  16  16  16  16  16
#     4  10  17  31  51  77 105 141 175 233 286 344
#     4  10  21  38  59  82 111 149 200 253 303 363
#     4  10  19  30  48  77 110 147 191 235 284 339
#     4   9  18  30  51  80 108 141 187 233 293 353
#     4  11  21  33  48  74 114 160 200 236 283 344
#     4  11  22  38  59  84 107 149 197 245 306 374
#     4  11  20  29  43  68 107 157 203 234 265 321
#     4   9  18  33  51  76 106 142 190 243 292 348
#
# _framework density 22.372322
#
# number of rings (size 3 to 8) (size 9 to 14) (size 15 to 20)
#    0.000    1.875    3.750    1.875    0.000    4.375 
#    0.000    0.000    0.000    1.500    0.000    0.000 
#    0.000    0.000    0.000    1.375    0.000   10.375 
#
# Total GULP energy -713471.632305 kJ/mol
# GULP energy per Si atom -5573.997127 kJ/mol
# Density = 2.232140 g / cm^3
# Si number density = 22.372322 Si / 1000 Ang^3
#
#
#
# Elastic Constant Matrix: (Units=GPa)
#
#
# Indices 1 2 3 4 5 6 
#
# 1 41.1902 32.8059 32.4267 0.0000 0.0000 0.0000
# 2 32.8059 41.1901 32.4267 0.0000 0.0000 0.0000
# 3 32.4267 32.4267 134.2547 0.0000 0.0000 0.0000
# 4 0.0000 0.0000 0.0000 26.6894 0.0000 0.0000
# 5 0.0000 0.0000 0.0000 0.0000 26.6893 0.0000
# 6 0.0000 0.0000 0.0000 0.0000 0.0000 25.1217
#
#
#
# Elastic Compliance Matrix: (Units=1/GPa)
#
#
# Indices 1 2 3 4 5 6 
#
# 1 0.068207 -0.051064 -0.004141 0.000000 0.000000 0.000000
# 2 -0.051064 0.068207 -0.004141 0.000000 0.000000 0.000000
# 3 -0.004141 -0.004141 0.009449 0.000000 0.000000 0.000000
# 4 0.000000 0.000000 0.000000 0.037468 0.000000 0.000000
# 5 0.000000 0.000000 0.000000 0.000000 0.037468 0.000000
# 6 0.000000 0.000000 0.000000 0.000000 0.000000 0.039806
#
#
# Mechanical properties :
#
#
# Convention : Reuss Voigt Hill
#
# Bulk Modulus (GPa) = 36.80162 45.77263 41.28713
# Shear Modulus (GPa) = 12.87490 23.63179 18.25334
#
# Velocity S-wave (km/s) = 2.40153 3.25360 2.85948
# Velocity P-wave (km/s) = 4.91682 5.88374 5.42188
#
# Compressibility (1/GPa) = 0.02717271
#
# Stress axis : x y z
#
# Youngs Moduli (GPa) = 14.66129 14.66124 105.83446
#
# Poissons Ratio (x) = 0.74866 0.43822
# Poissons Ratio (y) = 0.74866 0.43822
# Poissons Ratio (z) = 0.06071 0.06071
#
# Static dielectric constant tensor:
#      x y z
#    x 1.895300 0.000000 0.000000 
#    y 0.000000 1.895300 0.000000 
#    z 0.000000 0.000000 1.906000 
# 
# From -- ./inp_files/10299.got.cif
#   From: 2010.05.17/outbox.cif.g08.bks.cpg/sg134_6_cif.got.tgz:10299.got - 2010.05.20 12:42:49.
