data_PCOD9568654
_publ_section_title
;
Structure prediction by ZEFSAII (Michael W. Deem and Ramdas Pophale) SiO2 
 PCOD9568654
Probable space group: P 42/M B C
;
_chemical_formula_sum "Si O2"
_cell_formula_units_Z 96
_cell_length_a 25.839049
_cell_length_b 25.839049
_cell_length_c 9.025993
_cell_angle_alpha 90.000000
_cell_angle_beta 90.000000
_cell_angle_gamma 90.000000
_cell_volume 6026.262473
_symmetry_space_group_name_H-M "P 42/M B C"
_symmetry_group_IT_number 135
_symmetry_cell_setting 'tetragonal'
loop_
_space_group_symop_operation_xyz
x,y,z
-y,x,1/2+z
-x,-y,z
y,-x,1/2+z
1/2+x,1/2-y,-z
1/2-x,1/2+y,-z
1/2+y,1/2+x,1/2-z
1/2-y,1/2-x,1/2-z
-x,-y,-z
y,-x,1/2-z
x,y,-z
-y,x,1/2-z
1/2-x,1/2+y,z
1/2+x,1/2-y,z
1/2-y,1/2-x,1/2+z
1/2+y,1/2+x,1/2+z
loop_
_atom_site_type_symbol
_atom_site_label
_atom_site_fract_x
_atom_site_fract_y
_atom_site_fract_z
Si Si1 0.113885 0.196195 0.325304
Si Si2 0.498701 0.300360 0.325447
Si Si3 0.888764 0.690657 0.177974
Si Si4 0.114743 0.811701 0.324849
Si Si5 0.389452 0.188810 0.323531
Si Si6 0.690117 0.995138 0.324997
O O1 0.121323 0.204977 0.500000
O O2 0.055012 0.174978 0.304537
O O3 0.117179 0.251410 0.242854
O O4 0.155404 0.155990 0.264588
O O5 0.495991 0.283478 0.500000
O O6 0.444790 0.329335 0.297653
O O7 0.497903 0.250425 0.220865
O O8 0.846619 0.653381 0.250000
O O9 0.947173 0.670789 0.213174
O O10 0.883736 0.692378 0.000000
O O11 0.125341 0.817227 0.500000
O O12 0.116543 0.750225 0.289585
O O13 0.344193 0.155808 0.250000
O O14 0.388331 0.183384 0.500000
O O15 0.445073 0.170113 0.261800
O O16 0.684333 0.986986 0.500000
#
# Coordination Sequence:
#
# PCOD9568654 Si02
#       6
#    16  16  16  16  16  16
#     4  10  19  31  49  72  97 125 158 196 238 283
#     4   8  16  31  48  66  91 124 159 194 233 278
#     4  10  20  33  50  72  98 128 159 193 234 280
#     4   9  18  32  48  68  96 127 158 194 236 281
#     4  10  20  33  50  71  97 128 159 194 236 281
#     4   9  17  30  49  71  93 120 158 197 232 275
#
# _framework density 15.930272
#
# number of rings (size 3 to 8) (size 9 to 14) (size 15 to 20)
#    0.000    2.667    0.000    3.000    0.000    6.667 
#    0.000    1.667    0.000    1.000    0.000    7.000 
#    0.000    0.000    0.000    0.000    0.000    0.000 
#
# Total GULP energy -534451.421351 kJ/mol
# GULP energy per Si atom -5567.202306 kJ/mol
# Density = 1.589401 g / cm^3
# Si number density = 15.930272 Si / 1000 Ang^3
#
#
#
# Elastic Constant Matrix: (Units=GPa)
#
#
# Indices 1 2 3 4 5 6 
#
# 1 92.6988 64.8763 53.7757 0.0000 0.0000 0.0000
# 2 64.8763 92.6913 53.7737 0.0000 0.0000 0.0000
# 3 53.7757 53.7737 63.6367 0.0000 0.0000 0.0000
# 4 0.0000 0.0000 0.0000 24.9048 0.0000 0.0000
# 5 0.0000 0.0000 0.0000 0.0000 24.9054 0.0000
# 6 0.0000 0.0000 0.0000 0.0000 0.0000 -3.3633
#
#
#
# Elastic Compliance Matrix: (Units=1/GPa)
#
#
# Indices 1 2 3 4 5 6 
#
# 1 0.025470 -0.010476 -0.012671 0.000000 0.000000 0.000000
# 2 -0.010476 0.025472 -0.012671 0.000000 0.000000 0.000000
# 3 -0.012671 -0.012671 0.037129 0.000000 0.000000 0.000000
# 4 0.000000 0.000000 0.000000 0.040153 0.000000 0.000000
# 5 0.000000 0.000000 0.000000 0.000000 0.040152 0.000000
# 6 0.000000 0.000000 0.000000 0.000000 0.000000 -0.297325
#
#
# Mechanical properties :
#
#
# Convention : Reuss Voigt Hill
#
# Bulk Modulus (GPa) = 60.84774 65.98645 63.41709
# Shear Modulus (GPa) = -96.46024 14.39612 -41.03206
#
# Velocity S-wave (km/s) = -7.78993 3.00941 -5.08067
# Velocity P-wave (km/s) = 6.52927 7.32034 2.34051
#
# Compressibility (1/GPa) = 0.01643446
#
# Stress axis : x y z
#
# Youngs Moduli (GPa) = 39.26210 39.25871 26.93308
#
# Poissons Ratio (x) = 0.41128 0.34126
# Poissons Ratio (y) = 0.41131 0.34128
# Poissons Ratio (z) = 0.49748 0.49747
#
# Static dielectric constant tensor:
#      x y z
#    x 1.533210 0.000000 0.000000 
#    y 0.000000 1.533210 0.000000 
#    z 0.000000 0.000000 1.531470 
# 
# From -- ./inp_files/1212.got.cif
#   From: 2010.05.17/outbox.cif.g08.bks.cpg/sg135_1_cif.got.tgz:1212.got - 2010.05.20 12:50:20.
