data_PCOD9568683
_publ_section_title
;
Structure prediction by ZEFSAII (Michael W. Deem and Ramdas Pophale) SiO2 
 PCOD9568683
Probable space group: P 42/M B C
;
_chemical_formula_sum "Si O2"
_cell_formula_units_Z 64
_cell_length_a 13.655481
_cell_length_b 13.655481
_cell_length_c 17.398674
_cell_angle_alpha 90.000000
_cell_angle_beta 90.000000
_cell_angle_gamma 90.000000
_cell_volume 3244.368345
_symmetry_space_group_name_H-M "P 42/M B C"
_symmetry_group_IT_number 135
_symmetry_cell_setting 'tetragonal'
loop_
_space_group_symop_operation_xyz
x,y,z
-y,x,1/2+z
-x,-y,z
y,-x,1/2+z
1/2+x,1/2-y,-z
1/2-x,1/2+y,-z
1/2+y,1/2+x,1/2-z
1/2-y,1/2-x,1/2-z
-x,-y,-z
y,-x,1/2-z
x,y,-z
-y,x,1/2-z
1/2-x,1/2+y,z
1/2+x,1/2-y,z
1/2-y,1/2-x,1/2+z
1/2+y,1/2+x,1/2+z
loop_
_atom_site_type_symbol
_atom_site_label
_atom_site_fract_x
_atom_site_fract_y
_atom_site_fract_z
Si Si1 0.220609 0.113929 0.175438
Si Si2 0.243146 0.388469 0.793866
Si Si3 0.525521 0.393680 0.090856
Si Si4 0.262971 0.657122 0.407893
O O1 0.167400 0.174384 0.243077
O O2 0.137979 0.122075 0.109807
O O3 0.316099 0.166526 0.140695
O O4 0.240823 0.003346 0.199804
O O5 0.144579 0.355422 0.750000
O O6 0.260893 0.340815 0.877920
O O7 0.500000 0.500000 0.126509
O O8 0.448090 0.310363 0.113552
O O9 0.512638 0.400567 0.000000
O O10 0.248691 0.661393 0.500000
#
# Coordination Sequence:
#
# PCOD9568683 Si02
#       4
#    16  16  16  16
#     4  11  21  36  60  86 124 163 200 250 314 363
#     4  10  22  36  57  91 120 159 204 254 307 371
#     4  10  19  33  58  90 120 159 211 253 295 356
#     4  10  21  36  56  88 124 158 207 259 303 359
#
# _framework density 19.726490999999999
#
# number of rings (size 3 to 8) (size 9 to 14) (size 15 to 20)
#    0.000    1.750    2.500    2.250    0.000    1.000 
#    0.000    0.000    0.000   35.250    0.000   24.500 
#    0.000    0.000    0.000    0.000    0.000    0.000 
#
# Total GULP energy -356806.935095 kJ/mol
# GULP energy per Si atom -5575.108361 kJ/mol
# Density = 1.968159 g / cm^3
# Si number density = 19.726491 Si / 1000 Ang^3
#
#
#
# Elastic Constant Matrix: (Units=GPa)
#
#
# Indices 1 2 3 4 5 6 
#
# 1 109.3677 73.4249 30.0833 0.0000 0.0000 0.0000
# 2 73.4249 109.3631 30.0843 0.0000 0.0000 0.0000
# 3 30.0833 30.0843 47.1731 0.0000 0.0000 0.0000
# 4 0.0000 0.0000 0.0000 21.5178 0.0000 0.0000
# 5 0.0000 0.0000 0.0000 0.0000 21.5181 0.0000
# 6 0.0000 0.0000 0.0000 0.0000 0.0000 30.3511
#
#
#
# Elastic Compliance Matrix: (Units=1/GPa)
#
#
# Indices 1 2 3 4 5 6 
#
# 1 0.017373 -0.010450 -0.004415 0.000000 0.000000 0.000000
# 2 -0.010450 0.017375 -0.004416 0.000000 0.000000 0.000000
# 3 -0.004415 -0.004416 0.026831 0.000000 0.000000 0.000000
# 4 0.000000 0.000000 0.000000 0.046473 0.000000 0.000000
# 5 0.000000 0.000000 0.000000 0.000000 0.046473 0.000000
# 6 0.000000 0.000000 0.000000 0.000000 0.000000 0.032948
#
#
# Mechanical properties :
#
#
# Convention : Reuss Voigt Hill
#
# Bulk Modulus (GPa) = 43.44811 59.23211 51.34011
# Shear Modulus (GPa) = 21.39430 23.49814 22.44622
#
# Velocity S-wave (km/s) = 3.29682 3.45512 3.37690
# Velocity P-wave (km/s) = 6.04691 6.78299 6.42550
#
# Compressibility (1/GPa) = 0.02301596
#
# Stress axis : x y z
#
# Youngs Moduli (GPa) = 57.55906 57.55532 37.27067
#
# Poissons Ratio (x) = 0.60144 0.16456
# Poissons Ratio (y) = 0.60148 0.16461
# Poissons Ratio (z) = 0.25413 0.25419
#
# Static dielectric constant tensor:
#      x y z
#    x 1.727330 0.000000 0.000000 
#    y 0.000000 1.727340 0.000000 
#    z 0.000000 0.000000 1.775050 
# 
# From -- ./inp_files/4141.got.cif
#   From: 2010.05.17/outbox.cif.g08.bks.cpg/sg135_3_cif.got.tgz:4141.got - 2010.05.20 12:50:20.
