data_PCOD9568810
_publ_section_title
;
Structure prediction by ZEFSAII (Michael W. Deem and Ramdas Pophale) SiO2 
 PCOD9568810
Probable space group: P 42/M B C
;
_chemical_formula_sum "Si O2"
_cell_formula_units_Z 80
_cell_length_a 10.101974
_cell_length_b 10.101974
_cell_length_c 27.698369
_cell_angle_alpha 90.000000
_cell_angle_beta 90.000000
_cell_angle_gamma 90.000000
_cell_volume 2826.615197
_symmetry_space_group_name_H-M "P 42/M B C"
_symmetry_group_IT_number 135
_symmetry_cell_setting 'tetragonal'
loop_
_space_group_symop_operation_xyz
x,y,z
-y,x,1/2+z
-x,-y,z
y,-x,1/2+z
1/2+x,1/2-y,-z
1/2-x,1/2+y,-z
1/2+y,1/2+x,1/2-z
1/2-y,1/2-x,1/2-z
-x,-y,-z
y,-x,1/2-z
x,y,-z
-y,x,1/2-z
1/2-x,1/2+y,z
1/2+x,1/2-y,z
1/2-y,1/2-x,1/2+z
1/2+y,1/2+x,1/2+z
loop_
_atom_site_type_symbol
_atom_site_label
_atom_site_fract_x
_atom_site_fract_y
_atom_site_fract_z
Si Si1 0.919135 0.614758 0.055842
Si Si2 0.032584 0.252598 0.295409
Si Si3 0.406003 0.607909 0.875012
Si Si4 0.782764 0.418813 0.689661
Si Si5 0.228251 0.691549 0.556293
O O1 0.033086 0.727379 0.054704
O O2 0.000000 0.500000 0.080969
O O3 0.771853 0.641859 0.072313
O O4 0.898312 0.575169 0.000000
O O5 0.962622 0.137834 0.325596
O O6 0.935800 0.373508 0.312143
O O7 0.002714 0.257526 0.238459
O O8 0.186448 0.212134 0.305632
O O9 0.500000 0.500000 0.899979
O O10 0.490501 0.733585 0.854583
O O11 0.276090 0.636206 0.907388
O O12 0.201510 0.730245 0.500000
#
# Coordination Sequence:
#
# PCOD9568810 Si02
#       5
#    16  16  16  16  16
#     4   9  20  41  66  92 128 175 223 278 340 394
#     4  10  20  38  62  89 123 165 209 266 325 391
#     4  10  22  37  62  92 121 166 219 262 321 401
#     4  10  20  38  64  89 124 165 213 265 327 394
#     4  10  22  40  62  92 131 171 218 275 332 396
#
# _framework density 28.302399999999999
#
# number of rings (size 3 to 8) (size 9 to 14) (size 15 to 20)
#    0.000    2.200    2.000    0.000    2.800    2.000 
#    3.600    5.000    0.000    0.000    0.000    0.000 
#    0.000    0.000    0.000    0.000    0.000    0.000 
#
# Total GULP energy -446031.188690 kJ/mol
# GULP energy per Si atom -5575.389859 kJ/mol
# Density = 2.823798 g / cm^3
# Si number density = 28.302400 Si / 1000 Ang^3
#
#
#
# Elastic Constant Matrix: (Units=GPa)
#
#
# Indices 1 2 3 4 5 6 
#
# 1 84.7909 73.6800 -1.2234 0.0000 0.0000 0.0000
# 2 73.6800 84.7909 -1.2234 0.0000 0.0000 0.0000
# 3 -1.2234 -1.2234 141.9882 0.0000 0.0000 0.0000
# 4 0.0000 0.0000 0.0000 10.1710 0.0000 0.0000
# 5 0.0000 0.0000 0.0000 0.0000 10.1710 0.0000
# 6 0.0000 0.0000 0.0000 0.0000 0.0000 58.9584
#
#
#
# Elastic Compliance Matrix: (Units=1/GPa)
#
#
# Indices 1 2 3 4 5 6 
#
# 1 0.048156 -0.041845 0.000054 0.000000 0.000000 0.000000
# 2 -0.041845 0.048156 0.000054 0.000000 0.000000 0.000000
# 3 0.000054 0.000054 0.007044 0.000000 0.000000 0.000000
# 4 0.000000 0.000000 0.000000 0.098319 0.000000 0.000000
# 5 0.000000 0.000000 0.000000 0.000000 0.098319 0.000000
# 6 0.000000 0.000000 0.000000 0.000000 0.000000 0.016961
#
#
# Mechanical properties :
#
#
# Convention : Reuss Voigt Hill
#
# Bulk Modulus (GPa) = 50.29275 50.44849 50.37062
# Shear Modulus (GPa) = 12.28333 31.88254 22.08293
#
# Velocity S-wave (km/s) = 2.08553 3.35997 2.79633
# Velocity P-wave (km/s) = 4.85877 5.73725 5.31619
#
# Compressibility (1/GPa) = 0.01988358
#
# Stress axis : x y z
#
# Youngs Moduli (GPa) = 20.76567 20.76567 141.96934
#
# Poissons Ratio (x) = 0.86894 -0.00772
# Poissons Ratio (y) = 0.86894 -0.00772
# Poissons Ratio (z) = -0.00113 -0.00113
#
# Static dielectric constant tensor:
#      x y z
#    x 2.379550 0.000000 0.000000 
#    y 0.000000 2.379550 0.000000 
#    z 0.000000 0.000000 2.161960 
# 
# From -- ./inp_files/6721.got.cif
#   From: 2010.05.17/outbox.cif.g08.bks.cpg/sg135_4_cif.got.tgz:6721.got - 2010.05.20 12:50:20.
