data_PCOD9568802
_publ_section_title
;
Structure prediction by ZEFSAII (Michael W. Deem and Ramdas Pophale) SiO2 
 PCOD9568802
Probable space group: P 42/M B C
;
_chemical_formula_sum "Si O2"
_cell_formula_units_Z 88
_cell_length_a 13.737693
_cell_length_b 13.737693
_cell_length_c 20.429671
_cell_angle_alpha 90.000000
_cell_angle_beta 90.000000
_cell_angle_gamma 90.000000
_cell_volume 3855.573499
_symmetry_space_group_name_H-M "P 42/M B C"
_symmetry_group_IT_number 135
_symmetry_cell_setting 'tetragonal'
loop_
_space_group_symop_operation_xyz
x,y,z
-y,x,1/2+z
-x,-y,z
y,-x,1/2+z
1/2+x,1/2-y,-z
1/2-x,1/2+y,-z
1/2+y,1/2+x,1/2-z
1/2-y,1/2-x,1/2-z
-x,-y,-z
y,-x,1/2-z
x,y,-z
-y,x,1/2-z
1/2-x,1/2+y,z
1/2+x,1/2-y,z
1/2-y,1/2-x,1/2+z
1/2+y,1/2+x,1/2+z
loop_
_atom_site_type_symbol
_atom_site_label
_atom_site_fract_x
_atom_site_fract_y
_atom_site_fract_z
Si Si1 0.268440 0.102634 0.000000
Si Si2 0.222496 0.383338 0.500000
Si Si3 0.035346 0.693471 0.763859
Si Si4 0.859957 0.712055 0.144998
Si Si5 0.820502 0.943814 0.864279
Si Si6 0.236320 0.097806 0.500000
Si Si7 0.345472 0.642622 0.358944
O O1 0.206109 0.202998 0.000000
O O2 0.235251 0.050284 0.066034
O O3 0.376460 0.147977 0.000000
O O4 0.173159 0.381625 0.428781
O O5 0.281591 0.483235 0.500000
O O6 0.097990 0.597990 0.750000
O O7 0.038449 0.746369 0.694423
O O8 0.083425 0.772746 0.813196
O O9 0.935610 0.675540 0.801807
O O10 0.860403 0.832302 0.141926
O O11 0.753287 0.674767 0.162200
O O12 0.886627 0.040796 0.858000
O O13 0.190245 0.136082 0.566498
#
# Coordination Sequence:
#
# PCOD9568802 Si02
#       7
#     8   8  16  16  16   8  16
#     4  10  21  44  64  92 136 171 232 280 350 409
#     4  10  20  37  69  98 129 181 221 288 340 415
#     4  12  24  43  70  96 138 186 226 278 358 419
#     4  11  23  45  67 101 140 176 235 287 346 427
#     4  11  24  41  67 100 132 177 227 290 344 416
#     4  12  19  41  72  93 131 186 221 292 359 417
#     4  12  24  43  73  98 136 185 228 287 362 416
#
# _framework density 22.824100000000001
#
# number of rings (size 3 to 8) (size 9 to 14) (size 15 to 20)
#    0.000    0.727    7.273    1.636    0.000    0.727 
#    0.000    5.455    0.000    1.091    0.000    0.000 
#    0.000    0.000    0.000    0.000    0.000    0.000 
#
# Total GULP energy -491529.736070 kJ/mol
# GULP energy per Si atom -5585.565183 kJ/mol
# Density = 2.277215 g / cm^3
# Si number density = 22.824100 Si / 1000 Ang^3
#
#
#
# Elastic Constant Matrix: (Units=GPa)
#
#
# Indices 1 2 3 4 5 6 
#
# 1 84.4562 21.4135 26.2830 0.0000 0.0000 0.0000
# 2 21.4135 84.4562 26.2830 0.0000 0.0000 0.0000
# 3 26.2830 26.2830 159.9645 0.0000 0.0000 0.0000
# 4 0.0000 0.0000 0.0000 43.2578 0.0000 0.0000
# 5 0.0000 0.0000 0.0000 0.0000 43.2578 0.0000
# 6 0.0000 0.0000 0.0000 0.0000 0.0000 1.8586
#
#
#
# Elastic Compliance Matrix: (Units=1/GPa)
#
#
# Indices 1 2 3 4 5 6 
#
# 1 0.013073 -0.002789 -0.001690 0.000000 0.000000 0.000000
# 2 -0.002789 0.013073 -0.001690 0.000000 0.000000 0.000000
# 3 -0.001690 -0.001690 0.006807 0.000000 0.000000 0.000000
# 4 0.000000 0.000000 0.000000 0.023117 0.000000 0.000000
# 5 0.000000 0.000000 0.000000 0.000000 0.023117 0.000000
# 6 0.000000 0.000000 0.000000 0.000000 0.000000 0.538049
#
#
# Mechanical properties :
#
#
# Convention : Reuss Voigt Hill
#
# Bulk Modulus (GPa) = 48.50457 52.98177 50.74317
# Shear Modulus (GPa) = 7.85612 34.66799 21.26206
#
# Velocity S-wave (km/s) = 1.85728 3.90156 3.05546
# Velocity P-wave (km/s) = 5.08890 6.59998 5.89307
#
# Compressibility (1/GPa) = 0.02061662
#
# Stress axis : x y z
#
# Youngs Moduli (GPa) = 76.49104 76.49104 146.91451
#
# Poissons Ratio (x) = 0.21332 0.24826
# Poissons Ratio (y) = 0.21332 0.24826
# Poissons Ratio (z) = 0.12926 0.12926
#
# Static dielectric constant tensor:
#      x y z
#    x 1.904530 0.000000 0.000000 
#    y 0.000000 1.904530 0.000000 
#    z 0.000000 0.000000 1.845220 
# 
# From -- ./inp_files/5386.got.cif
#   From: 2010.05.17/outbox.cif.g08.bks.cpg/sg135_3_cif.got.tgz:5386.got - 2010.05.20 12:50:20.
