data_PCOD9568252
_publ_section_title
;
Structure prediction by ZEFSAII (Michael W. Deem and Ramdas Pophale) SiO2 
 PCOD9568252
Probable space group: P 42/N N M
;
_chemical_formula_sum "Si O2"
_cell_formula_units_Z 112
_cell_length_a 23.023691
_cell_length_b 23.023691
_cell_length_c 13.963956
_cell_angle_alpha 90.000000
_cell_angle_beta 90.000000
_cell_angle_gamma 90.000000
_cell_volume 7402.158285
_symmetry_space_group_name_H-M "P 42/N N M"
_symmetry_group_IT_number 134
_space_group.IT_coordinate_system_code '2'
_symmetry_cell_setting 'tetragonal'
loop_
_space_group_symop_operation_xyz
x,y,z
1/2-y,x,1/2+z
1/2-x,1/2-y,z
y,1/2-x,1/2+z
x,1/2-y,1/2-z
1/2-x,y,1/2-z
y,x,-z
1/2-y,1/2-x,-z
-x,-y,-z
1/2+y,-x,1/2-z
1/2+x,1/2+y,-z
-y,1/2+x,1/2-z
-x,1/2+y,1/2+z
1/2+x,-y,1/2+z
-y,-x,z
1/2+y,1/2+x,z
loop_
_atom_site_type_symbol
_atom_site_label
_atom_site_fract_x
_atom_site_fract_y
_atom_site_fract_z
Si Si1 0.406746 0.808320 0.295088
Si Si2 0.226780 0.868674 0.642517
Si Si3 0.325719 0.576708 0.990526
Si Si4 0.914705 0.985080 0.076049
Si Si5 0.563792 0.963514 0.208206
Si Si6 0.636302 0.038540 0.077044
Si Si7 0.626490 0.473681 0.638450
O O1 0.381550 0.750000 0.250000
O O2 0.357374 0.857374 0.297465
O O3 0.430118 0.800893 0.402556
O O4 0.456033 0.829474 0.221700
O O5 0.250000 0.860323 0.750000
O O6 0.188649 0.811352 0.614431
O O7 0.279596 0.888864 0.575034
O O8 0.182843 0.922967 0.633604
O O9 0.380323 0.619678 0.999269
O O10 0.354141 0.517397 0.949675
O O11 0.914961 0.959207 0.182786
O O12 0.937555 0.937555 0.000000
O O13 0.964254 0.035747 0.075542
O O14 0.531826 0.907322 0.166931
O O15 0.514355 0.014355 0.208574
O O16 0.614934 0.984412 0.138650
O O17 0.580353 0.080353 0.067868
O O18 0.653244 0.024245 0.967933
O O19 0.577755 0.422246 0.637988
#
# Coordination Sequence:
#
# PCOD9568252 Si02
#       7
#    16  16  16  16  16  16  16
#     4  10  20  32  44  58  78 107 145 186 224 261
#     4  11  22  34  46  60  82 115 155 195 231 265
#     4  10  20  32  45  61  81 108 146 188 228 269
#     4   9  16  27  43  62  83 105 132 172 222 275
#     4   9  15  24  41  63  83 102 128 164 209 264
#     4   9  17  28  42  60  82 107 137 175 216 260
#     4   9  16  27  43  62  82 103 130 168 216 267
#
# _framework density 15.130722
#
# number of rings (size 3 to 8) (size 9 to 14) (size 15 to 20)
#    0.000    2.429    0.000    3.429    0.000   10.286 
#    0.000    1.429    0.000    0.000    0.000    0.000 
#    0.000    0.000    0.000    0.000    0.000   45.000 
#
# Total GULP energy -623559.467363 kJ/mol
# GULP energy per Si atom -5567.495244 kJ/mol
# Density = 1.509628 g / cm^3
# Si number density = 15.130722 Si / 1000 Ang^3
#
#
#
# Elastic Constant Matrix: (Units=GPa)
#
#
# Indices 1 2 3 4 5 6 
#
# 1 26.3864 29.0009 25.0303 0.0000 0.0000 0.0000
# 2 29.0009 26.3864 25.0303 0.0000 0.0000 0.0000
# 3 25.0303 25.0303 97.8707 0.0000 0.0000 0.0000
# 4 0.0000 0.0000 0.0000 19.4558 0.0000 0.0000
# 5 0.0000 0.0000 0.0000 0.0000 19.4558 0.0000
# 6 0.0000 0.0000 0.0000 0.0000 0.0000 2.2671
#
#
#
# Elastic Compliance Matrix: (Units=1/GPa)
#
#
# Indices 1 2 3 4 5 6 
#
# 1 -0.179501 0.202983 -0.006006 0.000000 0.000000 0.000000
# 2 0.202983 -0.179501 -0.006006 0.000000 0.000000 0.000000
# 3 -0.006006 -0.006006 0.013289 0.000000 0.000000 0.000000
# 4 0.000000 0.000000 0.000000 0.051399 0.000000 0.000000
# 5 0.000000 0.000000 0.000000 0.000000 0.051399 0.000000
# 6 0.000000 0.000000 0.000000 0.000000 0.000000 0.441083
#
#
# Mechanical properties :
#
#
# Convention : Reuss Voigt Hill
#
# Bulk Modulus (GPa) = 27.59968 34.30739 30.95354
# Shear Modulus (GPa) = -29.12092 13.00787 -8.05652
#
# Velocity S-wave (km/s) = -4.39181 2.93524 -2.31002
# Velocity P-wave (km/s) = 2.72707 5.84900 3.65881
#
# Compressibility (1/GPa) = 0.03623230
#
# Stress axis : x y z
#
# Youngs Moduli (GPa) = -5.57101 -5.57101 75.24750
#
# Poissons Ratio (x) = 1.13082 0.45192
# Poissons Ratio (y) = 1.13082 0.45192
# Poissons Ratio (z) = -0.03346 -0.03346
#
# Static dielectric constant tensor:
#      x y z
#    x 1.499670 0.000000 0.000000 
#    y 0.000000 1.499670 0.000000 
#    z 0.000000 0.000000 1.528410 
# 
# From -- ./inp_files/5242.got.cif
#   From: 2010.05.17/outbox.cif.g08.bks.cpg/sg134_3_cif.got.tgz:5242.got - 2010.05.20 12:42:49.
