data_PCOD9568650
_publ_section_title
;
Structure prediction by ZEFSAII (Michael W. Deem and Ramdas Pophale) SiO2 
 PCOD9568650
Probable space group: P 42/M B C
;
_chemical_formula_sum "Si O2"
_cell_formula_units_Z 96
_cell_length_a 15.132785
_cell_length_b 15.132785
_cell_length_c 18.460805
_cell_angle_alpha 90.000000
_cell_angle_beta 90.000000
_cell_angle_gamma 90.000000
_cell_volume 4227.546163
_symmetry_space_group_name_H-M "P 42/M B C"
_symmetry_group_IT_number 135
_symmetry_cell_setting 'tetragonal'
loop_
_space_group_symop_operation_xyz
x,y,z
-y,x,1/2+z
-x,-y,z
y,-x,1/2+z
1/2+x,1/2-y,-z
1/2-x,1/2+y,-z
1/2+y,1/2+x,1/2-z
1/2-y,1/2-x,1/2-z
-x,-y,-z
y,-x,1/2-z
x,y,-z
-y,x,1/2-z
1/2-x,1/2+y,z
1/2+x,1/2-y,z
1/2-y,1/2-x,1/2+z
1/2+y,1/2+x,1/2+z
loop_
_atom_site_type_symbol
_atom_site_label
_atom_site_fract_x
_atom_site_fract_y
_atom_site_fract_z
Si Si1 0.445490 0.230123 0.584005
Si Si2 0.303592 0.658803 0.275926
Si Si3 0.262891 0.727861 0.582522
Si Si4 0.078334 0.940743 0.586178
Si Si5 0.483749 0.160962 0.266246
Si Si6 0.756919 0.088370 0.661334
O O1 0.473748 0.216012 0.500000
O O2 0.341364 0.201716 0.589280
O O3 0.441211 0.335887 0.598282
O O4 0.496889 0.178593 0.647965
O O5 0.239394 0.739394 0.250000
O O6 0.318087 0.671932 0.360352
O O7 0.246836 0.574484 0.256532
O O8 0.386640 0.675510 0.226546
O O9 0.290323 0.719466 0.500000
O O10 0.266560 0.828580 0.610423
O O11 0.078931 0.950757 0.500000
O O12 0.176398 0.967584 0.612308
O O13 0.000000 0.000000 0.617784
O O14 0.424645 0.075356 0.250000
O O15 0.557712 0.170425 0.204395
#
# Coordination Sequence:
#
# PCOD9568650 Si02
#       6
#    16  16  16  16  16  16
#     4   9  16  30  50  67  94 141 176 204 249 294
#     4   9  16  33  51  73  95 128 177 215 253 311
#     4   9  16  33  57  75  94 129 173 223 270 307
#     4   9  17  31  47  71 106 141 173 203 246 311
#     4  11  19  33  48  75 107 134 177 220 255 310
#     4  10  19  30  50  75 104 137 172 218 263 312
#
# _framework density 22.708207999999999
#
# number of rings (size 3 to 8) (size 9 to 14) (size 15 to 20)
#    0.000    2.500    6.667    1.500    0.000    1.333 
#    0.000    4.167    0.000    4.500    0.000    1.167 
#    0.000    0.667    0.000    0.000    0.000    0.000 
#
# Total GULP energy -535289.224372 kJ/mol
# GULP energy per Si atom -5575.929421 kJ/mol
# Density = 2.265652 g / cm^3
# Si number density = 22.708208 Si / 1000 Ang^3
#
#
#
# Elastic Constant Matrix: (Units=GPa)
#
#
# Indices 1 2 3 4 5 6 
#
# 1 20.1601 16.3220 16.4153 0.0000 0.0000 0.0000
# 2 16.3220 20.1603 16.4153 0.0000 0.0000 0.0000
# 3 16.4153 16.4153 172.6283 0.0000 0.0000 0.0000
# 4 0.0000 0.0000 0.0000 24.0238 0.0000 0.0000
# 5 0.0000 0.0000 0.0000 0.0000 24.0233 0.0000
# 6 0.0000 0.0000 0.0000 0.0000 0.0000 25.3081
#
#
#
# Elastic Compliance Matrix: (Units=1/GPa)
#
#
# Indices 1 2 3 4 5 6 
#
# 1 0.145256 -0.115279 -0.002850 0.000000 0.000000 0.000000
# 2 -0.115279 0.145255 -0.002850 0.000000 0.000000 0.000000
# 3 -0.002850 -0.002850 0.006335 0.000000 0.000000 0.000000
# 4 0.000000 0.000000 0.000000 0.041625 0.000000 0.000000
# 5 0.000000 0.000000 0.000000 0.000000 0.041626 0.000000
# 6 0.000000 0.000000 0.000000 0.000000 0.000000 0.039513
#
#
# Mechanical properties :
#
#
# Convention : Reuss Voigt Hill
#
# Bulk Modulus (GPa) = 18.21999 34.58374 26.40187
# Shear Modulus (GPa) = 7.35439 25.59077 16.47258
#
# Velocity S-wave (km/s) = 1.80158 3.36063 2.69625
# Velocity P-wave (km/s) = 3.51689 5.50647 4.62005
#
# Compressibility (1/GPa) = 0.05488478
#
# Stress axis : x y z
#
# Youngs Moduli (GPa) = 6.88440 6.88446 157.85604
#
# Poissons Ratio (x) = 0.79364 0.44996
# Poissons Ratio (y) = 0.79363 0.44995
# Poissons Ratio (z) = 0.01962 0.01962
#
# Static dielectric constant tensor:
#      x y z
#    x 1.934890 0.000000 0.000000 
#    y 0.000000 1.934880 0.000000 
#    z 0.000000 0.000000 1.878050 
# 
# From -- ./inp_files/4443.got.cif
#   From: 2010.05.17/outbox.cif.g08.bks.cpg/sg135_3_cif.got.tgz:4443.got - 2010.05.20 12:50:20.
