data_PCOD9568526
_publ_section_title
;
Structure prediction by ZEFSAII (Michael W. Deem and Ramdas Pophale) SiO2 
 PCOD9568526
Probable space group: P 42/N N M
;
_chemical_formula_sum "Si O2"
_cell_formula_units_Z 96
_cell_length_a 15.178262
_cell_length_b 15.178262
_cell_length_c 23.001278
_cell_angle_alpha 90.000000
_cell_angle_beta 90.000000
_cell_angle_gamma 90.000000
_cell_volume 5299.026084
_symmetry_space_group_name_H-M "P 42/N N M"
_symmetry_group_IT_number 134
_space_group.IT_coordinate_system_code '2'
_symmetry_cell_setting 'tetragonal'
loop_
_space_group_symop_operation_xyz
x,y,z
1/2-y,x,1/2+z
1/2-x,1/2-y,z
y,1/2-x,1/2+z
x,1/2-y,1/2-z
1/2-x,y,1/2-z
y,x,-z
1/2-y,1/2-x,-z
-x,-y,-z
1/2+y,-x,1/2-z
1/2+x,1/2+y,-z
-y,1/2+x,1/2-z
-x,1/2+y,1/2+z
1/2+x,-y,1/2+z
-y,-x,z
1/2+y,1/2+x,z
loop_
_atom_site_type_symbol
_atom_site_label
_atom_site_fract_x
_atom_site_fract_y
_atom_site_fract_z
Si Si1 0.925644 0.074357 0.173786
Si Si2 0.575141 0.075141 0.188285
Si Si3 0.425608 0.925608 0.192700
Si Si4 0.073497 0.573497 0.330199
Si Si5 0.497724 0.757249 0.880825
Si Si6 0.892851 0.247293 0.002076
Si Si7 0.822308 0.825660 0.568012
Si Si8 0.260919 0.511392 0.381513
O O1 0.912342 0.087659 0.242820
O O2 0.965481 0.165097 0.147505
O O3 0.999347 0.000654 0.163042
O O4 0.543684 0.164340 0.157284
O O5 0.500058 0.000058 0.181369
O O6 0.413379 0.913379 0.261331
O O7 0.335118 0.957566 0.163583
O O8 0.164242 0.536453 0.357514
O O9 0.459970 0.753357 0.945760
O O10 0.598797 0.784966 0.892963
O O11 0.848598 0.151403 0.998977
O O12 0.816493 0.316493 0.015219
O O13 0.934501 0.271016 0.940909
O O14 0.750000 0.750000 0.564073
O O15 0.847874 0.847874 0.500000
O O16 0.780648 0.910745 0.599932
#
# Coordination Sequence:
#
# PCOD9568526 Si02
#       8
#     8   8   8   8  16  16  16  16
#     4  11  26  44  63  90 130 174 215 263 313 376
#     4  11  24  42  67  92 126 165 215 271 316 373
#     4  11  24  42  67  92 126 165 215 271 316 373
#     4  11  26  44  63  90 130 174 215 263 313 376
#     4  12  22  42  66  94 128 166 215 261 325 383
#     4  11  22  37  60  95 131 161 195 262 332 385
#     4  11  24  39  63  97 133 172 211 259 319 392
#     4  12  22  42  66  94 128 166 215 261 325 383
#
# _framework density 18.116537000000001
#
# number of rings (size 3 to 8) (size 9 to 14) (size 15 to 20)
#    0.000    0.667    6.667    2.000    0.000    0.667 
#    0.000    5.000    0.000    0.000    0.000    0.000 
#    0.000    0.000    0.000    0.000    0.000    0.000 
#
# Total GULP energy -535699.255254 kJ/mol
# GULP energy per Si atom -5580.200576 kJ/mol
# Density = 1.807530 g / cm^3
# Si number density = 18.116537 Si / 1000 Ang^3
#
#
#
# Elastic Constant Matrix: (Units=GPa)
#
#
# Indices 1 2 3 4 5 6 
#
# 1 94.4572 84.5040 49.9515 0.0000 0.0000 0.0000
# 2 84.5040 94.4572 49.9515 0.0000 0.0000 0.0000
# 3 49.9515 49.9515 94.8572 0.0000 0.0000 0.0000
# 4 0.0000 0.0000 0.0000 12.0717 0.0000 0.0000
# 5 0.0000 0.0000 0.0000 0.0000 12.0717 0.0000
# 6 0.0000 0.0000 0.0000 0.0000 0.0000 30.4689
#
#
#
# Elastic Compliance Matrix: (Units=1/GPa)
#
#
# Indices 1 2 3 4 5 6 
#
# 1 0.054192 -0.046278 -0.004168 0.000000 0.000000 0.000000
# 2 -0.046278 0.054192 -0.004168 0.000000 0.000000 0.000000
# 3 -0.004168 -0.004168 0.014932 0.000000 0.000000 0.000000
# 4 0.000000 0.000000 0.000000 0.082839 0.000000 0.000000
# 5 0.000000 0.000000 0.000000 0.000000 0.082839 0.000000
# 6 0.000000 0.000000 0.000000 0.000000 0.000000 0.032820
#
#
# Mechanical properties :
#
#
# Convention : Reuss Voigt Hill
#
# Bulk Modulus (GPa) = 70.97459 72.50950 71.74204
# Shear Modulus (GPa) = 11.47481 17.54675 14.51078
#
# Velocity S-wave (km/s) = 2.51945 3.11553 2.83321
# Velocity P-wave (km/s) = 6.90835 7.28374 7.09852
#
# Compressibility (1/GPa) = 0.01408955
#
# Stress axis : x y z
#
# Youngs Moduli (GPa) = 18.45278 18.45278 66.97238
#
# Poissons Ratio (x) = 0.85396 0.27912
# Poissons Ratio (y) = 0.85396 0.27912
# Poissons Ratio (z) = 0.07691 0.07691
#
# Static dielectric constant tensor:
#      x y z
#    x 1.578090 0.000000 0.000000 
#    y 0.000000 1.578090 0.000000 
#    z 0.000000 0.000000 1.598840 
# 
# From -- ./inp_files/9215.got.cif
#   From: 2010.05.17/outbox.cif.g08.bks.cpg/sg134_5_cif.got.tgz:9215.got - 2010.05.20 12:42:49.
