data_PCOD9568882
_publ_section_title
;
Structure prediction by ZEFSAII (Michael W. Deem and Ramdas Pophale) SiO2 
 PCOD9568882
Probable space group: P 42/M B C
;
_chemical_formula_sum "Si O2"
_cell_formula_units_Z 96
_cell_length_a 14.905972
_cell_length_b 14.905972
_cell_length_c 18.609103
_cell_angle_alpha 90.000000
_cell_angle_beta 90.000000
_cell_angle_gamma 90.000000
_cell_volume 4134.719401
_symmetry_space_group_name_H-M "P 42/M B C"
_symmetry_group_IT_number 135
_symmetry_cell_setting 'tetragonal'
loop_
_space_group_symop_operation_xyz
x,y,z
-y,x,1/2+z
-x,-y,z
y,-x,1/2+z
1/2+x,1/2-y,-z
1/2-x,1/2+y,-z
1/2+y,1/2+x,1/2-z
1/2-y,1/2-x,1/2-z
-x,-y,-z
y,-x,1/2-z
x,y,-z
-y,x,1/2-z
1/2-x,1/2+y,z
1/2+x,1/2-y,z
1/2-y,1/2-x,1/2+z
1/2+y,1/2+x,1/2+z
loop_
_atom_site_type_symbol
_atom_site_label
_atom_site_fract_x
_atom_site_fract_y
_atom_site_fract_z
Si Si1 0.326390 0.681445 0.227528
Si Si2 0.581816 0.258229 0.636462
Si Si3 0.922455 0.344100 0.687295
Si Si4 0.066839 0.718465 0.916555
Si Si5 0.762009 0.636110 0.581591
Si Si6 0.074464 0.063914 0.417486
O O1 0.270736 0.770736 0.250000
O O2 0.400439 0.686763 0.289178
O O3 0.250270 0.605844 0.224811
O O4 0.361397 0.691294 0.146570
O O5 0.517094 0.175508 0.652488
O O6 0.669591 0.216724 0.598941
O O7 0.540376 0.334154 0.586048
O O8 0.917291 0.417291 0.750000
O O9 0.847100 0.371531 0.629641
O O10 0.068330 0.822320 0.891084
O O11 0.961814 0.691766 0.912940
O O12 0.094987 0.716375 0.000000
O O13 0.727485 0.644319 0.500000
O O14 0.085290 0.033242 0.500000
O O15 0.000000 0.000000 0.382526
#
# Coordination Sequence:
#
# PCOD9568882 Si02
#       6
#    16  16  16  16  16  16
#     4   9  20  38  59  86 121 165 216 264 318 383
#     4  11  23  40  64  97 128 172 217 274 327 401
#     4  11  23  40  63  90 129 171 215 269 327 396
#     4  10  22  40  64  93 130 173 215 269 334 398
#     4  10  21  39  65  92 126 169 214 267 326 396
#     4  10  22  41  63  95 135 170 218 277 331 391
#
# _framework density 23.218021
#
# number of rings (size 3 to 8) (size 9 to 14) (size 15 to 20)
#    0.000    1.833    0.000    4.500    2.333    4.000 
#    0.000    2.500    0.000    0.000    0.000    0.000 
#    0.000    0.000    0.000    0.000    0.000    0.000 
#
# Total GULP energy -535844.648625 kJ/mol
# GULP energy per Si atom -5581.715090 kJ/mol
# Density = 2.316518 g / cm^3
# Si number density = 23.218021 Si / 1000 Ang^3
#
#
#
# Elastic Constant Matrix: (Units=GPa)
#
#
# Indices 1 2 3 4 5 6 
#
# 1 60.4425 9.0996 21.5461 0.0000 0.0000 0.0000
# 2 9.0996 60.4425 21.5461 0.0000 0.0000 0.0000
# 3 21.5461 21.5461 115.2921 0.0000 0.0000 0.0000
# 4 0.0000 0.0000 0.0000 22.3397 0.0000 0.0000
# 5 0.0000 0.0000 0.0000 0.0000 22.3397 0.0000
# 6 0.0000 0.0000 0.0000 0.0000 0.0000 40.2744
#
#
#
# Elastic Compliance Matrix: (Units=1/GPa)
#
#
# Indices 1 2 3 4 5 6 
#
# 1 0.017870 -0.001607 -0.003039 0.000000 0.000000 0.000000
# 2 -0.001607 0.017870 -0.003039 0.000000 0.000000 0.000000
# 3 -0.003039 -0.003039 0.009810 0.000000 0.000000 0.000000
# 4 0.000000 0.000000 0.000000 0.044763 0.000000 0.000000
# 5 0.000000 0.000000 0.000000 0.000000 0.044763 0.000000
# 6 0.000000 0.000000 0.000000 0.000000 0.000000 0.024830
#
#
# Mechanical properties :
#
#
# Convention : Reuss Voigt Hill
#
# Bulk Modulus (GPa) = 33.13606 37.84010 35.48808
# Shear Modulus (GPa) = 26.97796 29.25644 28.11720
#
# Velocity S-wave (km/s) = 3.41242 3.55360 3.48373
# Velocity P-wave (km/s) = 5.46158 5.75939 5.61246
#
# Compressibility (1/GPa) = 0.03017860
#
# Stress axis : x y z
#
# Youngs Moduli (GPa) = 55.95976 55.95976 101.94090
#
# Poissons Ratio (x) = 0.08992 0.30983
# Poissons Ratio (y) = 0.08992 0.30983
# Poissons Ratio (z) = 0.17008 0.17008
#
# Static dielectric constant tensor:
#      x y z
#    x 1.907320 0.000000 0.000000 
#    y 0.000000 1.907320 0.000000 
#    z 0.000000 0.000000 1.956790 
# 
# From -- ./inp_files/5492.got.cif
#   From: 2010.05.17/outbox.cif.g08.bks.cpg/sg135_3_cif.got.tgz:5492.got - 2010.05.20 12:50:20.
