data_PCOD9568661
_publ_section_title
;
Structure prediction by ZEFSAII (Michael W. Deem and Ramdas Pophale) SiO2 
 PCOD9568661
Probable space group: P 42/M B C
;
_chemical_formula_sum "Si O2"
_cell_formula_units_Z 88
_cell_length_a 18.579314
_cell_length_b 18.579314
_cell_length_c 14.566465
_cell_angle_alpha 90.000000
_cell_angle_beta 90.000000
_cell_angle_gamma 90.000000
_cell_volume 5028.211290
_symmetry_space_group_name_H-M "P 42/M B C"
_symmetry_group_IT_number 135
_symmetry_cell_setting 'tetragonal'
loop_
_space_group_symop_operation_xyz
x,y,z
-y,x,1/2+z
-x,-y,z
y,-x,1/2+z
1/2+x,1/2-y,-z
1/2-x,1/2+y,-z
1/2+y,1/2+x,1/2-z
1/2-y,1/2-x,1/2-z
-x,-y,-z
y,-x,1/2-z
x,y,-z
-y,x,1/2-z
1/2-x,1/2+y,z
1/2+x,1/2-y,z
1/2-y,1/2-x,1/2+z
1/2+y,1/2+x,1/2+z
loop_
_atom_site_type_symbol
_atom_site_label
_atom_site_fract_x
_atom_site_fract_y
_atom_site_fract_z
Si Si1 0.598567 0.724927 0.610120
Si Si2 0.270617 0.522235 0.393878
Si Si3 0.753479 0.148709 0.605104
Si Si4 0.345812 0.037273 0.759111
Si Si5 0.961524 0.113867 0.747360
Si Si6 0.630757 0.130757 0.250000
O O1 0.590759 0.728269 0.500000
O O2 0.680818 0.700990 0.631647
O O3 0.573834 0.797142 0.661743
O O4 0.551671 0.661789 0.657233
O O5 0.267859 0.544243 0.500000
O O6 0.278270 0.435082 0.390997
O O7 0.199614 0.541815 0.335839
O O8 0.336592 0.553865 0.335740
O O9 0.734871 0.164545 0.500000
O O10 0.683910 0.152079 0.668039
O O11 0.419607 0.080394 0.750000
O O12 0.357390 0.952589 0.775812
O O13 0.043532 0.087564 0.752228
#
# Coordination Sequence:
#
# PCOD9568661 Si02
#       6
#    16  16  16  16  16   8
#     4  10  21  37  56  81 119 157 192 239 294 350
#     4   9  18  35  55  77 110 151 189 227 282 347
#     4   9  18  35  58  80 108 151 189 229 286 347
#     4  10  22  38  59  86 115 148 196 247 297 343
#     4  10  19  31  53  83 115 154 193 235 288 344
#     4  10  21  38  64  84 114 151 194 244 294 348
#
# _framework density 17.501252999999998
#
# number of rings (size 3 to 8) (size 9 to 14) (size 15 to 20)
#    0.000    2.364    1.818    0.273    1.273    2.182 
#    0.000    1.818    0.000    5.455    0.000    0.000 
#    0.000    0.000    0.000    0.000    0.000    0.000 
#
# Total GULP energy -490633.833084 kJ/mol
# GULP energy per Si atom -5575.384467 kJ/mol
# Density = 1.746142 g / cm^3
# Si number density = 17.501253 Si / 1000 Ang^3
#
#
#
# Elastic Constant Matrix: (Units=GPa)
#
#
# Indices 1 2 3 4 5 6 
#
# 1 80.4749 30.8086 46.8490 0.0000 0.0000 0.0000
# 2 30.8086 80.4889 46.8522 0.0000 0.0000 0.0000
# 3 46.8490 46.8522 115.5120 0.0000 0.0000 0.0000
# 4 0.0000 0.0000 0.0000 18.4778 0.0000 0.0000
# 5 0.0000 0.0000 0.0000 0.0000 18.4793 0.0000
# 6 0.0000 0.0000 0.0000 0.0000 0.0000 29.2467
#
#
#
# Elastic Compliance Matrix: (Units=1/GPa)
#
#
# Indices 1 2 3 4 5 6 
#
# 1 0.016890 -0.003243 -0.005535 0.000000 0.000000 0.000000
# 2 -0.003243 0.016887 -0.005534 0.000000 0.000000 0.000000
# 3 -0.005535 -0.005534 0.013146 0.000000 0.000000 0.000000
# 4 0.000000 0.000000 0.000000 0.054119 0.000000 0.000000
# 5 0.000000 0.000000 0.000000 0.000000 0.054115 0.000000
# 6 0.000000 0.000000 0.000000 0.000000 0.000000 0.034192
#
#
# Mechanical properties :
#
#
# Convention : Reuss Voigt Hill
#
# Bulk Modulus (GPa) = 54.64665 58.38838 56.51751
# Shear Modulus (GPa) = 22.31422 23.37182 22.84302
#
# Velocity S-wave (km/s) = 3.57460 3.65833 3.61670
# Velocity P-wave (km/s) = 6.95192 7.16096 7.05721
#
# Compressibility (1/GPa) = 0.01829938
#
# Stress axis : x y z
#
# Youngs Moduli (GPa) = 59.20695 59.21791 76.06604
#
# Poissons Ratio (x) = 0.19205 0.42100
# Poissons Ratio (y) = 0.19202 0.42095
# Poissons Ratio (z) = 0.32769 0.32771
#
# Static dielectric constant tensor:
#      x y z
#    x 1.589590 0.000000 0.000000 
#    y 0.000000 1.589590 0.000000 
#    z 0.000000 0.000000 1.576190 
# 
# From -- ./inp_files/3533.got.cif
#   From: 2010.05.17/outbox.cif.g08.bks.cpg/sg135_2_cif.got.tgz:3533.got - 2010.05.20 12:50:20.
