data_PCOD9568374
_publ_section_title
;
Structure prediction by ZEFSAII (Michael W. Deem and Ramdas Pophale) SiO2 
 PCOD9568374
Probable space group: P 42/N N M
;
_chemical_formula_sum "Si O2"
_cell_formula_units_Z 96
_cell_length_a 26.631566
_cell_length_b 26.631566
_cell_length_c 8.961223
_cell_angle_alpha 90.000000
_cell_angle_beta 90.000000
_cell_angle_gamma 90.000000
_cell_volume 6355.660557
_symmetry_space_group_name_H-M "P 42/N N M"
_symmetry_group_IT_number 134
_space_group.IT_coordinate_system_code '2'
_symmetry_cell_setting 'tetragonal'
loop_
_space_group_symop_operation_xyz
x,y,z
1/2-y,x,1/2+z
1/2-x,1/2-y,z
y,1/2-x,1/2+z
x,1/2-y,1/2-z
1/2-x,y,1/2-z
y,x,-z
1/2-y,1/2-x,-z
-x,-y,-z
1/2+y,-x,1/2-z
1/2+x,1/2+y,-z
-y,1/2+x,1/2-z
-x,1/2+y,1/2+z
1/2+x,-y,1/2+z
-y,-x,z
1/2+y,1/2+x,z
loop_
_atom_site_type_symbol
_atom_site_label
_atom_site_fract_x
_atom_site_fract_y
_atom_site_fract_z
Si Si1 0.488444 0.903745 0.616300
Si Si2 0.299600 0.370717 0.196900
Si Si3 0.704097 0.610557 0.136397
Si Si4 0.015130 0.069505 0.787046
Si Si5 0.809652 0.990214 0.275536
Si Si6 0.855618 0.563232 0.936232
O O1 0.441324 0.941324 0.619509
O O2 0.534367 0.935580 0.690105
O O3 0.504259 0.900441 0.441303
O O4 0.474783 0.853258 0.707694
O O5 0.250000 0.342275 0.250000
O O6 0.345301 0.333896 0.169931
O O7 0.318289 0.411755 0.315115
O O8 0.283437 0.391143 0.036380
O O9 0.750000 0.615943 0.250000
O O10 0.679930 0.557874 0.172240
O O11 0.026487 0.106761 0.652116
O O12 0.968728 0.031273 0.762646
O O13 0.750000 0.003081 0.250000
O O14 0.824845 0.968205 0.438537
O O15 0.890844 0.609157 0.000000
#
# Coordination Sequence:
#
# PCOD9568374 Si02
#       6
#    16  16  16  16  16  16
#     4   9  17  32  51  73 100 132 163 198 245 300
#     4  11  22  33  48  61  81 114 152 199 245 289
#     4  10  21  35  48  62  81 110 151 201 249 293
#     4   9  18  31  51  75  98 126 162 199 248 303
#     4  11  21  33  49  69  99 130 163 201 243 302
#     4  12  21  32  48  70  96 120 158 200 249 297
#
# _framework density 15.104645
#
# number of rings (size 3 to 8) (size 9 to 14) (size 15 to 20)
#    0.000    1.667    3.333    4.000    0.000    4.000 
#    0.000    1.667    0.000    0.000    0.000    0.000 
#    0.000    0.333    0.000    0.000    0.000    4.000 
#
# Total GULP energy -534419.016713 kJ/mol
# GULP energy per Si atom -5566.864757 kJ/mol
# Density = 1.507027 g / cm^3
# Si number density = 15.104645 Si / 1000 Ang^3
#
#
#
# Elastic Constant Matrix: (Units=GPa)
#
#
# Indices 1 2 3 4 5 6 
#
# 1 51.2311 12.0162 24.3857 0.0000 0.0000 0.0000
# 2 12.0162 51.2309 24.3854 0.0000 0.0000 0.0000
# 3 24.3857 24.3854 82.9687 0.0000 0.0000 0.0000
# 4 0.0000 0.0000 0.0000 25.8298 0.0000 0.0000
# 5 0.0000 0.0000 0.0000 0.0000 25.8299 0.0000
# 6 0.0000 0.0000 0.0000 0.0000 0.0000 2.7651
#
#
#
# Elastic Compliance Matrix: (Units=1/GPa)
#
#
# Indices 1 2 3 4 5 6 
#
# 1 0.022973 -0.002528 -0.006009 0.000000 0.000000 0.000000
# 2 -0.002528 0.022973 -0.006009 0.000000 0.000000 0.000000
# 3 -0.006009 -0.006009 0.015585 0.000000 0.000000 0.000000
# 4 0.000000 0.000000 0.000000 0.038715 0.000000 0.000000
# 5 0.000000 0.000000 0.000000 0.000000 0.038715 0.000000
# 6 0.000000 0.000000 0.000000 0.000000 0.000000 0.361656
#
#
# Mechanical properties :
#
#
# Convention : Reuss Voigt Hill
#
# Bulk Modulus (GPa) = 30.82765 34.11170 32.46967
# Shear Modulus (GPa) = 9.25034 19.19451 14.22242
#
# Velocity S-wave (km/s) = 2.47739 3.56865 3.07187
# Velocity P-wave (km/s) = 5.35135 6.29388 5.84166
#
# Compressibility (1/GPa) = 0.03243841
#
# Stress axis : x y z
#
# Youngs Moduli (GPa) = 43.53018 43.53016 64.16458
#
# Poissons Ratio (x) = 0.11004 0.38556
# Poissons Ratio (y) = 0.11004 0.38556
# Poissons Ratio (z) = 0.26157 0.26157
#
# Static dielectric constant tensor:
#      x y z
#    x 1.562420 0.000000 0.000000 
#    y 0.000000 1.562420 0.000000 
#    z 0.000000 0.000000 1.552570 
# 
# From -- ./inp_files/3310.got.cif
#   From: 2010.05.17/outbox.cif.g08.bks.cpg/sg134_2_cif.got.tgz:3310.got - 2010.05.20 12:42:49.
