data_PCOD9568105
_publ_section_title
;
Structure prediction by ZEFSAII (Michael W. Deem and Ramdas Pophale) SiO2 
 PCOD9568105
Probable space group: P 42/N N M
;
_chemical_formula_sum "Si O2"
_cell_formula_units_Z 42
_cell_length_a 10.113353
_cell_length_b 10.113353
_cell_length_c 25.349948
_cell_angle_alpha 90.000000
_cell_angle_beta 90.000000
_cell_angle_gamma 90.000000
_cell_volume 2592.790372
_symmetry_space_group_name_H-M "P 42/N N M"
_symmetry_group_IT_number 134
_space_group.IT_coordinate_system_code '2'
_symmetry_cell_setting 'tetragonal'
loop_
_space_group_symop_operation_xyz
x,y,z
1/2-y,x,1/2+z
1/2-x,1/2-y,z
y,1/2-x,1/2+z
x,1/2-y,1/2-z
1/2-x,y,1/2-z
y,x,-z
1/2-y,1/2-x,-z
-x,-y,-z
1/2+y,-x,1/2-z
1/2+x,1/2+y,-z
-y,1/2+x,1/2-z
-x,1/2+y,1/2+z
1/2+x,-y,1/2+z
-y,-x,z
1/2+y,1/2+x,z
loop_
_atom_site_type_symbol
_atom_site_label
_atom_site_fract_x
_atom_site_fract_y
_atom_site_fract_z
Si Si1 0.142659 0.642659 0.352490
Si Si2 0.376231 0.319980 0.913455
Si Si3 0.250000 0.750000 0.250000
Si Si4 0.466567 0.751116 0.987207
O O1 0.250000 0.750000 0.374713
O O2 0.170296 0.496395 0.373433
O O3 0.162495 0.662495 0.289965
O O4 0.250000 0.250000 0.889171
O O5 0.318043 0.454273 0.939395
O O6 0.433373 0.237504 0.963639
O O7 0.358523 0.641478 0.004691
O O8 0.384056 0.884056 0.975298
#
# Coordination Sequence:
#
# PCOD9568105 Si02
#       4
#     8  16   2  16
#     4  10  20  41  60  81 104 137 193 238 299 339
#     4  11  20  31  53  82 114 152 190 228 267 333
#     4   8  24  40  72  76 100 136 192 248 312 344
#     4  10  18  30  48  78 123 165 187 212 261 330
#
# _framework density 16.198765000000002
#
# number of rings (size 3 to 8) (size 9 to 14) (size 15 to 20)
#    0.571    1.143    3.810    4.571    0.000    4.571 
#    0.000    0.952    0.000    0.000    0.000    0.000 
#    0.000    0.000    0.000    0.000    0.000    0.000 
#
# Total GULP energy -233898.541039 kJ/mol
# GULP energy per Si atom -5569.012882 kJ/mol
# Density = 1.616190 g / cm^3
# Si number density = 16.198765 Si / 1000 Ang^3
#
#
#
# Elastic Constant Matrix: (Units=GPa)
#
#
# Indices 1 2 3 4 5 6 
#
# 1 92.5015 83.2339 46.1979 0.0000 0.0000 0.0000
# 2 83.2339 92.5015 46.1979 0.0000 0.0000 0.0000
# 3 46.1979 46.1979 94.0889 0.0000 0.0000 0.0000
# 4 0.0000 0.0000 0.0000 16.4311 0.0000 0.0000
# 5 0.0000 0.0000 0.0000 0.0000 16.4311 0.0000
# 6 0.0000 0.0000 0.0000 0.0000 0.0000 43.9920
#
#
#
# Elastic Compliance Matrix: (Units=1/GPa)
#
#
# Indices 1 2 3 4 5 6 
#
# 1 0.057786 -0.050116 -0.003766 0.000000 0.000000 0.000000
# 2 -0.050116 0.057786 -0.003766 0.000000 0.000000 0.000000
# 3 -0.003766 -0.003766 0.014327 0.000000 0.000000 0.000000
# 4 0.000000 0.000000 0.000000 0.060860 0.000000 0.000000
# 5 0.000000 0.000000 0.000000 0.000000 0.060860 0.000000
# 6 0.000000 0.000000 0.000000 0.000000 0.000000 0.022731
#
#
# Mechanical properties :
#
#
# Convention : Reuss Voigt Hill
#
# Bulk Modulus (GPa) = 68.48009 70.03906 69.25958
# Shear Modulus (GPa) = 12.67378 22.26832 17.47105
#
# Velocity S-wave (km/s) = 2.80016 3.71171 3.28768
# Velocity P-wave (km/s) = 7.26782 7.85495 7.56708
#
# Compressibility (1/GPa) = 0.01460278
#
# Stress axis : x y z
#
# Youngs Moduli (GPa) = 17.30514 17.30514 69.79956
#
# Poissons Ratio (x) = 0.86726 0.26288
# Poissons Ratio (y) = 0.86726 0.26288
# Poissons Ratio (z) = 0.06518 0.06518
#
# Static dielectric constant tensor:
#      x y z
#    x 1.594340 0.000000 0.000000 
#    y 0.000000 1.594340 0.000000 
#    z 0.000000 0.000000 1.515010 
# 
# From -- ./inp_files/9628.got.cif
#   From: 2010.05.17/outbox.cif.g08.bks.cpg/sg134_5_cif.got.tgz:9628.got - 2010.05.20 12:42:49.
