data_PCOD9568256
_publ_section_title
;
Structure prediction by ZEFSAII (Michael W. Deem and Ramdas Pophale) SiO2 
 PCOD9568256
Probable space group: P 42/N N M
;
_chemical_formula_sum "Si O2"
_cell_formula_units_Z 96
_cell_length_a 17.676161
_cell_length_b 17.676161
_cell_length_c 19.333451
_cell_angle_alpha 90.000000
_cell_angle_beta 90.000000
_cell_angle_gamma 90.000000
_cell_volume 6040.672340
_symmetry_space_group_name_H-M "P 42/N N M"
_symmetry_group_IT_number 134
_space_group.IT_coordinate_system_code '2'
_symmetry_cell_setting 'tetragonal'
loop_
_space_group_symop_operation_xyz
x,y,z
1/2-y,x,1/2+z
1/2-x,1/2-y,z
y,1/2-x,1/2+z
x,1/2-y,1/2-z
1/2-x,y,1/2-z
y,x,-z
1/2-y,1/2-x,-z
-x,-y,-z
1/2+y,-x,1/2-z
1/2+x,1/2+y,-z
-y,1/2+x,1/2-z
-x,1/2+y,1/2+z
1/2+x,-y,1/2+z
-y,-x,z
1/2+y,1/2+x,z
loop_
_atom_site_type_symbol
_atom_site_label
_atom_site_fract_x
_atom_site_fract_y
_atom_site_fract_z
Si Si1 0.557767 0.057767 0.033483
Si Si2 0.164041 0.220995 0.674646
Si Si3 0.945535 0.054466 0.302732
Si Si4 0.316661 0.455290 0.694212
Si Si5 0.684021 0.184021 0.426369
Si Si6 0.250723 0.127423 0.023077
Si Si7 0.835193 0.164808 0.231073
Si Si8 0.470493 0.771681 0.951037
O O1 0.546470 0.046470 0.115592
O O2 0.645082 0.042344 0.017095
O O3 0.500000 0.000000 0.000000
O O4 0.250000 0.250000 0.667438
O O5 0.136541 0.250000 0.750000
O O6 0.171251 0.130880 0.672552
O O7 0.120690 0.247971 0.606280
O O8 0.884106 0.115895 0.281372
O O9 0.018870 0.100387 0.277905
O O10 0.250000 0.459266 0.750000
O O11 0.289197 0.505734 0.628885
O O12 0.750000 0.250000 0.420997
O O13 0.657373 0.157373 0.350318
O O14 0.722574 0.107005 0.456598
O O15 0.183886 0.183886 0.000000
O O16 0.328480 0.171521 0.000000
O O17 0.240700 0.046272 0.987183
O O18 0.851926 0.250000 0.250000
#
# Coordination Sequence:
#
# PCOD9568256 Si02
#       8
#     8  16   8  16   8  16   8  16
#     4  10  20  32  51  77 110 140 185 234 289 322
#     4  11  20  35  56  83 107 144 188 237 281 333
#     4  10  21  30  40  75 109 144 172 213 265 330
#     4  11  20  31  52  76 111 144 185 219 269 332
#     4  12  22  38  53  80 118 157 200 226 279 350
#     4  11  20  36  57  81 111 147 187 229 289 343
#     4  11  18  30  50  67 106 159 189 206 250 331
#     4  11  22  35  55  80 111 155 186 237 277 343
#
# _framework density 15.892270999999999
#
# number of rings (size 3 to 8) (size 9 to 14) (size 15 to 20)
#    0.000    1.083    6.667    4.000    2.333    0.000 
#    0.000    0.417    0.000    1.000    0.000    0.000 
#    0.000    0.000    0.000    0.000    0.000    0.000 
#
# Total GULP energy -534570.101749 kJ/mol
# GULP energy per Si atom -5568.438560 kJ/mol
# Density = 1.585610 g / cm^3
# Si number density = 15.892271 Si / 1000 Ang^3
#
#
#
# Elastic Constant Matrix: (Units=GPa)
#
#
# Indices 1 2 3 4 5 6 
#
# 1 104.3352 40.5807 30.5961 0.0000 0.0000 0.0000
# 2 40.5807 104.3358 30.5961 0.0000 0.0000 0.0000
# 3 30.5961 30.5961 86.2842 0.0000 0.0000 0.0000
# 4 0.0000 0.0000 0.0000 20.5958 0.0000 0.0000
# 5 0.0000 0.0000 0.0000 0.0000 20.5957 0.0000
# 6 0.0000 0.0000 0.0000 0.0000 0.0000 27.0179
#
#
#
# Elastic Compliance Matrix: (Units=1/GPa)
#
#
# Indices 1 2 3 4 5 6 
#
# 1 0.011900 -0.003785 -0.002878 0.000000 0.000000 0.000000
# 2 -0.003785 0.011900 -0.002878 0.000000 0.000000 0.000000
# 3 -0.002878 -0.002878 0.013631 0.000000 0.000000 0.000000
# 4 0.000000 0.000000 0.000000 0.048554 0.000000 0.000000
# 5 0.000000 0.000000 0.000000 0.000000 0.048554 0.000000
# 6 0.000000 0.000000 0.000000 0.000000 0.000000 0.037012
#
#
# Mechanical properties :
#
#
# Convention : Reuss Voigt Hill
#
# Bulk Modulus (GPa) = 54.49371 55.38899 54.94135
# Shear Modulus (GPa) = 25.41310 26.52069 25.96690
#
# Velocity S-wave (km/s) = 4.00319 4.08950 4.04658
# Velocity P-wave (km/s) = 7.46534 7.56486 7.51527
#
# Compressibility (1/GPa) = 0.01835074
#
# Stress axis : x y z
#
# Youngs Moduli (GPa) = 84.03045 84.03099 73.36472
#
# Poissons Ratio (x) = 0.31803 0.21113
# Poissons Ratio (y) = 0.31803 0.21113
# Poissons Ratio (z) = 0.24182 0.24182
#
# Static dielectric constant tensor:
#      x y z
#    x 1.547380 0.000000 0.000000 
#    y 0.000000 1.547380 0.000000 
#    z 0.000000 0.000000 1.395000 
# 
# From -- ./inp_files/7976.got.cif
#   From: 2010.05.17/outbox.cif.g08.bks.cpg/sg134_4_cif.got.tgz:7976.got - 2010.05.20 12:42:49.
