data_PCOD9568958
_publ_section_title
;
Structure prediction by ZEFSAII (Michael W. Deem and Ramdas Pophale) SiO2 
 PCOD9568958
Probable space group: P 42/M B C
;
_chemical_formula_sum "Si O2"
_cell_formula_units_Z 96
_cell_length_a 15.191615
_cell_length_b 15.191615
_cell_length_c 19.167995
_cell_angle_alpha 90.000000
_cell_angle_beta 90.000000
_cell_angle_gamma 90.000000
_cell_volume 4423.688914
_symmetry_space_group_name_H-M "P 42/M B C"
_symmetry_group_IT_number 135
_symmetry_cell_setting 'tetragonal'
loop_
_space_group_symop_operation_xyz
x,y,z
-y,x,1/2+z
-x,-y,z
y,-x,1/2+z
1/2+x,1/2-y,-z
1/2-x,1/2+y,-z
1/2+y,1/2+x,1/2-z
1/2-y,1/2-x,1/2-z
-x,-y,-z
y,-x,1/2-z
x,y,-z
-y,x,1/2-z
1/2-x,1/2+y,z
1/2+x,1/2-y,z
1/2-y,1/2-x,1/2+z
1/2+y,1/2+x,1/2+z
loop_
_atom_site_type_symbol
_atom_site_label
_atom_site_fract_x
_atom_site_fract_y
_atom_site_fract_z
Si Si1 0.372522 0.271828 0.415170
Si Si2 0.451469 0.787304 0.336540
Si Si3 0.661483 0.954259 0.708502
Si Si4 0.874292 0.551081 0.578190
Si Si5 0.830597 0.036535 0.423048
Si Si6 0.156013 0.791510 0.859858
O O1 0.385178 0.268976 0.500000
O O2 0.454660 0.233654 0.372065
O O3 0.371987 0.375165 0.391424
O O4 0.282255 0.216651 0.399348
O O5 0.464484 0.802852 0.253552
O O6 0.418728 0.872275 0.378519
O O7 0.377436 0.713481 0.347022
O O8 0.579037 0.920964 0.750000
O O9 0.737864 0.881380 0.706227
O O10 0.627786 0.968763 0.630117
O O11 0.908503 0.538817 0.500000
O O12 0.770531 0.568444 0.571817
O O13 0.869460 0.026299 0.500000
O O14 0.823512 0.937811 0.392967
#
# Coordination Sequence:
#
# PCOD9568958 Si02
#       6
#    16  16  16  16  16  16
#     4  11  23  42  70 107 145 188 247 301 362 443
#     4  12  25  43  72 105 143 192 242 301 367 434
#     4  11  25  47  68 103 142 186 241 298 365 432
#     4  10  22  43  70 101 136 183 234 290 361 424
#     4   9  20  40  67 101 141 187 236 296 357 423
#     4  11  24  45  71  96 144 195 242 296 365 433
#
# _framework density 21.701346000000001
#
# number of rings (size 3 to 8) (size 9 to 14) (size 15 to 20)
#    0.000    1.333    3.333    1.500    0.000    8.667 
#    0.000    2.500    0.000    0.000    0.000    0.000 
#    0.000    0.000    0.000    0.000    0.000    0.000 
#
# Total GULP energy -534877.165703 kJ/mol
# GULP energy per Si atom -5571.637143 kJ/mol
# Density = 2.165195 g / cm^3
# Si number density = 21.701346 Si / 1000 Ang^3
#
#
#
# Elastic Constant Matrix: (Units=GPa)
#
#
# Indices 1 2 3 4 5 6 
#
# 1 -2247.2858 2399.9359 25.0366 0.0000 0.0000 0.0000
# 2 2399.9359-2248.1276 24.6994 0.0000 0.0000 0.0000
# 3 25.0366 24.6994 98.8959 0.0000 0.0000 0.0000
# 4 0.0000 0.0000 0.0000 20.5254 0.0000 0.0000
# 5 0.0000 0.0000 0.0000 0.0000 20.5263 0.0000
# 6 0.0000 0.0000 0.0000 0.0000 0.0000 46.2547
#
#
#
# Elastic Compliance Matrix: (Units=1/GPa)
#
#
# Indices 1 2 3 4 5 6 
#
# 1 0.003471 0.003686 -0.001799 0.000000 0.000000 0.000000
# 2 0.003686 0.003470 -0.001800 0.000000 0.000000 0.000000
# 3 -0.001799 -0.001800 0.011017 0.000000 0.000000 0.000000
# 4 0.000000 0.000000 0.000000 0.048720 0.000000 0.000000
# 5 0.000000 0.000000 0.000000 0.000000 0.048718 0.000000
# 6 0.000000 0.000000 0.000000 0.000000 0.000000 0.021619
#
#
# Mechanical properties :
#
#
# Convention : Reuss Voigt Hill
#
# Bulk Modulus (GPa) = 55.15093 55.86958 55.51025
# Shear Modulus (GPa) = 34.99274 -438.95135 -201.97931
#
# Velocity S-wave (km/s) = 4.01991 -14.23757 -9.65786
# Velocity P-wave (km/s) = 6.85675 15.63576 9.93635
#
# Compressibility (1/GPa) = 0.01813206
#
# Stress axis : x y z
#
# Youngs Moduli (GPa) = 288.06411 288.15003 90.77106
#
# Poissons Ratio (x) = -1.06215 0.16334
# Poissons Ratio (y) = -1.06183 0.16338
# Poissons Ratio (z) = 0.51835 0.51865
#
# Static dielectric constant tensor:
#      x y z
#    x 1.822880 0.000000 0.000000 
#    y 0.000000 1.822880 0.000000 
#    z 0.000000 0.000000 1.851560 
# 
# From -- ./inp_files/5421.got.cif
#   From: 2010.05.17/outbox.cif.g08.bks.cpg/sg135_3_cif.got.tgz:5421.got - 2010.05.20 12:50:20.
