data_PCOD9568946
_publ_section_title
;
Structure prediction by ZEFSAII (Michael W. Deem and Ramdas Pophale) SiO2 
 PCOD9568946
Probable space group: P 42/M B C
;
_chemical_formula_sum "Si O2"
_cell_formula_units_Z 96
_cell_length_a 13.294010
_cell_length_b 13.294010
_cell_length_c 22.583114
_cell_angle_alpha 90.000000
_cell_angle_beta 90.000000
_cell_angle_gamma 90.000000
_cell_volume 3991.129588
_symmetry_space_group_name_H-M "P 42/M B C"
_symmetry_group_IT_number 135
_symmetry_cell_setting 'tetragonal'
loop_
_space_group_symop_operation_xyz
x,y,z
-y,x,1/2+z
-x,-y,z
y,-x,1/2+z
1/2+x,1/2-y,-z
1/2-x,1/2+y,-z
1/2+y,1/2+x,1/2-z
1/2-y,1/2-x,1/2-z
-x,-y,-z
y,-x,1/2-z
x,y,-z
-y,x,1/2-z
1/2-x,1/2+y,z
1/2+x,1/2-y,z
1/2-y,1/2-x,1/2+z
1/2+y,1/2+x,1/2+z
loop_
_atom_site_type_symbol
_atom_site_label
_atom_site_fract_x
_atom_site_fract_y
_atom_site_fract_z
Si Si1 0.862647 0.346119 0.562606
Si Si2 0.952672 0.390524 0.689621
Si Si3 0.826850 0.143549 0.614810
Si Si4 0.870398 0.750112 0.345090
Si Si5 0.420673 0.366794 0.066693
Si Si6 0.129536 0.106578 0.244122
O O1 0.911662 0.377178 0.500000
O O2 0.903135 0.382173 0.625265
O O3 0.861213 0.225574 0.567489
O O4 0.748651 0.384978 0.561798
O O5 0.887186 0.387186 0.750000
O O6 0.000000 0.500000 0.690313
O O7 0.044911 0.313336 0.687796
O O8 0.708383 0.171797 0.625524
O O9 0.873235 0.169275 0.678812
O O10 0.860024 0.031599 0.595838
O O11 0.912699 0.831905 0.392543
O O12 0.824264 0.823304 0.294954
O O13 0.424381 0.408491 0.000000
O O14 0.010528 0.133581 0.240307
#
# Coordination Sequence:
#
# PCOD9568946 Si02
#       6
#    16  16  16  16  16  16
#     4  10  23  42  65  95 133 181 234 285 354 434
#     4  11  26  43  68 101 141 178 233 304 364 432
#     4  11  22  40  67  97 133 183 234 297 357 432
#     4  11  24  41  67  99 141 184 236 296 373 444
#     4  10  22  42  67  97 136 182 236 288 349 433
#     4  11  23  39  62  95 139 178 235 297 369 447
#
# _framework density 24.053339999999999
#
# number of rings (size 3 to 8) (size 9 to 14) (size 15 to 20)
#    0.000    1.333    1.667    3.000    7.000    4.333 
#    0.000    0.000    0.000    3.000    0.000    0.000 
#    0.000    0.000    0.000    0.000    0.000    0.000 
#
# Total GULP energy -536646.889299 kJ/mol
# GULP energy per Si atom -5590.071764 kJ/mol
# Density = 2.399859 g / cm^3
# Si number density = 24.053340 Si / 1000 Ang^3
#
#
#
# Elastic Constant Matrix: (Units=GPa)
#
#
# Indices 1 2 3 4 5 6 
#
# 1 86.5969 27.6323 37.8383 0.0000 0.0000 0.0000
# 2 27.6323 86.5969 37.8383 0.0000 0.0000 0.0000
# 3 37.8383 37.8383 201.9353 0.0000 0.0000 0.0000
# 4 0.0000 0.0000 0.0000 -64.6520 0.0000 0.0000
# 5 0.0000 0.0000 0.0000 0.0000 -64.6520 0.0000
# 6 0.0000 0.0000 0.0000 0.0000 0.0000 35.9164
#
#
#
# Elastic Compliance Matrix: (Units=1/GPa)
#
#
# Indices 1 2 3 4 5 6 
#
# 1 0.013477 -0.003482 -0.001873 0.000000 0.000000 0.000000
# 2 -0.003482 0.013477 -0.001873 0.000000 0.000000 0.000000
# 3 -0.001873 -0.001873 0.005654 0.000000 0.000000 0.000000
# 4 0.000000 0.000000 0.000000 -0.015467 0.000000 0.000000
# 5 0.000000 0.000000 0.000000 0.000000 -0.015467 0.000000
# 6 0.000000 0.000000 0.000000 0.000000 0.000000 0.027842
#
#
# Mechanical properties :
#
#
# Convention : Reuss Voigt Hill
#
# Bulk Modulus (GPa) = 55.08825 64.63854 59.86339
# Shear Modulus (GPa) = 99.95504 -0.55616 49.69944
#
# Velocity S-wave (km/s) = 6.45335 -0.48137 4.55050
# Velocity P-wave (km/s) = 8.85889 5.15969 7.24922
#
# Compressibility (1/GPa) = 0.01815269
#
# Stress axis : x y z
#
# Youngs Moduli (GPa) = 74.19933 74.19933 176.86753
#
# Poissons Ratio (x) = 0.25837 0.33125
# Poissons Ratio (y) = 0.25837 0.33125
# Poissons Ratio (z) = 0.13897 0.13897
#
# Static dielectric constant tensor:
#      x y z
#    x 1.962860 0.000000 0.000000 
#    y 0.000000 1.962860 0.000000 
#    z 0.000000 0.000000 1.967320 
# 
# From -- ./inp_files/5471.got.cif
#   From: 2010.05.17/outbox.cif.g08.bks.cpg/sg135_3_cif.got.tgz:5471.got - 2010.05.20 12:50:20.
