data_PCOD9568820
_publ_section_title
;
Structure prediction by ZEFSAII (Michael W. Deem and Ramdas Pophale) SiO2 
 PCOD9568820
Probable space group: P 42/M B C
;
_chemical_formula_sum "Si O2"
_cell_formula_units_Z 112
_cell_length_a 14.705501
_cell_length_b 14.705501
_cell_length_c 27.241479
_cell_angle_alpha 90.000000
_cell_angle_beta 90.000000
_cell_angle_gamma 90.000000
_cell_volume 5891.017770
_symmetry_space_group_name_H-M "P 42/M B C"
_symmetry_group_IT_number 135
_symmetry_cell_setting 'tetragonal'
loop_
_space_group_symop_operation_xyz
x,y,z
-y,x,1/2+z
-x,-y,z
y,-x,1/2+z
1/2+x,1/2-y,-z
1/2-x,1/2+y,-z
1/2+y,1/2+x,1/2-z
1/2-y,1/2-x,1/2-z
-x,-y,-z
y,-x,1/2-z
x,y,-z
-y,x,1/2-z
1/2-x,1/2+y,z
1/2+x,1/2-y,z
1/2-y,1/2-x,1/2+z
1/2+y,1/2+x,1/2+z
loop_
_atom_site_type_symbol
_atom_site_label
_atom_site_fract_x
_atom_site_fract_y
_atom_site_fract_z
Si Si1 0.333224 0.635104 0.902436
Si Si2 0.453375 0.219865 0.202179
Si Si3 0.027007 0.900293 0.140422
Si Si4 0.552257 0.336490 0.553164
Si Si5 0.155097 0.329838 0.944532
Si Si6 0.703971 0.928668 0.183874
Si Si7 0.580717 0.074000 0.352022
O O1 0.438847 0.633893 0.888696
O O2 0.316651 0.554226 0.940493
O O3 0.311894 0.732657 0.924530
O O4 0.279057 0.608373 0.853287
O O5 0.447961 0.318074 0.176549
O O6 0.372194 0.150985 0.186815
O O7 0.447437 0.233419 0.260432
O O8 0.541516 0.160479 0.185077
O O9 0.103565 0.918944 0.099648
O O10 0.000000 0.000000 0.162325
O O11 0.568958 0.381618 0.500000
O O12 0.605726 0.242568 0.554134
O O13 0.087049 0.373109 0.904836
O O14 0.118280 0.321536 0.000000
O O15 0.662974 0.024251 0.164244
O O16 0.500000 0.000000 0.353251
#
# Coordination Sequence:
#
# PCOD9568820 Si02
#       7
#    16  16  16  16  16  16  16
#     4  11  21  39  59  86 120 159 198 251 300 361
#     4  10  20  41  62  91 122 155 203 246 308 376
#     4  10  22  39  57  84 120 158 200 245 294 360
#     4  10  22  40  60  82 115 158 203 251 302 361
#     4  11  22  38  62  90 120 160 205 252 313 372
#     4  10  21  38  66  91 119 159 199 252 310 361
#     4  10  20  39  66  92 122 152 197 259 311 370
#
# _framework density 19.011994000000001
#
# number of rings (size 3 to 8) (size 9 to 14) (size 15 to 20)
#    0.000    1.714    2.857    1.714    0.000    5.143 
#    5.143    1.429    0.000    0.000    0.000    0.000 
#    0.000    0.000    0.000    0.000    0.000    0.000 
#
# Total GULP energy -624726.094791 kJ/mol
# GULP energy per Si atom -5577.911561 kJ/mol
# Density = 1.896872 g / cm^3
# Si number density = 19.011994 Si / 1000 Ang^3
#
#
#
# Elastic Constant Matrix: (Units=GPa)
#
#
# Indices 1 2 3 4 5 6 
#
# 1 55.0503 7.1376 22.4108 0.0000 0.0000 0.0000
# 2 7.1376 55.0503 22.4108 0.0000 0.0000 0.0000
# 3 22.4108 22.4108 88.8739 0.0000 0.0000 0.0000
# 4 0.0000 0.0000 0.0000 28.8326 0.0000 0.0000
# 5 0.0000 0.0000 0.0000 0.0000 28.8326 0.0000
# 6 0.0000 0.0000 0.0000 0.0000 0.0000 14.6712
#
#
#
# Elastic Compliance Matrix: (Units=1/GPa)
#
#
# Indices 1 2 3 4 5 6 
#
# 1 0.020262 -0.000610 -0.004956 0.000000 0.000000 0.000000
# 2 -0.000610 0.020262 -0.004956 0.000000 0.000000 0.000000
# 3 -0.004956 -0.004956 0.013751 0.000000 0.000000 0.000000
# 4 0.000000 0.000000 0.000000 0.034683 0.000000 0.000000
# 5 0.000000 0.000000 0.000000 0.000000 0.034683 0.000000
# 6 0.000000 0.000000 0.000000 0.000000 0.000000 0.068161
#
#
# Mechanical properties :
#
#
# Convention : Reuss Voigt Hill
#
# Bulk Modulus (GPa) = 30.09062 33.65477 31.87270
# Shear Modulus (GPa) = 22.32939 24.26829 23.29884
#
# Velocity S-wave (km/s) = 3.43080 3.57665 3.50449
# Velocity P-wave (km/s) = 5.61742 5.89889 5.75987
#
# Compressibility (1/GPa) = 0.03323295
#
# Stress axis : x y z
#
# Youngs Moduli (GPa) = 49.35439 49.35439 72.72141
#
# Poissons Ratio (x) = 0.03009 0.36037
# Poissons Ratio (y) = 0.03009 0.36037
# Poissons Ratio (z) = 0.24458 0.24458
#
# Static dielectric constant tensor:
#      x y z
#    x 1.661710 0.000000 0.000000 
#    y 0.000000 1.661710 0.000000 
#    z 0.000000 0.000000 1.657160 
# 
# From -- ./inp_files/6540.got.cif
#   From: 2010.05.17/outbox.cif.g08.bks.cpg/sg135_4_cif.got.tgz:6540.got - 2010.05.20 12:50:20.
