data_PCOD9568063
_publ_section_title
;
Structure prediction by ZEFSAII (Michael W. Deem and Ramdas Pophale) SiO2 
 PCOD9568063
Probable space group: P 42/N N M
;
_chemical_formula_sum "Si O2"
_cell_formula_units_Z 64
_cell_length_a 14.521677
_cell_length_b 14.521677
_cell_length_c 13.941773
_cell_angle_alpha 90.000000
_cell_angle_beta 90.000000
_cell_angle_gamma 90.000000
_cell_volume 2940.028583
_symmetry_space_group_name_H-M "P 42/N N M"
_symmetry_group_IT_number 134
_space_group.IT_coordinate_system_code '2'
_symmetry_cell_setting 'tetragonal'
loop_
_space_group_symop_operation_xyz
x,y,z
1/2-y,x,1/2+z
1/2-x,1/2-y,z
y,1/2-x,1/2+z
x,1/2-y,1/2-z
1/2-x,y,1/2-z
y,x,-z
1/2-y,1/2-x,-z
-x,-y,-z
1/2+y,-x,1/2-z
1/2+x,1/2+y,-z
-y,1/2+x,1/2-z
-x,1/2+y,1/2+z
1/2+x,-y,1/2+z
-y,-x,z
1/2+y,1/2+x,z
loop_
_atom_site_type_symbol
_atom_site_label
_atom_site_fract_x
_atom_site_fract_y
_atom_site_fract_z
Si Si1 0.559065 0.293882 0.146971
Si Si2 0.589223 0.944611 0.612938
Si Si3 0.110100 0.469747 0.901022
Si Si4 0.153197 0.219267 0.609014
O O1 0.581996 0.250000 0.250000
O O2 0.646379 0.353622 0.111004
O O3 0.474994 0.365009 0.157775
O O4 0.519913 0.208353 0.085058
O O5 0.569112 0.930889 0.500000
O O6 0.697416 0.918628 0.618774
O O7 0.543962 0.043962 0.639559
O O8 0.119516 0.374849 0.844250
O O9 0.043119 0.543119 0.853775
O O10 0.062595 0.437405 0.000000
O O11 0.250000 0.250000 0.649710
O O12 0.184768 0.184768 0.500000
#
# Coordination Sequence:
#
# PCOD9568063 Si02
#       4
#    16  16  16  16
#     4  11  23  38  58  87 124 163 198 241 312 387
#     4  10  18  31  54  81 108 149 205 253 292 350
#     4  10  20  34  54  79 112 158 207 250 294 354
#     4  10  15  29  51  74 103 137 181 246 297 335
#
# _framework density 21.768495999999999
#
# number of rings (size 3 to 8) (size 9 to 14) (size 15 to 20)
#    0.000    1.750    5.000    2.250    0.000    1.750 
#    0.000    2.500    0.000    2.250    0.000    0.000 
#    0.000    0.000    0.000   13.750    0.000   10.250 
#
# Total GULP energy -356505.034713 kJ/mol
# GULP energy per Si atom -5570.391167 kJ/mol
# Density = 2.171895 g / cm^3
# Si number density = 21.768496 Si / 1000 Ang^3
#
#
#
# Elastic Constant Matrix: (Units=GPa)
#
#
# Indices 1 2 3 4 5 6 
#
# 1 184.9225 120.8848 18.0476 0.0000 0.0000 0.0000
# 2 120.8848 184.9226 18.0474 0.0000 0.0000 0.0000
# 3 18.0476 18.0474 60.5328 0.0000 0.0000 0.0000
# 4 0.0000 0.0000 0.0000 417.5550 0.0000 0.0000
# 5 0.0000 0.0000 0.0000 0.0000 417.8633 0.0000
# 6 0.0000 0.0000 0.0000 0.0000 0.0000 65.7630
#
#
#
# Elastic Compliance Matrix: (Units=1/GPa)
#
#
# Indices 1 2 3 4 5 6 
#
# 1 0.009503 -0.006113 -0.001011 0.000000 0.000000 0.000000
# 2 -0.006113 0.009503 -0.001010 0.000000 0.000000 0.000000
# 3 -0.001011 -0.001010 0.017123 0.000000 0.000000 0.000000
# 4 0.000000 0.000000 0.000000 0.002395 0.000000 0.000000
# 5 0.000000 0.000000 0.000000 0.000000 0.002393 0.000000
# 6 0.000000 0.000000 0.000000 0.000000 0.000000 0.015206
#
#
# Mechanical properties :
#
#
# Convention : Reuss Voigt Hill
#
# Bulk Modulus (GPa) = 50.35469 82.70417 66.52943
# Shear Modulus (GPa) = 63.28316 198.46278 130.87297
#
# Velocity S-wave (km/s) = 5.39760 9.55864 7.76214
# Velocity P-wave (km/s) = 7.87576 12.64510 10.53390
#
# Compressibility (1/GPa) = 0.01985912
#
# Stress axis : x y z
#
# Youngs Moduli (GPa) = 105.23489 105.23506 58.40258
#
# Poissons Ratio (x) = 0.64333 0.05902
# Poissons Ratio (y) = 0.64333 0.05901
# Poissons Ratio (z) = 0.10634 0.10634
#
# Static dielectric constant tensor:
#      x y z
#    x 1.916710 0.000000 0.000000 
#    y 0.000000 1.916710 0.000000 
#    z 0.000000 0.000000 1.980490 
# 
# From -- ./inp_files/7468.got.cif
#   From: 2010.05.17/outbox.cif.g08.bks.cpg/sg134_4_cif.got.tgz:7468.got - 2010.05.20 12:42:49.
