data_PCOD9568996
_publ_section_title
;
Structure prediction by ZEFSAII (Michael W. Deem and Ramdas Pophale) SiO2 
 PCOD9568996
Probable space group: P 42/M B C
;
_chemical_formula_sum "Si O2"
_cell_formula_units_Z 96
_cell_length_a 24.705803
_cell_length_b 24.705803
_cell_length_c 8.467603
_cell_angle_alpha 90.000000
_cell_angle_beta 90.000000
_cell_angle_gamma 90.000000
_cell_volume 5168.427592
_symmetry_space_group_name_H-M "P 42/M B C"
_symmetry_group_IT_number 135
_symmetry_cell_setting 'tetragonal'
loop_
_space_group_symop_operation_xyz
x,y,z
-y,x,1/2+z
-x,-y,z
y,-x,1/2+z
1/2+x,1/2-y,-z
1/2-x,1/2+y,-z
1/2+y,1/2+x,1/2-z
1/2-y,1/2-x,1/2-z
-x,-y,-z
y,-x,1/2-z
x,y,-z
-y,x,1/2-z
1/2-x,1/2+y,z
1/2+x,1/2-y,z
1/2-y,1/2-x,1/2+z
1/2+y,1/2+x,1/2+z
loop_
_atom_site_type_symbol
_atom_site_label
_atom_site_fract_x
_atom_site_fract_y
_atom_site_fract_z
Si Si1 0.151744 0.566278 0.190538
Si Si2 0.859267 0.554792 0.810134
Si Si3 0.266033 0.431769 0.809079
Si Si4 0.775853 0.944560 0.191808
Si Si5 0.368092 0.640851 0.811114
Si Si6 0.449404 0.560056 0.322101
O O1 0.114209 0.614209 0.250000
O O2 0.130875 0.507098 0.243373
O O3 0.214623 0.569987 0.240400
O O4 0.151592 0.566882 0.000000
O O5 0.902873 0.597128 0.750000
O O6 0.797480 0.569409 0.766146
O O7 0.860841 0.554563 0.000000
O O8 0.286321 0.492682 0.758118
O O9 0.297441 0.380248 0.737192
O O10 0.270763 0.429793 0.000000
O O11 0.817226 0.896792 0.239912
O O12 0.777244 0.946041 0.000000
O O13 0.418082 0.612828 0.723417
O O14 0.371693 0.636646 0.000000
O O15 0.513029 0.567488 0.297891
O O16 0.437839 0.542759 0.500000
#
# Coordination Sequence:
#
# PCOD9568996 Si02
#       6
#    16  16  16  16  16  16
#     4   9  18  35  56  79 104 134 167 203 249 306
#     4   9  19  35  56  79 106 137 170 206 254 309
#     4   9  18  35  54  72  99 139 177 214 257 307
#     4   8  17  34  53  70  98 137 173 207 253 306
#     4  11  20  31  50  75  99 132 175 218 262 310
#     4  11  21  33  47  67  96 129 168 218 271 321
#
# _framework density 18.574314999999999
#
# number of rings (size 3 to 8) (size 9 to 14) (size 15 to 20)
#    0.000    2.500    0.000    5.500    0.000    3.000 
#    0.000    7.500    0.000    4.000    0.000    0.000 
#    0.000    0.000    0.000    0.000    0.000    0.000 
#
# Total GULP energy -534837.829279 kJ/mol
# GULP energy per Si atom -5571.227388 kJ/mol
# Density = 1.853204 g / cm^3
# Si number density = 18.574315 Si / 1000 Ang^3
#
#
#
# Elastic Constant Matrix: (Units=GPa)
#
#
# Indices 1 2 3 4 5 6 
#
# 1 126.3860 33.0599 14.8975 0.0000 0.0000 0.0000
# 2 33.0599 126.3939 14.8995 0.0000 0.0000 0.0000
# 3 14.8975 14.8995 25.8579 0.0000 0.0000 0.0000
# 4 0.0000 0.0000 0.0000 5019.1361 0.0000 0.0000
# 5 0.0000 0.0000 0.0000 0.0000 4846.7949 0.0000
# 6 0.0000 0.0000 0.0000 0.0000 0.0000 39.2141
#
#
#
# Elastic Compliance Matrix: (Units=1/GPa)
#
#
# Indices 1 2 3 4 5 6 
#
# 1 0.008872 -0.001843 -0.004049 0.000000 0.000000 0.000000
# 2 -0.001843 0.008871 -0.004050 0.000000 0.000000 0.000000
# 3 -0.004049 -0.004050 0.043339 0.000000 0.000000 0.000000
# 4 0.000000 0.000000 0.000000 0.000199 0.000000 0.000000
# 5 0.000000 0.000000 0.000000 0.000000 0.000206 0.000000
# 6 0.000000 0.000000 0.000000 0.000000 0.000000 0.025501
#
#
# Mechanical properties :
#
#
# Convention : Reuss Voigt Hill
#
# Bulk Modulus (GPa) = 24.27307 44.92795 34.60051
# Shear Modulus (GPa) = 41.45743 1995.41440 1018.43591
#
# Velocity S-wave (km/s) = 4.72950 32.81187 23.44128
# Velocity P-wave (km/s) = 6.55139 38.20645 27.41034
#
# Compressibility (1/GPa) = 0.04119792
#
# Stress axis : x y z
#
# Youngs Moduli (GPa) = 112.71805 112.72342 23.07380
#
# Poissons Ratio (x) = 0.20777 0.09343
# Poissons Ratio (y) = 0.20776 0.09344
# Poissons Ratio (z) = 0.45642 0.45650
#
# Static dielectric constant tensor:
#      x y z
#    x 1.653730 0.000000 0.000000 
#    y 0.000000 1.653730 0.000000 
#    z 0.000000 0.000000 1.698680 
# 
# From -- ./inp_files/1260.got.cif
#   From: 2010.05.17/outbox.cif.g08.bks.cpg/sg135_1_cif.got.tgz:1260.got - 2010.05.20 12:50:20.
