data_PCOD9568788
_publ_section_title
;
Structure prediction by ZEFSAII (Michael W. Deem and Ramdas Pophale) SiO2 
 PCOD9568788
Probable space group: P 42/M B C
;
_chemical_formula_sum "Si O2"
_cell_formula_units_Z 120
_cell_length_a 18.677132
_cell_length_b 18.677132
_cell_length_c 14.044756
_cell_angle_alpha 90.000000
_cell_angle_beta 90.000000
_cell_angle_gamma 90.000000
_cell_volume 4899.306107
_symmetry_space_group_name_H-M "P 42/M B C"
_symmetry_group_IT_number 135
_symmetry_cell_setting 'tetragonal'
loop_
_space_group_symop_operation_xyz
x,y,z
-y,x,1/2+z
-x,-y,z
y,-x,1/2+z
1/2+x,1/2-y,-z
1/2-x,1/2+y,-z
1/2+y,1/2+x,1/2-z
1/2-y,1/2-x,1/2-z
-x,-y,-z
y,-x,1/2-z
x,y,-z
-y,x,1/2-z
1/2-x,1/2+y,z
1/2+x,1/2-y,z
1/2-y,1/2-x,1/2+z
1/2+y,1/2+x,1/2+z
loop_
_atom_site_type_symbol
_atom_site_label
_atom_site_fract_x
_atom_site_fract_y
_atom_site_fract_z
Si Si1 0.577262 0.446377 0.104564
Si Si2 0.271625 0.771625 0.750000
Si Si3 0.496586 0.724347 0.112502
Si Si4 0.253263 0.898620 0.885362
Si Si5 0.327504 0.329620 0.605341
Si Si6 0.489897 0.884860 0.614976
Si Si7 0.886028 0.484603 0.615669
Si Si8 0.906925 0.909222 0.681821
O O1 0.658119 0.413148 0.103831
O O2 0.561472 0.420949 0.212381
O O3 0.566786 0.530716 0.110036
O O4 0.552306 0.420406 0.000000
O O5 0.284494 0.828448 0.834115
O O6 0.282905 0.697890 0.806368
O O7 0.411061 0.705111 0.118276
O O8 0.510707 0.804515 0.148392
O O9 0.402859 0.674446 0.341577
O O10 0.514088 0.723867 0.000000
O O11 0.306131 0.963346 0.859228
O O12 0.048914 0.833789 0.839180
O O13 0.249765 0.891896 0.000000
O O14 0.305561 0.303829 0.500000
O O15 0.490459 0.885586 0.500000
O O16 0.566623 0.916013 0.644763
O O17 0.430751 0.944506 0.642997
O O18 0.884003 0.484903 0.500000
#
# Coordination Sequence:
#
# PCOD9568788 Si02
#       8
#    16   8  16  16  16  16  16  16
#     4  11  25  48  73 103 142 189 242 302 376 456
#     4  12  22  40  64  99 134 184 234 303 366 448
#     4  10  20  36  64 105 147 186 237 305 377 445
#     4  11  23  40  66 102 140 188 248 313 376 450
#     4  10  22  41  67  97 133 183 236 296 371 446
#     4   8  15  31  59  95 137 188 245 300 365 442
#     4   8  14  29  58  97 140 188 240 298 367 444
#     4  12  25  45  73 104 142 190 251 315 374 453
#
# _framework density 24.493265999999998
#
# number of rings (size 3 to 8) (size 9 to 14) (size 15 to 20)
#    0.000    1.867    1.333    4.000    0.000    4.000 
#    0.000    6.667    0.000   11.200    0.000    0.000 
#    0.000    0.000    0.000    2.933    0.000    0.267 
#
# Total GULP energy -669905.021582 kJ/mol
# GULP energy per Si atom -5582.541847 kJ/mol
# Density = 2.443752 g / cm^3
# Si number density = 24.493266 Si / 1000 Ang^3
#
#
#
# Elastic Constant Matrix: (Units=GPa)
#
#
# Indices 1 2 3 4 5 6 
#
# 1 114.8390 32.6679 37.5674 0.0000 0.0000 0.0000
# 2 32.6679 114.8390 37.5674 0.0000 0.0000 0.0000
# 3 37.5674 37.5674 189.6837 0.0000 0.0000 0.0000
# 4 0.0000 0.0000 0.0000 24.5143 0.0000 0.0000
# 5 0.0000 0.0000 0.0000 0.0000 24.5143 0.0000
# 6 0.0000 0.0000 0.0000 0.0000 0.0000 28.8622
#
#
#
# Elastic Compliance Matrix: (Units=1/GPa)
#
#
# Indices 1 2 3 4 5 6 
#
# 1 0.009855 -0.002315 -0.001493 0.000000 0.000000 0.000000
# 2 -0.002315 0.009855 -0.001493 0.000000 0.000000 0.000000
# 3 -0.001493 -0.001493 0.005863 0.000000 0.000000 0.000000
# 4 0.000000 0.000000 0.000000 0.040793 0.000000 0.000000
# 5 0.000000 0.000000 0.000000 0.000000 0.040793 0.000000
# 6 0.000000 0.000000 0.000000 0.000000 0.000000 0.034647
#
#
# Mechanical properties :
#
#
# Convention : Reuss Voigt Hill
#
# Bulk Modulus (GPa) = 66.79957 70.55189 68.67573
# Shear Modulus (GPa) = 31.76646 36.34876 34.05761
#
# Velocity S-wave (km/s) = 3.60522 3.85649 3.73297
# Velocity P-wave (km/s) = 6.68296 6.97834 6.83225
#
# Compressibility (1/GPa) = 0.01497016
#
# Stress axis : x y z
#
# Youngs Moduli (GPa) = 101.47282 101.47282 170.54823
#
# Poissons Ratio (x) = 0.23490 0.25468
# Poissons Ratio (y) = 0.23490 0.25468
# Poissons Ratio (z) = 0.15153 0.15153
#
# Static dielectric constant tensor:
#      x y z
#    x 2.030520 0.000000 0.000000 
#    y 0.000000 2.030520 0.000000 
#    z 0.000000 0.000000 1.962680 
# 
# From -- ./inp_files/3713.got.cif
#   From: 2010.05.17/outbox.cif.g08.bks.cpg/sg135_2_cif.got.tgz:3713.got - 2010.05.20 12:50:20.
