data_PCOD9568922
_publ_section_title
;
Structure prediction by ZEFSAII (Michael W. Deem and Ramdas Pophale) SiO2 
 PCOD9568922
Probable space group: P 42/M B C
;
_chemical_formula_sum "Si O2"
_cell_formula_units_Z 64
_cell_length_a 13.643004
_cell_length_b 13.643004
_cell_length_c 14.479388
_cell_angle_alpha 90.000000
_cell_angle_beta 90.000000
_cell_angle_gamma 90.000000
_cell_volume 2695.071049
_symmetry_space_group_name_H-M "P 42/M B C"
_symmetry_group_IT_number 135
_symmetry_cell_setting 'tetragonal'
loop_
_space_group_symop_operation_xyz
x,y,z
-y,x,1/2+z
-x,-y,z
y,-x,1/2+z
1/2+x,1/2-y,-z
1/2-x,1/2+y,-z
1/2+y,1/2+x,1/2-z
1/2-y,1/2-x,1/2-z
-x,-y,-z
y,-x,1/2-z
x,y,-z
-y,x,1/2-z
1/2-x,1/2+y,z
1/2+x,1/2-y,z
1/2-y,1/2-x,1/2+z
1/2+y,1/2+x,1/2+z
loop_
_atom_site_type_symbol
_atom_site_label
_atom_site_fract_x
_atom_site_fract_y
_atom_site_fract_z
Si Si1 0.671790 0.626976 0.892957
Si Si2 0.983431 0.675052 0.262354
Si Si3 0.145970 0.733451 0.607193
Si Si4 0.172590 0.960235 0.389824
O O1 0.746605 0.576292 0.824951
O O2 0.699238 0.741776 0.887105
O O3 0.557503 0.608961 0.868905
O O4 0.685354 0.597117 0.000000
O O5 0.923699 0.576302 0.250000
O O6 0.983395 0.727275 0.163334
O O7 0.081064 0.670885 0.323223
O O8 0.116219 0.722682 0.500000
O O9 0.138306 0.849693 0.633093
O O10 0.187554 0.960511 0.500000
#
# Coordination Sequence:
#
# PCOD9568922 Si02
#       4
#    16  16  16  16
#     4  10  22  43  67  93 131 175 225 284 342 401
#     4  12  23  37  66  96 132 174 223 275 336 406
#     4  10  22  42  66  95 133 176 227 281 342 406
#     4  10  22  39  63  92 129 173 219 274 330 396
#
# _framework density 23.747056000000001
#
# number of rings (size 3 to 8) (size 9 to 14) (size 15 to 20)
#    0.000    1.500    2.500    2.250    0.000    2.000 
#    0.000    8.750    0.000    4.500    0.000    0.000 
#    0.000    0.000    0.000    0.000    0.000    0.000 
#
# Total GULP energy -358185.958548 kJ/mol
# GULP energy per Si atom -5596.655602 kJ/mol
# Density = 2.369301 g / cm^3
# Si number density = 23.747056 Si / 1000 Ang^3
#
#
#
# Elastic Constant Matrix: (Units=GPa)
#
#
# Indices 1 2 3 4 5 6 
#
# 1 82.1154 53.7753 35.4813 0.0000 0.0000 0.0000
# 2 53.7753 82.1141 35.4814 0.0000 0.0000 0.0000
# 3 35.4813 35.4814 57.7840 0.0000 0.0000 0.0000
# 4 0.0000 0.0000 0.0000 26.4072 0.0000 0.0000
# 5 0.0000 0.0000 0.0000 0.0000 26.4070 0.0000
# 6 0.0000 0.0000 0.0000 0.0000 0.0000 37.1170
#
#
#
# Elastic Compliance Matrix: (Units=1/GPa)
#
#
# Indices 1 2 3 4 5 6 
#
# 1 0.023059 -0.012227 -0.006651 0.000000 0.000000 0.000000
# 2 -0.012227 0.023060 -0.006652 0.000000 0.000000 0.000000
# 3 -0.006651 -0.006652 0.025474 0.000000 0.000000 0.000000
# 4 0.000000 0.000000 0.000000 0.037868 0.000000 0.000000
# 5 0.000000 0.000000 0.000000 0.000000 0.037869 0.000000
# 6 0.000000 0.000000 0.000000 0.000000 0.000000 0.026942
#
#
# Mechanical properties :
#
#
# Convention : Reuss Voigt Hill
#
# Bulk Modulus (GPa) = 48.70162 52.38772 50.54467
# Shear Modulus (GPa) = 21.53536 24.47128 23.00332
#
# Velocity S-wave (km/s) = 3.01469 3.21362 3.11574
# Velocity P-wave (km/s) = 5.71584 5.98986 5.85445
#
# Compressibility (1/GPa) = 0.02053320
#
# Stress axis : x y z
#
# Youngs Moduli (GPa) = 43.36674 43.36581 39.25535
#
# Poissons Ratio (x) = 0.53024 0.26110
# Poissons Ratio (y) = 0.53025 0.26111
# Poissons Ratio (z) = 0.28844 0.28845
#
# Static dielectric constant tensor:
#      x y z
#    x 1.938870 0.000000 0.000000 
#    y 0.000000 1.938870 0.000000 
#    z 0.000000 0.000000 1.445290 
# 
# From -- ./inp_files/3130.got.cif
#   From: 2010.05.17/outbox.cif.g08.bks.cpg/sg135_2_cif.got.tgz:3130.got - 2010.05.20 12:50:20.
