data_PCOD9568475
_publ_section_title
;
Structure prediction by ZEFSAII (Michael W. Deem and Ramdas Pophale) SiO2 
 PCOD9568475
Probable space group: P 42/N N M
;
_chemical_formula_sum "Si O2"
_cell_formula_units_Z 88
_cell_length_a 16.822152
_cell_length_b 16.822152
_cell_length_c 16.084840
_cell_angle_alpha 90.000000
_cell_angle_beta 90.000000
_cell_angle_gamma 90.000000
_cell_volume 4551.765197
_symmetry_space_group_name_H-M "P 42/N N M"
_symmetry_group_IT_number 134
_space_group.IT_coordinate_system_code '2'
_symmetry_cell_setting 'tetragonal'
loop_
_space_group_symop_operation_xyz
x,y,z
1/2-y,x,1/2+z
1/2-x,1/2-y,z
y,1/2-x,1/2+z
x,1/2-y,1/2-z
1/2-x,y,1/2-z
y,x,-z
1/2-y,1/2-x,-z
-x,-y,-z
1/2+y,-x,1/2-z
1/2+x,1/2+y,-z
-y,1/2+x,1/2-z
-x,1/2+y,1/2+z
1/2+x,-y,1/2+z
-y,-x,z
1/2+y,1/2+x,z
loop_
_atom_site_type_symbol
_atom_site_label
_atom_site_fract_x
_atom_site_fract_y
_atom_site_fract_z
Si Si1 0.964615 0.912442 0.175439
Si Si2 0.859402 0.490952 0.928312
Si Si3 0.717136 0.606992 0.450586
Si Si4 0.362173 0.164095 0.796094
Si Si5 0.220984 0.595853 0.341034
Si Si6 0.601380 0.601380 0.000000
O O1 0.884512 0.896757 0.224113
O O2 0.018673 0.833407 0.177849
O O3 0.946081 0.924932 0.079996
O O4 0.016862 0.983139 0.211776
O O5 0.943292 0.443292 0.926963
O O6 0.845110 0.561488 0.859589
O O7 0.792147 0.427927 0.901096
O O8 0.837580 0.533564 0.016034
O O9 0.682731 0.682731 0.500000
O O10 0.708513 0.633826 0.354979
O O11 0.805516 0.589843 0.480744
O O12 0.354008 0.250000 0.750000
O O13 0.250000 0.621204 0.250000
O O14 0.163320 0.663320 0.376299
#
# Coordination Sequence:
#
# PCOD9568475 Si02
#       6
#    16  16  16  16  16   8
#     4  11  21  35  58  79 107 147 191 240 292 353
#     4  11  20  36  57  83 119 153 186 232 285 350
#     4  10  23  37  56  82 112 151 191 235 284 345
#     4  11  20  37  56  81 113 148 190 231 288 344
#     4  11  20  33  54  85 120 155 192 238 296 360
#     4  12  22  42  56  78 112 146 198 244 298 344
#
# _framework density 19.333158999999998
#
# number of rings (size 3 to 8) (size 9 to 14) (size 15 to 20)
#    0.000    1.091    5.455    2.727    0.000    6.000 
#    0.000    3.636    0.000    0.000    0.000    0.000 
#    0.000    0.000    0.000    0.364    0.000    0.000 
#
# Total GULP energy -491066.577298 kJ/mol
# GULP energy per Si atom -5580.302015 kJ/mol
# Density = 1.928916 g / cm^3
# Si number density = 19.333159 Si / 1000 Ang^3
#
#
#
# Elastic Constant Matrix: (Units=GPa)
#
#
# Indices 1 2 3 4 5 6 
#
# 1 95.3618 -0.9611 18.0273 0.0000 0.0000 0.0000
# 2 -0.9611 95.3618 18.0273 0.0000 0.0000 0.0000
# 3 18.0273 18.0273 97.5076 0.0000 0.0000 0.0000
# 4 0.0000 0.0000 0.0000 24.2956 0.0000 0.0000
# 5 0.0000 0.0000 0.0000 0.0000 24.2956 0.0000
# 6 0.0000 0.0000 0.0000 0.0000 0.0000 25.2433
#
#
#
# Elastic Compliance Matrix: (Units=1/GPa)
#
#
# Indices 1 2 3 4 5 6 
#
# 1 0.010890 0.000508 -0.002107 0.000000 0.000000 0.000000
# 2 0.000508 0.010890 -0.002107 0.000000 0.000000 0.000000
# 3 -0.002107 -0.002107 0.011035 0.000000 0.000000 0.000000
# 4 0.000000 0.000000 0.000000 0.041160 0.000000 0.000000
# 5 0.000000 0.000000 0.000000 0.000000 0.041160 0.000000
# 6 0.000000 0.000000 0.000000 0.000000 0.000000 0.039614
#
#
# Mechanical properties :
#
#
# Convention : Reuss Voigt Hill
#
# Bulk Modulus (GPa) = 39.36745 39.82421 39.59583
# Shear Modulus (GPa) = 29.30344 31.64276 30.47310
#
# Velocity S-wave (km/s) = 3.89743 4.05002 3.97446
# Velocity P-wave (km/s) = 6.37653 6.52026 6.44880
#
# Compressibility (1/GPa) = 0.02540169
#
# Stress axis : x y z
#
# Youngs Moduli (GPa) = 91.82853 91.82853 90.62246
#
# Poissons Ratio (x) = -0.04666 0.19097
# Poissons Ratio (y) = -0.04666 0.19097
# Poissons Ratio (z) = 0.19351 0.19351
#
# Static dielectric constant tensor:
#      x y z
#    x 1.704680 0.000000 0.000000 
#    y 0.000000 1.704680 0.000000 
#    z 0.000000 0.000000 1.727980 
# 
# From -- ./inp_files/6478.got.cif
#   From: 2010.05.17/outbox.cif.g08.bks.cpg/sg134_4_cif.got.tgz:6478.got - 2010.05.20 12:42:49.
