data_PCOD9568070
_publ_section_title
;
Structure prediction by ZEFSAII (Michael W. Deem and Ramdas Pophale) SiO2 
 PCOD9568070
Probable space group: P 42/N N M
;
_chemical_formula_sum "Si O2"
_cell_formula_units_Z 64
_cell_length_a 12.874477
_cell_length_b 12.874477
_cell_length_c 23.484378
_cell_angle_alpha 90.000000
_cell_angle_beta 90.000000
_cell_angle_gamma 90.000000
_cell_volume 3892.586333
_symmetry_space_group_name_H-M "P 42/N N M"
_symmetry_group_IT_number 134
_space_group.IT_coordinate_system_code '2'
_symmetry_cell_setting 'tetragonal'
loop_
_space_group_symop_operation_xyz
x,y,z
1/2-y,x,1/2+z
1/2-x,1/2-y,z
y,1/2-x,1/2+z
x,1/2-y,1/2-z
1/2-x,y,1/2-z
y,x,-z
1/2-y,1/2-x,-z
-x,-y,-z
1/2+y,-x,1/2-z
1/2+x,1/2+y,-z
-y,1/2+x,1/2-z
-x,1/2+y,1/2+z
1/2+x,-y,1/2+z
-y,-x,z
1/2+y,1/2+x,z
loop_
_atom_site_type_symbol
_atom_site_label
_atom_site_fract_x
_atom_site_fract_y
_atom_site_fract_z
Si Si1 0.839045 0.339045 0.513654
Si Si2 0.558372 0.732012 0.015217
Si Si3 0.661597 0.338404 0.118545
Si Si4 0.107809 0.067575 0.583323
Si Si5 0.979105 0.303196 0.192493
O O1 0.750000 0.250000 0.518857
O O2 0.808724 0.449743 0.538385
O O3 0.861570 0.361570 0.446693
O O4 0.596678 0.815423 0.061418
O O5 0.644251 0.644251 0.000000
O O6 0.529500 0.800700 0.959108
O O7 0.750000 0.250000 0.116241
O O8 0.569272 0.288253 0.154068
O O9 0.138847 0.056072 0.649133
O O10 0.006841 0.993160 0.573796
O O11 0.018654 0.250000 0.250000
O O12 0.885108 0.385108 0.205856
#
# Coordination Sequence:
#
# PCOD9568070 Si02
#       5
#     8  16   8  16  16
#     4  11  19  33  53  77 101 133 174 214 261 315
#     4  11  21  33  49  71 104 140 173 214 258 308
#     4   9  16  25  41  71 103 128 160 208 257 303
#     4  10  19  32  49  71 101 143 175 204 253 316
#     4  10  17  26  45  73 104 134 168 215 264 310
#
# _framework density 16.441510999999998
#
# number of rings (size 3 to 8) (size 9 to 14) (size 15 to 20)
#    0.000    1.750    3.750    4.875    0.000    0.000 
#    0.000    0.000    0.000    3.000    0.000    0.000 
#    0.000    0.000    0.000    1.250    2.000    0.000 
#
# Total GULP energy -356275.169970 kJ/mol
# GULP energy per Si atom -5566.799531 kJ/mol
# Density = 1.640409 g / cm^3
# Si number density = 16.441511 Si / 1000 Ang^3
#
#
#
# Elastic Constant Matrix: (Units=GPa)
#
#
# Indices 1 2 3 4 5 6 
#
# 1 83.9250 44.7870 14.4186 0.0000 0.0000 0.0000
# 2 44.7870 83.9250 14.4186 0.0000 0.0000 0.0000
# 3 14.4186 14.4186 75.9316 0.0000 0.0000 0.0000
# 4 0.0000 0.0000 0.0000 15.6378 0.0000 0.0000
# 5 0.0000 0.0000 0.0000 0.0000 15.6378 0.0000
# 6 0.0000 0.0000 0.0000 0.0000 0.0000 32.4438
#
#
#
# Elastic Compliance Matrix: (Units=1/GPa)
#
#
# Indices 1 2 3 4 5 6 
#
# 1 0.016833 -0.008718 -0.001541 0.000000 0.000000 0.000000
# 2 -0.008718 0.016833 -0.001541 0.000000 0.000000 0.000000
# 3 -0.001541 -0.001541 0.013755 0.000000 0.000000 0.000000
# 4 0.000000 0.000000 0.000000 0.063948 0.000000 0.000000
# 5 0.000000 0.000000 0.000000 0.000000 0.063948 0.000000
# 6 0.000000 0.000000 0.000000 0.000000 0.000000 0.030823
#
#
# Mechanical properties :
#
#
# Convention : Reuss Voigt Hill
#
# Bulk Modulus (GPa) = 41.98062 43.44777 42.71419
# Shear Modulus (GPa) = 21.03687 24.08769 22.56228
#
# Velocity S-wave (km/s) = 3.58089 3.83175 3.70844
# Velocity P-wave (km/s) = 6.53343 6.78671 6.66128
#
# Compressibility (1/GPa) = 0.02382051
#
# Stress axis : x y z
#
# Youngs Moduli (GPa) = 59.40863 59.40863 72.70124
#
# Poissons Ratio (x) = 0.51793 0.11202
# Poissons Ratio (y) = 0.51793 0.11202
# Poissons Ratio (z) = 0.09154 0.09154
#
# Static dielectric constant tensor:
#      x y z
#    x 1.644190 0.000000 0.000000 
#    y 0.000000 1.644190 0.000000 
#    z 0.000000 0.000000 1.557540 
# 
# From -- ./inp_files/9823.got.cif
#   From: 2010.05.17/outbox.cif.g08.bks.cpg/sg134_5_cif.got.tgz:9823.got - 2010.05.20 12:42:49.
