data_PCOD9568871
_publ_section_title
;
Structure prediction by ZEFSAII (Michael W. Deem and Ramdas Pophale) SiO2 
 PCOD9568871
Probable space group: P 42/M B C
;
_chemical_formula_sum "Si O2"
_cell_formula_units_Z 60
_cell_length_a 13.382203
_cell_length_b 13.382203
_cell_length_c 14.597164
_cell_angle_alpha 90.000000
_cell_angle_beta 90.000000
_cell_angle_gamma 90.000000
_cell_volume 2614.109134
_symmetry_space_group_name_H-M "P 42/M B C"
_symmetry_group_IT_number 135
_symmetry_cell_setting 'tetragonal'
loop_
_space_group_symop_operation_xyz
x,y,z
-y,x,1/2+z
-x,-y,z
y,-x,1/2+z
1/2+x,1/2-y,-z
1/2-x,1/2+y,-z
1/2+y,1/2+x,1/2-z
1/2-y,1/2-x,1/2-z
-x,-y,-z
y,-x,1/2-z
x,y,-z
-y,x,1/2-z
1/2-x,1/2+y,z
1/2+x,1/2-y,z
1/2-y,1/2-x,1/2+z
1/2+y,1/2+x,1/2+z
loop_
_atom_site_type_symbol
_atom_site_label
_atom_site_fract_x
_atom_site_fract_y
_atom_site_fract_z
Si Si1 0.967602 0.736361 0.102316
Si Si2 0.000000 0.000000 0.250000
Si Si3 0.582153 0.861849 0.394283
Si Si4 0.055058 0.868881 0.398392
Si Si5 0.404639 0.904639 0.250000
O O1 0.947681 0.853666 0.103577
O O2 0.903887 0.688137 0.182275
O O3 0.076150 0.685055 0.117180
O O4 0.935829 0.703850 0.000000
O O5 0.987671 0.903821 0.314857
O O6 0.548759 0.880876 0.500000
O O7 0.594420 0.743132 0.385461
O O8 0.499420 0.895491 0.320004
O O9 0.008310 0.873405 0.500000
#
# Coordination Sequence:
#
# PCOD9568871 Si02
#       5
#    16   4  16  16   8
#     4  10  21  39  61  88 125 167 211 262 320 385
#     4  12  22  40  64  90 124 176 218 268 332 394
#     4  10  21  39  63  92 128 168 213 268 328 385
#     4  10  23  43  63  91 129 171 218 268 327 393
#     4  12  21  36  62  96 128 163 210 271 328 380
#
# _framework density 22.952369000000001
#
# number of rings (size 3 to 8) (size 9 to 14) (size 15 to 20)
#    0.000    1.600    0.000    5.200    0.000    2.133 
#   14.400    0.000    0.000    0.000    0.000    0.000 
#    0.000    0.000    0.000    0.000    0.000    0.000 
#
# Total GULP energy -334867.962608 kJ/mol
# GULP energy per Si atom -5581.132710 kJ/mol
# Density = 2.290013 g / cm^3
# Si number density = 22.952369 Si / 1000 Ang^3
#
#
#
# Elastic Constant Matrix: (Units=GPa)
#
#
# Indices 1 2 3 4 5 6 
#
# 1 60.1226 23.0781 34.3126 0.0000 0.0000 0.0000
# 2 23.0781 60.1226 34.3126 0.0000 0.0000 0.0000
# 3 34.3126 34.3126 156.9716 0.0000 0.0000 0.0000
# 4 0.0000 0.0000 0.0000 33.0953 0.0000 0.0000
# 5 0.0000 0.0000 0.0000 0.0000 33.0953 0.0000
# 6 0.0000 0.0000 0.0000 0.0000 0.0000 19.4342
#
#
#
# Elastic Compliance Matrix: (Units=1/GPa)
#
#
# Indices 1 2 3 4 5 6 
#
# 1 0.020829 -0.006166 -0.003205 0.000000 0.000000 0.000000
# 2 -0.006166 0.020829 -0.003205 0.000000 0.000000 0.000000
# 3 -0.003205 -0.003205 0.007772 0.000000 0.000000 0.000000
# 4 0.000000 0.000000 0.000000 0.030216 0.000000 0.000000
# 5 0.000000 0.000000 0.000000 0.000000 0.030216 0.000000
# 6 0.000000 0.000000 0.000000 0.000000 0.000000 0.051456
#
#
# Mechanical properties :
#
#
# Convention : Reuss Voigt Hill
#
# Bulk Modulus (GPa) = 41.19166 51.18041 46.18604
# Shear Modulus (GPa) = 25.69887 29.49253 27.59570
#
# Velocity S-wave (km/s) = 3.34976 3.58850 3.47119
# Velocity P-wave (km/s) = 5.73993 6.28623 6.01928
#
# Compressibility (1/GPa) = 0.02427676
#
# Stress axis : x y z
#
# Youngs Moduli (GPa) = 48.01071 48.01071 128.67004
#
# Poissons Ratio (x) = 0.29603 0.41241
# Poissons Ratio (y) = 0.29603 0.41241
# Poissons Ratio (z) = 0.15388 0.15388
#
# Static dielectric constant tensor:
#      x y z
#    x 1.869600 0.000000 0.000000 
#    y 0.000000 1.869600 0.000000 
#    z 0.000000 0.000000 1.904140 
# 
# From -- ./inp_files/3217.got.cif
#   From: 2010.05.17/outbox.cif.g08.bks.cpg/sg135_2_cif.got.tgz:3217.got - 2010.05.20 12:50:20.
