data_PCOD9568753
_publ_section_title
;
Structure prediction by ZEFSAII (Michael W. Deem and Ramdas Pophale) SiO2 
 PCOD9568753
Probable space group: P 42/M B C
;
_chemical_formula_sum "Si O2"
_cell_formula_units_Z 56
_cell_length_a 17.400711
_cell_length_b 17.400711
_cell_length_c 9.512222
_cell_angle_alpha 90.000000
_cell_angle_beta 90.000000
_cell_angle_gamma 90.000000
_cell_volume 2880.155697
_symmetry_space_group_name_H-M "P 42/M B C"
_symmetry_group_IT_number 135
_symmetry_cell_setting 'tetragonal'
loop_
_space_group_symop_operation_xyz
x,y,z
-y,x,1/2+z
-x,-y,z
y,-x,1/2+z
1/2+x,1/2-y,-z
1/2-x,1/2+y,-z
1/2+y,1/2+x,1/2-z
1/2-y,1/2-x,1/2-z
-x,-y,-z
y,-x,1/2-z
x,y,-z
-y,x,1/2-z
1/2-x,1/2+y,z
1/2+x,1/2-y,z
1/2-y,1/2-x,1/2+z
1/2+y,1/2+x,1/2+z
loop_
_atom_site_type_symbol
_atom_site_label
_atom_site_fract_x
_atom_site_fract_y
_atom_site_fract_z
Si Si1 0.273954 0.473417 0.335288
Si Si2 0.806054 0.306054 0.750000
Si Si3 0.637609 0.963207 0.159200
Si Si4 0.350525 0.639985 0.344115
O O1 0.256378 0.462720 0.500000
O O2 0.194816 0.482399 0.247115
O O3 0.322690 0.552491 0.323054
O O4 0.326385 0.406935 0.271557
O O5 0.881973 0.315537 0.654481
O O6 0.728237 0.312257 0.665147
O O7 0.563326 0.936675 0.250000
O O8 0.621268 0.988463 0.000000
O O9 0.385261 0.647065 0.500000
#
# Coordination Sequence:
#
# PCOD9568753 Si02
#       4
#    16   8  16  16
#     4  10  21  33  48  73 103 136 175 211 252 304
#     4   8  18  30  54  72  95 127 168 216 254 298
#     4   9  16  29  50  72  96 125 163 210 252 293
#     4  10  20  35  51  72 103 136 173 211 254 304
#
# _framework density 19.443393
#
# number of rings (size 3 to 8) (size 9 to 14) (size 15 to 20)
#    0.857    1.714    0.000    2.571    0.000    7.429 
#    0.000    2.857    0.000    0.000    0.000    1.000 
#    0.000    6.857    0.000    0.000    0.000    0.000 
#
# Total GULP energy -311774.962641 kJ/mol
# GULP energy per Si atom -5567.410047 kJ/mol
# Density = 1.939914 g / cm^3
# Si number density = 19.443393 Si / 1000 Ang^3
#
#
#
# Elastic Constant Matrix: (Units=GPa)
#
#
# Indices 1 2 3 4 5 6 
#
# 1 29.5570 13.9131 19.4554 0.0000 0.0000 0.0000
# 2 13.9131 29.5566 19.4557 0.0000 0.0000 0.0000
# 3 19.4554 19.4557 121.1493 0.0000 0.0000 0.0000
# 4 0.0000 0.0000 0.0000 16.6174 0.0000 0.0000
# 5 0.0000 0.0000 0.0000 0.0000 16.6177 0.0000
# 6 0.0000 0.0000 0.0000 0.0000 0.0000 7.2757
#
#
#
# Elastic Compliance Matrix: (Units=1/GPa)
#
#
# Indices 1 2 3 4 5 6 
#
# 1 0.045395 -0.018528 -0.004314 0.000000 0.000000 0.000000
# 2 -0.018528 0.045395 -0.004315 0.000000 0.000000 0.000000
# 3 -0.004314 -0.004315 0.009640 0.000000 0.000000 0.000000
# 4 0.000000 0.000000 0.000000 0.060178 0.000000 0.000000
# 5 0.000000 0.000000 0.000000 0.000000 0.060177 0.000000
# 6 0.000000 0.000000 0.000000 0.000000 0.000000 0.137444
#
#
# Mechanical properties :
#
#
# Convention : Reuss Voigt Hill
#
# Bulk Modulus (GPa) = 21.68496 31.76791 26.72644
# Shear Modulus (GPa) = 11.68455 16.59807 14.14131
#
# Velocity S-wave (km/s) = 2.45409 2.92492 2.69979
# Velocity P-wave (km/s) = 4.38260 5.27077 4.84707
#
# Compressibility (1/GPa) = 0.04611490
#
# Stress axis : x y z
#
# Youngs Moduli (GPa) = 22.02909 22.02863 103.73407
#
# Poissons Ratio (x) = 0.40816 0.44755
# Poissons Ratio (y) = 0.40817 0.44758
# Poissons Ratio (z) = 0.09504 0.09505
#
# Static dielectric constant tensor:
#      x y z
#    x 1.670840 0.000000 0.000000 
#    y 0.000000 1.670840 0.000000 
#    z 0.000000 0.000000 1.715540 
# 
# From -- ./inp_files/874.got.cif
#   From: 2010.05.17/outbox.cif.g08.bks.cpg/sg135_1_cif.got.tgz:874.got - 2010.05.20 12:50:20.
