data_PCOD9568621
_publ_section_title
;
Structure prediction by ZEFSAII (Michael W. Deem and Ramdas Pophale) SiO2 
 PCOD9568621
Probable space group: P 42/M B C
;
_chemical_formula_sum "Si O2"
_cell_formula_units_Z 128
_cell_length_a 17.677324
_cell_length_b 17.677324
_cell_length_c 22.656913
_cell_angle_alpha 90.000000
_cell_angle_beta 90.000000
_cell_angle_gamma 90.000000
_cell_volume 7080.008531
_symmetry_space_group_name_H-M "P 42/M B C"
_symmetry_group_IT_number 135
_symmetry_cell_setting 'tetragonal'
loop_
_space_group_symop_operation_xyz
x,y,z
-y,x,1/2+z
-x,-y,z
y,-x,1/2+z
1/2+x,1/2-y,-z
1/2-x,1/2+y,-z
1/2+y,1/2+x,1/2-z
1/2-y,1/2-x,1/2-z
-x,-y,-z
y,-x,1/2-z
x,y,-z
-y,x,1/2-z
1/2-x,1/2+y,z
1/2+x,1/2-y,z
1/2-y,1/2-x,1/2+z
1/2+y,1/2+x,1/2+z
loop_
_atom_site_type_symbol
_atom_site_label
_atom_site_fract_x
_atom_site_fract_y
_atom_site_fract_z
Si Si1 0.827568 0.877704 0.356379
Si Si2 0.890375 0.166646 0.635543
Si Si3 0.056710 0.672036 0.171147
Si Si4 0.912957 0.917757 0.757588
Si Si5 0.520836 0.413932 0.430270
Si Si6 0.903084 0.602238 0.818308
Si Si7 0.232498 0.278970 0.320645
Si Si8 0.183006 0.546255 0.188006
O O1 0.749660 0.925407 0.363682
O O2 0.852269 0.893316 0.289170
O O3 0.806564 0.789935 0.354470
O O4 0.901017 0.893406 0.396463
O O5 0.878612 0.096301 0.680270
O O6 0.945391 0.135282 0.584794
O O7 0.806408 0.201460 0.640233
O O8 0.940130 0.233497 0.664223
O O9 0.129381 0.617042 0.171478
O O10 0.042011 0.689159 0.240777
O O11 0.982188 0.625245 0.151884
O O12 0.994008 0.904809 0.730141
O O13 0.500000 0.500000 0.413542
O O14 0.534921 0.410003 0.500000
O O15 0.919562 0.580439 0.750000
O O16 0.849891 0.675845 0.818569
O O17 0.855759 0.529134 0.838423
O O18 0.244176 0.255825 0.250000
#
# Coordination Sequence:
#
# PCOD9568621 Si02
#       8
#    16  16  16  16  16  16  16  16
#     4  12  21  36  59  87 121 158 196 252 309 370
#     4  12  21  35  59  84 120 159 196 244 313 375
#     4  10  19  31  51  81 120 165 195 226 295 364
#     4  11  22  31  51  88 122 152 195 242 300 379
#     4  11  27  48  65  84 118 165 217 269 311 357
#     4   9  20  29  45  73 119 163 197 221 273 364
#     4  11  21  33  52  93 133 159 188 245 315 376
#     4  10  18  33  50  79 122 161 191 238 287 362
#
# _framework density 18.079073000000001
#
# number of rings (size 3 to 8) (size 9 to 14) (size 15 to 20)
#    0.000    1.250    5.000    1.875    3.500    1.500 
#    0.000    0.625    0.000    0.000    0.000    0.000 
#    0.000    3.250    0.000    0.000    0.000    0.000 
#
# Total GULP energy -712837.552782 kJ/mol
# GULP energy per Si atom -5569.043381 kJ/mol
# Density = 1.803792 g / cm^3
# Si number density = 18.079073 Si / 1000 Ang^3
#
#
#
# Elastic Constant Matrix: (Units=GPa)
#
#
# Indices 1 2 3 4 5 6 
#
# 1 56.0001 57.3104 23.4531 0.0000 0.0000 0.0000
# 2 57.3104 56.0025 23.4533 0.0000 0.0000 0.0000
# 3 23.4531 23.4533 36.5048 0.0000 0.0000 0.0000
# 4 0.0000 0.0000 0.0000 8.9990 0.0000 0.0000
# 5 0.0000 0.0000 0.0000 0.0000 8.9997 0.0000
# 6 0.0000 0.0000 0.0000 0.0000 0.0000 18.4372
#
#
#
# Elastic Compliance Matrix: (Units=1/GPa)
#
#
# Indices 1 2 3 4 5 6 
#
# 1 -0.375924 0.387937 -0.007720 0.000000 0.000000 0.000000
# 2 0.387937 -0.375904 -0.007728 0.000000 0.000000 0.000000
# 3 -0.007720 -0.007728 0.037319 0.000000 0.000000 0.000000
# 4 0.000000 0.000000 0.000000 0.111124 0.000000 0.000000
# 5 0.000000 0.000000 0.000000 0.000000 0.111115 0.000000
# 6 0.000000 0.000000 0.000000 0.000000 0.000000 0.054238
#
#
# Mechanical properties :
#
#
# Convention : Reuss Voigt Hill
#
# Bulk Modulus (GPa) = 32.82199 39.66011 36.24105
# Shear Modulus (GPa) = -4.26311 10.23988 2.98838
#
# Velocity S-wave (km/s) = -1.53725 2.38248 1.28707
# Velocity P-wave (km/s) = 3.87856 5.43626 4.72209
#
# Compressibility (1/GPa) = 0.03046738
#
# Stress axis : x y z
#
# Youngs Moduli (GPa) = -2.66011 -2.66025 26.79611
#
# Poissons Ratio (x) = 1.03201 0.20687
# Poissons Ratio (y) = 1.03196 0.20709
# Poissons Ratio (z) = -0.02054 -0.02056
#
# Static dielectric constant tensor:
#      x y z
#    x 1.670640 0.000000 0.000000 
#    y 0.000000 1.670640 0.000000 
#    z 0.000000 0.000000 1.613130 
# 
# From -- ./inp_files/6258.got.cif
#   From: 2010.05.17/outbox.cif.g08.bks.cpg/sg135_4_cif.got.tgz:6258.got - 2010.05.20 12:50:20.
