data_PCOD9568488
_publ_section_title
;
Structure prediction by ZEFSAII (Michael W. Deem and Ramdas Pophale) SiO2 
 PCOD9568488
Probable space group: P 42/N N M
;
_chemical_formula_sum "Si O2"
_cell_formula_units_Z 80
_cell_length_a 11.015527
_cell_length_b 11.015527
_cell_length_c 32.610636
_cell_angle_alpha 90.000000
_cell_angle_beta 90.000000
_cell_angle_gamma 90.000000
_cell_volume 3957.034416
_symmetry_space_group_name_H-M "P 42/N N M"
_symmetry_group_IT_number 134
_space_group.IT_coordinate_system_code '2'
_symmetry_cell_setting 'tetragonal'
loop_
_space_group_symop_operation_xyz
x,y,z
1/2-y,x,1/2+z
1/2-x,1/2-y,z
y,1/2-x,1/2+z
x,1/2-y,1/2-z
1/2-x,y,1/2-z
y,x,-z
1/2-y,1/2-x,-z
-x,-y,-z
1/2+y,-x,1/2-z
1/2+x,1/2+y,-z
-y,1/2+x,1/2-z
-x,1/2+y,1/2+z
1/2+x,-y,1/2+z
-y,-x,z
1/2+y,1/2+x,z
loop_
_atom_site_type_symbol
_atom_site_label
_atom_site_fract_x
_atom_site_fract_y
_atom_site_fract_z
Si Si1 0.583312 0.894301 0.138938
Si Si2 0.892588 0.891635 0.735742
Si Si3 0.002606 0.307480 0.994159
Si Si4 0.774739 0.462461 0.414471
Si Si5 0.335772 0.479217 0.087536
O O1 0.615908 0.886856 0.186454
O O2 0.576097 0.768315 0.115593
O O3 0.449715 0.949715 0.136166
O O4 0.671486 0.985219 0.114671
O O5 0.920931 0.750000 0.750000
O O6 0.750000 0.919486 0.750000
O O7 0.000065 0.999936 0.745125
O O8 0.916741 0.416741 0.978943
O O9 0.001827 0.209603 0.958748
O O10 0.956117 0.266523 0.038334
O O11 0.135823 0.364178 0.000000
O O12 0.838685 0.338685 0.401237
O O13 0.878985 0.561873 0.413803
O O14 0.396006 0.603995 0.103032
#
# Coordination Sequence:
#
# PCOD9568488 Si02
#       5
#    16  16  16  16  16
#     4  11  24  43  65  95 129 165 209 264 326 389
#     4  10  25  47  75 106 141 180 225 283 351 428
#     4  11  22  37  58  85 124 173 218 265 319 371
#     4  11  24  39  61  92 126 168 217 266 318 377
#     4  11  24  39  61  92 126 168 217 266 318 377
#
# _framework density 20.21716
#
# number of rings (size 3 to 8) (size 9 to 14) (size 15 to 20)
#    0.000    1.200    2.000    3.000    5.600    8.400 
#    0.000    4.000    0.000    0.000    0.000    0.000 
#    0.000    0.000    0.000    0.000    0.000    0.000 
#
# Total GULP energy -446053.615547 kJ/mol
# GULP energy per Si atom -5575.670194 kJ/mol
# Density = 2.017115 g / cm^3
# Si number density = 20.217160 Si / 1000 Ang^3
#
#
#
# Elastic Constant Matrix: (Units=GPa)
#
#
# Indices 1 2 3 4 5 6 
#
# 1 127.2032 70.3480 45.0354 0.0000 0.0000 0.0000
# 2 70.3480 127.2045 45.0351 0.0000 0.0000 0.0000
# 3 45.0354 45.0351 98.6188 0.0000 0.0000 0.0000
# 4 0.0000 0.0000 0.0000 -141.9216 0.0000 0.0000
# 5 0.0000 0.0000 0.0000 0.0000 -141.9590 0.0000
# 6 0.0000 0.0000 0.0000 0.0000 0.0000 37.9921
#
#
#
# Elastic Compliance Matrix: (Units=1/GPa)
#
#
# Indices 1 2 3 4 5 6 
#
# 1 0.011991 -0.005598 -0.002920 0.000000 0.000000 0.000000
# 2 -0.005598 0.011991 -0.002919 0.000000 0.000000 0.000000
# 3 -0.002920 -0.002919 0.012806 0.000000 0.000000 0.000000
# 4 0.000000 0.000000 0.000000 -0.007046 0.000000 0.000000
# 5 0.000000 0.000000 0.000000 0.000000 -0.007044 0.000000
# 6 0.000000 0.000000 0.000000 0.000000 0.000000 0.026321
#
#
# Mechanical properties :
#
#
# Convention : Reuss Voigt Hill
#
# Bulk Modulus (GPa) = 71.86625 74.87372 73.36998
# Shear Modulus (GPa) = 65.33388 -36.33717 14.49836
#
# Velocity S-wave (km/s) = 5.69089 -4.24411 2.68084
# Velocity P-wave (km/s) = 8.87727 3.61919 6.77881
#
# Compressibility (1/GPa) = 0.01391474
#
# Stress axis : x y z
#
# Youngs Moduli (GPa) = 83.39741 83.39870 78.08579
#
# Poissons Ratio (x) = 0.46684 0.22797
# Poissons Ratio (y) = 0.46683 0.22796
# Poissons Ratio (z) = 0.24348 0.24347
#
# Static dielectric constant tensor:
#      x y z
#    x 1.756190 0.000000 0.000000 
#    y 0.000000 1.756190 0.000000 
#    z 0.000000 0.000000 1.682250 
# 
# From -- ./inp_files/11252.got.cif
#   From: 2010.05.17/outbox.cif.g08.bks.cpg/sg134_6_cif.got.tgz:11252.got - 2010.05.20 12:42:49.
