data_PCOD9568036
_publ_section_title
;
Structure prediction by ZEFSAII (Michael W. Deem and Ramdas Pophale) SiO2 
 PCOD9568036
Probable space group: P 42/N B C
;
_chemical_formula_sum "Si O2"
_cell_formula_units_Z 36
_cell_length_a 9.942913
_cell_length_b 9.942913
_cell_length_c 12.184848
_cell_angle_alpha 90.000000
_cell_angle_beta 90.000000
_cell_angle_gamma 90.000000
_cell_volume 1204.612581
_symmetry_space_group_name_H-M "P 42/N B C"
_symmetry_group_IT_number 133
_space_group.IT_coordinate_system_code '2'
_symmetry_cell_setting 'tetragonal'
loop_
_space_group_symop_operation_xyz
x,y,z
1/2-y,x,1/2+z
1/2-x,1/2-y,z
y,1/2-x,1/2+z
x,1/2-y,-z
1/2-x,y,-z
y,x,1/2-z
1/2-y,1/2-x,1/2-z
-x,-y,-z
1/2+y,-x,1/2-z
1/2+x,1/2+y,-z
-y,1/2+x,1/2-z
-x,1/2+y,z
1/2+x,-y,z
-y,-x,1/2+z
1/2+y,1/2+x,1/2+z
loop_
_atom_site_type_symbol
_atom_site_label
_atom_site_fract_x
_atom_site_fract_y
_atom_site_fract_z
Si Si1 0.750000 0.250000 0.000000
Si Si2 0.035587 0.334025 0.390967
Si Si3 0.506631 0.220944 0.848078
O O1 0.537887 0.065380 0.876619
O O2 0.001610 0.250000 0.500000
O O3 0.187628 0.386084 0.393531
O O4 0.010630 0.248141 0.280917
O O5 0.784008 0.136787 0.405978
#
# Coordination Sequence:
#
# PCOD9568036 Si02
#       3
#     4  16  16
#     4  12  24  54  88 122 164 242 288 370 444 556
#     4  11  26  57  88 130 178 236 301 377 449 550
#     4  11  26  53  90 127 174 235 303 365 457 541
#
# _framework density 29.885128000000002
#
# number of rings (size 3 to 8) (size 9 to 14) (size 15 to 20)
#    0.000    0.889    2.222    2.667    0.000    1.778 
#   20.000    1.111    9.778    0.000    0.000    0.000 
#    0.000    0.000    0.000    0.000    0.000    0.000 
#
# Total GULP energy -201376.088377 kJ/mol
# GULP energy per Si atom -5593.780233 kJ/mol
# Density = 2.981711 g / cm^3
# Si number density = 29.885128 Si / 1000 Ang^3
#
#
#
# Elastic Constant Matrix: (Units=GPa)
#
#
# Indices 1 2 3 4 5 6 
#
# 1 211.4489 61.0857 99.5259 0.0000 0.0000 0.0000
# 2 61.0857 211.4489 99.5259 0.0000 0.0000 0.0000
# 3 99.5259 99.5259 292.9176 0.0000 0.0000 0.0000
# 4 0.0000 0.0000 0.0000 -70.8466 0.0000 0.0000
# 5 0.0000 0.0000 0.0000 0.0000 -70.8466 0.0000
# 6 0.0000 0.0000 0.0000 0.0000 0.0000 73.8434
#
#
#
# Elastic Compliance Matrix: (Units=1/GPa)
#
#
# Indices 1 2 3 4 5 6 
#
# 1 0.005765 -0.000885 -0.001658 0.000000 0.000000 0.000000
# 2 -0.000885 0.005765 -0.001658 0.000000 0.000000 0.000000
# 3 -0.001658 -0.001658 0.004541 0.000000 0.000000 0.000000
# 4 0.000000 0.000000 0.000000 -0.014115 0.000000 0.000000
# 5 0.000000 0.000000 0.000000 0.000000 -0.014115 0.000000
# 6 0.000000 0.000000 0.000000 0.000000 0.000000 0.013542
#
#
# Mechanical properties :
#
#
# Convention : Reuss Voigt Hill
#
# Bulk Modulus (GPa) = 130.40143 137.34338 133.87240
# Shear Modulus (GPa) = 405.08086 16.80855 210.94471
#
# Velocity S-wave (km/s) = 11.65505 2.37415 8.41061
# Velocity P-wave (km/s) = 14.99497 7.31931 11.79876
#
# Compressibility (1/GPa) = 0.00766863
#
# Stress axis : x y z
#
# Youngs Moduli (GPa) = 173.44625 173.44625 220.22653
#
# Poissons Ratio (x) = 0.15352 0.36519
# Poissons Ratio (y) = 0.15352 0.36519
# Poissons Ratio (z) = 0.28761 0.28761
#
# Static dielectric constant tensor:
#      x y z
#    x 0.687120 0.000000 0.000000 
#    y 0.000000 0.687120 0.000000 
#    z 0.000000 0.000000 2.218130 
# 
# From -- ./inp_files/2351.got.cif
#   From: 2010.05.17/outbox.cif.g08.bks.cpg/sg133_2_cif.got.tgz:2351.got - 2010.05.20 12:37:36.
