data_PCOD9568945
_publ_section_title
;
Structure prediction by ZEFSAII (Michael W. Deem and Ramdas Pophale) SiO2 
 PCOD9568945
Probable space group: P 42/M B C
;
_chemical_formula_sum "Si O2"
_cell_formula_units_Z 52
_cell_length_a 13.526219
_cell_length_b 13.526219
_cell_length_c 14.760236
_cell_angle_alpha 90.000000
_cell_angle_beta 90.000000
_cell_angle_gamma 90.000000
_cell_volume 2700.512121
_symmetry_space_group_name_H-M "P 42/M B C"
_symmetry_group_IT_number 135
_symmetry_cell_setting 'tetragonal'
loop_
_space_group_symop_operation_xyz
x,y,z
-y,x,1/2+z
-x,-y,z
y,-x,1/2+z
1/2+x,1/2-y,-z
1/2-x,1/2+y,-z
1/2+y,1/2+x,1/2-z
1/2-y,1/2-x,1/2-z
-x,-y,-z
y,-x,1/2-z
x,y,-z
-y,x,1/2-z
1/2-x,1/2+y,z
1/2+x,1/2-y,z
1/2-y,1/2-x,1/2+z
1/2+y,1/2+x,1/2+z
loop_
_atom_site_type_symbol
_atom_site_label
_atom_site_fract_x
_atom_site_fract_y
_atom_site_fract_z
Si Si1 0.078367 0.802840 0.180636
Si Si2 0.721491 0.083729 0.803369
Si Si3 0.353299 0.954417 0.000000
Si Si4 0.000000 0.000000 0.250000
Si Si5 0.443528 0.170655 0.000000
O O1 0.187609 0.839644 0.205097
O O2 0.071835 0.739665 0.088534
O O3 0.022409 0.743110 0.259119
O O4 0.017527 0.906375 0.184608
O O5 0.629686 0.129686 0.750000
O O6 0.703538 0.070662 0.908875
O O7 0.449073 0.882291 0.000000
O O8 0.376271 0.071875 0.000000
#
# Coordination Sequence:
#
# PCOD9568945 Si02
#       5
#    16  16   8   4   8
#     4  10  22  42  66  96 125 174 213 268 321 389
#     4  11  23  43  66  94 131 169 222 266 324 388
#     4  11  25  42  60  98 134 168 207 277 322 391
#     4   8  20  42  64  92 136 162 220 262 324 368
#     4  11  23  41  64  95 133 168 215 257 337 381
#
# _framework density 19.255606
#
# number of rings (size 3 to 8) (size 9 to 14) (size 15 to 20)
#    0.000    1.538    3.077    0.923    4.308    0.615 
#    0.000    9.231    0.000    0.000    0.000    0.000 
#    0.000    0.000    0.000    0.000    0.000    0.000 
#
# Total GULP energy -289943.186936 kJ/mol
# GULP energy per Si atom -5575.830518 kJ/mol
# Density = 1.921178 g / cm^3
# Si number density = 19.255606 Si / 1000 Ang^3
#
#
#
# Elastic Constant Matrix: (Units=GPa)
#
#
# Indices 1 2 3 4 5 6 
#
# 1 76.3976 29.6928 36.3484 0.0000 0.0000 0.0000
# 2 29.6928 76.3976 36.3484 0.0000 0.0000 0.0000
# 3 36.3484 36.3484 130.3701 0.0000 0.0000 0.0000
# 4 0.0000 0.0000 0.0000 26.8837 0.0000 0.0000
# 5 0.0000 0.0000 0.0000 0.0000 26.8837 0.0000
# 6 0.0000 0.0000 0.0000 0.0000 0.0000 21.3706
#
#
#
# Elastic Compliance Matrix: (Units=1/GPa)
#
#
# Indices 1 2 3 4 5 6 
#
# 1 0.016532 -0.004880 -0.003249 0.000000 0.000000 0.000000
# 2 -0.004880 0.016532 -0.003249 0.000000 0.000000 0.000000
# 3 -0.003249 -0.003249 0.009482 0.000000 0.000000 0.000000
# 4 0.000000 0.000000 0.000000 0.037197 0.000000 0.000000
# 5 0.000000 0.000000 0.000000 0.000000 0.037197 0.000000
# 6 0.000000 0.000000 0.000000 0.000000 0.000000 0.046793
#
#
# Mechanical properties :
#
#
# Convention : Reuss Voigt Hill
#
# Bulk Modulus (GPa) = 50.52728 54.21608 52.37168
# Shear Modulus (GPa) = 25.89550 27.07933 26.48741
#
# Velocity S-wave (km/s) = 3.67117 3.75415 3.71289
# Velocity P-wave (km/s) = 6.65336 6.85628 6.75558
#
# Compressibility (1/GPa) = 0.01979129
#
# Stress axis : x y z
#
# Youngs Moduli (GPa) = 60.49039 60.49039 105.46294
#
# Poissons Ratio (x) = 0.29516 0.34262
# Poissons Ratio (y) = 0.29516 0.34262
# Poissons Ratio (z) = 0.19652 0.19652
#
# Static dielectric constant tensor:
#      x y z
#    x 1.695720 0.000000 0.000000 
#    y 0.000000 1.695720 0.000000 
#    z 0.000000 0.000000 1.620280 
# 
# From -- ./inp_files/2116.got.cif
#   From: 2010.05.17/outbox.cif.g08.bks.cpg/sg135_2_cif.got.tgz:2116.got - 2010.05.20 12:50:20.
