data_PCOD9568939
_publ_section_title
;
Structure prediction by ZEFSAII (Michael W. Deem and Ramdas Pophale) SiO2 
 PCOD9568939
Probable space group: P 42/M B C
;
_chemical_formula_sum "Si O2"
_cell_formula_units_Z 96
_cell_length_a 24.235411
_cell_length_b 24.235411
_cell_length_c 8.622378
_cell_angle_alpha 90.000000
_cell_angle_beta 90.000000
_cell_angle_gamma 90.000000
_cell_volume 5064.398092
_symmetry_space_group_name_H-M "P 42/M B C"
_symmetry_group_IT_number 135
_symmetry_cell_setting 'tetragonal'
loop_
_space_group_symop_operation_xyz
x,y,z
-y,x,1/2+z
-x,-y,z
y,-x,1/2+z
1/2+x,1/2-y,-z
1/2-x,1/2+y,-z
1/2+y,1/2+x,1/2-z
1/2-y,1/2-x,1/2-z
-x,-y,-z
y,-x,1/2-z
x,y,-z
-y,x,1/2-z
1/2-x,1/2+y,z
1/2+x,1/2-y,z
1/2-y,1/2-x,1/2+z
1/2+y,1/2+x,1/2+z
loop_
_atom_site_type_symbol
_atom_site_label
_atom_site_fract_x
_atom_site_fract_y
_atom_site_fract_z
Si Si1 0.632662 0.217520 0.814812
Si Si2 0.698128 0.431137 0.314335
Si Si3 0.511334 0.208047 0.685045
Si Si4 0.919758 0.968435 0.185616
Si Si5 0.779493 0.803211 0.314518
Si Si6 0.998904 0.585964 0.185651
O O1 0.663127 0.163127 0.750000
O O2 0.572757 0.222943 0.741090
O O3 0.671712 0.268007 0.763911
O O4 0.628929 0.214452 0.000000
O O5 0.695483 0.438073 0.500000
O O6 0.745580 0.469805 0.245846
O O7 0.639163 0.447117 0.242854
O O8 0.712782 0.367467 0.281302
O O9 0.509479 0.204982 0.500000
O O10 0.497601 0.148325 0.756272
O O11 0.969595 0.931645 0.254045
O O12 0.922754 0.967825 0.000000
O O13 0.723032 0.776969 0.250000
O O14 0.781770 0.794608 0.500000
O O15 0.049371 0.549371 0.250000
O O16 0.943908 0.556093 0.250000
O O17 0.998286 0.583812 0.000000
#
# Coordination Sequence:
#
# PCOD9568939 Si02
#       6
#    16  16  16  16  16  16
#     4  11  22  39  64  92 124 160 205 255 309 363
#     4  11  25  43  63  92 127 166 211 259 314 375
#     4  12  25  41  61  90 126 163 207 255 311 367
#     4  11  23  42  67  94 126 164 208 260 316 378
#     4  10  22  41  65  90 122 160 205 252 305 367
#     4  11  22  40  64  92 125 164 209 256 312 370
#
# _framework density 18.955857000000002
#
# number of rings (size 3 to 8) (size 9 to 14) (size 15 to 20)
#    0.000    1.000    0.000    9.500    2.333    3.333 
#    0.000    1.667    0.000    0.000    0.000    0.000 
#    0.000    0.000    0.000    0.000    0.000    0.000 
#
# Total GULP energy -537243.251631 kJ/mol
# GULP energy per Si atom -5596.283871 kJ/mol
# Density = 1.891271 g / cm^3
# Si number density = 18.955857 Si / 1000 Ang^3
#
#
#
# Elastic Constant Matrix: (Units=GPa)
#
#
# Indices 1 2 3 4 5 6 
#
# 1 149.0372 81.5988 82.3799 0.0000 0.0000 0.0000
# 2 81.5988 149.0201 82.3756 0.0000 0.0000 0.0000
# 3 82.3799 82.3756 185.7171 0.0000 0.0000 0.0000
# 4 0.0000 0.0000 0.0000 42.5088 0.0000 0.0000
# 5 0.0000 0.0000 0.0000 0.0000 42.5087 0.0000
# 6 0.0000 0.0000 0.0000 0.0000 0.0000 15.1526
#
#
#
# Elastic Compliance Matrix: (Units=1/GPa)
#
#
# Indices 1 2 3 4 5 6 
#
# 1 0.010588 -0.004241 -0.002815 0.000000 0.000000 0.000000
# 2 -0.004241 0.010589 -0.002816 0.000000 0.000000 0.000000
# 3 -0.002815 -0.002816 0.007882 0.000000 0.000000 0.000000
# 4 0.000000 0.000000 0.000000 0.023525 0.000000 0.000000
# 5 0.000000 0.000000 0.000000 0.000000 0.023525 0.000000
# 6 0.000000 0.000000 0.000000 0.000000 0.000000 0.065995
#
#
# Mechanical properties :
#
#
# Convention : Reuss Voigt Hill
#
# Bulk Modulus (GPa) = 107.35352 108.49810 107.92581
# Shear Modulus (GPa) = 30.31150 35.86202 33.08676
#
# Velocity S-wave (km/s) = 4.00316 4.35428 4.18241
# Velocity P-wave (km/s) = 8.83875 9.09072 8.96562
#
# Compressibility (1/GPa) = 0.00931502
#
# Stress axis : x y z
#
# Youngs Moduli (GPa) = 94.44533 94.43420 126.86818
#
# Poissons Ratio (x) = 0.40054 0.35718
# Poissons Ratio (y) = 0.40059 0.35720
# Poissons Ratio (z) = 0.26590 0.26588
#
# Static dielectric constant tensor:
#      x y z
#    x 1.634010 0.000000 0.000000 
#    y 0.000000 1.634020 0.000000 
#    z 0.000000 0.000000 1.631890 
# 
# From -- ./inp_files/1234.got.cif
#   From: 2010.05.17/outbox.cif.g08.bks.cpg/sg135_1_cif.got.tgz:1234.got - 2010.05.20 12:50:20.
