data_PCOD9568942
_publ_section_title
;
Structure prediction by ZEFSAII (Michael W. Deem and Ramdas Pophale) SiO2 
 PCOD9568942
Probable space group: P 42/M B C
;
_chemical_formula_sum "Si O2"
_cell_formula_units_Z 84
_cell_length_a 16.209580
_cell_length_b 16.209580
_cell_length_c 14.145690
_cell_angle_alpha 90.000000
_cell_angle_beta 90.000000
_cell_angle_gamma 90.000000
_cell_volume 3716.786891
_symmetry_space_group_name_H-M "P 42/M B C"
_symmetry_group_IT_number 135
_symmetry_cell_setting 'tetragonal'
loop_
_space_group_symop_operation_xyz
x,y,z
-y,x,1/2+z
-x,-y,z
y,-x,1/2+z
1/2+x,1/2-y,-z
1/2-x,1/2+y,-z
1/2+y,1/2+x,1/2-z
1/2-y,1/2-x,1/2-z
-x,-y,-z
y,-x,1/2-z
x,y,-z
-y,x,1/2-z
1/2-x,1/2+y,z
1/2+x,1/2-y,z
1/2-y,1/2-x,1/2+z
1/2+y,1/2+x,1/2+z
loop_
_atom_site_type_symbol
_atom_site_label
_atom_site_fract_x
_atom_site_fract_y
_atom_site_fract_z
Si Si1 0.577600 0.382819 0.607436
Si Si2 0.062881 0.256847 0.888925
Si Si3 0.110141 0.296546 0.386889
Si Si4 0.888735 0.180087 0.393756
Si Si5 0.447005 0.183613 0.732344
Si Si6 0.500000 0.500000 0.750000
O O1 0.600102 0.410086 0.500000
O O2 0.627532 0.300155 0.635546
O O3 0.483213 0.349467 0.602913
O O4 0.567704 0.454479 0.684017
O O5 0.180218 0.362632 0.635722
O O6 0.103217 0.168544 0.870227
O O7 0.983341 0.276691 0.827426
O O8 0.045288 0.264856 0.000000
O O9 0.097386 0.297666 0.500000
O O10 0.026735 0.323525 0.335041
O O11 0.864791 0.207641 0.500000
O O12 0.885229 0.254117 0.320319
O O13 0.401881 0.098120 0.750000
#
# Coordination Sequence:
#
# PCOD9568942 Si02
#       6
#    16  16  16  16  16   4
#     4   9  20  38  58  85 122 160 201 253 315 376
#     4  10  22  41  67  95 124 166 218 267 314 378
#     4   9  20  41  63  85 122 167 209 254 316 378
#     4   9  21  43  63  85 123 165 206 256 315 375
#     4  11  23  38  62  97 129 162 209 262 324 382
#     4  12  22  32  60  90 116 156 214 256 312 358
#
# _framework density 22.600168
#
# number of rings (size 3 to 8) (size 9 to 14) (size 15 to 20)
#    0.000    2.286    0.000    2.571    5.333    4.571 
#    3.429    1.905    0.000    2.286    0.000    0.000 
#    0.000    0.000    0.000    0.000    0.000    0.000 
#
# Total GULP energy -469912.457616 kJ/mol
# GULP energy per Si atom -5594.195924 kJ/mol
# Density = 2.254873 g / cm^3
# Si number density = 22.600168 Si / 1000 Ang^3
#
#
#
# Elastic Constant Matrix: (Units=GPa)
#
#
# Indices 1 2 3 4 5 6 
#
# 1 70.3110 47.4748 41.3970 0.0000 0.0000 0.0000
# 2 47.4748 70.3158 41.3988 0.0000 0.0000 0.0000
# 3 41.3970 41.3988 110.6975 0.0000 0.0000 0.0000
# 4 0.0000 0.0000 0.0000 18.7277 0.0000 0.0000
# 5 0.0000 0.0000 0.0000 0.0000 18.7213 0.0000
# 6 0.0000 0.0000 0.0000 0.0000 0.0000 43.2806
#
#
#
# Elastic Compliance Matrix: (Units=1/GPa)
#
#
# Indices 1 2 3 4 5 6 
#
# 1 0.027652 -0.016134 -0.004307 0.000000 0.000000 0.000000
# 2 -0.016134 0.027651 -0.004307 0.000000 0.000000 0.000000
# 3 -0.004307 -0.004307 0.012255 0.000000 0.000000 0.000000
# 4 0.000000 0.000000 0.000000 0.053397 0.000000 0.000000
# 5 0.000000 0.000000 0.000000 0.000000 0.053415 0.000000
# 6 0.000000 0.000000 0.000000 0.000000 0.000000 0.023105
#
#
# Mechanical properties :
#
#
# Convention : Reuss Voigt Hill
#
# Bulk Modulus (GPa) = 55.36725 56.87395 56.12060
# Shear Modulus (GPa) = 19.76344 24.21618 21.98981
#
# Velocity S-wave (km/s) = 2.96037 3.27694 3.12267
# Velocity P-wave (km/s) = 6.01971 6.28790 6.15526
#
# Compressibility (1/GPa) = 0.01806122
#
# Stress axis : x y z
#
# Youngs Moduli (GPa) = 36.16325 36.16553 81.59804
#
# Poissons Ratio (x) = 0.58350 0.35146
# Poissons Ratio (y) = 0.58346 0.35146
# Poissons Ratio (z) = 0.15576 0.15577
#
# Static dielectric constant tensor:
#      x y z
#    x 1.843320 0.000000 0.000000 
#    y 0.000000 1.843310 0.000000 
#    z 0.000000 0.000000 1.883420 
# 
# From -- ./inp_files/2488.got.cif
#   From: 2010.05.17/outbox.cif.g08.bks.cpg/sg135_2_cif.got.tgz:2488.got - 2010.05.20 12:50:20.
