data_PCOD9568757
_publ_section_title
;
Structure prediction by ZEFSAII (Michael W. Deem and Ramdas Pophale) SiO2 
 PCOD9568757
Probable space group: P 42/M B C
;
_chemical_formula_sum "Si O2"
_cell_formula_units_Z 96
_cell_length_a 24.758370
_cell_length_b 24.758370
_cell_length_c 8.526254
_cell_angle_alpha 90.000000
_cell_angle_beta 90.000000
_cell_angle_gamma 90.000000
_cell_volume 5226.396618
_symmetry_space_group_name_H-M "P 42/M B C"
_symmetry_group_IT_number 135
_symmetry_cell_setting 'tetragonal'
loop_
_space_group_symop_operation_xyz
x,y,z
-y,x,1/2+z
-x,-y,z
y,-x,1/2+z
1/2+x,1/2-y,-z
1/2-x,1/2+y,-z
1/2+y,1/2+x,1/2-z
1/2-y,1/2-x,1/2-z
-x,-y,-z
y,-x,1/2-z
x,y,-z
-y,x,1/2-z
1/2-x,1/2+y,z
1/2+x,1/2-y,z
1/2-y,1/2-x,1/2+z
1/2+y,1/2+x,1/2+z
loop_
_atom_site_type_symbol
_atom_site_label
_atom_site_fract_x
_atom_site_fract_y
_atom_site_fract_z
Si Si1 0.059081 0.938559 0.812656
Si Si2 0.851552 0.855078 0.811735
Si Si3 0.231633 0.351089 0.310952
Si Si4 0.768562 0.351801 0.688509
Si Si5 0.856406 0.561555 0.689402
Si Si6 0.939477 0.357907 0.188799
O O1 0.102256 0.893861 0.758074
O O2 0.998581 0.926418 0.749767
O O3 0.057152 0.940167 0.000000
O O4 0.861721 0.792907 0.760885
O O5 0.789948 0.863941 0.758301
O O6 0.855197 0.857917 0.000000
O O7 0.203763 0.296238 0.250000
O O8 0.231312 0.348577 0.500000
O O9 0.192595 0.399777 0.258949
O O10 0.796982 0.296982 0.750000
O O11 0.765277 0.349194 0.500000
O O12 0.809197 0.399977 0.736119
O O13 0.910804 0.589197 0.750000
O O14 0.856788 0.561835 0.500000
O O15 0.850387 0.500409 0.744311
O O16 0.912546 0.412546 0.250000
O O17 0.939663 0.359137 0.000000
#
# Coordination Sequence:
#
# PCOD9568757 Si02
#       6
#    16  16  16  16  16  16
#     4  11  23  42  64  86 114 147 182 225 275 328
#     4  11  22  36  57  86 113 143 183 225 270 330
#     4   9  19  34  53  76 108 144 180 223 272 322
#     4  10  20  35  54  78 109 147 185 229 280 330
#     4   9  18  34  52  73 100 135 175 217 264 315
#     4   9  19  34  52  73 102 138 178 220 268 320
#
# _framework density 18.368296000000001
#
# number of rings (size 3 to 8) (size 9 to 14) (size 15 to 20)
#    0.000    2.167    0.000    3.500    0.000    5.667 
#    0.000    5.000    0.000    0.000    0.000    0.000 
#    0.000    0.000    0.000    0.000    0.000    0.000 
#
# Total GULP energy -535817.389126 kJ/mol
# GULP energy per Si atom -5581.431137 kJ/mol
# Density = 1.832649 g / cm^3
# Si number density = 18.368296 Si / 1000 Ang^3
#
#
#
# Elastic Constant Matrix: (Units=GPa)
#
#
# Indices 1 2 3 4 5 6 
#
# 1 168.5235 81.9307 40.1473 0.0000 0.0000 0.0000
# 2 81.9307 168.5451 40.1475 0.0000 0.0000 0.0000
# 3 40.1473 40.1475 58.2227 0.0000 0.0000 0.0000
# 4 0.0000 0.0000 0.0000 28.9042 0.0000 0.0000
# 5 0.0000 0.0000 0.0000 0.0000 28.9034 0.0000
# 6 0.0000 0.0000 0.0000 0.0000 0.0000 28.3755
#
#
#
# Elastic Compliance Matrix: (Units=1/GPa)
#
#
# Indices 1 2 3 4 5 6 
#
# 1 0.008337 -0.003211 -0.003535 0.000000 0.000000 0.000000
# 2 -0.003211 0.008336 -0.003534 0.000000 0.000000 0.000000
# 3 -0.003535 -0.003534 0.022050 0.000000 0.000000 0.000000
# 4 0.000000 0.000000 0.000000 0.034597 0.000000 0.000000
# 5 0.000000 0.000000 0.000000 0.000000 0.034598 0.000000
# 6 0.000000 0.000000 0.000000 0.000000 0.000000 0.035242
#
#
# Mechanical properties :
#
#
# Convention : Reuss Voigt Hill
#
# Bulk Modulus (GPa) = 55.05565 79.97138 67.51351
# Shear Modulus (GPa) = 29.45127 32.77436 31.11282
#
# Velocity S-wave (km/s) = 4.00856 4.22867 4.12008
# Velocity P-wave (km/s) = 7.17377 8.21428 7.71160
#
# Compressibility (1/GPa) = 0.01816344
#
# Stress axis : x y z
#
# Youngs Moduli (GPa) = 119.94897 119.96714 45.35219
#
# Poissons Ratio (x) = 0.38517 0.16031
# Poissons Ratio (y) = 0.38511 0.16027
# Poissons Ratio (z) = 0.42399 0.42396
#
# Static dielectric constant tensor:
#      x y z
#    x 1.623120 0.000000 0.000000 
#    y 0.000000 1.623120 0.000000 
#    z 0.000000 0.000000 1.626660 
# 
# From -- ./inp_files/1238.got.cif
#   From: 2010.05.17/outbox.cif.g08.bks.cpg/sg135_1_cif.got.tgz:1238.got - 2010.05.20 12:50:20.
