data_PCOD9568189
_publ_section_title
;
Structure prediction by ZEFSAII (Michael W. Deem and Ramdas Pophale) SiO2 
 PCOD9568189
Probable space group: P 42/N N M
;
_chemical_formula_sum "Si O2"
_cell_formula_units_Z 40
_cell_length_a 10.354659
_cell_length_b 10.354659
_cell_length_c 18.403714
_cell_angle_alpha 90.000000
_cell_angle_beta 90.000000
_cell_angle_gamma 90.000000
_cell_volume 1973.227131
_symmetry_space_group_name_H-M "P 42/N N M"
_symmetry_group_IT_number 134
_space_group.IT_coordinate_system_code '2'
_symmetry_cell_setting 'tetragonal'
loop_
_space_group_symop_operation_xyz
x,y,z
1/2-y,x,1/2+z
1/2-x,1/2-y,z
y,1/2-x,1/2+z
x,1/2-y,1/2-z
1/2-x,y,1/2-z
y,x,-z
1/2-y,1/2-x,-z
-x,-y,-z
1/2+y,-x,1/2-z
1/2+x,1/2+y,-z
-y,1/2+x,1/2-z
-x,1/2+y,1/2+z
1/2+x,-y,1/2+z
-y,-x,z
1/2+y,1/2+x,z
loop_
_atom_site_type_symbol
_atom_site_label
_atom_site_fract_x
_atom_site_fract_y
_atom_site_fract_z
Si Si1 0.293817 0.499720 0.025550
Si Si2 0.250000 0.531245 0.750000
Si Si3 0.870560 0.921885 0.388244
O O1 0.361874 0.638127 0.040575
O O2 0.218422 0.422847 0.089018
O O3 0.406676 0.406676 0.000000
O O4 0.195911 0.492286 0.957467
O O5 0.128165 0.628165 0.737736
O O6 0.278000 0.443141 0.680101
O O7 0.998953 0.001048 0.370811
#
# Coordination Sequence:
#
# PCOD9568189 Si02
#       3
#    16   8  16
#     4  10  20  34  52  78 112 147 187 232 277 332
#     4   9  18  32  51  80 116 150 189 237 290 350
#     4  10  19  32  54  82 111 146 185 230 285 335
#
# _framework density 20.271360999999999
#
# number of rings (size 3 to 8) (size 9 to 14) (size 15 to 20)
#    0.000    2.200    0.000    6.000    0.000    4.800 
#    0.000    4.000    0.000    0.000    0.000   11.200 
#    0.000   51.200    0.000    0.000    0.000    0.000 
#
# Total GULP energy -222830.430357 kJ/mol
# GULP energy per Si atom -5570.760759 kJ/mol
# Density = 2.022522 g / cm^3
# Si number density = 20.271361 Si / 1000 Ang^3
#
#
#
# Elastic Constant Matrix: (Units=GPa)
#
#
# Indices 1 2 3 4 5 6 
#
# 1 115.7458 60.6659 55.9055 0.0000 0.0000 0.0000
# 2 60.6659 115.7458 55.9055 0.0000 0.0000 0.0000
# 3 55.9055 55.9055 125.4298 0.0000 0.0000 0.0000
# 4 0.0000 0.0000 0.0000 18.2554 0.0000 0.0000
# 5 0.0000 0.0000 0.0000 0.0000 18.2554 0.0000
# 6 0.0000 0.0000 0.0000 0.0000 0.0000 41.5111
#
#
#
# Elastic Compliance Matrix: (Units=1/GPa)
#
#
# Indices 1 2 3 4 5 6 
#
# 1 0.013028 -0.005128 -0.003521 0.000000 0.000000 0.000000
# 2 -0.005128 0.013028 -0.003521 0.000000 0.000000 0.000000
# 3 -0.003521 -0.003521 0.011112 0.000000 0.000000 0.000000
# 4 0.000000 0.000000 0.000000 0.054778 0.000000 0.000000
# 5 0.000000 0.000000 0.000000 0.000000 0.054778 0.000000
# 6 0.000000 0.000000 0.000000 0.000000 0.000000 0.024090
#
#
# Mechanical properties :
#
#
# Convention : Reuss Voigt Hill
#
# Bulk Modulus (GPa) = 77.95967 77.98612 77.97290
# Shear Modulus (GPa) = 25.07145 27.90067 26.48606
#
# Velocity S-wave (km/s) = 3.52062 3.71396 3.61858
# Velocity P-wave (km/s) = 7.42077 7.54625 7.48377
#
# Compressibility (1/GPa) = 0.01282714
#
# Stress axis : x y z
#
# Youngs Moduli (GPa) = 76.75830 76.75830 89.99653
#
# Poissons Ratio (x) = 0.39358 0.31690
# Poissons Ratio (y) = 0.39358 0.31690
# Poissons Ratio (z) = 0.27029 0.27029
#
# Static dielectric constant tensor:
#      x y z
#    x 1.783410 0.000000 0.000000 
#    y 0.000000 1.783410 0.000000 
#    z 0.000000 0.000000 1.732920 
# 
# From -- ./inp_files/7053.got.cif
#   From: 2010.05.17/outbox.cif.g08.bks.cpg/sg134_4_cif.got.tgz:7053.got - 2010.05.20 12:42:49.
