data_PCOD9568777
_publ_section_title
;
Structure prediction by ZEFSAII (Michael W. Deem and Ramdas Pophale) SiO2 
 PCOD9568777
Probable space group: P 42/M B C
;
_chemical_formula_sum "Si O2"
_cell_formula_units_Z 112
_cell_length_a 13.681608
_cell_length_b 13.681608
_cell_length_c 27.972699
_cell_angle_alpha 90.000000
_cell_angle_beta 90.000000
_cell_angle_gamma 90.000000
_cell_volume 5236.108753
_symmetry_space_group_name_H-M "P 42/M B C"
_symmetry_group_IT_number 135
_symmetry_cell_setting 'tetragonal'
loop_
_space_group_symop_operation_xyz
x,y,z
-y,x,1/2+z
-x,-y,z
y,-x,1/2+z
1/2+x,1/2-y,-z
1/2-x,1/2+y,-z
1/2+y,1/2+x,1/2-z
1/2-y,1/2-x,1/2-z
-x,-y,-z
y,-x,1/2-z
x,y,-z
-y,x,1/2-z
1/2-x,1/2+y,z
1/2+x,1/2-y,z
1/2-y,1/2-x,1/2+z
1/2+y,1/2+x,1/2+z
loop_
_atom_site_type_symbol
_atom_site_label
_atom_site_fract_x
_atom_site_fract_y
_atom_site_fract_z
Si Si1 0.343659 0.177265 0.697726
Si Si2 0.605735 0.962591 0.557196
Si Si3 0.748243 0.311559 0.943781
Si Si4 0.170162 0.153160 0.374657
Si Si5 0.952792 0.804746 0.899801
Si Si6 0.215091 0.447481 0.191682
Si Si7 0.753032 0.109180 0.295940
O O1 0.365148 0.134853 0.750000
O O2 0.259752 0.135178 0.663542
O O3 0.449304 0.176312 0.674251
O O4 0.307860 0.287206 0.709383
O O5 0.611411 0.979206 0.500000
O O6 0.623269 0.845837 0.564162
O O7 0.500000 0.000000 0.573899
O O8 0.695963 0.021526 0.580501
O O9 0.769927 0.215580 0.911905
O O10 0.642852 0.347123 0.925331
O O11 0.742682 0.290898 0.000000
O O12 0.086027 0.199854 0.343533
O O13 0.141306 0.056445 0.403145
O O14 0.933953 0.798862 0.843318
O O15 0.135975 0.360223 0.193343
O O16 0.256408 0.449119 0.246288
#
# Coordination Sequence:
#
# PCOD9568777 Si02
#       7
#    16  16  16  16  16  16  16
#     4  11  19  37  61  84 121 161 198 256 311 373
#     4   9  20  38  62  96 129 162 215 270 319 385
#     4  10  20  37  61  89 122 165 205 256 324 379
#     4  10  21  39  59  89 120 161 207 259 314 391
#     4  11  20  36  61  86 124 164 205 257 320 379
#     4  10  20  37  60  84 118 160 201 253 318 368
#     4  10  20  36  56  84 118 157 203 255 305 375
#
# _framework density 21.389928999999999
#
# number of rings (size 3 to 8) (size 9 to 14) (size 15 to 20)
#    0.000    1.857    5.714    1.286    0.000    2.857 
#    0.000    5.000    0.000    0.000    0.000    1.000 
#    0.000    0.000    0.000    0.000    0.000    0.000 
#
# Total GULP energy -624886.741616 kJ/mol
# GULP energy per Si atom -5579.345907 kJ/mol
# Density = 2.134124 g / cm^3
# Si number density = 21.389929 Si / 1000 Ang^3
#
#
#
# Elastic Constant Matrix: (Units=GPa)
#
#
# Indices 1 2 3 4 5 6 
#
# 1 74.6255 15.5328 8.6149 0.0000 0.0000 0.0000
# 2 15.5328 74.6263 8.6150 0.0000 0.0000 0.0000
# 3 8.6149 8.6150 102.4419 0.0000 0.0000 0.0000
# 4 0.0000 0.0000 0.0000 17.8536 0.0000 0.0000
# 5 0.0000 0.0000 0.0000 0.0000 17.8535 0.0000
# 6 0.0000 0.0000 0.0000 0.0000 0.0000 6.8137
#
#
#
# Elastic Compliance Matrix: (Units=1/GPa)
#
#
# Indices 1 2 3 4 5 6 
#
# 1 0.014098 -0.002825 -0.000948 0.000000 0.000000 0.000000
# 2 -0.002825 0.014098 -0.000948 0.000000 0.000000 0.000000
# 3 -0.000948 -0.000948 0.009921 0.000000 0.000000 0.000000
# 4 0.000000 0.000000 0.000000 0.056011 0.000000 0.000000
# 5 0.000000 0.000000 0.000000 0.000000 0.056011 0.000000
# 6 0.000000 0.000000 0.000000 0.000000 0.000000 0.146763
#
#
# Mechanical properties :
#
#
# Convention : Reuss Voigt Hill
#
# Bulk Modulus (GPa) = 34.87413 35.24657 35.06035
# Shear Modulus (GPa) = 15.82773 23.09956 19.46364
#
# Velocity S-wave (km/s) = 2.72317 3.28979 3.01980
# Velocity P-wave (km/s) = 5.12123 5.56275 5.34655
#
# Compressibility (1/GPa) = 0.02867455
#
# Stress axis : x y z
#
# Youngs Moduli (GPa) = 70.93374 70.93450 100.79548
#
# Poissons Ratio (x) = 0.20038 0.09555
# Poissons Ratio (y) = 0.20038 0.09555
# Poissons Ratio (z) = 0.06724 0.06725
#
# Static dielectric constant tensor:
#      x y z
#    x 1.798280 0.000000 0.000000 
#    y 0.000000 1.798280 0.000000 
#    z 0.000000 0.000000 1.779630 
# 
# From -- ./inp_files/6880.got.cif
#   From: 2010.05.17/outbox.cif.g08.bks.cpg/sg135_4_cif.got.tgz:6880.got - 2010.05.20 12:50:20.
