data_PCOD9568248
_publ_section_title
;
Structure prediction by ZEFSAII (Michael W. Deem and Ramdas Pophale) SiO2 
 PCOD9568248
Probable space group: P 42/N N M
;
_chemical_formula_sum "Si O2"
_cell_formula_units_Z 96
_cell_length_a 20.027322
_cell_length_b 20.027322
_cell_length_c 14.916206
_cell_angle_alpha 90.000000
_cell_angle_beta 90.000000
_cell_angle_gamma 90.000000
_cell_volume 5982.795158
_symmetry_space_group_name_H-M "P 42/N N M"
_symmetry_group_IT_number 134
_space_group.IT_coordinate_system_code '2'
_symmetry_cell_setting 'tetragonal'
loop_
_space_group_symop_operation_xyz
x,y,z
1/2-y,x,1/2+z
1/2-x,1/2-y,z
y,1/2-x,1/2+z
x,1/2-y,1/2-z
1/2-x,y,1/2-z
y,x,-z
1/2-y,1/2-x,-z
-x,-y,-z
1/2+y,-x,1/2-z
1/2+x,1/2+y,-z
-y,1/2+x,1/2-z
-x,1/2+y,1/2+z
1/2+x,-y,1/2+z
-y,-x,z
1/2+y,1/2+x,z
loop_
_atom_site_type_symbol
_atom_site_label
_atom_site_fract_x
_atom_site_fract_y
_atom_site_fract_z
Si Si1 0.545249 0.159004 0.084546
Si Si2 0.300806 0.591071 0.973043
Si Si3 0.979573 0.593466 0.573383
Si Si4 0.615619 0.276100 0.650988
Si Si5 0.417405 0.032751 0.776238
Si Si6 0.993262 0.380916 0.894900
O O1 0.604356 0.104356 0.080197
O O2 0.502471 0.143335 0.172095
O O3 0.578585 0.231260 0.077447
O O4 0.499199 0.145796 0.996347
O O5 0.345863 0.654138 0.943711
O O6 0.280213 0.602437 0.076901
O O7 0.345163 0.525340 0.957757
O O8 0.924377 0.575624 0.500000
O O9 0.951709 0.600324 0.673828
O O10 0.030805 0.530805 0.576825
O O11 0.629331 0.250000 0.750000
O O12 0.677528 0.322473 0.620338
O O13 0.551235 0.324530 0.653349
O O14 0.445107 0.094119 0.835694
O O15 0.477155 0.977155 0.774474
O O16 0.945827 0.445827 0.903999
#
# Coordination Sequence:
#
# PCOD9568248 Si02
#       6
#    16  16  16  16  16  16
#     4   9  17  29  46  71  97 124 159 195 236 286
#     4  10  20  32  45  63  96 134 165 199 234 278
#     4   9  19  32  46  64  85 119 163 201 243 287
#     4  10  20  30  44  68  98 134 171 200 234 287
#     4   9  16  28  48  67  89 119 156 203 249 286
#     4   8  15  27  44  67  93 120 151 197 249 285
#
# _framework density 16.046009999999999
#
# number of rings (size 3 to 8) (size 9 to 14) (size 15 to 20)
#    0.000    2.833    0.000    2.500    2.333    4.833 
#    0.000    0.000    0.000    1.000    0.000    9.333 
#    0.000   10.667    0.667    0.000    0.000    0.000 
#
# Total GULP energy -534522.633745 kJ/mol
# GULP energy per Si atom -5567.944102 kJ/mol
# Density = 1.600949 g / cm^3
# Si number density = 16.046010 Si / 1000 Ang^3
#
#
#
# Elastic Constant Matrix: (Units=GPa)
#
#
# Indices 1 2 3 4 5 6 
#
# 1 41.3534 49.4957 47.4959 0.0000 0.0000 0.0000
# 2 49.4957 41.3526 47.4962 0.0000 0.0000 0.0000
# 3 47.4959 47.4962 104.8289 0.0000 0.0000 0.0000
# 4 0.0000 0.0000 0.0000 14.3229 0.0000 0.0000
# 5 0.0000 0.0000 0.0000 0.0000 14.3234 0.0000
# 6 0.0000 0.0000 0.0000 0.0000 0.0000 16.4888
#
#
#
# Elastic Compliance Matrix: (Units=1/GPa)
#
#
# Indices 1 2 3 4 5 6 
#
# 1 -0.050945 0.071863 -0.009478 0.000000 0.000000 0.000000
# 2 0.071863 -0.050948 -0.009476 0.000000 0.000000 0.000000
# 3 -0.009478 -0.009476 0.018127 0.000000 0.000000 0.000000
# 4 0.000000 0.000000 0.000000 0.069818 0.000000 0.000000
# 5 0.000000 0.000000 0.000000 0.000000 0.069816 0.000000
# 6 0.000000 0.000000 0.000000 0.000000 0.000000 0.060647
#
#
# Mechanical properties :
#
#
# Convention : Reuss Voigt Hill
#
# Bulk Modulus (GPa) = 45.34666 52.94562 49.14614
# Shear Modulus (GPa) = 277.07077 11.89684 144.48381
#
# Velocity S-wave (km/s) = 13.15475 2.72586 9.49942
# Velocity P-wave (km/s) = 16.09509 6.55552 12.28875
#
# Compressibility (1/GPa) = 0.02205234
#
# Stress axis : x y z
#
# Youngs Moduli (GPa) = -19.62885 -19.62776 55.16665
#
# Poissons Ratio (x) = 1.41051 0.52285
# Poissons Ratio (y) = 1.41059 0.52276
# Poissons Ratio (z) = -0.18604 -0.18599
#
# Static dielectric constant tensor:
#      x y z
#    x 1.533190 0.000000 0.000000 
#    y 0.000000 1.533190 0.000000 
#    z 0.000000 0.000000 1.564860 
# 
# From -- ./inp_files/6641.got.cif
#   From: 2010.05.17/outbox.cif.g08.bks.cpg/sg134_4_cif.got.tgz:6641.got - 2010.05.20 12:42:49.
