data_PCOD9568304
_publ_section_title
;
Structure prediction by ZEFSAII (Michael W. Deem and Ramdas Pophale) SiO2 
 PCOD9568304
Probable space group: P 42/N N M
;
_chemical_formula_sum "Si O2"
_cell_formula_units_Z 92
_cell_length_a 14.394218
_cell_length_b 14.394218
_cell_length_c 21.226294
_cell_angle_alpha 90.000000
_cell_angle_beta 90.000000
_cell_angle_gamma 90.000000
_cell_volume 4397.950397
_symmetry_space_group_name_H-M "P 42/N N M"
_symmetry_group_IT_number 134
_space_group.IT_coordinate_system_code '2'
_symmetry_cell_setting 'tetragonal'
loop_
_space_group_symop_operation_xyz
x,y,z
1/2-y,x,1/2+z
1/2-x,1/2-y,z
y,1/2-x,1/2+z
x,1/2-y,1/2-z
1/2-x,y,1/2-z
y,x,-z
1/2-y,1/2-x,-z
-x,-y,-z
1/2+y,-x,1/2-z
1/2+x,1/2+y,-z
-y,1/2+x,1/2-z
-x,1/2+y,1/2+z
1/2+x,-y,1/2+z
-y,-x,z
1/2+y,1/2+x,z
loop_
_atom_site_type_symbol
_atom_site_label
_atom_site_fract_x
_atom_site_fract_y
_atom_site_fract_z
Si Si1 0.235701 0.524438 0.947950
Si Si2 0.447169 0.095955 0.152444
Si Si3 0.463738 0.250000 0.250000
Si Si4 0.197568 0.543508 0.091238
Si Si5 0.031145 0.119830 0.145183
Si Si6 0.750000 0.250000 0.064708
Si Si7 0.018542 0.669587 0.301874
O O1 0.147269 0.490292 0.908071
O O2 0.319944 0.465931 0.917573
O O3 0.250045 0.634308 0.936650
O O4 0.224075 0.509730 0.022002
O O5 0.417240 0.174164 0.203119
O O6 0.527980 0.027980 0.179204
O O7 0.364304 0.032197 0.128015
O O8 0.514937 0.313868 0.198612
O O9 0.135087 0.635087 0.083500
O O10 0.284517 0.561549 0.135727
O O11 0.124893 0.078784 0.175372
O O12 0.968035 0.031965 0.132811
O O13 0.009556 0.750000 0.250000
O O14 0.087967 0.587967 0.278692
#
# Coordination Sequence:
#
# PCOD9568304 Si02
#       7
#    16  16   8  16  16   4  16
#     4  11  22  37  63  96 132 167 210 261 326 386
#     4  10  20  38  58  89 126 169 213 263 320 391
#     4  10  20  34  61  85 112 160 212 252 304 367
#     4  11  23  39  65  91 125 166 219 268 323 384
#     4  10  22  41  60  89 131 166 206 258 321 390
#     4  12  20  36  62  99 141 168 204 272 320 392
#     4  11  25  43  64  89 124 167 214 271 326 378
#
# _framework density 20.918835000000001
#
# number of rings (size 3 to 8) (size 9 to 14) (size 15 to 20)
#    0.000    1.391    2.609    2.609    1.217    6.087 
#    0.000   10.000    0.000    8.348    0.000    0.000 
#    0.000    0.000    0.000    0.000    0.000    0.000 
#
# Total GULP energy -512247.436131 kJ/mol
# GULP energy per Si atom -5567.906914 kJ/mol
# Density = 2.087122 g / cm^3
# Si number density = 20.918835 Si / 1000 Ang^3
#
#
#
# Elastic Constant Matrix: (Units=GPa)
#
#
# Indices 1 2 3 4 5 6 
#
# 1 83.8341 39.4591 42.6253 0.0000 0.0000 0.0000
# 2 39.4591 83.8341 42.6253 0.0000 0.0000 0.0000
# 3 42.6253 42.6253 147.6674 0.0000 0.0000 0.0000
# 4 0.0000 0.0000 0.0000 17.8963 0.0000 0.0000
# 5 0.0000 0.0000 0.0000 0.0000 17.8963 0.0000
# 6 0.0000 0.0000 0.0000 0.0000 0.0000 17.4592
#
#
#
# Elastic Compliance Matrix: (Units=1/GPa)
#
#
# Indices 1 2 3 4 5 6 
#
# 1 0.016334 -0.006201 -0.002925 0.000000 0.000000 0.000000
# 2 -0.006201 0.016334 -0.002925 0.000000 0.000000 0.000000
# 3 -0.002925 -0.002925 0.008461 0.000000 0.000000 0.000000
# 4 0.000000 0.000000 0.000000 0.055877 0.000000 0.000000
# 5 0.000000 0.000000 0.000000 0.000000 0.055877 0.000000
# 6 0.000000 0.000000 0.000000 0.000000 0.000000 0.057276
#
#
# Mechanical properties :
#
#
# Convention : Reuss Voigt Hill
#
# Bulk Modulus (GPa) = 58.73028 62.75056 60.74042
# Shear Modulus (GPa) = 20.83871 23.35877 22.09874
#
# Velocity S-wave (km/s) = 3.15964 3.34524 3.25376
# Velocity P-wave (km/s) = 6.43796 6.70694 6.57383
#
# Compressibility (1/GPa) = 0.01702699
#
# Stress axis : x y z
#
# Youngs Moduli (GPa) = 61.22116 61.22116 118.19436
#
# Poissons Ratio (x) = 0.37963 0.34572
# Poissons Ratio (y) = 0.37963 0.34572
# Poissons Ratio (z) = 0.17907 0.17907
#
# Static dielectric constant tensor:
#      x y z
#    x 1.774050 0.000000 0.000000 
#    y 0.000000 1.774050 0.000000 
#    z 0.000000 0.000000 1.760940 
# 
# From -- ./inp_files/9186.got.cif
#   From: 2010.05.17/outbox.cif.g08.bks.cpg/sg134_5_cif.got.tgz:9186.got - 2010.05.20 12:42:49.
