data_PCOD9568955
_publ_section_title
;
Structure prediction by ZEFSAII (Michael W. Deem and Ramdas Pophale) SiO2 
 PCOD9568955
Probable space group: P 42/M B C
;
_chemical_formula_sum "Si O2"
_cell_formula_units_Z 60
_cell_length_a 13.889488
_cell_length_b 13.889488
_cell_length_c 14.071753
_cell_angle_alpha 90.000000
_cell_angle_beta 90.000000
_cell_angle_gamma 90.000000
_cell_volume 2714.692713
_symmetry_space_group_name_H-M "P 42/M B C"
_symmetry_group_IT_number 135
_symmetry_cell_setting 'tetragonal'
loop_
_space_group_symop_operation_xyz
x,y,z
-y,x,1/2+z
-x,-y,z
y,-x,1/2+z
1/2+x,1/2-y,-z
1/2-x,1/2+y,-z
1/2+y,1/2+x,1/2-z
1/2-y,1/2-x,1/2-z
-x,-y,-z
y,-x,1/2-z
x,y,-z
-y,x,1/2-z
1/2-x,1/2+y,z
1/2+x,1/2-y,z
1/2-y,1/2-x,1/2+z
1/2+y,1/2+x,1/2+z
loop_
_atom_site_type_symbol
_atom_site_label
_atom_site_fract_x
_atom_site_fract_y
_atom_site_fract_z
Si Si1 0.806783 0.066185 0.500000
Si Si2 0.937653 0.878848 0.500000
Si Si3 0.855567 0.973521 0.206839
Si Si4 0.000000 0.500000 0.250000
Si Si5 0.725194 0.793335 0.500000
Si Si6 0.192819 0.548826 0.654354
O O1 0.896884 0.989576 0.500000
O O2 0.808060 0.182337 0.500000
O O3 0.746530 0.029407 0.410175
O O4 0.995503 0.858079 0.597041
O O5 0.841429 0.811473 0.500000
O O6 0.755242 0.939884 0.250104
O O7 0.893046 0.066362 0.265895
O O8 0.091596 0.506998 0.316901
O O9 0.689988 0.853935 0.408074
#
# Coordination Sequence:
#
# PCOD9568955 Si02
#       6
#     8   8  16   4   8  16
#     4  10  22  47  77 103 141 191 244 300 363 433
#     4  10  22  43  67 120 140 186 245 290 375 438
#     4  11  22  41  72 106 147 177 227 313 369 428
#     4  12  28  46  64 104 144 206 252 266 356 448
#     4  10  22  47  72 105 143 186 248 301 360 430
#     4  10  25  46  69 105 144 187 246 297 346 443
#
# _framework density 22.101946999999999
#
# number of rings (size 3 to 8) (size 9 to 14) (size 15 to 20)
#    0.000    1.867    5.333    0.000    3.733    8.533 
#    0.000    2.667    5.867    0.000    0.000    0.000 
#    0.000    0.000    0.000    0.000    0.000    0.000 
#
# Total GULP energy -335467.726817 kJ/mol
# GULP energy per Si atom -5591.128780 kJ/mol
# Density = 2.205164 g / cm^3
# Si number density = 22.101947 Si / 1000 Ang^3
#
#
#
# Elastic Constant Matrix: (Units=GPa)
#
#
# Indices 1 2 3 4 5 6 
#
# 1 161.9668 41.0678 82.3990 0.0000 0.0000 0.0000
# 2 41.0678 161.9668 82.3990 0.0000 0.0000 0.0000
# 3 82.3990 82.3990 208.5900 0.0000 0.0000 0.0000
# 4 0.0000 0.0000 0.0000 21.9996 0.0000 0.0000
# 5 0.0000 0.0000 0.0000 0.0000 21.9996 0.0000
# 6 0.0000 0.0000 0.0000 0.0000 0.0000 15.2571
#
#
#
# Elastic Compliance Matrix: (Units=1/GPa)
#
#
# Indices 1 2 3 4 5 6 
#
# 1 0.007761 -0.000511 -0.002864 0.000000 0.000000 0.000000
# 2 -0.000511 0.007761 -0.002864 0.000000 0.000000 0.000000
# 3 -0.002864 -0.002864 0.007057 0.000000 0.000000 0.000000
# 4 0.000000 0.000000 0.000000 0.045455 0.000000 0.000000
# 5 0.000000 0.000000 0.000000 0.000000 0.045455 0.000000
# 6 0.000000 0.000000 0.000000 0.000000 0.000000 0.065543
#
#
# Mechanical properties :
#
#
# Convention : Reuss Voigt Hill
#
# Bulk Modulus (GPa) = 99.00192 104.91725 101.95958
# Shear Modulus (GPa) = 25.65733 33.62844 29.64288
#
# Velocity S-wave (km/s) = 3.41084 3.90489 3.66620
# Velocity P-wave (km/s) = 7.77189 8.24037 8.00956
#
# Compressibility (1/GPa) = 0.01010081
#
# Stress axis : x y z
#
# Youngs Moduli (GPa) = 128.85627 128.85627 141.70891
#
# Poissons Ratio (x) = 0.06582 0.40584
# Poissons Ratio (y) = 0.06582 0.40584
# Poissons Ratio (z) = 0.36903 0.36903
#
# Static dielectric constant tensor:
#      x y z
#    x 1.840800 0.000000 0.000000 
#    y 0.000000 1.840800 0.000000 
#    z 0.000000 0.000000 1.881450 
# 
# From -- ./inp_files/3239.got.cif
#   From: 2010.05.17/outbox.cif.g08.bks.cpg/sg135_2_cif.got.tgz:3239.got - 2010.05.20 12:50:20.
