data_PCOD9568022
_publ_section_title
;
Structure prediction by ZEFSAII (Michael W. Deem and Ramdas Pophale) SiO2 
 PCOD9568022
Probable space group: P 42/N B C
;
_chemical_formula_sum "Si O2"
_cell_formula_units_Z 56
_cell_length_a 16.293785
_cell_length_b 16.293785
_cell_length_c 9.364528
_cell_angle_alpha 90.000000
_cell_angle_beta 90.000000
_cell_angle_gamma 90.000000
_cell_volume 2486.164468
_symmetry_space_group_name_H-M "P 42/N B C"
_symmetry_group_IT_number 133
_space_group.IT_coordinate_system_code '2'
_symmetry_cell_setting 'tetragonal'
loop_
_space_group_symop_operation_xyz
x,y,z
1/2-y,x,1/2+z
1/2-x,1/2-y,z
y,1/2-x,1/2+z
x,1/2-y,-z
1/2-x,y,-z
y,x,1/2-z
1/2-y,1/2-x,1/2-z
-x,-y,-z
1/2+y,-x,1/2-z
1/2+x,1/2+y,-z
-y,1/2+x,1/2-z
-x,1/2+y,z
1/2+x,-y,z
-y,-x,1/2+z
1/2+y,1/2+x,1/2+z
loop_
_atom_site_type_symbol
_atom_site_label
_atom_site_fract_x
_atom_site_fract_y
_atom_site_fract_z
Si Si1 0.063009 0.426399 0.973347
Si Si2 0.461312 0.204416 0.752557
Si Si3 0.147171 0.147171 0.750000
Si Si4 0.869631 0.259644 0.328370
O O1 0.023661 0.346655 0.896871
O O2 0.134808 0.456377 0.867955
O O3 0.106310 0.395243 0.114248
O O4 0.000000 0.500000 0.000000
O O5 0.378782 0.257930 0.757482
O O6 0.535234 0.264201 0.710353
O O7 0.857554 0.250000 0.500000
O O8 0.833672 0.180808 0.243021
#
# Coordination Sequence:
#
# PCOD9568022 Si02
#       4
#    16  16   8  16
#     4  11  26  46  72 107 144 197 255 312 384 460
#     4  11  27  46  72 108 148 198 253 321 385 461
#     4  12  24  45  72 104 146 197 250 314 384 450
#     4  11  25  43  68 104 148 195 250 316 391 465
#
# _framework density 22.524656
#
# number of rings (size 3 to 8) (size 9 to 14) (size 15 to 20)
#    0.000    0.857    0.000    6.857   12.000    4.571 
#    0.000    5.714    0.000    0.000    0.000    0.000 
#    0.000    0.000    0.000    0.000    0.000    0.000 
#
# Total GULP energy -313418.564810 kJ/mol
# GULP energy per Si atom -5596.760086 kJ/mol
# Density = 2.247339 g / cm^3
# Si number density = 22.524656 Si / 1000 Ang^3
#
#
#
# Elastic Constant Matrix: (Units=GPa)
#
#
# Indices 1 2 3 4 5 6 
#
# 1 119.3191 55.2417 27.3093 0.0000 0.0000 0.0000
# 2 55.2417 119.3191 27.3093 0.0000 0.0000 0.0000
# 3 27.3093 27.3093 141.5716 0.0000 0.0000 0.0000
# 4 0.0000 0.0000 0.0000 31.6063 0.0000 0.0000
# 5 0.0000 0.0000 0.0000 0.0000 31.6063 0.0000
# 6 0.0000 0.0000 0.0000 0.0000 0.0000 31.7872
#
#
#
# Elastic Compliance Matrix: (Units=1/GPa)
#
#
# Indices 1 2 3 4 5 6 
#
# 1 0.010851 -0.004755 -0.001176 0.000000 0.000000 0.000000
# 2 -0.004755 0.010851 -0.001176 0.000000 0.000000 0.000000
# 3 -0.001176 -0.001176 0.007517 0.000000 0.000000 0.000000
# 4 0.000000 0.000000 0.000000 0.031639 0.000000 0.000000
# 5 0.000000 0.000000 0.000000 0.000000 0.031639 0.000000
# 6 0.000000 0.000000 0.000000 0.000000 0.000000 0.031459
#
#
# Mechanical properties :
#
#
# Convention : Reuss Voigt Hill
#
# Bulk Modulus (GPa) = 66.63838 66.65895 66.64866
# Shear Modulus (GPa) = 34.92267 37.02328 35.97297
#
# Velocity S-wave (km/s) = 3.94181 4.05863 4.00064
# Velocity P-wave (km/s) = 7.09690 7.18480 7.14098
#
# Compressibility (1/GPa) = 0.01500637
#
# Stress axis : x y z
#
# Youngs Moduli (GPa) = 92.15419 92.15419 133.02677
#
# Poissons Ratio (x) = 0.43817 0.15645
# Poissons Ratio (y) = 0.43817 0.15645
# Poissons Ratio (z) = 0.10838 0.10838
#
# Static dielectric constant tensor:
#      x y z
#    x 1.859170 0.000000 0.000000 
#    y 0.000000 1.859170 0.000000 
#    z 0.000000 0.000000 -2.194320 
# 
# From -- ./inp_files/1264.got.cif
#   From: 2010.05.17/outbox.cif.g08.bks.cpg/sg133_1_cif.got.tgz:1264.got - 2010.05.20 12:37:36.
