data_PCOD9568795
_publ_section_title
;
Structure prediction by ZEFSAII (Michael W. Deem and Ramdas Pophale) SiO2 
 PCOD9568795
Probable space group: P 42/M B C
;
_chemical_formula_sum "Si O2"
_cell_formula_units_Z 112
_cell_length_a 14.453354
_cell_length_b 14.453354
_cell_length_c 27.488726
_cell_angle_alpha 90.000000
_cell_angle_beta 90.000000
_cell_angle_gamma 90.000000
_cell_volume 5742.379519
_symmetry_space_group_name_H-M "P 42/M B C"
_symmetry_group_IT_number 135
_symmetry_cell_setting 'tetragonal'
loop_
_space_group_symop_operation_xyz
x,y,z
-y,x,1/2+z
-x,-y,z
y,-x,1/2+z
1/2+x,1/2-y,-z
1/2-x,1/2+y,-z
1/2+y,1/2+x,1/2-z
1/2-y,1/2-x,1/2-z
-x,-y,-z
y,-x,1/2-z
x,y,-z
-y,x,1/2-z
1/2-x,1/2+y,z
1/2+x,1/2-y,z
1/2-y,1/2-x,1/2+z
1/2+y,1/2+x,1/2+z
loop_
_atom_site_type_symbol
_atom_site_label
_atom_site_fract_x
_atom_site_fract_y
_atom_site_fract_z
Si Si1 0.617568 0.737259 0.229511
Si Si2 0.398765 0.754974 0.774106
Si Si3 0.547795 0.098155 0.946148
Si Si4 0.960387 0.759405 0.555561
Si Si5 0.250743 0.678866 0.942747
Si Si6 0.068157 0.235580 0.885637
Si Si7 0.319419 0.628509 0.382753
O O1 0.676296 0.823705 0.250000
O O2 0.659719 0.648556 0.256924
O O3 0.508465 0.754795 0.236859
O O4 0.639886 0.714602 0.172940
O O5 0.338482 0.838482 0.750000
O O6 0.392258 0.754782 0.832405
O O7 0.523780 0.169499 0.904780
O O8 0.500000 0.000000 0.939492
O O9 0.657956 0.084753 0.944781
O O10 0.479131 0.867130 0.000000
O O11 0.949639 0.797798 0.500000
O O12 0.068891 0.743063 0.564473
O O13 0.910361 0.819366 0.597027
O O14 0.349767 0.707026 0.920982
O O15 0.173082 0.738850 0.915942
O O16 0.246864 0.698339 0.000000
O O17 0.981809 0.166431 0.886992
#
# Coordination Sequence:
#
# PCOD9568795 Si02
#       7
#    16  16  16  16  16  16  16
#     4  10  23  42  65  91 121 163 208 263 326 377
#     4  10  23  44  63  91 126 158 210 265 318 382
#     4  10  20  37  59  88 122 158 204 247 294 360
#     4  10  22  37  58  89 123 164 204 245 304 362
#     4  11  22  38  61  90 125 166 207 249 303 366
#     4  11  23  40  60  91 122 160 207 252 313 367
#     4  11  23  40  61  88 124 161 204 258 310 372
#
# _framework density 19.504110000000001
#
# number of rings (size 3 to 8) (size 9 to 14) (size 15 to 20)
#    0.000    1.571    1.429    3.429    0.000    6.857 
#    5.143    4.286    0.000    0.000    0.000    0.000 
#    0.000    0.000    0.000    0.000    0.000    0.000 
#
# Total GULP energy -625149.485928 kJ/mol
# GULP energy per Si atom -5581.691839 kJ/mol
# Density = 1.945972 g / cm^3
# Si number density = 19.504110 Si / 1000 Ang^3
#
#
#
# Elastic Constant Matrix: (Units=GPa)
#
#
# Indices 1 2 3 4 5 6 
#
# 1 55.6804 3.3496 19.7236 0.0000 0.0000 0.0000
# 2 3.3496 55.6788 19.7250 0.0000 0.0000 0.0000
# 3 19.7236 19.7250 91.5479 0.0000 0.0000 0.0000
# 4 0.0000 0.0000 0.0000 8.8858 0.0000 0.0000
# 5 0.0000 0.0000 0.0000 0.0000 8.8826 0.0000
# 6 0.0000 0.0000 0.0000 0.0000 0.0000 26.4106
#
#
#
# Elastic Compliance Matrix: (Units=1/GPa)
#
#
# Indices 1 2 3 4 5 6 
#
# 1 0.019449 0.000340 -0.004264 0.000000 0.000000 0.000000
# 2 0.000340 0.019450 -0.004264 0.000000 0.000000 0.000000
# 3 -0.004264 -0.004264 0.012761 0.000000 0.000000 0.000000
# 4 0.000000 0.000000 0.000000 0.112539 0.000000 0.000000
# 5 0.000000 0.000000 0.000000 0.000000 0.112580 0.000000
# 6 0.000000 0.000000 0.000000 0.000000 0.000000 0.037864
#
#
# Mechanical properties :
#
#
# Convention : Reuss Voigt Hill
#
# Bulk Modulus (GPa) = 28.34017 32.05595 30.19806
# Shear Modulus (GPa) = 14.58664 19.50972 17.04818
#
# Velocity S-wave (km/s) = 2.73770 3.16616 2.95969
# Velocity P-wave (km/s) = 4.95532 5.46235 5.21500
#
# Compressibility (1/GPa) = 0.03528560
#
# Stress axis : x y z
#
# Youngs Moduli (GPa) = 51.41528 51.41308 78.36637
#
# Poissons Ratio (x) = -0.01750 0.33413
# Poissons Ratio (y) = -0.01750 0.33416
# Poissons Ratio (z) = 0.21922 0.21923
#
# Static dielectric constant tensor:
#      x y z
#    x 1.712350 0.000000 0.000000 
#    y 0.000000 1.712350 0.000000 
#    z 0.000000 0.000000 1.687670 
# 
# From -- ./inp_files/6510.got.cif
#   From: 2010.05.17/outbox.cif.g08.bks.cpg/sg135_4_cif.got.tgz:6510.got - 2010.05.20 12:50:20.
