data_PCOD9568428
_publ_section_title
;
Structure prediction by ZEFSAII (Michael W. Deem and Ramdas Pophale) SiO2 
 PCOD9568428
Probable space group: P 42/N N M
;
_chemical_formula_sum "Si O2"
_cell_formula_units_Z 112
_cell_length_a 15.210958
_cell_length_b 15.210958
_cell_length_c 24.550931
_cell_angle_alpha 90.000000
_cell_angle_beta 90.000000
_cell_angle_gamma 90.000000
_cell_volume 5680.428531
_symmetry_space_group_name_H-M "P 42/N N M"
_symmetry_group_IT_number 134
_space_group.IT_coordinate_system_code '2'
_symmetry_cell_setting 'tetragonal'
loop_
_space_group_symop_operation_xyz
x,y,z
1/2-y,x,1/2+z
1/2-x,1/2-y,z
y,1/2-x,1/2+z
x,1/2-y,1/2-z
1/2-x,y,1/2-z
y,x,-z
1/2-y,1/2-x,-z
-x,-y,-z
1/2+y,-x,1/2-z
1/2+x,1/2+y,-z
-y,1/2+x,1/2-z
-x,1/2+y,1/2+z
1/2+x,-y,1/2+z
-y,-x,z
1/2+y,1/2+x,z
loop_
_atom_site_type_symbol
_atom_site_label
_atom_site_fract_x
_atom_site_fract_y
_atom_site_fract_z
Si Si1 0.751084 0.953043 0.608516
Si Si2 0.694613 0.057286 0.300145
Si Si3 0.552934 0.907841 0.318077
Si Si4 0.778221 0.079847 0.416095
Si Si5 0.434647 0.074785 0.065087
Si Si6 0.001155 0.645694 0.495070
Si Si7 0.532938 0.173881 0.783278
O O1 0.661682 0.917326 0.636082
O O2 0.840445 0.903850 0.591497
O O3 0.716932 0.996090 0.553015
O O4 0.785929 0.010228 0.658844
O O5 0.750000 0.022260 0.250000
O O6 0.641069 0.141069 0.278944
O O7 0.746159 0.085440 0.354062
O O8 0.624690 0.983145 0.315696
O O9 0.542197 0.857202 0.259955
O O10 0.459214 0.959214 0.329002
O O11 0.829375 0.170626 0.432576
O O12 0.697917 0.042961 0.453318
O O13 0.851968 0.004595 0.418971
O O14 0.480189 0.980189 0.079551
O O15 0.424768 0.075233 0.000000
O O16 0.069694 0.569694 0.479890
O O17 0.906996 0.593005 0.500000
O O18 0.582171 0.250000 0.750000
O O19 0.588985 0.088985 0.792675
#
# Coordination Sequence:
#
# PCOD9568428 Si02
#       7
#    16  16  16  16  16  16  16
#     4  11  20  36  64  89 117 159 211 246 292 371
#     4  11  24  42  66  92 120 158 206 260 318 381
#     4   9  20  40  62  87 123 164 204 248 305 368
#     4  11  24  42  64  92 126 164 206 262 322 376
#     4  10  21  39  62  90 126 165 204 249 308 370
#     4  11  24  42  64  90 124 166 208 256 316 381
#     4   9  19  34  57  86 120 159 198 242 296 358
#
# _framework density 19.716823999999999
#
# number of rings (size 3 to 8) (size 9 to 14) (size 15 to 20)
#    0.000    1.714    1.429    2.571    2.000    5.429 
#    0.000    3.571    0.000    3.857    0.000    0.000 
#    0.000    0.000    0.000    0.000    0.000    0.000 
#
# Total GULP energy -623526.721136 kJ/mol
# GULP energy per Si atom -5567.202867 kJ/mol
# Density = 1.967195 g / cm^3
# Si number density = 19.716824 Si / 1000 Ang^3
#
#
#
# Elastic Constant Matrix: (Units=GPa)
#
#
# Indices 1 2 3 4 5 6 
#
# 1 85.8067 10.0807 14.1042 0.0000 0.0000 0.0000
# 2 10.0807 85.8076 14.1052 0.0000 0.0000 0.0000
# 3 14.1042 14.1052 71.9682 0.0000 0.0000 0.0000
# 4 0.0000 0.0000 0.0000 24.5956 0.0000 0.0000
# 5 0.0000 0.0000 0.0000 0.0000 24.5960 0.0000
# 6 0.0000 0.0000 0.0000 0.0000 0.0000-3004.7369
#
#
#
# Elastic Compliance Matrix: (Units=1/GPa)
#
#
# Indices 1 2 3 4 5 6 
#
# 1 0.012136 -0.001069 -0.002169 0.000000 0.000000 0.000000
# 2 -0.001069 0.012136 -0.002169 0.000000 0.000000 0.000000
# 3 -0.002169 -0.002169 0.014745 0.000000 0.000000 0.000000
# 4 0.000000 0.000000 0.000000 0.040658 0.000000 0.000000
# 5 0.000000 0.000000 0.000000 0.000000 0.040657 0.000000
# 6 0.000000 0.000000 0.000000 0.000000 0.000000 -0.000333
#
#
# Mechanical properties :
#
#
# Convention : Reuss Voigt Hill
#
# Bulk Modulus (GPa) = 35.45690 35.57362 35.51526
# Shear Modulus (GPa) = 35.65954 -577.42291 -270.88169
#
# Velocity S-wave (km/s) = 4.25736 -17.13166 -11.73390
# Velocity P-wave (km/s) = 6.49530 19.31951 12.86574
#
# Compressibility (1/GPa) = 0.02820326
#
# Stress axis : x y z
#
# Youngs Moduli (GPa) = 82.39796 82.39855 67.81872
#
# Poissons Ratio (x) = 0.08810 0.14709
# Poissons Ratio (y) = 0.08810 0.14710
# Poissons Ratio (z) = 0.17871 0.17873
#
# Static dielectric constant tensor:
#      x y z
#    x 1.666640 0.000000 0.000000 
#    y 0.000000 1.666630 0.000000 
#    z 0.000000 0.000000 1.713970 
# 
# From -- ./inp_files/10088.got.cif
#   From: 2010.05.17/outbox.cif.g08.bks.cpg/sg134_6_cif.got.tgz:10088.got - 2010.05.20 12:42:49.
