data_PCOD9568551
_publ_section_title
;
Structure prediction by ZEFSAII (Michael W. Deem and Ramdas Pophale) SiO2 
 PCOD9568551
Probable space group: P 42/N N M
;
_chemical_formula_sum "Si O2"
_cell_formula_units_Z 48
_cell_length_a 20.607232
_cell_length_b 20.607232
_cell_length_c 5.099747
_cell_angle_alpha 90.000000
_cell_angle_beta 90.000000
_cell_angle_gamma 90.000000
_cell_volume 2165.648416
_symmetry_space_group_name_H-M "P 42/N N M"
_symmetry_group_IT_number 134
_space_group.IT_coordinate_system_code '2'
_symmetry_cell_setting 'tetragonal'
loop_
_space_group_symop_operation_xyz
x,y,z
1/2-y,x,1/2+z
1/2-x,1/2-y,z
y,1/2-x,1/2+z
x,1/2-y,1/2-z
1/2-x,y,1/2-z
y,x,-z
1/2-y,1/2-x,-z
-x,-y,-z
1/2+y,-x,1/2-z
1/2+x,1/2+y,-z
-y,1/2+x,1/2-z
-x,1/2+y,1/2+z
1/2+x,-y,1/2+z
-y,-x,z
1/2+y,1/2+x,z
loop_
_atom_site_type_symbol
_atom_site_label
_atom_site_fract_x
_atom_site_fract_y
_atom_site_fract_z
Si Si1 0.404570 0.496695 0.824408
Si Si2 0.405300 0.796839 0.497745
Si Si3 0.617688 0.676037 0.731276
O O1 0.450049 0.549952 0.685040
O O2 0.363982 0.446558 0.654239
O O3 0.452136 0.452136 0.000000
O O4 0.350667 0.537390 0.984996
O O5 0.411556 0.750000 0.250000
O O6 0.338988 0.838988 0.489626
O O7 0.406892 0.750000 0.750000
O O8 0.598516 0.750000 0.750000
O O9 0.668852 0.668852 0.500000
O O10 0.647384 0.647384 0.000000
#
# Coordination Sequence:
#
# PCOD9568551 Si02
#       3
#    16  16  16
#     4   9  21  41  64  92 125 162 208 260 314 373
#     4  11  24  42  66  95 129 170 215 267 325 388
#     4  11  24  41  64  92 123 162 204 251 306 365
#
# _framework density 22.164261
#
# number of rings (size 3 to 8) (size 9 to 14) (size 15 to 20)
#    0.000    1.667    0.000    3.000    0.000   15.333 
#    0.000   10.000    0.000    0.000    0.000    0.000 
#    0.000    0.000    0.000    0.000    0.000    0.000 
#
# Total GULP energy -268198.837859 kJ/mol
# GULP energy per Si atom -5587.475789 kJ/mol
# Density = 2.211381 g / cm^3
# Si number density = 22.164261 Si / 1000 Ang^3
#
#
#
# Elastic Constant Matrix: (Units=GPa)
#
#
# Indices 1 2 3 4 5 6 
#
# 1 146.9766 74.6443 34.5205 0.0000 0.0000 0.0000
# 2 74.6443 146.9766 34.5205 0.0000 0.0000 0.0000
# 3 34.5205 34.5205 107.4055 0.0000 0.0000 0.0000
# 4 0.0000 0.0000 0.0000 36.7077 0.0000 0.0000
# 5 0.0000 0.0000 0.0000 0.0000 36.7077 0.0000
# 6 0.0000 0.0000 0.0000 0.0000 0.0000 42.5923
#
#
#
# Elastic Compliance Matrix: (Units=1/GPa)
#
#
# Indices 1 2 3 4 5 6 
#
# 1 0.009420 -0.004405 -0.001612 0.000000 0.000000 0.000000
# 2 -0.004405 0.009420 -0.001612 0.000000 0.000000 0.000000
# 3 -0.001612 -0.001612 0.010346 0.000000 0.000000 0.000000
# 4 0.000000 0.000000 0.000000 0.027242 0.000000 0.000000
# 5 0.000000 0.000000 0.000000 0.000000 0.027242 0.000000
# 6 0.000000 0.000000 0.000000 0.000000 0.000000 0.023478
#
#
# Mechanical properties :
#
#
# Convention : Reuss Voigt Hill
#
# Bulk Modulus (GPa) = 71.79481 76.52548 74.16015
# Shear Modulus (GPa) = 39.35496 40.37977 39.86736
#
# Velocity S-wave (km/s) = 4.21836 4.27293 4.24574
# Velocity P-wave (km/s) = 7.49591 7.67759 7.58729
#
# Compressibility (1/GPa) = 0.01392858
#
# Stress axis : x y z
#
# Youngs Moduli (GPa) = 106.16071 106.16071 96.65140
#
# Poissons Ratio (x) = 0.46768 0.15576
# Poissons Ratio (y) = 0.46768 0.15576
# Poissons Ratio (z) = 0.17109 0.17109
#
# Static dielectric constant tensor:
#      x y z
#    x 1.685140 0.000000 0.000000 
#    y 0.000000 1.685140 0.000000 
#    z 0.000000 0.000000 1.887220 
# 
# From -- ./inp_files/604.got.cif
#   From: 2010.05.17/outbox.cif.g08.bks.cpg/sg134_1_cif.got.tgz:604.got - 2010.05.20 12:42:49.
