data_PCOD9568581
_publ_section_title
;
Structure prediction by ZEFSAII (Michael W. Deem and Ramdas Pophale) SiO2 
 PCOD9568581
Probable space group: P 42/N N M
;
_chemical_formula_sum "Si O2"
_cell_formula_units_Z 80
_cell_length_a 12.000000
_cell_length_b 12.000000
_cell_length_c 30.000000
_cell_angle_alpha 90.000000
_cell_angle_beta 90.000000
_cell_angle_gamma 90.000000
_cell_volume 4320.000000
_symmetry_space_group_name_H-M "P 42/N N M"
_symmetry_group_IT_number 134
_space_group.IT_coordinate_system_code '2'
_symmetry_cell_setting 'tetragonal'
loop_
_space_group_symop_operation_xyz
x,y,z
1/2-y,x,1/2+z
1/2-x,1/2-y,z
y,1/2-x,1/2+z
x,1/2-y,1/2-z
1/2-x,y,1/2-z
y,x,-z
1/2-y,1/2-x,-z
-x,-y,-z
1/2+y,-x,1/2-z
1/2+x,1/2+y,-z
-y,1/2+x,1/2-z
-x,1/2+y,1/2+z
1/2+x,-y,1/2+z
-y,-x,z
1/2+y,1/2+x,z
loop_
_atom_site_type_symbol
_atom_site_label
_atom_site_fract_x
_atom_site_fract_y
_atom_site_fract_z
Si Si1 0.580536 0.604230 0.448365
Si Si2 0.688907 0.497124 0.795612
Si Si3 0.227982 0.120814 0.877899
Si Si4 0.506771 0.680491 0.794210
Si Si5 0.987645 0.302911 0.607062
O O1 0.612505 0.612505 0.500000
O O2 0.504185 0.495816 0.442637
O O3 0.691288 0.599132 0.418893
O O4 0.510724 0.709981 0.429827
O O5 0.750000 0.472382 0.750000
O O6 0.593975 0.406026 0.801870
O O7 0.622485 0.612078 0.788917
O O8 0.751976 0.490605 0.842979
O O9 0.250000 0.250000 0.864239
O O10 0.250765 0.034217 0.838269
O O11 0.097228 0.117664 0.890833
O O12 0.484738 0.750000 0.750000
O O13 0.407552 0.592449 0.801410
O O14 0.877470 0.377470 0.600544
#
# Coordination Sequence:
#
# PCOD9568581 Si02
#       5
#    16  16  16  16  16
#     4  10  22  39  58  84 115 145 184 232 284 342
#     4   9  19  33  51  80 113 143 179 222 272 331
#     4   9  19  35  58  83 108 143 182 232 277 330
#     4  10  22  35  51  76 110 148 187 227 266 317
#     4   9  19  37  59  83 112 145 184 234 284 333
#
# _framework density 18.518519000000001
#
# number of rings (size 3 to 8) (size 9 to 14) (size 15 to 20)
#    0.000    2.600    0.000    1.800    8.400    6.000 
#    0.000    5.000    0.000    4.200    0.000    0.000 
#    0.000    0.000    0.000    0.000    0.000    0.000 
#
# Total GULP energy -445676.230798 kJ/mol
# GULP energy per Si atom -5570.952885 kJ/mol
# Density = 1.847637 g / cm^3
# Si number density = 18.518519 Si / 1000 Ang^3
#
#
#
# Elastic Constant Matrix: (Units=GPa)
#
#
# Indices 1 2 3 4 5 6 
#
# 1 24.4333 -4.0548 45.6360 0.0000 0.0000 0.0000
# 2 -4.0548 24.4333 45.6360 0.0000 0.0000 0.0000
# 3 45.6360 45.6360 155.7175 0.0000 0.0000 0.0000
# 4 0.0000 0.0000 0.0000 13.5045 0.0000 0.0000
# 5 0.0000 0.0000 0.0000 0.0000 13.5045 0.0000
# 6 0.0000 0.0000 0.0000 0.0000 0.0000 -16.7221
#
#
#
# Elastic Compliance Matrix: (Units=1/GPa)
#
#
# Indices 1 2 3 4 5 6 
#
# 1 -0.060937 -0.096039 0.046005 0.000000 0.000000 0.000000
# 2 -0.096039 -0.060937 0.046005 0.000000 0.000000 0.000000
# 3 0.046005 0.046005 -0.020543 0.000000 0.000000 0.000000
# 4 0.000000 0.000000 0.000000 0.074050 0.000000 0.000000
# 5 0.000000 0.000000 0.000000 0.000000 0.074050 0.000000
# 6 0.000000 0.000000 0.000000 0.000000 0.000000 -0.059801
#
#
# Mechanical properties :
#
#
# Convention : Reuss Voigt Hill
#
# Bulk Modulus (GPa) = -6.64558 42.11315 17.73379
# Shear Modulus (GPa) = -51.96540 9.88183 -21.04178
#
# Velocity S-wave (km/s) = -5.30304 2.31253 -3.37450
# Velocity P-wave (km/s) = 6.41036 5.46999 2.36346
#
# Compressibility (1/GPa) = -0.15047593
#
# Stress axis : x y z
#
# Youngs Moduli (GPa) = -16.41047 -16.41047 -48.67784
#
# Poissons Ratio (x) = -1.57605 2.23941
# Poissons Ratio (y) = -1.57605 2.23941
# Poissons Ratio (z) = 0.75496 0.75496
#
# Static dielectric constant tensor:
#      x y z
#    x 1.649980 0.000000 0.000000 
#    y 0.000000 1.649980 0.000000 
#    z 0.000000 0.000000 1.746070 
# 
# From -- ./inp_files/11275.got.cif
#   From: 2010.05.17/outbox.ucp.g08.bks.cvg/sg134_6_cif.got.tgz:11275.got - 2010.06.11 11:39:54.
