data_PCOD9568378
_publ_section_title
;
Structure prediction by ZEFSAII (Michael W. Deem and Ramdas Pophale) SiO2 
 PCOD9568378
Probable space group: P 42/N N M
;
_chemical_formula_sum "Si O2"
_cell_formula_units_Z 48
_cell_length_a 14.200025
_cell_length_b 14.200025
_cell_length_c 11.169273
_cell_angle_alpha 90.000000
_cell_angle_beta 90.000000
_cell_angle_gamma 90.000000
_cell_volume 2252.180138
_symmetry_space_group_name_H-M "P 42/N N M"
_symmetry_group_IT_number 134
_space_group.IT_coordinate_system_code '2'
_symmetry_cell_setting 'tetragonal'
loop_
_space_group_symop_operation_xyz
x,y,z
1/2-y,x,1/2+z
1/2-x,1/2-y,z
y,1/2-x,1/2+z
x,1/2-y,1/2-z
1/2-x,y,1/2-z
y,x,-z
1/2-y,1/2-x,-z
-x,-y,-z
1/2+y,-x,1/2-z
1/2+x,1/2+y,-z
-y,1/2+x,1/2-z
-x,1/2+y,1/2+z
1/2+x,-y,1/2+z
-y,-x,z
1/2+y,1/2+x,z
loop_
_atom_site_type_symbol
_atom_site_label
_atom_site_fract_x
_atom_site_fract_y
_atom_site_fract_z
Si Si1 0.586375 0.734382 0.444799
Si Si2 0.400385 0.446123 0.227568
Si Si3 0.048518 0.691111 0.853138
O O1 0.676335 0.676335 0.500000
O O2 0.598227 0.832877 0.374662
O O3 0.540830 0.666118 0.343849
O O4 0.510967 0.746488 0.549548
O O5 0.460139 0.539862 0.193957
O O6 0.474939 0.371064 0.276745
O O7 0.097643 0.750000 0.750000
O O8 0.120817 0.620817 0.915161
#
# Coordination Sequence:
#
# PCOD9568378 Si02
#       3
#    16  16  16
#     4   9  18  35  58  83 110 141 182 235 286 334
#     4   9  18  35  59  83 108 143 187 233 284 341
#     4  10  21  36  53  76 109 148 185 224 276 338
#
# _framework density 21.312684000000001
#
# number of rings (size 3 to 8) (size 9 to 14) (size 15 to 20)
#    0.000    2.667    0.000    1.000    0.000    7.000 
#    0.000   21.667    0.000   16.000    0.000    0.000 
#    0.000    0.000    0.000    0.000    0.000    0.000 
#
# Total GULP energy -267506.474328 kJ/mol
# GULP energy per Si atom -5573.051549 kJ/mol
# Density = 2.126418 g / cm^3
# Si number density = 21.312684 Si / 1000 Ang^3
#
#
#
# Elastic Constant Matrix: (Units=GPa)
#
#
# Indices 1 2 3 4 5 6 
#
# 1 47.2477 24.9757 19.9441 0.0000 0.0000 0.0000
# 2 24.9757 47.2477 19.9441 0.0000 0.0000 0.0000
# 3 19.9441 19.9441 95.4620 0.0000 0.0000 0.0000
# 4 0.0000 0.0000 0.0000 27.3589 0.0000 0.0000
# 5 0.0000 0.0000 0.0000 0.0000 27.3589 0.0000
# 6 0.0000 0.0000 0.0000 0.0000 0.0000 36.0858
#
#
#
# Elastic Compliance Matrix: (Units=1/GPa)
#
#
# Indices 1 2 3 4 5 6 
#
# 1 0.030276 -0.014624 -0.003270 0.000000 0.000000 0.000000
# 2 -0.014624 0.030276 -0.003270 0.000000 0.000000 0.000000
# 3 -0.003270 -0.003270 0.011842 0.000000 0.000000 0.000000
# 4 0.000000 0.000000 0.000000 0.036551 0.000000 0.000000
# 5 0.000000 0.000000 0.000000 0.000000 0.036551 0.000000
# 6 0.000000 0.000000 0.000000 0.000000 0.000000 0.027712
#
#
# Mechanical properties :
#
#
# Convention : Reuss Voigt Hill
#
# Bulk Modulus (GPa) = 33.26073 35.52057 34.39065
# Shear Modulus (GPa) = 22.16735 26.50026 24.33380
#
# Velocity S-wave (km/s) = 3.22856 3.53002 3.38265
# Velocity P-wave (km/s) = 5.43489 5.77211 5.60604
#
# Compressibility (1/GPa) = 0.03006548
#
# Stress axis : x y z
#
# Youngs Moduli (GPa) = 33.02974 33.02974 84.44709
#
# Poissons Ratio (x) = 0.48302 0.27614
# Poissons Ratio (y) = 0.48302 0.27614
# Poissons Ratio (z) = 0.10801 0.10801
#
# Static dielectric constant tensor:
#      x y z
#    x 1.799110 0.000000 0.000000 
#    y 0.000000 1.799110 0.000000 
#    z 0.000000 0.000000 1.765340 
# 
# From -- ./inp_files/4026.got.cif
#   From: 2010.05.17/outbox.cif.g08.bks.cpg/sg134_3_cif.got.tgz:4026.got - 2010.05.20 12:42:49.
