data_PCOD9568076
_publ_section_title
;
Structure prediction by ZEFSAII (Michael W. Deem and Ramdas Pophale) SiO2 
 PCOD9568076
Probable space group: P 42/N N M
;
_chemical_formula_sum "Si O2"
_cell_formula_units_Z 96
_cell_length_a 18.039244
_cell_length_b 18.039244
_cell_length_c 19.192307
_cell_angle_alpha 90.000000
_cell_angle_beta 90.000000
_cell_angle_gamma 90.000000
_cell_volume 6245.451610
_symmetry_space_group_name_H-M "P 42/N N M"
_symmetry_group_IT_number 134
_space_group.IT_coordinate_system_code '2'
_symmetry_cell_setting 'tetragonal'
loop_
_space_group_symop_operation_xyz
x,y,z
1/2-y,x,1/2+z
1/2-x,1/2-y,z
y,1/2-x,1/2+z
x,1/2-y,1/2-z
1/2-x,y,1/2-z
y,x,-z
1/2-y,1/2-x,-z
-x,-y,-z
1/2+y,-x,1/2-z
1/2+x,1/2+y,-z
-y,1/2+x,1/2-z
-x,1/2+y,1/2+z
1/2+x,-y,1/2+z
-y,-x,z
1/2+y,1/2+x,z
loop_
_atom_site_type_symbol
_atom_site_label
_atom_site_fract_x
_atom_site_fract_y
_atom_site_fract_z
Si Si1 0.291346 0.170565 0.923358
Si Si2 0.059085 0.339843 0.448623
Si Si3 0.373704 0.745386 0.325000
Si Si4 0.837128 0.664491 0.228714
Si Si5 0.056137 0.066285 0.824718
Si Si6 0.833293 0.042328 0.926862
O O1 0.250000 0.250000 0.915501
O O2 0.227750 0.108763 0.923225
O O3 0.341337 0.160005 0.855239
O O4 0.328174 0.171827 0.000000
O O5 0.109811 0.390190 0.500000
O O6 0.033083 0.388365 0.383267
O O7 0.995112 0.315158 0.500479
O O8 0.412510 0.750000 0.250000
O O9 0.331121 0.668880 0.331397
O O10 0.310214 0.810214 0.322841
O O11 0.425354 0.762242 0.388893
O O12 0.852552 0.750000 0.250000
O O13 0.750000 0.650435 0.250000
O O14 0.893488 0.608543 0.267603
O O15 0.011213 0.127575 0.870057
O O16 0.996130 0.003871 0.801483
O O17 0.892953 0.107048 0.939507
#
# Coordination Sequence:
#
# PCOD9568076 Si02
#       6
#    16  16  16  16  16  16
#     4  11  19  31  49  75 104 127 161 201 256 304
#     4  10  17  28  48  70  99 127 153 197 252 305
#     4   8  14  27  45  62  86 123 163 200 235 276
#     4  11  20  33  53  79 101 130 168 215 252 303
#     4  10  20  33  49  73 102 132 165 206 256 304
#     4   9  18  29  43  69  98 124 156 195 243 294
#
# _framework density 15.371186
#
# number of rings (size 3 to 8) (size 9 to 14) (size 15 to 20)
#    0.000    2.167    5.000    1.000    2.333    2.667 
#    0.000    0.000    0.000    1.500    0.000    0.000 
#    0.000    0.333    0.000    0.000    0.000    0.000 
#
# Total GULP energy -534635.780702 kJ/mol
# GULP energy per Si atom -5569.122716 kJ/mol
# Density = 1.533620 g / cm^3
# Si number density = 15.371186 Si / 1000 Ang^3
#
#
#
# Elastic Constant Matrix: (Units=GPa)
#
#
# Indices 1 2 3 4 5 6 
#
# 1 54.1684 39.2339 44.8199 0.0000 0.0000 0.0000
# 2 39.2339 54.1686 44.8199 0.0000 0.0000 0.0000
# 3 44.8199 44.8199 125.9310 0.0000 0.0000 0.0000
# 4 0.0000 0.0000 0.0000 -51.2346 0.0000 0.0000
# 5 0.0000 0.0000 0.0000 0.0000 -51.2160 0.0000
# 6 0.0000 0.0000 0.0000 0.0000 0.0000 19.2943
#
#
#
# Elastic Compliance Matrix: (Units=1/GPa)
#
#
# Indices 1 2 3 4 5 6 
#
# 1 0.041610 -0.025349 -0.005787 0.000000 0.000000 0.000000
# 2 -0.025349 0.041609 -0.005787 0.000000 0.000000 0.000000
# 3 -0.005787 -0.005787 0.012060 0.000000 0.000000 0.000000
# 4 0.000000 0.000000 0.000000 -0.019518 0.000000 0.000000
# 5 0.000000 0.000000 0.000000 0.000000 -0.019525 0.000000
# 6 0.000000 0.000000 0.000000 0.000000 0.000000 0.051829
#
#
# Mechanical properties :
#
#
# Convention : Reuss Voigt Hill
#
# Bulk Modulus (GPa) = 46.65857 54.66840 50.66348
# Shear Modulus (GPa) = 26.44714 -9.60498 8.42108
#
# Velocity S-wave (km/s) = 4.15247 -2.50245 2.34315
# Velocity P-wave (km/s) = 7.30829 5.22427 6.35233
#
# Compressibility (1/GPa) = 0.02143229
#
# Stress axis : x y z
#
# Youngs Moduli (GPa) = 24.03284 24.03299 82.91664
#
# Poissons Ratio (x) = 0.60922 0.47986
# Poissons Ratio (y) = 0.60921 0.47986
# Poissons Ratio (z) = 0.13908 0.13908
#
# Static dielectric constant tensor:
#      x y z
#    x 1.524930 0.000000 0.000000 
#    y 0.000000 1.524930 0.000000 
#    z 0.000000 0.000000 1.529860 
# 
# From -- ./inp_files/7885.got.cif
#   From: 2010.05.17/outbox.cif.g08.bks.cpg/sg134_4_cif.got.tgz:7885.got - 2010.05.20 12:42:49.
