data_PCOD9568791
_publ_section_title
;
Structure prediction by ZEFSAII (Michael W. Deem and Ramdas Pophale) SiO2 
 PCOD9568791
Probable space group: P 42/M B C
;
_chemical_formula_sum "Si O2"
_cell_formula_units_Z 96
_cell_length_a 24.283556
_cell_length_b 24.283556
_cell_length_c 8.623418
_cell_angle_alpha 90.000000
_cell_angle_beta 90.000000
_cell_angle_gamma 90.000000
_cell_volume 5085.152777
_symmetry_space_group_name_H-M "P 42/M B C"
_symmetry_group_IT_number 135
_symmetry_cell_setting 'tetragonal'
loop_
_space_group_symop_operation_xyz
x,y,z
-y,x,1/2+z
-x,-y,z
y,-x,1/2+z
1/2+x,1/2-y,-z
1/2-x,1/2+y,-z
1/2+y,1/2+x,1/2-z
1/2-y,1/2-x,1/2-z
-x,-y,-z
y,-x,1/2-z
x,y,-z
-y,x,1/2-z
1/2-x,1/2+y,z
1/2+x,1/2-y,z
1/2-y,1/2-x,1/2+z
1/2+y,1/2+x,1/2+z
loop_
_atom_site_type_symbol
_atom_site_label
_atom_site_fract_x
_atom_site_fract_y
_atom_site_fract_z
Si Si1 0.900815 0.102450 0.176266
Si Si2 0.511228 0.225822 0.811593
Si Si3 0.186071 0.602032 0.814970
Si Si4 0.773733 0.641522 0.313629
Si Si5 0.830435 0.210431 0.822745
Si Si6 0.495935 0.652892 0.183287
O O1 0.877327 0.163769 0.171261
O O2 0.962065 0.107196 0.242568
O O3 0.863136 0.065736 0.282403
O O4 0.899435 0.080305 0.000000
O O5 0.460962 0.189582 0.747260
O O6 0.576395 0.222030 0.768275
O O7 0.494226 0.286698 0.754350
O O8 0.509526 0.223282 0.000000
O O9 0.132072 0.632072 0.750000
O O10 0.237261 0.641170 0.758785
O O11 0.186341 0.601275 0.000000
O O12 0.827146 0.672855 0.250000
O O13 0.771099 0.643089 0.500000
O O14 0.721829 0.678005 0.250940
O O15 0.815552 0.226122 0.000000
O O16 0.505683 0.654805 0.000000
#
# Coordination Sequence:
#
# PCOD9568791 Si02
#       6
#    16  16  16  16  16  16
#     4  10  21  35  54  79 109 149 194 245 291 336
#     4  10  21  40  62  85 117 154 192 238 292 349
#     4  12  25  40  62  90 121 156 196 240 294 353
#     4  11  23  39  61  90 123 157 195 240 293 351
#     4  11  21  37  59  86 122 156 196 245 295 349
#     4  10  20  37  56  77 110 150 197 244 288 339
#
# _framework density 18.878487
#
# number of rings (size 3 to 8) (size 9 to 14) (size 15 to 20)
#    0.000    1.333    3.333    3.000    0.000    3.667 
#    0.000    1.667    0.000    0.500    0.000    3.500 
#    0.000    0.000    0.000    0.000    0.000    0.000 
#
# Total GULP energy -535081.726948 kJ/mol
# GULP energy per Si atom -5573.767989 kJ/mol
# Density = 1.883552 g / cm^3
# Si number density = 18.878487 Si / 1000 Ang^3
#
#
#
# Elastic Constant Matrix: (Units=GPa)
#
#
# Indices 1 2 3 4 5 6 
#
# 1 71.8179 52.0446 29.4811 0.0000 0.0000 0.0000
# 2 52.0446 71.8238 29.4782 0.0000 0.0000 0.0000
# 3 29.4811 29.4782 63.2212 0.0000 0.0000 0.0000
# 4 0.0000 0.0000 0.0000 44.4055 0.0000 0.0000
# 5 0.0000 0.0000 0.0000 0.0000 44.4084 0.0000
# 6 0.0000 0.0000 0.0000 0.0000 0.0000 28.3293
#
#
#
# Elastic Compliance Matrix: (Units=1/GPa)
#
#
# Indices 1 2 3 4 5 6 
#
# 1 0.030473 -0.020095 -0.004841 0.000000 0.000000 0.000000
# 2 -0.020095 0.030469 -0.004836 0.000000 0.000000 0.000000
# 3 -0.004841 -0.004836 0.020330 0.000000 0.000000 0.000000
# 4 0.000000 0.000000 0.000000 0.022520 0.000000 0.000000
# 5 0.000000 0.000000 0.000000 0.000000 0.022518 0.000000
# 6 0.000000 0.000000 0.000000 0.000000 0.000000 0.035299
#
#
# Mechanical properties :
#
#
# Convention : Reuss Voigt Hill
#
# Bulk Modulus (GPa) = 46.02205 47.65232 46.83718
# Shear Modulus (GPa) = 21.89189 29.81922 25.85555
#
# Velocity S-wave (km/s) = 3.40901 3.97865 3.70480
# Velocity P-wave (km/s) = 6.31871 6.81194 6.56996
#
# Compressibility (1/GPa) = 0.02172872
#
# Stress axis : x y z
#
# Youngs Moduli (GPa) = 32.81557 32.82047 49.18903
#
# Poissons Ratio (x) = 0.65952 0.23811
# Poissons Ratio (y) = 0.65942 0.23789
# Poissons Ratio (z) = 0.15885 0.15873
#
# Static dielectric constant tensor:
#      x y z
#    x 1.687860 0.000000 0.000000 
#    y 0.000000 1.687860 0.000000 
#    z 0.000000 0.000000 1.693040 
# 
# From -- ./inp_files/1257.got.cif
#   From: 2010.05.17/outbox.cif.g08.bks.cpg/sg135_1_cif.got.tgz:1257.got - 2010.05.20 12:50:20.
