data_PCOD9568719
_publ_section_title
;
Structure prediction by ZEFSAII (Michael W. Deem and Ramdas Pophale) SiO2 
 PCOD9568719
Probable space group: P 42/M B C
;
_chemical_formula_sum "Si O2"
_cell_formula_units_Z 112
_cell_length_a 13.725006
_cell_length_b 13.725006
_cell_length_c 29.690039
_cell_angle_alpha 90.000000
_cell_angle_beta 90.000000
_cell_angle_gamma 90.000000
_cell_volume 5592.884543
_symmetry_space_group_name_H-M "P 42/M B C"
_symmetry_group_IT_number 135
_symmetry_cell_setting 'tetragonal'
loop_
_space_group_symop_operation_xyz
x,y,z
-y,x,1/2+z
-x,-y,z
y,-x,1/2+z
1/2+x,1/2-y,-z
1/2-x,1/2+y,-z
1/2+y,1/2+x,1/2-z
1/2-y,1/2-x,1/2-z
-x,-y,-z
y,-x,1/2-z
x,y,-z
-y,x,1/2-z
1/2-x,1/2+y,z
1/2+x,1/2-y,z
1/2-y,1/2-x,1/2+z
1/2+y,1/2+x,1/2+z
loop_
_atom_site_type_symbol
_atom_site_label
_atom_site_fract_x
_atom_site_fract_y
_atom_site_fract_z
Si Si1 0.083210 0.166602 0.051957
Si Si2 0.838207 0.338207 0.750000
Si Si3 0.624451 0.167421 0.449473
Si Si4 0.006930 0.811158 0.394555
Si Si5 0.000000 0.500000 0.410818
Si Si6 0.665949 0.435631 0.365457
Si Si7 0.440819 0.363194 0.766149
Si Si8 0.646836 0.873138 0.149457
O O1 0.153016 0.260552 0.055791
O O2 0.002400 0.179234 0.090725
O O3 0.140372 0.069362 0.065684
O O4 0.047764 0.163034 0.000000
O O5 0.724436 0.368585 0.747380
O O6 0.882634 0.373616 0.702664
O O7 0.604981 0.201629 0.500000
O O8 0.573138 0.238592 0.414930
O O9 0.572000 0.064226 0.441036
O O10 0.940485 0.889016 0.369826
O O11 0.081365 0.751025 0.363523
O O12 0.933642 0.431039 0.379622
O O13 0.663378 0.482572 0.315756
O O14 0.758896 0.363184 0.363062
O O15 0.381642 0.464877 0.764885
#
# Coordination Sequence:
#
# PCOD9568719 Si02
#       8
#    16   8  16  16   8  16  16  16
#     4  11  24  40  62  92 127 165 206 260 316 373
#     4  10  22  41  60  95 132 158 212 266 320 380
#     4  10  21  39  61  87 120 162 212 254 303 373
#     4  11  23  38  64  89 124 165 205 260 314 371
#     4  10  19  39  62  88 118 164 206 251 313 370
#     4  11  23  41  62  91 127 162 205 264 312 374
#     4  10  23  41  67  95 122 169 216 258 319 388
#     4  10  22  40  62  91 123 164 208 260 315 379
#
# _framework density 20.025445000000001
#
# number of rings (size 3 to 8) (size 9 to 14) (size 15 to 20)
#    0.000    1.571    1.429    2.786    6.000    2.000 
#    0.000    3.571    0.000    0.000    0.000    0.000 
#    0.000    0.000    0.000    0.000    0.000    0.000 
#
# Total GULP energy -624800.357246 kJ/mol
# GULP energy per Si atom -5578.574618 kJ/mol
# Density = 1.997987 g / cm^3
# Si number density = 20.025445 Si / 1000 Ang^3
#
#
#
# Elastic Constant Matrix: (Units=GPa)
#
#
# Indices 1 2 3 4 5 6 
#
# 1 53.7925 5.2549 13.5220 0.0000 0.0000 0.0000
# 2 5.2549 53.7925 13.5220 0.0000 0.0000 0.0000
# 3 13.5220 13.5220 118.1906 0.0000 0.0000 0.0000
# 4 0.0000 0.0000 0.0000 19.6967 0.0000 0.0000
# 5 0.0000 0.0000 0.0000 0.0000 19.6967 0.0000
# 6 0.0000 0.0000 0.0000 0.0000 0.0000 21.7548
#
#
#
# Elastic Compliance Matrix: (Units=1/GPa)
#
#
# Indices 1 2 3 4 5 6 
#
# 1 0.019237 -0.001365 -0.002045 0.000000 0.000000 0.000000
# 2 -0.001365 0.019237 -0.002045 0.000000 0.000000 0.000000
# 3 -0.002045 -0.002045 0.008929 0.000000 0.000000 0.000000
# 4 0.000000 0.000000 0.000000 0.050770 0.000000 0.000000
# 5 0.000000 0.000000 0.000000 0.000000 0.050770 0.000000
# 6 0.000000 0.000000 0.000000 0.000000 0.000000 0.045967
#
#
# Mechanical properties :
#
#
# Convention : Reuss Voigt Hill
#
# Bulk Modulus (GPa) = 27.40174 32.26369 29.83271
# Shear Modulus (GPa) = 22.93745 25.12809 24.03277
#
# Velocity S-wave (km/s) = 3.38807 3.54617 3.46802
# Velocity P-wave (km/s) = 5.38688 5.73702 5.56471
#
# Compressibility (1/GPa) = 0.03649404
#
# Stress axis : x y z
#
# Youngs Moduli (GPa) = 51.98228 51.98228 111.99752
#
# Poissons Ratio (x) = 0.07097 0.22900
# Poissons Ratio (y) = 0.07097 0.22900
# Poissons Ratio (z) = 0.10629 0.10629
#
# Static dielectric constant tensor:
#      x y z
#    x 1.709410 0.000000 0.000000 
#    y 0.000000 1.709410 0.000000 
#    z 0.000000 0.000000 1.702080 
# 
# From -- ./inp_files/6554.got.cif
#   From: 2010.05.17/outbox.cif.g08.bks.cpg/sg135_4_cif.got.tgz:6554.got - 2010.05.20 12:50:20.
