data_PCOD9568479
_publ_section_title
;
Structure prediction by ZEFSAII (Michael W. Deem and Ramdas Pophale) SiO2 
 PCOD9568479
Probable space group: P 42/N N M
;
_chemical_formula_sum "Si O2"
_cell_formula_units_Z 50
_cell_length_a 21.744375
_cell_length_b 21.744375
_cell_length_c 5.261997
_cell_angle_alpha 90.000000
_cell_angle_beta 90.000000
_cell_angle_gamma 90.000000
_cell_volume 2487.966077
_symmetry_space_group_name_H-M "P 42/N N M"
_symmetry_group_IT_number 134
_space_group.IT_coordinate_system_code '2'
_symmetry_cell_setting 'tetragonal'
loop_
_space_group_symop_operation_xyz
x,y,z
1/2-y,x,1/2+z
1/2-x,1/2-y,z
y,1/2-x,1/2+z
x,1/2-y,1/2-z
1/2-x,y,1/2-z
y,x,-z
1/2-y,1/2-x,-z
-x,-y,-z
1/2+y,-x,1/2-z
1/2+x,1/2+y,-z
-y,1/2+x,1/2-z
-x,1/2+y,1/2+z
1/2+x,-y,1/2+z
-y,-x,z
1/2+y,1/2+x,z
loop_
_atom_site_type_symbol
_atom_site_label
_atom_site_fract_x
_atom_site_fract_y
_atom_site_fract_z
Si Si1 0.046114 0.953887 0.322074
Si Si2 0.431689 0.120836 0.739945
Si Si3 0.485580 0.250000 0.750000
Si Si4 0.250000 0.565786 0.750000
Si Si5 0.750000 0.250000 0.750000
Si Si6 0.149491 0.649491 0.985506
O O1 0.098460 0.901541 0.405192
O O2 0.995946 0.913507 0.176732
O O3 0.000000 0.000000 0.500000
O O4 0.388523 0.111478 0.500000
O O5 0.445358 0.190790 0.794628
O O6 0.406936 0.093064 0.000000
O O7 0.526333 0.238475 0.501196
O O8 0.192874 0.608198 0.814050
O O9 0.801294 0.198707 0.630299
#
# Coordination Sequence:
#
# PCOD9568479 Si02
#       6
#     8  16   8   8   2   8
#     4  10  23  41  64 105 138 186 237 298 368 419
#     4  11  24  44  68 101 139 177 231 292 363 437
#     4  12  25  44  72 102 136 185 230 292 366 428
#     4  12  26  43  68 102 138 195 240 290 350 422
#     4  12  28  50  68 110 148 218 264 294 364 434
#     4  12  25  46  69 100 155 192 256 302 354 439
#
# _framework density 20.096734999999999
#
# number of rings (size 3 to 8) (size 9 to 14) (size 15 to 20)
#    0.000    0.640    3.200    4.320    4.480    2.560 
#    0.000    0.000    0.000    2.880    0.000    0.000 
#    0.000    0.000    0.000    0.000    0.000    0.000 
#
# Total GULP energy -278343.319287 kJ/mol
# GULP energy per Si atom -5566.866386 kJ/mol
# Density = 2.005099 g / cm^3
# Si number density = 20.096735 Si / 1000 Ang^3
#
#
#
# Elastic Constant Matrix: (Units=GPa)
#
#
# Indices 1 2 3 4 5 6 
#
# 1 149.4791 43.6072 42.1478 0.0000 0.0000 0.0000
# 2 43.6072 149.4799 42.1472 0.0000 0.0000 0.0000
# 3 42.1478 42.1472 109.9646 0.0000 0.0000 0.0000
# 4 0.0000 0.0000 0.0000 84.5832 0.0000 0.0000
# 5 0.0000 0.0000 0.0000 0.0000 84.5782 0.0000
# 6 0.0000 0.0000 0.0000 0.0000 0.0000 60.3069
#
#
#
# Elastic Compliance Matrix: (Units=1/GPa)
#
#
# Indices 1 2 3 4 5 6 
#
# 1 0.007833 -0.001613 -0.002384 0.000000 0.000000 0.000000
# 2 -0.001613 0.007833 -0.002384 0.000000 0.000000 0.000000
# 3 -0.002384 -0.002384 0.010921 0.000000 0.000000 0.000000
# 4 0.000000 0.000000 0.000000 0.011823 0.000000 0.000000
# 5 0.000000 0.000000 0.000000 0.000000 0.011823 0.000000
# 6 0.000000 0.000000 0.000000 0.000000 0.000000 0.016582
#
#
# Mechanical properties :
#
#
# Convention : Reuss Voigt Hill
#
# Bulk Modulus (GPa) = 72.33223 73.85864 73.09544
# Shear Modulus (GPa) = 59.39377 64.62842 62.01110
#
# Velocity S-wave (km/s) = 5.44225 5.67701 5.56087
# Velocity P-wave (km/s) = 8.69258 8.93323 8.81373
#
# Compressibility (1/GPa) = 0.01382510
#
# Stress axis : x y z
#
# Youngs Moduli (GPa) = 127.67172 127.67300 91.56445
#
# Poissons Ratio (x) = 0.20591 0.21829
# Poissons Ratio (y) = 0.20591 0.21828
# Poissons Ratio (z) = 0.30436 0.30436
#
# Static dielectric constant tensor:
#      x y z
#    x 1.734400 0.000000 0.000000 
#    y 0.000000 1.734400 0.000000 
#    z 0.000000 0.000000 1.733110 
# 
# From -- ./inp_files/731.got.cif
#   From: 2010.05.17/outbox.cif.g08.bks.cpg/sg134_1_cif.got.tgz:731.got - 2010.05.20 12:42:49.
