data_PCOD9568904
_publ_section_title
;
Structure prediction by ZEFSAII (Michael W. Deem and Ramdas Pophale) SiO2 
 PCOD9568904
Probable space group: P 42/M B C
;
_chemical_formula_sum "Si O2"
_cell_formula_units_Z 64
_cell_length_a 10.628580
_cell_length_b 10.628580
_cell_length_c 24.386226
_cell_angle_alpha 90.000000
_cell_angle_beta 90.000000
_cell_angle_gamma 90.000000
_cell_volume 2754.831789
_symmetry_space_group_name_H-M "P 42/M B C"
_symmetry_group_IT_number 135
_symmetry_cell_setting 'tetragonal'
loop_
_space_group_symop_operation_xyz
x,y,z
-y,x,1/2+z
-x,-y,z
y,-x,1/2+z
1/2+x,1/2-y,-z
1/2-x,1/2+y,-z
1/2+y,1/2+x,1/2-z
1/2-y,1/2-x,1/2-z
-x,-y,-z
y,-x,1/2-z
x,y,-z
-y,x,1/2-z
1/2-x,1/2+y,z
1/2+x,1/2-y,z
1/2-y,1/2-x,1/2+z
1/2+y,1/2+x,1/2+z
loop_
_atom_site_type_symbol
_atom_site_label
_atom_site_fract_x
_atom_site_fract_y
_atom_site_fract_z
Si Si1 0.914472 0.392093 0.345675
Si Si2 0.989006 0.208935 0.438127
Si Si3 0.351713 0.585031 0.782803
Si Si4 0.011957 0.166641 0.893958
O O1 0.990100 0.316914 0.392788
O O2 0.874401 0.286468 0.301899
O O3 0.800348 0.459187 0.376636
O O4 0.000000 0.500000 0.320049
O O5 0.007433 0.252236 0.500000
O O6 0.855838 0.132671 0.432897
O O7 0.590791 0.396679 0.421043
O O8 0.438023 0.651471 0.736212
O O9 0.432770 0.610256 0.837362
#
# Coordination Sequence:
#
# PCOD9568904 Si02
#       4
#    16  16  16  16
#     4  11  26  44  70 104 146 176 225 301 347 401
#     4  10  22  42  72  99 136 194 236 276 344 415
#     4  10  21  46  72  95 129 182 232 282 354 424
#     4  10  22  44  69  99 139 180 227 289 353 403
#
# _framework density 23.231908000000001
#
# number of rings (size 3 to 8) (size 9 to 14) (size 15 to 20)
#    0.000    1.750    0.000    7.500    7.000    3.500 
#    4.500    1.250    0.000    0.000    0.000    0.000 
#    0.000    0.000    0.000    0.000    0.000    0.000 
#
# Total GULP energy -357143.213513 kJ/mol
# GULP energy per Si atom -5580.362711 kJ/mol
# Density = 2.317903 g / cm^3
# Si number density = 23.231908 Si / 1000 Ang^3
#
#
#
# Elastic Constant Matrix: (Units=GPa)
#
#
# Indices 1 2 3 4 5 6 
#
# 1 56.5130 -0.0854 -6.5638 0.0000 0.0000 0.0000
# 2 -0.0854 56.5130 -6.5638 0.0000 0.0000 0.0000
# 3 -6.5638 -6.5638 125.0779 0.0000 0.0000 0.0000
# 4 0.0000 0.0000 0.0000 13.7956 0.0000 0.0000
# 5 0.0000 0.0000 0.0000 0.0000 13.7956 0.0000
# 6 0.0000 0.0000 0.0000 0.0000 0.0000 20.9673
#
#
#
# Elastic Compliance Matrix: (Units=1/GPa)
#
#
# Indices 1 2 3 4 5 6 
#
# 1 0.017805 0.000136 0.000941 0.000000 0.000000 0.000000
# 2 0.000136 0.017805 0.000941 0.000000 0.000000 0.000000
# 3 0.000941 0.000941 0.008094 0.000000 0.000000 0.000000
# 4 0.000000 0.000000 0.000000 0.072487 0.000000 0.000000
# 5 0.000000 0.000000 0.000000 0.000000 0.072487 0.000000
# 6 0.000000 0.000000 0.000000 0.000000 0.000000 0.047693
#
#
# Mechanical properties :
#
#
# Convention : Reuss Voigt Hill
#
# Bulk Modulus (GPa) = 20.94613 23.51977 22.23295
# Shear Modulus (GPa) = 20.14140 26.46618 23.30379
#
# Velocity S-wave (km/s) = 2.94763 3.37889 3.17060
# Velocity P-wave (km/s) = 4.54097 5.03671 4.79525
#
# Compressibility (1/GPa) = 0.04774152
#
# Stress axis : x y z
#
# Youngs Moduli (GPa) = 56.16527 56.16527 123.55086
#
# Poissons Ratio (x) = -0.00765 -0.11632
# Poissons Ratio (y) = -0.00765 -0.11632
# Poissons Ratio (z) = -0.05288 -0.05288
#
# Static dielectric constant tensor:
#      x y z
#    x 1.874360 0.000000 0.000000 
#    y 0.000000 1.874360 0.000000 
#    z 0.000000 0.000000 1.885110 
# 
# From -- ./inp_files/5884.got.cif
#   From: 2010.05.17/outbox.cif.g08.bks.cpg/sg135_3_cif.got.tgz:5884.got - 2010.05.20 12:50:20.
