data_PCOD9568344
_publ_section_title
;
Structure prediction by ZEFSAII (Michael W. Deem and Ramdas Pophale) SiO2 
 PCOD9568344
Probable space group: P 42/N N M
;
_chemical_formula_sum "Si O2"
_cell_formula_units_Z 64
_cell_length_a 11.381601
_cell_length_b 11.381601
_cell_length_c 22.117340
_cell_angle_alpha 90.000000
_cell_angle_beta 90.000000
_cell_angle_gamma 90.000000
_cell_volume 2865.098831
_symmetry_space_group_name_H-M "P 42/N N M"
_symmetry_group_IT_number 134
_space_group.IT_coordinate_system_code '2'
_symmetry_cell_setting 'tetragonal'
loop_
_space_group_symop_operation_xyz
x,y,z
1/2-y,x,1/2+z
1/2-x,1/2-y,z
y,1/2-x,1/2+z
x,1/2-y,1/2-z
1/2-x,y,1/2-z
y,x,-z
1/2-y,1/2-x,-z
-x,-y,-z
1/2+y,-x,1/2-z
1/2+x,1/2+y,-z
-y,1/2+x,1/2-z
-x,1/2+y,1/2+z
1/2+x,-y,1/2+z
-y,-x,z
1/2+y,1/2+x,z
loop_
_atom_site_type_symbol
_atom_site_label
_atom_site_fract_x
_atom_site_fract_y
_atom_site_fract_z
Si Si1 0.195875 0.007260 0.517151
Si Si2 0.436831 0.738916 0.107723
Si Si3 0.943792 0.244160 0.150000
Si Si4 0.352546 0.320896 0.687067
O O1 0.094843 0.905158 0.519139
O O2 0.278597 0.981843 0.460265
O O3 0.257876 0.997487 0.581968
O O4 0.125596 0.125596 0.500000
O O5 0.381122 0.618879 0.133005
O O6 0.332557 0.832557 0.103014
O O7 0.531877 0.802790 0.148693
O O8 0.880082 0.119919 0.165837
O O9 0.839257 0.339257 0.150205
O O10 0.047357 0.302822 0.189762
O O11 0.250000 0.250000 0.653571
O O12 0.369283 0.250000 0.750000
#
# Coordination Sequence:
#
# PCOD9568344 Si02
#       4
#    16  16  16  16
#     4   9  15  29  59  96 133 167 203 259 325 394
#     4  10  20  36  62  96 130 165 209 259 318 395
#     4  10  20  38  67  97 124 162 219 280 334 396
#     4  11  25  43  60  82 121 171 216 271 331 394
#
# _framework density 22.337799
#
# number of rings (size 3 to 8) (size 9 to 14) (size 15 to 20)
#    0.000    2.000    2.500    1.500    0.000    6.000 
#    0.000   11.250    0.000    9.000    0.000    0.000 
#    0.000    0.000    0.000    0.000    0.000    0.000 
#
# Total GULP energy -356803.440230 kJ/mol
# GULP energy per Si atom -5575.053754 kJ/mol
# Density = 2.228696 g / cm^3
# Si number density = 22.337799 Si / 1000 Ang^3
#
#
#
# Elastic Constant Matrix: (Units=GPa)
#
#
# Indices 1 2 3 4 5 6 
#
# 1 94.9232 55.1692 44.4030 0.0000 0.0000 0.0000
# 2 55.1692 94.9232 44.4030 0.0000 0.0000 0.0000
# 3 44.4030 44.4030 117.3257 0.0000 0.0000 0.0000
# 4 0.0000 0.0000 0.0000 20.3762 0.0000 0.0000
# 5 0.0000 0.0000 0.0000 0.0000 20.3762 0.0000
# 6 0.0000 0.0000 0.0000 0.0000 0.0000 34.4410
#
#
#
# Elastic Compliance Matrix: (Units=1/GPa)
#
#
# Indices 1 2 3 4 5 6 
#
# 1 0.016870 -0.008285 -0.003249 0.000000 0.000000 0.000000
# 2 -0.008285 0.016870 -0.003249 0.000000 0.000000 0.000000
# 3 -0.003249 -0.003249 0.010983 0.000000 0.000000 0.000000
# 4 0.000000 0.000000 0.000000 0.049077 0.000000 0.000000
# 5 0.000000 0.000000 0.000000 0.000000 0.049077 0.000000
# 6 0.000000 0.000000 0.000000 0.000000 0.000000 0.029035
#
#
# Mechanical properties :
#
#
# Convention : Reuss Voigt Hill
#
# Bulk Modulus (GPa) = 65.97947 66.12473 66.05210
# Shear Modulus (GPa) = 24.20962 25.91844 25.06403
#
# Velocity S-wave (km/s) = 3.29568 3.41001 3.35333
# Velocity P-wave (km/s) = 6.63952 6.72091 6.68034
#
# Compressibility (1/GPa) = 0.01515623
#
# Stress axis : x y z
#
# Youngs Moduli (GPa) = 59.27736 59.27736 91.05355
#
# Poissons Ratio (x) = 0.49111 0.29584
# Poissons Ratio (y) = 0.49111 0.29584
# Poissons Ratio (z) = 0.19260 0.19260
#
# Static dielectric constant tensor:
#      x y z
#    x 1.830830 0.000000 0.000000 
#    y 0.000000 1.830830 0.000000 
#    z 0.000000 0.000000 1.842550 
# 
# From -- ./inp_files/9794.got.cif
#   From: 2010.05.17/outbox.cif.g08.bks.cpg/sg134_5_cif.got.tgz:9794.got - 2010.05.20 12:42:49.
