data_PCOD9568534
_publ_section_title
;
Structure prediction by ZEFSAII (Michael W. Deem and Ramdas Pophale) SiO2 
 PCOD9568534
Probable space group: P 42/N N M
;
_chemical_formula_sum "Si O2"
_cell_formula_units_Z 50
_cell_length_a 17.209926
_cell_length_b 17.209926
_cell_length_c 8.110289
_cell_angle_alpha 90.000000
_cell_angle_beta 90.000000
_cell_angle_gamma 90.000000
_cell_volume 2402.117991
_symmetry_space_group_name_H-M "P 42/N N M"
_symmetry_group_IT_number 134
_space_group.IT_coordinate_system_code '2'
_symmetry_cell_setting 'tetragonal'
loop_
_space_group_symop_operation_xyz
x,y,z
1/2-y,x,1/2+z
1/2-x,1/2-y,z
y,1/2-x,1/2+z
x,1/2-y,1/2-z
1/2-x,y,1/2-z
y,x,-z
1/2-y,1/2-x,-z
-x,-y,-z
1/2+y,-x,1/2-z
1/2+x,1/2+y,-z
-y,1/2+x,1/2-z
-x,1/2+y,1/2+z
1/2+x,-y,1/2+z
-y,-x,z
1/2+y,1/2+x,z
loop_
_atom_site_type_symbol
_atom_site_label
_atom_site_fract_x
_atom_site_fract_y
_atom_site_fract_z
Si Si1 0.246766 0.373116 0.946818
Si Si2 0.250000 0.750000 0.750000
Si Si3 0.634648 0.365353 0.159228
Si Si4 0.064148 0.935853 0.550647
Si Si5 0.957632 0.258514 0.937315
O O1 0.250000 0.385129 0.750000
O O2 0.310929 0.310929 0.000000
O O3 0.164656 0.335345 0.000000
O O4 0.263150 0.452492 0.040073
O O5 0.184565 0.684565 0.794195
O O6 0.576789 0.423212 0.252918
O O7 0.589911 0.302068 0.049565
O O8 0.150766 0.955181 0.486801
O O9 0.000000 0.000000 0.500000
O O10 0.930711 0.250000 0.750000
#
# Coordination Sequence:
#
# PCOD9568534 Si02
#       5
#    16   2   8   8  16
#     4  11  22  40  64  93 130 177 224 274 332 399
#     4  12  20  44  74  92 124 172 226 264 316 412
#     4  12  23  44  72  96 132 179 226 272 337 399
#     4  12  25  44  68 100 133 173 224 280 334 391
#     4  12  25  43  66  99 134 174 222 277 333 401
#
# _framework density 20.814962000000001
#
# number of rings (size 3 to 8) (size 9 to 14) (size 15 to 20)
#    0.000    0.320    3.200    7.680    0.000    2.560 
#    0.000    4.000    0.000    0.000    0.000    0.000 
#    0.000    0.000    0.000    0.000    0.000    0.000 
#
# Total GULP energy -278924.017373 kJ/mol
# GULP energy per Si atom -5578.480347 kJ/mol
# Density = 2.076759 g / cm^3
# Si number density = 20.814962 Si / 1000 Ang^3
#
#
#
# Elastic Constant Matrix: (Units=GPa)
#
#
# Indices 1 2 3 4 5 6 
#
# 1 119.7728 73.5608 27.6145 0.0000 0.0000 0.0000
# 2 73.5608 119.7714 27.6128 0.0000 0.0000 0.0000
# 3 27.6145 27.6128 113.0419 0.0000 0.0000 0.0000
# 4 0.0000 0.0000 0.0000 10.2871 0.0000 0.0000
# 5 0.0000 0.0000 0.0000 0.0000 10.2927 0.0000
# 6 0.0000 0.0000 0.0000 0.0000 0.0000 38.3185
#
#
#
# Elastic Compliance Matrix: (Units=1/GPa)
#
#
# Indices 1 2 3 4 5 6 
#
# 1 0.013600 -0.008040 -0.001358 0.000000 0.000000 0.000000
# 2 -0.008040 0.013600 -0.001358 0.000000 0.000000 0.000000
# 3 -0.001358 -0.001358 0.009510 0.000000 0.000000 0.000000
# 4 0.000000 0.000000 0.000000 0.097210 0.000000 0.000000
# 5 0.000000 0.000000 0.000000 0.000000 0.097156 0.000000
# 6 0.000000 0.000000 0.000000 0.000000 0.000000 0.026097
#
#
# Mechanical properties :
#
#
# Convention : Reuss Voigt Hill
#
# Bulk Modulus (GPa) = 65.79997 67.79583 66.79790
# Shear Modulus (GPa) = 17.62106 26.69951 22.16029
#
# Velocity S-wave (km/s) = 2.91272 3.58538 3.26641
# Velocity P-wave (km/s) = 6.55686 7.05559 6.81079
#
# Compressibility (1/GPa) = 0.01519758
#
# Stress axis : x y z
#
# Youngs Moduli (GPa) = 73.52915 73.52875 105.15379
#
# Poissons Ratio (x) = 0.59115 0.14285
# Poissons Ratio (y) = 0.59115 0.14281
# Poissons Ratio (z) = 0.09989 0.09986
#
# Static dielectric constant tensor:
#      x y z
#    x 1.740350 0.000000 0.000000 
#    y 0.000000 1.740360 0.000000 
#    z 0.000000 0.000000 1.775150 
# 
# From -- ./inp_files/2283.got.cif
#   From: 2010.05.17/outbox.cif.g08.bks.cpg/sg134_2_cif.got.tgz:2283.got - 2010.05.20 12:42:49.
