data_PCOD9568635
_publ_section_title
;
Structure prediction by ZEFSAII (Michael W. Deem and Ramdas Pophale) SiO2 
 PCOD9568635
Probable space group: P 42/M B C
;
_chemical_formula_sum "Si O2"
_cell_formula_units_Z 88
_cell_length_a 16.273851
_cell_length_b 16.273851
_cell_length_c 14.990643
_cell_angle_alpha 90.000000
_cell_angle_beta 90.000000
_cell_angle_gamma 90.000000
_cell_volume 3970.095304
_symmetry_space_group_name_H-M "P 42/M B C"
_symmetry_group_IT_number 135
_symmetry_cell_setting 'tetragonal'
loop_
_space_group_symop_operation_xyz
x,y,z
-y,x,1/2+z
-x,-y,z
y,-x,1/2+z
1/2+x,1/2-y,-z
1/2-x,1/2+y,-z
1/2+y,1/2+x,1/2-z
1/2-y,1/2-x,1/2-z
-x,-y,-z
y,-x,1/2-z
x,y,-z
-y,x,1/2-z
1/2-x,1/2+y,z
1/2+x,1/2-y,z
1/2-y,1/2-x,1/2+z
1/2+y,1/2+x,1/2+z
loop_
_atom_site_type_symbol
_atom_site_label
_atom_site_fract_x
_atom_site_fract_y
_atom_site_fract_z
Si Si1 0.603777 0.434140 0.735049
Si Si2 0.790122 0.640048 0.601495
Si Si3 0.085693 0.414308 0.250000
Si Si4 0.208553 0.911164 0.905129
Si Si5 0.157128 0.757478 0.319702
Si Si6 0.963320 0.357290 0.399197
O O1 0.525979 0.413515 0.799620
O O2 0.589172 0.361914 0.665478
O O3 0.695019 0.417005 0.770141
O O4 0.799666 0.606348 0.500000
O O5 0.835477 0.590030 0.681439
O O6 0.836620 0.727816 0.602694
O O7 0.698554 0.669585 0.623198
O O8 0.093527 0.490756 0.180598
O O9 0.272403 0.985751 0.904340
O O10 0.166367 0.907700 0.000000
O O11 0.223758 0.723758 0.250000
O O12 0.125517 0.676827 0.371538
O O13 0.965444 0.393898 0.500000
#
# Coordination Sequence:
#
# PCOD9568635 Si02
#       6
#    16  16   8  16  16  16
#     4  11  22  37  57  83 121 166 199 243 306 378
#     4  10  19  32  58  90 119 157 206 256 302 367
#     4  10  18  38  63  86 118 163 200 248 316 368
#     4   9  17  35  56  82 120 155 194 249 304 357
#     4  12  21  36  61  88 123 159 206 257 312 366
#     4  10  21  37  63  93 122 157 205 258 314 377
#
# _framework density 22.165713
#
# number of rings (size 3 to 8) (size 9 to 14) (size 15 to 20)
#    0.000    1.636    4.545    3.273    0.000    0.000 
#    0.000    4.091    0.000    5.455    0.000    0.000 
#    0.000    0.000    0.000    0.000    0.000    0.000 
#
# Total GULP energy -489893.123774 kJ/mol
# GULP energy per Si atom -5566.967316 kJ/mol
# Density = 2.211526 g / cm^3
# Si number density = 22.165713 Si / 1000 Ang^3
#
#
#
# Elastic Constant Matrix: (Units=GPa)
#
#
# Indices 1 2 3 4 5 6 
#
# 1 37.4075 6.1673 19.4551 0.0000 0.0000 0.0000
# 2 6.1673 37.4082 19.4559 0.0000 0.0000 0.0000
# 3 19.4551 19.4559 128.1678 0.0000 0.0000 0.0000
# 4 0.0000 0.0000 0.0000 24.8788 0.0000 0.0000
# 5 0.0000 0.0000 0.0000 0.0000 24.8791 0.0000
# 6 0.0000 0.0000 0.0000 0.0000 0.0000 19.8748
#
#
#
# Elastic Compliance Matrix: (Units=1/GPa)
#
#
# Indices 1 2 3 4 5 6 
#
# 1 0.029279 -0.002731 -0.004030 0.000000 0.000000 0.000000
# 2 -0.002731 0.029278 -0.004030 0.000000 0.000000 0.000000
# 3 -0.004030 -0.004030 0.009026 0.000000 0.000000 0.000000
# 4 0.000000 0.000000 0.000000 0.040195 0.000000 0.000000
# 5 0.000000 0.000000 0.000000 0.000000 0.040194 0.000000
# 6 0.000000 0.000000 0.000000 0.000000 0.000000 0.050315
#
#
# Mechanical properties :
#
#
# Convention : Reuss Voigt Hill
#
# Bulk Modulus (GPa) = 21.73859 32.57114 27.15486
# Shear Modulus (GPa) = 21.25830 24.45355 22.85592
#
# Velocity S-wave (km/s) = 3.10023 3.32507 3.21462
# Velocity P-wave (km/s) = 4.75856 5.42842 5.10449
#
# Compressibility (1/GPa) = 0.04600114
#
# Stress axis : x y z
#
# Youngs Moduli (GPa) = 34.15447 34.15494 110.79471
#
# Poissons Ratio (x) = 0.09328 0.44648
# Poissons Ratio (y) = 0.09328 0.44649
# Poissons Ratio (z) = 0.13763 0.13764
#
# Static dielectric constant tensor:
#      x y z
#    x 1.983950 0.000000 0.000000 
#    y 0.000000 1.983950 0.000000 
#    z 0.000000 0.000000 1.869710 
# 
# From -- ./inp_files/3506.got.cif
#   From: 2010.05.17/outbox.cif.g08.bks.cpg/sg135_2_cif.got.tgz:3506.got - 2010.05.20 12:50:20.
