data_PCOD9568240
_publ_section_title
;
Structure prediction by ZEFSAII (Michael W. Deem and Ramdas Pophale) SiO2 
 PCOD9568240
Probable space group: P 42/N N M
;
_chemical_formula_sum "Si O2"
_cell_formula_units_Z 50
_cell_length_a 16.817081
_cell_length_b 16.817081
_cell_length_c 8.885648
_cell_angle_alpha 90.000000
_cell_angle_beta 90.000000
_cell_angle_gamma 90.000000
_cell_volume 2512.987549
_symmetry_space_group_name_H-M "P 42/N N M"
_symmetry_group_IT_number 134
_space_group.IT_coordinate_system_code '2'
_symmetry_cell_setting 'tetragonal'
loop_
_space_group_symop_operation_xyz
x,y,z
1/2-y,x,1/2+z
1/2-x,1/2-y,z
y,1/2-x,1/2+z
x,1/2-y,1/2-z
1/2-x,y,1/2-z
y,x,-z
1/2-y,1/2-x,-z
-x,-y,-z
1/2+y,-x,1/2-z
1/2+x,1/2+y,-z
-y,1/2+x,1/2-z
-x,1/2+y,1/2+z
1/2+x,-y,1/2+z
-y,-x,z
1/2+y,1/2+x,z
loop_
_atom_site_type_symbol
_atom_site_label
_atom_site_fract_x
_atom_site_fract_y
_atom_site_fract_z
Si Si1 0.936212 0.436212 0.420524
Si Si2 0.250000 0.750000 0.750000
Si Si3 0.832204 0.952066 0.926126
Si Si4 0.376128 0.876128 0.896073
Si Si5 0.467373 0.152763 0.922367
O O1 0.853331 0.468483 0.482511
O O2 0.920561 0.420561 0.244762
O O3 0.000000 0.500000 0.500000
O O4 0.310767 0.810767 0.840395
O O5 0.860960 0.969055 0.756477
O O6 0.881794 0.881794 0.000000
O O7 0.740366 0.930919 0.935795
O O8 0.446972 0.841897 0.999381
O O9 0.414619 0.085382 0.000000
#
# Coordination Sequence:
#
# PCOD9568240 Si02
#       5
#     8   2  16   8  16
#     4  10  19  36  63  89 121 163 207 263 321 384
#     4  12  28  44  68  98 132 176 216 290 360 404
#     4  10  22  39  60  89 125 165 208 257 316 376
#     4  12  24  42  65  94 125 161 215 264 325 402
#     4  11  23  39  62  90 122 163 209 259 315 384
#
# _framework density 19.896635
#
# number of rings (size 3 to 8) (size 9 to 14) (size 15 to 20)
#    0.000    1.280    0.000    7.200    0.000    4.480 
#    0.000    4.800    0.000    1.920    0.000    0.000 
#    0.000    0.000    0.000    0.000    0.000    0.000 
#
# Total GULP energy -278680.339709 kJ/mol
# GULP energy per Si atom -5573.606794 kJ/mol
# Density = 1.985135 g / cm^3
# Si number density = 19.896635 Si / 1000 Ang^3
#
#
#
# Elastic Constant Matrix: (Units=GPa)
#
#
# Indices 1 2 3 4 5 6 
#
# 1 93.0717 51.6941 52.3278 0.0000 0.0000 0.0000
# 2 51.6941 93.0725 52.3333 0.0000 0.0000 0.0000
# 3 52.3278 52.3333 131.0202 0.0000 0.0000 0.0000
# 4 0.0000 0.0000 0.0000 63.5469 0.0000 0.0000
# 5 0.0000 0.0000 0.0000 0.0000 63.5762 0.0000
# 6 0.0000 0.0000 0.0000 0.0000 0.0000 30.1896
#
#
#
# Elastic Compliance Matrix: (Units=1/GPa)
#
#
# Indices 1 2 3 4 5 6 
#
# 1 0.016939 -0.007228 -0.003878 0.000000 0.000000 0.000000
# 2 -0.007228 0.016940 -0.003880 0.000000 0.000000 0.000000
# 3 -0.003878 -0.003880 0.010731 0.000000 0.000000 0.000000
# 4 0.000000 0.000000 0.000000 0.015736 0.000000 0.000000
# 5 0.000000 0.000000 0.000000 0.000000 0.015729 0.000000
# 6 0.000000 0.000000 0.000000 0.000000 0.000000 0.033124
#
#
# Mechanical properties :
#
#
# Convention : Reuss Voigt Hill
#
# Bulk Modulus (GPa) = 68.31084 69.98609 69.14847
# Shear Modulus (GPa) = 34.70979 42.18318 38.44648
#
# Velocity S-wave (km/s) = 4.18126 4.60947 4.40057
# Velocity P-wave (km/s) = 7.59723 7.97376 7.78777
#
# Compressibility (1/GPa) = 0.01463896
#
# Stress axis : x y z
#
# Youngs Moduli (GPa) = 59.03410 59.03114 93.18703
#
# Poissons Ratio (x) = 0.42666 0.36142
# Poissons Ratio (y) = 0.42668 0.36155
# Poissons Ratio (z) = 0.22896 0.22903
#
# Static dielectric constant tensor:
#      x y z
#    x 1.734230 0.000000 0.000000 
#    y 0.000000 1.734230 0.000000 
#    z 0.000000 0.000000 1.724080 
# 
# From -- ./inp_files/2311.got.cif
#   From: 2010.05.17/outbox.cif.g08.bks.cpg/sg134_2_cif.got.tgz:2311.got - 2010.05.20 12:42:49.
