data_PCOD9568649
_publ_section_title
;
Structure prediction by ZEFSAII (Michael W. Deem and Ramdas Pophale) SiO2 
 PCOD9568649
Probable space group: P 42/M B C
;
_chemical_formula_sum "Si O2"
_cell_formula_units_Z 96
_cell_length_a 26.064278
_cell_length_b 26.064278
_cell_length_c 8.651816
_cell_angle_alpha 90.000000
_cell_angle_beta 90.000000
_cell_angle_gamma 90.000000
_cell_volume 5877.581677
_symmetry_space_group_name_H-M "P 42/M B C"
_symmetry_group_IT_number 135
_symmetry_cell_setting 'tetragonal'
loop_
_space_group_symop_operation_xyz
x,y,z
-y,x,1/2+z
-x,-y,z
y,-x,1/2+z
1/2+x,1/2-y,-z
1/2-x,1/2+y,-z
1/2+y,1/2+x,1/2-z
1/2-y,1/2-x,1/2-z
-x,-y,-z
y,-x,1/2-z
x,y,-z
-y,x,1/2-z
1/2-x,1/2+y,z
1/2+x,1/2-y,z
1/2-y,1/2-x,1/2+z
1/2+y,1/2+x,1/2+z
loop_
_atom_site_type_symbol
_atom_site_label
_atom_site_fract_x
_atom_site_fract_y
_atom_site_fract_z
Si Si1 0.858311 0.943814 0.314749
Si Si2 0.636126 0.055550 0.187127
Si Si3 0.640186 0.940630 0.316037
Si Si4 0.439109 0.249076 0.322641
Si Si5 0.563727 0.247886 0.677264
Si Si6 0.640545 0.558268 0.187926
O O1 0.856808 0.946584 0.500000
O O2 0.802984 0.924935 0.254147
O O3 0.903037 0.904534 0.268065
O O4 0.867797 0.000788 0.248997
O O5 0.591200 0.091200 0.250000
O O6 0.692021 0.076236 0.244284
O O7 0.630834 0.997222 0.245405
O O8 0.636575 0.055045 0.000000
O O9 0.598944 0.901057 0.250000
O O10 0.636622 0.943480 0.500000
O O11 0.697626 0.923976 0.266553
O O12 0.421748 0.246682 0.500000
O O13 0.501499 0.248804 0.324752
O O14 0.582289 0.247584 0.500000
O O15 0.577643 0.303330 0.745278
O O16 0.642953 0.555721 0.000000
#
# Coordination Sequence:
#
# PCOD9568649 Si02
#       6
#    16  16  16  16  16  16
#     4  10  19  30  48  73  97 127 168 206 244 295
#     4  10  19  32  50  73  99 129 163 201 247 294
#     4  11  21  34  52  75 101 129 163 200 240 290
#     4   9  17  32  51  70  95 127 162 201 244 288
#     4   7  13  28  48  65  86 121 161 197 236 283
#     4   9  18  32  48  68  97 131 164 203 251 296
#
# _framework density 16.333247
#
# number of rings (size 3 to 8) (size 9 to 14) (size 15 to 20)
#    0.000    2.667    0.000    5.000    0.000    2.000 
#    0.000    4.167    0.000    1.000    0.000    2.333 
#    0.000    0.000    0.000    0.000    0.000    0.000 
#
# Total GULP energy -534618.868687 kJ/mol
# GULP energy per Si atom -5568.946549 kJ/mol
# Density = 1.629607 g / cm^3
# Si number density = 16.333247 Si / 1000 Ang^3
#
#
#
# Elastic Constant Matrix: (Units=GPa)
#
#
# Indices 1 2 3 4 5 6 
#
# 1 114.0078 80.3647 38.9016 0.0000 0.0000 0.0000
# 2 80.3647 114.0087 38.9008 0.0000 0.0000 0.0000
# 3 38.9016 38.9008 69.5037 0.0000 0.0000 0.0000
# 4 0.0000 0.0000 0.0000 21.1284 0.0000 0.0000
# 5 0.0000 0.0000 0.0000 0.0000 21.1285 0.0000
# 6 0.0000 0.0000 0.0000 0.0000 0.0000 -3.0423
#
#
#
# Elastic Compliance Matrix: (Units=1/GPa)
#
#
# Indices 1 2 3 4 5 6 
#
# 1 0.018177 -0.011547 -0.003711 0.000000 0.000000 0.000000
# 2 -0.011547 0.018177 -0.003711 0.000000 0.000000 0.000000
# 3 -0.003711 -0.003711 0.018542 0.000000 0.000000 0.000000
# 4 0.000000 0.000000 0.000000 0.047330 0.000000 0.000000
# 5 0.000000 0.000000 0.000000 0.000000 0.047329 0.000000
# 6 0.000000 0.000000 0.000000 0.000000 0.000000 -0.328694
#
#
# Mechanical properties :
#
#
# Convention : Reuss Voigt Hill
#
# Bulk Modulus (GPa) = 58.96780 68.20605 63.58693
# Shear Modulus (GPa) = -36.88669 17.13311 -9.87679
#
# Velocity S-wave (km/s) = -4.75740 3.24230 -2.46174
# Velocity P-wave (km/s) = 2.45035 7.47438 5.56195
#
# Compressibility (1/GPa) = 0.01695841
#
# Stress axis : x y z
#
# Youngs Moduli (GPa) = 55.01485 55.01587 53.93256
#
# Poissons Ratio (x) = 0.63525 0.20015
# Poissons Ratio (y) = 0.63524 0.20012
# Poissons Ratio (z) = 0.20417 0.20414
#
# Static dielectric constant tensor:
#      x y z
#    x 1.547940 0.000000 0.000000 
#    y 0.000000 1.547940 0.000000 
#    z 0.000000 0.000000 1.559020 
# 
# From -- ./inp_files/1340.got.cif
#   From: 2010.05.17/outbox.cif.g08.bks.cpg/sg135_1_cif.got.tgz:1340.got - 2010.05.20 12:50:20.
