data_PCOD9568455
_publ_section_title
;
Structure prediction by ZEFSAII (Michael W. Deem and Ramdas Pophale) SiO2 
 PCOD9568455
Probable space group: P 42/N N M
;
_chemical_formula_sum "Si O2"
_cell_formula_units_Z 56
_cell_length_a 14.689774
_cell_length_b 14.689774
_cell_length_c 12.915080
_cell_angle_alpha 90.000000
_cell_angle_beta 90.000000
_cell_angle_gamma 90.000000
_cell_volume 2786.938141
_symmetry_space_group_name_H-M "P 42/N N M"
_symmetry_group_IT_number 134
_space_group.IT_coordinate_system_code '2'
_symmetry_cell_setting 'tetragonal'
loop_
_space_group_symop_operation_xyz
x,y,z
1/2-y,x,1/2+z
1/2-x,1/2-y,z
y,1/2-x,1/2+z
x,1/2-y,1/2-z
1/2-x,y,1/2-z
y,x,-z
1/2-y,1/2-x,-z
-x,-y,-z
1/2+y,-x,1/2-z
1/2+x,1/2+y,-z
-y,1/2+x,1/2-z
-x,1/2+y,1/2+z
1/2+x,-y,1/2+z
-y,-x,z
1/2+y,1/2+x,z
loop_
_atom_site_type_symbol
_atom_site_label
_atom_site_fract_x
_atom_site_fract_y
_atom_site_fract_z
Si Si1 0.894978 0.245652 0.085442
Si Si2 0.298849 0.554824 0.145496
Si Si3 0.842599 0.812420 0.119808
Si Si4 0.955069 0.750000 0.750000
O O1 0.853219 0.146782 0.115469
O O2 0.818889 0.318889 0.110029
O O3 0.982104 0.271555 0.152141
O O4 0.910246 0.242821 0.962656
O O5 0.250000 0.587579 0.250000
O O6 0.401593 0.598408 0.147130
O O7 0.282391 0.445942 0.139447
O O8 0.750000 0.750000 0.128412
O O9 0.827748 0.890488 0.204903
O O10 0.842987 0.842987 0.000000
#
# Coordination Sequence:
#
# PCOD9568455 Si02
#       4
#    16  16  16   8
#     4  10  22  39  61  92 129 168 211 265 332 402
#     4  11  23  42  67  97 133 175 224 277 339 411
#     4  11  24  44  68  93 130 175 224 278 342 405
#     4  12  21  39  64  92 122 164 214 267 331 392
#
# _framework density 20.093734999999999
#
# number of rings (size 3 to 8) (size 9 to 14) (size 15 to 20)
#    0.000    1.143    2.857    3.857    0.000    5.429 
#    0.000    0.000    0.000    5.143    0.000    0.000 
#    0.000    0.000    0.000    0.000    0.000    0.000 
#
# Total GULP energy -311760.654398 kJ/mol
# GULP energy per Si atom -5567.154543 kJ/mol
# Density = 2.004800 g / cm^3
# Si number density = 20.093735 Si / 1000 Ang^3
#
#
#
# Elastic Constant Matrix: (Units=GPa)
#
#
# Indices 1 2 3 4 5 6 
#
# 1 54.8453 18.6528 9.1183 0.0000 0.0000 0.0000
# 2 18.6528 54.8453 9.1183 0.0000 0.0000 0.0000
# 3 9.1183 9.1183 135.3829 0.0000 0.0000 0.0000
# 4 0.0000 0.0000 0.0000 20.3835 0.0000 0.0000
# 5 0.0000 0.0000 0.0000 0.0000 20.3835 0.0000
# 6 0.0000 0.0000 0.0000 0.0000 0.0000 16.8833
#
#
#
# Elastic Compliance Matrix: (Units=1/GPa)
#
#
# Indices 1 2 3 4 5 6 
#
# 1 0.020734 -0.006897 -0.000932 0.000000 0.000000 0.000000
# 2 -0.006897 0.020734 -0.000932 0.000000 0.000000 0.000000
# 3 -0.000932 -0.000932 0.007512 0.000000 0.000000 0.000000
# 4 0.000000 0.000000 0.000000 0.049059 0.000000 0.000000
# 5 0.000000 0.000000 0.000000 0.000000 0.049059 0.000000
# 6 0.000000 0.000000 0.000000 0.000000 0.000000 0.059230
#
#
# Mechanical properties :
#
#
# Convention : Reuss Voigt Hill
#
# Bulk Modulus (GPa) = 31.78817 35.42804 33.60811
# Shear Modulus (GPa) = 21.33702 25.40901 23.37301
#
# Velocity S-wave (km/s) = 3.26218 3.55987 3.41427
# Velocity P-wave (km/s) = 5.48118 5.87934 5.68375
#
# Compressibility (1/GPa) = 0.03145824
#
# Stress axis : x y z
#
# Youngs Moduli (GPa) = 48.23101 48.23101 133.12041
#
# Poissons Ratio (x) = 0.33263 0.12406
# Poissons Ratio (y) = 0.33263 0.12406
# Poissons Ratio (z) = 0.04495 0.04495
#
# Static dielectric constant tensor:
#      x y z
#    x 1.856670 0.000000 0.000000 
#    y 0.000000 1.856670 0.000000 
#    z 0.000000 0.000000 1.710760 
# 
# From -- ./inp_files/4329.got.cif
#   From: 2010.05.17/outbox.cif.g08.bks.cpg/sg134_3_cif.got.tgz:4329.got - 2010.05.20 12:42:49.
