data_PCOD9568081
_publ_section_title
;
Structure prediction by ZEFSAII (Michael W. Deem and Ramdas Pophale) SiO2 
 PCOD9568081
Probable space group: P 42/N N M
;
_chemical_formula_sum "Si O2"
_cell_formula_units_Z 56
_cell_length_a 13.086947
_cell_length_b 13.086947
_cell_length_c 17.511328
_cell_angle_alpha 90.000000
_cell_angle_beta 90.000000
_cell_angle_gamma 90.000000
_cell_volume 2999.133307
_symmetry_space_group_name_H-M "P 42/N N M"
_symmetry_group_IT_number 134
_space_group.IT_coordinate_system_code '2'
_symmetry_cell_setting 'tetragonal'
loop_
_space_group_symop_operation_xyz
x,y,z
1/2-y,x,1/2+z
1/2-x,1/2-y,z
y,1/2-x,1/2+z
x,1/2-y,1/2-z
1/2-x,y,1/2-z
y,x,-z
1/2-y,1/2-x,-z
-x,-y,-z
1/2+y,-x,1/2-z
1/2+x,1/2+y,-z
-y,1/2+x,1/2-z
-x,1/2+y,1/2+z
1/2+x,-y,1/2+z
-y,-x,z
1/2+y,1/2+x,z
loop_
_atom_site_type_symbol
_atom_site_label
_atom_site_fract_x
_atom_site_fract_y
_atom_site_fract_z
Si Si1 0.080746 0.225927 0.627088
Si Si2 0.586003 0.250000 0.750000
Si Si3 0.768222 0.585418 0.338146
Si Si4 0.166301 0.507111 0.513106
O O1 0.143831 0.326703 0.656049
O O2 0.164563 0.137675 0.630999
O O3 0.032989 0.247517 0.544381
O O4 0.987600 0.209496 0.684132
O O5 0.659288 0.340713 0.778365
O O6 0.750000 0.556971 0.250000
O O7 0.800539 0.500025 0.398842
O O8 0.076954 0.423047 0.500000
O O9 0.115717 0.615717 0.493917
#
# Coordination Sequence:
#
# PCOD9568081 Si02
#       4
#    16   8  16  16
#     4  10  17  33  50  74 104 139 179 224 271 325
#     4  11  22  33  50  76 108 147 182 223 284 342
#     4  10  17  30  51  78 105 140 176 224 276 320
#     4   9  18  29  48  77 107 138 174 220 274 328
#
# _framework density 18.672060999999999
#
# number of rings (size 3 to 8) (size 9 to 14) (size 15 to 20)
#    0.000    2.143    2.857    2.571    0.000    4.571 
#    0.000    0.000    0.000    5.143    0.000    0.000 
#    0.000    0.000    0.000    0.000    0.000    0.000 
#
# Total GULP energy -312121.743133 kJ/mol
# GULP energy per Si atom -5573.602556 kJ/mol
# Density = 1.862956 g / cm^3
# Si number density = 18.672061 Si / 1000 Ang^3
#
#
#
# Elastic Constant Matrix: (Units=GPa)
#
#
# Indices 1 2 3 4 5 6 
#
# 1 48.3898 19.0674 18.5448 0.0000 0.0000 0.0000
# 2 19.0674 48.3897 18.5448 0.0000 0.0000 0.0000
# 3 18.5448 18.5448 136.2512 0.0000 0.0000 0.0000
# 4 0.0000 0.0000 0.0000 -0.6858 0.0000 0.0000
# 5 0.0000 0.0000 0.0000 0.0000 -0.6867 0.0000
# 6 0.0000 0.0000 0.0000 0.0000 0.0000 8.5422
#
#
#
# Elastic Compliance Matrix: (Units=1/GPa)
#
#
# Indices 1 2 3 4 5 6 
#
# 1 0.025064 -0.009040 -0.002181 0.000000 0.000000 0.000000
# 2 -0.009040 0.025064 -0.002181 0.000000 0.000000 0.000000
# 3 -0.002181 -0.002181 0.007933 0.000000 0.000000 0.000000
# 4 0.000000 0.000000 0.000000 -1.458054 0.000000 0.000000
# 5 0.000000 0.000000 0.000000 0.000000 -1.456231 0.000000
# 6 0.000000 0.000000 0.000000 0.000000 0.000000 0.117066
#
#
# Mechanical properties :
#
#
# Convention : Reuss Voigt Hill
#
# Bulk Modulus (GPa) = 31.99368 38.37161 35.18265
# Shear Modulus (GPa) = -1.85052 13.22550 5.68749
#
# Velocity S-wave (km/s) = -0.99660 2.66429 1.74717
# Velocity P-wave (km/s) = 3.98088 5.48265 4.79098
#
# Compressibility (1/GPa) = 0.03125617
#
# Stress axis : x y z
#
# Youngs Moduli (GPa) = 39.89864 39.89858 126.05478
#
# Poissons Ratio (x) = 0.36069 0.27491
# Poissons Ratio (y) = 0.36069 0.27491
# Poissons Ratio (z) = 0.08702 0.08701
#
# Static dielectric constant tensor:
#      x y z
#    x 1.635140 0.000000 0.000000 
#    y 0.000000 1.635140 0.000000 
#    z 0.000000 0.000000 1.666480 
# 
# From -- ./inp_files/6011.got.cif
#   From: 2010.05.17/outbox.cif.g08.bks.cpg/sg134_4_cif.got.tgz:6011.got - 2010.05.20 12:42:49.
