data_PCOD9568544
_publ_section_title
;
Structure prediction by ZEFSAII (Michael W. Deem and Ramdas Pophale) SiO2 
 PCOD9568544
Probable space group: P 42/N N M
;
_chemical_formula_sum "Si O2"
_cell_formula_units_Z 60
_cell_length_a 12.151009
_cell_length_b 12.151009
_cell_length_c 19.455214
_cell_angle_alpha 90.000000
_cell_angle_beta 90.000000
_cell_angle_gamma 90.000000
_cell_volume 2872.504365
_symmetry_space_group_name_H-M "P 42/N N M"
_symmetry_group_IT_number 134
_space_group.IT_coordinate_system_code '2'
_symmetry_cell_setting 'tetragonal'
loop_
_space_group_symop_operation_xyz
x,y,z
1/2-y,x,1/2+z
1/2-x,1/2-y,z
y,1/2-x,1/2+z
x,1/2-y,1/2-z
1/2-x,y,1/2-z
y,x,-z
1/2-y,1/2-x,-z
-x,-y,-z
1/2+y,-x,1/2-z
1/2+x,1/2+y,-z
-y,1/2+x,1/2-z
-x,1/2+y,1/2+z
1/2+x,-y,1/2+z
-y,-x,z
1/2+y,1/2+x,z
loop_
_atom_site_type_symbol
_atom_site_label
_atom_site_fract_x
_atom_site_fract_y
_atom_site_fract_z
Si Si1 0.861659 0.961086 0.621661
Si Si2 0.424101 0.750000 0.250000
Si Si3 0.552425 0.877792 0.424147
Si Si4 0.256967 0.483133 0.832464
Si Si5 0.250000 0.750000 0.650789
O O1 0.753346 0.948375 0.576794
O O2 0.924820 0.848139 0.633644
O O3 0.811155 0.003167 0.694011
O O4 0.945975 0.054026 0.596495
O O5 0.342091 0.657910 0.219284
O O6 0.588371 0.911630 0.500000
O O7 0.635479 0.928118 0.367148
O O8 0.434110 0.934110 0.412610
O O9 0.250000 0.466315 0.750000
O O10 0.251405 0.613608 0.845710
#
# Coordination Sequence:
#
# PCOD9568544 Si02
#       5
#    16   8  16  16   4
#     4  11  23  39  64  99 130 170 221 271 336 406
#     4   9  18  34  59  94 136 170 203 259 328 402
#     4  11  26  48  68  94 136 184 223 279 353 424
#     4  12  24  43  71 101 136 177 233 294 354 414
#     4  12  25  44  70 102 138 182 236 305 356 411
#
# _framework density 20.887696999999999
#
# number of rings (size 3 to 8) (size 9 to 14) (size 15 to 20)
#    0.000    0.933    2.667    4.400    0.000    6.933 
#    2.400    1.333    0.000    0.000    0.000    0.000 
#    0.000    0.000    0.000    0.000    0.000    0.133 
#
# Total GULP energy -334428.038427 kJ/mol
# GULP energy per Si atom -5573.800640 kJ/mol
# Density = 2.084016 g / cm^3
# Si number density = 20.887697 Si / 1000 Ang^3
#
#
#
# Elastic Constant Matrix: (Units=GPa)
#
#
# Indices 1 2 3 4 5 6 
#
# 1 136.9093 59.1456 23.6186 0.0000 0.0000 0.0000
# 2 59.1456 136.9104 23.6192 0.0000 0.0000 0.0000
# 3 23.6186 23.6192 56.5626 0.0000 0.0000 0.0000
# 4 0.0000 0.0000 0.0000 -8.7283 0.0000 0.0000
# 5 0.0000 0.0000 0.0000 0.0000 -8.7326 0.0000
# 6 0.0000 0.0000 0.0000 0.0000 0.0000 37.4964
#
#
#
# Elastic Compliance Matrix: (Units=1/GPa)
#
#
# Indices 1 2 3 4 5 6 
#
# 1 0.009265 -0.003594 -0.002368 0.000000 0.000000 0.000000
# 2 -0.003594 0.009265 -0.002368 0.000000 0.000000 0.000000
# 3 -0.002368 -0.002368 0.019657 0.000000 0.000000 0.000000
# 4 0.000000 0.000000 0.000000 -0.114569 0.000000 0.000000
# 5 0.000000 0.000000 0.000000 0.000000 -0.114513 0.000000
# 6 0.000000 0.000000 0.000000 0.000000 0.000000 0.026669
#
#
# Mechanical properties :
#
#
# Convention : Reuss Voigt Hill
#
# Bulk Modulus (GPa) = 46.45301 60.34990 53.40145
# Shear Modulus (GPa) = -35.61533 18.94034 -8.33749
#
# Velocity S-wave (km/s) = -4.13375 3.01453 -2.00006
# Velocity P-wave (km/s) = 0.70438 6.40873 4.50420
#
# Compressibility (1/GPa) = 0.02152713
#
# Stress axis : x y z
#
# Youngs Moduli (GPa) = 107.92960 107.93008 50.87180
#
# Poissons Ratio (x) = 0.38791 0.12047
# Poissons Ratio (y) = 0.38791 0.12047
# Poissons Ratio (z) = 0.25558 0.25560
#
# Static dielectric constant tensor:
#      x y z
#    x 1.765640 0.000000 0.000000 
#    y 0.000000 1.765640 0.000000 
#    z 0.000000 0.000000 1.753650 
# 
# From -- ./inp_files/8720.got.cif
#   From: 2010.05.17/outbox.cif.g08.bks.cpg/sg134_5_cif.got.tgz:8720.got - 2010.05.20 12:42:49.
