data_PCOD9568464
_publ_section_title
;
Structure prediction by ZEFSAII (Michael W. Deem and Ramdas Pophale) SiO2 
 PCOD9568464
Probable space group: P 42/N N M
;
_chemical_formula_sum "Si O2"
_cell_formula_units_Z 112
_cell_length_a 15.805695
_cell_length_b 15.805695
_cell_length_c 22.256907
_cell_angle_alpha 90.000000
_cell_angle_beta 90.000000
_cell_angle_gamma 90.000000
_cell_volume 5560.220383
_symmetry_space_group_name_H-M "P 42/N N M"
_symmetry_group_IT_number 134
_space_group.IT_coordinate_system_code '2'
_symmetry_cell_setting 'tetragonal'
loop_
_space_group_symop_operation_xyz
x,y,z
1/2-y,x,1/2+z
1/2-x,1/2-y,z
y,1/2-x,1/2+z
x,1/2-y,1/2-z
1/2-x,y,1/2-z
y,x,-z
1/2-y,1/2-x,-z
-x,-y,-z
1/2+y,-x,1/2-z
1/2+x,1/2+y,-z
-y,1/2+x,1/2-z
-x,1/2+y,1/2+z
1/2+x,-y,1/2+z
-y,-x,z
1/2+y,1/2+x,z
loop_
_atom_site_type_symbol
_atom_site_label
_atom_site_fract_x
_atom_site_fract_y
_atom_site_fract_z
Si Si1 0.697422 0.671662 0.069889
Si Si2 0.923595 0.564079 0.719273
Si Si3 0.612999 0.251839 0.963974
Si Si4 0.001124 0.699965 0.922638
Si Si5 0.472092 0.284616 0.870709
Si Si6 0.556310 0.199321 0.311808
Si Si7 0.914333 0.547759 0.860021
O O1 0.750000 0.750000 0.098420
O O2 0.745992 0.584610 0.076186
O O3 0.602777 0.669349 0.093713
O O4 0.689898 0.689898 0.000000
O O5 0.832889 0.535504 0.692994
O O6 0.925272 0.576963 0.790989
O O7 0.987346 0.487346 0.705172
O O8 0.967254 0.647811 0.691836
O O9 0.671763 0.328238 0.988427
O O10 0.677409 0.177409 0.945238
O O11 0.558721 0.287754 0.908252
O O12 0.551254 0.213968 0.015355
O O13 0.055738 0.737033 0.867699
O O14 0.967432 0.607333 0.904744
O O15 0.451059 0.185217 0.870668
O O16 0.566715 0.250000 0.250000
O O17 0.629890 0.129890 0.317568
O O18 0.954528 0.454528 0.864406
#
# Coordination Sequence:
#
# PCOD9568464 Si02
#       7
#    16  16  16  16  16  16  16
#     4  11  22  38  58  92 129 161 198 254 313 384
#     4  10  22  40  62  91 127 164 210 268 320 379
#     4  11  26  45  64  91 129 173 219 267 321 390
#     4  12  22  41  65  95 129 167 214 262 326 385
#     4  12  22  41  66  93 123 165 214 264 330 382
#     4  11  23  39  62  91 127 170 214 258 311 382
#     4  11  24  40  63  94 128 166 209 263 325 389
#
# _framework density 20.143087999999999
#
# number of rings (size 3 to 8) (size 9 to 14) (size 15 to 20)
#    0.000    0.857    5.714    2.143    0.000    1.286 
#    0.000    2.143    0.000    0.000    0.000    6.000 
#    0.000    0.000    0.000    0.000    0.000    0.000 
#
# Total GULP energy -625264.497668 kJ/mol
# GULP energy per Si atom -5582.718729 kJ/mol
# Density = 2.009724 g / cm^3
# Si number density = 20.143088 Si / 1000 Ang^3
#
#
#
# Elastic Constant Matrix: (Units=GPa)
#
#
# Indices 1 2 3 4 5 6 
#
# 1 65.4810 12.2811 -7.9274 0.0000 0.0000 0.0000
# 2 12.2811 65.4810 -7.9274 0.0000 0.0000 0.0000
# 3 -7.9274 -7.9274 24.5155 0.0000 0.0000 0.0000
# 4 0.0000 0.0000 0.0000 21.0793 0.0000 0.0000
# 5 0.0000 0.0000 0.0000 0.0000 21.0793 0.0000
# 6 0.0000 0.0000 0.0000 0.0000 0.0000 34.5798
#
#
#
# Elastic Compliance Matrix: (Units=1/GPa)
#
#
# Indices 1 2 3 4 5 6 
#
# 1 0.016282 -0.002515 0.004452 0.000000 0.000000 0.000000
# 2 -0.002515 0.016282 0.004452 0.000000 0.000000 0.000000
# 3 0.004452 0.004452 0.043670 0.000000 0.000000 0.000000
# 4 0.000000 0.000000 0.000000 0.047440 0.000000 0.000000
# 5 0.000000 0.000000 0.000000 0.000000 0.047440 0.000000
# 6 0.000000 0.000000 0.000000 0.000000 0.000000 0.028919
#
#
# Mechanical properties :
#
#
# Convention : Reuss Voigt Hill
#
# Bulk Modulus (GPa) = 11.23446 16.48115 13.85780
# Shear Modulus (GPa) = 23.04941 25.95111 24.50026
#
# Velocity S-wave (km/s) = 3.38640 3.59324 3.49135
# Velocity P-wave (km/s) = 4.56943 5.04132 4.81116
#
# Compressibility (1/GPa) = 0.08901187
#
# Stress axis : x y z
#
# Youngs Moduli (GPa) = 61.41674 61.41674 22.89918
#
# Poissons Ratio (x) = 0.15445 -0.10194
# Poissons Ratio (y) = 0.15445 -0.10194
# Poissons Ratio (z) = -0.27342 -0.27342
#
# Static dielectric constant tensor:
#      x y z
#    x 1.725480 0.000000 0.000000 
#    y 0.000000 1.725480 0.000000 
#    z 0.000000 0.000000 1.716720 
# 
# From -- ./inp_files/10107.got.cif
#   From: 2010.05.17/outbox.cif.g08.bks.cpg/sg134_6_cif.got.tgz:10107.got - 2010.05.20 12:42:49.
