data_PCOD9568535
_publ_section_title
;
Structure prediction by ZEFSAII (Michael W. Deem and Ramdas Pophale) SiO2 
 PCOD9568535
Probable space group: P 42/N N M
;
_chemical_formula_sum "Si O2"
_cell_formula_units_Z 56
_cell_length_a 19.802344
_cell_length_b 19.802344
_cell_length_c 7.355888
_cell_angle_alpha 90.000000
_cell_angle_beta 90.000000
_cell_angle_gamma 90.000000
_cell_volume 2884.485163
_symmetry_space_group_name_H-M "P 42/N N M"
_symmetry_group_IT_number 134
_space_group.IT_coordinate_system_code '2'
_symmetry_cell_setting 'tetragonal'
loop_
_space_group_symop_operation_xyz
x,y,z
1/2-y,x,1/2+z
1/2-x,1/2-y,z
y,1/2-x,1/2+z
x,1/2-y,1/2-z
1/2-x,y,1/2-z
y,x,-z
1/2-y,1/2-x,-z
-x,-y,-z
1/2+y,-x,1/2-z
1/2+x,1/2+y,-z
-y,1/2+x,1/2-z
-x,1/2+y,1/2+z
1/2+x,-y,1/2+z
-y,-x,z
1/2+y,1/2+x,z
loop_
_atom_site_type_symbol
_atom_site_label
_atom_site_fract_x
_atom_site_fract_y
_atom_site_fract_z
Si Si1 0.051564 0.662710 0.009422
Si Si2 0.556233 0.829161 0.297821
Si Si3 0.069010 0.175288 0.223825
Si Si4 0.750000 0.137803 0.750000
O O1 0.105215 0.605215 0.962368
O O2 0.092417 0.728977 0.076971
O O3 0.951031 0.834114 0.986148
O O4 0.996387 0.671954 0.852931
O O5 0.565563 0.750000 0.250000
O O6 0.619059 0.874898 0.236066
O O7 0.491239 0.855233 0.189518
O O8 0.098664 0.250000 0.250000
O O9 0.686342 0.186342 0.711420
#
# Coordination Sequence:
#
# PCOD9568535 Si02
#       4
#    16  16  16   8
#     4  11  22  40  65  91 126 165 204 256 313 366
#     4  11  23  40  62  88 123 163 205 256 310 367
#     4  11  23  39  62  90 122 161 209 254 307 374
#     4   9  18  36  66  98 127 166 212 258 311 370
#
# _framework density 19.414211000000002
#
# number of rings (size 3 to 8) (size 9 to 14) (size 15 to 20)
#    0.000    1.286    4.286    0.857    0.000    4.000 
#    0.000    7.143    0.000    0.000    0.000    8.000 
#    0.000    0.000    0.000    0.000    0.000    0.000 
#
# Total GULP energy -312682.741622 kJ/mol
# GULP energy per Si atom -5583.620386 kJ/mol
# Density = 1.937002 g / cm^3
# Si number density = 19.414211 Si / 1000 Ang^3
#
#
#
# Elastic Constant Matrix: (Units=GPa)
#
#
# Indices 1 2 3 4 5 6 
#
# 1 87.8629 44.3237 18.4909 0.0000 0.0000 0.0000
# 2 44.3237 87.8629 18.4909 0.0000 0.0000 0.0000
# 3 18.4909 18.4909 82.0260 0.0000 0.0000 0.0000
# 4 0.0000 0.0000 0.0000 18.5863 0.0000 0.0000
# 5 0.0000 0.0000 0.0000 0.0000 18.5863 0.0000
# 6 0.0000 0.0000 0.0000 0.0000 0.0000 28.7924
#
#
#
# Elastic Compliance Matrix: (Units=1/GPa)
#
#
# Indices 1 2 3 4 5 6 
#
# 1 0.015521 -0.007447 -0.001820 0.000000 0.000000 0.000000
# 2 -0.007447 0.015521 -0.001820 0.000000 0.000000 0.000000
# 3 -0.001820 -0.001820 0.013012 0.000000 0.000000 0.000000
# 4 0.000000 0.000000 0.000000 0.053803 0.000000 0.000000
# 5 0.000000 0.000000 0.000000 0.000000 0.053803 0.000000
# 6 0.000000 0.000000 0.000000 0.000000 0.000000 0.034731
#
#
# Mechanical properties :
#
#
# Convention : Reuss Voigt Hill
#
# Bulk Modulus (GPa) = 45.70426 46.70699 46.20563
# Shear Modulus (GPa) = 23.16324 24.95606 24.05965
#
# Velocity S-wave (km/s) = 3.45789 3.58921 3.52416
# Velocity P-wave (km/s) = 6.28772 6.42549 6.35698
#
# Compressibility (1/GPa) = 0.02187980
#
# Stress axis : x y z
#
# Youngs Moduli (GPa) = 64.42865 64.42865 76.85281
#
# Poissons Ratio (x) = 0.47978 0.13988
# Poissons Ratio (y) = 0.47978 0.13988
# Poissons Ratio (z) = 0.11727 0.11727
#
# Static dielectric constant tensor:
#      x y z
#    x 1.675000 0.000000 0.000000 
#    y 0.000000 1.675000 0.000000 
#    z 0.000000 0.000000 1.680660 
# 
# From -- ./inp_files/4485.got.cif
#   From: 2010.05.17/outbox.cif.g08.bks.cpg/sg134_3_cif.got.tgz:4485.got - 2010.05.20 12:42:49.
