data_PCOD9568821
_publ_section_title
;
Structure prediction by ZEFSAII (Michael W. Deem and Ramdas Pophale) SiO2 
 PCOD9568821
Probable space group: P 42/M B C
;
_chemical_formula_sum "Si O2"
_cell_formula_units_Z 64
_cell_length_a 14.731163
_cell_length_b 14.731163
_cell_length_c 14.607298
_cell_angle_alpha 90.000000
_cell_angle_beta 90.000000
_cell_angle_gamma 90.000000
_cell_volume 3169.888303
_symmetry_space_group_name_H-M "P 42/M B C"
_symmetry_group_IT_number 135
_symmetry_cell_setting 'tetragonal'
loop_
_space_group_symop_operation_xyz
x,y,z
-y,x,1/2+z
-x,-y,z
y,-x,1/2+z
1/2+x,1/2-y,-z
1/2-x,1/2+y,-z
1/2+y,1/2+x,1/2-z
1/2-y,1/2-x,1/2-z
-x,-y,-z
y,-x,1/2-z
x,y,-z
-y,x,1/2-z
1/2-x,1/2+y,z
1/2+x,1/2-y,z
1/2-y,1/2-x,1/2+z
1/2+y,1/2+x,1/2+z
loop_
_atom_site_type_symbol
_atom_site_label
_atom_site_fract_x
_atom_site_fract_y
_atom_site_fract_z
Si Si1 0.260375 0.879286 0.104628
Si Si2 0.970437 0.404461 0.351112
Si Si3 0.738509 0.824626 0.851020
Si Si4 0.602698 0.598144 0.748538
O O1 0.269208 0.769563 0.103578
O O2 0.175686 0.893572 0.171414
O O3 0.342267 0.939015 0.146966
O O4 0.247539 0.909870 0.000000
O O5 0.934056 0.434056 0.250000
O O6 0.888760 0.341353 0.390316
O O7 0.000000 0.500000 0.395390
O O8 0.704392 0.795608 0.750000
O O9 0.827594 0.883057 0.829745
O O10 0.610456 0.497026 0.710381
#
# Coordination Sequence:
#
# PCOD9568821 Si02
#       4
#    16  16  16  16
#     4  11  24  40  61  95 133 162 209 275 329 375
#     4  10  22  39  66  95 126 173 220 264 315 395
#     4   9  20  37  62  90 124 169 211 254 320 392
#     4  10  20  39  67  90 115 168 218 259 315 395
#
# _framework density 20.189986000000001
#
# number of rings (size 3 to 8) (size 9 to 14) (size 15 to 20)
#    0.000    2.000    2.500    0.000   10.500    1.500 
#    0.000    6.250    0.000    0.000    0.000    0.000 
#    0.000    0.000    0.000    0.000    0.000    0.000 
#
# Total GULP energy -356299.661387 kJ/mol
# GULP energy per Si atom -5567.182209 kJ/mol
# Density = 2.014403 g / cm^3
# Si number density = 20.189986 Si / 1000 Ang^3
#
#
#
# Elastic Constant Matrix: (Units=GPa)
#
#
# Indices 1 2 3 4 5 6 
#
# 1 140.1718 74.8099 24.1157 0.0000 0.0000 0.0000
# 2 74.8099 140.1718 24.1157 0.0000 0.0000 0.0000
# 3 24.1157 24.1157 75.7762 0.0000 0.0000 0.0000
# 4 0.0000 0.0000 0.0000 30.8542 0.0000 0.0000
# 5 0.0000 0.0000 0.0000 0.0000 30.8542 0.0000
# 6 0.0000 0.0000 0.0000 0.0000 0.0000 49.1718
#
#
#
# Elastic Compliance Matrix: (Units=1/GPa)
#
#
# Indices 1 2 3 4 5 6 
#
# 1 0.010154 -0.005145 -0.001594 0.000000 0.000000 0.000000
# 2 -0.005145 0.010154 -0.001594 0.000000 0.000000 0.000000
# 3 -0.001594 -0.001594 0.014211 0.000000 0.000000 0.000000
# 4 0.000000 0.000000 0.000000 0.032411 0.000000 0.000000
# 5 0.000000 0.000000 0.000000 0.000000 0.032411 0.000000
# 6 0.000000 0.000000 0.000000 0.000000 0.000000 0.020337
#
#
# Mechanical properties :
#
#
# Convention : Reuss Voigt Hill
#
# Bulk Modulus (GPa) = 56.01251 66.91141 61.46196
# Shear Modulus (GPa) = 35.13801 37.71458 36.42630
#
# Velocity S-wave (km/s) = 4.17630 4.32671 4.25217
# Velocity P-wave (km/s) = 7.14550 7.62715 7.39025
#
# Compressibility (1/GPa) = 0.01785316
#
# Stress axis : x y z
#
# Youngs Moduli (GPa) = 98.48018 98.48018 70.36581
#
# Poissons Ratio (x) = 0.50669 0.11218
# Poissons Ratio (y) = 0.50669 0.11218
# Poissons Ratio (z) = 0.15700 0.15700
#
# Static dielectric constant tensor:
#      x y z
#    x 1.771560 0.000000 0.000000 
#    y 0.000000 1.771560 0.000000 
#    z 0.000000 0.000000 1.795530 
# 
# From -- ./inp_files/3174.got.cif
#   From: 2010.05.17/outbox.cif.g08.bks.cpg/sg135_2_cif.got.tgz:3174.got - 2010.05.20 12:50:20.
