data_PCOD9568846
_publ_section_title
;
Structure prediction by ZEFSAII (Michael W. Deem and Ramdas Pophale) SiO2 
 PCOD9568846
Probable space group: P 42/M B C
;
_chemical_formula_sum "Si O2"
_cell_formula_units_Z 96
_cell_length_a 24.342805
_cell_length_b 24.342805
_cell_length_c 8.773461
_cell_angle_alpha 90.000000
_cell_angle_beta 90.000000
_cell_angle_gamma 90.000000
_cell_volume 5198.908694
_symmetry_space_group_name_H-M "P 42/M B C"
_symmetry_group_IT_number 135
_symmetry_cell_setting 'tetragonal'
loop_
_space_group_symop_operation_xyz
x,y,z
-y,x,1/2+z
-x,-y,z
y,-x,1/2+z
1/2+x,1/2-y,-z
1/2-x,1/2+y,-z
1/2+y,1/2+x,1/2-z
1/2-y,1/2-x,1/2-z
-x,-y,-z
y,-x,1/2-z
x,y,-z
-y,x,1/2-z
1/2-x,1/2+y,z
1/2+x,1/2-y,z
1/2-y,1/2-x,1/2+z
1/2+y,1/2+x,1/2+z
loop_
_atom_site_type_symbol
_atom_site_label
_atom_site_fract_x
_atom_site_fract_y
_atom_site_fract_z
Si Si1 0.852647 0.564664 0.681244
Si Si2 0.346735 0.639144 0.681969
Si Si3 0.057025 0.936593 0.317055
Si Si4 0.267424 0.850254 0.817641
Si Si5 0.354123 0.228951 0.321961
Si Si6 0.052957 0.635507 0.678098
O O1 0.906873 0.593128 0.750000
O O2 0.852884 0.569776 0.500000
O O3 0.802369 0.599689 0.749448
O O4 0.850295 0.502160 0.733374
O O5 0.351332 0.631888 0.500000
O O6 0.389722 0.599154 0.763848
O O7 0.356783 0.703403 0.718599
O O8 0.284433 0.629737 0.736245
O O9 0.054404 0.939560 0.500000
O O10 0.996004 0.925782 0.250405
O O11 0.295319 0.795319 0.750000
O O12 0.273722 0.848964 0.000000
O O13 0.301245 0.198756 0.250000
O O14 0.403678 0.185353 0.310612
O O15 0.259490 0.156263 0.000000
O O16 0.082862 0.582862 0.750000
O O17 0.041007 0.626260 0.500000
#
# Coordination Sequence:
#
# PCOD9568846 Si02
#       6
#    16  16  16  16  16  16
#     4  11  22  37  58  82 111 148 189 234 284 336
#     4  11  23  38  60  89 118 151 193 234 278 339
#     4  11  23  42  65  87 116 150 187 233 286 340
#     4  10  21  37  57  82 115 151 187 232 282 332
#     4  10  21  37  58  84 117 154 190 235 288 339
#     4  10  21  38  58  82 113 148 189 235 283 335
#
# _framework density 18.465413999999999
#
# number of rings (size 3 to 8) (size 9 to 14) (size 15 to 20)
#    0.000    1.500    0.000    7.000    0.000    7.667 
#    0.000    3.333    0.000    0.000    0.000    0.000 
#    0.000    0.000    0.000    0.000    0.000    0.000 
#
# Total GULP energy -536625.774568 kJ/mol
# GULP energy per Si atom -5589.851818 kJ/mol
# Density = 1.842339 g / cm^3
# Si number density = 18.465414 Si / 1000 Ang^3
#
#
#
# Elastic Constant Matrix: (Units=GPa)
#
#
# Indices 1 2 3 4 5 6 
#
# 1 80.8895 45.3008 51.9150 0.0000 0.0000 0.0000
# 2 45.3008 80.8872 51.9154 0.0000 0.0000 0.0000
# 3 51.9150 51.9154 120.0603 0.0000 0.0000 0.0000
# 4 0.0000 0.0000 0.0000 28.7258 0.0000 0.0000
# 5 0.0000 0.0000 0.0000 0.0000 28.7268 0.0000
# 6 0.0000 0.0000 0.0000 0.0000 0.0000 23.9165
#
#
#
# Elastic Compliance Matrix: (Units=1/GPa)
#
#
# Indices 1 2 3 4 5 6 
#
# 1 0.020200 -0.007899 -0.005319 0.000000 0.000000 0.000000
# 2 -0.007899 0.020201 -0.005319 0.000000 0.000000 0.000000
# 3 -0.005319 -0.005319 0.012929 0.000000 0.000000 0.000000
# 4 0.000000 0.000000 0.000000 0.034812 0.000000 0.000000
# 5 0.000000 0.000000 0.000000 0.000000 0.034811 0.000000
# 6 0.000000 0.000000 0.000000 0.000000 0.000000 0.041812
#
#
# Mechanical properties :
#
#
# Convention : Reuss Voigt Hill
#
# Bulk Modulus (GPa) = 61.51905 64.45550 62.98728
# Shear Modulus (GPa) = 24.12443 25.12087 24.62265
#
# Velocity S-wave (km/s) = 3.61843 3.69240 3.65560
# Velocity P-wave (km/s) = 7.13060 7.29111 7.21130
#
# Compressibility (1/GPa) = 0.01625513
#
# Stress axis : x y z
#
# Youngs Moduli (GPa) = 49.50476 49.50256 77.34363
#
# Poissons Ratio (x) = 0.39103 0.41139
# Poissons Ratio (y) = 0.39105 0.41143
# Poissons Ratio (z) = 0.26331 0.26333
#
# Static dielectric constant tensor:
#      x y z
#    x 1.616250 0.000000 0.000000 
#    y 0.000000 1.616250 0.000000 
#    z 0.000000 0.000000 1.620500 
# 
# From -- ./inp_files/1277.got.cif
#   From: 2010.05.17/outbox.cif.g08.bks.cpg/sg135_1_cif.got.tgz:1277.got - 2010.05.20 12:50:20.
