data_PCOD9568405
_publ_section_title
;
Structure prediction by ZEFSAII (Michael W. Deem and Ramdas Pophale) SiO2 
 PCOD9568405
Probable space group: P 42/N N M
;
_chemical_formula_sum "Si O2"
_cell_formula_units_Z 64
_cell_length_a 14.172219
_cell_length_b 14.172219
_cell_length_c 16.339330
_cell_angle_alpha 90.000000
_cell_angle_beta 90.000000
_cell_angle_gamma 90.000000
_cell_volume 3281.783701
_symmetry_space_group_name_H-M "P 42/N N M"
_symmetry_group_IT_number 134
_space_group.IT_coordinate_system_code '2'
_symmetry_cell_setting 'tetragonal'
loop_
_space_group_symop_operation_xyz
x,y,z
1/2-y,x,1/2+z
1/2-x,1/2-y,z
y,1/2-x,1/2+z
x,1/2-y,1/2-z
1/2-x,y,1/2-z
y,x,-z
1/2-y,1/2-x,-z
-x,-y,-z
1/2+y,-x,1/2-z
1/2+x,1/2+y,-z
-y,1/2+x,1/2-z
-x,1/2+y,1/2+z
1/2+x,-y,1/2+z
-y,-x,z
1/2+y,1/2+x,z
loop_
_atom_site_type_symbol
_atom_site_label
_atom_site_fract_x
_atom_site_fract_y
_atom_site_fract_z
Si Si1 0.965447 0.878959 0.418002
Si Si2 0.551090 0.597446 0.905762
Si Si3 0.727168 0.854194 0.155198
Si Si4 0.954239 0.298321 0.660166
O O1 0.907968 0.907968 0.500000
O O2 0.882641 0.872038 0.352909
O O3 0.023843 0.781851 0.407914
O O4 0.037723 0.962278 0.401540
O O5 0.448580 0.551421 0.891220
O O6 0.568600 0.706440 0.887150
O O7 0.625755 0.538261 0.851029
O O8 0.577046 0.577046 0.000000
O O9 0.750000 0.750000 0.119519
O O10 0.750000 0.852677 0.250000
O O11 0.953503 0.250000 0.750000
O O12 0.857753 0.357753 0.648395
#
# Coordination Sequence:
#
# PCOD9568405 Si02
#       4
#    16  16  16  16
#     4  11  24  40  59  87 123 162 200 246 305 365
#     4  10  21  37  60  88 117 156 204 251 299 357
#     4  11  22  36  58  87 116 153 196 239 296 354
#     4  11  22  38  62  93 126 160 199 250 317 382
#
# _framework density 19.501591000000001
#
# number of rings (size 3 to 8) (size 9 to 14) (size 15 to 20)
#    0.000    1.250    2.500    3.750    0.000    4.750 
#    0.000    0.000    0.000    2.250    0.000    1.750 
#    0.000    0.000    0.000    0.000    0.000    0.000 
#
# Total GULP energy -357267.410082 kJ/mol
# GULP energy per Si atom -5582.303283 kJ/mol
# Density = 1.945720 g / cm^3
# Si number density = 19.501591 Si / 1000 Ang^3
#
#
#
# Elastic Constant Matrix: (Units=GPa)
#
#
# Indices 1 2 3 4 5 6 
#
# 1 73.5398 27.9392 34.2686 0.0000 0.0000 0.0000
# 2 27.9392 73.5398 34.2686 0.0000 0.0000 0.0000
# 3 34.2686 34.2686 54.9231 0.0000 0.0000 0.0000
# 4 0.0000 0.0000 0.0000 18.8136 0.0000 0.0000
# 5 0.0000 0.0000 0.0000 0.0000 18.8136 0.0000
# 6 0.0000 0.0000 0.0000 0.0000 0.0000 20.6273
#
#
#
# Elastic Compliance Matrix: (Units=1/GPa)
#
#
# Indices 1 2 3 4 5 6 
#
# 1 0.019480 -0.002449 -0.010626 0.000000 0.000000 0.000000
# 2 -0.002449 0.019480 -0.010626 0.000000 0.000000 0.000000
# 3 -0.010626 -0.010626 0.031468 0.000000 0.000000 0.000000
# 4 0.000000 0.000000 0.000000 0.053153 0.000000 0.000000
# 5 0.000000 0.000000 0.000000 0.000000 0.053153 0.000000
# 6 0.000000 0.000000 0.000000 0.000000 0.000000 0.048479
#
#
# Mechanical properties :
#
#
# Convention : Reuss Voigt Hill
#
# Bulk Modulus (GPa) = 43.43208 43.88393 43.65801
# Shear Modulus (GPa) = 17.83851 18.68599 18.26225
#
# Velocity S-wave (km/s) = 3.02772 3.09880 3.06347
# Velocity P-wave (km/s) = 5.87726 5.94601 5.91173
#
# Compressibility (1/GPa) = 0.02302446
#
# Stress axis : x y z
#
# Youngs Moduli (GPa) = 51.33382 51.33382 31.77866
#
# Poissons Ratio (x) = 0.12573 0.33769
# Poissons Ratio (y) = 0.12573 0.33769
# Poissons Ratio (z) = 0.54549 0.54549
#
# Static dielectric constant tensor:
#      x y z
#    x 1.695160 0.000000 0.000000 
#    y 0.000000 1.695160 0.000000 
#    z 0.000000 0.000000 1.712030 
# 
# From -- ./inp_files/6091.got.cif
#   From: 2010.05.17/outbox.cif.g08.bks.cpg/sg134_4_cif.got.tgz:6091.got - 2010.05.20 12:42:49.
