data_PCOD9568689
_publ_section_title
;
Structure prediction by ZEFSAII (Michael W. Deem and Ramdas Pophale) SiO2 
 PCOD9568689
Probable space group: P 42/M B C
;
_chemical_formula_sum "Si O2"
_cell_formula_units_Z 80
_cell_length_a 16.680867
_cell_length_b 16.680867
_cell_length_c 15.553793
_cell_angle_alpha 90.000000
_cell_angle_beta 90.000000
_cell_angle_gamma 90.000000
_cell_volume 4327.863493
_symmetry_space_group_name_H-M "P 42/M B C"
_symmetry_group_IT_number 135
_symmetry_cell_setting 'tetragonal'
loop_
_space_group_symop_operation_xyz
x,y,z
-y,x,1/2+z
-x,-y,z
y,-x,1/2+z
1/2+x,1/2-y,-z
1/2-x,1/2+y,-z
1/2+y,1/2+x,1/2-z
1/2-y,1/2-x,1/2-z
-x,-y,-z
y,-x,1/2-z
x,y,-z
-y,x,1/2-z
1/2-x,1/2+y,z
1/2+x,1/2-y,z
1/2-y,1/2-x,1/2+z
1/2+y,1/2+x,1/2+z
loop_
_atom_site_type_symbol
_atom_site_label
_atom_site_fract_x
_atom_site_fract_y
_atom_site_fract_z
Si Si1 0.001156 0.866582 0.748540
Si Si2 0.926352 0.392441 0.153784
Si Si3 0.402643 0.927889 0.900385
Si Si4 0.087734 0.222560 0.600193
Si Si5 0.282253 0.585659 0.403776
O O1 0.976353 0.814454 0.666071
O O2 0.075574 0.926050 0.730047
O O3 0.026125 0.812509 0.829433
O O4 0.893835 0.393835 0.250000
O O5 0.901318 0.475652 0.109392
O O6 0.900127 0.311925 0.107220
O O7 0.023475 0.395597 0.154964
O O8 0.315031 0.896136 0.877806
O O9 0.420628 0.908297 0.000000
O O10 0.060777 0.220692 0.500000
O O11 0.166157 0.166783 0.606053
O O12 0.298343 0.554248 0.500000
#
# Coordination Sequence:
#
# PCOD9568689 Si02
#       5
#    16  16  16  16  16
#     4   9  18  33  53  78 108 143 185 226 266 321
#     4  11  21  34  53  77 104 138 178 216 259 316
#     4  10  19  34  54  76 102 135 173 215 263 321
#     4   9  19  35  56  80 109 141 177 225 277 321
#     4  10  20  36  56  80 111 145 179 223 274 321
#
# _framework density 18.484870999999998
#
# number of rings (size 3 to 8) (size 9 to 14) (size 15 to 20)
#    0.000    2.200    0.000    4.800    0.000    0.800 
#    0.000   12.000    0.000    2.400    0.000    0.000 
#    0.000    0.000    0.000    0.000    0.000    0.000 
#
# Total GULP energy -446392.603521 kJ/mol
# GULP energy per Si atom -5579.907544 kJ/mol
# Density = 1.844280 g / cm^3
# Si number density = 18.484871 Si / 1000 Ang^3
#
#
#
# Elastic Constant Matrix: (Units=GPa)
#
#
# Indices 1 2 3 4 5 6 
#
# 1 73.5062 16.2415 37.9822 0.0000 0.0000 0.0000
# 2 16.2415 73.5062 37.9822 0.0000 0.0000 0.0000
# 3 37.9822 37.9822 83.4805 0.0000 0.0000 0.0000
# 4 0.0000 0.0000 0.0000 24.0403 0.0000 0.0000
# 5 0.0000 0.0000 0.0000 0.0000 24.0403 0.0000
# 6 0.0000 0.0000 0.0000 0.0000 0.0000 4.9786
#
#
#
# Elastic Compliance Matrix: (Units=1/GPa)
#
#
# Indices 1 2 3 4 5 6 
#
# 1 0.017792 0.000329 -0.008245 0.000000 0.000000 0.000000
# 2 0.000329 0.017792 -0.008245 0.000000 0.000000 0.000000
# 3 -0.008245 -0.008245 0.019481 0.000000 0.000000 0.000000
# 4 0.000000 0.000000 0.000000 0.041597 0.000000 0.000000
# 5 0.000000 0.000000 0.000000 0.000000 0.041597 0.000000
# 6 0.000000 0.000000 0.000000 0.000000 0.000000 0.200858
#
#
# Mechanical properties :
#
#
# Convention : Reuss Voigt Hill
#
# Bulk Modulus (GPa) = 43.96728 46.10053 45.03390
# Shear Modulus (GPa) = 13.19198 19.83096 16.51147
#
# Velocity S-wave (km/s) = 2.67435 3.27895 2.99196
# Velocity P-wave (km/s) = 5.77697 6.27129 6.02920
#
# Compressibility (1/GPa) = 0.02274419
#
# Stress axis : x y z
#
# Youngs Moduli (GPa) = 56.20565 56.20565 51.33147
#
# Poissons Ratio (x) = -0.01849 0.42321
# Poissons Ratio (y) = -0.01849 0.42321
# Poissons Ratio (z) = 0.46340 0.46340
#
# Static dielectric constant tensor:
#      x y z
#    x 1.624560 0.000000 0.000000 
#    y 0.000000 1.624560 0.000000 
#    z 0.000000 0.000000 1.640840 
# 
# From -- ./inp_files/3420.got.cif
#   From: 2010.05.17/outbox.cif.g08.bks.cpg/sg135_2_cif.got.tgz:3420.got - 2010.05.20 12:50:20.
