data_PCOD9568163
_publ_section_title
;
Structure prediction by ZEFSAII (Michael W. Deem and Ramdas Pophale) SiO2 
 PCOD9568163
Probable space group: P 42/N N M
;
_chemical_formula_sum "Si O2"
_cell_formula_units_Z 64
_cell_length_a 21.720622
_cell_length_b 21.720622
_cell_length_c 8.780183
_cell_angle_alpha 90.000000
_cell_angle_beta 90.000000
_cell_angle_gamma 90.000000
_cell_volume 4142.362325
_symmetry_space_group_name_H-M "P 42/N N M"
_symmetry_group_IT_number 134
_space_group.IT_coordinate_system_code '2'
_symmetry_cell_setting 'tetragonal'
loop_
_space_group_symop_operation_xyz
x,y,z
1/2-y,x,1/2+z
1/2-x,1/2-y,z
y,1/2-x,1/2+z
x,1/2-y,1/2-z
1/2-x,y,1/2-z
y,x,-z
1/2-y,1/2-x,-z
-x,-y,-z
1/2+y,-x,1/2-z
1/2+x,1/2+y,-z
-y,1/2+x,1/2-z
-x,1/2+y,1/2+z
1/2+x,-y,1/2+z
-y,-x,z
1/2+y,1/2+x,z
loop_
_atom_site_type_symbol
_atom_site_label
_atom_site_fract_x
_atom_site_fract_y
_atom_site_fract_z
Si Si1 0.564644 0.690442 0.352394
Si Si2 0.357379 0.266980 0.079167
Si Si3 0.998641 0.400608 0.056958
Si Si4 0.887267 0.575178 0.347270
O O1 0.548730 0.750000 0.250000
O O2 0.615461 0.713648 0.473833
O O3 0.510886 0.658735 0.451857
O O4 0.592145 0.636468 0.245974
O O5 0.340119 0.250000 0.250000
O O6 0.411063 0.318206 0.097152
O O7 0.301013 0.301013 0.000000
O O8 0.018816 0.389079 0.231062
O O9 0.932582 0.432582 0.043772
O O10 0.048604 0.451397 0.000000
O O11 0.928191 0.571810 0.500000
#
# Coordination Sequence:
#
# PCOD9568163 Si02
#       4
#    16  16  16  16
#     4  11  19  32  50  68  95 128 161 203 252 291
#     4  11  21  33  47  65  94 132 167 211 240 292
#     4   9  19  33  50  67  91 125 165 207 247 291
#     4  10  19  31  48  68  94 124 170 206 247 295
#
# _framework density 15.45012
#
# number of rings (size 3 to 8) (size 9 to 14) (size 15 to 20)
#    0.000    1.750    7.500    0.000    0.000    0.500 
#    0.000    7.500    0.000    0.000    0.000    0.000 
#    0.000    0.500    0.000    0.750    0.000    0.000 
#
# Total GULP energy -356955.958390 kJ/mol
# GULP energy per Si atom -5577.436850 kJ/mol
# Density = 1.541496 g / cm^3
# Si number density = 15.450120 Si / 1000 Ang^3
#
#
#
# Elastic Constant Matrix: (Units=GPa)
#
#
# Indices 1 2 3 4 5 6 
#
# 1 26.7286 71.8582 39.3794 0.0000 0.0000 0.0000
# 2 71.8582 26.7274 39.3810 0.0000 0.0000 0.0000
# 3 39.3794 39.3810 132.2688 0.0000 0.0000 0.0000
# 4 0.0000 0.0000 0.0000 17.1816 0.0000 0.0000
# 5 0.0000 0.0000 0.0000 0.0000 17.1818 0.0000
# 6 0.0000 0.0000 0.0000 0.0000 0.0000 31.4891
#
#
#
# Elastic Compliance Matrix: (Units=1/GPa)
#
#
# Indices 1 2 3 4 5 6 
#
# 1 -0.004424 0.017734 -0.003963 0.000000 0.000000 0.000000
# 2 0.017734 -0.004425 -0.003962 0.000000 0.000000 0.000000
# 3 -0.003963 -0.003962 0.009920 0.000000 0.000000 0.000000
# 4 0.000000 0.000000 0.000000 0.058202 0.000000 0.000000
# 5 0.000000 0.000000 0.000000 0.000000 0.058201 0.000000
# 6 0.000000 0.000000 0.000000 0.000000 0.000000 0.031757
#
#
# Mechanical properties :
#
#
# Convention : Reuss Voigt Hill
#
# Bulk Modulus (GPa) = 48.33721 54.10688 51.22205
# Shear Modulus (GPa) = 36.62751 15.51092 26.06921
#
# Velocity S-wave (km/s) = 4.87426 3.17193 4.11215
# Velocity P-wave (km/s) = 7.93926 6.96500 7.46803
#
# Compressibility (1/GPa) = 0.02068800
#
# Stress axis : x y z
#
# Youngs Moduli (GPa) = -226.02916 -225.99646 100.80801
#
# Poissons Ratio (x) = 4.00772 0.39947
# Poissons Ratio (y) = 4.00830 0.39943
# Poissons Ratio (z) = -0.89569 -0.89545
#
# Static dielectric constant tensor:
#      x y z
#    x 1.522010 0.000000 0.000000 
#    y 0.000000 1.522010 0.000000 
#    z 0.000000 0.000000 1.580900 
# 
# From -- ./inp_files/2704.got.cif
#   From: 2010.05.17/outbox.cif.g08.bks.cpg/sg134_2_cif.got.tgz:2704.got - 2010.05.20 12:42:49.
