data_PCOD9568895
_publ_section_title
;
Structure prediction by ZEFSAII (Michael W. Deem and Ramdas Pophale) SiO2 
 PCOD9568895
Probable space group: P 42/M B C
;
_chemical_formula_sum "Si O2"
_cell_formula_units_Z 72
_cell_length_a 9.758733
_cell_length_b 9.758733
_cell_length_c 27.691671
_cell_angle_alpha 90.000000
_cell_angle_beta 90.000000
_cell_angle_gamma 90.000000
_cell_volume 2637.157298
_symmetry_space_group_name_H-M "P 42/M B C"
_symmetry_group_IT_number 135
_symmetry_cell_setting 'tetragonal'
loop_
_space_group_symop_operation_xyz
x,y,z
-y,x,1/2+z
-x,-y,z
y,-x,1/2+z
1/2+x,1/2-y,-z
1/2-x,1/2+y,-z
1/2+y,1/2+x,1/2-z
1/2-y,1/2-x,1/2-z
-x,-y,-z
y,-x,1/2-z
x,y,-z
-y,x,1/2-z
1/2-x,1/2+y,z
1/2+x,1/2-y,z
1/2-y,1/2-x,1/2+z
1/2+y,1/2+x,1/2+z
loop_
_atom_site_type_symbol
_atom_site_label
_atom_site_fract_x
_atom_site_fract_y
_atom_site_fract_z
Si Si1 0.175298 0.324703 0.750000
Si Si2 0.927461 0.686046 0.395534
Si Si3 0.420589 0.277610 0.313984
Si Si4 0.498326 0.329709 0.107955
Si Si5 0.472583 0.307293 0.000000
Si Si6 0.823529 0.570079 0.000000
O O1 0.233743 0.474242 0.769188
O O2 0.271305 0.277413 0.706974
O O3 0.819231 0.565714 0.391789
O O4 0.997635 0.687733 0.447889
O O5 0.035107 0.669729 0.353320
O O6 0.850699 0.834166 0.387697
O O7 0.404324 0.413407 0.349405
O O8 0.525517 0.366704 0.051130
O O9 0.535852 0.155580 0.000000
O O10 0.308163 0.325155 0.000000
#
# Coordination Sequence:
#
# PCOD9568895 Si02
#       6
#     8  16  16  16   8   8
#     4  12  32  48  76  98 138 182 244 304 364 430
#     4  10  21  41  71 107 146 190 234 292 356 434
#     4  12  27  50  71 104 138 184 241 300 364 419
#     4  10  21  41  71 107 146 190 234 292 356 434
#     4   8  16  33  63 104 145 183 231 280 348 428
#     4   8  16  33  63 104 145 183 231 280 348 428
#
# _framework density 27.302123999999999
#
# number of rings (size 3 to 8) (size 9 to 14) (size 15 to 20)
#    0.000    1.778    2.222    0.667    6.222    1.333 
#    4.000    3.333    0.000    0.000    0.000   15.556 
#    0.000    0.000    0.000    0.000    0.000    0.000 
#
# Total GULP energy -400868.362600 kJ/mol
# GULP energy per Si atom -5567.616147 kJ/mol
# Density = 2.723998 g / cm^3
# Si number density = 27.302124 Si / 1000 Ang^3
#
#
#
# Elastic Constant Matrix: (Units=GPa)
#
#
# Indices 1 2 3 4 5 6 
#
# 1 102.0029 29.9875 19.0080 0.0000 0.0000 0.0000
# 2 29.9875 102.0027 19.0071 0.0000 0.0000 0.0000
# 3 19.0080 19.0071 144.6154 0.0000 0.0000 0.0000
# 4 0.0000 0.0000 0.0000 86.8041 0.0000 0.0000
# 5 0.0000 0.0000 0.0000 0.0000 86.8041 0.0000
# 6 0.0000 0.0000 0.0000 0.0000 0.0000 41.9994
#
#
#
# Elastic Compliance Matrix: (Units=1/GPa)
#
#
# Indices 1 2 3 4 5 6 
#
# 1 0.010880 -0.003006 -0.001035 0.000000 0.000000 0.000000
# 2 -0.003006 0.010880 -0.001035 0.000000 0.000000 0.000000
# 3 -0.001035 -0.001035 0.007187 0.000000 0.000000 0.000000
# 4 0.000000 0.000000 0.000000 0.011520 0.000000 0.000000
# 5 0.000000 0.000000 0.000000 0.000000 0.011520 0.000000
# 6 0.000000 0.000000 0.000000 0.000000 0.000000 0.023810
#
#
# Mechanical properties :
#
#
# Convention : Reuss Voigt Hill
#
# Bulk Modulus (GPa) = 53.20319 53.84736 53.52527
# Shear Modulus (GPa) = 54.22154 61.82942 58.02548
#
# Velocity S-wave (km/s) = 4.46127 4.76398 4.61511
# Velocity P-wave (km/s) = 6.78722 7.07293 6.93155
#
# Compressibility (1/GPa) = 0.01879587
#
# Stress axis : x y z
#
# Youngs Moduli (GPa) = 91.91032 91.91035 139.14099
#
# Poissons Ratio (x) = 0.27626 0.14401
# Poissons Ratio (y) = 0.27626 0.14400
# Poissons Ratio (z) = 0.09513 0.09512
#
# Static dielectric constant tensor:
#      x y z
#    x 2.362070 0.000000 0.000000 
#    y 0.000000 2.362070 0.000000 
#    z 0.000000 0.000000 2.205590 
# 
# From -- ./inp_files/6658.got.cif
#   From: 2010.05.17/outbox.cif.g08.bks.cpg/sg135_4_cif.got.tgz:6658.got - 2010.05.20 12:50:20.
