data_PCOD9568574
_publ_section_title
;
Structure prediction by ZEFSAII (Michael W. Deem and Ramdas Pophale) SiO2 
 PCOD9568574
Probable space group: P 42/N N M
;
_chemical_formula_sum "Si O2"
_cell_formula_units_Z 56
_cell_length_a 10.540085
_cell_length_b 10.540085
_cell_length_c 23.304620
_cell_angle_alpha 90.000000
_cell_angle_beta 90.000000
_cell_angle_gamma 90.000000
_cell_volume 2588.989281
_symmetry_space_group_name_H-M "P 42/N N M"
_symmetry_group_IT_number 134
_space_group.IT_coordinate_system_code '2'
_symmetry_cell_setting 'tetragonal'
loop_
_space_group_symop_operation_xyz
x,y,z
1/2-y,x,1/2+z
1/2-x,1/2-y,z
y,1/2-x,1/2+z
x,1/2-y,1/2-z
1/2-x,y,1/2-z
y,x,-z
1/2-y,1/2-x,-z
-x,-y,-z
1/2+y,-x,1/2-z
1/2+x,1/2+y,-z
-y,1/2+x,1/2-z
-x,1/2+y,1/2+z
1/2+x,-y,1/2+z
-y,-x,z
1/2+y,1/2+x,z
loop_
_atom_site_type_symbol
_atom_site_label
_atom_site_fract_x
_atom_site_fract_y
_atom_site_fract_z
Si Si1 0.250000 0.964044 0.750000
Si Si2 0.754160 0.956154 0.487673
Si Si3 0.346199 0.062694 0.865964
Si Si4 0.742416 0.051316 0.608493
O O1 0.370469 0.870469 0.741608
O O2 0.274870 0.047243 0.806281
O O3 0.887455 0.887455 0.500000
O O4 0.642934 0.857067 0.500000
O O5 0.759332 0.978917 0.420019
O O6 0.742893 0.053945 0.539048
O O7 0.413408 0.200651 0.874782
O O8 0.460445 0.960445 0.866183
O O9 0.846164 0.153837 0.628957
O O10 0.605292 0.105292 0.627625
#
# Coordination Sequence:
#
# PCOD9568574 Si02
#       4
#     8  16  16  16
#     4   9  18  32  52  79 108 140 180 226 282 342
#     4   9  17  29  47  73 105 137 172 216 267 316
#     4   9  17  31  51  77 110 142 174 219 270 320
#     4   9  17  29  47  73 105 143 183 217 256 313
#
# _framework density 21.630061999999999
#
# number of rings (size 3 to 8) (size 9 to 14) (size 15 to 20)
#    0.000    3.000    0.000    0.857    0.000    5.143 
#    0.000    2.857    0.000   13.714    0.000    8.000 
#    0.000   11.429    0.000    0.571    0.000    2.571 
#
# Total GULP energy -311887.499503 kJ/mol
# GULP energy per Si atom -5569.419634 kJ/mol
# Density = 2.158083 g / cm^3
# Si number density = 21.630062 Si / 1000 Ang^3
#
#
#
# Elastic Constant Matrix: (Units=GPa)
#
#
# Indices 1 2 3 4 5 6 
#
# 1 40.0160 46.0452 37.7462 0.0000 0.0000 0.0000
# 2 46.0452 40.0176 37.7474 0.0000 0.0000 0.0000
# 3 37.7462 37.7474 165.1874 0.0000 0.0000 0.0000
# 4 0.0000 0.0000 0.0000 21.7438 0.0000 0.0000
# 5 0.0000 0.0000 0.0000 0.0000 21.7438 0.0000
# 6 0.0000 0.0000 0.0000 0.0000 0.0000 19.1638
#
#
#
# Elastic Compliance Matrix: (Units=1/GPa)
#
#
# Indices 1 2 3 4 5 6 
#
# 1 -0.075676 0.090207 -0.003321 0.000000 0.000000 0.000000
# 2 0.090207 -0.075673 -0.003321 0.000000 0.000000 0.000000
# 3 -0.003321 -0.003321 0.007571 0.000000 0.000000 0.000000
# 4 0.000000 0.000000 0.000000 0.045990 0.000000 0.000000
# 5 0.000000 0.000000 0.000000 0.000000 0.045990 0.000000
# 6 0.000000 0.000000 0.000000 0.000000 0.000000 0.052182
#
#
# Mechanical properties :
#
#
# Convention : Reuss Voigt Hill
#
# Bulk Modulus (GPa) = 42.82060 54.25539 48.53799
# Shear Modulus (GPa) = -31.45415 20.77575 -5.33920
#
# Velocity S-wave (km/s) = -3.81752 3.10256 -1.57282
# Velocity P-wave (km/s) = 0.63916 6.16217 4.38069
#
# Compressibility (1/GPa) = 0.02335325
#
# Stress axis : x y z
#
# Youngs Moduli (GPa) = -13.21428 -13.21475 132.07588
#
# Poissons Ratio (x) = 1.19206 0.43863
# Poissons Ratio (y) = 1.19202 0.43857
# Poissons Ratio (z) = -0.04389 -0.04388
#
# Static dielectric constant tensor:
#      x y z
#    x 1.831990 0.000000 0.000000 
#    y 0.000000 1.831990 0.000000 
#    z 0.000000 0.000000 1.785790 
# 
# From -- ./inp_files/8560.got.cif
#   From: 2010.05.17/outbox.cif.g08.bks.cpg/sg134_5_cif.got.tgz:8560.got - 2010.05.20 12:42:49.
