data_PCOD9568053
_publ_section_title
;
Structure prediction by ZEFSAII (Michael W. Deem and Ramdas Pophale) SiO2 
 PCOD9568053
Probable space group: P 42/N B C
;
_chemical_formula_sum "Si O2"
_cell_formula_units_Z 36
_cell_length_a 9.363703
_cell_length_b 9.363703
_cell_length_c 15.504329
_cell_angle_alpha 90.000000
_cell_angle_beta 90.000000
_cell_angle_gamma 90.000000
_cell_volume 1359.403037
_symmetry_space_group_name_H-M "P 42/N B C"
_symmetry_group_IT_number 133
_space_group.IT_coordinate_system_code '2'
_symmetry_cell_setting 'tetragonal'
loop_
_space_group_symop_operation_xyz
x,y,z
1/2-y,x,1/2+z
1/2-x,1/2-y,z
y,1/2-x,1/2+z
x,1/2-y,-z
1/2-x,y,-z
y,x,1/2-z
1/2-y,1/2-x,1/2-z
-x,-y,-z
1/2+y,-x,1/2-z
1/2+x,1/2+y,-z
-y,1/2+x,1/2-z
-x,1/2+y,z
1/2+x,-y,z
-y,-x,1/2+z
1/2+y,1/2+x,1/2+z
loop_
_atom_site_type_symbol
_atom_site_label
_atom_site_fract_x
_atom_site_fract_y
_atom_site_fract_z
Si Si1 0.829233 0.987737 0.672082
Si Si2 0.750000 0.250000 0.250000
Si Si3 0.614274 0.572970 0.061935
O O1 0.715584 0.109975 0.697042
O O2 0.961253 0.088526 0.640631
O O3 0.732885 0.907626 0.599799
O O4 0.884768 0.884768 0.750000
O O5 0.750000 0.559660 0.000000
O O6 0.500000 0.500000 0.000000
#
# Coordination Sequence:
#
# PCOD9568053 Si02
#       3
#    16   4  16
#     4  12  27  54  89 126 176 233 300 364 444 535
#     4  12  24  56  82 124 172 224 302 360 424 516
#     4  12  29  55  83 128 174 228 290 370 450 523
#
# _framework density 26.482213000000002
#
# number of rings (size 3 to 8) (size 9 to 14) (size 15 to 20)
#    0.000    0.000    4.444    4.000    0.000    5.333 
#    8.000    0.000    0.000    0.000    0.000    0.000 
#    0.000    0.000    0.000    0.000    0.000    0.000 
#
# Total GULP energy -200676.065830 kJ/mol
# GULP energy per Si atom -5574.335162 kJ/mol
# Density = 2.642194 g / cm^3
# Si number density = 26.482213 Si / 1000 Ang^3
#
#
#
# Elastic Constant Matrix: (Units=GPa)
#
#
# Indices 1 2 3 4 5 6 
#
# 1 187.2731 85.3823 81.6867 0.0000 0.0000 0.0000
# 2 85.3823 187.2731 81.6867 0.0000 0.0000 0.0000
# 3 81.6867 81.6867 146.4853 0.0000 0.0000 0.0000
# 4 0.0000 0.0000 0.0000 77.4303 0.0000 0.0000
# 5 0.0000 0.0000 0.0000 0.0000 77.4303 0.0000
# 6 0.0000 0.0000 0.0000 0.0000 0.0000 42.8399
#
#
#
# Elastic Compliance Matrix: (Units=1/GPa)
#
#
# Indices 1 2 3 4 5 6 
#
# 1 0.007661 -0.002153 -0.003072 0.000000 0.000000 0.000000
# 2 -0.002153 0.007661 -0.003072 0.000000 0.000000 0.000000
# 3 -0.003072 -0.003072 0.010252 0.000000 0.000000 0.000000
# 4 0.000000 0.000000 0.000000 0.012915 0.000000 0.000000
# 5 0.000000 0.000000 0.000000 0.000000 0.012915 0.000000
# 6 0.000000 0.000000 0.000000 0.000000 0.000000 0.023343
#
#
# Mechanical properties :
#
#
# Convention : Reuss Voigt Hill
#
# Bulk Modulus (GPa) = 111.33066 113.17145 112.25106
# Shear Modulus (GPa) = 53.00324 57.69182 55.34753
#
# Velocity S-wave (km/s) = 4.47863 4.67252 4.57660
# Velocity P-wave (km/s) = 8.29911 8.48160 8.39085
#
# Compressibility (1/GPa) = 0.00898225
#
# Stress axis : x y z
#
# Youngs Moduli (GPa) = 130.52690 130.52690 97.53914
#
# Poissons Ratio (x) = 0.28105 0.29960
# Poissons Ratio (y) = 0.28105 0.29960
# Poissons Ratio (z) = 0.40092 0.40092
#
# Static dielectric constant tensor:
#      x y z
#    x 2.191100 0.000000 0.000000 
#    y 0.000000 2.191100 0.000000 
#    z 0.000000 0.000000 2.607600 
# 
# From -- ./inp_files/2337.got.cif
#   From: 2010.05.17/outbox.cif.g08.bks.cpg/sg133_2_cif.got.tgz:2337.got - 2010.05.20 12:37:36.
