data_PCOD9568678
_publ_section_title
;
Structure prediction by ZEFSAII (Michael W. Deem and Ramdas Pophale) SiO2 
 PCOD9568678
Probable space group: P 42/M B C
;
_chemical_formula_sum "Si O2"
_cell_formula_units_Z 128
_cell_length_a 19.999869
_cell_length_b 19.999869
_cell_length_c 18.460394
_cell_angle_alpha 90.000000
_cell_angle_beta 90.000000
_cell_angle_gamma 90.000000
_cell_volume 7384.060868
_symmetry_space_group_name_H-M "P 42/M B C"
_symmetry_group_IT_number 135
_symmetry_cell_setting 'tetragonal'
loop_
_space_group_symop_operation_xyz
x,y,z
-y,x,1/2+z
-x,-y,z
y,-x,1/2+z
1/2+x,1/2-y,-z
1/2-x,1/2+y,-z
1/2+y,1/2+x,1/2-z
1/2-y,1/2-x,1/2-z
-x,-y,-z
y,-x,1/2-z
x,y,-z
-y,x,1/2-z
1/2-x,1/2+y,z
1/2+x,1/2-y,z
1/2-y,1/2-x,1/2+z
1/2+y,1/2+x,1/2+z
loop_
_atom_site_type_symbol
_atom_site_label
_atom_site_fract_x
_atom_site_fract_y
_atom_site_fract_z
Si Si1 0.943903 0.448357 0.414536
Si Si2 0.249536 0.710787 0.669996
Si Si3 0.594738 0.807304 0.651226
Si Si4 0.089661 0.837328 0.413959
Si Si5 0.101306 0.023461 0.778329
Si Si6 0.232093 0.069293 0.703105
Si Si7 0.748039 0.660635 0.413855
Si Si8 0.482074 0.800438 0.915749
O O1 0.956941 0.434304 0.500000
O O2 0.936789 0.377051 0.374455
O O3 0.874943 0.489465 0.409955
O O4 0.000000 0.500000 0.387484
O O5 0.239961 0.739961 0.750000
O O6 0.175380 0.688835 0.642937
O O7 0.290512 0.643034 0.677983
O O8 0.274131 0.771094 0.621022
O O9 0.574306 0.740571 0.606193
O O10 0.580076 0.789212 0.735261
O O11 0.080748 0.848453 0.500000
O O12 0.047373 0.885807 0.361097
O O13 0.168864 0.846644 0.395109
O O14 0.172662 0.030929 0.741359
O O15 0.049626 0.071799 0.736116
O O16 0.256852 0.028558 0.635089
O O17 0.751028 0.667327 0.500000
O O18 0.789004 0.594708 0.392793
O O19 0.486450 0.780012 0.000000
#
# Coordination Sequence:
#
# PCOD9568678 Si02
#       8
#    16  16  16  16  16  16  16  16
#     4  10  20  34  52  75 108 147 180 212 264 324
#     4   9  17  30  51  75 101 130 171 221 262 302
#     4   9  17  32  53  78 104 134 178 228 260 305
#     4   9  17  32  57  81 101 136 186 225 258 314
#     4  10  21  37  54  77 110 142 170 215 277 329
#     4  10  19  33  56  77 102 135 180 226 268 323
#     4   9  18  32  51  77 106 136 174 221 268 313
#     4  10  20  34  52  75 107 140 175 221 274 325
#
# _framework density 17.334634999999999
#
# number of rings (size 3 to 8) (size 9 to 14) (size 15 to 20)
#    0.000    2.500    1.250    1.875    0.000    1.000 
#    0.000    6.875    0.000    1.500    0.000    0.000 
#    0.000    0.000    0.000    0.000    0.000    0.000 
#
# Total GULP energy -713108.208189 kJ/mol
# GULP energy per Si atom -5571.157876 kJ/mol
# Density = 1.729518 g / cm^3
# Si number density = 17.334635 Si / 1000 Ang^3
#
#
#
# Elastic Constant Matrix: (Units=GPa)
#
#
# Indices 1 2 3 4 5 6 
#
# 1 55.2287 18.3346 28.9630 0.0000 0.0000 0.0000
# 2 18.3346 55.2287 28.9630 0.0000 0.0000 0.0000
# 3 28.9630 28.9630 66.7289 0.0000 0.0000 0.0000
# 4 0.0000 0.0000 0.0000 16.5247 0.0000 0.0000
# 5 0.0000 0.0000 0.0000 0.0000 16.5247 0.0000
# 6 0.0000 0.0000 0.0000 0.0000 0.0000 21.6943
#
#
#
# Elastic Compliance Matrix: (Units=1/GPa)
#
#
# Indices 1 2 3 4 5 6 
#
# 1 0.023878 -0.003226 -0.008964 0.000000 0.000000 0.000000
# 2 -0.003226 0.023878 -0.008964 0.000000 0.000000 0.000000
# 3 -0.008964 -0.008964 0.022767 0.000000 0.000000 0.000000
# 4 0.000000 0.000000 0.000000 0.060516 0.000000 0.000000
# 5 0.000000 0.000000 0.000000 0.000000 0.060516 0.000000
# 6 0.000000 0.000000 0.000000 0.000000 0.000000 0.046095
#
#
# Mechanical properties :
#
#
# Convention : Reuss Voigt Hill
#
# Bulk Modulus (GPa) = 35.44058 36.63415 36.03737
# Shear Modulus (GPa) = 17.27928 17.67709 17.47819
#
# Velocity S-wave (km/s) = 3.16065 3.19683 3.17879
# Velocity P-wave (km/s) = 5.81455 5.89963 5.85724
#
# Compressibility (1/GPa) = 0.02821624
#
# Stress axis : x y z
#
# Youngs Moduli (GPa) = 41.87888 41.87888 43.92255
#
# Poissons Ratio (x) = 0.13511 0.39372
# Poissons Ratio (y) = 0.13511 0.39372
# Poissons Ratio (z) = 0.37540 0.37540
#
# Static dielectric constant tensor:
#      x y z
#    x 1.593740 0.000000 0.000000 
#    y 0.000000 1.593740 0.000000 
#    z 0.000000 0.000000 1.593690 
# 
# From -- ./inp_files/4750.got.cif
#   From: 2010.05.17/outbox.cif.g08.bks.cpg/sg135_3_cif.got.tgz:4750.got - 2010.05.20 12:50:20.
