data_PCOD9568019
_publ_section_title
;
Structure prediction by ZEFSAII (Michael W. Deem and Ramdas Pophale) SiO2 
 PCOD9568019
Probable space group: P 42/N B C
;
_chemical_formula_sum "Si O2"
_cell_formula_units_Z 32
_cell_length_a 10.022283
_cell_length_b 10.022283
_cell_length_c 11.979165
_cell_angle_alpha 90.000000
_cell_angle_beta 90.000000
_cell_angle_gamma 90.000000
_cell_volume 1203.261083
_symmetry_space_group_name_H-M "P 42/N B C"
_symmetry_group_IT_number 133
_space_group.IT_coordinate_system_code '2'
_symmetry_cell_setting 'tetragonal'
loop_
_space_group_symop_operation_xyz
x,y,z
1/2-y,x,1/2+z
1/2-x,1/2-y,z
y,1/2-x,1/2+z
x,1/2-y,-z
1/2-x,y,-z
y,x,1/2-z
1/2-y,1/2-x,1/2-z
-x,-y,-z
1/2+y,-x,1/2-z
1/2+x,1/2+y,-z
-y,1/2+x,1/2-z
-x,1/2+y,z
1/2+x,-y,z
-y,-x,1/2+z
1/2+y,1/2+x,1/2+z
loop_
_atom_site_type_symbol
_atom_site_label
_atom_site_fract_x
_atom_site_fract_y
_atom_site_fract_z
Si Si1 0.147641 0.984985 0.601510
Si Si2 0.230636 0.041050 0.177445
O O1 0.250000 0.972614 0.500000
O O2 0.098402 0.138002 0.617084
O O3 0.213535 0.952537 0.721120
O O4 0.029616 0.876793 0.598182
O O5 0.149106 0.149106 0.250000
#
# Coordination Sequence:
#
# PCOD9568019 Si02
#       2
#    16  16
#     4  11  26  53  84 122 175 231 285 363 436 512
#     4  11  24  54  82 124 175 221 293 359 429 524
#
# _framework density 26.594393
#
# number of rings (size 3 to 8) (size 9 to 14) (size 15 to 20)
#    0.000    1.000    5.000    3.000    0.000    7.000 
#   18.000    5.000    0.000    0.000    0.000    0.000 
#    0.000    0.000    0.000    0.000    0.000    0.000 
#
# Total GULP energy -179249.362740 kJ/mol
# GULP energy per Si atom -5601.542586 kJ/mol
# Density = 2.653386 g / cm^3
# Si number density = 26.594393 Si / 1000 Ang^3
#
#
#
# Elastic Constant Matrix: (Units=GPa)
#
#
# Indices 1 2 3 4 5 6 
#
# 1 180.5039 158.9339 89.1841 0.0000 0.0000 0.0000
# 2 158.9339 180.5039 89.1841 0.0000 0.0000 0.0000
# 3 89.1841 89.1841 171.8857 0.0000 0.0000 0.0000
# 4 0.0000 0.0000 0.0000 22.9726 0.0000 0.0000
# 5 0.0000 0.0000 0.0000 0.0000 22.9726 0.0000
# 6 0.0000 0.0000 0.0000 0.0000 0.0000 72.2083
#
#
#
# Elastic Compliance Matrix: (Units=1/GPa)
#
#
# Indices 1 2 3 4 5 6 
#
# 1 0.025206 -0.021155 -0.002102 0.000000 0.000000 0.000000
# 2 -0.021155 0.025206 -0.002102 0.000000 0.000000 0.000000
# 3 -0.002102 -0.002102 0.007999 0.000000 0.000000 0.000000
# 4 0.000000 0.000000 0.000000 0.043530 0.000000 0.000000
# 5 0.000000 0.000000 0.000000 0.000000 0.043530 0.000000
# 6 0.000000 0.000000 0.000000 0.000000 0.000000 0.013849
#
#
# Mechanical properties :
#
#
# Convention : Reuss Voigt Hill
#
# Bulk Modulus (GPa) = 129.98600 134.16641 132.07620
# Shear Modulus (GPa) = 23.51838 36.67013 30.09425
#
# Velocity S-wave (km/s) = 2.97700 3.71734 3.36758
# Velocity P-wave (km/s) = 7.79744 8.30563 8.05554
#
# Compressibility (1/GPa) = 0.00769314
#
# Stress axis : x y z
#
# Youngs Moduli (GPa) = 39.67382 39.67382 125.02110
#
# Poissons Ratio (x) = 0.83931 0.26274
# Poissons Ratio (y) = 0.83931 0.26274
# Poissons Ratio (z) = 0.08338 0.08338
#
# Static dielectric constant tensor:
#      x y z
#    x 2.240760 0.000000 0.000000 
#    y 0.000000 2.240760 0.000000 
#    z 0.000000 0.000000 2.059670 
# 
# From -- ./inp_files/2239.got.cif
#   From: 2010.05.17/outbox.cif.g08.bks.cpg/sg133_2_cif.got.tgz:2239.got - 2010.05.20 12:37:36.
