data_PCOD9568253
_publ_section_title
;
Structure prediction by ZEFSAII (Michael W. Deem and Ramdas Pophale) SiO2 
 PCOD9568253
Probable space group: P 42/N N M
;
_chemical_formula_sum "Si O2"
_cell_formula_units_Z 64
_cell_length_a 11.551819
_cell_length_b 11.551819
_cell_length_c 30.106983
_cell_angle_alpha 90.000000
_cell_angle_beta 90.000000
_cell_angle_gamma 90.000000
_cell_volume 4017.611962
_symmetry_space_group_name_H-M "P 42/N N M"
_symmetry_group_IT_number 134
_space_group.IT_coordinate_system_code '2'
_symmetry_cell_setting 'tetragonal'
loop_
_space_group_symop_operation_xyz
x,y,z
1/2-y,x,1/2+z
1/2-x,1/2-y,z
y,1/2-x,1/2+z
x,1/2-y,1/2-z
1/2-x,y,1/2-z
y,x,-z
1/2-y,1/2-x,-z
-x,-y,-z
1/2+y,-x,1/2-z
1/2+x,1/2+y,-z
-y,1/2+x,1/2-z
-x,1/2+y,1/2+z
1/2+x,-y,1/2+z
-y,-x,z
1/2+y,1/2+x,z
loop_
_atom_site_type_symbol
_atom_site_label
_atom_site_fract_x
_atom_site_fract_y
_atom_site_fract_z
Si Si1 0.877468 0.122533 0.004369
Si Si2 0.443945 0.753046 0.801082
Si Si3 0.978787 0.478787 0.579386
Si Si4 0.523082 0.661706 0.534297
Si Si5 0.880372 0.707519 0.620150
O O1 0.950333 0.049668 0.041301
O O2 0.900753 0.099248 0.952559
O O3 0.928508 0.249801 0.013812
O O4 0.485147 0.750000 0.750000
O O5 0.351251 0.648750 0.806124
O O6 0.370180 0.870180 0.807965
O O7 0.542207 0.737834 0.837300
O O8 0.072659 0.406006 0.607606
O O9 0.623439 0.623439 0.500000
O O10 0.454613 0.545388 0.546576
O O11 0.575087 0.721932 0.577342
O O12 0.750000 0.750000 0.627689
#
# Coordination Sequence:
#
# PCOD9568253 Si02
#       5
#     8  16   8  16  16
#     4   9  17  30  46  64  91 131 172 214 259 291
#     4   9  18  34  55  77 103 132 166 217 272 319
#     4   9  18  30  44  68  98 130 172 210 251 312
#     4  10  20  32  46  68  97 133 177 219 254 306
#     4  11  20  31  50  74 103 138 171 214 264 319
#
# _framework density 15.929861000000001
#
# number of rings (size 3 to 8) (size 9 to 14) (size 15 to 20)
#    0.000    2.250    1.250    3.375    0.000    3.000 
#    0.000    0.000    0.000    0.000    0.000    0.000 
#    0.000    0.000    4.500    0.000    0.000    0.000 
#
# Total GULP energy -356363.122694 kJ/mol
# GULP energy per Si atom -5568.173792 kJ/mol
# Density = 1.589360 g / cm^3
# Si number density = 15.929861 Si / 1000 Ang^3
#
#
#
# Elastic Constant Matrix: (Units=GPa)
#
#
# Indices 1 2 3 4 5 6 
#
# 1 90.6235 20.7996 62.8514 0.0000 0.0000 0.0000
# 2 20.7996 90.6235 62.8514 0.0000 0.0000 0.0000
# 3 62.8514 62.8514 122.1833 0.0000 0.0000 0.0000
# 4 0.0000 0.0000 0.0000 20.8978 0.0000 0.0000
# 5 0.0000 0.0000 0.0000 0.0000 20.8978 0.0000
# 6 0.0000 0.0000 0.0000 0.0000 0.0000 21.9173
#
#
#
# Elastic Compliance Matrix: (Units=1/GPa)
#
#
# Indices 1 2 3 4 5 6 
#
# 1 0.017853 0.003532 -0.011001 0.000000 0.000000 0.000000
# 2 0.003532 0.017853 -0.011001 0.000000 0.000000 0.000000
# 3 -0.011001 -0.011001 0.019502 0.000000 0.000000 0.000000
# 4 0.000000 0.000000 0.000000 0.047852 0.000000 0.000000
# 5 0.000000 0.000000 0.000000 0.000000 0.047852 0.000000
# 6 0.000000 0.000000 0.000000 0.000000 0.000000 0.045626
#
#
# Mechanical properties :
#
#
# Convention : Reuss Voigt Hill
#
# Bulk Modulus (GPa) = 54.73482 66.27056 60.50269
# Shear Modulus (GPa) = 20.87096 23.20447 22.03771
#
# Velocity S-wave (km/s) = 3.62357 3.82077 3.72347
# Velocity P-wave (km/s) = 7.20704 7.82024 7.51989
#
# Compressibility (1/GPa) = 0.01826991
#
# Stress axis : x y z
#
# Youngs Moduli (GPa) = 56.01149 56.01149 51.27706
#
# Poissons Ratio (x) = -0.19782 0.56408
# Poissons Ratio (y) = -0.19782 0.56408
# Poissons Ratio (z) = 0.61616 0.61616
#
# Static dielectric constant tensor:
#      x y z
#    x 1.547550 0.000000 0.000000 
#    y 0.000000 1.547550 0.000000 
#    z 0.000000 0.000000 1.509700 
# 
# From -- ./inp_files/9834.got.cif
#   From: 2010.05.17/outbox.cif.g08.bks.cpg/sg134_5_cif.got.tgz:9834.got - 2010.05.20 12:42:49.
