data_PCOD9568077
_publ_section_title
;
Structure prediction by ZEFSAII (Michael W. Deem and Ramdas Pophale) SiO2 
 PCOD9568077
Probable space group: P 42/N N M
;
_chemical_formula_sum "Si O2"
_cell_formula_units_Z 96
_cell_length_a 21.654472
_cell_length_b 21.654472
_cell_length_c 12.404809
_cell_angle_alpha 90.000000
_cell_angle_beta 90.000000
_cell_angle_gamma 90.000000
_cell_volume 5816.815372
_symmetry_space_group_name_H-M "P 42/N N M"
_symmetry_group_IT_number 134
_space_group.IT_coordinate_system_code '2'
_symmetry_cell_setting 'tetragonal'
loop_
_space_group_symop_operation_xyz
x,y,z
1/2-y,x,1/2+z
1/2-x,1/2-y,z
y,1/2-x,1/2+z
x,1/2-y,1/2-z
1/2-x,y,1/2-z
y,x,-z
1/2-y,1/2-x,-z
-x,-y,-z
1/2+y,-x,1/2-z
1/2+x,1/2+y,-z
-y,1/2+x,1/2-z
-x,1/2+y,1/2+z
1/2+x,-y,1/2+z
-y,-x,z
1/2+y,1/2+x,z
loop_
_atom_site_type_symbol
_atom_site_label
_atom_site_fract_x
_atom_site_fract_y
_atom_site_fract_z
Si Si1 0.250000 0.646553 0.750000
Si Si2 0.579736 0.521286 0.392126
Si Si3 0.859762 0.888288 0.691733
Si Si4 0.079828 0.817388 0.554074
Si Si5 0.683111 0.683111 0.500000
Si Si6 0.307590 0.119469 0.422741
Si Si7 0.233409 0.496742 0.128653
O O1 0.192522 0.692522 0.722116
O O2 0.226756 0.604749 0.850294
O O3 0.559957 0.559957 0.500000
O O4 0.522258 0.477743 0.367873
O O5 0.592424 0.569752 0.297966
O O6 0.638277 0.476998 0.410118
O O7 0.858368 0.834979 0.602267
O O8 0.826540 0.867179 0.799939
O O9 0.822535 0.947577 0.646068
O O10 0.136216 0.863785 0.526398
O O11 0.052251 0.782370 0.450699
O O12 0.750500 0.662736 0.539941
O O13 0.363763 0.136238 0.500000
O O14 0.285587 0.048480 0.421377
O O15 0.250000 0.516960 0.250000
#
# Coordination Sequence:
#
# PCOD9568077 Si02
#       7
#     8  16  16  16   8  16  16
#     4   9  20  38  56  76 106 138 167 210 264 314
#     4  10  17  28  52  83 106 126 165 219 262 310
#     4  10  18  32  49  70 103 135 167 218 270 310
#     4  10  19  33  57  84 104 131 172 214 264 317
#     4  10  17  32  49  66  92 130 179 224 260 294
#     4  10  21  32  46  68  98 140 180 214 257 309
#     4   9  18  33  49  70 103 138 168 210 260 311
#
# _framework density 16.503875000000001
#
# number of rings (size 3 to 8) (size 9 to 14) (size 15 to 20)
#    0.000    2.250    2.500    2.750    0.000    2.000 
#    0.000    5.833    0.000    1.500    0.000    0.000 
#    0.000    0.000    0.000    0.000    0.000    0.000 
#
# Total GULP energy -534473.147129 kJ/mol
# GULP energy per Si atom -5567.428616 kJ/mol
# Density = 1.646631 g / cm^3
# Si number density = 16.503875 Si / 1000 Ang^3
#
#
#
# Elastic Constant Matrix: (Units=GPa)
#
#
# Indices 1 2 3 4 5 6 
#
# 1 78.8640 49.4925 68.0267 0.0000 0.0000 0.0000
# 2 49.4925 78.8657 68.0256 0.0000 0.0000 0.0000
# 3 68.0267 68.0256 123.8685 0.0000 0.0000 0.0000
# 4 0.0000 0.0000 0.0000 38.2791 0.0000 0.0000
# 5 0.0000 0.0000 0.0000 0.0000 38.2831 0.0000
# 6 0.0000 0.0000 0.0000 0.0000 0.0000 17.3474
#
#
#
# Elastic Compliance Matrix: (Units=1/GPa)
#
#
# Indices 1 2 3 4 5 6 
#
# 1 0.026345 -0.007701 -0.010239 0.000000 0.000000 0.000000
# 2 -0.007701 0.026343 -0.010238 0.000000 0.000000 0.000000
# 3 -0.010239 -0.010238 0.019318 0.000000 0.000000 0.000000
# 4 0.000000 0.000000 0.000000 0.026124 0.000000 0.000000
# 5 0.000000 0.000000 0.000000 0.000000 0.026121 0.000000
# 6 0.000000 0.000000 0.000000 0.000000 0.000000 0.057646
#
#
# Mechanical properties :
#
#
# Convention : Reuss Voigt Hill
#
# Bulk Modulus (GPa) = 63.89397 72.52087 68.20742
# Shear Modulus (GPa) = 20.53640 25.18548 22.86094
#
# Velocity S-wave (km/s) = 3.53134 3.91069 3.72585
# Velocity P-wave (km/s) = 7.44485 8.02673 7.74126
#
# Compressibility (1/GPa) = 0.01565093
#
# Stress axis : x y z
#
# Youngs Moduli (GPa) = 37.95772 37.96035 51.76425
#
# Poissons Ratio (x) = 0.29235 0.53001
# Poissons Ratio (y) = 0.29233 0.52994
# Poissons Ratio (z) = 0.38864 0.38862
#
# Static dielectric constant tensor:
#      x y z
#    x 1.584260 0.000000 0.000000 
#    y 0.000000 1.584260 0.000000 
#    z 0.000000 0.000000 1.554800 
# 
# From -- ./inp_files/3266.got.cif
#   From: 2010.05.17/outbox.cif.g08.bks.cpg/sg134_2_cif.got.tgz:3266.got - 2010.05.20 12:42:49.
