data_PCOD9568733
_publ_section_title
;
Structure prediction by ZEFSAII (Michael W. Deem and Ramdas Pophale) SiO2 
 PCOD9568733
Probable space group: P 42/M B C
;
_chemical_formula_sum "Si O2"
_cell_formula_units_Z 88
_cell_length_a 17.609510
_cell_length_b 17.609510
_cell_length_c 14.586049
_cell_angle_alpha 90.000000
_cell_angle_beta 90.000000
_cell_angle_gamma 90.000000
_cell_volume 4523.058566
_symmetry_space_group_name_H-M "P 42/M B C"
_symmetry_group_IT_number 135
_symmetry_cell_setting 'tetragonal'
loop_
_space_group_symop_operation_xyz
x,y,z
-y,x,1/2+z
-x,-y,z
y,-x,1/2+z
1/2+x,1/2-y,-z
1/2-x,1/2+y,-z
1/2+y,1/2+x,1/2-z
1/2-y,1/2-x,1/2-z
-x,-y,-z
y,-x,1/2-z
x,y,-z
-y,x,1/2-z
1/2-x,1/2+y,z
1/2+x,1/2-y,z
1/2-y,1/2-x,1/2+z
1/2+y,1/2+x,1/2+z
loop_
_atom_site_type_symbol
_atom_site_label
_atom_site_fract_x
_atom_site_fract_y
_atom_site_fract_z
Si Si1 0.638540 0.600348 0.608608
Si Si2 0.762059 0.711608 0.603444
Si Si3 0.132537 0.367464 0.250000
Si Si4 0.139965 0.973183 0.109597
Si Si5 0.111984 0.798729 0.106616
Si Si6 0.007198 0.256460 0.235397
O O1 0.642969 0.582549 0.500000
O O2 0.675956 0.683987 0.623495
O O3 0.549957 0.593575 0.633782
O O4 0.696388 0.551726 0.668819
O O5 0.776473 0.686419 0.500000
O O6 0.824726 0.672361 0.665513
O O7 0.775879 0.800300 0.609233
O O8 0.046681 0.338409 0.242236
O O9 0.106338 0.889405 0.129552
O O10 0.217169 0.984949 0.165982
O O11 0.152195 0.974787 0.000000
O O12 0.071998 0.747771 0.183322
O O13 0.086048 0.788551 0.000000
#
# Coordination Sequence:
#
# PCOD9568733 Si02
#       6
#    16  16   8  16  16  16
#     4   9  19  34  52  74 103 136 177 216 264 322
#     4   9  18  34  53  74 102 135 174 224 268 316
#     4  10  20  32  52  74 105 137 184 218 268 314
#     4  10  20  33  49  73 104 138 170 210 263 319
#     4  10  20  34  52  76 107 138 177 222 273 320
#     4  11  20  32  50  75 103 140 176 220 258 315
#
# _framework density 19.455860999999999
#
# number of rings (size 3 to 8) (size 9 to 14) (size 15 to 20)
#    0.000    2.182    1.818    1.636    2.545    1.455 
#    0.000    4.545    0.000    0.000    0.000    2.545 
#    0.000    5.818    0.000    0.000    0.000    0.000 
#
# Total GULP energy -490202.652830 kJ/mol
# GULP energy per Si atom -5570.484691 kJ/mol
# Density = 1.941158 g / cm^3
# Si number density = 19.455861 Si / 1000 Ang^3
#
#
#
# Elastic Constant Matrix: (Units=GPa)
#
#
# Indices 1 2 3 4 5 6 
#
# 1 20.6366 11.9661 -1.2881 0.0000 0.0000 0.0000
# 2 11.9661 20.6365 -1.2884 0.0000 0.0000 0.0000
# 3 -1.2881 -1.2884 37.4495 0.0000 0.0000 0.0000
# 4 0.0000 0.0000 0.0000 20.5544 0.0000 0.0000
# 5 0.0000 0.0000 0.0000 0.0000 20.5542 0.0000
# 6 0.0000 0.0000 0.0000 0.0000 0.0000 19.3596
#
#
#
# Elastic Compliance Matrix: (Units=1/GPa)
#
#
# Indices 1 2 3 4 5 6 
#
# 1 0.073045 -0.042289 0.001057 0.000000 0.000000 0.000000
# 2 -0.042289 0.073045 0.001059 0.000000 0.000000 0.000000
# 3 0.001057 0.001059 0.026775 0.000000 0.000000 0.000000
# 4 0.000000 0.000000 0.000000 0.048651 0.000000 0.000000
# 5 0.000000 0.000000 0.000000 0.000000 0.048652 0.000000
# 6 0.000000 0.000000 0.000000 0.000000 0.000000 0.051654
#
#
# Mechanical properties :
#
#
# Convention : Reuss Voigt Hill
#
# Bulk Modulus (GPa) = 10.80853 10.83351 10.82102
# Shear Modulus (GPa) = 11.54714 16.71585 14.13149
#
# Velocity S-wave (km/s) = 2.43884 2.93434 2.69799
# Velocity P-wave (km/s) = 3.67397 4.13047 3.90889
#
# Compressibility (1/GPa) = 0.09251954
#
# Stress axis : x y z
#
# Youngs Moduli (GPa) = 13.69025 13.69020 37.34766
#
# Poissons Ratio (x) = 0.57894 -0.03949
# Poissons Ratio (y) = 0.57894 -0.03953
# Poissons Ratio (z) = -0.01448 -0.01449
#
# Static dielectric constant tensor:
#      x y z
#    x 1.731810 0.000000 0.000000 
#    y 0.000000 1.731810 0.000000 
#    z 0.000000 0.000000 1.715140 
# 
# From -- ./inp_files/3507.got.cif
#   From: 2010.05.17/outbox.cif.g08.bks.cpg/sg135_2_cif.got.tgz:3507.got - 2010.05.20 12:50:20.
