data_PCOD9568122
_publ_section_title
;
Structure prediction by ZEFSAII (Michael W. Deem and Ramdas Pophale) SiO2 
 PCOD9568122
Probable space group: P 42/N N M
;
_chemical_formula_sum "Si O2"
_cell_formula_units_Z 76
_cell_length_a 13.846290
_cell_length_b 13.846290
_cell_length_c 21.942923
_cell_angle_alpha 90.000000
_cell_angle_beta 90.000000
_cell_angle_gamma 90.000000
_cell_volume 4206.891641
_symmetry_space_group_name_H-M "P 42/N N M"
_symmetry_group_IT_number 134
_space_group.IT_coordinate_system_code '2'
_symmetry_cell_setting 'tetragonal'
loop_
_space_group_symop_operation_xyz
x,y,z
1/2-y,x,1/2+z
1/2-x,1/2-y,z
y,1/2-x,1/2+z
x,1/2-y,1/2-z
1/2-x,y,1/2-z
y,x,-z
1/2-y,1/2-x,-z
-x,-y,-z
1/2+y,-x,1/2-z
1/2+x,1/2+y,-z
-y,1/2+x,1/2-z
-x,1/2+y,1/2+z
1/2+x,-y,1/2+z
-y,-x,z
1/2+y,1/2+x,z
loop_
_atom_site_type_symbol
_atom_site_label
_atom_site_fract_x
_atom_site_fract_y
_atom_site_fract_z
Si Si1 0.588295 0.254480 0.435072
Si Si2 0.907022 0.250000 0.750000
Si Si3 0.989354 0.648710 0.460799
Si Si4 0.577849 0.839855 0.328696
Si Si5 0.470261 0.683741 0.807777
Si Si6 0.250000 0.250000 0.250000
O O1 0.646601 0.353400 0.438752
O O2 0.667496 0.167496 0.434701
O O3 0.523612 0.232856 0.493887
O O4 0.534333 0.243880 0.370592
O O5 0.834855 0.165146 0.726685
O O6 0.980706 0.298859 0.702245
O O7 0.920467 0.579534 0.500000
O O8 0.934689 0.680079 0.400101
O O9 0.082567 0.582567 0.443096
O O10 0.673328 0.798048 0.296405
O O11 0.598963 0.952688 0.318505
O O12 0.494783 0.750000 0.750000
O O13 0.366835 0.633166 0.796947
#
# Coordination Sequence:
#
# PCOD9568122 Si02
#       6
#    16   8  16  16  16   4
#     4   9  18  31  49  80 118 150 189 241 290 345
#     4  10  22  38  58  86 116 146 192 252 304 350
#     4  10  18  31  54  80 107 144 188 231 284 346
#     4  11  21  38  60  82 112 152 195 241 294 358
#     4  11  20  32  54  83 118 157 194 236 291 350
#     4  10  24  42  58  82 110 146 198 242 292 354
#
# _framework density 18.065594000000001
#
# number of rings (size 3 to 8) (size 9 to 14) (size 15 to 20)
#    0.000    1.789    3.158    2.526    0.000    1.895 
#    0.000    2.632    0.000    0.000    0.000    1.474 
#    0.000    0.000    0.000    0.000    0.000    0.000 
#
# Total GULP energy -423320.477218 kJ/mol
# GULP energy per Si atom -5570.006279 kJ/mol
# Density = 1.802448 g / cm^3
# Si number density = 18.065594 Si / 1000 Ang^3
#
#
#
# Elastic Constant Matrix: (Units=GPa)
#
#
# Indices 1 2 3 4 5 6 
#
# 1 83.8861 49.9236 60.0554 0.0000 0.0000 0.0000
# 2 49.9236 83.8869 60.0560 0.0000 0.0000 0.0000
# 3 60.0554 60.0560 165.4602 0.0000 0.0000 0.0000
# 4 0.0000 0.0000 0.0000 18.7082 0.0000 0.0000
# 5 0.0000 0.0000 0.0000 0.0000 18.7082 0.0000
# 6 0.0000 0.0000 0.0000 0.0000 0.0000 28.7837
#
#
#
# Elastic Compliance Matrix: (Units=1/GPa)
#
#
# Indices 1 2 3 4 5 6 
#
# 1 0.020264 -0.009180 -0.004023 0.000000 0.000000 0.000000
# 2 -0.009180 0.020264 -0.004023 0.000000 0.000000 0.000000
# 3 -0.004023 -0.004023 0.008964 0.000000 0.000000 0.000000
# 4 0.000000 0.000000 0.000000 0.053453 0.000000 0.000000
# 5 0.000000 0.000000 0.000000 0.000000 0.053452 0.000000
# 6 0.000000 0.000000 0.000000 0.000000 0.000000 0.034742
#
#
# Mechanical properties :
#
#
# Convention : Reuss Voigt Hill
#
# Bulk Modulus (GPa) = 66.48713 74.81147 70.64930
# Shear Modulus (GPa) = 21.68203 24.11992 22.90097
#
# Velocity S-wave (km/s) = 3.46812 3.65791 3.56428
# Velocity P-wave (km/s) = 7.27463 7.70333 7.49205
#
# Compressibility (1/GPa) = 0.01504050
#
# Stress axis : x y z
#
# Youngs Moduli (GPa) = 49.34771 49.34803 111.55270
#
# Poissons Ratio (x) = 0.45299 0.44881
# Poissons Ratio (y) = 0.45299 0.44882
# Poissons Ratio (z) = 0.19854 0.19854
#
# Static dielectric constant tensor:
#      x y z
#    x 1.651940 0.000000 0.000000 
#    y 0.000000 1.651940 0.000000 
#    z 0.000000 0.000000 1.607820 
# 
# From -- ./inp_files/8951.got.cif
#   From: 2010.05.17/outbox.cif.g08.bks.cpg/sg134_5_cif.got.tgz:8951.got - 2010.05.20 12:42:49.
