data_PCOD9568849
_publ_section_title
;
Structure prediction by ZEFSAII (Michael W. Deem and Ramdas Pophale) SiO2 
 PCOD9568849
Probable space group: P 42/M B C
;
_chemical_formula_sum "Si O2"
_cell_formula_units_Z 68
_cell_length_a 14.620349
_cell_length_b 14.620349
_cell_length_c 15.267775
_cell_angle_alpha 90.000000
_cell_angle_beta 90.000000
_cell_angle_gamma 90.000000
_cell_volume 3263.557213
_symmetry_space_group_name_H-M "P 42/M B C"
_symmetry_group_IT_number 135
_symmetry_cell_setting 'tetragonal'
loop_
_space_group_symop_operation_xyz
x,y,z
-y,x,1/2+z
-x,-y,z
y,-x,1/2+z
1/2+x,1/2-y,-z
1/2-x,1/2+y,-z
1/2+y,1/2+x,1/2-z
1/2-y,1/2-x,1/2-z
-x,-y,-z
y,-x,1/2-z
x,y,-z
-y,x,1/2-z
1/2-x,1/2+y,z
1/2+x,1/2-y,z
1/2-y,1/2-x,1/2+z
1/2+y,1/2+x,1/2+z
loop_
_atom_site_type_symbol
_atom_site_label
_atom_site_fract_x
_atom_site_fract_y
_atom_site_fract_z
Si Si1 0.761200 0.189201 0.842379
Si Si2 0.090269 0.416266 0.096878
Si Si3 0.000000 0.500000 0.750000
Si Si4 0.529795 0.359262 0.750268
Si Si5 0.262427 0.053964 0.597076
O O1 0.733001 0.233001 0.750000
O O2 0.659612 0.169487 0.607955
O O3 0.809412 0.092433 0.820206
O O4 0.837219 0.253269 0.887003
O O5 0.084021 0.482395 0.181607
O O6 0.994379 0.360885 0.099712
O O7 0.100478 0.458396 0.000000
O O8 0.440337 0.407460 0.710908
O O9 0.494711 0.293794 0.826196
O O10 0.224508 0.035432 0.500000
#
# Coordination Sequence:
#
# PCOD9568849 Si02
#       5
#    16  16   4  16  16
#     4  11  20  38  61  88 118 167 206 254 311 376
#     4  11  23  40  60  89 123 160 210 257 306 374
#     4  12  22  40  60  82 116 172 194 260 312 366
#     4   9  18  35  59  86 117 156 205 255 317 380
#     4  10  21  37  59  87 120 157 204 262 312 368
#
# _framework density 20.836161000000001
#
# number of rings (size 3 to 8) (size 9 to 14) (size 15 to 20)
#    0.000    1.647    3.529    1.059    1.647    0.000 
#    0.000   10.588    0.000    0.000    0.000    0.000 
#    0.000    0.000    0.000    0.000    0.000    0.000 
#
# Total GULP energy -378891.837359 kJ/mol
# GULP energy per Si atom -5571.938785 kJ/mol
# Density = 2.078874 g / cm^3
# Si number density = 20.836161 Si / 1000 Ang^3
#
#
#
# Elastic Constant Matrix: (Units=GPa)
#
#
# Indices 1 2 3 4 5 6 
#
# 1 64.2994 17.1375 9.9043 0.0000 0.0000 0.0000
# 2 17.1375 64.2994 9.9043 0.0000 0.0000 0.0000
# 3 9.9043 9.9043 93.2874 0.0000 0.0000 0.0000
# 4 0.0000 0.0000 0.0000 17.3454 0.0000 0.0000
# 5 0.0000 0.0000 0.0000 0.0000 17.3454 0.0000
# 6 0.0000 0.0000 0.0000 0.0000 0.0000 33.2630
#
#
#
# Elastic Compliance Matrix: (Units=1/GPa)
#
#
# Indices 1 2 3 4 5 6 
#
# 1 0.016904 -0.004299 -0.001338 0.000000 0.000000 0.000000
# 2 -0.004299 0.016904 -0.001338 0.000000 0.000000 0.000000
# 3 -0.001338 -0.001338 0.011004 0.000000 0.000000 0.000000
# 4 0.000000 0.000000 0.000000 0.057652 0.000000 0.000000
# 5 0.000000 0.000000 0.000000 0.000000 0.057652 0.000000
# 6 0.000000 0.000000 0.000000 0.000000 0.000000 0.030063
#
#
# Mechanical properties :
#
#
# Convention : Reuss Voigt Hill
#
# Bulk Modulus (GPa) = 32.40378 32.86426 32.63402
# Shear Modulus (GPa) = 23.31890 25.92012 24.61951
#
# Velocity S-wave (km/s) = 3.34901 3.53086 3.44114
# Velocity P-wave (km/s) = 5.52629 5.69470 5.61113
#
# Compressibility (1/GPa) = 0.03086060
#
# Stress axis : x y z
#
# Youngs Moduli (GPa) = 59.15671 59.15671 90.87834
#
# Poissons Ratio (x) = 0.25433 0.12162
# Poissons Ratio (y) = 0.25433 0.12162
# Poissons Ratio (z) = 0.07917 0.07917
#
# Static dielectric constant tensor:
#      x y z
#    x 1.797220 0.000000 0.000000 
#    y 0.000000 1.797220 0.000000 
#    z 0.000000 0.000000 1.752880 
# 
# From -- ./inp_files/3285.got.cif
#   From: 2010.05.17/outbox.cif.g08.bks.cpg/sg135_2_cif.got.tgz:3285.got - 2010.05.20 12:50:20.
