data_PCOD9568180
_publ_section_title
;
Structure prediction by ZEFSAII (Michael W. Deem and Ramdas Pophale) SiO2 
 PCOD9568180
Probable space group: P 42/N N M
;
_chemical_formula_sum "Si O2"
_cell_formula_units_Z 112
_cell_length_a 13.915792
_cell_length_b 13.915792
_cell_length_c 29.507742
_cell_angle_alpha 90.000000
_cell_angle_beta 90.000000
_cell_angle_gamma 90.000000
_cell_volume 5714.152609
_symmetry_space_group_name_H-M "P 42/N N M"
_symmetry_group_IT_number 134
_space_group.IT_coordinate_system_code '2'
_symmetry_cell_setting 'tetragonal'
loop_
_space_group_symop_operation_xyz
x,y,z
1/2-y,x,1/2+z
1/2-x,1/2-y,z
y,1/2-x,1/2+z
x,1/2-y,1/2-z
1/2-x,y,1/2-z
y,x,-z
1/2-y,1/2-x,-z
-x,-y,-z
1/2+y,-x,1/2-z
1/2+x,1/2+y,-z
-y,1/2+x,1/2-z
-x,1/2+y,1/2+z
1/2+x,-y,1/2+z
-y,-x,z
1/2+y,1/2+x,z
loop_
_atom_site_type_symbol
_atom_site_label
_atom_site_fract_x
_atom_site_fract_y
_atom_site_fract_z
Si Si1 0.134883 0.243282 0.196957
Si Si2 0.449196 0.101991 0.454382
Si Si3 0.446474 0.707680 0.543982
Si Si4 0.593752 0.244836 0.884586
Si Si5 0.518572 0.860710 0.045454
Si Si6 0.886774 0.956052 0.374367
Si Si7 0.054387 0.390472 0.642504
O O1 0.250000 0.250000 0.191259
O O2 0.111984 0.250000 0.250000
O O3 0.085120 0.327019 0.167314
O O4 0.104388 0.139217 0.178256
O O5 0.387670 0.112331 0.500000
O O6 0.533341 0.180222 0.457117
O O7 0.393798 0.105200 0.407100
O O8 0.496375 0.996375 0.454564
O O9 0.345932 0.654069 0.532665
O O10 0.524584 0.665327 0.507530
O O11 0.472977 0.676906 0.594794
O O12 0.674190 0.325811 0.888507
O O13 0.648153 0.148153 0.867863
O O14 0.552813 0.220295 0.934158
O O15 0.509521 0.293355 0.855304
O O16 0.461484 0.961484 0.046207
O O17 0.590317 0.873551 0.087849
O O18 0.982836 0.017164 0.361778
O O19 0.980377 0.480377 0.645886
#
# Coordination Sequence:
#
# PCOD9568180 Si02
#       7
#    16  16  16  16  16  16  16
#     4  11  24  41  62  87 114 146 194 250 299 358
#     4  10  20  33  51  78 115 158 197 236 291 360
#     4  10  19  32  52  78 111 151 192 237 289 347
#     4   9  17  30  52  82 113 150 191 225 272 346
#     4   9  17  29  50  79 112 146 183 231 282 337
#     4  10  20  37  59  81 109 148 191 239 291 347
#     4  10  20  37  58  82 119 158 192 244 303 349
#
# _framework density 19.600458
#
# number of rings (size 3 to 8) (size 9 to 14) (size 15 to 20)
#    0.000    2.143    1.429    2.143    0.000    4.286 
#    0.000    1.429    0.000    1.286    0.000    1.000 
#    0.000    4.571    0.000    0.000    0.000    0.000 
#
# Total GULP energy -623591.767684 kJ/mol
# GULP energy per Si atom -5567.783640 kJ/mol
# Density = 1.955585 g / cm^3
# Si number density = 19.600458 Si / 1000 Ang^3
#
#
#
# Elastic Constant Matrix: (Units=GPa)
#
#
# Indices 1 2 3 4 5 6 
#
# 1 81.5810 34.5159 54.4106 0.0000 0.0000 0.0000
# 2 34.5159 81.5805 54.4105 0.0000 0.0000 0.0000
# 3 54.4106 54.4105 148.2897 0.0000 0.0000 0.0000
# 4 0.0000 0.0000 0.0000 12.0754 0.0000 0.0000
# 5 0.0000 0.0000 0.0000 0.0000 12.0758 0.0000
# 6 0.0000 0.0000 0.0000 0.0000 0.0000 26.6146
#
#
#
# Elastic Compliance Matrix: (Units=1/GPa)
#
#
# Indices 1 2 3 4 5 6 
#
# 1 0.017188 -0.004059 -0.004817 0.000000 0.000000 0.000000
# 2 -0.004059 0.017188 -0.004817 0.000000 0.000000 0.000000
# 3 -0.004817 -0.004817 0.010279 0.000000 0.000000 0.000000
# 4 0.000000 0.000000 0.000000 0.082813 0.000000 0.000000
# 5 0.000000 0.000000 0.000000 0.000000 0.082810 0.000000
# 6 0.000000 0.000000 0.000000 0.000000 0.000000 0.037573
#
#
# Mechanical properties :
#
#
# Convention : Reuss Voigt Hill
#
# Bulk Modulus (GPa) = 57.91265 66.45838 62.18551
# Shear Modulus (GPa) = 17.79394 21.36077 19.57736
#
# Velocity S-wave (km/s) = 3.01630 3.30481 3.16384
# Velocity P-wave (km/s) = 6.46076 6.96724 6.71878
#
# Compressibility (1/GPa) = 0.01726738
#
# Stress axis : x y z
#
# Youngs Moduli (GPa) = 58.17999 58.17965 97.28888
#
# Poissons Ratio (x) = 0.23616 0.46867
# Poissons Ratio (y) = 0.23616 0.46867
# Poissons Ratio (z) = 0.28027 0.28027
#
# Static dielectric constant tensor:
#      x y z
#    x 1.758910 0.000000 0.000000 
#    y 0.000000 1.758910 0.000000 
#    z 0.000000 0.000000 1.689870 
# 
# From -- ./inp_files/10150.got.cif
#   From: 2010.05.17/outbox.cif.g08.bks.cpg/sg134_6_cif.got.tgz:10150.got - 2010.05.20 12:42:49.
