data_PCOD9568431
_publ_section_title
;
Structure prediction by ZEFSAII (Michael W. Deem and Ramdas Pophale) SiO2 
 PCOD9568431
Probable space group: P 42/N N M
;
_chemical_formula_sum "Si O2"
_cell_formula_units_Z 64
_cell_length_a 12.171231
_cell_length_b 12.171231
_cell_length_c 19.153865
_cell_angle_alpha 90.000000
_cell_angle_beta 90.000000
_cell_angle_gamma 90.000000
_cell_volume 2837.431803
_symmetry_space_group_name_H-M "P 42/N N M"
_symmetry_group_IT_number 134
_space_group.IT_coordinate_system_code '2'
_symmetry_cell_setting 'tetragonal'
loop_
_space_group_symop_operation_xyz
x,y,z
1/2-y,x,1/2+z
1/2-x,1/2-y,z
y,1/2-x,1/2+z
x,1/2-y,1/2-z
1/2-x,y,1/2-z
y,x,-z
1/2-y,1/2-x,-z
-x,-y,-z
1/2+y,-x,1/2-z
1/2+x,1/2+y,-z
-y,1/2+x,1/2-z
-x,1/2+y,1/2+z
1/2+x,-y,1/2+z
-y,-x,z
1/2+y,1/2+x,z
loop_
_atom_site_type_symbol
_atom_site_label
_atom_site_fract_x
_atom_site_fract_y
_atom_site_fract_z
Si Si1 0.967804 0.850360 0.334305
Si Si2 0.640529 0.956552 0.289093
Si Si3 0.618170 0.738524 0.575974
Si Si4 0.434937 0.752834 0.456827
O O1 0.903900 0.859883 0.261308
O O2 0.881479 0.899804 0.390248
O O3 0.019446 0.749212 0.377181
O O4 0.069265 0.930736 0.323521
O O5 0.750000 0.998845 0.250000
O O6 0.675454 0.916030 0.364764
O O7 0.550901 0.050901 0.293361
O O8 0.750000 0.750000 0.568364
O O9 0.537734 0.751219 0.510021
O O10 0.354928 0.645073 0.465862
O O11 0.357905 0.857905 0.468894
#
# Coordination Sequence:
#
# PCOD9568431 Si02
#       4
#    16  16  16  16
#     4   9  19  37  60  86 119 165 213 257 317 392
#     4   9  19  36  59  88 123 164 213 266 320 384
#     4  11  22  36  57  89 128 171 212 256 320 392
#     4  10  21  39  65  95 126 163 213 273 331 386
#
# _framework density 22.555606999999998
#
# number of rings (size 3 to 8) (size 9 to 14) (size 15 to 20)
#    0.000    2.250    0.000    2.250    0.000    9.750 
#    0.000    3.750    0.000    3.000    0.000    0.000 
#    0.000    0.000    0.000    0.000    0.000    0.000 
#
# Total GULP energy -357281.895129 kJ/mol
# GULP energy per Si atom -5582.529611 kJ/mol
# Density = 2.250427 g / cm^3
# Si number density = 22.555607 Si / 1000 Ang^3
#
#
#
# Elastic Constant Matrix: (Units=GPa)
#
#
# Indices 1 2 3 4 5 6 
#
# 1 110.3090 43.2225 47.5106 0.0000 0.0000 0.0000
# 2 43.2225 110.3090 47.5106 0.0000 0.0000 0.0000
# 3 47.5106 47.5106 150.6953 0.0000 0.0000 0.0000
# 4 0.0000 0.0000 0.0000 21.8800 0.0000 0.0000
# 5 0.0000 0.0000 0.0000 0.0000 21.8800 0.0000
# 6 0.0000 0.0000 0.0000 0.0000 0.0000 4.7670
#
#
#
# Elastic Compliance Matrix: (Units=1/GPa)
#
#
# Indices 1 2 3 4 5 6 
#
# 1 0.011499 -0.003407 -0.002551 0.000000 0.000000 0.000000
# 2 -0.003407 0.011499 -0.002551 0.000000 0.000000 0.000000
# 3 -0.002551 -0.002551 0.008245 0.000000 0.000000 0.000000
# 4 0.000000 0.000000 0.000000 0.045704 0.000000 0.000000
# 5 0.000000 0.000000 0.000000 0.000000 0.045704 0.000000
# 6 0.000000 0.000000 0.000000 0.000000 0.000000 0.209776
#
#
# Mechanical properties :
#
#
# Convention : Reuss Voigt Hill
#
# Bulk Modulus (GPa) = 70.30349 71.97788 71.14068
# Shear Modulus (GPa) = 14.11683 25.24339 19.68011
#
# Velocity S-wave (km/s) = 2.50445 3.34902 2.95704
# Velocity P-wave (km/s) = 6.29283 6.85092 6.57780
#
# Compressibility (1/GPa) = 0.01422405
#
# Stress axis : x y z
#
# Youngs Moduli (GPa) = 86.96230 86.96230 121.29080
#
# Poissons Ratio (x) = 0.29627 0.30945
# Poissons Ratio (y) = 0.29627 0.30945
# Poissons Ratio (z) = 0.22187 0.22187
#
# Static dielectric constant tensor:
#      x y z
#    x 1.848140 0.000000 0.000000 
#    y 0.000000 1.848140 0.000000 
#    z 0.000000 0.000000 1.915000 
# 
# From -- ./inp_files/8689.got.cif
#   From: 2010.05.17/outbox.cif.g08.bks.cpg/sg134_5_cif.got.tgz:8689.got - 2010.05.20 12:42:49.
