data_PCOD9568415
_publ_section_title
;
Structure prediction by ZEFSAII (Michael W. Deem and Ramdas Pophale) SiO2 
 PCOD9568415
Probable space group: P 42/N N M
;
_chemical_formula_sum "Si O2"
_cell_formula_units_Z 80
_cell_length_a 11.606772
_cell_length_b 11.606772
_cell_length_c 27.122148
_cell_angle_alpha 90.000000
_cell_angle_beta 90.000000
_cell_angle_gamma 90.000000
_cell_volume 3653.818650
_symmetry_space_group_name_H-M "P 42/N N M"
_symmetry_group_IT_number 134
_space_group.IT_coordinate_system_code '2'
_symmetry_cell_setting 'tetragonal'
loop_
_space_group_symop_operation_xyz
x,y,z
1/2-y,x,1/2+z
1/2-x,1/2-y,z
y,1/2-x,1/2+z
x,1/2-y,1/2-z
1/2-x,y,1/2-z
y,x,-z
1/2-y,1/2-x,-z
-x,-y,-z
1/2+y,-x,1/2-z
1/2+x,1/2+y,-z
-y,1/2+x,1/2-z
-x,1/2+y,1/2+z
1/2+x,-y,1/2+z
-y,-x,z
1/2+y,1/2+x,z
loop_
_atom_site_type_symbol
_atom_site_label
_atom_site_fract_x
_atom_site_fract_y
_atom_site_fract_z
Si Si1 0.957073 0.858595 0.811288
Si Si2 0.097091 0.406823 0.207239
Si Si3 0.837871 0.518576 0.040525
Si Si4 0.591075 0.906072 0.426042
Si Si5 0.480424 0.164615 0.891234
O O1 0.940684 0.723288 0.803697
O O2 0.881895 0.911549 0.765997
O O3 0.927437 0.883908 0.867848
O O4 0.083578 0.916423 0.803644
O O5 0.186507 0.450697 0.165993
O O6 0.990237 0.490237 0.197901
O O7 0.704178 0.553903 0.043755
O O8 0.890261 0.567813 0.091302
O O9 0.887394 0.387394 0.034969
O O10 0.906805 0.593196 0.000000
O O11 0.547976 0.774447 0.424863
O O12 0.486835 0.986835 0.441176
O O13 0.606511 0.106511 0.896999
#
# Coordination Sequence:
#
# PCOD9568415 Si02
#       5
#    16  16  16  16  16
#     4   9  18  30  49  84 124 159 202 256 311 369
#     4   9  17  31  51  79 120 168 211 249 300 367
#     4  10  22  42  66  90 117 153 195 245 311 386
#     4  11  23  38  60  92 125 158 201 258 318 370
#     4  10  21  38  59  84 119 166 214 253 297 361
#
# _framework density 21.894902999999999
#
# number of rings (size 3 to 8) (size 9 to 14) (size 15 to 20)
#    0.000    2.200    2.000    0.600    0.000    3.600 
#    0.000    8.000    0.000    3.600    0.000    5.600 
#    0.000    0.000    0.000    0.000    0.000    0.000 
#
# Total GULP energy -445583.162848 kJ/mol
# GULP energy per Si atom -5569.789536 kJ/mol
# Density = 2.184507 g / cm^3
# Si number density = 21.894903 Si / 1000 Ang^3
#
#
#
# Elastic Constant Matrix: (Units=GPa)
#
#
# Indices 1 2 3 4 5 6 
#
# 1 2231.1698-2050.9775 13.3982 0.0000 0.0000 0.0000
# 2 -2050.9775 2231.2305 13.4184 0.0000 0.0000 0.0000
# 3 13.3982 13.4184 107.0071 0.0000 0.0000 0.0000
# 4 0.0000 0.0000 0.0000 24.4050 0.0000 0.0000
# 5 0.0000 0.0000 0.0000 0.0000 24.4050 0.0000
# 6 0.0000 0.0000 0.0000 0.0000 0.0000 7.3842
#
#
#
# Elastic Compliance Matrix: (Units=1/GPa)
#
#
# Indices 1 2 3 4 5 6 
#
# 1 0.002944 0.002710 -0.000708 0.000000 0.000000 0.000000
# 2 0.002710 0.002944 -0.000708 0.000000 0.000000 0.000000
# 3 -0.000708 -0.000708 0.009523 0.000000 0.000000 0.000000
# 4 0.000000 0.000000 0.000000 0.040975 0.000000 0.000000
# 5 0.000000 0.000000 0.000000 0.000000 0.040975 0.000000
# 6 0.000000 0.000000 0.000000 0.000000 0.000000 0.135425
#
#
# Mechanical properties :
#
#
# Convention : Reuss Voigt Hill
#
# Bulk Modulus (GPa) = 55.56473 57.89843 56.73158
# Shear Modulus (GPa) = 21.16866 450.81005 235.98935
#
# Velocity S-wave (km/s) = 3.11276 14.36469 10.39311
# Velocity P-wave (km/s) = 6.19291 17.36741 13.03800
#
# Compressibility (1/GPa) = 0.01799703
#
# Stress axis : x y z
#
# Youngs Moduli (GPa) = 339.69066 339.69914 105.01199
#
# Poissons Ratio (x) = -0.92068 0.07440
# Poissons Ratio (y) = -0.92066 0.07440
# Poissons Ratio (z) = 0.24066 0.24068
#
# Static dielectric constant tensor:
#      x y z
#    x 1.811770 0.000000 0.000000 
#    y 0.000000 1.811770 0.000000 
#    z 0.000000 0.000000 1.905380 
# 
# From -- ./inp_files/11327.got.cif
#   From: 2010.05.17/outbox.cif.g08.bks.cpg/sg134_6_cif.got.tgz:11327.got - 2010.05.20 12:42:49.
