data_PCOD9568628
_publ_section_title
;
Structure prediction by ZEFSAII (Michael W. Deem and Ramdas Pophale) SiO2 
 PCOD9568628
Probable space group: P 42/M B C
;
_chemical_formula_sum "Si O2"
_cell_formula_units_Z 56
_cell_length_a 13.555666
_cell_length_b 13.555666
_cell_length_c 13.532537
_cell_angle_alpha 90.000000
_cell_angle_beta 90.000000
_cell_angle_gamma 90.000000
_cell_volume 2486.685961
_symmetry_space_group_name_H-M "P 42/M B C"
_symmetry_group_IT_number 135
_symmetry_cell_setting 'tetragonal'
loop_
_space_group_symop_operation_xyz
x,y,z
-y,x,1/2+z
-x,-y,z
y,-x,1/2+z
1/2+x,1/2-y,-z
1/2-x,1/2+y,-z
1/2+y,1/2+x,1/2-z
1/2-y,1/2-x,1/2-z
-x,-y,-z
y,-x,1/2-z
x,y,-z
-y,x,1/2-z
1/2-x,1/2+y,z
1/2+x,1/2-y,z
1/2-y,1/2-x,1/2+z
1/2+y,1/2+x,1/2+z
loop_
_atom_site_type_symbol
_atom_site_label
_atom_site_fract_x
_atom_site_fract_y
_atom_site_fract_z
Si Si1 0.444513 0.595743 0.386177
Si Si2 0.693017 0.959837 0.886065
Si Si3 0.134951 0.365050 0.750000
Si Si4 0.764921 0.779965 0.617477
O O1 0.500000 0.500000 0.348177
O O2 0.419195 0.571069 0.500000
O O3 0.515605 0.690313 0.385311
O O4 0.343508 0.639741 0.341909
O O5 0.682968 0.844759 0.865941
O O6 0.646355 0.030443 0.803654
O O7 0.659038 0.980722 0.000000
O O8 0.210216 0.326421 0.664616
O O9 0.780132 0.770475 0.500000
#
# Coordination Sequence:
#
# PCOD9568628 Si02
#       4
#    16  16   8  16
#     4   8  14  28  53  85 118 157 208 260 313 383
#     4   9  18  34  57  87 127 171 213 269 335 397
#     4  10  18  34  58  88 124 174 222 258 324 397
#     4   9  18  34  56  87 128 171 215 273 337 389
#
# _framework density 22.519933999999999
#
# number of rings (size 3 to 8) (size 9 to 14) (size 15 to 20)
#    0.000    3.143    0.000    2.571    0.000    0.000 
#   10.286    0.000    0.000    4.286    0.000    4.000 
#    0.000    0.000    0.000    0.000    0.571    0.000 
#
# Total GULP energy -312317.326287 kJ/mol
# GULP energy per Si atom -5577.095112 kJ/mol
# Density = 2.246868 g / cm^3
# Si number density = 22.519934 Si / 1000 Ang^3
#
#
#
# Elastic Constant Matrix: (Units=GPa)
#
#
# Indices 1 2 3 4 5 6 
#
# 1 133.5876 65.1462 53.2475 0.0000 0.0000 0.0000
# 2 65.1462 133.5880 53.2476 0.0000 0.0000 0.0000
# 3 53.2475 53.2476 121.2825 0.0000 0.0000 0.0000
# 4 0.0000 0.0000 0.0000 20.9036 0.0000 0.0000
# 5 0.0000 0.0000 0.0000 0.0000 20.9032 0.0000
# 6 0.0000 0.0000 0.0000 0.0000 0.0000 20.7234
#
#
#
# Elastic Compliance Matrix: (Units=1/GPa)
#
#
# Indices 1 2 3 4 5 6 
#
# 1 0.010595 -0.004016 -0.002889 0.000000 0.000000 0.000000
# 2 -0.004016 0.010595 -0.002889 0.000000 0.000000 0.000000
# 3 -0.002889 -0.002889 0.010782 0.000000 0.000000 0.000000
# 4 0.000000 0.000000 0.000000 0.047839 0.000000 0.000000
# 5 0.000000 0.000000 0.000000 0.000000 0.047840 0.000000
# 6 0.000000 0.000000 0.000000 0.000000 0.000000 0.048255
#
#
# Mechanical properties :
#
#
# Convention : Reuss Voigt Hill
#
# Bulk Modulus (GPa) = 80.73431 81.30452 81.01942
# Shear Modulus (GPa) = 25.04752 26.96050 26.00401
#
# Velocity S-wave (km/s) = 3.33864 3.46379 3.40179
# Velocity P-wave (km/s) = 7.12671 7.22349 7.17526
#
# Compressibility (1/GPa) = 0.01238631
#
# Stress axis : x y z
#
# Youngs Moduli (GPa) = 94.38012 94.38037 92.74890
#
# Poissons Ratio (x) = 0.37899 0.26793
# Poissons Ratio (y) = 0.37899 0.26793
# Poissons Ratio (z) = 0.27265 0.27265
#
# Static dielectric constant tensor:
#      x y z
#    x 1.842300 0.000000 0.000000 
#    y 0.000000 1.842290 0.000000 
#    z 0.000000 0.000000 1.913890 
# 
# From -- ./inp_files/3061.got.cif
#   From: 2010.05.17/outbox.cif.g08.bks.cpg/sg135_2_cif.got.tgz:3061.got - 2010.05.20 12:50:20.
