data_PCOD9568095
_publ_section_title
;
Structure prediction by ZEFSAII (Michael W. Deem and Ramdas Pophale) SiO2 
 PCOD9568095
Probable space group: P 42/N N M
;
_chemical_formula_sum "Si O2"
_cell_formula_units_Z 120
_cell_length_a 25.071251
_cell_length_b 25.071251
_cell_length_c 13.173086
_cell_angle_alpha 90.000000
_cell_angle_beta 90.000000
_cell_angle_gamma 90.000000
_cell_volume 8280.175403
_symmetry_space_group_name_H-M "P 42/N N M"
_symmetry_group_IT_number 134
_space_group.IT_coordinate_system_code '2'
_symmetry_cell_setting 'tetragonal'
loop_
_space_group_symop_operation_xyz
x,y,z
1/2-y,x,1/2+z
1/2-x,1/2-y,z
y,1/2-x,1/2+z
x,1/2-y,1/2-z
1/2-x,y,1/2-z
y,x,-z
1/2-y,1/2-x,-z
-x,-y,-z
1/2+y,-x,1/2-z
1/2+x,1/2+y,-z
-y,1/2+x,1/2-z
-x,1/2+y,1/2+z
1/2+x,-y,1/2+z
-y,-x,z
1/2+y,1/2+x,z
loop_
_atom_site_type_symbol
_atom_site_label
_atom_site_fract_x
_atom_site_fract_y
_atom_site_fract_z
Si Si1 0.179352 0.587823 0.635448
Si Si2 0.837744 0.250000 0.250000
Si Si3 0.150438 0.732516 0.365189
Si Si4 0.961131 0.552719 0.884113
Si Si5 0.648955 0.437272 0.921750
Si Si6 0.861944 0.045919 0.340019
Si Si7 0.171691 0.917012 0.450009
Si Si8 0.115992 0.976584 0.275822
O O1 0.131298 0.631298 0.628552
O O2 0.230631 0.624656 0.658433
O O3 0.176300 0.555071 0.531103
O O4 0.169844 0.553133 0.735780
O O5 0.799403 0.200598 0.278356
O O6 0.161180 0.750000 0.250000
O O7 0.203339 0.703339 0.407847
O O8 0.105271 0.687094 0.365545
O O9 0.123901 0.780909 0.425411
O O10 0.914181 0.528580 0.816232
O O11 0.007059 0.507059 0.884817
O O12 0.990869 0.605661 0.847222
O O13 0.942130 0.557871 0.000000
O O14 0.592786 0.407215 0.940837
O O15 0.638673 0.481945 0.837872
O O16 0.906534 0.093467 0.338719
O O17 0.826828 0.054186 0.441230
O O18 0.118588 0.881413 0.454118
O O19 0.160592 0.957440 0.356808
O O20 0.071375 0.928626 0.272209
#
# Coordination Sequence:
#
# PCOD9568095 Si02
#       8
#    16   8  16  16  16  16  16  16
#     4   9  18  31  42  53  75 102 130 168 211 252
#     4   9  18  32  46  56  68 100 156 202 222 245
#     4  11  21  31  41  54  75 106 144 178 212 255
#     4   9  14  23  42  65  80  90 111 148 198 263
#     4   9  18  31  42  53  75 106 129 159 209 258
#     4   9  17  28  42  60  77  93 117 157 207 256
#     4  10  18  28  40  55  77  99 126 168 214 250
#     4   9  15  26  43  59  75  97 119 147 203 269
#
# _framework density 14.492447
#
# number of rings (size 3 to 8) (size 9 to 14) (size 15 to 20)
#    0.000    2.600    2.667    0.400    1.867    0.933 
#    0.000    1.333    0.000    6.400    0.000    0.000 
#    0.000    0.000    0.000    0.000    0.000    0.000 
#
# Total GULP energy -668067.612408 kJ/mol
# GULP energy per Si atom -5567.230103 kJ/mol
# Density = 1.445946 g / cm^3
# Si number density = 14.492447 Si / 1000 Ang^3
#
#
#
# Elastic Constant Matrix: (Units=GPa)
#
#
# Indices 1 2 3 4 5 6 
#
# 1 32.8964 32.5085 41.9108 0.0000 0.0000 0.0000
# 2 32.5085 32.8964 41.9108 0.0000 0.0000 0.0000
# 3 41.9108 41.9108 131.1248 0.0000 0.0000 0.0000
# 4 0.0000 0.0000 0.0000 14.7699 0.0000 0.0000
# 5 0.0000 0.0000 0.0000 0.0000 14.7699 0.0000
# 6 0.0000 0.0000 0.0000 0.0000 0.0000 27.2503
#
#
#
# Elastic Compliance Matrix: (Units=1/GPa)
#
#
# Indices 1 2 3 4 5 6 
#
# 1 1.302151 -1.276254 -0.008277 0.000000 0.000000 0.000000
# 2 -1.276254 1.302152 -0.008278 0.000000 0.000000 0.000000
# 3 -0.008277 -0.008278 0.012918 0.000000 0.000000 0.000000
# 4 0.000000 0.000000 0.000000 0.067705 0.000000 0.000000
# 5 0.000000 0.000000 0.000000 0.000000 0.067705 0.000000
# 6 0.000000 0.000000 0.000000 0.000000 0.000000 0.036697
#
#
# Mechanical properties :
#
#
# Convention : Reuss Voigt Hill
#
# Bulk Modulus (GPa) = 31.64261 47.73087 39.68674
# Shear Modulus (GPa) = 0.92842 16.73051 8.82947
#
# Velocity S-wave (km/s) = 0.80126 3.40138 2.47097
# Velocity P-wave (km/s) = 4.76836 6.95933 5.96530
#
# Compressibility (1/GPa) = 0.03160295
#
# Stress axis : x y z
#
# Youngs Moduli (GPa) = 0.76796 0.76796 77.41283
#
# Poissons Ratio (x) = 0.98011 0.64073
# Poissons Ratio (y) = 0.98011 0.64085
# Poissons Ratio (z) = 0.00636 0.00636
#
# Static dielectric constant tensor:
#      x y z
#    x 1.477940 0.000000 0.000000 
#    y 0.000000 1.477940 0.000000 
#    z 0.000000 0.000000 1.535300 
# 
# From -- ./inp_files/5340.got.cif
#   From: 2010.05.17/outbox.cif.g08.bks.cpg/sg134_3_cif.got.tgz:5340.got - 2010.05.20 12:42:49.
