data_PCOD9568331
_publ_section_title
;
Structure prediction by ZEFSAII (Michael W. Deem and Ramdas Pophale) SiO2 
 PCOD9568331
Probable space group: P 42/N N M
;
_chemical_formula_sum "Si O2"
_cell_formula_units_Z 80
_cell_length_a 13.564836
_cell_length_b 13.564836
_cell_length_c 22.407380
_cell_angle_alpha 90.000000
_cell_angle_beta 90.000000
_cell_angle_gamma 90.000000
_cell_volume 4123.064931
_symmetry_space_group_name_H-M "P 42/N N M"
_symmetry_group_IT_number 134
_space_group.IT_coordinate_system_code '2'
_symmetry_cell_setting 'tetragonal'
loop_
_space_group_symop_operation_xyz
x,y,z
1/2-y,x,1/2+z
1/2-x,1/2-y,z
y,1/2-x,1/2+z
x,1/2-y,1/2-z
1/2-x,y,1/2-z
y,x,-z
1/2-y,1/2-x,-z
-x,-y,-z
1/2+y,-x,1/2-z
1/2+x,1/2+y,-z
-y,1/2+x,1/2-z
-x,1/2+y,1/2+z
1/2+x,-y,1/2+z
-y,-x,z
1/2+y,1/2+x,z
loop_
_atom_site_type_symbol
_atom_site_label
_atom_site_fract_x
_atom_site_fract_y
_atom_site_fract_z
Si Si1 0.600822 0.554989 0.897399
Si Si2 0.568887 0.913369 0.861138
Si Si3 0.212523 0.554608 0.062470
Si Si4 0.402205 0.261262 0.460508
Si Si5 0.971231 0.636060 0.263814
O O1 0.493185 0.506816 0.905288
O O2 0.680034 0.469507 0.912113
O O3 0.616769 0.648439 0.940392
O O4 0.619828 0.578809 0.827970
O O5 0.585381 0.815241 0.897497
O O6 0.460769 0.960769 0.867460
O O7 0.641915 0.990621 0.894129
O O8 0.595837 0.908927 0.791900
O O9 0.162107 0.662107 0.059870
O O10 0.218535 0.501951 0.997969
O O11 0.320150 0.320150 0.500000
O O12 0.991570 0.750000 0.250000
O O13 0.071449 0.571449 0.264823
#
# Coordination Sequence:
#
# PCOD9568331 Si02
#       5
#    16  16  16  16  16
#     4  11  24  39  57  85 123 158 192 242 302 354
#     4   9  18  35  59  86 115 147 197 248 289 347
#     4  10  20  36  58  83 113 151 196 244 292 344
#     4  10  22  39  60  86 118 156 199 243 296 350
#     4  10  20  37  57  84 119 157 192 240 300 353
#
# _framework density 19.403041999999999
#
# number of rings (size 3 to 8) (size 9 to 14) (size 15 to 20)
#    0.000    2.000    2.000    1.200    0.000   11.000 
#    0.000    3.000    0.000    1.800    0.000    0.000 
#    0.000    9.600    0.000    0.000    0.000    0.000 
#
# Total GULP energy -445918.758349 kJ/mol
# GULP energy per Si atom -5573.984479 kJ/mol
# Density = 1.935888 g / cm^3
# Si number density = 19.403042 Si / 1000 Ang^3
#
#
#
# Elastic Constant Matrix: (Units=GPa)
#
#
# Indices 1 2 3 4 5 6 
#
# 1 46.9976 55.1979 56.4265 0.0000 0.0000 0.0000
# 2 55.1979 46.9976 56.4265 0.0000 0.0000 0.0000
# 3 56.4265 56.4265 166.6412 0.0000 0.0000 0.0000
# 4 0.0000 0.0000 0.0000 14.1348 0.0000 0.0000
# 5 0.0000 0.0000 0.0000 0.0000 14.1348 0.0000
# 6 0.0000 0.0000 0.0000 0.0000 0.0000 19.3886
#
#
#
# Elastic Compliance Matrix: (Units=1/GPa)
#
#
# Indices 1 2 3 4 5 6 
#
# 1 -0.053159 0.068788 -0.005292 0.000000 0.000000 0.000000
# 2 0.068788 -0.053159 -0.005292 0.000000 0.000000 0.000000
# 3 -0.005292 -0.005292 0.009585 0.000000 0.000000 0.000000
# 4 0.000000 0.000000 0.000000 0.070748 0.000000 0.000000
# 5 0.000000 0.000000 0.000000 0.000000 0.070748 0.000000
# 6 0.000000 0.000000 0.000000 0.000000 0.000000 0.051577
#
#
# Mechanical properties :
#
#
# Convention : Reuss Voigt Hill
#
# Bulk Modulus (GPa) = 50.82704 66.30426 58.56565
# Shear Modulus (GPa) = -370.10416 15.70399 -177.20008
#
# Velocity S-wave (km/s) = -13.82604 2.84801 -9.56683
# Velocity P-wave (km/s) = 15.12042 6.71276 9.58034
#
# Compressibility (1/GPa) = 0.01967457
#
# Stress axis : x y z
#
# Youngs Moduli (GPa) = -18.81157 -18.81157 104.33029
#
# Poissons Ratio (x) = 1.29401 0.55214
# Poissons Ratio (y) = 1.29401 0.55214
# Poissons Ratio (z) = -0.09956 -0.09956
#
# Static dielectric constant tensor:
#      x y z
#    x 1.703610 0.000000 0.000000 
#    y 0.000000 1.703610 0.000000 
#    z 0.000000 0.000000 1.688590 
# 
# From -- ./inp_files/8915.got.cif
#   From: 2010.05.17/outbox.cif.g08.bks.cpg/sg134_5_cif.got.tgz:8915.got - 2010.05.20 12:42:49.
