data_PCOD9568271
_publ_section_title
;
Structure prediction by ZEFSAII (Michael W. Deem and Ramdas Pophale) SiO2 
 PCOD9568271
Probable space group: P 42/N N M
;
_chemical_formula_sum "Si O2"
_cell_formula_units_Z 80
_cell_length_a 17.821432
_cell_length_b 17.821432
_cell_length_c 13.877263
_cell_angle_alpha 90.000000
_cell_angle_beta 90.000000
_cell_angle_gamma 90.000000
_cell_volume 4407.466446
_symmetry_space_group_name_H-M "P 42/N N M"
_symmetry_group_IT_number 134
_space_group.IT_coordinate_system_code '2'
_symmetry_cell_setting 'tetragonal'
loop_
_space_group_symop_operation_xyz
x,y,z
1/2-y,x,1/2+z
1/2-x,1/2-y,z
y,1/2-x,1/2+z
x,1/2-y,1/2-z
1/2-x,y,1/2-z
y,x,-z
1/2-y,1/2-x,-z
-x,-y,-z
1/2+y,-x,1/2-z
1/2+x,1/2+y,-z
-y,1/2+x,1/2-z
-x,1/2+y,1/2+z
1/2+x,-y,1/2+z
-y,-x,z
1/2+y,1/2+x,z
loop_
_atom_site_type_symbol
_atom_site_label
_atom_site_fract_x
_atom_site_fract_y
_atom_site_fract_z
Si Si1 0.650450 0.466996 0.970949
Si Si2 0.193632 0.037866 0.469122
Si Si3 0.430907 0.098160 0.356694
Si Si4 0.774825 0.834521 0.857631
Si Si5 0.576336 0.954145 0.133735
O O1 0.615222 0.384779 0.961894
O O2 0.623581 0.503429 0.072231
O O3 0.740057 0.476711 0.962994
O O4 0.608071 0.521313 0.894122
O O5 0.236040 0.113465 0.436653
O O6 0.122597 0.033669 0.396757
O O7 0.153238 0.043609 0.572476
O O8 0.363781 0.157841 0.364295
O O9 0.454856 0.090539 0.247013
O O10 0.750000 0.750000 0.868552
O O11 0.750000 0.860498 0.750000
O O12 0.524474 0.024474 0.107107
#
# Coordination Sequence:
#
# PCOD9568271 Si02
#       5
#    16  16  16  16  16
#     4  10  21  37  56  79 108 148 198 238 271 325
#     4  10  22  35  52  82 111 145 189 223 287 335
#     4  10  20  36  56  80 110 154 189 224 273 333
#     4  10  20  33  51  80 120 151 178 213 271 340
#     4  11  22  38  57  79 113 147 188 237 288 349
#
# _framework density 18.151015999999998
#
# number of rings (size 3 to 8) (size 9 to 14) (size 15 to 20)
#    0.000    1.800    2.000    3.600    5.600    0.800 
#    0.000    1.000    0.000    2.400    0.000    0.000 
#    0.000   13.600    0.000    0.000    0.000    4.800 
#
# Total GULP energy -446743.111233 kJ/mol
# GULP energy per Si atom -5584.288890 kJ/mol
# Density = 1.810970 g / cm^3
# Si number density = 18.151016 Si / 1000 Ang^3
#
#
#
# Elastic Constant Matrix: (Units=GPa)
#
#
# Indices 1 2 3 4 5 6 
#
# 1 82.2869 51.3217 14.7055 0.0000 0.0000 0.0000
# 2 51.3217 82.2869 14.7055 0.0000 0.0000 0.0000
# 3 14.7055 14.7055 102.7195 0.0000 0.0000 0.0000
# 4 0.0000 0.0000 0.0000 8.4631 0.0000 0.0000
# 5 0.0000 0.0000 0.0000 0.0000 8.4631 0.0000
# 6 0.0000 0.0000 0.0000 0.0000 0.0000 35.9210
#
#
#
# Elastic Compliance Matrix: (Units=1/GPa)
#
#
# Indices 1 2 3 4 5 6 
#
# 1 0.020011 -0.012283 -0.001106 0.000000 0.000000 0.000000
# 2 -0.012283 0.020011 -0.001106 0.000000 0.000000 0.000000
# 3 -0.001106 -0.001106 0.010052 0.000000 0.000000 0.000000
# 4 0.000000 0.000000 0.000000 0.118160 0.000000 0.000000
# 5 0.000000 0.000000 0.000000 0.000000 0.118160 0.000000
# 6 0.000000 0.000000 0.000000 0.000000 0.000000 0.027839
#
#
# Mechanical properties :
#
#
# Convention : Reuss Voigt Hill
#
# Bulk Modulus (GPa) = 47.43215 47.63985 47.53600
# Shear Modulus (GPa) = 14.27544 23.00682 18.64113
#
# Velocity S-wave (km/s) = 2.80747 3.56409 3.20816
# Velocity P-wave (km/s) = 6.05788 6.57574 6.32211
#
# Compressibility (1/GPa) = 0.02108274
#
# Stress axis : x y z
#
# Youngs Moduli (GPa) = 49.97196 49.97196 99.48239
#
# Poissons Ratio (x) = 0.61381 0.11006
# Poissons Ratio (y) = 0.61381 0.11006
# Poissons Ratio (z) = 0.05529 0.05529
#
# Static dielectric constant tensor:
#      x y z
#    x 1.633940 0.000000 0.000000 
#    y 0.000000 1.633940 0.000000 
#    z 0.000000 0.000000 1.664500 
# 
# From -- ./inp_files/6342.got.cif
#   From: 2010.05.17/outbox.cif.g08.bks.cpg/sg134_4_cif.got.tgz:6342.got - 2010.05.20 12:42:49.
