data_PCOD9568749
_publ_section_title
;
Structure prediction by ZEFSAII (Michael W. Deem and Ramdas Pophale) SiO2 
 PCOD9568749
Probable space group: P 42/M B C
;
_chemical_formula_sum "Si O2"
_cell_formula_units_Z 112
_cell_length_a 14.766189
_cell_length_b 14.766189
_cell_length_c 29.848434
_cell_angle_alpha 90.000000
_cell_angle_beta 90.000000
_cell_angle_gamma 90.000000
_cell_volume 6508.162626
_symmetry_space_group_name_H-M "P 42/M B C"
_symmetry_group_IT_number 135
_symmetry_cell_setting 'tetragonal'
loop_
_space_group_symop_operation_xyz
x,y,z
-y,x,1/2+z
-x,-y,z
y,-x,1/2+z
1/2+x,1/2-y,-z
1/2-x,1/2+y,-z
1/2+y,1/2+x,1/2-z
1/2-y,1/2-x,1/2-z
-x,-y,-z
y,-x,1/2-z
x,y,-z
-y,x,1/2-z
1/2-x,1/2+y,z
1/2+x,1/2-y,z
1/2-y,1/2-x,1/2+z
1/2+y,1/2+x,1/2+z
loop_
_atom_site_type_symbol
_atom_site_label
_atom_site_fract_x
_atom_site_fract_y
_atom_site_fract_z
Si Si1 0.561512 0.577324 0.051627
Si Si2 0.146898 0.809535 0.648082
Si Si3 0.595978 0.617165 0.254685
Si Si4 0.929328 0.583058 0.053526
Si Si5 0.488404 0.739186 0.892925
Si Si6 0.736887 0.539587 0.900693
Si Si7 0.660923 0.699877 0.836108
O O1 0.500000 0.500000 0.074456
O O2 0.535342 0.672188 0.072066
O O3 0.664358 0.550439 0.059613
O O4 0.539662 0.581606 0.000000
O O5 0.115007 0.843062 0.696654
O O6 0.195436 0.893989 0.623404
O O7 0.219711 0.730993 0.655659
O O8 0.059764 0.774160 0.620731
O O9 0.621948 0.511350 0.254474
O O10 0.648713 0.668191 0.214997
O O11 0.969823 0.666907 0.081882
O O12 0.835564 0.557830 0.078776
O O13 0.000000 0.500000 0.055579
O O14 0.915190 0.603768 0.000000
O O15 0.562765 0.735251 0.853285
O O16 0.700315 0.614160 0.864608
#
# Coordination Sequence:
#
# PCOD9568749 Si02
#       7
#    16  16  16  16  16  16  16
#     4  10  20  34  56  87 121 150 195 255 306 356
#     4  12  22  39  62  88 126 160 204 255 308 371
#     4  11  22  37  63  91 121 159 202 256 314 372
#     4  11  24  44  64  87 126 166 209 255 303 371
#     4  11  22  39  62  88 117 163 207 248 312 367
#     4  11  22  38  62  90 117 159 206 249 310 365
#     4  11  23  39  62  89 121 164 203 255 308 371
#
# _framework density 17.209157999999999
#
# number of rings (size 3 to 8) (size 9 to 14) (size 15 to 20)
#    0.000    1.000    5.714    2.143    0.000    0.000 
#    0.000    0.000    0.000    0.000    0.000    6.000 
#    0.000    0.000    0.000    0.000    0.000    0.000 
#
# Total GULP energy -624818.902544 kJ/mol
# GULP energy per Si atom -5578.740201 kJ/mol
# Density = 1.716999 g / cm^3
# Si number density = 17.209158 Si / 1000 Ang^3
#
#
#
# Elastic Constant Matrix: (Units=GPa)
#
#
# Indices 1 2 3 4 5 6 
#
# 1 102.6171 45.2608 18.9458 0.0000 0.0000 0.0000
# 2 45.2608 102.6171 18.9458 0.0000 0.0000 0.0000
# 3 18.9458 18.9458 69.7571 0.0000 0.0000 0.0000
# 4 0.0000 0.0000 0.0000 4.2090 0.0000 0.0000
# 5 0.0000 0.0000 0.0000 0.0000 4.2090 0.0000
# 6 0.0000 0.0000 0.0000 0.0000 0.0000 33.9326
#
#
#
# Elastic Compliance Matrix: (Units=1/GPa)
#
#
# Indices 1 2 3 4 5 6 
#
# 1 0.012352 -0.005083 -0.001974 0.000000 0.000000 0.000000
# 2 -0.005083 0.012352 -0.001974 0.000000 0.000000 0.000000
# 3 -0.001974 -0.001974 0.015408 0.000000 0.000000 0.000000
# 4 0.000000 0.000000 0.000000 0.237588 0.000000 0.000000
# 5 0.000000 0.000000 0.000000 0.000000 0.237588 0.000000
# 6 0.000000 0.000000 0.000000 0.000000 0.000000 0.029470
#
#
# Mechanical properties :
#
#
# Convention : Reuss Voigt Hill
#
# Bulk Modulus (GPa) = 45.35558 49.03289 47.19423
# Shear Modulus (GPa) = 8.76933 21.25936 15.01434
#
# Velocity S-wave (km/s) = 2.25982 3.51857 2.95695
# Velocity P-wave (km/s) = 5.76383 6.71277 6.25632
#
# Compressibility (1/GPa) = 0.02204801
#
# Stress axis : x y z
#
# Youngs Moduli (GPa) = 80.96178 80.96178 64.90250
#
# Poissons Ratio (x) = 0.41156 0.12812
# Poissons Ratio (y) = 0.41156 0.12812
# Poissons Ratio (z) = 0.15982 0.15982
#
# Static dielectric constant tensor:
#      x y z
#    x 1.585570 0.000000 0.000000 
#    y 0.000000 1.585570 0.000000 
#    z 0.000000 0.000000 1.571270 
# 
# From -- ./inp_files/6862.got.cif
#   From: 2010.05.17/outbox.cif.g08.bks.cpg/sg135_4_cif.got.tgz:6862.got - 2010.05.20 12:50:20.
