data_PCOD9568898
_publ_section_title
;
Structure prediction by ZEFSAII (Michael W. Deem and Ramdas Pophale) SiO2 
 PCOD9568898
Probable space group: P 42/M B C
;
_chemical_formula_sum "Si O2"
_cell_formula_units_Z 96
_cell_length_a 14.609296
_cell_length_b 14.609296
_cell_length_c 21.002035
_cell_angle_alpha 90.000000
_cell_angle_beta 90.000000
_cell_angle_gamma 90.000000
_cell_volume 4482.496455
_symmetry_space_group_name_H-M "P 42/M B C"
_symmetry_group_IT_number 135
_symmetry_cell_setting 'tetragonal'
loop_
_space_group_symop_operation_xyz
x,y,z
-y,x,1/2+z
-x,-y,z
y,-x,1/2+z
1/2+x,1/2-y,-z
1/2-x,1/2+y,-z
1/2+y,1/2+x,1/2-z
1/2-y,1/2-x,1/2-z
-x,-y,-z
y,-x,1/2-z
x,y,-z
-y,x,1/2-z
1/2-x,1/2+y,z
1/2+x,1/2-y,z
1/2-y,1/2-x,1/2+z
1/2+y,1/2+x,1/2+z
loop_
_atom_site_type_symbol
_atom_site_label
_atom_site_fract_x
_atom_site_fract_y
_atom_site_fract_z
Si Si1 0.295990 0.823870 0.576288
Si Si2 0.873197 0.235218 0.262885
Si Si3 0.756768 0.485619 0.633005
Si Si4 0.068806 0.074271 0.157724
Si Si5 0.366947 0.186272 0.396325
Si Si6 0.468293 0.712654 0.570688
O O1 0.305259 0.841909 0.500000
O O2 0.302926 0.916924 0.616793
O O3 0.200438 0.771162 0.587599
O O4 0.373608 0.751720 0.596597
O O5 0.769480 0.269480 0.250000
O O6 0.879534 0.131917 0.288181
O O7 0.896378 0.300934 0.322482
O O8 0.941803 0.251286 0.204187
O O9 0.650944 0.511330 0.619775
O O10 0.809651 0.406193 0.594631
O O11 0.137731 0.018010 0.113048
O O12 0.000000 0.000000 0.183587
O O13 0.460875 0.202361 0.432504
O O14 0.452096 0.676284 0.500000
#
# Coordination Sequence:
#
# PCOD9568898 Si02
#       6
#    16  16  16  16  16  16
#     4  11  23  41  66  96 130 181 223 264 337 405
#     4   9  21  41  62  90 133 173 215 272 338 399
#     4  11  23  39  66  94 128 173 225 271 334 406
#     4  11  23  38  63 100 130 167 219 283 341 404
#     4  10  21  43  63  93 135 174 219 281 332 400
#     4  10  22  42  65  92 133 176 221 276 334 397
#
# _framework density 21.416637999999999
#
# number of rings (size 3 to 8) (size 9 to 14) (size 15 to 20)
#    0.000    1.667    3.333    1.500    2.333    2.333 
#    3.000    5.000    0.000    8.000    0.000    0.000 
#    0.000    0.000    0.000    0.000    0.000    0.000 
#
# Total GULP energy -535256.150212 kJ/mol
# GULP energy per Si atom -5575.584898 kJ/mol
# Density = 2.136789 g / cm^3
# Si number density = 21.416638 Si / 1000 Ang^3
#
#
#
# Elastic Constant Matrix: (Units=GPa)
#
#
# Indices 1 2 3 4 5 6 
#
# 1 95.2352 26.6470 18.0693 0.0000 0.0000 0.0000
# 2 26.6470 95.2352 18.0693 0.0000 0.0000 0.0000
# 3 18.0693 18.0693 35.0713 0.0000 0.0000 0.0000
# 4 0.0000 0.0000 0.0000 15.0358 0.0000 0.0000
# 5 0.0000 0.0000 0.0000 0.0000 15.0358 0.0000
# 6 0.0000 0.0000 0.0000 0.0000 0.0000 50.1120
#
#
#
# Elastic Compliance Matrix: (Units=1/GPa)
#
#
# Indices 1 2 3 4 5 6 
#
# 1 0.012132 -0.002448 -0.004989 0.000000 0.000000 0.000000
# 2 -0.002448 0.012132 -0.004989 0.000000 0.000000 0.000000
# 3 -0.004989 -0.004989 0.033655 0.000000 0.000000 0.000000
# 4 0.000000 0.000000 0.000000 0.066508 0.000000 0.000000
# 5 0.000000 0.000000 0.000000 0.000000 0.066508 0.000000
# 6 0.000000 0.000000 0.000000 0.000000 0.000000 0.019955
#
#
# Mechanical properties :
#
#
# Convention : Reuss Voigt Hill
#
# Bulk Modulus (GPa) = 30.24338 39.01257 34.62798
# Shear Modulus (GPa) = 20.26222 26.88712 23.57467
#
# Velocity S-wave (km/s) = 3.07921 3.54705 3.32138
# Velocity P-wave (km/s) = 5.17630 5.91870 5.55991
#
# Compressibility (1/GPa) = 0.03306508
#
# Stress axis : x y z
#
# Youngs Moduli (GPa) = 82.42742 82.42742 29.71369
#
# Poissons Ratio (x) = 0.20177 0.14825
# Poissons Ratio (y) = 0.20177 0.14825
# Poissons Ratio (z) = 0.41126 0.41126
#
# Static dielectric constant tensor:
#      x y z
#    x 1.794710 0.000000 0.000000 
#    y 0.000000 1.794710 0.000000 
#    z 0.000000 0.000000 1.926570 
# 
# From -- ./inp_files/5436.got.cif
#   From: 2010.05.17/outbox.cif.g08.bks.cpg/sg135_3_cif.got.tgz:5436.got - 2010.05.20 12:50:20.
