data_PCOD9568869
_publ_section_title
;
Structure prediction by ZEFSAII (Michael W. Deem and Ramdas Pophale) SiO2 
 PCOD9568869
Probable space group: P 42/M B C
;
_chemical_formula_sum "Si O2"
_cell_formula_units_Z 104
_cell_length_a 18.804193
_cell_length_b 18.804193
_cell_length_c 17.229303
_cell_angle_alpha 90.000000
_cell_angle_beta 90.000000
_cell_angle_gamma 90.000000
_cell_volume 6092.241472
_symmetry_space_group_name_H-M "P 42/M B C"
_symmetry_group_IT_number 135
_symmetry_cell_setting 'tetragonal'
loop_
_space_group_symop_operation_xyz
x,y,z
-y,x,1/2+z
-x,-y,z
y,-x,1/2+z
1/2+x,1/2-y,-z
1/2-x,1/2+y,-z
1/2+y,1/2+x,1/2-z
1/2-y,1/2-x,1/2-z
-x,-y,-z
y,-x,1/2-z
x,y,-z
-y,x,1/2-z
1/2-x,1/2+y,z
1/2+x,1/2-y,z
1/2-y,1/2-x,1/2+z
1/2+y,1/2+x,1/2+z
loop_
_atom_site_type_symbol
_atom_site_label
_atom_site_fract_x
_atom_site_fract_y
_atom_site_fract_z
Si Si1 0.952732 0.338074 0.222502
Si Si2 0.783299 0.716701 0.750000
Si Si3 0.628007 0.705226 0.712353
Si Si4 0.938577 0.917221 0.716510
Si Si5 0.315416 0.922827 0.847075
Si Si6 0.817411 0.993666 0.090496
Si Si7 0.079592 0.473923 0.591123
O O1 0.900760 0.400760 0.250000
O O2 0.908587 0.265397 0.233716
O O3 0.020500 0.331166 0.278728
O O4 0.982814 0.361710 0.139534
O O5 0.710720 0.719159 0.700777
O O6 0.850322 0.710286 0.692793
O O7 0.624262 0.630047 0.755805
O O8 0.580223 0.699703 0.635053
O O9 0.971004 0.881785 0.639939
O O10 0.000205 0.915664 0.782648
O O11 0.252250 0.956977 0.897689
O O12 0.390039 0.913517 0.891167
O O13 0.833135 0.984948 0.000000
O O14 0.086707 0.487238 0.500000
O O15 0.000000 0.500000 0.614946
#
# Coordination Sequence:
#
# PCOD9568869 Si02
#       7
#    16   8  16  16  16  16  16
#     4  11  20  36  58  82 114 155 198 232 273 353
#     4  12  20  36  61  88 107 152 198 232 286 338
#     4  10  22  37  58  83 115 154 199 237 283 352
#     4   9  18  36  61  85 109 145 194 245 285 347
#     4  11  21  34  61  87 116 150 193 237 284 349
#     4  10  21  39  60  87 118 152 191 244 301 347
#     4  11  22  35  55  87 122 152 189 241 290 334
#
# _framework density 17.070892000000001
#
# number of rings (size 3 to 8) (size 9 to 14) (size 15 to 20)
#    0.000    1.538    5.385    0.462    0.000    0.000 
#    0.000    8.462    0.000    0.000    0.000    0.000 
#    0.000    0.000    0.000    0.000    0.000    0.000 
#
# Total GULP energy -579823.347192 kJ/mol
# GULP energy per Si atom -5575.224492 kJ/mol
# Density = 1.703204 g / cm^3
# Si number density = 17.070892 Si / 1000 Ang^3
#
#
#
# Elastic Constant Matrix: (Units=GPa)
#
#
# Indices 1 2 3 4 5 6 
#
# 1 113.2034 39.2146 49.5389 0.0000 0.0000 0.0000
# 2 39.2146 113.2030 49.5387 0.0000 0.0000 0.0000
# 3 49.5389 49.5387 103.0607 0.0000 0.0000 0.0000
# 4 0.0000 0.0000 0.0000 18.0406 0.0000 0.0000
# 5 0.0000 0.0000 0.0000 0.0000 18.0407 0.0000
# 6 0.0000 0.0000 0.0000 0.0000 0.0000 24.4166
#
#
#
# Elastic Compliance Matrix: (Units=1/GPa)
#
#
# Indices 1 2 3 4 5 6 
#
# 1 0.011529 -0.001987 -0.004587 0.000000 0.000000 0.000000
# 2 -0.001987 0.011529 -0.004587 0.000000 0.000000 0.000000
# 3 -0.004587 -0.004587 0.014113 0.000000 0.000000 0.000000
# 4 0.000000 0.000000 0.000000 0.055431 0.000000 0.000000
# 5 0.000000 0.000000 0.000000 0.000000 0.055430 0.000000
# 6 0.000000 0.000000 0.000000 0.000000 0.000000 0.040956
#
#
# Mechanical properties :
#
#
# Convention : Reuss Voigt Hill
#
# Bulk Modulus (GPa) = 67.33900 67.33904 67.33902
# Shear Modulus (GPa) = 23.12053 24.84457 23.98255
#
# Velocity S-wave (km/s) = 3.68419 3.81908 3.75224
# Velocity P-wave (km/s) = 7.59144 7.67981 7.63575
#
# Compressibility (1/GPa) = 0.01485024
#
# Stress axis : x y z
#
# Youngs Moduli (GPa) = 86.73726 86.73709 70.85849
#
# Poissons Ratio (x) = 0.17230 0.32502
# Poissons Ratio (y) = 0.17230 0.32502
# Poissons Ratio (z) = 0.39785 0.39785
#
# Static dielectric constant tensor:
#      x y z
#    x 1.603890 0.000000 0.000000 
#    y 0.000000 1.603890 0.000000 
#    z 0.000000 0.000000 1.540370 
# 
# From -- ./inp_files/4560.got.cif
#   From: 2010.05.17/outbox.cif.g08.bks.cpg/sg135_3_cif.got.tgz:4560.got - 2010.05.20 12:50:20.
