data_PCOD9568522
_publ_section_title
;
Structure prediction by ZEFSAII (Michael W. Deem and Ramdas Pophale) SiO2 
 PCOD9568522
Probable space group: P 42/N N M
;
_chemical_formula_sum "Si O2"
_cell_formula_units_Z 50
_cell_length_a 16.100604
_cell_length_b 16.100604
_cell_length_c 10.321491
_cell_angle_alpha 90.000000
_cell_angle_beta 90.000000
_cell_angle_gamma 90.000000
_cell_volume 2675.634426
_symmetry_space_group_name_H-M "P 42/N N M"
_symmetry_group_IT_number 134
_space_group.IT_coordinate_system_code '2'
_symmetry_cell_setting 'tetragonal'
loop_
_space_group_symop_operation_xyz
x,y,z
1/2-y,x,1/2+z
1/2-x,1/2-y,z
y,1/2-x,1/2+z
x,1/2-y,1/2-z
1/2-x,y,1/2-z
y,x,-z
1/2-y,1/2-x,-z
-x,-y,-z
1/2+y,-x,1/2-z
1/2+x,1/2+y,-z
-y,1/2+x,1/2-z
-x,1/2+y,1/2+z
1/2+x,-y,1/2+z
-y,-x,z
1/2+y,1/2+x,z
loop_
_atom_site_type_symbol
_atom_site_label
_atom_site_fract_x
_atom_site_fract_y
_atom_site_fract_z
Si Si1 0.250000 0.750000 0.250000
Si Si2 0.600432 0.750000 0.750000
Si Si3 0.750000 0.876980 0.750000
Si Si4 0.750589 0.499696 0.987558
Si Si5 0.933358 0.433358 0.930792
Si Si6 0.118423 0.881578 0.139312
O O1 0.186897 0.813104 0.180918
O O2 0.665087 0.825597 0.753134
O O3 0.542727 0.756182 0.625472
O O4 0.748109 0.930743 0.877975
O O5 0.840055 0.454938 0.976574
O O6 0.671234 0.444972 0.947538
O O7 0.923295 0.423295 0.770446
O O8 0.000000 0.500000 0.000000
#
# Coordination Sequence:
#
# PCOD9568522 Si02
#       6
#     2   8   8  16   8   8
#     4  12  16  44  64  94 116 184 236 266 300 432
#     4  11  26  40  66  99 138 170 218 285 348 396
#     4  11  21  46  67  91 132 186 222 263 333 432
#     4  12  24  42  67  99 131 177 228 281 338 412
#     4  12  22  39  68  96 131 177 229 283 334 404
#     4  12  22  41  71  98 129 182 233 276 339 409
#
# _framework density 18.687158
#
# number of rings (size 3 to 8) (size 9 to 14) (size 15 to 20)
#    0.000    0.320    6.400    3.840    0.000    3.840 
#    0.000    4.800    0.000    1.920    0.000    0.000 
#    0.000    0.000    0.000    0.000    0.000    0.000 
#
# Total GULP energy -278938.199938 kJ/mol
# GULP energy per Si atom -5578.763999 kJ/mol
# Density = 1.864463 g / cm^3
# Si number density = 18.687158 Si / 1000 Ang^3
#
#
#
# Elastic Constant Matrix: (Units=GPa)
#
#
# Indices 1 2 3 4 5 6 
#
# 1 147.8416 87.8364 99.2019 0.0000 0.0000 0.0000
# 2 87.8364 147.8416 99.2019 0.0000 0.0000 0.0000
# 3 99.2019 99.2019 207.0827 0.0000 0.0000 0.0000
# 4 0.0000 0.0000 0.0000 32.2776 0.0000 0.0000
# 5 0.0000 0.0000 0.0000 0.0000 32.2776 0.0000
# 6 0.0000 0.0000 0.0000 0.0000 0.0000 185.0133
#
#
#
# Elastic Compliance Matrix: (Units=1/GPa)
#
#
# Indices 1 2 3 4 5 6 
#
# 1 0.011888 -0.004777 -0.003406 0.000000 0.000000 0.000000
# 2 -0.004777 0.011888 -0.003406 0.000000 0.000000 0.000000
# 3 -0.003406 -0.003406 0.008093 0.000000 0.000000 0.000000
# 4 0.000000 0.000000 0.000000 0.030981 0.000000 0.000000
# 5 0.000000 0.000000 0.000000 0.000000 0.030981 0.000000
# 6 0.000000 0.000000 0.000000 0.000000 0.000000 0.005405
#
#
# Mechanical properties :
#
#
# Convention : Reuss Voigt Hill
#
# Bulk Modulus (GPa) = 115.09361 119.47180 117.28271
# Shear Modulus (GPa) = 39.90039 64.34874 52.12456
#
# Velocity S-wave (km/s) = 4.62581 5.87448 5.28714
# Velocity P-wave (km/s) = 9.50022 10.49209 10.00845
#
# Compressibility (1/GPa) = 0.00868858
#
# Stress axis : x y z
#
# Youngs Moduli (GPa) = 84.11883 84.11883 123.57035
#
# Poissons Ratio (x) = 0.40186 0.42092
# Poissons Ratio (y) = 0.40186 0.42092
# Poissons Ratio (z) = 0.28654 0.28654
#
# Static dielectric constant tensor:
#      x y z
#    x 1.523760 0.000000 0.000000 
#    y 0.000000 1.523760 0.000000 
#    z 0.000000 0.000000 1.614840 
# 
# From -- ./inp_files/4277.got.cif
#   From: 2010.05.17/outbox.cif.g08.bks.cpg/sg134_3_cif.got.tgz:4277.got - 2010.05.20 12:42:49.
