data_PCOD9568044
_publ_section_title
;
Structure prediction by ZEFSAII (Michael W. Deem and Ramdas Pophale) SiO2 
 PCOD9568044
Probable space group: P 42/N B C
;
_chemical_formula_sum "Si O2"
_cell_formula_units_Z 64
_cell_length_a 12.381372
_cell_length_b 12.381372
_cell_length_c 21.489381
_cell_angle_alpha 90.000000
_cell_angle_beta 90.000000
_cell_angle_gamma 90.000000
_cell_volume 3294.287136
_symmetry_space_group_name_H-M "P 42/N B C"
_symmetry_group_IT_number 133
_space_group.IT_coordinate_system_code '2'
_symmetry_cell_setting 'tetragonal'
loop_
_space_group_symop_operation_xyz
x,y,z
1/2-y,x,1/2+z
1/2-x,1/2-y,z
y,1/2-x,1/2+z
x,1/2-y,-z
1/2-x,y,-z
y,x,1/2-z
1/2-y,1/2-x,1/2-z
-x,-y,-z
1/2+y,-x,1/2-z
1/2+x,1/2+y,-z
-y,1/2+x,1/2-z
-x,1/2+y,z
1/2+x,-y,z
-y,-x,1/2+z
1/2+y,1/2+x,1/2+z
loop_
_atom_site_type_symbol
_atom_site_label
_atom_site_fract_x
_atom_site_fract_y
_atom_site_fract_z
Si Si1 0.624077 0.263036 0.652605
Si Si2 0.745664 0.580156 0.926371
Si Si3 0.744405 0.865991 0.648154
Si Si4 0.355200 0.530265 0.271166
O O1 0.750000 0.250000 0.637271
O O2 0.541360 0.238722 0.597540
O O3 0.593090 0.187264 0.710900
O O4 0.605116 0.383349 0.678743
O O5 0.850216 0.638607 0.894287
O O6 0.647266 0.652068 0.897901
O O7 0.750000 0.589850 0.000000
O O8 0.750000 0.750000 0.682713
O O9 0.759567 0.962803 0.695050
O O10 0.445290 0.445290 0.250000
#
# Coordination Sequence:
#
# PCOD9568044 Si02
#       4
#    16  16  16  16
#     4  12  25  40  59  92 137 170 200 264 334 394
#     4   9  20  41  66  89 127 168 213 269 317 385
#     4   8  19  37  66  93 118 154 215 278 320 356
#     4  12  22  39  63  94 124 162 216 271 332 386
#
# _framework density 19.427569999999999
#
# number of rings (size 3 to 8) (size 9 to 14) (size 15 to 20)
#    1.500    0.000    5.000    1.500    3.500    3.000 
#    0.000    1.250    5.500    0.000    0.000    0.000 
#    0.000    0.000    0.000    0.000    0.000    0.000 
#
# Total GULP energy -356505.699353 kJ/mol
# GULP energy per Si atom -5570.401552 kJ/mol
# Density = 1.938335 g / cm^3
# Si number density = 19.427570 Si / 1000 Ang^3
#
#
#
# Elastic Constant Matrix: (Units=GPa)
#
#
# Indices 1 2 3 4 5 6 
#
# 1 99.8050 10.1678 27.3522 0.0000 0.0000 0.0000
# 2 10.1678 99.8050 27.3522 0.0000 0.0000 0.0000
# 3 27.3522 27.3522 77.1290 0.0000 0.0000 0.0000
# 4 0.0000 0.0000 0.0000 8.1236 0.0000 0.0000
# 5 0.0000 0.0000 0.0000 0.0000 8.1236 0.0000
# 6 0.0000 0.0000 0.0000 0.0000 0.0000 21.8628
#
#
#
# Elastic Compliance Matrix: (Units=1/GPa)
#
#
# Indices 1 2 3 4 5 6 
#
# 1 0.011098 -0.000058 -0.003915 0.000000 0.000000 0.000000
# 2 -0.000058 0.011098 -0.003915 0.000000 0.000000 0.000000
# 3 -0.003915 -0.003915 0.015742 0.000000 0.000000 0.000000
# 4 0.000000 0.000000 0.000000 0.123098 0.000000 0.000000
# 5 0.000000 0.000000 0.000000 0.000000 0.123098 0.000000
# 6 0.000000 0.000000 0.000000 0.000000 0.000000 0.045740
#
#
# Mechanical properties :
#
#
# Convention : Reuss Voigt Hill
#
# Bulk Modulus (GPa) = 45.12154 45.16483 45.14319
# Shear Modulus (GPa) = 14.16270 21.74644 17.95457
#
# Velocity S-wave (km/s) = 2.70293 3.34931 3.04333
# Velocity P-wave (km/s) = 5.74605 6.18510 5.96961
#
# Compressibility (1/GPa) = 0.02216236
#
# Stress axis : x y z
#
# Youngs Moduli (GPa) = 90.10263 90.10263 63.52297
#
# Poissons Ratio (x) = 0.00519 0.24872
# Poissons Ratio (y) = 0.00519 0.24872
# Poissons Ratio (z) = 0.35279 0.35279
#
# Static dielectric constant tensor:
#      x y z
#    x 1.719550 0.000000 0.000000 
#    y 0.000000 1.719550 0.000000 
#    z 0.000000 0.000000 1.636650 
# 
# From -- ./inp_files/6137.got.cif
#   From: 2010.05.17/outbox.cif.g08.bks.cpg/sg133_4_cif.got.tgz:6137.got - 2010.05.20 12:37:36.
