data_PCOD9568676
_publ_section_title
;
Structure prediction by ZEFSAII (Michael W. Deem and Ramdas Pophale) SiO2 
 PCOD9568676
Probable space group: P 42/M B C
;
_chemical_formula_sum "Si O2"
_cell_formula_units_Z 88
_cell_length_a 17.461820
_cell_length_b 17.461820
_cell_length_c 16.211954
_cell_angle_alpha 90.000000
_cell_angle_beta 90.000000
_cell_angle_gamma 90.000000
_cell_volume 4943.270511
_symmetry_space_group_name_H-M "P 42/M B C"
_symmetry_group_IT_number 135
_symmetry_cell_setting 'tetragonal'
loop_
_space_group_symop_operation_xyz
x,y,z
-y,x,1/2+z
-x,-y,z
y,-x,1/2+z
1/2+x,1/2-y,-z
1/2-x,1/2+y,-z
1/2+y,1/2+x,1/2-z
1/2-y,1/2-x,1/2-z
-x,-y,-z
y,-x,1/2-z
x,y,-z
-y,x,1/2-z
1/2-x,1/2+y,z
1/2+x,1/2-y,z
1/2-y,1/2-x,1/2+z
1/2+y,1/2+x,1/2+z
loop_
_atom_site_type_symbol
_atom_site_label
_atom_site_fract_x
_atom_site_fract_y
_atom_site_fract_z
Si Si1 0.658962 0.731938 0.694169
Si Si2 0.279148 0.525503 0.405151
Si Si3 0.652846 0.234712 0.909899
Si Si4 0.334357 0.041362 0.742484
Si Si5 0.071092 0.902496 0.776010
Si Si6 0.636860 0.136860 0.250000
O O1 0.715924 0.784076 0.750000
O O2 0.698064 0.712645 0.608347
O O3 0.580392 0.778434 0.691345
O O4 0.636847 0.650839 0.736303
O O5 0.274348 0.551863 0.500000
O O6 0.268328 0.433401 0.405817
O O7 0.210613 0.553926 0.344641
O O8 0.358666 0.549076 0.360769
O O9 0.663839 0.178070 0.833249
O O10 0.663054 0.199779 0.000000
O O11 0.413315 0.086686 0.750000
O O12 0.346625 0.952719 0.755616
O O13 0.991205 0.903111 0.723372
#
# Coordination Sequence:
#
# PCOD9568676 Si02
#       6
#    16  16  16  16  16   8
#     4  10  19  34  54  76 108 149 183 226 274 331
#     4   9  18  34  56  82 111 148 192 227 275 347
#     4  10  19  34  57  82 110 149 190 229 275 338
#     4   9  19  34  57  82 111 146 187 231 286 323
#     4  10  19  33  55  82 108 147 186 231 284 332
#     4  10  19  36  60  82 110 151 190 230 278 338
#
# _framework density 17.80198
#
# number of rings (size 3 to 8) (size 9 to 14) (size 15 to 20)
#    0.000    2.364    2.727    0.273    0.000    0.000 
#    0.000   12.727    0.000    4.364    0.000    0.000 
#    0.000    0.000    0.000    0.000    0.000    0.000 
#
# Total GULP energy -489927.028063 kJ/mol
# GULP energy per Si atom -5567.352592 kJ/mol
# Density = 1.776146 g / cm^3
# Si number density = 17.801980 Si / 1000 Ang^3
#
#
#
# Elastic Constant Matrix: (Units=GPa)
#
#
# Indices 1 2 3 4 5 6 
#
# 1 69.6088 32.2621 43.4606 0.0000 0.0000 0.0000
# 2 32.2621 69.6105 43.4601 0.0000 0.0000 0.0000
# 3 43.4606 43.4601 129.3411 0.0000 0.0000 0.0000
# 4 0.0000 0.0000 0.0000 20.0078 0.0000 0.0000
# 5 0.0000 0.0000 0.0000 0.0000 20.0081 0.0000
# 6 0.0000 0.0000 0.0000 0.0000 0.0000 34.0606
#
#
#
# Elastic Compliance Matrix: (Units=1/GPa)
#
#
# Indices 1 2 3 4 5 6 
#
# 1 0.020269 -0.006507 -0.004624 0.000000 0.000000 0.000000
# 2 -0.006507 0.020268 -0.004624 0.000000 0.000000 0.000000
# 3 -0.004624 -0.004624 0.010839 0.000000 0.000000 0.000000
# 4 0.000000 0.000000 0.000000 0.049981 0.000000 0.000000
# 5 0.000000 0.000000 0.000000 0.000000 0.049980 0.000000
# 6 0.000000 0.000000 0.000000 0.000000 0.000000 0.029359
#
#
# Mechanical properties :
#
#
# Convention : Reuss Voigt Hill
#
# Bulk Modulus (GPa) = 50.33726 56.32511 53.33118
# Shear Modulus (GPa) = 22.84895 24.77379 23.81137
#
# Velocity S-wave (km/s) = 3.58649 3.73450 3.66125
# Velocity P-wave (km/s) = 6.74449 7.09252 6.92069
#
# Compressibility (1/GPa) = 0.01986600
#
# Stress axis : x y z
#
# Youngs Moduli (GPa) = 49.33644 49.33821 92.25912
#
# Poissons Ratio (x) = 0.32104 0.42663
# Poissons Ratio (y) = 0.32103 0.42660
# Poissons Ratio (z) = 0.22815 0.22814
#
# Static dielectric constant tensor:
#      x y z
#    x 1.634250 0.000000 0.000000 
#    y 0.000000 1.634250 0.000000 
#    z 0.000000 0.000000 1.597050 
# 
# From -- ./inp_files/3532.got.cif
#   From: 2010.05.17/outbox.cif.g08.bks.cpg/sg135_2_cif.got.tgz:3532.got - 2010.05.20 12:50:20.
