data_PCOD9568784
_publ_section_title
;
Structure prediction by ZEFSAII (Michael W. Deem and Ramdas Pophale) SiO2 
 PCOD9568784
Probable space group: P 42/M B C
;
_chemical_formula_sum "Si O2"
_cell_formula_units_Z 96
_cell_length_a 14.365630
_cell_length_b 14.365630
_cell_length_c 23.213441
_cell_angle_alpha 90.000000
_cell_angle_beta 90.000000
_cell_angle_gamma 90.000000
_cell_volume 4790.588584
_symmetry_space_group_name_H-M "P 42/M B C"
_symmetry_group_IT_number 135
_symmetry_cell_setting 'tetragonal'
loop_
_space_group_symop_operation_xyz
x,y,z
-y,x,1/2+z
-x,-y,z
y,-x,1/2+z
1/2+x,1/2-y,-z
1/2-x,1/2+y,-z
1/2+y,1/2+x,1/2-z
1/2-y,1/2-x,1/2-z
-x,-y,-z
y,-x,1/2-z
x,y,-z
-y,x,1/2-z
1/2-x,1/2+y,z
1/2+x,1/2-y,z
1/2-y,1/2-x,1/2+z
1/2+y,1/2+x,1/2+z
loop_
_atom_site_type_symbol
_atom_site_label
_atom_site_fract_x
_atom_site_fract_y
_atom_site_fract_z
Si Si1 0.321986 0.237267 0.932697
Si Si2 0.487698 0.718285 0.872951
Si Si3 0.766075 0.087086 0.137034
Si Si4 0.084326 0.428826 0.681491
Si Si5 0.411090 0.330957 0.568896
Si Si6 0.589058 0.583177 0.781659
O O1 0.428549 0.244928 0.913083
O O2 0.269565 0.319101 0.899122
O O3 0.267702 0.141297 0.921742
O O4 0.315416 0.255835 0.000000
O O5 0.454305 0.811190 0.839727
O O6 0.409432 0.660311 0.907527
O O7 0.533409 0.643275 0.829000
O O8 0.662794 0.055052 0.147103
O O9 0.807705 0.110272 0.200532
O O10 0.826440 0.008470 0.103744
O O11 0.087020 0.412981 0.750000
O O12 0.000000 0.500000 0.670876
O O13 0.426730 0.343840 0.500000
O O14 0.598805 0.470139 0.776589
#
# Coordination Sequence:
#
# PCOD9568784 Si02
#       6
#    16  16  16  16  16  16
#     4  10  22  40  61  91 125 159 210 263 319 390
#     4  11  22  40  64  89 126 166 208 266 325 377
#     4  11  22  40  63  89 127 166 208 267 323 377
#     4  11  24  42  63  91 129 172 221 264 313 387
#     4  11  22  38  63  91 122 163 209 260 324 386
#     4  10  20  36  59  91 123 160 204 262 314 385
#
# _framework density 20.039290000000001
#
# number of rings (size 3 to 8) (size 9 to 14) (size 15 to 20)
#    0.000    1.333    1.667    5.000    0.000    2.000 
#    0.000    4.167    3.667    4.000    0.000    0.000 
#    0.000    0.000    0.000    0.000    0.000    0.000 
#
# Total GULP energy -534431.498908 kJ/mol
# GULP energy per Si atom -5566.994780 kJ/mol
# Density = 1.999368 g / cm^3
# Si number density = 20.039290 Si / 1000 Ang^3
#
#
#
# Elastic Constant Matrix: (Units=GPa)
#
#
# Indices 1 2 3 4 5 6 
#
# 1 73.3455 17.7857 34.1732 0.0000 0.0000 0.0000
# 2 17.7857 73.3458 34.1730 0.0000 0.0000 0.0000
# 3 34.1732 34.1730 59.0609 0.0000 0.0000 0.0000
# 4 0.0000 0.0000 0.0000 29.2189 0.0000 0.0000
# 5 0.0000 0.0000 0.0000 0.0000 29.2191 0.0000
# 6 0.0000 0.0000 0.0000 0.0000 0.0000 31.8736
#
#
#
# Elastic Compliance Matrix: (Units=1/GPa)
#
#
# Indices 1 2 3 4 5 6 
#
# 1 0.018692 0.000693 -0.011217 0.000000 0.000000 0.000000
# 2 0.000693 0.018692 -0.011216 0.000000 0.000000 0.000000
# 3 -0.011217 -0.011216 0.029912 0.000000 0.000000 0.000000
# 4 0.000000 0.000000 0.000000 0.034224 0.000000 0.000000
# 5 0.000000 0.000000 0.000000 0.000000 0.034224 0.000000
# 6 0.000000 0.000000 0.000000 0.000000 0.000000 0.031374
#
#
# Mechanical properties :
#
#
# Convention : Reuss Voigt Hill
#
# Bulk Modulus (GPa) = 41.98824 42.00178 41.99501
# Shear Modulus (GPa) = 22.87955 26.03701 24.45828
#
# Velocity S-wave (km/s) = 3.38262 3.60849 3.49738
# Velocity P-wave (km/s) = 6.02118 6.19409 6.10825
#
# Compressibility (1/GPa) = 0.02381619
#
# Stress axis : x y z
#
# Youngs Moduli (GPa) = 53.49881 53.49943 33.43189
#
# Poissons Ratio (x) = -0.03709 0.37499
# Poissons Ratio (y) = -0.03709 0.37498
# Poissons Ratio (z) = 0.60007 0.60007
#
# Static dielectric constant tensor:
#      x y z
#    x 1.733500 0.000000 0.000000 
#    y 0.000000 1.733500 0.000000 
#    z 0.000000 0.000000 1.702480 
# 
# From -- ./inp_files/5465.got.cif
#   From: 2010.05.17/outbox.cif.g08.bks.cpg/sg135_3_cif.got.tgz:5465.got - 2010.05.20 12:50:20.
