data_PCOD9568769
_publ_section_title
;
Structure prediction by ZEFSAII (Michael W. Deem and Ramdas Pophale) SiO2 
 PCOD9568769
Probable space group: P 42/M B C
;
_chemical_formula_sum "Si O2"
_cell_formula_units_Z 96
_cell_length_a 14.106209
_cell_length_b 14.106209
_cell_length_c 21.223077
_cell_angle_alpha 90.000000
_cell_angle_beta 90.000000
_cell_angle_gamma 90.000000
_cell_volume 4223.076786
_symmetry_space_group_name_H-M "P 42/M B C"
_symmetry_group_IT_number 135
_symmetry_cell_setting 'tetragonal'
loop_
_space_group_symop_operation_xyz
x,y,z
-y,x,1/2+z
-x,-y,z
y,-x,1/2+z
1/2+x,1/2-y,-z
1/2-x,1/2+y,-z
1/2+y,1/2+x,1/2-z
1/2-y,1/2-x,1/2-z
-x,-y,-z
y,-x,1/2-z
x,y,-z
-y,x,1/2-z
1/2-x,1/2+y,z
1/2+x,1/2-y,z
1/2-y,1/2-x,1/2+z
1/2+y,1/2+x,1/2+z
loop_
_atom_site_type_symbol
_atom_site_label
_atom_site_fract_x
_atom_site_fract_y
_atom_site_fract_z
Si Si1 0.310001 0.710025 0.874020
Si Si2 0.444913 0.637532 0.764912
Si Si3 0.079229 0.922811 0.924218
Si Si4 0.643642 0.928715 0.923617
Si Si5 0.580209 0.237079 0.654085
Si Si6 0.001305 0.277477 0.927128
O O1 0.373791 0.654738 0.822616
O O2 0.231143 0.643695 0.906395
O O3 0.268808 0.806068 0.843867
O O4 0.388122 0.755499 0.920567
O O5 0.551780 0.601302 0.775828
O O6 0.451613 0.732964 0.723764
O O7 0.176577 0.946924 0.891808
O O8 0.049226 0.817798 0.903953
O O9 0.089916 0.923952 0.000000
O O10 0.000000 0.000000 0.908574
O O11 0.549255 0.871454 0.902568
O O12 0.654259 0.021988 0.880300
O O13 0.644168 0.948948 0.000000
O O14 0.978121 0.282682 0.000000
#
# Coordination Sequence:
#
# PCOD9568769 Si02
#       6
#    16  16  16  16  16  16
#     4  12  24  44  69  96 138 180 225 281 337 403
#     4  11  25  44  70  99 134 174 227 286 344 393
#     4  10  20  35  61  96 131 167 220 280 334 390
#     4  11  24  43  67 101 140 178 223 277 338 407
#     4  12  24  41  67  98 130 181 228 272 336 405
#     4  10  22  40  64  97 135 176 217 272 339 401
#
# _framework density 22.732241999999999
#
# number of rings (size 3 to 8) (size 9 to 14) (size 15 to 20)
#    0.000    1.000    3.333    3.500    2.333    4.000 
#    0.000    2.500    0.000    2.000    0.000    0.000 
#    0.000    0.000    0.000    0.000    0.000    0.000 
#
# Total GULP energy -536094.062214 kJ/mol
# GULP energy per Si atom -5584.313148 kJ/mol
# Density = 2.268050 g / cm^3
# Si number density = 22.732242 Si / 1000 Ang^3
#
#
#
# Elastic Constant Matrix: (Units=GPa)
#
#
# Indices 1 2 3 4 5 6 
#
# 1 65.4350 13.3020 7.0718 0.0000 0.0000 0.0000
# 2 13.3020 65.4350 7.0718 0.0000 0.0000 0.0000
# 3 7.0718 7.0718 53.9247 0.0000 0.0000 0.0000
# 4 0.0000 0.0000 0.0000 24.1024 0.0000 0.0000
# 5 0.0000 0.0000 0.0000 0.0000 24.1024 0.0000
# 6 0.0000 0.0000 0.0000 0.0000 0.0000 49.8041
#
#
#
# Elastic Compliance Matrix: (Units=1/GPa)
#
#
# Indices 1 2 3 4 5 6 
#
# 1 0.016094 -0.003087 -0.001706 0.000000 0.000000 0.000000
# 2 -0.003087 0.016094 -0.001706 0.000000 0.000000 0.000000
# 3 -0.001706 -0.001706 0.018992 0.000000 0.000000 0.000000
# 4 0.000000 0.000000 0.000000 0.041490 0.000000 0.000000
# 5 0.000000 0.000000 0.000000 0.000000 0.041490 0.000000
# 6 0.000000 0.000000 0.000000 0.000000 0.000000 0.020079
#
#
# Mechanical properties :
#
#
# Convention : Reuss Voigt Hill
#
# Bulk Modulus (GPa) = 26.18996 26.63178 26.41087
# Shear Modulus (GPa) = 27.78337 30.09170 28.93754
#
# Velocity S-wave (km/s) = 3.49979 3.64228 3.57175
# Velocity P-wave (km/s) = 5.27991 5.42486 5.35288
#
# Compressibility (1/GPa) = 0.03818257
#
# Stress axis : x y z
#
# Youngs Moduli (GPa) = 62.13376 62.13376 52.65434
#
# Poissons Ratio (x) = 0.19183 0.08982
# Poissons Ratio (y) = 0.19183 0.08982
# Poissons Ratio (z) = 0.10599 0.10599
#
# Static dielectric constant tensor:
#      x y z
#    x 1.892640 0.000000 0.000000 
#    y 0.000000 1.892640 0.000000 
#    z 0.000000 0.000000 1.863830 
# 
# From -- ./inp_files/5450.got.cif
#   From: 2010.05.17/outbox.cif.g08.bks.cpg/sg135_3_cif.got.tgz:5450.got - 2010.05.20 12:50:20.
