data_PCOD9568967
_publ_section_title
;
Structure prediction by ZEFSAII (Michael W. Deem and Ramdas Pophale) SiO2 
 PCOD9568967
Probable space group: P 42/M B C
;
_chemical_formula_sum "Si O2"
_cell_formula_units_Z 112
_cell_length_a 14.520361
_cell_length_b 14.520361
_cell_length_c 26.700010
_cell_angle_alpha 90.000000
_cell_angle_beta 90.000000
_cell_angle_gamma 90.000000
_cell_volume 5629.453700
_symmetry_space_group_name_H-M "P 42/M B C"
_symmetry_group_IT_number 135
_symmetry_cell_setting 'tetragonal'
loop_
_space_group_symop_operation_xyz
x,y,z
-y,x,1/2+z
-x,-y,z
y,-x,1/2+z
1/2+x,1/2-y,-z
1/2-x,1/2+y,-z
1/2+y,1/2+x,1/2-z
1/2-y,1/2-x,1/2-z
-x,-y,-z
y,-x,1/2-z
x,y,-z
-y,x,1/2-z
1/2-x,1/2+y,z
1/2+x,1/2-y,z
1/2-y,1/2-x,1/2+z
1/2+y,1/2+x,1/2+z
loop_
_atom_site_type_symbol
_atom_site_label
_atom_site_fract_x
_atom_site_fract_y
_atom_site_fract_z
Si Si1 0.329699 0.762469 0.885446
Si Si2 0.835548 0.559237 0.706958
Si Si3 0.820890 0.110153 0.940309
Si Si4 0.922539 0.431312 0.625002
Si Si5 0.995468 0.850752 0.262502
Si Si6 0.975782 0.253332 0.059266
Si Si7 0.949046 0.222374 0.630029
O O1 0.361773 0.808407 0.833226
O O2 0.256230 0.826267 0.913705
O O3 0.422371 0.752514 0.918128
O O4 0.293138 0.659735 0.876206
O O5 0.899655 0.600346 0.750000
O O6 0.884839 0.478811 0.675482
O O7 0.741459 0.522389 0.731259
O O8 0.918376 0.160477 0.930599
O O9 0.814766 0.009625 0.915940
O O10 0.805837 0.107523 0.000000
O O11 0.838013 0.425303 0.586633
O O12 0.964015 0.331720 0.634450
O O13 0.000000 0.500000 0.604191
O O14 0.082199 0.907722 0.241422
O O15 0.016425 0.825841 0.319639
O O16 0.977919 0.267687 0.000000
#
# Coordination Sequence:
#
# PCOD9568967 Si02
#       7
#    16  16  16  16  16  16  16
#     4  11  23  44  68  98 138 182 224 291 341 408
#     4  11  24  44  67  96 134 176 226 281 340 406
#     4  11  25  44  69 101 139 181 230 287 348 419
#     4  11  24  42  66  97 131 175 221 280 341 399
#     4  11  25  42  65  96 131 178 224 275 342 412
#     4  10  23  42  67  96 132 176 224 281 344 408
#     4  12  25  43  69 102 135 182 232 285 344 418
#
# _framework density 19.895358000000002
#
# number of rings (size 3 to 8) (size 9 to 14) (size 15 to 20)
#    0.000    1.000    2.857    3.857    4.000    5.714 
#    0.000    1.429    0.000    0.000    0.000    0.000 
#    0.000    0.000    0.000    0.000    0.000    0.000 
#
# Total GULP energy -626687.680484 kJ/mol
# GULP energy per Si atom -5595.425719 kJ/mol
# Density = 1.985008 g / cm^3
# Si number density = 19.895358 Si / 1000 Ang^3
#
#
#
# Elastic Constant Matrix: (Units=GPa)
#
#
# Indices 1 2 3 4 5 6 
#
# 1 50.2370 -13.8094 7.3540 0.0000 0.0000 0.0000
# 2 -13.8094 50.2406 7.3553 0.0000 0.0000 0.0000
# 3 7.3540 7.3553 81.1072 0.0000 0.0000 0.0000
# 4 0.0000 0.0000 0.0000 17.9040 0.0000 0.0000
# 5 0.0000 0.0000 0.0000 0.0000 17.9030 0.0000
# 6 0.0000 0.0000 0.0000 0.0000 0.0000 31.5804
#
#
#
# Elastic Compliance Matrix: (Units=1/GPa)
#
#
# Indices 1 2 3 4 5 6 
#
# 1 0.022054 0.006440 -0.002584 0.000000 0.000000 0.000000
# 2 0.006440 0.022053 -0.002584 0.000000 0.000000 0.000000
# 3 -0.002584 -0.002584 0.012798 0.000000 0.000000 0.000000
# 4 0.000000 0.000000 0.000000 0.055853 0.000000 0.000000
# 5 0.000000 0.000000 0.000000 0.000000 0.055857 0.000000
# 6 0.000000 0.000000 0.000000 0.000000 0.000000 0.031665
#
#
# Mechanical properties :
#
#
# Convention : Reuss Voigt Hill
#
# Bulk Modulus (GPa) = 16.82080 20.37607 18.59844
# Shear Modulus (GPa) = 22.98306 25.52313 24.25309
#
# Velocity S-wave (km/s) = 3.40251 3.58560 3.49525
# Velocity P-wave (km/s) = 4.88969 5.23506 5.06532
#
# Compressibility (1/GPa) = 0.05945020
#
# Stress axis : x y z
#
# Youngs Moduli (GPa) = 45.34283 45.34594 78.13754
#
# Poissons Ratio (x) = -0.29204 0.20188
# Poissons Ratio (y) = -0.29202 0.20189
# Poissons Ratio (z) = 0.11715 0.11717
#
# Static dielectric constant tensor:
#      x y z
#    x 1.704370 0.000000 0.000000 
#    y 0.000000 1.704370 0.000000 
#    z 0.000000 0.000000 1.669210 
# 
# From -- ./inp_files/6097.got.cif
#   From: 2010.05.17/outbox.cif.g08.bks.cpg/sg135_4_cif.got.tgz:6097.got - 2010.05.20 12:50:20.
