data_PCOD9568888
_publ_section_title
;
Structure prediction by ZEFSAII (Michael W. Deem and Ramdas Pophale) SiO2 
 PCOD9568888
Probable space group: P 42/M B C
;
_chemical_formula_sum "Si O2"
_cell_formula_units_Z 88
_cell_length_a 14.132719
_cell_length_b 14.132719
_cell_length_c 22.753195
_cell_angle_alpha 90.000000
_cell_angle_beta 90.000000
_cell_angle_gamma 90.000000
_cell_volume 4544.580878
_symmetry_space_group_name_H-M "P 42/M B C"
_symmetry_group_IT_number 135
_symmetry_cell_setting 'tetragonal'
loop_
_space_group_symop_operation_xyz
x,y,z
-y,x,1/2+z
-x,-y,z
y,-x,1/2+z
1/2+x,1/2-y,-z
1/2-x,1/2+y,-z
1/2+y,1/2+x,1/2-z
1/2-y,1/2-x,1/2-z
-x,-y,-z
y,-x,1/2-z
x,y,-z
-y,x,1/2-z
1/2-x,1/2+y,z
1/2+x,1/2-y,z
1/2-y,1/2-x,1/2+z
1/2+y,1/2+x,1/2+z
loop_
_atom_site_type_symbol
_atom_site_label
_atom_site_fract_x
_atom_site_fract_y
_atom_site_fract_z
Si Si1 0.154870 0.206922 0.873770
Si Si2 0.394738 0.511769 0.430718
Si Si3 0.195625 0.440409 0.729094
Si Si4 0.788518 0.465109 0.145594
Si Si5 0.500000 0.000000 0.834978
Si Si6 0.632949 0.281866 0.429327
O O1 0.082592 0.228529 0.820308
O O2 0.240047 0.136552 0.857594
O O3 0.204895 0.300073 0.898781
O O4 0.084418 0.160970 0.920628
O O5 0.500000 0.500000 0.404023
O O6 0.406621 0.526403 0.500000
O O7 0.344351 0.609351 0.411365
O O8 0.163351 0.336649 0.750000
O O9 0.223744 0.497095 0.787310
O O10 0.098769 0.483086 0.700676
O O11 0.900875 0.477597 0.133186
O O12 0.736632 0.529806 0.097644
O O13 0.636695 0.271548 0.500000
#
# Coordination Sequence:
#
# PCOD9568888 Si02
#       6
#    16  16  16  16   8  16
#     4  12  24  39  68  96 127 166 222 264 311 389
#     4  10  22  43  64  87 125 170 209 258 323 372
#     4  10  21  40  63  91 126 167 208 256 325 382
#     4  11  23  41  64  95 128 167 212 266 322 378
#     4  10  21  44  65  88 129 172 202 255 328 381
#     4  11  24  42  65  92 127 168 217 265 317 380
#
# _framework density 19.363721000000002
#
# number of rings (size 3 to 8) (size 9 to 14) (size 15 to 20)
#    0.000    1.273    5.455    3.000    2.545    3.636 
#    0.000    0.455    0.000    0.000    0.000    0.000 
#    0.000    0.000    0.000    0.000    0.000    0.000 
#
# Total GULP energy -490106.572877 kJ/mol
# GULP energy per Si atom -5569.392874 kJ/mol
# Density = 1.931965 g / cm^3
# Si number density = 19.363721 Si / 1000 Ang^3
#
#
#
# Elastic Constant Matrix: (Units=GPa)
#
#
# Indices 1 2 3 4 5 6 
#
# 1 71.4686 3.2918 6.5414 0.0000 0.0000 0.0000
# 2 3.2918 71.4686 6.5414 0.0000 0.0000 0.0000
# 3 6.5414 6.5414 36.0523 0.0000 0.0000 0.0000
# 4 0.0000 0.0000 0.0000 18.9779 0.0000 0.0000
# 5 0.0000 0.0000 0.0000 0.0000 18.9779 0.0000
# 6 0.0000 0.0000 0.0000 0.0000 0.0000 39.6367
#
#
#
# Elastic Compliance Matrix: (Units=1/GPa)
#
#
# Indices 1 2 3 4 5 6 
#
# 1 0.014241 -0.000427 -0.002507 0.000000 0.000000 0.000000
# 2 -0.000427 0.014241 -0.002507 0.000000 0.000000 0.000000
# 3 -0.002507 -0.002507 0.028647 0.000000 0.000000 0.000000
# 4 0.000000 0.000000 0.000000 0.052693 0.000000 0.000000
# 5 0.000000 0.000000 0.000000 0.000000 0.052693 0.000000
# 6 0.000000 0.000000 0.000000 0.000000 0.000000 0.025229
#
#
# Mechanical properties :
#
#
# Convention : Reuss Voigt Hill
#
# Bulk Modulus (GPa) = 21.62149 23.52650 22.57400
# Shear Modulus (GPa) = 23.36005 26.35949 24.85977
#
# Velocity S-wave (km/s) = 3.47707 3.69356 3.58695
# Velocity P-wave (km/s) = 5.22592 5.51053 5.37011
#
# Compressibility (1/GPa) = 0.04625028
#
# Stress axis : x y z
#
# Youngs Moduli (GPa) = 70.21866 70.21866 34.90754
#
# Poissons Ratio (x) = 0.02995 0.08750
# Poissons Ratio (y) = 0.02995 0.08750
# Poissons Ratio (z) = 0.17601 0.17601
#
# Static dielectric constant tensor:
#      x y z
#    x 1.731910 0.000000 0.000000 
#    y 0.000000 1.731910 0.000000 
#    z 0.000000 0.000000 1.712010 
# 
# From -- ./inp_files/5343.got.cif
#   From: 2010.05.17/outbox.cif.g08.bks.cpg/sg135_3_cif.got.tgz:5343.got - 2010.05.20 12:50:20.
