data_PCOD9568771
_publ_section_title
;
Structure prediction by ZEFSAII (Michael W. Deem and Ramdas Pophale) SiO2 
 PCOD9568771
Probable space group: P 42/M B C
;
_chemical_formula_sum "Si O2"
_cell_formula_units_Z 112
_cell_length_a 14.825095
_cell_length_b 14.825095
_cell_length_c 28.316538
_cell_angle_alpha 90.000000
_cell_angle_beta 90.000000
_cell_angle_gamma 90.000000
_cell_volume 6223.506180
_symmetry_space_group_name_H-M "P 42/M B C"
_symmetry_group_IT_number 135
_symmetry_cell_setting 'tetragonal'
loop_
_space_group_symop_operation_xyz
x,y,z
-y,x,1/2+z
-x,-y,z
y,-x,1/2+z
1/2+x,1/2-y,-z
1/2-x,1/2+y,-z
1/2+y,1/2+x,1/2-z
1/2-y,1/2-x,1/2-z
-x,-y,-z
y,-x,1/2-z
x,y,-z
-y,x,1/2-z
1/2-x,1/2+y,z
1/2+x,1/2-y,z
1/2-y,1/2-x,1/2+z
1/2+y,1/2+x,1/2+z
loop_
_atom_site_type_symbol
_atom_site_label
_atom_site_fract_x
_atom_site_fract_y
_atom_site_fract_z
Si Si1 0.827921 0.252385 0.555943
Si Si2 0.544822 0.644464 0.695047
Si Si3 0.052589 0.221148 0.054914
Si Si4 0.120789 0.814417 0.894515
Si Si5 0.577395 0.074217 0.054157
Si Si6 0.963005 0.145368 0.198485
Si Si7 0.748159 0.014177 0.105489
O O1 0.812508 0.263979 0.500000
O O2 0.794002 0.153968 0.571820
O O3 0.770095 0.327308 0.583091
O O4 0.933440 0.251188 0.567611
O O5 0.550509 0.680970 0.748492
O O6 0.452073 0.586490 0.696116
O O7 0.623407 0.568813 0.687945
O O8 0.532546 0.719911 0.654730
O O9 0.034485 0.327366 0.059920
O O10 0.974044 0.167532 0.079981
O O11 0.051803 0.197155 0.000000
O O12 0.089492 0.798034 0.840788
O O13 0.182776 0.902762 0.900426
O O14 0.650153 0.056565 0.095072
O O15 0.500000 0.000000 0.055795
O O16 0.617044 0.073372 0.000000
#
# Coordination Sequence:
#
# PCOD9568771 Si02
#       7
#    16  16  16  16  16  16  16
#     4  11  23  36  51  80 115 145 188 240 285 334
#     4   8  15  30  54  86 115 143 184 234 290 341
#     4  10  21  35  51  76 113 146 180 235 284 329
#     4  11  21  36  58  81 110 151 192 231 286 345
#     4  10  20  36  55  76 107 155 199 227 273 341
#     4   8  15  30  54  83 118 149 178 230 291 346
#     4  11  21  35  59  83 109 146 192 239 283 342
#
# _framework density 17.996286000000001
#
# number of rings (size 3 to 8) (size 9 to 14) (size 15 to 20)
#    0.000    2.143    1.429    3.429    0.000    4.571 
#    0.000    2.143    0.000    0.857    0.000    1.000 
#    0.000    0.000    0.000    0.000    0.000    0.000 
#
# Total GULP energy -623839.510897 kJ/mol
# GULP energy per Si atom -5569.995633 kJ/mol
# Density = 1.795533 g / cm^3
# Si number density = 17.996286 Si / 1000 Ang^3
#
#
#
# Elastic Constant Matrix: (Units=GPa)
#
#
# Indices 1 2 3 4 5 6 
#
# 1 52.3524 16.9046 39.3402 0.0000 0.0000 0.0000
# 2 16.9046 52.3524 39.3402 0.0000 0.0000 0.0000
# 3 39.3402 39.3402 89.5210 0.0000 0.0000 0.0000
# 4 0.0000 0.0000 0.0000 13.7229 0.0000 0.0000
# 5 0.0000 0.0000 0.0000 0.0000 13.7229 0.0000
# 6 0.0000 0.0000 0.0000 0.0000 0.0000 24.0966
#
#
#
# Elastic Compliance Matrix: (Units=1/GPa)
#
#
# Indices 1 2 3 4 5 6 
#
# 1 0.028522 0.000312 -0.012671 0.000000 0.000000 0.000000
# 2 0.000312 0.028522 -0.012671 0.000000 0.000000 0.000000
# 3 -0.012671 -0.012671 0.022307 0.000000 0.000000 0.000000
# 4 0.000000 0.000000 0.000000 0.072871 0.000000 0.000000
# 5 0.000000 0.000000 0.000000 0.000000 0.072871 0.000000
# 6 0.000000 0.000000 0.000000 0.000000 0.000000 0.041500
#
#
# Mechanical properties :
#
#
# Convention : Reuss Voigt Hill
#
# Bulk Modulus (GPa) = 34.14031 42.82177 38.48104
# Shear Modulus (GPa) = 15.31774 16.88453 16.10113
#
# Velocity S-wave (km/s) = 2.92063 3.06637 2.99439
# Velocity P-wave (km/s) = 5.51229 6.03185 5.77792
#
# Compressibility (1/GPa) = 0.02929089
#
# Stress axis : x y z
#
# Youngs Moduli (GPa) = 35.06013 35.06013 44.82810
#
# Poissons Ratio (x) = -0.01094 0.56803
# Poissons Ratio (y) = -0.01094 0.56803
# Poissons Ratio (z) = 0.44426 0.44426
#
# Static dielectric constant tensor:
#      x y z
#    x 1.974210 0.000000 0.000000 
#    y 0.000000 1.974210 0.000000 
#    z 0.000000 0.000000 1.674170 
# 
# From -- ./inp_files/6525.got.cif
#   From: 2010.05.17/outbox.cif.g08.bks.cpg/sg135_4_cif.got.tgz:6525.got - 2010.05.20 12:50:20.
