data_PCOD9568718
_publ_section_title
;
Structure prediction by ZEFSAII (Michael W. Deem and Ramdas Pophale) SiO2 
 PCOD9568718
Probable space group: P 42/M B C
;
_chemical_formula_sum "Si O2"
_cell_formula_units_Z 96
_cell_length_a 15.913703
_cell_length_b 15.913703
_cell_length_c 18.602190
_cell_angle_alpha 90.000000
_cell_angle_beta 90.000000
_cell_angle_gamma 90.000000
_cell_volume 4710.929152
_symmetry_space_group_name_H-M "P 42/M B C"
_symmetry_group_IT_number 135
_symmetry_cell_setting 'tetragonal'
loop_
_space_group_symop_operation_xyz
x,y,z
-y,x,1/2+z
-x,-y,z
y,-x,1/2+z
1/2+x,1/2-y,-z
1/2-x,1/2+y,-z
1/2+y,1/2+x,1/2-z
1/2-y,1/2-x,1/2-z
-x,-y,-z
y,-x,1/2-z
x,y,-z
-y,x,1/2-z
1/2-x,1/2+y,z
1/2+x,1/2-y,z
1/2-y,1/2-x,1/2+z
1/2+y,1/2+x,1/2+z
loop_
_atom_site_type_symbol
_atom_site_label
_atom_site_fract_x
_atom_site_fract_y
_atom_site_fract_z
Si Si1 0.195249 0.247786 0.083976
Si Si2 0.134738 0.141423 0.419073
Si Si3 0.062586 0.568499 0.335305
Si Si4 0.233767 0.618849 0.802415
Si Si5 0.781268 0.499178 0.417843
Si Si6 0.897686 0.934758 0.723420
O O1 0.268178 0.319328 0.091355
O O2 0.223868 0.174382 0.136358
O O3 0.097795 0.269829 0.100545
O O4 0.197314 0.222976 0.000000
O O5 0.097239 0.141738 0.500000
O O6 0.082212 0.118588 0.348087
O O7 0.200990 0.062948 0.417586
O O8 0.057811 0.557811 0.250000
O O9 0.054557 0.669090 0.341292
O O10 0.152522 0.542973 0.365277
O O11 0.000000 0.500000 0.368623
O O12 0.179659 0.679659 0.750000
O O13 0.305084 0.580879 0.752281
O O14 0.813505 0.497273 0.500000
O O15 0.965548 0.909142 0.784017
#
# Coordination Sequence:
#
# PCOD9568718 Si02
#       6
#    16  16  16  16  16  16
#     4  10  20  35  61  92 119 163 216 265 327 392
#     4  10  19  38  63  86 120 162 210 269 322 384
#     4  10  21  36  53  82 121 160 200 255 318 387
#     4  11  20  37  61  86 117 161 211 263 324 384
#     4  10  20  36  59  88 122 157 208 267 320 380
#     4  11  24  41  60  90 129 167 211 273 332 391
#
# _framework density 20.378146000000001
#
# number of rings (size 3 to 8) (size 9 to 14) (size 15 to 20)
#    0.000    1.667    3.333    2.000    0.000    1.667 
#    3.000    2.500    0.000    0.000    0.000    0.000 
#    0.000    0.000    0.000    0.000    0.000    0.000 
#
# Total GULP energy -534746.225682 kJ/mol
# GULP energy per Si atom -5570.273184 kJ/mol
# Density = 2.033176 g / cm^3
# Si number density = 20.378146 Si / 1000 Ang^3
#
#
#
# Elastic Constant Matrix: (Units=GPa)
#
#
# Indices 1 2 3 4 5 6 
#
# 1 82.7939 6.3434 11.0445 0.0000 0.0000 0.0000
# 2 6.3434 82.7939 11.0445 0.0000 0.0000 0.0000
# 3 11.0445 11.0445 59.0515 0.0000 0.0000 0.0000
# 4 0.0000 0.0000 0.0000 32.5271 0.0000 0.0000
# 5 0.0000 0.0000 0.0000 0.0000 32.5271 0.0000
# 6 0.0000 0.0000 0.0000 0.0000 0.0000 28.7369
#
#
#
# Elastic Compliance Matrix: (Units=1/GPa)
#
#
# Indices 1 2 3 4 5 6 
#
# 1 0.012422 -0.000658 -0.002200 0.000000 0.000000 0.000000
# 2 -0.000658 0.012422 -0.002200 0.000000 0.000000 0.000000
# 3 -0.002200 -0.002200 0.017757 0.000000 0.000000 0.000000
# 4 0.000000 0.000000 0.000000 0.030744 0.000000 0.000000
# 5 0.000000 0.000000 0.000000 0.000000 0.030744 0.000000
# 6 0.000000 0.000000 0.000000 0.000000 0.000000 0.034798
#
#
# Mechanical properties :
#
#
# Convention : Reuss Voigt Hill
#
# Bulk Modulus (GPa) = 30.78412 31.27823 31.03117
# Shear Modulus (GPa) = 31.28272 31.83869 31.56071
#
# Velocity S-wave (km/s) = 3.92230 3.95700 3.93969
# Velocity P-wave (km/s) = 5.97091 6.02158 5.99630
#
# Compressibility (1/GPa) = 0.03248429
#
# Stress axis : x y z
#
# Youngs Moduli (GPa) = 80.50161 80.50161 56.31462
#
# Poissons Ratio (x) = 0.05299 0.12390
# Poissons Ratio (y) = 0.05299 0.12390
# Poissons Ratio (z) = 0.17712 0.17712
#
# Static dielectric constant tensor:
#      x y z
#    x 1.768180 0.000000 0.000000 
#    y 0.000000 1.768180 0.000000 
#    z 0.000000 0.000000 1.744590 
# 
# From -- ./inp_files/5416.got.cif
#   From: 2010.05.17/outbox.cif.g08.bks.cpg/sg135_3_cif.got.tgz:5416.got - 2010.05.20 12:50:20.
