data_PCOD9568550
_publ_section_title
;
Structure prediction by ZEFSAII (Michael W. Deem and Ramdas Pophale) SiO2 
 PCOD9568550
Probable space group: P 42/N N M
;
_chemical_formula_sum "Si O2"
_cell_formula_units_Z 64
_cell_length_a 10.828409
_cell_length_b 10.828409
_cell_length_c 23.393435
_cell_angle_alpha 90.000000
_cell_angle_beta 90.000000
_cell_angle_gamma 90.000000
_cell_volume 2742.984155
_symmetry_space_group_name_H-M "P 42/N N M"
_symmetry_group_IT_number 134
_space_group.IT_coordinate_system_code '2'
_symmetry_cell_setting 'tetragonal'
loop_
_space_group_symop_operation_xyz
x,y,z
1/2-y,x,1/2+z
1/2-x,1/2-y,z
y,1/2-x,1/2+z
x,1/2-y,1/2-z
1/2-x,y,1/2-z
y,x,-z
1/2-y,1/2-x,-z
-x,-y,-z
1/2+y,-x,1/2-z
1/2+x,1/2+y,-z
-y,1/2+x,1/2-z
-x,1/2+y,1/2+z
1/2+x,-y,1/2+z
-y,-x,z
1/2+y,1/2+x,z
loop_
_atom_site_type_symbol
_atom_site_label
_atom_site_fract_x
_atom_site_fract_y
_atom_site_fract_z
Si Si1 0.976732 0.219772 0.614068
Si Si2 0.924361 0.878021 0.214443
Si Si3 0.104883 0.272539 0.126184
Si Si4 0.998054 0.293642 0.011799
O O1 0.847054 0.152947 0.621195
O O2 0.005069 0.323149 0.659469
O O3 0.079353 0.111420 0.625414
O O4 0.986430 0.270357 0.549422
O O5 0.904862 0.750000 0.250000
O O6 0.796337 0.925707 0.185426
O O7 0.013406 0.986595 0.238800
O O8 0.250000 0.250000 0.115175
O O9 0.028137 0.228096 0.071307
O O10 0.876371 0.376371 0.019522
O O11 0.111401 0.388600 0.000000
#
# Coordination Sequence:
#
# PCOD9568550 Si02
#       4
#    16  16  16  16
#     4   9  18  33  57  86 114 147 182 218 268 331
#     4  11  24  39  53  71 102 145 190 238 287 332
#     4   9  18  31  53  81 108 136 178 226 268 317
#     4   8  14  28  52  83 117 148 175 210 265 333
#
# _framework density 23.332250999999999
#
# number of rings (size 3 to 8) (size 9 to 14) (size 15 to 20)
#    0.000    2.750    0.000    3.000    0.000   17.750 
#    0.000    2.500    0.000    4.500    0.000    0.000 
#    0.000   24.000    0.000    0.000    0.000    0.750 
#
# Total GULP energy -356578.059964 kJ/mol
# GULP energy per Si atom -5571.532187 kJ/mol
# Density = 2.327915 g / cm^3
# Si number density = 23.332251 Si / 1000 Ang^3
#
#
#
# Elastic Constant Matrix: (Units=GPa)
#
#
# Indices 1 2 3 4 5 6 
#
# 1 39.4822 46.5529 24.6777 0.0000 0.0000 0.0000
# 2 46.5529 39.4824 24.6776 0.0000 0.0000 0.0000
# 3 24.6777 24.6776 142.2649 0.0000 0.0000 0.0000
# 4 0.0000 0.0000 0.0000 6.2172 0.0000 0.0000
# 5 0.0000 0.0000 0.0000 0.0000 6.2166 0.0000
# 6 0.0000 0.0000 0.0000 0.0000 0.0000 24.4022
#
#
#
# Elastic Compliance Matrix: (Units=1/GPa)
#
#
# Indices 1 2 3 4 5 6 
#
# 1 -0.064262 0.077169 -0.002239 0.000000 0.000000 0.000000
# 2 0.077169 -0.064261 -0.002239 0.000000 0.000000 0.000000
# 3 -0.002239 -0.002239 0.007806 0.000000 0.000000 0.000000
# 4 0.000000 0.000000 0.000000 0.160844 0.000000 0.000000
# 5 0.000000 0.000000 0.000000 0.000000 0.160859 0.000000
# 6 0.000000 0.000000 0.000000 0.000000 0.000000 0.040980
#
#
# Mechanical properties :
#
#
# Convention : Reuss Voigt Hill
#
# Bulk Modulus (GPa) = 40.54310 45.89400 43.21855
# Shear Modulus (GPa) = 47.70733 15.72195 31.71464
#
# Velocity S-wave (km/s) = 4.52674 2.59864 3.69082
# Velocity P-wave (km/s) = 6.68849 5.35877 6.06021
#
# Compressibility (1/GPa) = 0.02466511
#
# Stress axis : x y z
#
# Youngs Moduli (GPa) = -15.56134 -15.56149 128.10819
#
# Poissons Ratio (x) = 1.20087 0.28682
# Poissons Ratio (y) = 1.20085 0.28685
# Poissons Ratio (z) = -0.03484 -0.03484
#
# Static dielectric constant tensor:
#      x y z
#    x 1.968700 0.000000 0.000000 
#    y 0.000000 1.968700 0.000000 
#    z 0.000000 0.000000 1.965410 
# 
# From -- ./inp_files/9799.got.cif
#   From: 2010.05.17/outbox.cif.g08.bks.cpg/sg134_5_cif.got.tgz:9799.got - 2010.05.20 12:42:49.
