data_PCOD9568192
_publ_section_title
;
Structure prediction by ZEFSAII (Michael W. Deem and Ramdas Pophale) SiO2 
 PCOD9568192
Probable space group: P 42/N N M
;
_chemical_formula_sum "Si O2"
_cell_formula_units_Z 84
_cell_length_a 12.778951
_cell_length_b 12.778951
_cell_length_c 27.262258
_cell_angle_alpha 90.000000
_cell_angle_beta 90.000000
_cell_angle_gamma 90.000000
_cell_volume 4451.970042
_symmetry_space_group_name_H-M "P 42/N N M"
_symmetry_group_IT_number 134
_space_group.IT_coordinate_system_code '2'
_symmetry_cell_setting 'tetragonal'
loop_
_space_group_symop_operation_xyz
x,y,z
1/2-y,x,1/2+z
1/2-x,1/2-y,z
y,1/2-x,1/2+z
x,1/2-y,1/2-z
1/2-x,y,1/2-z
y,x,-z
1/2-y,1/2-x,-z
-x,-y,-z
1/2+y,-x,1/2-z
1/2+x,1/2+y,-z
-y,1/2+x,1/2-z
-x,1/2+y,1/2+z
1/2+x,-y,1/2+z
-y,-x,z
1/2+y,1/2+x,z
loop_
_atom_site_type_symbol
_atom_site_label
_atom_site_fract_x
_atom_site_fract_y
_atom_site_fract_z
Si Si1 0.006273 0.830882 0.657941
Si Si2 0.330579 0.830579 0.663548
Si Si3 0.750000 0.750000 0.000000
Si Si4 0.006127 0.506127 0.674642
Si Si5 0.124741 0.368180 0.753756
Si Si6 0.662838 0.337163 0.010230
Si Si7 0.452405 0.547596 0.076112
Si Si8 0.200322 0.051690 0.935646
O O1 0.927539 0.887618 0.694701
O O2 0.952475 0.760141 0.616514
O O3 0.088013 0.752655 0.686814
O O4 0.080885 0.919116 0.634807
O O5 0.250000 0.750000 0.635835
O O6 0.415353 0.915353 0.644642
O O7 0.854444 0.752021 0.967174
O O8 0.933990 0.574513 0.709978
O O9 0.941883 0.441883 0.634572
O O10 0.084502 0.250000 0.750000
O O11 0.250000 0.364188 0.750000
O O12 0.750000 0.250000 0.003467
O O13 0.617318 0.382683 0.959345
O O14 0.563244 0.291533 0.040058
O O15 0.428600 0.425005 0.065995
#
# Coordination Sequence:
#
# PCOD9568192 Si02
#       8
#    16   8   4   8  16   8   8  16
#     4  11  21  37  60  94 128 163 204 254 326 385
#     4  10  19  32  56  95 127 154 191 250 314 373
#     4  12  24  38  66  92 134 162 202 268 316 386
#     4  12  21  40  64  88 122 166 213 255 309 373
#     4  11  23  38  58  89 125 164 204 255 309 377
#     4  11  22  42  68  94 128 166 222 277 318 388
#     4  11  20  40  68  92 122 174 217 258 311 392
#     4  11  21  40  64  96 128 167 208 258 331 394
#
# _framework density 18.868051999999999
#
# number of rings (size 3 to 8) (size 9 to 14) (size 15 to 20)
#    0.000    0.952    6.667    1.714    0.000    3.810 
#    1.714    1.905    2.095    0.000    0.000    0.000 
#    0.000    0.000    0.000    0.000    0.000    0.000 
#
# Total GULP energy -467878.440991 kJ/mol
# GULP energy per Si atom -5569.981440 kJ/mol
# Density = 1.882511 g / cm^3
# Si number density = 18.868052 Si / 1000 Ang^3
#
#
#
# Elastic Constant Matrix: (Units=GPa)
#
#
# Indices 1 2 3 4 5 6 
#
# 1 93.5051 53.3135 52.3848 0.0000 0.0000 0.0000
# 2 53.3135 93.5051 52.3848 0.0000 0.0000 0.0000
# 3 52.3848 52.3848 122.9499 0.0000 0.0000 0.0000
# 4 0.0000 0.0000 0.0000 25.4101 0.0000 0.0000
# 5 0.0000 0.0000 0.0000 0.0000 25.4101 0.0000
# 6 0.0000 0.0000 0.0000 0.0000 0.0000 28.3886
#
#
#
# Elastic Compliance Matrix: (Units=1/GPa)
#
#
# Indices 1 2 3 4 5 6 
#
# 1 0.017334 -0.007547 -0.004170 0.000000 0.000000 0.000000
# 2 -0.007547 0.017334 -0.004170 0.000000 0.000000 0.000000
# 3 -0.004170 -0.004170 0.011687 0.000000 0.000000 0.000000
# 4 0.000000 0.000000 0.000000 0.039354 0.000000 0.000000
# 5 0.000000 0.000000 0.000000 0.000000 0.039354 0.000000
# 6 0.000000 0.000000 0.000000 0.000000 0.000000 0.035225
#
#
# Mechanical properties :
#
#
# Convention : Reuss Voigt Hill
#
# Bulk Modulus (GPa) = 68.58310 69.56959 69.07634
# Shear Modulus (GPa) = 25.39079 25.96690 25.67885
#
# Velocity S-wave (km/s) = 3.67236 3.71379 3.69313
# Velocity P-wave (km/s) = 7.37627 7.43918 7.40779
#
# Compressibility (1/GPa) = 0.01458085
#
# Stress axis : x y z
#
# Youngs Moduli (GPa) = 57.69093 57.69093 85.56817
#
# Poissons Ratio (x) = 0.43540 0.35680
# Poissons Ratio (y) = 0.43540 0.35680
# Poissons Ratio (z) = 0.24056 0.24056
#
# Static dielectric constant tensor:
#      x y z
#    x 1.670520 0.000000 0.000000 
#    y 0.000000 1.670520 0.000000 
#    z 0.000000 0.000000 1.696210 
# 
# From -- ./inp_files/11530.got.cif
#   From: 2010.05.17/outbox.cif.g08.bks.cpg/sg134_6_cif.got.tgz:11530.got - 2010.05.20 12:42:49.
