data_PCOD9568478
_publ_section_title
;
Structure prediction by ZEFSAII (Michael W. Deem and Ramdas Pophale) SiO2 
 PCOD9568478
Probable space group: P 42/N N M
;
_chemical_formula_sum "Si O2"
_cell_formula_units_Z 96
_cell_length_a 15.026360
_cell_length_b 15.026360
_cell_length_c 21.905310
_cell_angle_alpha 90.000000
_cell_angle_beta 90.000000
_cell_angle_gamma 90.000000
_cell_volume 4946.032690
_symmetry_space_group_name_H-M "P 42/N N M"
_symmetry_group_IT_number 134
_space_group.IT_coordinate_system_code '2'
_symmetry_cell_setting 'tetragonal'
loop_
_space_group_symop_operation_xyz
x,y,z
1/2-y,x,1/2+z
1/2-x,1/2-y,z
y,1/2-x,1/2+z
x,1/2-y,1/2-z
1/2-x,y,1/2-z
y,x,-z
1/2-y,1/2-x,-z
-x,-y,-z
1/2+y,-x,1/2-z
1/2+x,1/2+y,-z
-y,1/2+x,1/2-z
-x,1/2+y,1/2+z
1/2+x,-y,1/2+z
-y,-x,z
1/2+y,1/2+x,z
loop_
_atom_site_type_symbol
_atom_site_label
_atom_site_fract_x
_atom_site_fract_y
_atom_site_fract_z
Si Si1 0.839865 0.021136 0.954926
Si Si2 0.857940 0.954120 0.089466
Si Si3 0.696749 0.833391 0.071707
Si Si4 0.007023 0.645744 0.091496
Si Si5 0.496517 0.645592 0.265959
Si Si6 0.355670 0.499545 0.769657
O O1 0.896021 0.103980 0.931230
O O2 0.736089 0.031774 0.943283
O O3 0.877770 0.933170 0.920643
O O4 0.861787 0.008976 0.026546
O O5 0.760799 0.913599 0.084799
O O6 0.864187 0.995434 0.156344
O O7 0.750000 0.750000 0.100203
O O8 0.598852 0.858158 0.090517
O O9 0.687142 0.812858 0.000000
O O10 0.061274 0.561274 0.066786
O O11 0.025483 0.652547 0.162786
O O12 0.506298 0.750000 0.250000
O O13 0.415024 0.584977 0.238026
O O14 0.586153 0.586247 0.253875
O O15 0.250000 0.498537 0.750000
O O16 0.412292 0.587709 0.749291
#
# Coordination Sequence:
#
# PCOD9568478 Si02
#       6
#    16  16  16  16  16  16
#     4  11  21  37  61  92 123 158 202 253 311 373
#     4  11  20  38  65  93 120 157 207 263 313 370
#     4  11  19  36  60  90 122 153 196 244 304 375
#     4  11  23  39  57  86 125 162 197 249 312 370
#     4  10  23  41  61  89 125 162 210 257 306 375
#     4  11  24  43  64  91 124 165 216 271 317 369
#
# _framework density 19.409496000000001
#
# number of rings (size 3 to 8) (size 9 to 14) (size 15 to 20)
#    0.000    1.167    3.333    5.000    0.000    3.333 
#    0.000    2.500    0.000    2.000    0.000    0.000 
#    0.000    0.000    0.000    0.000    0.000    0.000 
#
# Total GULP energy -534566.538225 kJ/mol
# GULP energy per Si atom -5568.401440 kJ/mol
# Density = 1.936532 g / cm^3
# Si number density = 19.409496 Si / 1000 Ang^3
#
#
#
# Elastic Constant Matrix: (Units=GPa)
#
#
# Indices 1 2 3 4 5 6 
#
# 1 126.6865 106.8165 16.5925 0.0000 0.0000 0.0000
# 2 106.8165 126.6869 16.5923 0.0000 0.0000 0.0000
# 3 16.5925 16.5923 69.5094 0.0000 0.0000 0.0000
# 4 0.0000 0.0000 0.0000 20.9482 0.0000 0.0000
# 5 0.0000 0.0000 0.0000 0.0000 20.9468 0.0000
# 6 0.0000 0.0000 0.0000 0.0000 0.0000 24.3147
#
#
#
# Elastic Compliance Matrix: (Units=1/GPa)
#
#
# Indices 1 2 3 4 5 6 
#
# 1 0.027380 -0.022947 -0.001058 0.000000 0.000000 0.000000
# 2 -0.022947 0.027380 -0.001058 0.000000 0.000000 0.000000
# 3 -0.001058 -0.001058 0.014892 0.000000 0.000000 0.000000
# 4 0.000000 0.000000 0.000000 0.047737 0.000000 0.000000
# 5 0.000000 0.000000 0.000000 0.000000 0.047740 0.000000
# 6 0.000000 0.000000 0.000000 0.000000 0.000000 0.041127
#
#
# Mechanical properties :
#
#
# Convention : Reuss Voigt Hill
#
# Bulk Modulus (GPa) = 51.21650 66.98727 59.10188
# Shear Modulus (GPa) = 19.01934 25.43403 22.22668
#
# Velocity S-wave (km/s) = 3.13373 3.62386 3.38767
# Velocity P-wave (km/s) = 6.28795 7.21785 6.76889
#
# Compressibility (1/GPa) = 0.01952496
#
# Stress axis : x y z
#
# Youngs Moduli (GPa) = 36.52323 36.52335 67.15134
#
# Poissons Ratio (x) = 0.83809 0.07106
# Poissons Ratio (y) = 0.83809 0.07105
# Poissons Ratio (z) = 0.03865 0.03865
#
# Static dielectric constant tensor:
#      x y z
#    x 1.743410 0.000000 0.000000 
#    y 0.000000 1.743410 0.000000 
#    z 0.000000 0.000000 1.707880 
# 
# From -- ./inp_files/9126.got.cif
#   From: 2010.05.17/outbox.cif.g08.bks.cpg/sg134_5_cif.got.tgz:9126.got - 2010.05.20 12:42:49.
