data_PCOD9568467
_publ_section_title
;
Structure prediction by ZEFSAII (Michael W. Deem and Ramdas Pophale) SiO2 
 PCOD9568467
Probable space group: P 42/N N M
;
_chemical_formula_sum "Si O2"
_cell_formula_units_Z 84
_cell_length_a 18.248780
_cell_length_b 18.248780
_cell_length_c 11.502372
_cell_angle_alpha 90.000000
_cell_angle_beta 90.000000
_cell_angle_gamma 90.000000
_cell_volume 3830.496591
_symmetry_space_group_name_H-M "P 42/N N M"
_symmetry_group_IT_number 134
_space_group.IT_coordinate_system_code '2'
_symmetry_cell_setting 'tetragonal'
loop_
_space_group_symop_operation_xyz
x,y,z
1/2-y,x,1/2+z
1/2-x,1/2-y,z
y,1/2-x,1/2+z
x,1/2-y,1/2-z
1/2-x,y,1/2-z
y,x,-z
1/2-y,1/2-x,-z
-x,-y,-z
1/2+y,-x,1/2-z
1/2+x,1/2+y,-z
-y,1/2+x,1/2-z
-x,1/2+y,1/2+z
1/2+x,-y,1/2+z
-y,-x,z
1/2+y,1/2+x,z
loop_
_atom_site_type_symbol
_atom_site_label
_atom_site_fract_x
_atom_site_fract_y
_atom_site_fract_z
Si Si1 0.370270 0.989526 0.733771
Si Si2 0.884396 0.691805 0.097882
Si Si3 0.250000 0.250000 0.250000
Si Si4 0.501668 0.739815 0.557302
Si Si5 0.007790 0.392925 0.737361
Si Si6 0.899538 0.215282 0.876750
O O1 0.415173 0.915173 0.749561
O O2 0.327260 0.009528 0.852341
O O3 0.309827 0.984191 0.634874
O O4 0.428864 0.051537 0.698155
O O5 0.808820 0.709244 0.165383
O O6 0.947002 0.663604 0.183922
O O7 0.867604 0.632396 0.000000
O O8 0.924675 0.752715 0.019118
O O9 0.433895 0.729525 0.469172
O O10 0.945918 0.445918 0.795552
O O11 0.962508 0.346349 0.644196
O O12 0.887168 0.250000 0.750000
O O13 0.826703 0.173298 0.915532
#
# Coordination Sequence:
#
# PCOD9568467 Si02
#       6
#    16  16   4  16  16  16
#     4  10  23  43  69  99 130 169 225 286 340 399
#     4  12  24  42  64  95 131 179 224 271 332 405
#     4  12  30  44  60  94 148 188 224 270 338 424
#     4  11  23  42  67  96 133 174 218 277 340 410
#     4  10  22  41  66  95 128 166 222 282 331 388
#     4  11  23  41  64  93 127 169 216 272 336 401
#
# _framework density 21.929272999999998
#
# number of rings (size 3 to 8) (size 9 to 14) (size 15 to 20)
#    0.000    1.143    3.810    2.000    2.667    2.857 
#    3.429    2.857    0.000    9.143    0.000    0.000 
#    0.000    0.000    0.000    0.000    0.000    0.000 
#
# Total GULP energy -468586.124518 kJ/mol
# GULP energy per Si atom -5578.406244 kJ/mol
# Density = 2.187936 g / cm^3
# Si number density = 21.929273 Si / 1000 Ang^3
#
#
#
# Elastic Constant Matrix: (Units=GPa)
#
#
# Indices 1 2 3 4 5 6 
#
# 1 58.7111 34.2796 11.1903 0.0000 0.0000 0.0000
# 2 34.2796 58.7115 11.1902 0.0000 0.0000 0.0000
# 3 11.1903 11.1902 62.1449 0.0000 0.0000 0.0000
# 4 0.0000 0.0000 0.0000 10.3143 0.0000 0.0000
# 5 0.0000 0.0000 0.0000 0.0000 10.3130 0.0000
# 6 0.0000 0.0000 0.0000 0.0000 0.0000 45.5154
#
#
#
# Elastic Compliance Matrix: (Units=1/GPa)
#
#
# Indices 1 2 3 4 5 6 
#
# 1 0.026086 -0.014845 -0.002024 0.000000 0.000000 0.000000
# 2 -0.014845 0.026086 -0.002024 0.000000 0.000000 0.000000
# 3 -0.002024 -0.002024 0.016820 0.000000 0.000000 0.000000
# 4 0.000000 0.000000 0.000000 0.096953 0.000000 0.000000
# 5 0.000000 0.000000 0.000000 0.000000 0.096965 0.000000
# 6 0.000000 0.000000 0.000000 0.000000 0.000000 0.021971
#
#
# Mechanical properties :
#
#
# Convention : Reuss Voigt Hill
#
# Bulk Modulus (GPa) = 32.04542 32.54307 32.29424
# Shear Modulus (GPa) = 15.01193 21.42235 18.21714
#
# Velocity S-wave (km/s) = 2.61925 3.12890 2.88535
# Velocity P-wave (km/s) = 4.87771 5.28447 5.08516
#
# Compressibility (1/GPa) = 0.03120571
#
# Stress axis : x y z
#
# Youngs Moduli (GPa) = 38.33511 38.33540 59.45169
#
# Poissons Ratio (x) = 0.56908 0.12034
# Poissons Ratio (y) = 0.56908 0.12033
# Poissons Ratio (z) = 0.07760 0.07759
#
# Static dielectric constant tensor:
#      x y z
#    x 1.829480 0.000000 0.000000 
#    y 0.000000 1.829480 0.000000 
#    z 0.000000 0.000000 1.813090 
# 
# From -- ./inp_files/4997.got.cif
#   From: 2010.05.17/outbox.cif.g08.bks.cpg/sg134_3_cif.got.tgz:4997.got - 2010.05.20 12:42:49.
