data_PCOD9568402
_publ_section_title
;
Structure prediction by ZEFSAII (Michael W. Deem and Ramdas Pophale) SiO2 
 PCOD9568402
Probable space group: P 42/N N M
;
_chemical_formula_sum "Si O2"
_cell_formula_units_Z 56
_cell_length_a 14.391848
_cell_length_b 14.391848
_cell_length_c 12.036012
_cell_angle_alpha 90.000000
_cell_angle_beta 90.000000
_cell_angle_gamma 90.000000
_cell_volume 2492.962462
_symmetry_space_group_name_H-M "P 42/N N M"
_symmetry_group_IT_number 134
_space_group.IT_coordinate_system_code '2'
_symmetry_cell_setting 'tetragonal'
loop_
_space_group_symop_operation_xyz
x,y,z
1/2-y,x,1/2+z
1/2-x,1/2-y,z
y,1/2-x,1/2+z
x,1/2-y,1/2-z
1/2-x,y,1/2-z
y,x,-z
1/2-y,1/2-x,-z
-x,-y,-z
1/2+y,-x,1/2-z
1/2+x,1/2+y,-z
-y,1/2+x,1/2-z
-x,1/2+y,1/2+z
1/2+x,-y,1/2+z
-y,-x,z
1/2+y,1/2+x,z
loop_
_atom_site_type_symbol
_atom_site_label
_atom_site_fract_x
_atom_site_fract_y
_atom_site_fract_z
Si Si1 0.858391 0.358391 0.244505
Si Si2 0.219918 0.430729 0.037080
Si Si3 0.578873 0.421128 0.499498
Si Si4 0.338519 0.125360 0.668946
Si Si5 0.519640 0.019640 0.369969
O O1 0.877045 0.250000 0.250000
O O2 0.902741 0.402741 0.352872
O O3 0.897567 0.397567 0.128803
O O4 0.170789 0.530355 0.051933
O O5 0.274147 0.377319 0.134357
O O6 0.138875 0.361126 0.000000
O O7 0.295538 0.427488 0.938683
O O8 0.500000 0.500000 0.500000
O O9 0.250000 0.126041 0.750000
O O10 0.432264 0.066968 0.694137
O O11 0.500000 0.000000 0.500000
#
# Coordination Sequence:
#
# PCOD9568402 Si02
#       5
#     8  16   8  16   8
#     4  11  24  40  66 104 138 181 238 302 365 431
#     4  10  21  37  59  91 126 175 226 283 356 420
#     4  10  21  41  64  91 143 178 228 286 368 427
#     4  11  22  37  60  92 132 178 236 286 350 425
#     4  12  21  35  62  91 141 186 224 293 364 437
#
# _framework density 22.463232999999999
#
# number of rings (size 3 to 8) (size 9 to 14) (size 15 to 20)
#    0.000    1.286    2.857    6.000    0.000    2.286 
#    0.000    4.286    0.000    0.000    0.000    0.000 
#    0.000    2.286    0.000    0.000    0.000    0.000 
#
# Total GULP energy -312580.713693 kJ/mol
# GULP energy per Si atom -5581.798459 kJ/mol
# Density = 2.241211 g / cm^3
# Si number density = 22.463233 Si / 1000 Ang^3
#
#
#
# Elastic Constant Matrix: (Units=GPa)
#
#
# Indices 1 2 3 4 5 6 
#
# 1 142.8782 80.7945 54.3930 0.0000 0.0000 0.0000
# 2 80.7945 142.8797 54.3936 0.0000 0.0000 0.0000
# 3 54.3930 54.3936 112.9197 0.0000 0.0000 0.0000
# 4 0.0000 0.0000 0.0000 33.3541 0.0000 0.0000
# 5 0.0000 0.0000 0.0000 0.0000 33.3542 0.0000
# 6 0.0000 0.0000 0.0000 0.0000 0.0000 70.5025
#
#
#
# Elastic Compliance Matrix: (Units=1/GPa)
#
#
# Indices 1 2 3 4 5 6 
#
# 1 0.010973 -0.005134 -0.002812 0.000000 0.000000 0.000000
# 2 -0.005134 0.010973 -0.002813 0.000000 0.000000 0.000000
# 3 -0.002812 -0.002813 0.011565 0.000000 0.000000 0.000000
# 4 0.000000 0.000000 0.000000 0.029981 0.000000 0.000000
# 5 0.000000 0.000000 0.000000 0.000000 0.029981 0.000000
# 6 0.000000 0.000000 0.000000 0.000000 0.000000 0.014184
#
#
# Mechanical properties :
#
#
# Convention : Reuss Voigt Hill
#
# Bulk Modulus (GPa) = 83.38324 86.42666 84.90495
# Shear Modulus (GPa) = 37.54497 41.38193 39.46345
#
# Velocity S-wave (km/s) = 4.09271 4.29675 4.19597
# Velocity P-wave (km/s) = 7.71584 7.94823 7.83289
#
# Compressibility (1/GPa) = 0.01199282
#
# Stress axis : x y z
#
# Youngs Moduli (GPa) = 91.13330 91.13399 86.46482
#
# Poissons Ratio (x) = 0.46790 0.24318
# Poissons Ratio (y) = 0.46790 0.24318
# Poissons Ratio (z) = 0.25631 0.25632
#
# Static dielectric constant tensor:
#      x y z
#    x 1.918560 0.000000 0.000000 
#    y 0.000000 1.918560 0.000000 
#    z 0.000000 0.000000 1.907410 
# 
# From -- ./inp_files/4356.got.cif
#   From: 2010.05.17/outbox.cif.g08.bks.cpg/sg134_3_cif.got.tgz:4356.got - 2010.05.20 12:42:49.
