data_PCOD9568079
_publ_section_title
;
Structure prediction by ZEFSAII (Michael W. Deem and Ramdas Pophale) SiO2 
 PCOD9568079
Probable space group: P 42/N N M
;
_chemical_formula_sum "Si O2"
_cell_formula_units_Z 96
_cell_length_a 19.299552
_cell_length_b 19.299552
_cell_length_c 16.130373
_cell_angle_alpha 90.000000
_cell_angle_beta 90.000000
_cell_angle_gamma 90.000000
_cell_volume 6008.123703
_symmetry_space_group_name_H-M "P 42/N N M"
_symmetry_group_IT_number 134
_space_group.IT_coordinate_system_code '2'
_symmetry_cell_setting 'tetragonal'
loop_
_space_group_symop_operation_xyz
x,y,z
1/2-y,x,1/2+z
1/2-x,1/2-y,z
y,1/2-x,1/2+z
x,1/2-y,1/2-z
1/2-x,y,1/2-z
y,x,-z
1/2-y,1/2-x,-z
-x,-y,-z
1/2+y,-x,1/2-z
1/2+x,1/2+y,-z
-y,1/2+x,1/2-z
-x,1/2+y,1/2+z
1/2+x,-y,1/2+z
-y,-x,z
1/2+y,1/2+x,z
loop_
_atom_site_type_symbol
_atom_site_label
_atom_site_fract_x
_atom_site_fract_y
_atom_site_fract_z
Si Si1 0.966424 0.920942 0.271907
Si Si2 0.550286 0.342736 0.871903
Si Si3 0.179129 0.292156 0.594451
Si Si4 0.932265 0.820026 0.802164
Si Si5 0.995496 0.607291 0.544090
Si Si6 0.455260 0.276564 0.658989
O O1 0.887245 0.940220 0.255773
O O2 0.967565 0.857960 0.336686
O O3 0.998103 0.887932 0.186396
O O4 0.015044 0.984957 0.294118
O O5 0.626167 0.373834 0.852556
O O6 0.526695 0.264463 0.857037
O O7 0.534153 0.357607 0.967357
O O8 0.250000 0.250000 0.608820
O O9 0.182018 0.317983 0.500000
O O10 0.179256 0.354614 0.660167
O O11 0.108759 0.247618 0.602955
O O12 0.945151 0.750000 0.750000
O O13 0.977824 0.839162 0.883396
O O14 0.929506 0.570495 0.500000
O O15 0.044196 0.544196 0.576211
O O16 0.432882 0.250000 0.750000
#
# Coordination Sequence:
#
# PCOD9568079 Si02
#       6
#    16  16  16  16  16  16
#     4  10  19  31  48  71  99 136 175 206 255 318
#     4   9  16  27  49  74  95 126 166 212 260 307
#     4  11  22  32  44  67  98 139 179 210 241 296
#     4  12  21  29  45  71 105 139 168 208 256 305
#     4  10  17  30  51  73  99 126 163 217 263 299
#     4  10  17  30  47  67 101 134 165 206 258 312
#
# _framework density 15.978365999999999
#
# number of rings (size 3 to 8) (size 9 to 14) (size 15 to 20)
#    0.000    1.667    5.000    3.000    0.000    0.000 
#    0.000    0.000    0.000    0.500    0.000   29.167 
#    0.000    8.000    0.000    0.000    0.000    0.000 
#
# Total GULP energy -534796.963231 kJ/mol
# GULP energy per Si atom -5570.801700 kJ/mol
# Density = 1.594200 g / cm^3
# Si number density = 15.978366 Si / 1000 Ang^3
#
#
#
# Elastic Constant Matrix: (Units=GPa)
#
#
# Indices 1 2 3 4 5 6 
#
# 1 86.3472 59.0305 37.9669 0.0000 0.0000 0.0000
# 2 59.0305 86.3461 37.9672 0.0000 0.0000 0.0000
# 3 37.9669 37.9672 58.8743 0.0000 0.0000 0.0000
# 4 0.0000 0.0000 0.0000 19.1303 0.0000 0.0000
# 5 0.0000 0.0000 0.0000 0.0000 19.1310 0.0000
# 6 0.0000 0.0000 0.0000 0.0000 0.0000 27.0818
#
#
#
# Elastic Compliance Matrix: (Units=1/GPa)
#
#
# Indices 1 2 3 4 5 6 
#
# 1 0.023490 -0.013118 -0.006689 0.000000 0.000000 0.000000
# 2 -0.013118 0.023491 -0.006689 0.000000 0.000000 0.000000
# 3 -0.006689 -0.006689 0.025613 0.000000 0.000000 0.000000
# 4 0.000000 0.000000 0.000000 0.052273 0.000000 0.000000
# 5 0.000000 0.000000 0.000000 0.000000 0.052271 0.000000
# 6 0.000000 0.000000 0.000000 0.000000 0.000000 0.036925
#
#
# Mechanical properties :
#
#
# Convention : Reuss Voigt Hill
#
# Bulk Modulus (GPa) = 51.01663 55.72189 53.36926
# Shear Modulus (GPa) = 18.27559 19.50883 18.89221
#
# Velocity S-wave (km/s) = 3.38564 3.49800 3.44228
# Velocity P-wave (km/s) = 6.87614 7.15987 7.01944
#
# Compressibility (1/GPa) = 0.01960145
#
# Stress axis : x y z
#
# Youngs Moduli (GPa) = 42.57097 42.57001 39.04315
#
# Poissons Ratio (x) = 0.55843 0.26115
# Poissons Ratio (y) = 0.55844 0.26117
# Poissons Ratio (z) = 0.28475 0.28476
#
# Static dielectric constant tensor:
#      x y z
#    x 1.561180 0.000000 0.000000 
#    y 0.000000 1.561180 0.000000 
#    z 0.000000 0.000000 1.551690 
# 
# From -- ./inp_files/6612.got.cif
#   From: 2010.05.17/outbox.cif.g08.bks.cpg/sg134_4_cif.got.tgz:6612.got - 2010.05.20 12:42:49.
