data_PCOD9568438
_publ_section_title
;
Structure prediction by ZEFSAII (Michael W. Deem and Ramdas Pophale) SiO2 
 PCOD9568438
Probable space group: P 42/N N M
;
_chemical_formula_sum "Si O2"
_cell_formula_units_Z 84
_cell_length_a 14.514129
_cell_length_b 14.514129
_cell_length_c 21.627607
_cell_angle_alpha 90.000000
_cell_angle_beta 90.000000
_cell_angle_gamma 90.000000
_cell_volume 4556.070407
_symmetry_space_group_name_H-M "P 42/N N M"
_symmetry_group_IT_number 134
_space_group.IT_coordinate_system_code '2'
_symmetry_cell_setting 'tetragonal'
loop_
_space_group_symop_operation_xyz
x,y,z
1/2-y,x,1/2+z
1/2-x,1/2-y,z
y,1/2-x,1/2+z
x,1/2-y,1/2-z
1/2-x,y,1/2-z
y,x,-z
1/2-y,1/2-x,-z
-x,-y,-z
1/2+y,-x,1/2-z
1/2+x,1/2+y,-z
-y,1/2+x,1/2-z
-x,1/2+y,1/2+z
1/2+x,-y,1/2+z
-y,-x,z
1/2+y,1/2+x,z
loop_
_atom_site_type_symbol
_atom_site_label
_atom_site_fract_x
_atom_site_fract_y
_atom_site_fract_z
Si Si1 0.084868 0.431174 0.141533
Si Si2 0.412758 0.219132 0.035101
Si Si3 0.007858 0.142866 0.234989
Si Si4 0.750000 0.250000 0.588768
Si Si5 0.248538 0.527931 0.418021
Si Si6 0.436916 0.414462 0.097054
O O1 0.073677 0.346024 0.094470
O O2 0.182114 0.479366 0.129734
O O3 0.005459 0.505459 0.127773
O O4 0.072533 0.398497 0.211585
O O5 0.411282 0.324231 0.057736
O O6 0.323816 0.176185 0.000000
O O7 0.495206 0.214877 0.985379
O O8 0.997101 0.250000 0.250000
O O9 0.911090 0.088911 0.239914
O O10 0.047004 0.120320 0.167207
O O11 0.636397 0.249749 0.588217
O O12 0.147835 0.484574 0.408206
O O13 0.529717 0.470284 0.077728
#
# Coordination Sequence:
#
# PCOD9568438 Si02
#       6
#    16  16  16   4  16  16
#     4  10  21  40  63  92 127 163 207 258 311 372
#     4  10  23  39  64  94 129 167 209 255 319 374
#     4  10  21  41  67  93 126 165 207 256 314 376
#     4  12  24  44  60  93 120 169 216 252 308 366
#     4  11  24  39  65  88 126 166 212 259 308 373
#     4  11  23  41  63  94 129 166 206 261 321 371
#
# _framework density 18.436941000000001
#
# number of rings (size 3 to 8) (size 9 to 14) (size 15 to 20)
#    0.000    1.524    3.810    0.571    2.667    8.190 
#    0.000    0.952    0.000    2.286    0.000    0.000 
#    0.000    0.000    0.000    0.000    0.000    0.000 
#
# Total GULP energy -467947.934824 kJ/mol
# GULP energy per Si atom -5570.808748 kJ/mol
# Density = 1.839498 g / cm^3
# Si number density = 18.436941 Si / 1000 Ang^3
#
#
#
# Elastic Constant Matrix: (Units=GPa)
#
#
# Indices 1 2 3 4 5 6 
#
# 1 127.9390 46.1524 33.8412 0.0000 0.0000 0.0000
# 2 46.1524 127.9389 33.8414 0.0000 0.0000 0.0000
# 3 33.8412 33.8414 82.2092 0.0000 0.0000 0.0000
# 4 0.0000 0.0000 0.0000 19.6198 0.0000 0.0000
# 5 0.0000 0.0000 0.0000 0.0000 19.6196 0.0000
# 6 0.0000 0.0000 0.0000 0.0000 0.0000 25.2482
#
#
#
# Elastic Compliance Matrix: (Units=1/GPa)
#
#
# Indices 1 2 3 4 5 6 
#
# 1 0.009533 -0.002694 -0.002815 0.000000 0.000000 0.000000
# 2 -0.002694 0.009533 -0.002815 0.000000 0.000000 0.000000
# 3 -0.002815 -0.002815 0.014482 0.000000 0.000000 0.000000
# 4 0.000000 0.000000 0.000000 0.050969 0.000000 0.000000
# 5 0.000000 0.000000 0.000000 0.000000 0.050969 0.000000
# 6 0.000000 0.000000 0.000000 0.000000 0.000000 0.039607
#
#
# Mechanical properties :
#
#
# Convention : Reuss Voigt Hill
#
# Bulk Modulus (GPa) = 59.17679 62.86189 61.01934
# Shear Modulus (GPa) = 25.33264 27.84766 26.59015
#
# Velocity S-wave (km/s) = 3.71079 3.89064 3.80178
# Velocity P-wave (km/s) = 7.10820 7.37241 7.24151
#
# Compressibility (1/GPa) = 0.01689852
#
# Stress axis : x y z
#
# Youngs Moduli (GPa) = 104.90161 104.90141 69.05247
#
# Poissons Ratio (x) = 0.28263 0.19439
# Poissons Ratio (y) = 0.28263 0.19439
# Poissons Ratio (z) = 0.29531 0.29531
#
# Static dielectric constant tensor:
#      x y z
#    x 1.622550 0.000000 0.000000 
#    y 0.000000 1.622550 0.000000 
#    z 0.000000 0.000000 1.642010 
# 
# From -- ./inp_files/8979.got.cif
#   From: 2010.05.17/outbox.cif.g08.bks.cpg/sg134_5_cif.got.tgz:8979.got - 2010.05.20 12:42:49.
