data_PCOD9568085
_publ_section_title
;
Structure prediction by ZEFSAII (Michael W. Deem and Ramdas Pophale) SiO2 
 PCOD9568085
Probable space group: P 42/N N M
;
_chemical_formula_sum "Si O2"
_cell_formula_units_Z 56
_cell_length_a 12.475790
_cell_length_b 12.475790
_cell_length_c 20.052152
_cell_angle_alpha 90.000000
_cell_angle_beta 90.000000
_cell_angle_gamma 90.000000
_cell_volume 3121.023938
_symmetry_space_group_name_H-M "P 42/N N M"
_symmetry_group_IT_number 134
_space_group.IT_coordinate_system_code '2'
_symmetry_cell_setting 'tetragonal'
loop_
_space_group_symop_operation_xyz
x,y,z
1/2-y,x,1/2+z
1/2-x,1/2-y,z
y,1/2-x,1/2+z
x,1/2-y,1/2-z
1/2-x,y,1/2-z
y,x,-z
1/2-y,1/2-x,-z
-x,-y,-z
1/2+y,-x,1/2-z
1/2+x,1/2+y,-z
-y,1/2+x,1/2-z
-x,1/2+y,1/2+z
1/2+x,-y,1/2+z
-y,-x,z
1/2+y,1/2+x,z
loop_
_atom_site_type_symbol
_atom_site_label
_atom_site_fract_x
_atom_site_fract_y
_atom_site_fract_z
Si Si1 0.646920 0.825594 0.075957
Si Si2 0.498028 0.750000 0.250000
Si Si3 0.080411 0.751732 0.105039
Si Si4 0.136690 0.044727 0.711562
O O1 0.750000 0.750000 0.082731
O O2 0.541877 0.753878 0.085497
O O3 0.650526 0.914866 0.134550
O O4 0.636136 0.863865 0.000000
O O5 0.425995 0.746786 0.184824
O O6 0.572912 0.644522 0.254690
O O7 0.146965 0.853036 0.080412
O O8 0.145442 0.645442 0.084449
O O9 0.250000 0.029933 0.750000
O O10 0.059538 0.940463 0.713979
#
# Coordination Sequence:
#
# PCOD9568085 Si02
#       4
#    16   8  16  16
#     4  10  21  38  58  81 110 149 195 239 287 344
#     4  10  17  31  54  80 106 135 175 224 278 328
#     4  10  19  31  51  80 110 136 170 223 282 335
#     4  11  22  36  57  82 112 149 187 232 282 342
#
# _framework density 17.942829
#
# number of rings (size 3 to 8) (size 9 to 14) (size 15 to 20)
#    0.000    1.714    0.000    9.000    0.000    3.714 
#    0.000    4.286    0.000    0.000    0.000    0.000 
#    0.000    0.000    0.000    0.000    0.000    0.000 
#
# Total GULP energy -312229.795517 kJ/mol
# GULP energy per Si atom -5575.532063 kJ/mol
# Density = 1.790199 g / cm^3
# Si number density = 17.942829 Si / 1000 Ang^3
#
#
#
# Elastic Constant Matrix: (Units=GPa)
#
#
# Indices 1 2 3 4 5 6 
#
# 1 121.1572 78.7664 34.0084 0.0000 0.0000 0.0000
# 2 78.7664 121.1549 34.0084 0.0000 0.0000 0.0000
# 3 34.0084 34.0084 78.8466 0.0000 0.0000 0.0000
# 4 0.0000 0.0000 0.0000 -24.8237 0.0000 0.0000
# 5 0.0000 0.0000 0.0000 0.0000 -24.8170 0.0000
# 6 0.0000 0.0000 0.0000 0.0000 0.0000 24.0865
#
#
#
# Elastic Compliance Matrix: (Units=1/GPa)
#
#
# Indices 1 2 3 4 5 6 
#
# 1 0.014726 -0.008864 -0.002528 0.000000 0.000000 0.000000
# 2 -0.008864 0.014727 -0.002529 0.000000 0.000000 0.000000
# 3 -0.002528 -0.002529 0.014864 0.000000 0.000000 0.000000
# 4 0.000000 0.000000 0.000000 -0.040284 0.000000 0.000000
# 5 0.000000 0.000000 0.000000 0.000000 -0.040295 0.000000
# 6 0.000000 0.000000 0.000000 0.000000 0.000000 0.041517
#
#
# Mechanical properties :
#
#
# Convention : Reuss Voigt Hill
#
# Bulk Modulus (GPa) = 60.70014 68.30279 64.50146
# Shear Modulus (GPa) = 129.57065 6.51417 68.04241
#
# Velocity S-wave (km/s) = 8.50705 1.90746 6.16475
# Velocity P-wave (km/s) = 11.41912 6.55749 9.31120
#
# Compressibility (1/GPa) = 0.01647443
#
# Stress axis : x y z
#
# Youngs Moduli (GPa) = 67.90591 67.90447 67.27637
#
# Poissons Ratio (x) = 0.60192 0.17010
# Poissons Ratio (y) = 0.60193 0.17011
# Poissons Ratio (z) = 0.17170 0.17170
#
# Static dielectric constant tensor:
#      x y z
#    x 1.640220 0.000000 0.000000 
#    y 0.000000 1.640230 0.000000 
#    z 0.000000 0.000000 1.660690 
# 
# From -- ./inp_files/8583.got.cif
#   From: 2010.05.17/outbox.cif.g08.bks.cpg/sg134_5_cif.got.tgz:8583.got - 2010.05.20 12:42:49.
