data_PCOD9568379
_publ_section_title
;
Structure prediction by ZEFSAII (Michael W. Deem and Ramdas Pophale) SiO2 
 PCOD9568379
Probable space group: P 42/N N M
;
_chemical_formula_sum "Si O2"
_cell_formula_units_Z 112
_cell_length_a 13.872690
_cell_length_b 13.872690
_cell_length_c 32.092775
_cell_angle_alpha 90.000000
_cell_angle_beta 90.000000
_cell_angle_gamma 90.000000
_cell_volume 6176.303581
_symmetry_space_group_name_H-M "P 42/N N M"
_symmetry_group_IT_number 134
_space_group.IT_coordinate_system_code '2'
_symmetry_cell_setting 'tetragonal'
loop_
_space_group_symop_operation_xyz
x,y,z
1/2-y,x,1/2+z
1/2-x,1/2-y,z
y,1/2-x,1/2+z
x,1/2-y,1/2-z
1/2-x,y,1/2-z
y,x,-z
1/2-y,1/2-x,-z
-x,-y,-z
1/2+y,-x,1/2-z
1/2+x,1/2+y,-z
-y,1/2+x,1/2-z
-x,1/2+y,1/2+z
1/2+x,-y,1/2+z
-y,-x,z
1/2+y,1/2+x,z
loop_
_atom_site_type_symbol
_atom_site_label
_atom_site_fract_x
_atom_site_fract_y
_atom_site_fract_z
Si Si1 0.633961 0.980687 0.327616
Si Si2 0.995891 0.657665 0.379894
Si Si3 0.150464 0.485222 0.476069
Si Si4 0.909466 0.247879 0.047319
Si Si5 0.024270 0.366014 0.840605
Si Si6 0.831033 0.491620 0.130684
Si Si7 0.633593 0.637185 0.254022
O O1 0.586703 0.913665 0.362969
O O2 0.603539 0.929532 0.284514
O O3 0.584561 0.084561 0.329767
O O4 0.747422 0.990274 0.335550
O O5 0.095929 0.595929 0.376643
O O6 0.973992 0.680429 0.428218
O O7 0.992788 0.755167 0.352674
O O8 0.106648 0.393353 0.500000
O O9 0.231256 0.529471 0.505922
O O10 0.063778 0.563778 0.474268
O O11 0.850969 0.149031 0.056292
O O12 0.830192 0.330192 0.040613
O O13 0.970246 0.277735 0.087389
O O14 0.097930 0.417474 0.872539
O O15 0.079364 0.386542 0.796907
O O16 0.924885 0.424885 0.840716
O O17 0.899621 0.399621 0.140715
O O18 0.610104 0.750000 0.250000
O O19 0.750000 0.631258 0.250000
#
# Coordination Sequence:
#
# PCOD9568379 Si02
#       7
#    16  16  16  16  16  16  16
#     4  11  21  36  61  86 114 151 189 234 286 345
#     4  10  22  38  59  88 115 149 200 247 291 346
#     4   9  17  32  54  82 115 147 188 241 290 338
#     4   9  17  31  53  80 112 151 188 225 277 340
#     4  11  23  40  60  83 117 155 191 241 295 344
#     4  10  21  36  56  86 119 152 192 235 286 349
#     4  11  21  38  61  85 113 150 189 237 285 344
#
# _framework density 18.133825000000002
#
# number of rings (size 3 to 8) (size 9 to 14) (size 15 to 20)
#    0.000    1.857    2.857    1.714    0.000    4.571 
#    0.000    2.143    0.000    3.429    0.000    0.000 
#    0.000    0.000    0.000    0.000    0.000    0.000 
#
# Total GULP energy -624164.636750 kJ/mol
# GULP energy per Si atom -5572.898542 kJ/mol
# Density = 1.809255 g / cm^3
# Si number density = 18.133825 Si / 1000 Ang^3
#
#
#
# Elastic Constant Matrix: (Units=GPa)
#
#
# Indices 1 2 3 4 5 6 
#
# 1 68.6710 41.9493 28.7662 0.0000 0.0000 0.0000
# 2 41.9493 68.6700 28.7666 0.0000 0.0000 0.0000
# 3 28.7662 28.7666 107.4731 0.0000 0.0000 0.0000
# 4 0.0000 0.0000 0.0000 22.5041 0.0000 0.0000
# 5 0.0000 0.0000 0.0000 0.0000 22.5040 0.0000
# 6 0.0000 0.0000 0.0000 0.0000 0.0000 12.4450
#
#
#
# Elastic Compliance Matrix: (Units=1/GPa)
#
#
# Indices 1 2 3 4 5 6 
#
# 1 0.023963 -0.013461 -0.002811 0.000000 0.000000 0.000000
# 2 -0.013461 0.023963 -0.002811 0.000000 0.000000 0.000000
# 3 -0.002811 -0.002811 0.010809 0.000000 0.000000 0.000000
# 4 0.000000 0.000000 0.000000 0.044436 0.000000 0.000000
# 5 0.000000 0.000000 0.000000 0.000000 0.044436 0.000000
# 6 0.000000 0.000000 0.000000 0.000000 0.000000 0.080353
#
#
# Mechanical properties :
#
#
# Convention : Reuss Voigt Hill
#
# Bulk Modulus (GPa) = 48.61579 49.30871 48.96225
# Shear Modulus (GPa) = 18.31616 21.17942 19.74779
#
# Velocity S-wave (km/s) = 3.18158 3.42124 3.30358
# Velocity P-wave (km/s) = 6.35329 6.54653 6.45063
#
# Compressibility (1/GPa) = 0.02056945
#
# Stress axis : x y z
#
# Youngs Moduli (GPa) = 41.73185 41.73106 92.51184
#
# Poissons Ratio (x) = 0.56173 0.26004
# Poissons Ratio (y) = 0.56174 0.26006
# Poissons Ratio (z) = 0.11730 0.11731
#
# Static dielectric constant tensor:
#      x y z
#    x 1.614870 0.000000 0.000000 
#    y 0.000000 1.614870 0.000000 
#    z 0.000000 0.000000 1.653610 
# 
# From -- ./inp_files/11642.got.cif
#   From: 2010.05.17/outbox.cif.g08.bks.cpg/sg134_6_cif.got.tgz:11642.got - 2010.05.20 12:42:49.
