data_PCOD9568972
_publ_section_title
;
Structure prediction by ZEFSAII (Michael W. Deem and Ramdas Pophale) SiO2 
 PCOD9568972
Probable space group: P 42/M B C
;
_chemical_formula_sum "Si O2"
_cell_formula_units_Z 48
_cell_length_a 13.081778
_cell_length_b 13.081778
_cell_length_c 11.083649
_cell_angle_alpha 90.000000
_cell_angle_beta 90.000000
_cell_angle_gamma 90.000000
_cell_volume 1896.777169
_symmetry_space_group_name_H-M "P 42/M B C"
_symmetry_group_IT_number 135
_symmetry_cell_setting 'tetragonal'
loop_
_space_group_symop_operation_xyz
x,y,z
-y,x,1/2+z
-x,-y,z
y,-x,1/2+z
1/2+x,1/2-y,-z
1/2-x,1/2+y,-z
1/2+y,1/2+x,1/2-z
1/2-y,1/2-x,1/2-z
-x,-y,-z
y,-x,1/2-z
x,y,-z
-y,x,1/2-z
1/2-x,1/2+y,z
1/2+x,1/2-y,z
1/2-y,1/2-x,1/2+z
1/2+y,1/2+x,1/2+z
loop_
_atom_site_type_symbol
_atom_site_label
_atom_site_fract_x
_atom_site_fract_y
_atom_site_fract_z
Si Si1 0.459362 0.858724 0.632611
Si Si2 0.491608 0.660762 0.245765
Si Si3 0.204908 0.652671 0.628686
O O1 0.413995 0.913995 0.750000
O O2 0.420652 0.890008 0.500000
O O3 0.444895 0.737870 0.657008
O O4 0.582918 0.870095 0.628868
O O5 0.581867 0.591544 0.302412
O O6 0.549695 0.730554 0.148469
O O7 0.218803 0.718803 0.750000
O O8 0.228812 0.700866 0.500000
#
# Coordination Sequence:
#
# PCOD9568972 Si02
#       3
#    16  16  16
#     4  10  23  44  70 102 137 175 223 280 339 401
#     4  10  23  43  66  96 137 181 224 275 335 399
#     4   9  20  40  66  95 129 169 217 272 329 392
#
# _framework density 25.306083000000001
#
# number of rings (size 3 to 8) (size 9 to 14) (size 15 to 20)
#    0.000    2.333    0.000    0.000    0.000   18.000 
#    0.000   28.333    0.000    0.000    0.000    0.000 
#    0.000    0.000    0.000    0.000    0.000    0.000 
#
# Total GULP energy -268168.017250 kJ/mol
# GULP energy per Si atom -5586.833693 kJ/mol
# Density = 2.524849 g / cm^3
# Si number density = 25.306083 Si / 1000 Ang^3
#
#
#
# Elastic Constant Matrix: (Units=GPa)
#
#
# Indices 1 2 3 4 5 6 
#
# 1 114.5230 35.9070 33.5270 0.0000 0.0000 0.0000
# 2 35.9070 114.5230 33.5270 0.0000 0.0000 0.0000
# 3 33.5270 33.5270 218.8175 0.0000 0.0000 0.0000
# 4 0.0000 0.0000 0.0000 8.4207 0.0000 0.0000
# 5 0.0000 0.0000 0.0000 0.0000 8.4207 0.0000
# 6 0.0000 0.0000 0.0000 0.0000 0.0000 50.8667
#
#
#
# Elastic Compliance Matrix: (Units=1/GPa)
#
#
# Indices 1 2 3 4 5 6 
#
# 1 0.009927 -0.002793 -0.001093 0.000000 0.000000 0.000000
# 2 -0.002793 0.009927 -0.001093 0.000000 0.000000 0.000000
# 3 -0.001093 -0.001093 0.004905 0.000000 0.000000 0.000000
# 4 0.000000 0.000000 0.000000 0.118755 0.000000 0.000000
# 5 0.000000 0.000000 0.000000 0.000000 0.118755 0.000000
# 6 0.000000 0.000000 0.000000 0.000000 0.000000 0.019659
#
#
# Mechanical properties :
#
#
# Convention : Reuss Voigt Hill
#
# Bulk Modulus (GPa) = 67.55837 72.64284 70.10060
# Shear Modulus (GPa) = 16.84512 36.53511 26.69012
#
# Velocity S-wave (km/s) = 2.58283 3.80376 3.25113
# Velocity P-wave (km/s) = 5.97069 6.93250 6.46949
#
# Compressibility (1/GPa) = 0.01480202
#
# Stress axis : x y z
#
# Youngs Moduli (GPa) = 100.73049 100.73049 203.87288
#
# Poissons Ratio (x) = 0.28130 0.22287
# Poissons Ratio (y) = 0.28130 0.22287
# Poissons Ratio (z) = 0.11012 0.11012
#
# Static dielectric constant tensor:
#      x y z
#    x 2.038710 0.000000 0.000000 
#    y 0.000000 2.038710 0.000000 
#    z 0.000000 0.000000 2.014980 
# 
# From -- ./inp_files/1960.got.cif
#   From: 2010.05.17/outbox.cif.g08.bks.cpg/sg135_1_cif.got.tgz:1960.got - 2010.05.20 12:50:20.
