data_PCOD9568775
_publ_section_title
;
Structure prediction by ZEFSAII (Michael W. Deem and Ramdas Pophale) SiO2 
 PCOD9568775
Probable space group: P 42/M B C
;
_chemical_formula_sum "Si O2"
_cell_formula_units_Z 96
_cell_length_a 24.576325
_cell_length_b 24.576325
_cell_length_c 7.858438
_cell_angle_alpha 90.000000
_cell_angle_beta 90.000000
_cell_angle_gamma 90.000000
_cell_volume 4746.463158
_symmetry_space_group_name_H-M "P 42/M B C"
_symmetry_group_IT_number 135
_symmetry_cell_setting 'tetragonal'
loop_
_space_group_symop_operation_xyz
x,y,z
-y,x,1/2+z
-x,-y,z
y,-x,1/2+z
1/2+x,1/2-y,-z
1/2-x,1/2+y,-z
1/2+y,1/2+x,1/2-z
1/2-y,1/2-x,1/2-z
-x,-y,-z
y,-x,1/2-z
x,y,-z
-y,x,1/2-z
1/2-x,1/2+y,z
1/2+x,1/2-y,z
1/2-y,1/2-x,1/2+z
1/2+y,1/2+x,1/2+z
loop_
_atom_site_type_symbol
_atom_site_label
_atom_site_fract_x
_atom_site_fract_y
_atom_site_fract_z
Si Si1 0.006504 0.850813 0.705251
Si Si2 0.184749 0.399637 0.794660
Si Si3 0.396113 0.620121 0.197117
Si Si4 0.228359 0.513598 0.795772
Si Si5 0.227753 0.641354 0.701665
Si Si6 0.671580 0.285066 0.306359
O O1 0.004383 0.854959 0.500000
O O2 0.960111 0.887450 0.784271
O O3 0.996752 0.789011 0.757764
O O4 0.066687 0.866157 0.759136
O O5 0.127510 0.372491 0.750000
O O6 0.191924 0.462340 0.734766
O O7 0.231571 0.357229 0.728376
O O8 0.191232 0.400490 0.000000
O O9 0.376773 0.671096 0.305127
O O10 0.382077 0.630071 0.000000
O O11 0.223228 0.577693 0.751116
O O12 0.225607 0.513050 0.000000
O O13 0.173048 0.673048 0.750000
O O14 0.235479 0.641216 0.500000
O O15 0.277686 0.679986 0.771021
O O16 0.687759 0.270645 0.500000
#
# Coordination Sequence:
#
# PCOD9568775 Si02
#       6
#    16  16  16  16  16  16
#     4  10  21  38  55  75 110 150 191 239 286 334
#     4  10  21  37  58  84 115 151 184 227 280 334
#     4  11  22  34  55  81 105 146 196 241 282 328
#     4  10  20  38  60  80 113 153 186 226 283 337
#     4  11  23  37  59  88 119 152 190 234 280 336
#     4  10  20  36  56  83 118 152 184 228 285 334
#
# _framework density 20.225587000000001
#
# number of rings (size 3 to 8) (size 9 to 14) (size 15 to 20)
#    0.000    1.667    3.333    1.500    0.000    4.333 
#    0.000    1.667    0.000    0.500    0.000    3.500 
#    0.000    0.000    0.000    0.000    0.000    0.000 
#
# Total GULP energy -535149.851224 kJ/mol
# GULP energy per Si atom -5574.477617 kJ/mol
# Density = 2.017955 g / cm^3
# Si number density = 20.225587 Si / 1000 Ang^3
#
#
#
# Elastic Constant Matrix: (Units=GPa)
#
#
# Indices 1 2 3 4 5 6 
#
# 1 84.8986 43.8271 5.2752 0.0000 0.0000 0.0000
# 2 43.8271 84.8880 5.2781 0.0000 0.0000 0.0000
# 3 5.2752 5.2781 25.6595 0.0000 0.0000 0.0000
# 4 0.0000 0.0000 0.0000 16.9359 0.0000 0.0000
# 5 0.0000 0.0000 0.0000 0.0000 16.9362 0.0000
# 6 0.0000 0.0000 0.0000 0.0000 0.0000 32.7510
#
#
#
# Elastic Compliance Matrix: (Units=1/GPa)
#
#
# Indices 1 2 3 4 5 6 
#
# 1 0.016125 -0.008224 -0.001623 0.000000 0.000000 0.000000
# 2 -0.008224 0.016128 -0.001627 0.000000 0.000000 0.000000
# 3 -0.001623 -0.001627 0.039640 0.000000 0.000000 0.000000
# 4 0.000000 0.000000 0.000000 0.059046 0.000000 0.000000
# 5 0.000000 0.000000 0.000000 0.000000 0.059045 0.000000
# 6 0.000000 0.000000 0.000000 0.000000 0.000000 0.030533
#
#
# Mechanical properties :
#
#
# Convention : Reuss Voigt Hill
#
# Bulk Modulus (GPa) = 20.43135 33.80076 27.11605
# Shear Modulus (GPa) = 19.24694 22.72899 20.98797
#
# Velocity S-wave (km/s) = 3.08817 3.35591 3.22482
# Velocity P-wave (km/s) = 4.77906 5.63599 5.22512
#
# Compressibility (1/GPa) = 0.04894440
#
# Stress axis : x y z
#
# Youngs Moduli (GPa) = 62.01418 62.00546 25.22686
#
# Poissons Ratio (x) = 0.50996 0.04095
# Poissons Ratio (y) = 0.51003 0.04103
# Poissons Ratio (z) = 0.10067 0.10086
#
# Static dielectric constant tensor:
#      x y z
#    x 1.754790 0.000000 0.000000 
#    y 0.000000 1.754800 0.000000 
#    z 0.000000 0.000000 1.979130 
# 
# From -- ./inp_files/1199.got.cif
#   From: 2010.05.17/outbox.cif.g08.bks.cpg/sg135_1_cif.got.tgz:1199.got - 2010.05.20 12:50:20.
