data_PCOD9568345
_publ_section_title
;
Structure prediction by ZEFSAII (Michael W. Deem and Ramdas Pophale) SiO2 
 PCOD9568345
Probable space group: P 42/N N M
;
_chemical_formula_sum "Si O2"
_cell_formula_units_Z 64
_cell_length_a 10.928260
_cell_length_b 10.928260
_cell_length_c 21.846383
_cell_angle_alpha 90.000000
_cell_angle_beta 90.000000
_cell_angle_gamma 90.000000
_cell_volume 2609.045069
_symmetry_space_group_name_H-M "P 42/N N M"
_symmetry_group_IT_number 134
_space_group.IT_coordinate_system_code '2'
_symmetry_cell_setting 'tetragonal'
loop_
_space_group_symop_operation_xyz
x,y,z
1/2-y,x,1/2+z
1/2-x,1/2-y,z
y,1/2-x,1/2+z
x,1/2-y,1/2-z
1/2-x,y,1/2-z
y,x,-z
1/2-y,1/2-x,-z
-x,-y,-z
1/2+y,-x,1/2-z
1/2+x,1/2+y,-z
-y,1/2+x,1/2-z
-x,1/2+y,1/2+z
1/2+x,-y,1/2+z
-y,-x,z
1/2+y,1/2+x,z
loop_
_atom_site_type_symbol
_atom_site_label
_atom_site_fract_x
_atom_site_fract_y
_atom_site_fract_z
Si Si1 0.393025 0.217553 0.898773
Si Si2 0.627948 0.931742 0.709586
Si Si3 0.259943 0.553184 0.989022
Si Si4 0.709653 0.485508 0.348856
O O1 0.250000 0.250000 0.898848
O O2 0.462593 0.314181 0.856451
O O3 0.392639 0.088162 0.863893
O O4 0.444425 0.223908 0.966558
O O5 0.750000 0.904838 0.750000
O O6 0.541324 0.814093 0.694924
O O7 0.541711 0.041711 0.732062
O O8 0.386558 0.613443 0.008996
O O9 0.153483 0.653483 0.996293
O O10 0.266881 0.530110 0.916667
O O11 0.638780 0.361221 0.330411
#
# Coordination Sequence:
#
# PCOD9568345 Si02
#       4
#    16  16  16  16
#     4  10  22  39  63  98 140 186 232 281 342 412
#     4  11  26  47  71 100 136 181 236 295 353 419
#     4  10  20  36  63 101 141 179 224 278 340 414
#     4  10  22  42  70 104 141 181 228 286 353 424
#
# _framework density 24.530045999999999
#
# number of rings (size 3 to 8) (size 9 to 14) (size 15 to 20)
#    0.000    1.750    0.000    3.000    0.000   17.250 
#    0.000    6.250    0.000    7.500    0.000   14.000 
#    0.000    0.000    0.000    0.000    0.000    0.000 
#
# Total GULP energy -357819.703245 kJ/mol
# GULP energy per Si atom -5590.932863 kJ/mol
# Density = 2.447421 g / cm^3
# Si number density = 24.530046 Si / 1000 Ang^3
#
#
#
# Elastic Constant Matrix: (Units=GPa)
#
#
# Indices 1 2 3 4 5 6 
#
# 1 103.3265 82.3032 51.5797 0.0000 0.0000 0.0000
# 2 82.3032 103.3265 51.5797 0.0000 0.0000 0.0000
# 3 51.5797 51.5797 98.6827 0.0000 0.0000 0.0000
# 4 0.0000 0.0000 0.0000 36.3716 0.0000 0.0000
# 5 0.0000 0.0000 0.0000 0.0000 36.3716 0.0000
# 6 0.0000 0.0000 0.0000 0.0000 0.0000 43.5402
#
#
#
# Elastic Compliance Matrix: (Units=1/GPa)
#
#
# Indices 1 2 3 4 5 6 
#
# 1 0.027579 -0.019987 -0.003968 0.000000 0.000000 0.000000
# 2 -0.019987 0.027579 -0.003968 0.000000 0.000000 0.000000
# 3 -0.003968 -0.003968 0.014282 0.000000 0.000000 0.000000
# 4 0.000000 0.000000 0.000000 0.027494 0.000000 0.000000
# 5 0.000000 0.000000 0.000000 0.000000 0.027494 0.000000
# 6 0.000000 0.000000 0.000000 0.000000 0.000000 0.022967
#
#
# Mechanical properties :
#
#
# Convention : Reuss Voigt Hill
#
# Bulk Modulus (GPa) = 73.56677 75.14008 74.35342
# Shear Modulus (GPa) = 24.06452 31.24821 27.65636
#
# Velocity S-wave (km/s) = 3.13553 3.57301 3.36139
# Velocity P-wave (km/s) = 6.56995 6.90798 6.74109
#
# Compressibility (1/GPa) = 0.01359309
#
# Stress axis : x y z
#
# Youngs Moduli (GPa) = 36.25891 36.25891 70.01846
#
# Poissons Ratio (x) = 0.72471 0.27786
# Poissons Ratio (y) = 0.72471 0.27786
# Poissons Ratio (z) = 0.14389 0.14389
#
# Static dielectric constant tensor:
#      x y z
#    x 1.975930 0.000000 0.000000 
#    y 0.000000 1.975930 0.000000 
#    z 0.000000 0.000000 1.972570 
# 
# From -- ./inp_files/9804.got.cif
#   From: 2010.05.17/outbox.cif.g08.bks.cpg/sg134_5_cif.got.tgz:9804.got - 2010.05.20 12:42:49.
