data_PCOD9568774
_publ_section_title
;
Structure prediction by ZEFSAII (Michael W. Deem and Ramdas Pophale) SiO2 
 PCOD9568774
Probable space group: P 42/M B C
;
_chemical_formula_sum "Si O2"
_cell_formula_units_Z 64
_cell_length_a 20.238049
_cell_length_b 20.238049
_cell_length_c 8.042022
_cell_angle_alpha 90.000000
_cell_angle_beta 90.000000
_cell_angle_gamma 90.000000
_cell_volume 3293.840332
_symmetry_space_group_name_H-M "P 42/M B C"
_symmetry_group_IT_number 135
_symmetry_cell_setting 'tetragonal'
loop_
_space_group_symop_operation_xyz
x,y,z
-y,x,1/2+z
-x,-y,z
y,-x,1/2+z
1/2+x,1/2-y,-z
1/2-x,1/2+y,-z
1/2+y,1/2+x,1/2-z
1/2-y,1/2-x,1/2-z
-x,-y,-z
y,-x,1/2-z
x,y,-z
-y,x,1/2-z
1/2-x,1/2+y,z
1/2+x,1/2-y,z
1/2-y,1/2-x,1/2+z
1/2+y,1/2+x,1/2+z
loop_
_atom_site_type_symbol
_atom_site_label
_atom_site_fract_x
_atom_site_fract_y
_atom_site_fract_z
Si Si1 0.224255 0.831238 0.303272
Si Si2 0.514244 0.604267 0.802723
Si Si3 0.745015 0.519228 0.188759
Si Si4 0.880676 0.272838 0.298133
O O1 0.285298 0.785298 0.250000
O O2 0.218263 0.828303 0.500000
O O3 0.238703 0.907233 0.260353
O O4 0.158035 0.793837 0.236563
O O5 0.567891 0.555631 0.724798
O O6 0.509596 0.671209 0.701940
O O7 0.525071 0.614176 0.000000
O O8 0.782808 0.455838 0.265416
O O9 0.767370 0.528036 0.000000
O O10 0.832717 0.332717 0.250000
O O11 0.884815 0.269500 0.500000
#
# Coordination Sequence:
#
# PCOD9568774 Si02
#       4
#    16  16  16  16
#     4  10  20  36  56  80 109 144 182 224 270 321
#     4  11  21  33  48  70 102 140 176 214 259 313
#     4  11  21  34  53  79 107 138 176 220 266 321
#     4   9  20  36  55  78 107 139 177 220 265 316
#
# _framework density 19.430206999999999
#
# number of rings (size 3 to 8) (size 9 to 14) (size 15 to 20)
#    0.000    1.750    0.000    6.000    0.000    5.000 
#    0.000    0.000    0.000    0.750    0.000    5.250 
#    0.000    0.000    0.000    0.000    0.000    0.000 
#
# Total GULP energy -356806.001458 kJ/mol
# GULP energy per Si atom -5575.093773 kJ/mol
# Density = 1.938598 g / cm^3
# Si number density = 19.430207 Si / 1000 Ang^3
#
#
#
# Elastic Constant Matrix: (Units=GPa)
#
#
# Indices 1 2 3 4 5 6 
#
# 1 20.8068 71.6196 1.7195 0.0000 0.0000 0.0000
# 2 71.6196 20.8068 1.7195 0.0000 0.0000 0.0000
# 3 1.7195 1.7195 48.3911 0.0000 0.0000 0.0000
# 4 0.0000 0.0000 0.0000 23.0368 0.0000 0.0000
# 5 0.0000 0.0000 0.0000 0.0000 23.0368 0.0000
# 6 0.0000 0.0000 0.0000 0.0000 0.0000 -1.2135
#
#
#
# Elastic Compliance Matrix: (Units=1/GPa)
#
#
# Indices 1 2 3 4 5 6 
#
# 1 -0.004423 0.015257 -0.000385 0.000000 0.000000 0.000000
# 2 0.015257 -0.004423 -0.000385 0.000000 0.000000 0.000000
# 3 -0.000385 -0.000385 0.020692 0.000000 0.000000 0.000000
# 4 0.000000 0.000000 0.000000 0.043409 0.000000 0.000000
# 5 0.000000 0.000000 0.000000 0.000000 0.043409 0.000000
# 6 0.000000 0.000000 0.000000 0.000000 0.000000 -0.824034
#
#
# Mechanical properties :
#
#
# Convention : Reuss Voigt Hill
#
# Bulk Modulus (GPa) = 24.49780 26.68021 25.58900
# Shear Modulus (GPa) = -6.75003 9.96840 1.60919
#
# Velocity S-wave (km/s) = -1.86589 2.26749 0.91104
# Velocity P-wave (km/s) = 2.82727 4.54053 3.78219
#
# Compressibility (1/GPa) = 0.04081998
#
# Stress axis : x y z
#
# Youngs Moduli (GPa) = -226.08196 -226.08196 48.32708
#
# Poissons Ratio (x) = 3.44931 0.01860
# Poissons Ratio (y) = 3.44931 0.01860
# Poissons Ratio (z) = -0.08703 -0.08703
#
# Static dielectric constant tensor:
#      x y z
#    x 1.718530 0.000000 0.000000 
#    y 0.000000 1.718530 0.000000 
#    z 0.000000 0.000000 1.693670 
# 
# From -- ./inp_files/924.got.cif
#   From: 2010.05.17/outbox.cif.g08.bks.cpg/sg135_1_cif.got.tgz:924.got - 2010.05.20 12:50:20.
