data_PCOD9568000
_publ_section_title
;
Structure prediction by ZEFSAII (Michael W. Deem and Ramdas Pophale) SiO2 
 PCOD9568000
Probable space group: P 42/N B C
;
_chemical_formula_sum "Si O2"
_cell_formula_units_Z 96
_cell_length_a 14.914707
_cell_length_b 14.914707
_cell_length_c 20.433431
_cell_angle_alpha 90.000000
_cell_angle_beta 90.000000
_cell_angle_gamma 90.000000
_cell_volume 4545.385767
_symmetry_space_group_name_H-M "P 42/N B C"
_symmetry_group_IT_number 133
_space_group.IT_coordinate_system_code '2'
_symmetry_cell_setting 'tetragonal'
loop_
_space_group_symop_operation_xyz
x,y,z
1/2-y,x,1/2+z
1/2-x,1/2-y,z
y,1/2-x,1/2+z
x,1/2-y,-z
1/2-x,y,-z
y,x,1/2-z
1/2-y,1/2-x,1/2-z
-x,-y,-z
1/2+y,-x,1/2-z
1/2+x,1/2+y,-z
-y,1/2+x,1/2-z
-x,1/2+y,z
1/2+x,-y,z
-y,-x,1/2+z
1/2+y,1/2+x,1/2+z
loop_
_atom_site_type_symbol
_atom_site_label
_atom_site_fract_x
_atom_site_fract_y
_atom_site_fract_z
Si Si1 0.975857 0.076327 0.640870
Si Si2 0.502512 0.221407 0.843850
Si Si3 0.469422 0.237038 0.694738
Si Si4 0.853200 0.999098 0.995265
Si Si5 0.676291 0.674180 0.588441
Si Si6 0.091387 0.591891 0.366030
O O1 0.871142 0.055543 0.647227
O O2 0.009452 0.159627 0.682536
O O3 0.996575 0.101132 0.565422
O O4 0.030206 0.988503 0.660916
O O5 0.460540 0.220992 0.771298
O O6 0.418695 0.223754 0.893104
O O7 0.566419 0.306401 0.854352
O O8 0.385487 0.206869 0.649938
O O9 0.555070 0.181036 0.668594
O O10 0.847438 0.897804 0.966992
O O11 0.899463 0.062840 0.941991
O O12 0.750000 0.029162 0.000000
O O13 0.750000 0.750000 0.574364
#
# Coordination Sequence:
#
# PCOD9568000 Si02
#       6
#    16  16  16  16  16  16
#     4  12  24  47  73  98 145 193 232 297 362 420
#     4  12  26  41  73 106 136 190 246 282 358 442
#     4  11  24  46  68 101 149 186 231 302 352 417
#     4  11  23  49  70  95 145 181 232 299 355 421
#     4  11  24  44  70 108 140 186 236 294 364 422
#     4  11  25  45  68 106 137 186 235 293 356 420
#
# _framework density 21.120321000000001
#
# number of rings (size 3 to 8) (size 9 to 14) (size 15 to 20)
#    0.000    0.667    6.667    3.000    0.000    6.333 
#    0.000    2.500    0.000    0.000    0.000    0.000 
#    0.000    0.000    0.000    0.000    0.000    0.000 
#
# Total GULP energy -537457.975717 kJ/mol
# GULP energy per Si atom -5598.520580 kJ/mol
# Density = 2.107225 g / cm^3
# Si number density = 21.120321 Si / 1000 Ang^3
#
#
#
# Elastic Constant Matrix: (Units=GPa)
#
#
# Indices 1 2 3 4 5 6 
#
# 1 -56.3224 130.1886 19.7528 0.0000 0.0000 0.0000
# 2 130.1886 -56.3224 19.7528 0.0000 0.0000 0.0000
# 3 19.7528 19.7528 81.3793 0.0000 0.0000 0.0000
# 4 0.0000 0.0000 0.0000 20.1367 0.0000 0.0000
# 5 0.0000 0.0000 0.0000 0.0000 20.1367 0.0000
# 6 0.0000 0.0000 0.0000 0.0000 0.0000 28.2781
#
#
#
# Elastic Compliance Matrix: (Units=1/GPa)
#
#
# Indices 1 2 3 4 5 6 
#
# 1 0.005098 0.010460 -0.003776 0.000000 0.000000 0.000000
# 2 0.010460 0.005098 -0.003776 0.000000 0.000000 0.000000
# 3 -0.003776 -0.003776 0.014121 0.000000 0.000000 0.000000
# 4 0.000000 0.000000 0.000000 0.049661 0.000000 0.000000
# 5 0.000000 0.000000 0.000000 0.000000 0.049661 0.000000
# 6 0.000000 0.000000 0.000000 0.000000 0.000000 0.035363
#
#
# Mechanical properties :
#
#
# Convention : Reuss Voigt Hill
#
# Bulk Modulus (GPa) = 33.18771 34.23588 33.71179
# Shear Modulus (GPa) = 30.63142 0.31299 15.47220
#
# Velocity S-wave (km/s) = 3.81245 0.38537 2.70955
# Velocity P-wave (km/s) = 5.92684 4.05501 5.07792
#
# Compressibility (1/GPa) = 0.03013164
#
# Stress axis : x y z
#
# Youngs Moduli (GPa) = 196.15559 196.15559 70.81497
#
# Poissons Ratio (x) = -2.05171 0.26741
# Poissons Ratio (y) = -2.05171 0.26741
# Poissons Ratio (z) = 0.74073 0.74073
#
# Static dielectric constant tensor:
#      x y z
#    x 1.727720 0.000000 0.000000 
#    y 0.000000 1.727720 0.000000 
#    z 0.000000 0.000000 1.822170 
# 
# From -- ./inp_files/6517.got.cif
#   From: 2010.05.17/outbox.cif.g08.bks.cpg/sg133_4_cif.got.tgz:6517.got - 2010.05.20 12:37:36.
