data_PCOD9568619
_publ_section_title
;
Structure prediction by ZEFSAII (Michael W. Deem and Ramdas Pophale) SiO2 
 PCOD9568619
Probable space group: P 42/M B C
;
_chemical_formula_sum "Si O2"
_cell_formula_units_Z 60
_cell_length_a 13.915235
_cell_length_b 13.915235
_cell_length_c 13.782865
_cell_angle_alpha 90.000000
_cell_angle_beta 90.000000
_cell_angle_gamma 90.000000
_cell_volume 2668.828044
_symmetry_space_group_name_H-M "P 42/M B C"
_symmetry_group_IT_number 135
_symmetry_cell_setting 'tetragonal'
loop_
_space_group_symop_operation_xyz
x,y,z
-y,x,1/2+z
-x,-y,z
y,-x,1/2+z
1/2+x,1/2-y,-z
1/2-x,1/2+y,-z
1/2+y,1/2+x,1/2-z
1/2-y,1/2-x,1/2-z
-x,-y,-z
y,-x,1/2-z
x,y,-z
-y,x,1/2-z
1/2-x,1/2+y,z
1/2+x,1/2-y,z
1/2-y,1/2-x,1/2+z
1/2+y,1/2+x,1/2+z
loop_
_atom_site_type_symbol
_atom_site_label
_atom_site_fract_x
_atom_site_fract_y
_atom_site_fract_z
Si Si1 0.223836 0.758153 0.114336
Si Si2 0.136741 0.363260 0.250000
Si Si3 0.361984 0.594128 0.889727
Si Si4 0.277211 0.004246 0.609996
Si Si5 0.000000 0.000000 0.750000
O O1 0.278738 0.841024 0.172234
O O2 0.266838 0.652564 0.139947
O O3 0.111536 0.755467 0.130507
O O4 0.243502 0.770557 0.000000
O O5 0.152881 0.460040 0.309477
O O6 0.438712 0.681803 0.890618
O O7 0.407210 0.517107 0.817660
O O8 0.352428 0.556650 0.000000
O O9 0.317960 0.000997 0.500000
#
# Coordination Sequence:
#
# PCOD9568619 Si02
#       5
#    16   8  16  16   4
#     4   9  19  37  59  88 130 170 204 255 317 370
#     4  10  18  32  64  96 120 156 214 258 300 370
#     4   9  20  36  55  89 129 162 202 252 311 372
#     4   9  19  36  59  89 125 164 206 256 309 371
#     4  12  22  32  60  94 128 148 206 268 312 366
#
# _framework density 22.481777000000001
#
# number of rings (size 3 to 8) (size 9 to 14) (size 15 to 20)
#    0.000    2.667    0.000    2.800    7.467    0.000 
#    0.000    0.000    0.000    7.200    6.933    3.733 
#    0.000    0.000    0.000    0.000    0.000    0.000 
#
# Total GULP energy -335421.730042 kJ/mol
# GULP energy per Si atom -5590.362167 kJ/mol
# Density = 2.243061 g / cm^3
# Si number density = 22.481777 Si / 1000 Ang^3
#
#
#
# Elastic Constant Matrix: (Units=GPa)
#
#
# Indices 1 2 3 4 5 6 
#
# 1 50.1730 -4.0192 -2.2917 0.0000 0.0000 0.0000
# 2 -4.0192 50.1730 -2.2915 0.0000 0.0000 0.0000
# 3 -2.2917 -2.2915 95.8118 0.0000 0.0000 0.0000
# 4 0.0000 0.0000 0.0000 20.8787 0.0000 0.0000
# 5 0.0000 0.0000 0.0000 0.0000 20.8786 0.0000
# 6 0.0000 0.0000 0.0000 0.0000 0.0000 15.3749
#
#
#
# Elastic Compliance Matrix: (Units=1/GPa)
#
#
# Indices 1 2 3 4 5 6 
#
# 1 0.020086 0.001633 0.000519 0.000000 0.000000 0.000000
# 2 0.001633 0.020086 0.000519 0.000000 0.000000 0.000000
# 3 0.000519 0.000519 0.010462 0.000000 0.000000 0.000000
# 4 0.000000 0.000000 0.000000 0.047896 0.000000 0.000000
# 5 0.000000 0.000000 0.000000 0.000000 0.047896 0.000000
# 6 0.000000 0.000000 0.000000 0.000000 0.000000 0.065041
#
#
# Mechanical properties :
#
#
# Convention : Reuss Voigt Hill
#
# Bulk Modulus (GPa) = 17.86467 19.88365 18.87416
# Shear Modulus (GPa) = 22.24385 25.07713 23.66049
#
# Velocity S-wave (km/s) = 3.14891 3.34345 3.24764
# Velocity P-wave (km/s) = 4.60265 4.87528 4.74093
#
# Compressibility (1/GPa) = 0.05597640
#
# Stress axis : x y z
#
# Youngs Moduli (GPa) = 49.78701 49.78698 95.58424
#
# Poissons Ratio (x) = -0.08129 -0.04965
# Poissons Ratio (y) = -0.08129 -0.04965
# Poissons Ratio (z) = -0.02586 -0.02586
#
# Static dielectric constant tensor:
#      x y z
#    x 1.837470 0.000000 0.000000 
#    y 0.000000 1.837460 0.000000 
#    z 0.000000 0.000000 1.901660 
# 
# From -- ./inp_files/3195.got.cif
#   From: 2010.05.17/outbox.cif.g08.bks.cpg/sg135_2_cif.got.tgz:3195.got - 2010.05.20 12:50:20.
