data_PCOD9568599
_publ_section_title
;
Structure prediction by ZEFSAII (Michael W. Deem and Ramdas Pophale) SiO2 
 PCOD9568599
Probable space group: P 42/M B C
;
_chemical_formula_sum "Si O2"
_cell_formula_units_Z 80
_cell_length_a 17.492467
_cell_length_b 17.492467
_cell_length_c 14.829896
_cell_angle_alpha 90.000000
_cell_angle_beta 90.000000
_cell_angle_gamma 90.000000
_cell_volume 4537.746515
_symmetry_space_group_name_H-M "P 42/M B C"
_symmetry_group_IT_number 135
_symmetry_cell_setting 'tetragonal'
loop_
_space_group_symop_operation_xyz
x,y,z
-y,x,1/2+z
-x,-y,z
y,-x,1/2+z
1/2+x,1/2-y,-z
1/2-x,1/2+y,-z
1/2+y,1/2+x,1/2-z
1/2-y,1/2-x,1/2-z
-x,-y,-z
y,-x,1/2-z
x,y,-z
-y,x,1/2-z
1/2-x,1/2+y,z
1/2+x,1/2-y,z
1/2-y,1/2-x,1/2+z
1/2+y,1/2+x,1/2+z
loop_
_atom_site_type_symbol
_atom_site_label
_atom_site_fract_x
_atom_site_fract_y
_atom_site_fract_z
Si Si1 0.534675 0.236533 0.394451
Si Si2 0.297222 0.328027 0.775580
Si Si3 0.541761 0.922665 0.389901
Si Si4 0.798978 0.361589 0.396105
Si Si5 0.690532 0.372358 0.099406
O O1 0.556690 0.229970 0.500000
O O2 0.603677 0.268412 0.336834
O O3 0.505222 0.152983 0.363550
O O4 0.461844 0.292611 0.389750
O O5 0.225135 0.274866 0.750000
O O6 0.355655 0.272949 0.830338
O O7 0.336630 0.353688 0.682838
O O8 0.544125 0.921460 0.500000
O O9 0.630551 0.913687 0.362444
O O10 0.500000 0.000000 0.361351
O O11 0.779215 0.381278 0.500000
O O12 0.834149 0.275479 0.398564
O O13 0.657890 0.357440 0.000000
#
# Coordination Sequence:
#
# PCOD9568599 Si02
#       5
#    16  16  16  16  16
#     4   9  17  31  51  74 100 132 169 208 255 311
#     4  10  18  29  48  74  99 124 171 221 254 297
#     4   8  14  27  47  72 106 145 172 192 242 321
#     4   8  14  26  46  71  97 133 170 202 245 298
#     4   8  16  31  49  66  93 130 165 203 252 306
#
# _framework density 17.629895999999999
#
# number of rings (size 3 to 8) (size 9 to 14) (size 15 to 20)
#    0.000    3.400    0.000    3.000    0.000    0.800 
#    3.600    0.000    0.000    3.000    0.000    7.000 
#    0.000    0.800    0.000    0.000    0.000    0.000 
#
# Total GULP energy -445725.709759 kJ/mol
# GULP energy per Si atom -5571.571372 kJ/mol
# Density = 1.758977 g / cm^3
# Si number density = 17.629896 Si / 1000 Ang^3
#
#
#
# Elastic Constant Matrix: (Units=GPa)
#
#
# Indices 1 2 3 4 5 6 
#
# 1 58.5222 38.8855 50.9501 0.0000 0.0000 0.0000
# 2 38.8855 58.5223 50.9502 0.0000 0.0000 0.0000
# 3 50.9501 50.9502 111.6609 0.0000 0.0000 0.0000
# 4 0.0000 0.0000 0.0000 10.6243 0.0000 0.0000
# 5 0.0000 0.0000 0.0000 0.0000 10.6243 0.0000
# 6 0.0000 0.0000 0.0000 0.0000 0.0000 18.5544
#
#
#
# Elastic Compliance Matrix: (Units=1/GPa)
#
#
# Indices 1 2 3 4 5 6 
#
# 1 0.035283 -0.015641 -0.008962 0.000000 0.000000 0.000000
# 2 -0.015641 0.035283 -0.008963 0.000000 0.000000 0.000000
# 3 -0.008962 -0.008963 0.017135 0.000000 0.000000 0.000000
# 4 0.000000 0.000000 0.000000 0.094123 0.000000 0.000000
# 5 0.000000 0.000000 0.000000 0.000000 0.094124 0.000000
# 6 0.000000 0.000000 0.000000 0.000000 0.000000 0.053896
#
#
# Mechanical properties :
#
#
# Convention : Reuss Voigt Hill
#
# Bulk Modulus (GPa) = 48.61759 56.69744 52.65752
# Shear Modulus (GPa) = 12.38133 13.82192 13.10162
#
# Velocity S-wave (km/s) = 2.65295 2.80305 2.72903
# Velocity P-wave (km/s) = 6.08448 6.53496 6.31374
#
# Compressibility (1/GPa) = 0.02056869
#
# Stress axis : x y z
#
# Youngs Moduli (GPa) = 28.34188 28.34192 58.36091
#
# Poissons Ratio (x) = 0.44331 0.52306
# Poissons Ratio (y) = 0.44331 0.52306
# Poissons Ratio (z) = 0.25401 0.25402
#
# Static dielectric constant tensor:
#      x y z
#    x 1.587200 0.000000 0.000000 
#    y 0.000000 1.587200 0.000000 
#    z 0.000000 0.000000 1.656080 
# 
# From -- ./inp_files/3379.got.cif
#   From: 2010.05.17/outbox.cif.g08.bks.cpg/sg135_2_cif.got.tgz:3379.got - 2010.05.20 12:50:20.
