data_PCOD9568244
_publ_section_title
;
Structure prediction by ZEFSAII (Michael W. Deem and Ramdas Pophale) SiO2 
 PCOD9568244
Probable space group: P 42/N N M
;
_chemical_formula_sum "Si O2"
_cell_formula_units_Z 84
_cell_length_a 11.490719
_cell_length_b 11.490719
_cell_length_c 31.919467
_cell_angle_alpha 90.000000
_cell_angle_beta 90.000000
_cell_angle_gamma 90.000000
_cell_volume 4214.538635
_symmetry_space_group_name_H-M "P 42/N N M"
_symmetry_group_IT_number 134
_space_group.IT_coordinate_system_code '2'
_symmetry_cell_setting 'tetragonal'
loop_
_space_group_symop_operation_xyz
x,y,z
1/2-y,x,1/2+z
1/2-x,1/2-y,z
y,1/2-x,1/2+z
x,1/2-y,1/2-z
1/2-x,y,1/2-z
y,x,-z
1/2-y,1/2-x,-z
-x,-y,-z
1/2+y,-x,1/2-z
1/2+x,1/2+y,-z
-y,1/2+x,1/2-z
-x,1/2+y,1/2+z
1/2+x,-y,1/2+z
-y,-x,z
1/2+y,1/2+x,z
loop_
_atom_site_type_symbol
_atom_site_label
_atom_site_fract_x
_atom_site_fract_y
_atom_site_fract_z
Si Si1 0.982328 0.201912 0.204173
Si Si2 0.810993 0.489265 0.118469
Si Si3 0.773767 0.890939 0.622064
Si Si4 0.574514 0.616629 0.939271
Si Si5 0.508745 0.682761 0.206044
Si Si6 0.250000 0.250000 0.500000
O O1 0.959745 0.250000 0.250000
O O2 0.871551 0.128450 0.189689
O O3 0.004362 0.294991 0.168338
O O4 0.089938 0.114065 0.207781
O O5 0.894143 0.595525 0.105755
O O6 0.690604 0.504450 0.094940
O O7 0.868023 0.368023 0.108808
O O8 0.750000 0.750000 0.628316
O O9 0.682000 0.934973 0.587585
O O10 0.758245 0.959400 0.665368
O O11 0.485596 0.514405 0.954719
O O12 0.639470 0.715308 0.969014
O O13 0.504535 0.750000 0.250000
O O14 0.391004 0.608997 0.200183
#
# Coordination Sequence:
#
# PCOD9568244 Si02
#       6
#    16  16  16  16  16   4
#     4  11  22  34  51  81 119 164 212 259 310 364
#     4  11  22  38  62  94 130 165 206 259 321 379
#     4  10  19  38  62  85 121 164 209 255 307 372
#     4  11  22  41  70 100 126 162 209 258 315 382
#     4  11  23  36  55  82 116 164 218 266 308 360
#     4  12  22  44  70 106 126 160 208 260 312 382
#
# _framework density 19.931006
#
# number of rings (size 3 to 8) (size 9 to 14) (size 15 to 20)
#    0.000    1.143    6.667    3.143    0.000    4.952 
#    0.000    0.476    0.000    1.714    0.000    0.000 
#    0.000    0.000    0.000    0.000    0.000    0.000 
#
# Total GULP energy -467746.536961 kJ/mol
# GULP energy per Si atom -5568.411154 kJ/mol
# Density = 1.988564 g / cm^3
# Si number density = 19.931006 Si / 1000 Ang^3
#
#
#
# Elastic Constant Matrix: (Units=GPa)
#
#
# Indices 1 2 3 4 5 6 
#
# 1 56.5711 41.1022 21.7827 0.0000 0.0000 0.0000
# 2 41.1022 56.5711 21.7827 0.0000 0.0000 0.0000
# 3 21.7827 21.7827 88.5079 0.0000 0.0000 0.0000
# 4 0.0000 0.0000 0.0000 -3.7440 0.0000 0.0000
# 5 0.0000 0.0000 0.0000 0.0000 -3.7440 0.0000
# 6 0.0000 0.0000 0.0000 0.0000 0.0000 22.8596
#
#
#
# Elastic Compliance Matrix: (Units=1/GPa)
#
#
# Indices 1 2 3 4 5 6 
#
# 1 0.038073 -0.026573 -0.002830 0.000000 0.000000 0.000000
# 2 -0.026573 0.038073 -0.002830 0.000000 0.000000 0.000000
# 3 -0.002830 -0.002830 0.012692 0.000000 0.000000 0.000000
# 4 0.000000 0.000000 0.000000 -0.267094 0.000000 0.000000
# 5 0.000000 0.000000 0.000000 0.000000 -0.267094 0.000000
# 6 0.000000 0.000000 0.000000 0.000000 0.000000 0.043745
#
#
# Mechanical properties :
#
#
# Convention : Reuss Voigt Hill
#
# Bulk Modulus (GPa) = 41.03199 41.22061 41.12630
# Shear Modulus (GPa) = -15.19698 10.87314 -2.16192
#
# Velocity S-wave (km/s) = -2.76430 2.33821 -1.04262
# Velocity P-wave (km/s) = 3.23160 5.29303 4.38517
#
# Compressibility (1/GPa) = 0.02437123
#
# Stress axis : x y z
#
# Youngs Moduli (GPa) = 26.26502 26.26502 78.79208
#
# Poissons Ratio (x) = 0.69793 0.22302
# Poissons Ratio (y) = 0.69793 0.22302
# Poissons Ratio (z) = 0.07434 0.07434
#
# Static dielectric constant tensor:
#      x y z
#    x 1.756690 0.000000 0.000000 
#    y 0.000000 1.756690 0.000000 
#    z 0.000000 0.000000 1.757970 
# 
# From -- ./inp_files/11444.got.cif
#   From: 2010.05.17/outbox.cif.g08.bks.cpg/sg134_6_cif.got.tgz:11444.got - 2010.05.20 12:42:49.
