data_PCOD9568706
_publ_section_title
;
Structure prediction by ZEFSAII (Michael W. Deem and Ramdas Pophale) SiO2 
 PCOD9568706
Probable space group: P 42/M B C
;
_chemical_formula_sum "Si O2"
_cell_formula_units_Z 96
_cell_length_a 18.440522
_cell_length_b 18.440522
_cell_length_c 15.596726
_cell_angle_alpha 90.000000
_cell_angle_beta 90.000000
_cell_angle_gamma 90.000000
_cell_volume 5303.711152
_symmetry_space_group_name_H-M "P 42/M B C"
_symmetry_group_IT_number 135
_symmetry_cell_setting 'tetragonal'
loop_
_space_group_symop_operation_xyz
x,y,z
-y,x,1/2+z
-x,-y,z
y,-x,1/2+z
1/2+x,1/2-y,-z
1/2-x,1/2+y,-z
1/2+y,1/2+x,1/2-z
1/2-y,1/2-x,1/2-z
-x,-y,-z
y,-x,1/2-z
x,y,-z
-y,x,1/2-z
1/2-x,1/2+y,z
1/2+x,1/2-y,z
1/2-y,1/2-x,1/2+z
1/2+y,1/2+x,1/2+z
loop_
_atom_site_type_symbol
_atom_site_label
_atom_site_fract_x
_atom_site_fract_y
_atom_site_fract_z
Si Si1 0.466395 0.926979 0.347655
Si Si2 0.920450 0.909662 0.752661
Si Si3 0.828311 0.836991 0.899332
Si Si4 0.208129 0.556375 0.100596
Si Si5 0.415330 0.693522 0.403302
Si Si6 0.665314 0.169467 0.854217
O O1 0.447105 0.947105 0.250000
O O2 0.525874 0.862444 0.351185
O O3 0.390433 0.894468 0.383201
O O4 0.500000 0.000000 0.387770
O O5 0.882166 0.879151 0.836799
O O6 0.898859 0.864441 0.669099
O O7 0.006667 0.902507 0.760902
O O8 0.747478 0.867911 0.876917
O O9 0.841933 0.752009 0.883719
O O10 0.838814 0.853738 0.000000
O O11 0.269792 0.494314 0.110740
O O12 0.188374 0.558279 0.000000
O O13 0.412828 0.664716 0.500000
O O14 0.359958 0.759495 0.391504
O O15 0.667703 0.167703 0.750000
#
# Coordination Sequence:
#
# PCOD9568706 Si02
#       6
#    16  16  16  16  16  16
#     4   9  19  36  58  88 120 158 201 252 309 377
#     4  11  23  37  58  86 115 152 199 248 299 355
#     4  11  22  39  60  88 122 160 204 255 308 368
#     4   9  19  36  59  81 112 158 198 237 302 372
#     4  10  19  36  58  82 112 150 193 238 295 366
#     4  10  19  35  61  87 116 157 205 255 306 365
#
# _framework density 18.100534
#
# number of rings (size 3 to 8) (size 9 to 14) (size 15 to 20)
#    0.000    2.000    3.333    0.500    0.000    1.667 
#    3.000    3.333    0.000    2.000    0.000    0.000 
#    0.000    0.000    0.000    0.000    0.000    0.000 
#
# Total GULP energy -535092.459052 kJ/mol
# GULP energy per Si atom -5573.879782 kJ/mol
# Density = 1.805934 g / cm^3
# Si number density = 18.100534 Si / 1000 Ang^3
#
#
#
# Elastic Constant Matrix: (Units=GPa)
#
#
# Indices 1 2 3 4 5 6 
#
# 1 78.3892 103.0320 43.4497 0.0000 0.0000 0.0000
# 2 103.0320 78.3892 43.4497 0.0000 0.0000 0.0000
# 3 43.4497 43.4497 92.9781 0.0000 0.0000 0.0000
# 4 0.0000 0.0000 0.0000 -0.2396 0.0000 0.0000
# 5 0.0000 0.0000 0.0000 0.0000 -0.2396 0.0000
# 6 0.0000 0.0000 0.0000 0.0000 0.0000 23.3872
#
#
#
# Elastic Compliance Matrix: (Units=1/GPa)
#
#
# Indices 1 2 3 4 5 6 
#
# 1 -0.016739 0.023841 -0.003319 0.000000 0.000000 0.000000
# 2 0.023841 -0.016739 -0.003319 0.000000 0.000000 0.000000
# 3 -0.003319 -0.003319 0.013857 0.000000 0.000000 0.000000
# 4 0.000000 0.000000 0.000000 -4.173080 0.000000 0.000000
# 5 0.000000 0.000000 0.000000 0.000000 -4.173080 0.000000
# 6 0.000000 0.000000 0.000000 0.000000 0.000000 0.042758
#
#
# Mechanical properties :
#
#
# Convention : Reuss Voigt Hill
#
# Bulk Modulus (GPa) = 67.63374 69.95769 68.79571
# Shear Modulus (GPa) = -0.59862 8.56993 3.98565
#
# Velocity S-wave (km/s) = -0.57571 2.17828 1.48551
# Velocity P-wave (km/s) = 6.08316 6.71267 6.40565
#
# Compressibility (1/GPa) = 0.01478552
#
# Stress axis : x y z
#
# Youngs Moduli (GPa) = -59.74058 -59.74058 72.16601
#
# Poissons Ratio (x) = 1.42426 0.23950
# Poissons Ratio (y) = 1.42426 0.23950
# Poissons Ratio (z) = -0.19826 -0.19826
#
# Static dielectric constant tensor:
#      x y z
#    x 1.632420 0.000000 0.000000 
#    y 0.000000 1.632420 0.000000 
#    z 0.000000 0.000000 1.633950 
# 
# From -- ./inp_files/4485.got.cif
#   From: 2010.05.17/outbox.cif.g08.bks.cpg/sg135_3_cif.got.tgz:4485.got - 2010.05.20 12:50:20.
