data_PCOD9568223
_publ_section_title
;
Structure prediction by ZEFSAII (Michael W. Deem and Ramdas Pophale) SiO2 
 PCOD9568223
Probable space group: P 42/N N M
;
_chemical_formula_sum "Si O2"
_cell_formula_units_Z 72
_cell_length_a 13.752913
_cell_length_b 13.752913
_cell_length_c 19.533817
_cell_angle_alpha 90.000000
_cell_angle_beta 90.000000
_cell_angle_gamma 90.000000
_cell_volume 3694.677248
_symmetry_space_group_name_H-M "P 42/N N M"
_symmetry_group_IT_number 134
_space_group.IT_coordinate_system_code '2'
_symmetry_cell_setting 'tetragonal'
loop_
_space_group_symop_operation_xyz
x,y,z
1/2-y,x,1/2+z
1/2-x,1/2-y,z
y,1/2-x,1/2+z
x,1/2-y,1/2-z
1/2-x,y,1/2-z
y,x,-z
1/2-y,1/2-x,-z
-x,-y,-z
1/2+y,-x,1/2-z
1/2+x,1/2+y,-z
-y,1/2+x,1/2-z
-x,1/2+y,1/2+z
1/2+x,-y,1/2+z
-y,-x,z
1/2+y,1/2+x,z
loop_
_atom_site_type_symbol
_atom_site_label
_atom_site_fract_x
_atom_site_fract_y
_atom_site_fract_z
Si Si1 0.987142 0.853891 0.711722
Si Si2 0.087234 0.750000 0.250000
Si Si3 0.866820 0.978561 0.058964
Si Si4 0.038542 0.377861 0.673967
Si Si5 0.016945 0.145068 0.450437
O O1 0.991756 0.750000 0.750000
O O2 0.090192 0.909809 0.718776
O O3 0.910190 0.918830 0.753146
O O4 0.961569 0.854569 0.631366
O O5 0.157985 0.842016 0.262773
O O6 0.017698 0.722115 0.313622
O O7 0.876321 0.900439 0.120613
O O8 0.758353 0.997479 0.034466
O O9 0.928202 0.928202 0.000000
O O10 0.920648 0.079353 0.078933
O O11 0.954498 0.454498 0.653189
O O12 0.098049 0.098049 0.500000
O O13 0.921107 0.078894 0.460282
#
# Coordination Sequence:
#
# PCOD9568223 Si02
#       5
#    16   8  16  16  16
#     4  10  19  34  59  88 119 155 195 247 309 372
#     4   9  18  34  57  82 110 150 197 248 306 369
#     4  10  21  38  59  83 115 157 205 258 310 364
#     4   9  18  34  55  82 114 146 190 250 307 355
#     4  10  22  39  60  89 127 167 204 249 315 386
#
# _framework density 19.487494999999999
#
# number of rings (size 3 to 8) (size 9 to 14) (size 15 to 20)
#    0.000    2.333    2.222    0.000    0.000    2.889 
#    0.000    6.111    0.000    4.000    0.000    0.000 
#    0.000    0.000    0.000    0.000    0.000    0.000 
#
# Total GULP energy -400840.451483 kJ/mol
# GULP energy per Si atom -5567.228493 kJ/mol
# Density = 1.944314 g / cm^3
# Si number density = 19.487495 Si / 1000 Ang^3
#
#
#
# Elastic Constant Matrix: (Units=GPa)
#
#
# Indices 1 2 3 4 5 6 
#
# 1 87.7662 60.0555 39.5612 0.0000 0.0000 0.0000
# 2 60.0555 87.7662 39.5612 0.0000 0.0000 0.0000
# 3 39.5612 39.5612 81.2016 0.0000 0.0000 0.0000
# 4 0.0000 0.0000 0.0000 26.0932 0.0000 0.0000
# 5 0.0000 0.0000 0.0000 0.0000 26.0932 0.0000
# 6 0.0000 0.0000 0.0000 0.0000 0.0000 10.6700
#
#
#
# Elastic Compliance Matrix: (Units=1/GPa)
#
#
# Indices 1 2 3 4 5 6 
#
# 1 0.022619 -0.013468 -0.004459 0.000000 0.000000 0.000000
# 2 -0.013468 0.022619 -0.004459 0.000000 0.000000 0.000000
# 3 -0.004459 -0.004459 0.016659 0.000000 0.000000 0.000000
# 4 0.000000 0.000000 0.000000 0.038324 0.000000 0.000000
# 5 0.000000 0.000000 0.000000 0.000000 0.038324 0.000000
# 6 0.000000 0.000000 0.000000 0.000000 0.000000 0.093721
#
#
# Mechanical properties :
#
#
# Convention : Reuss Voigt Hill
#
# Bulk Modulus (GPa) = 58.38382 59.45441 58.91912
# Shear Modulus (GPa) = 17.68370 20.40835 19.04603
#
# Velocity S-wave (km/s) = 3.01564 3.23964 3.12964
# Velocity P-wave (km/s) = 6.49231 6.67600 6.58480
#
# Compressibility (1/GPa) = 0.01712803
#
# Stress axis : x y z
#
# Youngs Moduli (GPa) = 44.21019 44.21019 60.02629
#
# Poissons Ratio (x) = 0.59542 0.26763
# Poissons Ratio (y) = 0.59542 0.26763
# Poissons Ratio (z) = 0.19711 0.19711
#
# Static dielectric constant tensor:
#      x y z
#    x 1.706090 0.000000 0.000000 
#    y 0.000000 1.706090 0.000000 
#    z 0.000000 0.000000 1.744610 
# 
# From -- ./inp_files/7586.got.cif
#   From: 2010.05.17/outbox.cif.g08.bks.cpg/sg134_4_cif.got.tgz:7586.got - 2010.05.20 12:42:49.
