data_PCOD9568920
_publ_section_title
;
Structure prediction by ZEFSAII (Michael W. Deem and Ramdas Pophale) SiO2 
 PCOD9568920
Probable space group: P 42/M B C
;
_chemical_formula_sum "Si O2"
_cell_formula_units_Z 80
_cell_length_a 13.668603
_cell_length_b 13.668603
_cell_length_c 23.252193
_cell_angle_alpha 90.000000
_cell_angle_beta 90.000000
_cell_angle_gamma 90.000000
_cell_volume 4344.223680
_symmetry_space_group_name_H-M "P 42/M B C"
_symmetry_group_IT_number 135
_symmetry_cell_setting 'tetragonal'
loop_
_space_group_symop_operation_xyz
x,y,z
-y,x,1/2+z
-x,-y,z
y,-x,1/2+z
1/2+x,1/2-y,-z
1/2-x,1/2+y,-z
1/2+y,1/2+x,1/2-z
1/2-y,1/2-x,1/2-z
-x,-y,-z
y,-x,1/2-z
x,y,-z
-y,x,1/2-z
1/2-x,1/2+y,z
1/2+x,1/2-y,z
1/2-y,1/2-x,1/2+z
1/2+y,1/2+x,1/2+z
loop_
_atom_site_type_symbol
_atom_site_label
_atom_site_fract_x
_atom_site_fract_y
_atom_site_fract_z
Si Si1 0.245472 0.110247 0.644684
Si Si2 0.079769 0.584602 0.066069
Si Si3 0.621707 0.721284 0.617605
Si Si4 0.154449 0.052823 0.240351
Si Si5 0.116108 0.990261 0.435520
O O1 0.333452 0.052870 0.612930
O O2 0.277248 0.222162 0.633684
O O3 0.230494 0.086110 0.710952
O O4 0.153113 0.070341 0.609821
O O5 0.193999 0.563907 0.082178
O O6 0.000000 0.500000 0.070322
O O7 0.079201 0.619622 0.000000
O O8 0.566908 0.695827 0.676711
O O9 0.639142 0.620369 0.584433
O O10 0.057654 0.119751 0.247556
O O11 0.154322 0.007841 0.500000
O O12 0.000000 0.000000 0.436884
#
# Coordination Sequence:
#
# PCOD9568920 Si02
#       5
#    16  16  16  16  16
#     4  10  22  39  63  92 125 164 209 264 314 381
#     4   9  20  41  64  89 129 168 205 261 321 379
#     4  10  22  39  62  89 126 164 211 262 313 382
#     4  11  21  40  64  87 125 166 211 263 320 377
#     4  11  22  40  63  93 128 166 212 264 321 385
#
# _framework density 18.415257
#
# number of rings (size 3 to 8) (size 9 to 14) (size 15 to 20)
#    1.200    0.600    2.000    3.000    0.000    0.000 
#    7.200    2.000    0.000    0.000    0.000    0.000 
#    0.000    0.000    0.000    0.000    0.000    0.000 
#
# Total GULP energy -445406.021820 kJ/mol
# GULP energy per Si atom -5567.575273 kJ/mol
# Density = 1.837334 g / cm^3
# Si number density = 18.415257 Si / 1000 Ang^3
#
#
#
# Elastic Constant Matrix: (Units=GPa)
#
#
# Indices 1 2 3 4 5 6 
#
# 1 62.8825 24.7123 12.8968 0.0000 0.0000 0.0000
# 2 24.7123 62.8825 12.8968 0.0000 0.0000 0.0000
# 3 12.8968 12.8968 71.4816 0.0000 0.0000 0.0000
# 4 0.0000 0.0000 0.0000 55.5793 0.0000 0.0000
# 5 0.0000 0.0000 0.0000 0.0000 55.5793 0.0000
# 6 0.0000 0.0000 0.0000 0.0000 0.0000 29.0498
#
#
#
# Elastic Compliance Matrix: (Units=1/GPa)
#
#
# Indices 1 2 3 4 5 6 
#
# 1 0.019128 -0.007071 -0.002175 0.000000 0.000000 0.000000
# 2 -0.007071 0.019128 -0.002175 0.000000 0.000000 0.000000
# 3 -0.002175 -0.002175 0.014775 0.000000 0.000000 0.000000
# 4 0.000000 0.000000 0.000000 0.017992 0.000000 0.000000
# 5 0.000000 0.000000 0.000000 0.000000 0.017992 0.000000
# 6 0.000000 0.000000 0.000000 0.000000 0.000000 0.034424
#
#
# Mechanical properties :
#
#
# Convention : Reuss Voigt Hill
#
# Bulk Modulus (GPa) = 33.12698 33.13982 33.13340
# Shear Modulus (GPa) = 31.98093 37.82438 34.90266
#
# Velocity S-wave (km/s) = 4.17184 4.53699 4.35824
# Velocity P-wave (km/s) = 6.42134 6.74393 6.58461
#
# Compressibility (1/GPa) = 0.03018688
#
# Stress axis : x y z
#
# Youngs Moduli (GPa) = 52.28051 52.28051 67.68391
#
# Poissons Ratio (x) = 0.36967 0.14723
# Poissons Ratio (y) = 0.36967 0.14723
# Poissons Ratio (z) = 0.11373 0.11373
#
# Static dielectric constant tensor:
#      x y z
#    x 1.666490 0.000000 0.000000 
#    y 0.000000 1.666490 0.000000 
#    z 0.000000 0.000000 1.628800 
# 
# From -- ./inp_files/5981.got.cif
#   From: 2010.05.17/outbox.cif.g08.bks.cpg/sg135_3_cif.got.tgz:5981.got - 2010.05.20 12:50:20.
