data_PCOD9568439
_publ_section_title
;
Structure prediction by ZEFSAII (Michael W. Deem and Ramdas Pophale) SiO2 
 PCOD9568439
Probable space group: P 42/N N M
;
_chemical_formula_sum "Si O2"
_cell_formula_units_Z 112
_cell_length_a 14.176215
_cell_length_b 14.176215
_cell_length_c 26.149109
_cell_angle_alpha 90.000000
_cell_angle_beta 90.000000
_cell_angle_gamma 90.000000
_cell_volume 5255.057566
_symmetry_space_group_name_H-M "P 42/N N M"
_symmetry_group_IT_number 134
_space_group.IT_coordinate_system_code '2'
_symmetry_cell_setting 'tetragonal'
loop_
_space_group_symop_operation_xyz
x,y,z
1/2-y,x,1/2+z
1/2-x,1/2-y,z
y,1/2-x,1/2+z
x,1/2-y,1/2-z
1/2-x,y,1/2-z
y,x,-z
1/2-y,1/2-x,-z
-x,-y,-z
1/2+y,-x,1/2-z
1/2+x,1/2+y,-z
-y,1/2+x,1/2-z
-x,1/2+y,1/2+z
1/2+x,-y,1/2+z
-y,-x,z
1/2+y,1/2+x,z
loop_
_atom_site_type_symbol
_atom_site_label
_atom_site_fract_x
_atom_site_fract_y
_atom_site_fract_z
Si Si1 0.934963 0.804627 0.030563
Si Si2 0.540380 0.194674 0.049884
Si Si3 0.083492 0.069158 0.128529
Si Si4 0.167841 0.076183 0.711349
Si Si5 0.933224 0.220888 0.154509
Si Si6 0.167103 0.168845 0.399521
Si Si7 0.650594 0.501008 0.775989
O O1 0.948397 0.889212 0.070577
O O2 0.912099 0.717981 0.067821
O O3 0.842386 0.842386 0.000000
O O4 0.020173 0.772135 0.994250
O O5 0.601561 0.101561 0.034851
O O6 0.592222 0.237927 0.099291
O O7 0.432545 0.178325 0.069812
O O8 0.165194 0.049163 0.168576
O O9 0.031157 0.165552 0.141150
O O10 0.005996 0.994005 0.143642
O O11 0.250000 0.110993 0.750000
O O12 0.156505 0.136233 0.659313
O O13 0.072733 0.085386 0.743627
O O14 0.200148 0.970955 0.693532
O O15 0.852184 0.147817 0.171790
O O16 0.250000 0.250000 0.400472
O O17 0.750000 0.492001 0.750000
O O18 0.598627 0.401374 0.779362
#
# Coordination Sequence:
#
# PCOD9568439 Si02
#       7
#    16  16  16  16  16  16  16
#     4  12  21  38  64  91 120 169 221 274 329 400
#     4  11  25  41  61  93 131 170 216 273 336 402
#     4  10  21  40  64  96 124 160 225 286 322 382
#     4  11  23  37  67 102 137 171 221 282 341 397
#     4  10  21  42  67  93 136 180 219 272 336 414
#     4  11  23  38  60  93 130 172 218 263 326 405
#     4  11  25  44  68  99 135 178 230 284 338 404
#
# _framework density 21.312802999999999
#
# number of rings (size 3 to 8) (size 9 to 14) (size 15 to 20)
#    0.000    1.143    4.286    2.143    2.000    4.714 
#    0.000    2.143    0.000    0.857    0.000    0.000 
#    0.000    0.000    0.000    0.000    0.000    0.000 
#
# Total GULP energy -624175.034342 kJ/mol
# GULP energy per Si atom -5572.991378 kJ/mol
# Density = 2.126429 g / cm^3
# Si number density = 21.312803 Si / 1000 Ang^3
#
#
#
# Elastic Constant Matrix: (Units=GPa)
#
#
# Indices 1 2 3 4 5 6 
#
# 1 59.9823 47.0403 22.9438 0.0000 0.0000 0.0000
# 2 47.0403 59.9823 22.9438 0.0000 0.0000 0.0000
# 3 22.9438 22.9438 111.9185 0.0000 0.0000 0.0000
# 4 0.0000 0.0000 0.0000 14.2970 0.0000 0.0000
# 5 0.0000 0.0000 0.0000 0.0000 14.2970 0.0000
# 6 0.0000 0.0000 0.0000 0.0000 0.0000 37.3591
#
#
#
# Elastic Compliance Matrix: (Units=1/GPa)
#
#
# Indices 1 2 3 4 5 6 
#
# 1 0.043756 -0.033512 -0.002100 0.000000 0.000000 0.000000
# 2 -0.033512 0.043756 -0.002100 0.000000 0.000000 0.000000
# 3 -0.002100 -0.002100 0.009796 0.000000 0.000000 0.000000
# 4 0.000000 0.000000 0.000000 0.069945 0.000000 0.000000
# 5 0.000000 0.000000 0.000000 0.000000 0.069945 0.000000
# 6 0.000000 0.000000 0.000000 0.000000 0.000000 0.026767
#
#
# Mechanical properties :
#
#
# Convention : Reuss Voigt Hill
#
# Bulk Modulus (GPa) = 45.69503 46.41542 46.05522
# Shear Modulus (GPa) = 14.42234 22.45430 18.43832
#
# Velocity S-wave (km/s) = 2.60417 3.24938 2.94450
# Velocity P-wave (km/s) = 5.52530 5.99195 5.76335
#
# Compressibility (1/GPa) = 0.02188422
#
# Stress axis : x y z
#
# Youngs Moduli (GPa) = 22.85388 22.85388 102.08101
#
# Poissons Ratio (x) = 0.76588 0.21438
# Poissons Ratio (y) = 0.76588 0.21438
# Poissons Ratio (z) = 0.04800 0.04800
#
# Static dielectric constant tensor:
#      x y z
#    x 1.805130 0.000000 0.000000 
#    y 0.000000 1.805130 0.000000 
#    z 0.000000 0.000000 1.817260 
# 
# From -- ./inp_files/10148.got.cif
#   From: 2010.05.17/outbox.cif.g08.bks.cpg/sg134_6_cif.got.tgz:10148.got - 2010.05.20 12:42:49.
