data_PCOD9568525
_publ_section_title
;
Structure prediction by ZEFSAII (Michael W. Deem and Ramdas Pophale) SiO2 
 PCOD9568525
Probable space group: P 42/N N M
;
_chemical_formula_sum "Si O2"
_cell_formula_units_Z 80
_cell_length_a 11.512354
_cell_length_b 11.512354
_cell_length_c 28.180947
_cell_angle_alpha 90.000000
_cell_angle_beta 90.000000
_cell_angle_gamma 90.000000
_cell_volume 3734.941932
_symmetry_space_group_name_H-M "P 42/N N M"
_symmetry_group_IT_number 134
_space_group.IT_coordinate_system_code '2'
_symmetry_cell_setting 'tetragonal'
loop_
_space_group_symop_operation_xyz
x,y,z
1/2-y,x,1/2+z
1/2-x,1/2-y,z
y,1/2-x,1/2+z
x,1/2-y,1/2-z
1/2-x,y,1/2-z
y,x,-z
1/2-y,1/2-x,-z
-x,-y,-z
1/2+y,-x,1/2-z
1/2+x,1/2+y,-z
-y,1/2+x,1/2-z
-x,1/2+y,1/2+z
1/2+x,-y,1/2+z
-y,-x,z
1/2+y,1/2+x,z
loop_
_atom_site_type_symbol
_atom_site_label
_atom_site_fract_x
_atom_site_fract_y
_atom_site_fract_z
Si Si1 0.841500 0.341500 0.857627
Si Si2 0.821710 0.516261 0.202911
Si Si3 0.954447 0.754720 0.299696
Si Si4 0.032428 0.334212 0.540984
Si Si5 0.371139 0.437552 0.865853
Si Si6 0.342450 0.657551 0.469899
O O1 0.750000 0.250000 0.837344
O O2 0.807572 0.466341 0.840077
O O3 0.835091 0.335091 0.913310
O O4 0.750000 0.479550 0.250000
O O5 0.855203 0.651173 0.209330
O O6 0.751591 0.514694 0.153004
O O7 0.934929 0.434929 0.200489
O O8 0.020928 0.750000 0.250000
O O9 0.915196 0.631751 0.319374
O O10 0.111749 0.388251 0.500000
O O11 0.108206 0.349913 0.589580
O O12 0.920954 0.420954 0.547813
O O13 0.972355 0.212645 0.523741
O O14 0.453824 0.546177 0.875745
O O15 0.250000 0.750000 0.491908
#
# Coordination Sequence:
#
# PCOD9568525 Si02
#       6
#     8  16  16  16  16   8
#     4  11  22  34  58  93 128 156 191 256 319 376
#     4  12  26  43  60  84 120 172 217 254 305 377
#     4  12  24  38  59  89 123 162 206 251 312 377
#     4   9  18  35  59  89 123 160 205 264 327 386
#     4  11  23  40  63  91 124 159 208 267 316 371
#     4   9  16  32  56  87 123 158 196 248 330 394
#
# _framework density 21.419343000000001
#
# number of rings (size 3 to 8) (size 9 to 14) (size 15 to 20)
#    0.000    1.200    5.000    1.800    2.800    1.400 
#    1.800    0.000    0.000    2.400    0.000    2.800 
#    0.000    0.000    0.000    0.000    0.000    0.000 
#
# Total GULP energy -445663.870409 kJ/mol
# GULP energy per Si atom -5570.798380 kJ/mol
# Density = 2.137059 g / cm^3
# Si number density = 21.419343 Si / 1000 Ang^3
#
#
#
# Elastic Constant Matrix: (Units=GPa)
#
#
# Indices 1 2 3 4 5 6 
#
# 1 64.2179 19.1164 9.6095 0.0000 0.0000 0.0000
# 2 19.1164 64.2173 9.6089 0.0000 0.0000 0.0000
# 3 9.6095 9.6089 69.0623 0.0000 0.0000 0.0000
# 4 0.0000 0.0000 0.0000 -25.0962 0.0000 0.0000
# 5 0.0000 0.0000 0.0000 0.0000 -25.0907 0.0000
# 6 0.0000 0.0000 0.0000 0.0000 0.0000 39.3269
#
#
#
# Elastic Compliance Matrix: (Units=1/GPa)
#
#
# Indices 1 2 3 4 5 6 
#
# 1 0.017285 -0.004887 -0.001725 0.000000 0.000000 0.000000
# 2 -0.004887 0.017285 -0.001725 0.000000 0.000000 0.000000
# 3 -0.001725 -0.001725 0.014960 0.000000 0.000000 0.000000
# 4 0.000000 0.000000 0.000000 -0.039847 0.000000 0.000000
# 5 0.000000 0.000000 0.000000 0.000000 -0.039855 0.000000
# 6 0.000000 0.000000 0.000000 0.000000 0.000000 0.025428
#
#
# Mechanical properties :
#
#
# Convention : Reuss Voigt Hill
#
# Bulk Modulus (GPa) = 30.43661 30.46300 30.44980
# Shear Modulus (GPa) = 218.51339 8.43885 113.47612
#
# Velocity S-wave (km/s) = 10.11130 1.98705 7.28652
# Velocity P-wave (km/s) = 12.27023 4.41787 9.22161
#
# Compressibility (1/GPa) = 0.03285517
#
# Stress axis : x y z
#
# Youngs Moduli (GPa) = 57.85377 57.85334 66.84621
#
# Poissons Ratio (x) = 0.28275 0.11531
# Poissons Ratio (y) = 0.28275 0.11530
# Poissons Ratio (z) = 0.09980 0.09979
#
# Static dielectric constant tensor:
#      x y z
#    x 1.836540 0.000000 0.000000 
#    y 0.000000 1.836540 0.000000 
#    z 0.000000 0.000000 1.799860 
# 
# From -- ./inp_files/11364.got.cif
#   From: 2010.05.17/outbox.cif.g08.bks.cpg/sg134_6_cif.got.tgz:11364.got - 2010.05.20 12:42:49.
