data_PCOD9568916
_publ_section_title
;
Structure prediction by ZEFSAII (Michael W. Deem and Ramdas Pophale) SiO2 
 PCOD9568916
Probable space group: P 42/M B C
;
_chemical_formula_sum "Si O2"
_cell_formula_units_Z 112
_cell_length_a 14.427630
_cell_length_b 14.427630
_cell_length_c 25.221151
_cell_angle_alpha 90.000000
_cell_angle_beta 90.000000
_cell_angle_gamma 90.000000
_cell_volume 5249.946705
_symmetry_space_group_name_H-M "P 42/M B C"
_symmetry_group_IT_number 135
_symmetry_cell_setting 'tetragonal'
loop_
_space_group_symop_operation_xyz
x,y,z
-y,x,1/2+z
-x,-y,z
y,-x,1/2+z
1/2+x,1/2-y,-z
1/2-x,1/2+y,-z
1/2+y,1/2+x,1/2-z
1/2-y,1/2-x,1/2-z
-x,-y,-z
y,-x,1/2-z
x,y,-z
-y,x,1/2-z
1/2-x,1/2+y,z
1/2+x,1/2-y,z
1/2-y,1/2-x,1/2+z
1/2+y,1/2+x,1/2+z
loop_
_atom_site_type_symbol
_atom_site_label
_atom_site_fract_x
_atom_site_fract_y
_atom_site_fract_z
Si Si1 0.953831 0.810610 0.384337
Si Si2 0.850081 0.010527 0.237244
Si Si3 0.344429 0.819673 0.440140
Si Si4 0.352907 0.365793 0.436288
Si Si5 0.998146 0.640740 0.776131
Si Si6 0.927530 0.210977 0.063480
Si Si7 0.609051 0.991001 0.401737
O O1 0.959599 0.831551 0.322949
O O2 0.924057 0.706861 0.398697
O O3 0.866217 0.860253 0.411971
O O4 0.051378 0.835461 0.410412
O O5 0.916004 0.089635 0.262303
O O6 0.750394 0.998803 0.264799
O O7 0.361716 0.785546 0.500000
O O8 0.237704 0.803850 0.423543
O O9 0.349997 0.930055 0.439907
O O10 0.362400 0.363900 0.500000
O O11 0.329410 0.471253 0.419936
O O12 0.085411 0.585411 0.750000
O O13 0.908056 0.591945 0.750000
O O14 0.995246 0.623045 0.838915
O O15 0.910996 0.316245 0.083760
O O16 0.921452 0.209697 0.000000
O O17 0.500000 0.000000 0.411951
#
# Coordination Sequence:
#
# PCOD9568916 Si02
#       7
#    16  16  16  16  16  16  16
#     4  12  23  40  68  92 132 181 223 281 352 407
#     4  11  28  46  67 102 140 180 238 303 359 416
#     4  10  23  40  61  99 137 168 220 275 339 419
#     4   9  20  38  62  90 128 172 219 272 331 411
#     4  11  23  46  72 100 137 180 244 297 345 426
#     4  10  22  38  63  97 129 170 223 268 337 426
#     4  11  22  40  69  93 131 179 220 280 343 407
#
# _framework density 21.333549000000001
#
# number of rings (size 3 to 8) (size 9 to 14) (size 15 to 20)
#    0.000    1.429    1.429    4.714    8.000    4.000 
#    2.571    0.000    0.000    0.000    0.000    0.000 
#    0.000    0.000    0.000    0.000    0.000    0.000 
#
# Total GULP energy -624783.077432 kJ/mol
# GULP energy per Si atom -5578.420334 kJ/mol
# Density = 2.128499 g / cm^3
# Si number density = 21.333549 Si / 1000 Ang^3
#
#
#
# Elastic Constant Matrix: (Units=GPa)
#
#
# Indices 1 2 3 4 5 6 
#
# 1 116.4728 21.5146 11.2453 0.0000 0.0000 0.0000
# 2 21.5146 116.4724 11.2453 0.0000 0.0000 0.0000
# 3 11.2453 11.2453 60.2401 0.0000 0.0000 0.0000
# 4 0.0000 0.0000 0.0000 43.4969 0.0000 0.0000
# 5 0.0000 0.0000 0.0000 0.0000 43.4960 0.0000
# 6 0.0000 0.0000 0.0000 0.0000 0.0000 25.3021
#
#
#
# Elastic Compliance Matrix: (Units=1/GPa)
#
#
# Indices 1 2 3 4 5 6 
#
# 1 0.009003 -0.001528 -0.001395 0.000000 0.000000 0.000000
# 2 -0.001528 0.009003 -0.001395 0.000000 0.000000 0.000000
# 3 -0.001395 -0.001395 0.017121 0.000000 0.000000 0.000000
# 4 0.000000 0.000000 0.000000 0.022990 0.000000 0.000000
# 5 0.000000 0.000000 0.000000 0.000000 0.022991 0.000000
# 6 0.000000 0.000000 0.000000 0.000000 0.000000 0.039522
#
#
# Mechanical properties :
#
#
# Convention : Reuss Voigt Hill
#
# Bulk Modulus (GPa) = 37.75158 42.35505 40.05332
# Shear Modulus (GPa) = 36.20643 39.07104 37.63873
#
# Velocity S-wave (km/s) = 4.12413 4.28417 4.20491
# Velocity P-wave (km/s) = 6.35706 6.66101 6.51081
#
# Compressibility (1/GPa) = 0.02648895
#
# Stress axis : x y z
#
# Youngs Moduli (GPa) = 111.07775 111.07740 58.40721
#
# Poissons Ratio (x) = 0.16975 0.08149
# Poissons Ratio (y) = 0.16975 0.08150
# Poissons Ratio (z) = 0.15499 0.15499
#
# Static dielectric constant tensor:
#      x y z
#    x 1.860100 0.000000 0.000000 
#    y 0.000000 1.860100 0.000000 
#    z 0.000000 0.000000 14.549710 
# 
# From -- ./inp_files/6134.got.cif
#   From: 2010.05.17/outbox.cif.g08.bks.cpg/sg135_4_cif.got.tgz:6134.got - 2010.05.20 12:50:20.
