data_PCOD9568714
_publ_section_title
;
Structure prediction by ZEFSAII (Michael W. Deem and Ramdas Pophale) SiO2 
 PCOD9568714
Probable space group: P 42/M B C
;
_chemical_formula_sum "Si O2"
_cell_formula_units_Z 112
_cell_length_a 15.739551
_cell_length_b 15.739551
_cell_length_c 24.480990
_cell_angle_alpha 90.000000
_cell_angle_beta 90.000000
_cell_angle_gamma 90.000000
_cell_volume 6064.760496
_symmetry_space_group_name_H-M "P 42/M B C"
_symmetry_group_IT_number 135
_symmetry_cell_setting 'tetragonal'
loop_
_space_group_symop_operation_xyz
x,y,z
-y,x,1/2+z
-x,-y,z
y,-x,1/2+z
1/2+x,1/2-y,-z
1/2-x,1/2+y,-z
1/2+y,1/2+x,1/2-z
1/2-y,1/2-x,1/2-z
-x,-y,-z
y,-x,1/2-z
x,y,-z
-y,x,1/2-z
1/2-x,1/2+y,z
1/2+x,1/2-y,z
1/2-y,1/2-x,1/2+z
1/2+y,1/2+x,1/2+z
loop_
_atom_site_type_symbol
_atom_site_label
_atom_site_fract_x
_atom_site_fract_y
_atom_site_fract_z
Si Si1 0.960913 0.632505 0.936061
Si Si2 0.254741 0.614304 0.260397
Si Si3 0.188298 0.437795 0.739819
Si Si4 0.633781 0.952592 0.064863
Si Si5 0.750002 0.153939 0.366708
Si Si6 0.062152 0.799771 0.637992
Si Si7 0.701474 0.622593 0.841240
O O1 0.907489 0.545713 0.927584
O O2 0.917457 0.705110 0.902194
O O3 0.058307 0.612911 0.922439
O O4 0.957072 0.651421 0.000000
O O5 0.197035 0.697035 0.250000
O O6 0.197214 0.534535 0.277534
O O7 0.292869 0.584661 0.202450
O O8 0.325119 0.633277 0.305944
O O9 0.092991 0.407010 0.750000
O O10 0.234723 0.377768 0.695523
O O11 0.234100 0.417981 0.796934
O O12 0.710457 0.940936 0.106139
O O13 0.656244 0.944915 0.000000
O O14 0.849116 0.158986 0.382046
O O15 0.693984 0.241439 0.372665
O O16 0.964492 0.833396 0.630836
#
# Coordination Sequence:
#
# PCOD9568714 Si02
#       7
#    16  16  16  16  16  16  16
#     4   9  19  35  57  83 117 150 186 253 323 369
#     4  11  20  34  54  78 118 154 192 239 301 359
#     4   9  20  34  50  76 110 149 191 245 290 349
#     4   9  19  37  57  85 116 147 194 252 314 378
#     4  11  19  34  56  78 114 150 196 245 299 357
#     4  11  21  33  59  83 106 161 197 236 296 359
#     4  10  19  37  50  77 114 152 192 239 291 358
#
# _framework density 18.467341999999999
#
# number of rings (size 3 to 8) (size 9 to 14) (size 15 to 20)
#    0.000    2.000    4.286    1.286    2.000    0.857 
#    0.000    0.714    0.000    0.000    0.000    0.000 
#    0.000    4.571    0.000    0.000    0.000    0.000 
#
# Total GULP energy -623539.610363 kJ/mol
# GULP energy per Si atom -5567.317950 kJ/mol
# Density = 1.842531 g / cm^3
# Si number density = 18.467342 Si / 1000 Ang^3
#
#
#
# Elastic Constant Matrix: (Units=GPa)
#
#
# Indices 1 2 3 4 5 6 
#
# 1 88.1105 47.6004 26.7502 0.0000 0.0000 0.0000
# 2 47.6004 88.1100 26.7502 0.0000 0.0000 0.0000
# 3 26.7502 26.7502 25.7784 0.0000 0.0000 0.0000
# 4 0.0000 0.0000 0.0000 8.2380 0.0000 0.0000
# 5 0.0000 0.0000 0.0000 0.0000 8.2398 0.0000
# 6 0.0000 0.0000 0.0000 0.0000 0.0000 24.0059
#
#
#
# Elastic Compliance Matrix: (Units=1/GPa)
#
#
# Indices 1 2 3 4 5 6 
#
# 1 0.018578 -0.006108 -0.012940 0.000000 0.000000 0.000000
# 2 -0.006108 0.018578 -0.012940 0.000000 0.000000 0.000000
# 3 -0.012940 -0.012940 0.065648 0.000000 0.000000 0.000000
# 4 0.000000 0.000000 0.000000 0.121388 0.000000 0.000000
# 5 0.000000 0.000000 0.000000 0.000000 0.121362 0.000000
# 6 0.000000 0.000000 0.000000 0.000000 0.000000 0.041656
#
#
# Mechanical properties :
#
#
# Convention : Reuss Voigt Hill
#
# Bulk Modulus (GPa) = 25.75488 44.91118 35.33303
# Shear Modulus (GPa) = 10.77290 14.82329 12.79809
#
# Velocity S-wave (km/s) = 2.41788 2.83623 2.63537
# Velocity P-wave (km/s) = 4.66597 5.92432 5.33240
#
# Compressibility (1/GPa) = 0.03882760
#
# Stress axis : x y z
#
# Youngs Moduli (GPa) = 53.82845 53.82806 15.23283
#
# Poissons Ratio (x) = 0.32877 0.19711
# Poissons Ratio (y) = 0.32877 0.19711
# Poissons Ratio (z) = 0.69653 0.69654
#
# Static dielectric constant tensor:
#      x y z
#    x 1.680190 0.000000 0.000000 
#    y 0.000000 1.680190 0.000000 
#    z 0.000000 0.000000 1.659870 
# 
# From -- ./inp_files/6490.got.cif
#   From: 2010.05.17/outbox.cif.g08.bks.cpg/sg135_4_cif.got.tgz:6490.got - 2010.05.20 12:50:20.
