data_PCOD9568962
_publ_section_title
;
Structure prediction by ZEFSAII (Michael W. Deem and Ramdas Pophale) SiO2 
 PCOD9568962
Probable space group: P 42/M B C
;
_chemical_formula_sum "Si O2"
_cell_formula_units_Z 72
_cell_length_a 11.512448
_cell_length_b 11.512448
_cell_length_c 27.303724
_cell_angle_alpha 90.000000
_cell_angle_beta 90.000000
_cell_angle_gamma 90.000000
_cell_volume 3618.738895
_symmetry_space_group_name_H-M "P 42/M B C"
_symmetry_group_IT_number 135
_symmetry_cell_setting 'tetragonal'
loop_
_space_group_symop_operation_xyz
x,y,z
-y,x,1/2+z
-x,-y,z
y,-x,1/2+z
1/2+x,1/2-y,-z
1/2-x,1/2+y,-z
1/2+y,1/2+x,1/2-z
1/2-y,1/2-x,1/2-z
-x,-y,-z
y,-x,1/2-z
x,y,-z
-y,x,1/2-z
1/2-x,1/2+y,z
1/2+x,1/2-y,z
1/2-y,1/2-x,1/2+z
1/2+y,1/2+x,1/2+z
loop_
_atom_site_type_symbol
_atom_site_label
_atom_site_fract_x
_atom_site_fract_y
_atom_site_fract_z
Si Si1 0.081212 0.111045 0.944526
Si Si2 0.991071 0.328612 0.556746
Si Si3 0.685222 0.956206 0.712859
Si Si4 0.780492 0.719509 0.250000
Si Si5 0.015553 0.337928 0.896537
O O1 0.207869 0.067393 0.930443
O O2 0.032600 0.204281 0.907418
O O3 0.086961 0.161040 0.000000
O O4 0.000000 0.000000 0.946086
O O5 0.028598 0.323902 0.500000
O O6 0.894554 0.427251 0.564779
O O7 0.096081 0.364231 0.592111
O O8 0.585242 0.914759 0.750000
O O9 0.769465 0.840861 0.718116
O O10 0.725431 0.088586 0.726511
O O11 0.642688 0.966622 0.657255
#
# Coordination Sequence:
#
# PCOD9568962 Si02
#       5
#    16  16  16   8  16
#     4  10  23  40  62  98 139 176 223 285 342 408
#     4  10  23  40  66  97 134 178 223 274 339 411
#     4  10  26  46  72  99 136 180 231 299 358 428
#     4  10  25  47  72 100 142 178 226 299 369 410
#     4  11  23  42  68  96 128 179 230 275 343 420
#
# _framework density 19.896435
#
# number of rings (size 3 to 8) (size 9 to 14) (size 15 to 20)
#    0.667    1.111    0.000    3.000   12.444    0.444 
#    4.000    0.000    0.000    0.000    0.000    0.000 
#    0.000    0.000    0.000    0.000    0.000    0.000 
#
# Total GULP energy -400972.374152 kJ/mol
# GULP energy per Si atom -5569.060752 kJ/mol
# Density = 1.985115 g / cm^3
# Si number density = 19.896435 Si / 1000 Ang^3
#
#
#
# Elastic Constant Matrix: (Units=GPa)
#
#
# Indices 1 2 3 4 5 6 
#
# 1 88.8886 33.1445 21.2555 0.0000 0.0000 0.0000
# 2 33.1445 88.8896 21.2556 0.0000 0.0000 0.0000
# 3 21.2555 21.2556 58.7025 0.0000 0.0000 0.0000
# 4 0.0000 0.0000 0.0000 -17.8833 0.0000 0.0000
# 5 0.0000 0.0000 0.0000 0.0000 -17.8887 0.0000
# 6 0.0000 0.0000 0.0000 0.0000 0.0000 20.7297
#
#
#
# Elastic Compliance Matrix: (Units=1/GPa)
#
#
# Indices 1 2 3 4 5 6 
#
# 1 0.013658 -0.004281 -0.003395 0.000000 0.000000 0.000000
# 2 -0.004281 0.013658 -0.003395 0.000000 0.000000 0.000000
# 3 -0.003395 -0.003395 0.019494 0.000000 0.000000 0.000000
# 4 0.000000 0.000000 0.000000 -0.055918 0.000000 0.000000
# 5 0.000000 0.000000 0.000000 0.000000 -0.055901 0.000000
# 6 0.000000 0.000000 0.000000 0.000000 0.000000 0.048240
#
#
# Mechanical properties :
#
#
# Convention : Reuss Voigt Hill
#
# Bulk Modulus (GPa) = 40.54025 43.08798 41.81412
# Shear Modulus (GPa) = 367.73189 7.71318 187.72253
#
# Velocity S-wave (km/s) = 13.60971 1.97106 9.72392
# Velocity P-wave (km/s) = 16.35193 5.18491 12.12990
#
# Compressibility (1/GPa) = 0.02466684
#
# Stress axis : x y z
#
# Youngs Moduli (GPa) = 73.21608 73.21697 51.29797
#
# Poissons Ratio (x) = 0.31343 0.17418
# Poissons Ratio (y) = 0.31343 0.17418
# Poissons Ratio (z) = 0.24860 0.24860
#
# Static dielectric constant tensor:
#      x y z
#    x 1.748840 0.000000 0.000000 
#    y 0.000000 1.748840 0.000000 
#    z 0.000000 0.000000 1.699260 
# 
# From -- ./inp_files/6391.got.cif
#   From: 2010.05.17/outbox.cif.g08.bks.cpg/sg135_4_cif.got.tgz:6391.got - 2010.05.20 12:50:20.
