data_PCOD9568220
_publ_section_title
;
Structure prediction by ZEFSAII (Michael W. Deem and Ramdas Pophale) SiO2 
 PCOD9568220
Probable space group: P 42/N N M
;
_chemical_formula_sum "Si O2"
_cell_formula_units_Z 96
_cell_length_a 24.803177
_cell_length_b 24.803177
_cell_length_c 7.791878
_cell_angle_alpha 90.000000
_cell_angle_beta 90.000000
_cell_angle_gamma 90.000000
_cell_volume 4793.544562
_symmetry_space_group_name_H-M "P 42/N N M"
_symmetry_group_IT_number 134
_space_group.IT_coordinate_system_code '2'
_symmetry_cell_setting 'tetragonal'
loop_
_space_group_symop_operation_xyz
x,y,z
1/2-y,x,1/2+z
1/2-x,1/2-y,z
y,1/2-x,1/2+z
x,1/2-y,1/2-z
1/2-x,y,1/2-z
y,x,-z
1/2-y,1/2-x,-z
-x,-y,-z
1/2+y,-x,1/2-z
1/2+x,1/2+y,-z
-y,1/2+x,1/2-z
-x,1/2+y,1/2+z
1/2+x,-y,1/2+z
-y,-x,z
1/2+y,1/2+x,z
loop_
_atom_site_type_symbol
_atom_site_label
_atom_site_fract_x
_atom_site_fract_y
_atom_site_fract_z
Si Si1 0.375412 0.962609 0.260198
Si Si2 0.654596 0.692938 0.684338
Si Si3 0.425924 0.333098 0.815666
Si Si4 0.566573 0.195687 0.070755
Si Si5 0.896521 0.309675 0.457778
Si Si6 0.949414 0.735199 0.974873
O O1 0.432200 0.932200 0.275390
O O2 0.335644 0.937978 0.405533
O O3 0.377969 0.027207 0.294827
O O4 0.348850 0.944275 0.076810
O O5 0.677827 0.750000 0.750000
O O6 0.680941 0.680941 0.500000
O O7 0.657463 0.637986 0.793794
O O8 0.592520 0.705600 0.646167
O O9 0.435496 0.296786 0.982817
O O10 0.441555 0.296022 0.653729
O O11 0.584478 0.178248 0.261160
O O12 0.605670 0.245131 0.017392
O O13 0.509401 0.225777 0.083190
O O14 0.840291 0.340291 0.484375
#
# Coordination Sequence:
#
# PCOD9568220 Si02
#       6
#    16  16  16  16  16  16
#     4  10  19  34  60  88 119 156 194 248 311 355
#     4  10  22  38  58  84 115 154 195 245 304 370
#     4   9  18  36  55  83 118 147 197 253 288 360
#     4  10  19  34  57  82 118 158 205 253 287 357
#     4  10  20  31  52  89 119 152 204 253 294 345
#     4   9  18  34  57  81 110 155 200 241 296 348
#
# _framework density 20.026934000000001
#
# number of rings (size 3 to 8) (size 9 to 14) (size 15 to 20)
#    0.000    2.333    1.667    1.000    2.333    0.667 
#    0.000   12.500    0.000   22.000    0.000   15.167 
#    0.000    0.000    0.000    0.000    0.000    0.000 
#
# Total GULP energy -534778.916921 kJ/mol
# GULP energy per Si atom -5570.613718 kJ/mol
# Density = 1.998135 g / cm^3
# Si number density = 20.026934 Si / 1000 Ang^3
#
#
#
# Elastic Constant Matrix: (Units=GPa)
#
#
# Indices 1 2 3 4 5 6 
#
# 1 84.9195 47.2625 14.9228 0.0000 0.0000 0.0000
# 2 47.2625 84.9195 14.9228 0.0000 0.0000 0.0000
# 3 14.9228 14.9228 82.7626 0.0000 0.0000 0.0000
# 4 0.0000 0.0000 0.0000 -3.0832 0.0000 0.0000
# 5 0.0000 0.0000 0.0000 0.0000 -3.0832 0.0000
# 6 0.0000 0.0000 0.0000 0.0000 0.0000 25.8440
#
#
#
# Elastic Compliance Matrix: (Units=1/GPa)
#
#
# Indices 1 2 3 4 5 6 
#
# 1 0.017221 -0.009335 -0.001422 0.000000 0.000000 0.000000
# 2 -0.009335 0.017221 -0.001422 0.000000 0.000000 0.000000
# 3 -0.001422 -0.001422 0.012596 0.000000 0.000000 0.000000
# 4 0.000000 0.000000 0.000000 -0.324342 0.000000 0.000000
# 5 0.000000 0.000000 0.000000 0.000000 -0.324342 0.000000
# 6 0.000000 0.000000 0.000000 0.000000 0.000000 0.038694
#
#
# Mechanical properties :
#
#
# Convention : Reuss Voigt Hill
#
# Bulk Modulus (GPa) = 44.09094 45.20200 44.64647
# Shear Modulus (GPa) = -9.41557 15.63508 3.10976
#
# Velocity S-wave (km/s) = -2.17064 2.79714 1.24746
# Velocity P-wave (km/s) = 3.97258 5.74905 4.94130
#
# Compressibility (1/GPa) = 0.02268039
#
# Stress axis : x y z
#
# Youngs Moduli (GPa) = 58.06879 58.06879 79.39311
#
# Poissons Ratio (x) = 0.54205 0.11290
# Poissons Ratio (y) = 0.54205 0.11290
# Poissons Ratio (z) = 0.08257 0.08257
#
# Static dielectric constant tensor:
#      x y z
#    x 1.734680 0.000000 0.000000 
#    y 0.000000 1.734680 0.000000 
#    z 0.000000 0.000000 1.692530 
# 
# From -- ./inp_files/3223.got.cif
#   From: 2010.05.17/outbox.cif.g08.bks.cpg/sg134_2_cif.got.tgz:3223.got - 2010.05.20 12:42:49.
