data_PCOD9568266
_publ_section_title
;
Structure prediction by ZEFSAII (Michael W. Deem and Ramdas Pophale) SiO2 
 PCOD9568266
Probable space group: P 42/N N M
;
_chemical_formula_sum "Si O2"
_cell_formula_units_Z 48
_cell_length_a 14.139007
_cell_length_b 14.139007
_cell_length_c 12.145349
_cell_angle_alpha 90.000000
_cell_angle_beta 90.000000
_cell_angle_gamma 90.000000
_cell_volume 2427.995167
_symmetry_space_group_name_H-M "P 42/N N M"
_symmetry_group_IT_number 134
_space_group.IT_coordinate_system_code '2'
_symmetry_cell_setting 'tetragonal'
loop_
_space_group_symop_operation_xyz
x,y,z
1/2-y,x,1/2+z
1/2-x,1/2-y,z
y,1/2-x,1/2+z
x,1/2-y,1/2-z
1/2-x,y,1/2-z
y,x,-z
1/2-y,1/2-x,-z
-x,-y,-z
1/2+y,-x,1/2-z
1/2+x,1/2+y,-z
-y,1/2+x,1/2-z
-x,1/2+y,1/2+z
1/2+x,-y,1/2+z
-y,-x,z
1/2+y,1/2+x,z
loop_
_atom_site_type_symbol
_atom_site_label
_atom_site_fract_x
_atom_site_fract_y
_atom_site_fract_z
Si Si1 0.616382 0.883619 0.000000
Si Si2 0.943218 0.443218 0.851101
Si Si3 0.979641 0.735455 0.627749
Si Si4 0.669434 0.330567 0.469123
Si Si5 0.484679 0.984679 0.626909
O O1 0.592558 0.778764 0.960644
O O2 0.585846 0.954733 0.901289
O O3 0.956788 0.456788 0.719851
O O4 0.870661 0.370661 0.913001
O O5 0.942594 0.750000 0.750000
O O6 0.079257 0.788196 0.597412
O O7 0.996872 0.625569 0.634260
O O8 0.750000 0.250000 0.481274
O O9 0.500000 0.000000 0.500000
#
# Coordination Sequence:
#
# PCOD9568266 Si02
#       5
#     8   8  16   8   8
#     4   9  18  34  61  90 122 170 208 248 314 385
#     4   9  18  36  57  88 130 169 200 245 326 378
#     4  11  20  36  63  94 128 163 215 263 314 370
#     4  10  20  32  60  99 131 164 208 260 319 383
#     4  12  24  39  61  94 128 166 210 271 314 370
#
# _framework density 19.769396
#
# number of rings (size 3 to 8) (size 9 to 14) (size 15 to 20)
#    0.000    1.667    5.000    2.000    0.000    0.000 
#    0.000    7.500    3.667    2.000    0.000    0.000 
#    0.000    0.000    0.000    0.000    0.000    0.000 
#
# Total GULP energy -267251.986687 kJ/mol
# GULP energy per Si atom -5567.749723 kJ/mol
# Density = 1.972440 g / cm^3
# Si number density = 19.769396 Si / 1000 Ang^3
#
#
#
# Elastic Constant Matrix: (Units=GPa)
#
#
# Indices 1 2 3 4 5 6 
#
# 1 178.4357 -132.8644 3.6647 0.0000 0.0000 0.0000
# 2 -132.8644 178.4367 3.6667 0.0000 0.0000 0.0000
# 3 3.6647 3.6667 107.1826 0.0000 0.0000 0.0000
# 4 0.0000 0.0000 0.0000 25.6386 0.0000 0.0000
# 5 0.0000 0.0000 0.0000 0.0000 25.6381 0.0000
# 6 0.0000 0.0000 0.0000 0.0000 0.0000 30.3508
#
#
#
# Elastic Compliance Matrix: (Units=1/GPa)
#
#
# Indices 1 2 3 4 5 6 
#
# 1 0.012639 0.009426 -0.000755 0.000000 0.000000 0.000000
# 2 0.009426 0.012639 -0.000755 0.000000 0.000000 0.000000
# 3 -0.000755 -0.000755 0.009381 0.000000 0.000000 0.000000
# 4 0.000000 0.000000 0.000000 0.039004 0.000000 0.000000
# 5 0.000000 0.000000 0.000000 0.000000 0.039004 0.000000
# 6 0.000000 0.000000 0.000000 0.000000 0.000000 0.032948
#
#
# Mechanical properties :
#
#
# Convention : Reuss Voigt Hill
#
# Bulk Modulus (GPa) = 19.80491 23.66546 21.73519
# Shear Modulus (GPa) = 34.10371 55.63138 44.86754
#
# Velocity S-wave (km/s) = 4.15791 5.31048 4.76914
# Velocity P-wave (km/s) = 5.75245 7.04261 6.42997
#
# Compressibility (1/GPa) = 0.05049252
#
# Stress axis : x y z
#
# Youngs Moduli (GPa) = 79.12284 79.12321 106.59290
#
# Poissons Ratio (x) = -0.74583 0.08043
# Poissons Ratio (y) = -0.74583 0.08044
# Poissons Ratio (z) = 0.05971 0.05971
#
# Static dielectric constant tensor:
#      x y z
#    x 1.672310 0.000000 0.000000 
#    y 0.000000 1.672310 0.000000 
#    z 0.000000 0.000000 1.619720 
# 
# From -- ./inp_files/4255.got.cif
#   From: 2010.05.17/outbox.cif.g08.bks.cpg/sg134_3_cif.got.tgz:4255.got - 2010.05.20 12:42:49.
