data_PCOD9568209
_publ_section_title
;
Structure prediction by ZEFSAII (Michael W. Deem and Ramdas Pophale) SiO2 
 PCOD9568209
Probable space group: P 42/N N M
;
_chemical_formula_sum "Si O2"
_cell_formula_units_Z 112
_cell_length_a 14.062477
_cell_length_b 14.062477
_cell_length_c 31.307565
_cell_angle_alpha 90.000000
_cell_angle_beta 90.000000
_cell_angle_gamma 90.000000
_cell_volume 6191.173022
_symmetry_space_group_name_H-M "P 42/N N M"
_symmetry_group_IT_number 134
_space_group.IT_coordinate_system_code '2'
_symmetry_cell_setting 'tetragonal'
loop_
_space_group_symop_operation_xyz
x,y,z
1/2-y,x,1/2+z
1/2-x,1/2-y,z
y,1/2-x,1/2+z
x,1/2-y,1/2-z
1/2-x,y,1/2-z
y,x,-z
1/2-y,1/2-x,-z
-x,-y,-z
1/2+y,-x,1/2-z
1/2+x,1/2+y,-z
-y,1/2+x,1/2-z
-x,1/2+y,1/2+z
1/2+x,-y,1/2+z
-y,-x,z
1/2+y,1/2+x,z
loop_
_atom_site_type_symbol
_atom_site_label
_atom_site_fract_x
_atom_site_fract_y
_atom_site_fract_z
Si Si1 0.091762 0.744971 0.487198
Si Si2 0.328632 0.989757 0.932154
Si Si3 0.110251 0.146242 0.272314
Si Si4 0.550868 0.293217 0.334238
Si Si5 0.900432 0.543885 0.315758
Si Si6 0.358338 0.479758 0.416640
Si Si7 0.252903 0.139419 0.346870
O O1 0.176618 0.823383 0.489892
O O2 0.144460 0.644460 0.481420
O O3 0.031849 0.752869 0.531071
O O4 0.026775 0.782908 0.448702
O O5 0.405751 0.905751 0.935671
O O6 0.291594 0.980878 0.883735
O O7 0.391232 0.084540 0.937569
O O8 0.117729 0.250000 0.250000
O O9 0.080224 0.082561 0.232541
O O10 0.204396 0.131077 0.299995
O O11 0.025243 0.146899 0.306842
O O12 0.652917 0.347084 0.330965
O O13 0.531307 0.187410 0.316492
O O14 0.879221 0.636059 0.343032
O O15 0.991058 0.491058 0.333008
O O16 0.439125 0.560876 0.406212
O O17 0.303664 0.433094 0.376882
O O18 0.250000 0.250000 0.360621
#
# Coordination Sequence:
#
# PCOD9568209 Si02
#       7
#    16  16  16  16  16  16  16
#     4   9  18  32  52  81 116 150 182 225 286 346
#     4   9  16  30  53  84 111 139 184 238 283 331
#     4  10  19  35  57  81 107 146 190 237 281 335
#     4  10  19  33  57  86 117 148 188 234 284 337
#     4  11  24  36  53  83 119 156 192 231 284 349
#     4  10  20  34  57  86 112 140 185 242 289 331
#     4  12  21  38  61  83 111 148 193 238 286 338
#
# _framework density 18.090271999999999
#
# number of rings (size 3 to 8) (size 9 to 14) (size 15 to 20)
#    0.000    1.857    4.286    1.286    0.000    3.714 
#    0.000    1.429    0.000    8.571    0.000    5.000 
#    0.000    0.000    0.000    0.000    0.000    0.000 
#
# Total GULP energy -623847.619821 kJ/mol
# GULP energy per Si atom -5570.068034 kJ/mol
# Density = 1.804910 g / cm^3
# Si number density = 18.090272 Si / 1000 Ang^3
#
#
#
# Elastic Constant Matrix: (Units=GPa)
#
#
# Indices 1 2 3 4 5 6 
#
# 1 71.9514 51.1209 43.2598 0.0000 0.0000 0.0000
# 2 51.1209 71.9514 43.2598 0.0000 0.0000 0.0000
# 3 43.2598 43.2598 97.2271 0.0000 0.0000 0.0000
# 4 0.0000 0.0000 0.0000 283.2243 0.0000 0.0000
# 5 0.0000 0.0000 0.0000 0.0000 283.2243 0.0000
# 6 0.0000 0.0000 0.0000 0.0000 0.0000 30.0976
#
#
#
# Elastic Compliance Matrix: (Units=1/GPa)
#
#
# Indices 1 2 3 4 5 6 
#
# 1 0.029915 -0.018091 -0.005261 0.000000 0.000000 0.000000
# 2 -0.018091 0.029915 -0.005261 0.000000 0.000000 0.000000
# 3 -0.005261 -0.005261 0.014967 0.000000 0.000000 0.000000
# 4 0.000000 0.000000 0.000000 0.003531 0.000000 0.000000
# 5 0.000000 0.000000 0.000000 0.000000 0.003531 0.000000
# 6 0.000000 0.000000 0.000000 0.000000 0.000000 0.033225
#
#
# Mechanical properties :
#
#
# Convention : Reuss Voigt Hill
#
# Bulk Modulus (GPa) = 56.91257 57.37900 57.14579
# Shear Modulus (GPa) = 28.06367 126.20853 77.13610
#
# Velocity S-wave (km/s) = 3.94294 8.36166 6.53698
# Velocity P-wave (km/s) = 7.22895 11.18080 9.41456
#
# Compressibility (1/GPa) = 0.01757081
#
# Stress axis : x y z
#
# Youngs Moduli (GPa) = 33.42799 33.42799 66.81554
#
# Poissons Ratio (x) = 0.60476 0.35150
# Poissons Ratio (y) = 0.60476 0.35150
# Poissons Ratio (z) = 0.17586 0.17586
#
# Static dielectric constant tensor:
#      x y z
#    x 1.576120 0.000000 0.000000 
#    y 0.000000 1.576120 0.000000 
#    z 0.000000 0.000000 1.644650 
# 
# From -- ./inp_files/11638.got.cif
#   From: 2010.05.17/outbox.cif.g08.bks.cpg/sg134_6_cif.got.tgz:11638.got - 2010.05.20 12:42:49.
