data_PCOD9568352
_publ_section_title
;
Structure prediction by ZEFSAII (Michael W. Deem and Ramdas Pophale) SiO2 
 PCOD9568352
Probable space group: P 42/N N M
;
_chemical_formula_sum "Si O2"
_cell_formula_units_Z 80
_cell_length_a 25.529182
_cell_length_b 25.529182
_cell_length_c 5.924380
_cell_angle_alpha 90.000000
_cell_angle_beta 90.000000
_cell_angle_gamma 90.000000
_cell_volume 3861.150288
_symmetry_space_group_name_H-M "P 42/N N M"
_symmetry_group_IT_number 134
_space_group.IT_coordinate_system_code '2'
_symmetry_cell_setting 'tetragonal'
loop_
_space_group_symop_operation_xyz
x,y,z
1/2-y,x,1/2+z
1/2-x,1/2-y,z
y,1/2-x,1/2+z
x,1/2-y,1/2-z
1/2-x,y,1/2-z
y,x,-z
1/2-y,1/2-x,-z
-x,-y,-z
1/2+y,-x,1/2-z
1/2+x,1/2+y,-z
-y,1/2+x,1/2-z
-x,1/2+y,1/2+z
1/2+x,-y,1/2+z
-y,-x,z
1/2+y,1/2+x,z
loop_
_atom_site_type_symbol
_atom_site_label
_atom_site_fract_x
_atom_site_fract_y
_atom_site_fract_z
Si Si1 0.880513 0.464089 0.523172
Si Si2 0.690438 0.655596 0.757218
Si Si3 0.193270 0.607434 0.157711
Si Si4 0.993600 0.303482 0.137984
Si Si5 0.876775 0.941498 0.668648
O O1 0.928253 0.428253 0.446659
O O2 0.840245 0.426175 0.659626
O O3 0.848400 0.488714 0.321790
O O4 0.898322 0.512140 0.677525
O O5 0.750000 0.636177 0.750000
O O6 0.679522 0.679522 0.500000
O O7 0.647933 0.609659 0.780275
O O8 0.686603 0.686603 0.000000
O O9 0.250000 0.624351 0.250000
O O10 0.156041 0.656041 0.090238
O O11 0.204015 0.564501 0.964384
O O12 0.012144 0.250000 0.250000
O O13 0.032418 0.326468 0.953570
O O14 0.920753 0.920753 0.500000
#
# Coordination Sequence:
#
# PCOD9568352 Si02
#       5
#    16  16  16  16  16
#     4  10  22  40  65  91 125 169 215 270 333 398
#     4  11  26  45  71 102 140 181 227 281 341 407
#     4  10  20  37  58  91 128 164 215 273 334 404
#     4  11  22  38  67  93 122 172 225 274 333 405
#     4  10  26  41  62  97 132 167 217 279 334 402
#
# _framework density 20.719214000000001
#
# number of rings (size 3 to 8) (size 9 to 14) (size 15 to 20)
#    0.000    1.600    2.000    1.200    8.400    2.600 
#    0.000    1.000    0.000    0.000    0.000    0.000 
#    0.000    0.000    0.000    0.000    0.000    0.000 
#
# Total GULP energy -446270.024395 kJ/mol
# GULP energy per Si atom -5578.375305 kJ/mol
# Density = 2.067206 g / cm^3
# Si number density = 20.719214 Si / 1000 Ang^3
#
#
#
# Elastic Constant Matrix: (Units=GPa)
#
#
# Indices 1 2 3 4 5 6 
#
# 1 490.0776 -421.9523 19.8120 0.0000 0.0000 0.0000
# 2 -421.9523 490.0776 19.8120 0.0000 0.0000 0.0000
# 3 19.8120 19.8120 73.3660 0.0000 0.0000 0.0000
# 4 0.0000 0.0000 0.0000 -2.0197 0.0000 0.0000
# 5 0.0000 0.0000 0.0000 0.0000 -2.0197 0.0000
# 6 0.0000 0.0000 0.0000 0.0000 0.0000 18.6866
#
#
#
# Elastic Compliance Matrix: (Units=1/GPa)
#
#
# Indices 1 2 3 4 5 6 
#
# 1 0.009255 0.008159 -0.004703 0.000000 0.000000 0.000000
# 2 0.008159 0.009255 -0.004703 0.000000 0.000000 0.000000
# 3 -0.004703 -0.004703 0.016170 0.000000 0.000000 0.000000
# 4 0.000000 0.000000 0.000000 -0.495115 0.000000 0.000000
# 5 0.000000 0.000000 0.000000 0.000000 -0.495115 0.000000
# 6 0.000000 0.000000 0.000000 0.000000 0.000000 0.053514
#
#
# Mechanical properties :
#
#
# Convention : Reuss Voigt Hill
#
# Bulk Modulus (GPa) = 31.06756 32.09606 31.58181
# Shear Modulus (GPa) = -5.62547 98.65274 46.51363
#
# Velocity S-wave (km/s) = -1.64954 6.90779 4.74323
# Velocity P-wave (km/s) = 3.37626 8.89651 6.72856
#
# Compressibility (1/GPa) = 0.03218792
#
# Stress axis : x y z
#
# Youngs Moduli (GPa) = 108.04727 108.04727 61.84272
#
# Poissons Ratio (x) = -0.88153 0.29082
# Poissons Ratio (y) = -0.88153 0.29082
# Poissons Ratio (z) = 0.50809 0.50809
#
# Static dielectric constant tensor:
#      x y z
#    x 1.689500 0.000000 0.000000 
#    y 0.000000 1.689500 0.000000 
#    z 0.000000 0.000000 1.885190 
# 
# From -- ./inp_files/1155.got.cif
#   From: 2010.05.17/outbox.cif.g08.bks.cpg/sg134_1_cif.got.tgz:1155.got - 2010.05.20 12:42:49.
