data_PCOD9568393
_publ_section_title
;
Structure prediction by ZEFSAII (Michael W. Deem and Ramdas Pophale) SiO2 
 PCOD9568393
Probable space group: P 42/N N M
;
_chemical_formula_sum "Si O2"
_cell_formula_units_Z 80
_cell_length_a 12.791489
_cell_length_b 12.791489
_cell_length_c 28.476895
_cell_angle_alpha 90.000000
_cell_angle_beta 90.000000
_cell_angle_gamma 90.000000
_cell_volume 4659.451948
_symmetry_space_group_name_H-M "P 42/N N M"
_symmetry_group_IT_number 134
_space_group.IT_coordinate_system_code '2'
_symmetry_cell_setting 'tetragonal'
loop_
_space_group_symop_operation_xyz
x,y,z
1/2-y,x,1/2+z
1/2-x,1/2-y,z
y,1/2-x,1/2+z
x,1/2-y,1/2-z
1/2-x,y,1/2-z
y,x,-z
1/2-y,1/2-x,-z
-x,-y,-z
1/2+y,-x,1/2-z
1/2+x,1/2+y,-z
-y,1/2+x,1/2-z
-x,1/2+y,1/2+z
1/2+x,-y,1/2+z
-y,-x,z
1/2+y,1/2+x,z
loop_
_atom_site_type_symbol
_atom_site_label
_atom_site_fract_x
_atom_site_fract_y
_atom_site_fract_z
Si Si1 0.363559 0.459628 0.768014
Si Si2 0.248864 0.922721 0.110322
Si Si3 0.059918 0.115601 0.674557
Si Si4 0.224545 0.127526 0.862475
Si Si5 0.069353 0.105955 0.946714
O O1 0.250000 0.498227 0.750000
O O2 0.447749 0.552252 0.770388
O O3 0.400449 0.377030 0.728146
O O4 0.344994 0.409477 0.818663
O O5 0.155112 0.844889 0.125257
O O6 0.346664 0.846664 0.097807
O O7 0.286592 0.000895 0.151244
O O8 0.202572 0.994404 0.068671
O O9 0.159746 0.080817 0.643890
O O10 0.975849 0.024152 0.674355
O O11 0.250000 0.250000 0.858583
O O12 0.164238 0.103819 0.910115
O O13 0.108828 0.108828 0.000000
O O14 0.997108 0.002893 0.941689
#
# Coordination Sequence:
#
# PCOD9568393 Si02
#       5
#    16  16  16  16  16
#     4   9  19  33  53  77 107 141 179 217 262 317
#     4   9  17  33  56  79 108 144 177 214 267 323
#     4   9  18  34  52  77 109 138 173 217 260 316
#     4  11  20  34  54  78 106 142 177 220 270 319
#     4  10  21  37  56  79 106 137 180 227 269 320
#
# _framework density 17.169402000000002
#
# number of rings (size 3 to 8) (size 9 to 14) (size 15 to 20)
#    0.000    2.400    2.000    0.600    0.000    4.200 
#    0.000    1.000    0.000    6.600    0.000    5.600 
#    0.000    0.000    0.000    0.000    0.000    0.000 
#
# Total GULP energy -445702.964147 kJ/mol
# GULP energy per Si atom -5571.287052 kJ/mol
# Density = 1.713032 g / cm^3
# Si number density = 17.169402 Si / 1000 Ang^3
#
#
#
# Elastic Constant Matrix: (Units=GPa)
#
#
# Indices 1 2 3 4 5 6 
#
# 1 79.1981 30.1196 65.5348 0.0000 0.0000 0.0000
# 2 30.1196 79.1981 65.5348 0.0000 0.0000 0.0000
# 3 65.5348 65.5348 153.2435 0.0000 0.0000 0.0000
# 4 0.0000 0.0000 0.0000 26.3510 0.0000 0.0000
# 5 0.0000 0.0000 0.0000 0.0000 26.3510 0.0000
# 6 0.0000 0.0000 0.0000 0.0000 0.0000 15.5257
#
#
#
# Elastic Compliance Matrix: (Units=1/GPa)
#
#
# Indices 1 2 3 4 5 6 
#
# 1 0.019575 -0.000801 -0.008029 0.000000 0.000000 0.000000
# 2 -0.000801 0.019575 -0.008029 0.000000 0.000000 0.000000
# 3 -0.008029 -0.008029 0.013392 0.000000 0.000000 0.000000
# 4 0.000000 0.000000 0.000000 0.037949 0.000000 0.000000
# 5 0.000000 0.000000 0.000000 0.000000 0.037949 0.000000
# 6 0.000000 0.000000 0.000000 0.000000 0.000000 0.064409
#
#
# Mechanical properties :
#
#
# Convention : Reuss Voigt Hill
#
# Bulk Modulus (GPa) = 53.11935 70.44644 61.78290
# Shear Modulus (GPa) = 21.47389 23.67559 22.57474
#
# Velocity S-wave (km/s) = 3.54037 3.71744 3.62998
# Velocity P-wave (km/s) = 6.90781 7.71655 7.32335
#
# Compressibility (1/GPa) = 0.01882553
#
# Stress axis : x y z
#
# Youngs Moduli (GPa) = 51.08645 51.08645 74.66880
#
# Poissons Ratio (x) = 0.04091 0.59949
# Poissons Ratio (y) = 0.04091 0.59949
# Poissons Ratio (z) = 0.41015 0.41015
#
# Static dielectric constant tensor:
#      x y z
#    x 1.603350 0.000000 0.000000 
#    y 0.000000 1.603350 0.000000 
#    z 0.000000 0.000000 1.565510 
# 
# From -- ./inp_files/11249.got.cif
#   From: 2010.05.17/outbox.cif.g08.bks.cpg/sg134_6_cif.got.tgz:11249.got - 2010.05.20 12:42:49.
