data_PCOD9568886
_publ_section_title
;
Structure prediction by ZEFSAII (Michael W. Deem and Ramdas Pophale) SiO2 
 PCOD9568886
Probable space group: P 42/M B C
;
_chemical_formula_sum "Si O2"
_cell_formula_units_Z 80
_cell_length_a 10.506807
_cell_length_b 10.506807
_cell_length_c 30.015962
_cell_angle_alpha 90.000000
_cell_angle_beta 90.000000
_cell_angle_gamma 90.000000
_cell_volume 3313.551893
_symmetry_space_group_name_H-M "P 42/M B C"
_symmetry_group_IT_number 135
_symmetry_cell_setting 'tetragonal'
loop_
_space_group_symop_operation_xyz
x,y,z
-y,x,1/2+z
-x,-y,z
y,-x,1/2+z
1/2+x,1/2-y,-z
1/2-x,1/2+y,-z
1/2+y,1/2+x,1/2-z
1/2-y,1/2-x,1/2-z
-x,-y,-z
y,-x,1/2-z
x,y,-z
-y,x,1/2-z
1/2-x,1/2+y,z
1/2+x,1/2-y,z
1/2-y,1/2-x,1/2+z
1/2+y,1/2+x,1/2+z
loop_
_atom_site_type_symbol
_atom_site_label
_atom_site_fract_x
_atom_site_fract_y
_atom_site_fract_z
Si Si1 0.639467 0.509905 0.172444
Si Si2 0.776205 0.374503 0.548020
Si Si3 0.010574 0.217421 0.424393
Si Si4 0.786915 0.751136 0.199072
Si Si5 0.867163 0.546349 0.371968
O O1 0.500000 0.500000 0.192429
O O2 0.639637 0.477167 0.120047
O O3 0.686130 0.653929 0.177892
O O4 0.729764 0.402974 0.194927
O O5 0.805674 0.437995 0.500000
O O6 0.626014 0.344647 0.548672
O O7 0.803942 0.450277 0.593391
O O8 0.879094 0.258481 0.552111
O O9 0.081579 0.341448 0.404083
O O10 0.791228 0.708773 0.250000
O O11 0.907948 0.721843 0.167757
O O12 0.000000 0.500000 0.351284
#
# Coordination Sequence:
#
# PCOD9568886 Si02
#       5
#    16  16  16  16  16
#     4  11  25  47  72  99 145 190 237 300 377 448
#     4  11  22  38  65  97 134 180 236 297 358 434
#     4  10  21  40  62  93 131 177 229 284 357 427
#     4  11  26  44  71 105 137 184 240 303 372 458
#     4   9  21  42  63  92 131 179 233 292 362 430
#
# _framework density 24.143274999999999
#
# number of rings (size 3 to 8) (size 9 to 14) (size 15 to 20)
#    0.000    1.600    0.000    4.200    2.800    8.000 
#    0.000    0.000    0.000    4.800    0.000    0.000 
#    0.000    0.000    0.000    0.000    0.000    0.000 
#
# Total GULP energy -446722.254403 kJ/mol
# GULP energy per Si atom -5584.028180 kJ/mol
# Density = 2.408832 g / cm^3
# Si number density = 24.143275 Si / 1000 Ang^3
#
#
#
# Elastic Constant Matrix: (Units=GPa)
#
#
# Indices 1 2 3 4 5 6 
#
# 1 87.0752 46.6160 27.5751 0.0000 0.0000 0.0000
# 2 46.6160 87.0754 27.5752 0.0000 0.0000 0.0000
# 3 27.5751 27.5752 141.0254 0.0000 0.0000 0.0000
# 4 0.0000 0.0000 0.0000 811.3352 0.0000 0.0000
# 5 0.0000 0.0000 0.0000 0.0000 812.6913 0.0000
# 6 0.0000 0.0000 0.0000 0.0000 0.0000 30.6092
#
#
#
# Elastic Compliance Matrix: (Units=1/GPa)
#
#
# Indices 1 2 3 4 5 6 
#
# 1 0.016426 -0.008290 -0.001591 0.000000 0.000000 0.000000
# 2 -0.008290 0.016426 -0.001591 0.000000 0.000000 0.000000
# 3 -0.001591 -0.001591 0.007713 0.000000 0.000000 0.000000
# 4 0.000000 0.000000 0.000000 0.001233 0.000000 0.000000
# 5 0.000000 0.000000 0.000000 0.000000 0.001230 0.000000
# 6 0.000000 0.000000 0.000000 0.000000 0.000000 0.032670
#
#
# Mechanical properties :
#
#
# Convention : Reuss Voigt Hill
#
# Bulk Modulus (GPa) = 56.74767 57.63429 57.19098
# Shear Modulus (GPa) = 47.83958 345.15445 196.49702
#
# Velocity S-wave (km/s) = 4.45622 11.96960 9.03131
# Velocity P-wave (km/s) = 7.07338 14.66124 11.51053
#
# Compressibility (1/GPa) = 0.01762187
#
# Stress axis : x y z
#
# Youngs Moduli (GPa) = 60.87830 60.87840 129.65013
#
# Poissons Ratio (x) = 0.50468 0.20626
# Poissons Ratio (y) = 0.50468 0.20626
# Poissons Ratio (z) = 0.09685 0.09685
#
# Static dielectric constant tensor:
#      x y z
#    x 2.068660 0.000000 0.000000 
#    y 0.000000 2.068660 0.000000 
#    z 0.000000 0.000000 1.920490 
# 
# From -- ./inp_files/6680.got.cif
#   From: 2010.05.17/outbox.cif.g08.bks.cpg/sg135_4_cif.got.tgz:6680.got - 2010.05.20 12:50:20.
