data_PCOD9568950
_publ_section_title
;
Structure prediction by ZEFSAII (Michael W. Deem and Ramdas Pophale) SiO2 
 PCOD9568950
Probable space group: P 42/M B C
;
_chemical_formula_sum "Si O2"
_cell_formula_units_Z 112
_cell_length_a 14.292537
_cell_length_b 14.292537
_cell_length_c 31.339213
_cell_angle_alpha 90.000000
_cell_angle_beta 90.000000
_cell_angle_gamma 90.000000
_cell_volume 6401.868314
_symmetry_space_group_name_H-M "P 42/M B C"
_symmetry_group_IT_number 135
_symmetry_cell_setting 'tetragonal'
loop_
_space_group_symop_operation_xyz
x,y,z
-y,x,1/2+z
-x,-y,z
y,-x,1/2+z
1/2+x,1/2-y,-z
1/2-x,1/2+y,-z
1/2+y,1/2+x,1/2-z
1/2-y,1/2-x,1/2-z
-x,-y,-z
y,-x,1/2-z
x,y,-z
-y,x,1/2-z
1/2-x,1/2+y,z
1/2+x,1/2-y,z
1/2-y,1/2-x,1/2+z
1/2+y,1/2+x,1/2+z
loop_
_atom_site_type_symbol
_atom_site_label
_atom_site_fract_x
_atom_site_fract_y
_atom_site_fract_z
Si Si1 0.332487 0.683795 0.387529
Si Si2 0.530974 0.349794 0.754547
Si Si3 0.584986 0.930499 0.701782
Si Si4 0.248769 0.498473 0.167608
Si Si5 0.007118 0.110372 0.550831
Si Si6 0.766776 0.007840 0.656404
Si Si7 0.176468 0.158647 0.107424
O O1 0.402703 0.746031 0.358746
O O2 0.399997 0.653887 0.426955
O O3 0.310511 0.588897 0.361129
O O4 0.235069 0.739415 0.396248
O O5 0.429361 0.396367 0.757661
O O6 0.526153 0.278219 0.715816
O O7 0.551068 0.314584 0.801514
O O8 0.607629 0.892372 0.750000
O O9 0.546952 0.850037 0.671570
O O10 0.667272 0.981021 0.676413
O O11 0.500000 0.000000 0.707318
O O12 0.309690 0.578942 0.144317
O O13 0.014231 0.117772 0.500000
O O14 0.910794 0.158491 0.567475
O O15 0.000000 0.000000 0.562805
O O16 0.780729 0.085010 0.619843
#
# Coordination Sequence:
#
# PCOD9568950 Si02
#       7
#    16  16  16  16  16  16  16
#     4  11  23  38  61  88 117 150 192 239 291 349
#     4  11  21  31  51  79 114 152 196 253 297 328
#     4  11  23  36  50  73 117 166 202 239 284 330
#     4  11  21  36  53  82 112 152 206 242 282 340
#     4  10  22  42  69  95 117 143 184 239 301 368
#     4  12  21  36  56  83 115 156 203 246 288 334
#     4  11  23  38  61  89 117 152 192 240 293 352
#
# _framework density 17.494893000000001
#
# number of rings (size 3 to 8) (size 9 to 14) (size 15 to 20)
#    0.000    1.000    7.143    0.857    0.000    0.571 
#    0.000    1.429    0.000    0.000    0.000    1.000 
#    0.000    0.000    0.000    0.000    0.000    0.000 
#
# Total GULP energy -623814.747476 kJ/mol
# GULP energy per Si atom -5569.774531 kJ/mol
# Density = 1.745507 g / cm^3
# Si number density = 17.494893 Si / 1000 Ang^3
#
#
#
# Elastic Constant Matrix: (Units=GPa)
#
#
# Indices 1 2 3 4 5 6 
#
# 1 39.3289 7.2209 21.1791 0.0000 0.0000 0.0000
# 2 7.2209 39.3293 21.1790 0.0000 0.0000 0.0000
# 3 21.1791 21.1790 72.6785 0.0000 0.0000 0.0000
# 4 0.0000 0.0000 0.0000 29.5737 0.0000 0.0000
# 5 0.0000 0.0000 0.0000 0.0000 29.5737 0.0000
# 6 0.0000 0.0000 0.0000 0.0000 0.0000 32.4467
#
#
#
# Elastic Compliance Matrix: (Units=1/GPa)
#
#
# Indices 1 2 3 4 5 6 
#
# 1 0.030190 -0.000955 -0.008519 0.000000 0.000000 0.000000
# 2 -0.000955 0.030189 -0.008519 0.000000 0.000000 0.000000
# 3 -0.008519 -0.008519 0.018724 0.000000 0.000000 0.000000
# 4 0.000000 0.000000 0.000000 0.033814 0.000000 0.000000
# 5 0.000000 0.000000 0.000000 0.000000 0.033814 0.000000
# 6 0.000000 0.000000 0.000000 0.000000 0.000000 0.030820
#
#
# Mechanical properties :
#
#
# Convention : Reuss Voigt Hill
#
# Bulk Modulus (GPa) = 23.19302 27.83274 25.51288
# Shear Modulus (GPa) = 21.93853 25.10266 23.52059
#
# Velocity S-wave (km/s) = 3.54502 3.79206 3.67062
# Velocity P-wave (km/s) = 5.48106 5.92592 5.70783
#
# Compressibility (1/GPa) = 0.04311642
#
# Stress axis : x y z
#
# Youngs Moduli (GPa) = 33.12398 33.12435 53.40659
#
# Poissons Ratio (x) = 0.03164 0.45498
# Poissons Ratio (y) = 0.03164 0.45497
# Poissons Ratio (z) = 0.28219 0.28219
#
# Static dielectric constant tensor:
#      x y z
#    x 1.584500 0.000000 0.000000 
#    y 0.000000 1.584500 0.000000 
#    z 0.000000 0.000000 1.599340 
# 
# From -- ./inp_files/6526.got.cif
#   From: 2010.05.17/outbox.cif.g08.bks.cpg/sg135_4_cif.got.tgz:6526.got - 2010.05.20 12:50:20.
