data_PCOD9568018
_publ_section_title
;
Structure prediction by ZEFSAII (Michael W. Deem and Ramdas Pophale) SiO2 
 PCOD9568018
Probable space group: P 42/N B C
;
_chemical_formula_sum "Si O2"
_cell_formula_units_Z 36
_cell_length_a 10.794832
_cell_length_b 10.794832
_cell_length_c 11.319772
_cell_angle_alpha 90.000000
_cell_angle_beta 90.000000
_cell_angle_gamma 90.000000
_cell_volume 1319.074896
_symmetry_space_group_name_H-M "P 42/N B C"
_symmetry_group_IT_number 133
_space_group.IT_coordinate_system_code '2'
_symmetry_cell_setting 'tetragonal'
loop_
_space_group_symop_operation_xyz
x,y,z
1/2-y,x,1/2+z
1/2-x,1/2-y,z
y,1/2-x,1/2+z
x,1/2-y,-z
1/2-x,y,-z
y,x,1/2-z
1/2-y,1/2-x,1/2-z
-x,-y,-z
1/2+y,-x,1/2-z
1/2+x,1/2+y,-z
-y,1/2+x,1/2-z
-x,1/2+y,z
1/2+x,-y,z
-y,-x,1/2+z
1/2+y,1/2+x,1/2+z
loop_
_atom_site_type_symbol
_atom_site_label
_atom_site_fract_x
_atom_site_fract_y
_atom_site_fract_z
Si Si1 0.552619 0.728771 0.674630
Si Si2 0.250000 0.250000 0.500000
Si Si3 0.385657 0.684584 0.114064
O O1 0.633910 0.633910 0.750000
O O2 0.649154 0.803920 0.593706
O O3 0.465395 0.800360 0.767190
O O4 0.458517 0.646542 0.597006
O O5 0.250000 0.750000 0.123975
O O6 0.445362 0.750000 0.000000
#
# Coordination Sequence:
#
# PCOD9568018 Si02
#       3
#    16   4  16
#     4  12  27  48  80 118 169 216 278 352 431 515
#     4  12  30  52  72 128 178 206 280 356 432 522
#     4  11  24  52  85 118 156 227 297 350 427 525
#
# _framework density 27.291855999999999
#
# number of rings (size 3 to 8) (size 9 to 14) (size 15 to 20)
#    0.000    0.444    4.444    3.333    3.111    5.333 
#    0.000    0.000    0.000    0.000    0.000    0.000 
#    0.000    0.000    0.000    0.000    0.000    0.000 
#
# Total GULP energy -201271.619683 kJ/mol
# GULP energy per Si atom -5590.878325 kJ/mol
# Density = 2.722974 g / cm^3
# Si number density = 27.291856 Si / 1000 Ang^3
#
#
#
# Elastic Constant Matrix: (Units=GPa)
#
#
# Indices 1 2 3 4 5 6 
#
# 1 149.2988 37.9900 70.5182 0.0000 0.0000 0.0000
# 2 37.9900 149.2988 70.5182 0.0000 0.0000 0.0000
# 3 70.5182 70.5182 181.6659 0.0000 0.0000 0.0000
# 4 0.0000 0.0000 0.0000 70.4808 0.0000 0.0000
# 5 0.0000 0.0000 0.0000 0.0000 70.4808 0.0000
# 6 0.0000 0.0000 0.0000 0.0000 0.0000 33.3408
#
#
#
# Elastic Compliance Matrix: (Units=1/GPa)
#
#
# Indices 1 2 3 4 5 6 
#
# 1 0.008264 -0.000720 -0.002929 0.000000 0.000000 0.000000
# 2 -0.000720 0.008264 -0.002929 0.000000 0.000000 0.000000
# 3 -0.002929 -0.002929 0.007778 0.000000 0.000000 0.000000
# 4 0.000000 0.000000 0.000000 0.014188 0.000000 0.000000
# 5 0.000000 0.000000 0.000000 0.000000 0.014188 0.000000
# 6 0.000000 0.000000 0.000000 0.000000 0.000000 0.029993
#
#
# Mechanical properties :
#
#
# Convention : Reuss Voigt Hill
#
# Bulk Modulus (GPa) = 89.66133 93.14625 91.40379
# Shear Modulus (GPa) = 50.22670 54.94295 52.58482
#
# Velocity S-wave (km/s) = 4.29459 4.49170 4.39425
# Velocity P-wave (km/s) = 7.58389 7.81692 7.70129
#
# Compressibility (1/GPa) = 0.01115308
#
# Stress axis : x y z
#
# Youngs Moduli (GPa) = 121.00090 121.00090 128.56268
#
# Poissons Ratio (x) = 0.08707 0.37652
# Poissons Ratio (y) = 0.08707 0.37652
# Poissons Ratio (z) = 0.35438 0.35438
#
# Static dielectric constant tensor:
#      x y z
#    x 2.122840 0.000000 0.000000 
#    y 0.000000 2.122840 0.000000 
#    z 0.000000 0.000000 2.292510 
# 
# From -- ./inp_files/2263.got.cif
#   From: 2010.05.17/outbox.cif.g08.bks.cpg/sg133_2_cif.got.tgz:2263.got - 2010.05.20 12:37:36.
