data_PCOD9568677
_publ_section_title
;
Structure prediction by ZEFSAII (Michael W. Deem and Ramdas Pophale) SiO2 
 PCOD9568677
Probable space group: P 42/M B C
;
_chemical_formula_sum "Si O2"
_cell_formula_units_Z 112
_cell_length_a 14.524010
_cell_length_b 14.524010
_cell_length_c 25.600837
_cell_angle_alpha 90.000000
_cell_angle_beta 90.000000
_cell_angle_gamma 90.000000
_cell_volume 5400.416344
_symmetry_space_group_name_H-M "P 42/M B C"
_symmetry_group_IT_number 135
_symmetry_cell_setting 'tetragonal'
loop_
_space_group_symop_operation_xyz
x,y,z
-y,x,1/2+z
-x,-y,z
y,-x,1/2+z
1/2+x,1/2-y,-z
1/2-x,1/2+y,-z
1/2+y,1/2+x,1/2-z
1/2-y,1/2-x,1/2-z
-x,-y,-z
y,-x,1/2-z
x,y,-z
-y,x,1/2-z
1/2-x,1/2+y,z
1/2+x,1/2-y,z
1/2-y,1/2-x,1/2+z
1/2+y,1/2+x,1/2+z
loop_
_atom_site_type_symbol
_atom_site_label
_atom_site_fract_x
_atom_site_fract_y
_atom_site_fract_z
Si Si1 0.445264 0.215039 0.153563
Si Si2 0.686075 0.755963 0.692514
Si Si3 0.454014 0.357153 0.249805
Si Si4 0.433613 0.352104 0.060969
Si Si5 0.752544 0.022816 0.061437
Si Si6 0.136323 0.140828 0.938601
Si Si7 0.144558 0.325143 0.120305
O O1 0.355657 0.158990 0.170429
O O2 0.461168 0.288671 0.200513
O O3 0.417752 0.268968 0.100727
O O4 0.541912 0.165437 0.143161
O O5 0.725719 0.774282 0.750000
O O6 0.599448 0.690315 0.702444
O O7 0.769423 0.709083 0.660815
O O8 0.393554 0.445967 0.234373
O O9 0.350097 0.422907 0.063389
O O10 0.533917 0.390368 0.077872
O O11 0.441226 0.323021 0.000000
O O12 0.684724 0.081107 0.097546
O O13 0.779451 0.920871 0.081229
O O14 0.722592 0.021854 0.000000
O O15 0.141052 0.248095 0.925465
O O16 0.140441 0.126366 0.000000
#
# Coordination Sequence:
#
# PCOD9568677 Si02
#       7
#    16  16  16  16  16  16  16
#     4  10  20  36  58  86 122 159 206 250 315 373
#     4  10  21  38  54  84 123 157 197 256 309 372
#     4  10  20  36  58  90 121 158 206 262 319 373
#     4   9  17  31  52  83 122 154 192 248 314 373
#     4  10  19  33  55  86 122 160 200 246 305 370
#     4   9  19  33  52  84 119 153 200 255 304 365
#     4  11  20  36  58  87 115 164 203 250 307 378
#
# _framework density 20.739142000000001
#
# number of rings (size 3 to 8) (size 9 to 14) (size 15 to 20)
#    0.000    2.143    2.857    0.857    0.000    3.429 
#    2.571    0.000    0.000    0.857    0.000    6.000 
#    0.000    0.000    0.000    0.000    0.000    0.000 
#
# Total GULP energy -624946.942345 kJ/mol
# GULP energy per Si atom -5579.883414 kJ/mol
# Density = 2.069194 g / cm^3
# Si number density = 20.739142 Si / 1000 Ang^3
#
#
#
# Elastic Constant Matrix: (Units=GPa)
#
#
# Indices 1 2 3 4 5 6 
#
# 1 70.0118 40.7691 12.8471 0.0000 0.0000 0.0000
# 2 40.7691 70.0126 12.8471 0.0000 0.0000 0.0000
# 3 12.8471 12.8471 44.6451 0.0000 0.0000 0.0000
# 4 0.0000 0.0000 0.0000 21.3816 0.0000 0.0000
# 5 0.0000 0.0000 0.0000 0.0000 21.3815 0.0000
# 6 0.0000 0.0000 0.0000 0.0000 0.0000 25.0346
#
#
#
# Elastic Compliance Matrix: (Units=1/GPa)
#
#
# Indices 1 2 3 4 5 6 
#
# 1 0.021934 -0.012262 -0.002783 0.000000 0.000000 0.000000
# 2 -0.012262 0.021934 -0.002783 0.000000 0.000000 0.000000
# 3 -0.002783 -0.002783 0.024001 0.000000 0.000000 0.000000
# 4 0.000000 0.000000 0.000000 0.046769 0.000000 0.000000
# 5 0.000000 0.000000 0.000000 0.000000 0.046769 0.000000
# 6 0.000000 0.000000 0.000000 0.000000 0.000000 0.039945
#
#
# Mechanical properties :
#
#
# Convention : Reuss Voigt Hill
#
# Bulk Modulus (GPa) = 31.04421 35.28847 33.16634
# Shear Modulus (GPa) = 20.18189 21.43995 20.81092
#
# Velocity S-wave (km/s) = 3.12289 3.21875 3.17118
# Velocity P-wave (km/s) = 5.29194 5.55573 5.42544
#
# Compressibility (1/GPa) = 0.03221213
#
# Stress axis : x y z
#
# Youngs Moduli (GPa) = 45.59064 45.59116 41.66540
#
# Poissons Ratio (x) = 0.55903 0.11597
# Poissons Ratio (y) = 0.55903 0.11597
# Poissons Ratio (z) = 0.12690 0.12689
#
# Static dielectric constant tensor:
#      x y z
#    x 1.768370 0.000000 0.000000 
#    y 0.000000 1.768370 0.000000 
#    z 0.000000 0.000000 1.755530 
# 
# From -- ./inp_files/6537.got.cif
#   From: 2010.05.17/outbox.cif.g08.bks.cpg/sg135_4_cif.got.tgz:6537.got - 2010.05.20 12:50:20.
