data_PCOD9568953
_publ_section_title
;
Structure prediction by ZEFSAII (Michael W. Deem and Ramdas Pophale) SiO2 
 PCOD9568953
Probable space group: P 42/M B C
;
_chemical_formula_sum "Si O2"
_cell_formula_units_Z 96
_cell_length_a 14.291560
_cell_length_b 14.291560
_cell_length_c 22.266441
_cell_angle_alpha 90.000000
_cell_angle_beta 90.000000
_cell_angle_gamma 90.000000
_cell_volume 4547.891344
_symmetry_space_group_name_H-M "P 42/M B C"
_symmetry_group_IT_number 135
_symmetry_cell_setting 'tetragonal'
loop_
_space_group_symop_operation_xyz
x,y,z
-y,x,1/2+z
-x,-y,z
y,-x,1/2+z
1/2+x,1/2-y,-z
1/2-x,1/2+y,-z
1/2+y,1/2+x,1/2-z
1/2-y,1/2-x,1/2-z
-x,-y,-z
y,-x,1/2-z
x,y,-z
-y,x,1/2-z
1/2-x,1/2+y,z
1/2+x,1/2-y,z
1/2-y,1/2-x,1/2+z
1/2+y,1/2+x,1/2+z
loop_
_atom_site_type_symbol
_atom_site_label
_atom_site_fract_x
_atom_site_fract_y
_atom_site_fract_z
Si Si1 0.360584 0.662125 0.608078
Si Si2 0.551538 0.100224 0.188485
Si Si3 0.395200 0.247614 0.780406
Si Si4 0.952977 0.840796 0.065187
Si Si5 0.636621 0.137578 0.936346
Si Si6 0.540068 0.606367 0.322740
O O1 0.288678 0.658505 0.662883
O O2 0.351884 0.564276 0.573088
O O3 0.345967 0.752791 0.568423
O O4 0.459667 0.662240 0.642243
O O5 0.609854 0.109854 0.250000
O O6 0.482069 0.188368 0.193180
O O7 0.607806 0.094147 0.126920
O O8 0.500000 0.000000 0.191074
O O9 0.327713 0.172288 0.750000
O O10 0.426361 0.331491 0.734426
O O11 0.919749 0.734457 0.062470
O O12 0.908934 0.882379 0.125895
O O13 0.926113 0.884646 0.000000
O O14 0.616490 0.087509 0.000000
O O15 0.500000 0.500000 0.311375
#
# Coordination Sequence:
#
# PCOD9568953 Si02
#       6
#    16  16  16  16  16  16
#     4  11  24  38  66  96 133 174 226 283 340 414
#     4  11  23  44  71  99 134 178 226 282 343 414
#     4  12  24  41  67 102 137 180 225 286 349 414
#     4  10  22  43  65  91 133 178 224 278 343 412
#     4  11  24  44  68  97 134 179 229 283 342 411
#     4  10  25  40  65 100 135 178 225 283 345 415
#
# _framework density 21.108684
#
# number of rings (size 3 to 8) (size 9 to 14) (size 15 to 20)
#    0.000    1.167    3.333    2.500    4.667    7.333 
#    0.000    0.000    0.000    0.000    0.000    0.000 
#    0.000    0.000    0.000    0.000    0.000    0.000 
#
# Total GULP energy -535739.600246 kJ/mol
# GULP energy per Si atom -5580.620836 kJ/mol
# Density = 2.106064 g / cm^3
# Si number density = 21.108684 Si / 1000 Ang^3
#
#
#
# Elastic Constant Matrix: (Units=GPa)
#
#
# Indices 1 2 3 4 5 6 
#
# 1 56.2220 17.4813 35.0227 0.0000 0.0000 0.0000
# 2 17.4813 56.2215 35.0224 0.0000 0.0000 0.0000
# 3 35.0227 35.0224 165.8896 0.0000 0.0000 0.0000
# 4 0.0000 0.0000 0.0000 74.2569 0.0000 0.0000
# 5 0.0000 0.0000 0.0000 0.0000 74.2543 0.0000
# 6 0.0000 0.0000 0.0000 0.0000 0.0000 20.1534
#
#
#
# Elastic Compliance Matrix: (Units=1/GPa)
#
#
# Indices 1 2 3 4 5 6 
#
# 1 0.021393 -0.004420 -0.003583 0.000000 0.000000 0.000000
# 2 -0.004420 0.021393 -0.003583 0.000000 0.000000 0.000000
# 3 -0.003583 -0.003583 0.007541 0.000000 0.000000 0.000000
# 4 0.000000 0.000000 0.000000 0.013467 0.000000 0.000000
# 5 0.000000 0.000000 0.000000 0.000000 0.013467 0.000000
# 6 0.000000 0.000000 0.000000 0.000000 0.000000 0.049619
#
#
# Mechanical properties :
#
#
# Convention : Reuss Voigt Hill
#
# Bulk Modulus (GPa) = 36.82629 50.37622 43.60125
# Shear Modulus (GPa) = 31.42570 46.45337 38.93953
#
# Velocity S-wave (km/s) = 3.86263 4.69623 4.29968
# Velocity P-wave (km/s) = 6.11368 7.30226 6.73425
#
# Compressibility (1/GPa) = 0.02715451
#
# Stress axis : x y z
#
# Youngs Moduli (GPa) = 46.74403 46.74366 132.60519
#
# Poissons Ratio (x) = 0.20659 0.47519
# Poissons Ratio (y) = 0.20659 0.47518
# Poissons Ratio (z) = 0.16751 0.16750
#
# Static dielectric constant tensor:
#      x y z
#    x 1.778040 0.000000 0.000000 
#    y 0.000000 1.778040 0.000000 
#    z 0.000000 0.000000 1.848750 
# 
# From -- ./inp_files/5432.got.cif
#   From: 2010.05.17/outbox.cif.g08.bks.cpg/sg135_3_cif.got.tgz:5432.got - 2010.05.20 12:50:20.
