data_PCOD9568858
_publ_section_title
;
Structure prediction by ZEFSAII (Michael W. Deem and Ramdas Pophale) SiO2 
 PCOD9568858
Probable space group: P 42/M B C
;
_chemical_formula_sum "Si O2"
_cell_formula_units_Z 72
_cell_length_a 13.235210
_cell_length_b 13.235210
_cell_length_c 22.988045
_cell_angle_alpha 90.000000
_cell_angle_beta 90.000000
_cell_angle_gamma 90.000000
_cell_volume 4026.833859
_symmetry_space_group_name_H-M "P 42/M B C"
_symmetry_group_IT_number 135
_symmetry_cell_setting 'tetragonal'
loop_
_space_group_symop_operation_xyz
x,y,z
-y,x,1/2+z
-x,-y,z
y,-x,1/2+z
1/2+x,1/2-y,-z
1/2-x,1/2+y,-z
1/2+y,1/2+x,1/2-z
1/2-y,1/2-x,1/2-z
-x,-y,-z
y,-x,1/2-z
x,y,-z
-y,x,1/2-z
1/2-x,1/2+y,z
1/2+x,1/2-y,z
1/2-y,1/2-x,1/2+z
1/2+y,1/2+x,1/2+z
loop_
_atom_site_type_symbol
_atom_site_label
_atom_site_fract_x
_atom_site_fract_y
_atom_site_fract_z
Si Si1 0.632393 0.779262 0.433425
Si Si2 0.821608 0.767116 0.353436
Si Si3 0.540598 0.388483 0.564676
Si Si4 0.177360 0.677360 0.250000
Si Si5 0.619278 0.992497 0.163390
O O1 0.653180 0.809785 0.500000
O O2 0.731743 0.744084 0.398929
O O3 0.553672 0.687286 0.434506
O O4 0.573899 0.863624 0.395262
O O5 0.767980 0.808554 0.295682
O O6 0.885241 0.854179 0.384991
O O7 0.899106 0.674547 0.342584
O O8 0.500000 0.500000 0.572716
O O9 0.587959 0.380837 0.500000
O O10 0.073299 0.674807 0.286631
O O11 0.500000 0.000000 0.175275
#
# Coordination Sequence:
#
# PCOD9568858 Si02
#       5
#    16  16  16   8  16
#     4   9  19  36  58  87 117 147 187 231 287 346
#     4  10  21  38  56  82 115 149 192 233 288 335
#     4   9  18  35  58  84 115 148 185 233 288 342
#     4  10  23  38  55  82 108 152 196 238 281 342
#     4  10  22  39  59  84 113 151 193 241 285 336
#
# _framework density 17.880051999999999
#
# number of rings (size 3 to 8) (size 9 to 14) (size 15 to 20)
#    0.000    2.444    0.000    1.000    3.111    4.889 
#    8.000    2.222    0.000    0.000    0.000    0.000 
#    0.000    0.000    0.000    0.000    0.000    0.000 
#
# Total GULP energy -401317.725942 kJ/mol
# GULP energy per Si atom -5573.857305 kJ/mol
# Density = 1.783936 g / cm^3
# Si number density = 17.880052 Si / 1000 Ang^3
#
#
#
# Elastic Constant Matrix: (Units=GPa)
#
#
# Indices 1 2 3 4 5 6 
#
# 1 98.8866 43.5986 64.4877 0.0000 0.0000 0.0000
# 2 43.5986 98.8866 64.4877 0.0000 0.0000 0.0000
# 3 64.4877 64.4877 154.0907 0.0000 0.0000 0.0000
# 4 0.0000 0.0000 0.0000 39.3303 0.0000 0.0000
# 5 0.0000 0.0000 0.0000 0.0000 39.3303 0.0000
# 6 0.0000 0.0000 0.0000 0.0000 0.0000 11.3179
#
#
#
# Elastic Compliance Matrix: (Units=1/GPa)
#
#
# Indices 1 2 3 4 5 6 
#
# 1 0.014693 -0.003394 -0.004728 0.000000 0.000000 0.000000
# 2 -0.003394 0.014693 -0.004728 0.000000 0.000000 0.000000
# 3 -0.004728 -0.004728 0.010447 0.000000 0.000000 0.000000
# 4 0.000000 0.000000 0.000000 0.025426 0.000000 0.000000
# 5 0.000000 0.000000 0.000000 0.000000 0.025426 0.000000
# 6 0.000000 0.000000 0.000000 0.000000 0.000000 0.088356
#
#
# Mechanical properties :
#
#
# Convention : Reuss Voigt Hill
#
# Bulk Modulus (GPa) = 70.76904 77.44574 74.10739
# Shear Modulus (GPa) = 23.87177 29.94837 26.91007
#
# Velocity S-wave (km/s) = 3.65787 4.09707 3.88368
# Velocity P-wave (km/s) = 7.58326 8.11106 7.85160
#
# Compressibility (1/GPa) = 0.01413047
#
# Stress axis : x y z
#
# Youngs Moduli (GPa) = 68.06087 68.06087 95.71753
#
# Poissons Ratio (x) = 0.23102 0.45259
# Poissons Ratio (y) = 0.23102 0.45259
# Poissons Ratio (z) = 0.32182 0.32182
#
# Static dielectric constant tensor:
#      x y z
#    x 1.599440 0.000000 0.000000 
#    y 0.000000 1.599440 0.000000 
#    z 0.000000 0.000000 1.652480 
# 
# From -- ./inp_files/6408.got.cif
#   From: 2010.05.17/outbox.cif.g08.bks.cpg/sg135_4_cif.got.tgz:6408.got - 2010.05.20 12:50:20.
