data_PCOD9568545
_publ_section_title
;
Structure prediction by ZEFSAII (Michael W. Deem and Ramdas Pophale) SiO2 
 PCOD9568545
Probable space group: P 42/N N M
;
_chemical_formula_sum "Si O2"
_cell_formula_units_Z 40
_cell_length_a 11.794955
_cell_length_b 11.794955
_cell_length_c 12.344297
_cell_angle_alpha 90.000000
_cell_angle_beta 90.000000
_cell_angle_gamma 90.000000
_cell_volume 1717.350492
_symmetry_space_group_name_H-M "P 42/N N M"
_symmetry_group_IT_number 134
_space_group.IT_coordinate_system_code '2'
_symmetry_cell_setting 'tetragonal'
loop_
_space_group_symop_operation_xyz
x,y,z
1/2-y,x,1/2+z
1/2-x,1/2-y,z
y,1/2-x,1/2+z
x,1/2-y,1/2-z
1/2-x,y,1/2-z
y,x,-z
1/2-y,1/2-x,-z
-x,-y,-z
1/2+y,-x,1/2-z
1/2+x,1/2+y,-z
-y,1/2+x,1/2-z
-x,1/2+y,1/2+z
1/2+x,-y,1/2+z
-y,-x,z
1/2+y,1/2+x,z
loop_
_atom_site_type_symbol
_atom_site_label
_atom_site_fract_x
_atom_site_fract_y
_atom_site_fract_z
Si Si1 0.574536 0.250000 0.750000
Si Si2 0.525761 0.838860 0.847598
Si Si3 0.761934 0.565137 0.556675
O O1 0.655912 0.344089 0.697358
O O2 0.501783 0.311270 0.842035
O O3 0.531746 0.750000 0.750000
O O4 0.651097 0.879013 0.885800
O O5 0.444131 0.944131 0.823191
O O6 0.485460 0.778196 0.958551
O O7 0.845726 0.654275 0.500000
#
# Coordination Sequence:
#
# PCOD9568545 Si02
#       3
#     8  16  16
#     4  11  24  42  65  96 136 176 217 275 344 406
#     4  11  23  40  64  97 135 174 220 274 333 395
#     4  11  23  41  67  95 129 175 228 277 325 393
#
# _framework density 23.291692999999999
#
# number of rings (size 3 to 8) (size 9 to 14) (size 15 to 20)
#    0.000    1.000    0.000    9.600    0.000    4.400 
#    0.000    0.000    0.000    3.600    0.000    0.000 
#    0.000    0.000    0.000    0.000    0.000    0.000 
#
# Total GULP energy -223437.176145 kJ/mol
# GULP energy per Si atom -5585.929404 kJ/mol
# Density = 2.323868 g / cm^3
# Si number density = 23.291693 Si / 1000 Ang^3
#
#
#
# Elastic Constant Matrix: (Units=GPa)
#
#
# Indices 1 2 3 4 5 6 
#
# 1 106.9660 76.9813 69.6105 0.0000 0.0000 0.0000
# 2 76.9813 106.9662 69.6106 0.0000 0.0000 0.0000
# 3 69.6105 69.6106 191.7153 0.0000 0.0000 0.0000
# 4 0.0000 0.0000 0.0000 31.6913 0.0000 0.0000
# 5 0.0000 0.0000 0.0000 0.0000 31.6915 0.0000
# 6 0.0000 0.0000 0.0000 0.0000 0.0000 35.0754
#
#
#
# Elastic Compliance Matrix: (Units=1/GPa)
#
#
# Indices 1 2 3 4 5 6 
#
# 1 0.020423 -0.012927 -0.002722 0.000000 0.000000 0.000000
# 2 -0.012927 0.020423 -0.002722 0.000000 0.000000 0.000000
# 3 -0.002722 -0.002722 0.007193 0.000000 0.000000 0.000000
# 4 0.000000 0.000000 0.000000 0.031554 0.000000 0.000000
# 5 0.000000 0.000000 0.000000 0.000000 0.031554 0.000000
# 6 0.000000 0.000000 0.000000 0.000000 0.000000 0.028510
#
#
# Mechanical properties :
#
#
# Convention : Reuss Voigt Hill
#
# Bulk Modulus (GPa) = 88.51196 93.11691 90.81443
# Shear Modulus (GPa) = 27.75227 32.32130 30.03678
#
# Velocity S-wave (km/s) = 3.45557 3.72919 3.59498
# Velocity P-wave (km/s) = 7.34883 7.65558 7.50377
#
# Compressibility (1/GPa) = 0.01129791
#
# Stress axis : x y z
#
# Youngs Moduli (GPa) = 48.96351 48.96361 139.03039
#
# Poissons Ratio (x) = 0.63295 0.37843
# Poissons Ratio (y) = 0.63295 0.37843
# Poissons Ratio (z) = 0.13327 0.13327
#
# Static dielectric constant tensor:
#      x y z
#    x 1.950700 0.000000 0.000000 
#    y 0.000000 1.950700 0.000000 
#    z 0.000000 0.000000 1.911880 
# 
# From -- ./inp_files/5748.got.cif
#   From: 2010.05.17/outbox.cif.g08.bks.cpg/sg134_3_cif.got.tgz:5748.got - 2010.05.20 12:42:49.
