data_PCOD9568425
_publ_section_title
;
Structure prediction by ZEFSAII (Michael W. Deem and Ramdas Pophale) SiO2 
 PCOD9568425
Probable space group: P 42/N N M
;
_chemical_formula_sum "Si O2"
_cell_formula_units_Z 52
_cell_length_a 16.798455
_cell_length_b 16.798455
_cell_length_c 9.493939
_cell_angle_alpha 90.000000
_cell_angle_beta 90.000000
_cell_angle_gamma 90.000000
_cell_volume 2679.076517
_symmetry_space_group_name_H-M "P 42/N N M"
_symmetry_group_IT_number 134
_space_group.IT_coordinate_system_code '2'
_symmetry_cell_setting 'tetragonal'
loop_
_space_group_symop_operation_xyz
x,y,z
1/2-y,x,1/2+z
1/2-x,1/2-y,z
y,1/2-x,1/2+z
x,1/2-y,1/2-z
1/2-x,y,1/2-z
y,x,-z
1/2-y,1/2-x,-z
-x,-y,-z
1/2+y,-x,1/2-z
1/2+x,1/2+y,-z
-y,1/2+x,1/2-z
-x,1/2+y,1/2+z
1/2+x,-y,1/2+z
-y,-x,z
1/2+y,1/2+x,z
loop_
_atom_site_type_symbol
_atom_site_label
_atom_site_fract_x
_atom_site_fract_y
_atom_site_fract_z
Si Si1 0.326004 0.540771 0.180184
Si Si2 0.878801 0.872733 0.339552
Si Si3 0.750000 0.750000 0.750000
Si Si4 0.491037 0.121830 0.402351
O O1 0.250000 0.581125 0.250000
O O2 0.403861 0.596140 0.186574
O O3 0.340767 0.459866 0.267800
O O4 0.313191 0.519908 0.015289
O O5 0.895315 0.895315 0.500000
O O6 0.809645 0.806663 0.335650
O O7 0.852615 0.944251 0.235959
O O8 0.431096 0.068905 0.500000
O O9 0.563978 0.063978 0.363790
#
# Coordination Sequence:
#
# PCOD9568425 Si02
#       4
#    16  16   4  16
#     4  10  21  39  61  85 118 158 205 252 303 359
#     4  11  23  36  59  86 120 159 199 243 300 373
#     4  12  26  36  52  90 132 156 184 240 306 372
#     4   8  17  35  57  79 111 153 191 236 292 349
#
# _framework density 19.409673999999999
#
# number of rings (size 3 to 8) (size 9 to 14) (size 15 to 20)
#    0.000    2.154    1.538    3.231    4.308    5.231 
#    0.000    0.000    0.000    0.000    0.000    0.000 
#    0.000    4.923    0.000    0.000    0.000    0.000 
#
# Total GULP energy -290017.510984 kJ/mol
# GULP energy per Si atom -5577.259827 kJ/mol
# Density = 1.936550 g / cm^3
# Si number density = 19.409674 Si / 1000 Ang^3
#
#
#
# Elastic Constant Matrix: (Units=GPa)
#
#
# Indices 1 2 3 4 5 6 
#
# 1 71.0042 20.1499 50.0339 0.0000 0.0000 0.0000
# 2 20.1499 71.0038 50.0340 0.0000 0.0000 0.0000
# 3 50.0339 50.0340 174.5071 0.0000 0.0000 0.0000
# 4 0.0000 0.0000 0.0000 11.2908 0.0000 0.0000
# 5 0.0000 0.0000 0.0000 0.0000 11.2904 0.0000
# 6 0.0000 0.0000 0.0000 0.0000 0.0000 24.1404
#
#
#
# Elastic Compliance Matrix: (Units=1/GPa)
#
#
# Indices 1 2 3 4 5 6 
#
# 1 0.017837 -0.001827 -0.004590 0.000000 0.000000 0.000000
# 2 -0.001827 0.017837 -0.004590 0.000000 0.000000 0.000000
# 3 -0.004590 -0.004590 0.008363 0.000000 0.000000 0.000000
# 4 0.000000 0.000000 0.000000 0.088568 0.000000 0.000000
# 5 0.000000 0.000000 0.000000 0.000000 0.088571 0.000000
# 6 0.000000 0.000000 0.000000 0.000000 0.000000 0.041424
#
#
# Mechanical properties :
#
#
# Convention : Reuss Voigt Hill
#
# Bulk Modulus (GPa) = 45.41142 61.88340 53.64741
# Shear Modulus (GPa) = 17.12593 22.43080 19.77837
#
# Velocity S-wave (km/s) = 2.97364 3.40317 3.19563
# Velocity P-wave (km/s) = 5.93609 6.88434 6.42772
#
# Compressibility (1/GPa) = 0.02202089
#
# Stress axis : x y z
#
# Youngs Moduli (GPa) = 56.06412 56.06362 119.58034
#
# Poissons Ratio (x) = 0.10244 0.54889
# Poissons Ratio (y) = 0.10245 0.54890
# Poissons Ratio (z) = 0.25734 0.25734
#
# Static dielectric constant tensor:
#      x y z
#    x 1.717650 0.000000 0.000000 
#    y 0.000000 1.717650 0.000000 
#    z 0.000000 0.000000 1.685460 
# 
# From -- ./inp_files/2253.got.cif
#   From: 2010.05.17/outbox.cif.g08.bks.cpg/sg134_2_cif.got.tgz:2253.got - 2010.05.20 12:42:49.
