data_PCOD9568532
_publ_section_title
;
Structure prediction by ZEFSAII (Michael W. Deem and Ramdas Pophale) SiO2 
 PCOD9568532
Probable space group: P 42/N N M
;
_chemical_formula_sum "Si O2"
_cell_formula_units_Z 56
_cell_length_a 15.423150
_cell_length_b 15.423150
_cell_length_c 11.737679
_cell_angle_alpha 90.000000
_cell_angle_beta 90.000000
_cell_angle_gamma 90.000000
_cell_volume 2792.083442
_symmetry_space_group_name_H-M "P 42/N N M"
_symmetry_group_IT_number 134
_space_group.IT_coordinate_system_code '2'
_symmetry_cell_setting 'tetragonal'
loop_
_space_group_symop_operation_xyz
x,y,z
1/2-y,x,1/2+z
1/2-x,1/2-y,z
y,1/2-x,1/2+z
x,1/2-y,1/2-z
1/2-x,y,1/2-z
y,x,-z
1/2-y,1/2-x,-z
-x,-y,-z
1/2+y,-x,1/2-z
1/2+x,1/2+y,-z
-y,1/2+x,1/2-z
-x,1/2+y,1/2+z
1/2+x,-y,1/2+z
-y,-x,z
1/2+y,1/2+x,z
loop_
_atom_site_type_symbol
_atom_site_label
_atom_site_fract_x
_atom_site_fract_y
_atom_site_fract_z
Si Si1 0.480219 0.980219 0.682912
Si Si2 0.676521 0.176521 0.573068
Si Si3 0.748413 0.508367 0.619608
Si Si4 0.657464 0.157464 0.300935
Si Si5 0.445619 0.945619 0.089651
Si Si6 0.105694 0.105694 0.000000
O O1 0.412468 0.912468 0.733178
O O2 0.545834 0.925956 0.604557
O O3 0.528670 0.028670 0.782561
O O4 0.750000 0.250000 0.597620
O O5 0.582445 0.199798 0.620067
O O6 0.666865 0.166865 0.436686
O O7 0.750000 0.541561 0.750000
O O8 0.654300 0.475383 0.577935
O O9 0.797676 0.577230 0.538024
O O10 0.633157 0.250000 0.250000
O O11 0.500000 0.000000 0.000000
#
# Coordination Sequence:
#
# PCOD9568532 Si02
#       6
#     8   8  16   8   8   8
#     4  11  22  40  63  95 136 188 230 287 358 440
#     4  12  22  35  59  99 137 173 216 289 357 425
#     4  12  24  44  68 102 139 183 235 296 359 431
#     4  11  23  36  60  91 134 176 228 281 357 426
#     4  12  28  42  67 103 144 178 237 302 364 422
#     4  11  22  42  71  98 136 190 243 287 364 441
#
# _framework density 20.056706999999999
#
# number of rings (size 3 to 8) (size 9 to 14) (size 15 to 20)
#    0.000    0.429    8.571    1.714    4.000    0.000 
#    0.000    0.714    0.000    1.714    0.000    0.000 
#    0.000    0.000    0.000    0.000    0.000    0.000 
#
# Total GULP energy -312997.107402 kJ/mol
# GULP energy per Si atom -5589.234061 kJ/mol
# Density = 2.001106 g / cm^3
# Si number density = 20.056707 Si / 1000 Ang^3
#
#
#
# Elastic Constant Matrix: (Units=GPa)
#
#
# Indices 1 2 3 4 5 6 
#
# 1 106.0538 79.5444 30.8287 0.0000 0.0000 0.0000
# 2 79.5444 106.0538 30.8287 0.0000 0.0000 0.0000
# 3 30.8287 30.8287 88.4559 0.0000 0.0000 0.0000
# 4 0.0000 0.0000 0.0000 11.5789 0.0000 0.0000
# 5 0.0000 0.0000 0.0000 0.0000 11.5789 0.0000
# 6 0.0000 0.0000 0.0000 0.0000 0.0000 33.9436
#
#
#
# Elastic Compliance Matrix: (Units=1/GPa)
#
#
# Indices 1 2 3 4 5 6 
#
# 1 0.021908 -0.015814 -0.002124 0.000000 0.000000 0.000000
# 2 -0.015814 0.021908 -0.002124 0.000000 0.000000 0.000000
# 3 -0.002124 -0.002124 0.012785 0.000000 0.000000 0.000000
# 4 0.000000 0.000000 0.000000 0.086364 0.000000 0.000000
# 5 0.000000 0.000000 0.000000 0.000000 0.086364 0.000000
# 6 0.000000 0.000000 0.000000 0.000000 0.000000 0.029461
#
#
# Mechanical properties :
#
#
# Convention : Reuss Voigt Hill
#
# Bulk Modulus (GPa) = 60.68868 64.77414 62.73141
# Shear Modulus (GPa) = 16.42544 22.04439 19.23491
#
# Velocity S-wave (km/s) = 2.86483 3.31887 3.10018
# Velocity P-wave (km/s) = 6.42396 6.85946 6.64528
#
# Compressibility (1/GPa) = 0.01647754
#
# Stress axis : x y z
#
# Youngs Moduli (GPa) = 45.64549 45.64549 78.21426
#
# Poissons Ratio (x) = 0.72186 0.16610
# Poissons Ratio (y) = 0.72186 0.16610
# Poissons Ratio (z) = 0.09694 0.09694
#
# Static dielectric constant tensor:
#      x y z
#    x 1.727930 0.000000 0.000000 
#    y 0.000000 1.727930 0.000000 
#    z 0.000000 0.000000 1.740890 
# 
# From -- ./inp_files/4400.got.cif
#   From: 2010.05.17/outbox.cif.g08.bks.cpg/sg134_3_cif.got.tgz:4400.got - 2010.05.20 12:42:49.
