data_PCOD9568485
_publ_section_title
;
Structure prediction by ZEFSAII (Michael W. Deem and Ramdas Pophale) SiO2 
 PCOD9568485
Probable space group: P 42/N N M
;
_chemical_formula_sum "Si O2"
_cell_formula_units_Z 64
_cell_length_a 9.714801
_cell_length_b 9.714801
_cell_length_c 27.447039
_cell_angle_alpha 90.000000
_cell_angle_beta 90.000000
_cell_angle_gamma 90.000000
_cell_volume 2590.379039
_symmetry_space_group_name_H-M "P 42/N N M"
_symmetry_group_IT_number 134
_space_group.IT_coordinate_system_code '2'
_symmetry_cell_setting 'tetragonal'
loop_
_space_group_symop_operation_xyz
x,y,z
1/2-y,x,1/2+z
1/2-x,1/2-y,z
y,1/2-x,1/2+z
x,1/2-y,1/2-z
1/2-x,y,1/2-z
y,x,-z
1/2-y,1/2-x,-z
-x,-y,-z
1/2+y,-x,1/2-z
1/2+x,1/2+y,-z
-y,1/2+x,1/2-z
-x,1/2+y,1/2+z
1/2+x,-y,1/2+z
-y,-x,z
1/2+y,1/2+x,z
loop_
_atom_site_type_symbol
_atom_site_label
_atom_site_fract_x
_atom_site_fract_y
_atom_site_fract_z
Si Si1 0.155622 0.440726 0.400123
Si Si2 0.040939 0.194686 0.694806
Si Si3 0.533727 0.245738 0.308874
Si Si4 0.646368 0.575152 0.445016
O O1 0.179222 0.460285 0.342462
O O2 0.312870 0.445020 0.417151
O O3 0.063372 0.563372 0.419706
O O4 0.109880 0.179422 0.318080
O O5 0.046476 0.250000 0.750000
O O6 0.910761 0.089240 0.691091
O O7 0.297843 0.089991 0.579198
O O8 0.540530 0.250000 0.250000
O O9 0.643201 0.356800 0.328084
O O10 0.600445 0.100445 0.324381
O O11 0.633326 0.633326 0.500000
O O12 0.573659 0.426342 0.443136
#
# Coordination Sequence:
#
# PCOD9568485 Si02
#       4
#    16  16  16  16
#     4  11  24  44  72 106 143 186 243 305 359 427
#     4  11  24  41  62  94 141 198 257 313 372 443
#     4   8  16  34  59  85 116 162 224 292 360 424
#     4  10  24  48  76 108 147 186 228 290 375 466
#
# _framework density 24.706810999999998
#
# number of rings (size 3 to 8) (size 9 to 14) (size 15 to 20)
#    0.000    2.000    0.000    3.750    0.000   10.250 
#    0.000   16.250    0.000   12.000    0.000    0.000 
#    0.000    0.500    0.000    0.000    0.000    0.000 
#
# Total GULP energy -357577.974194 kJ/mol
# GULP energy per Si atom -5587.155847 kJ/mol
# Density = 2.465058 g / cm^3
# Si number density = 24.706811 Si / 1000 Ang^3
#
#
#
# Elastic Constant Matrix: (Units=GPa)
#
#
# Indices 1 2 3 4 5 6 
#
# 1 130.4372 59.6685 18.2251 0.0000 0.0000 0.0000
# 2 59.6685 130.4372 18.2251 0.0000 0.0000 0.0000
# 3 18.2251 18.2251 136.7039 0.0000 0.0000 0.0000
# 4 0.0000 0.0000 0.0000 -0.3761 0.0000 0.0000
# 5 0.0000 0.0000 0.0000 0.0000 -0.3761 0.0000
# 6 0.0000 0.0000 0.0000 0.0000 0.0000 69.7262
#
#
#
# Elastic Compliance Matrix: (Units=1/GPa)
#
#
# Indices 1 2 3 4 5 6 
#
# 1 0.009764 -0.004366 -0.000720 0.000000 0.000000 0.000000
# 2 -0.004366 0.009764 -0.000720 0.000000 0.000000 0.000000
# 3 -0.000720 -0.000720 0.007507 0.000000 0.000000 0.000000
# 4 0.000000 0.000000 0.000000 -2.658620 0.000000 0.000000
# 5 0.000000 0.000000 0.000000 0.000000 -2.658620 0.000000
# 6 0.000000 0.000000 0.000000 0.000000 0.000000 0.014342
#
#
# Mechanical properties :
#
#
# Convention : Reuss Voigt Hill
#
# Bulk Modulus (GPa) = 64.83115 65.53511 65.18313
# Shear Modulus (GPa) = -0.95073 33.89209 16.47068
#
# Velocity S-wave (km/s) = -0.62100 3.70776 2.58475
# Velocity P-wave (km/s) = 5.07769 6.70169 5.94540
#
# Compressibility (1/GPa) = 0.01542469
#
# Stress axis : x y z
#
# Youngs Moduli (GPa) = 102.41306 102.41306 133.20950
#
# Poissons Ratio (x) = 0.44715 0.09587
# Poissons Ratio (y) = 0.44715 0.09587
# Poissons Ratio (z) = 0.07370 0.07370
#
# Static dielectric constant tensor:
#      x y z
#    x 1.994540 0.000000 0.000000 
#    y 0.000000 1.994540 0.000000 
#    z 0.000000 0.000000 2.076130 
# 
# From -- ./inp_files/9810.got.cif
#   From: 2010.05.17/outbox.cif.g08.bks.cpg/sg134_5_cif.got.tgz:9810.got - 2010.05.20 12:42:49.
