data_PCOD9568231
_publ_section_title
;
Structure prediction by ZEFSAII (Michael W. Deem and Ramdas Pophale) SiO2 
 PCOD9568231
Probable space group: P 42/N N M
;
_chemical_formula_sum "Si O2"
_cell_formula_units_Z 56
_cell_length_a 14.353434
_cell_length_b 14.353434
_cell_length_c 11.461697
_cell_angle_alpha 90.000000
_cell_angle_beta 90.000000
_cell_angle_gamma 90.000000
_cell_volume 2361.351052
_symmetry_space_group_name_H-M "P 42/N N M"
_symmetry_group_IT_number 134
_space_group.IT_coordinate_system_code '2'
_symmetry_cell_setting 'tetragonal'
loop_
_space_group_symop_operation_xyz
x,y,z
1/2-y,x,1/2+z
1/2-x,1/2-y,z
y,1/2-x,1/2+z
x,1/2-y,1/2-z
1/2-x,y,1/2-z
y,x,-z
1/2-y,1/2-x,-z
-x,-y,-z
1/2+y,-x,1/2-z
1/2+x,1/2+y,-z
-y,1/2+x,1/2-z
-x,1/2+y,1/2+z
1/2+x,-y,1/2+z
-y,-x,z
1/2+y,1/2+x,z
loop_
_atom_site_type_symbol
_atom_site_label
_atom_site_fract_x
_atom_site_fract_y
_atom_site_fract_z
Si Si1 0.892953 0.666297 0.173391
Si Si2 0.672405 0.327596 0.532040
Si Si3 0.739434 0.978149 0.063791
Si Si4 0.905162 0.405162 0.738942
Si Si5 0.075316 0.924685 0.970842
O O1 0.855479 0.750000 0.250000
O O2 0.820496 0.583412 0.152124
O O3 0.988424 0.622948 0.228251
O O4 0.919946 0.722290 0.055063
O O5 0.750000 0.250000 0.509151
O O6 0.695331 0.423958 0.470368
O O7 0.655346 0.344655 0.669751
O O8 0.843332 0.015198 0.090639
O O9 0.889526 0.389526 0.600325
O O10 0.000000 0.000000 0.000000
#
# Coordination Sequence:
#
# PCOD9568231 Si02
#       5
#    16   8  16   8   8
#     4  10  19  37  68  98 143 190 247 304 360 443
#     4  10  19  35  68 106 145 184 237 302 372 442
#     4  10  21  38  63 103 140 185 241 301 369 437
#     4  10  21  38  63  99 145 197 243 297 369 440
#     4  12  24  42  62  89 139 192 231 303 365 428
#
# _framework density 23.715236000000001
#
# number of rings (size 3 to 8) (size 9 to 14) (size 15 to 20)
#    0.000    1.714    4.286    0.857    0.000    3.429 
#    2.571    4.286   12.571    0.000    0.000    0.000 
#    0.000    4.571    0.000    0.143    0.000    0.000 
#
# Total GULP energy -312726.482953 kJ/mol
# GULP energy per Si atom -5584.401481 kJ/mol
# Density = 2.366126 g / cm^3
# Si number density = 23.715236 Si / 1000 Ang^3
#
#
#
# Elastic Constant Matrix: (Units=GPa)
#
#
# Indices 1 2 3 4 5 6 
#
# 1 147.3253 108.8932 48.2948 0.0000 0.0000 0.0000
# 2 108.8932 147.3253 48.2948 0.0000 0.0000 0.0000
# 3 48.2948 48.2948 74.1455 0.0000 0.0000 0.0000
# 4 0.0000 0.0000 0.0000 -62.9235 0.0000 0.0000
# 5 0.0000 0.0000 0.0000 0.0000 -62.9235 0.0000
# 6 0.0000 0.0000 0.0000 0.0000 0.0000 59.6804
#
#
#
# Elastic Compliance Matrix: (Units=1/GPa)
#
#
# Indices 1 2 3 4 5 6 
#
# 1 0.015597 -0.010423 -0.003370 0.000000 0.000000 0.000000
# 2 -0.010423 0.015597 -0.003370 0.000000 0.000000 0.000000
# 3 -0.003370 -0.003370 0.017877 0.000000 0.000000 0.000000
# 4 0.000000 0.000000 0.000000 -0.015892 0.000000 0.000000
# 5 0.000000 0.000000 0.000000 0.000000 -0.015892 0.000000
# 6 0.000000 0.000000 0.000000 0.000000 0.000000 0.016756
#
#
# Mechanical properties :
#
#
# Convention : Reuss Voigt Hill
#
# Bulk Modulus (GPa) = 67.82122 86.64019 77.23070
# Shear Modulus (GPa) = 68.23078 -2.34575 32.94252
#
# Velocity S-wave (km/s) = 5.36967 -0.99563 3.73109
# Velocity P-wave (km/s) = 8.19174 5.94064 7.15527
#
# Compressibility (1/GPa) = 0.01474465
#
# Stress axis : x y z
#
# Youngs Moduli (GPa) = 64.11678 64.11678 55.93930
#
# Poissons Ratio (x) = 0.66831 0.18849
# Poissons Ratio (y) = 0.66831 0.18849
# Poissons Ratio (z) = 0.21605 0.21605
#
# Static dielectric constant tensor:
#      x y z
#    x 2.251310 0.000000 0.000000 
#    y 0.000000 2.251310 0.000000 
#    z 0.000000 0.000000 2.010000 
# 
# From -- ./inp_files/4372.got.cif
#   From: 2010.05.17/outbox.cif.g08.bks.cpg/sg134_3_cif.got.tgz:4372.got - 2010.05.20 12:42:49.
