data_PCOD9568557
_publ_section_title
;
Structure prediction by ZEFSAII (Michael W. Deem and Ramdas Pophale) SiO2 
 PCOD9568557
Probable space group: P 42/N N M
;
_chemical_formula_sum "Si O2"
_cell_formula_units_Z 36
_cell_length_a 10.498512
_cell_length_b 10.498512
_cell_length_c 17.342815
_cell_angle_alpha 90.000000
_cell_angle_beta 90.000000
_cell_angle_gamma 90.000000
_cell_volume 1911.503464
_symmetry_space_group_name_H-M "P 42/N N M"
_symmetry_group_IT_number 134
_space_group.IT_coordinate_system_code '2'
_symmetry_cell_setting 'tetragonal'
loop_
_space_group_symop_operation_xyz
x,y,z
1/2-y,x,1/2+z
1/2-x,1/2-y,z
y,1/2-x,1/2+z
x,1/2-y,1/2-z
1/2-x,y,1/2-z
y,x,-z
1/2-y,1/2-x,-z
-x,-y,-z
1/2+y,-x,1/2-z
1/2+x,1/2+y,-z
-y,1/2+x,1/2-z
-x,1/2+y,1/2+z
1/2+x,-y,1/2+z
-y,-x,z
1/2+y,1/2+x,z
loop_
_atom_site_type_symbol
_atom_site_label
_atom_site_fract_x
_atom_site_fract_y
_atom_site_fract_z
Si Si1 0.040299 0.959702 0.912845
Si Si2 0.921858 0.421858 0.937338
Si Si3 0.100097 0.231598 0.840266
Si Si4 0.750000 0.250000 0.453696
O O1 0.150656 0.849345 0.911861
O O2 0.910997 0.920732 0.870150
O O3 0.000000 0.000000 0.000000
O O4 0.833076 0.514949 0.886880
O O5 0.833860 0.333860 0.989440
O O6 0.000000 0.500000 0.000000
O O7 0.250000 0.250000 0.851753
O O8 0.070332 0.250000 0.750000
#
# Coordination Sequence:
#
# PCOD9568557 Si02
#       4
#     8   8  16   4
#     4  12  23  43  70 100 140 175 235 292 346 422
#     4  12  23  38  66  95 126 173 228 278 348 418
#     4  11  25  43  65  95 136 181 229 290 358 424
#     4  12  24  38  65 107 128 176 220 286 354 390
#
# _framework density 18.833345000000001
#
# number of rings (size 3 to 8) (size 9 to 14) (size 15 to 20)
#    0.000    0.444    4.444    4.000    0.000    0.000 
#    0.000    4.444    0.000    2.667    0.000    0.000 
#    0.000    0.000    0.000    0.000    0.000    0.000 
#
# Total GULP energy -201047.233861 kJ/mol
# GULP energy per Si atom -5584.645385 kJ/mol
# Density = 1.879048 g / cm^3
# Si number density = 18.833345 Si / 1000 Ang^3
#
#
#
# Elastic Constant Matrix: (Units=GPa)
#
#
# Indices 1 2 3 4 5 6 
#
# 1 164.1635 108.1194 127.2018 0.0000 0.0000 0.0000
# 2 108.1194 164.1635 127.2018 0.0000 0.0000 0.0000
# 3 127.2018 127.2018 123.8824 0.0000 0.0000 0.0000
# 4 0.0000 0.0000 0.0000 41.5993 0.0000 0.0000
# 5 0.0000 0.0000 0.0000 0.0000 41.5993 0.0000
# 6 0.0000 0.0000 0.0000 0.0000 0.0000 69.6500
#
#
#
# Elastic Compliance Matrix: (Units=1/GPa)
#
#
# Indices 1 2 3 4 5 6 
#
# 1 0.054120 0.036277 -0.092819 0.000000 0.000000 0.000000
# 2 0.036277 0.054120 -0.092819 0.000000 0.000000 0.000000
# 3 -0.092819 -0.092819 0.198684 0.000000 0.000000 0.000000
# 4 0.000000 0.000000 0.000000 0.024039 0.000000 0.000000
# 5 0.000000 0.000000 0.000000 0.000000 0.024039 0.000000
# 6 0.000000 0.000000 0.000000 0.000000 0.000000 0.014358
#
#
# Mechanical properties :
#
#
# Convention : Reuss Voigt Hill
#
# Bulk Modulus (GPa) = 121.92176 130.80616 126.36396
# Shear Modulus (GPa) = 7.45364 36.54880 22.00122
#
# Velocity S-wave (km/s) = 1.99155 4.41005 3.42161
# Velocity P-wave (km/s) = 8.37652 9.77429 9.10228
#
# Compressibility (1/GPa) = 0.00820198
#
# Stress axis : x y z
#
# Youngs Moduli (GPa) = 18.47754 18.47754 5.03313
#
# Poissons Ratio (x) = -0.67030 0.46717
# Poissons Ratio (y) = -0.67030 0.46717
# Poissons Ratio (z) = 1.71506 1.71506
#
# Static dielectric constant tensor:
#      x y z
#    x 1.298330 0.000000 0.000000 
#    y 0.000000 1.298330 0.000000 
#    z 0.000000 0.000000 1.630630 
# 
# From -- ./inp_files/5639.got.cif
#   From: 2010.05.17/outbox.cif.g08.bks.cpg/sg134_3_cif.got.tgz:5639.got - 2010.05.20 12:42:49.
