data_PCOD9568848
_publ_section_title
;
Structure prediction by ZEFSAII (Michael W. Deem and Ramdas Pophale) SiO2 
 PCOD9568848
Probable space group: P 42/M B C
;
_chemical_formula_sum "Si O2"
_cell_formula_units_Z 96
_cell_length_a 14.070236
_cell_length_b 14.070236
_cell_length_c 22.025227
_cell_angle_alpha 90.000000
_cell_angle_beta 90.000000
_cell_angle_gamma 90.000000
_cell_volume 4360.368132
_symmetry_space_group_name_H-M "P 42/M B C"
_symmetry_group_IT_number 135
_symmetry_cell_setting 'tetragonal'
loop_
_space_group_symop_operation_xyz
x,y,z
-y,x,1/2+z
-x,-y,z
y,-x,1/2+z
1/2+x,1/2-y,-z
1/2-x,1/2+y,-z
1/2+y,1/2+x,1/2-z
1/2-y,1/2-x,1/2-z
-x,-y,-z
y,-x,1/2-z
x,y,-z
-y,x,1/2-z
1/2-x,1/2+y,z
1/2+x,1/2-y,z
1/2-y,1/2-x,1/2+z
1/2+y,1/2+x,1/2+z
loop_
_atom_site_type_symbol
_atom_site_label
_atom_site_fract_x
_atom_site_fract_y
_atom_site_fract_z
Si Si1 0.802121 0.779811 0.865312
Si Si2 0.403863 0.461211 0.095965
Si Si3 0.101118 0.087732 0.782911
Si Si4 0.801159 0.586494 0.931398
Si Si5 0.500076 0.277807 0.928308
Si Si6 0.372041 0.112069 0.927612
O O1 0.831275 0.823532 0.799522
O O2 0.792648 0.667628 0.880190
O O3 0.711508 0.835678 0.890751
O O4 0.895381 0.800936 0.906003
O O5 0.500000 0.500000 0.065142
O O6 0.396471 0.522265 0.156972
O O7 0.302085 0.463743 0.065187
O O8 0.427296 0.350037 0.102863
O O9 0.994228 0.123304 0.766961
O O10 0.871416 0.500181 0.915929
O O11 0.822321 0.624842 0.000000
O O12 0.468021 0.170409 0.914555
O O13 0.491215 0.291851 0.000000
O O14 0.353325 0.123182 0.000000
#
# Coordination Sequence:
#
# PCOD9568848 Si02
#       6
#    16  16  16  16  16  16
#     4  12  22  39  63  86 128 171 217 268 338 392
#     4  12  20  36  62  91 125 162 222 280 343 383
#     4  11  21  41  64  89 124 161 221 295 336 370
#     4  11  23  38  59  95 136 172 213 264 332 425
#     4  11  21  33  56  90 127 172 214 254 327 409
#     4  10  21  37  57  89 136 174 211 261 322 404
#
# _framework density 22.016490000000001
#
# number of rings (size 3 to 8) (size 9 to 14) (size 15 to 20)
#    0.000    0.833    6.667    2.000    0.000    3.333 
#    0.000    3.333    0.000    0.000    0.000    0.000 
#   10.000    0.000    0.000    0.000    0.000    0.000 
#
# Total GULP energy -535361.258565 kJ/mol
# GULP energy per Si atom -5576.679777 kJ/mol
# Density = 2.196638 g / cm^3
# Si number density = 22.016490 Si / 1000 Ang^3
#
#
#
# Elastic Constant Matrix: (Units=GPa)
#
#
# Indices 1 2 3 4 5 6 
#
# 1 77.7020 20.2443 20.8614 0.0000 0.0000 0.0000
# 2 20.2443 77.7020 20.8614 0.0000 0.0000 0.0000
# 3 20.8614 20.8614 65.2854 0.0000 0.0000 0.0000
# 4 0.0000 0.0000 0.0000 29.1216 0.0000 0.0000
# 5 0.0000 0.0000 0.0000 0.0000 29.1216 0.0000
# 6 0.0000 0.0000 0.0000 0.0000 0.0000 41.3398
#
#
#
# Elastic Compliance Matrix: (Units=1/GPa)
#
#
# Indices 1 2 3 4 5 6 
#
# 1 0.014611 -0.002793 -0.003776 0.000000 0.000000 0.000000
# 2 -0.002793 0.014611 -0.003776 0.000000 0.000000 0.000000
# 3 -0.003776 -0.003776 0.017731 0.000000 0.000000 0.000000
# 4 0.000000 0.000000 0.000000 0.034339 0.000000 0.000000
# 5 0.000000 0.000000 0.000000 0.000000 0.034339 0.000000
# 6 0.000000 0.000000 0.000000 0.000000 0.000000 0.024190
#
#
# Mechanical properties :
#
#
# Convention : Reuss Voigt Hill
#
# Bulk Modulus (GPa) = 38.07825 38.29152 38.18489
# Shear Modulus (GPa) = 29.53929 30.49809 30.01869
#
# Velocity S-wave (km/s) = 3.66688 3.72592 3.69652
# Velocity P-wave (km/s) = 5.93809 5.99499 5.96661
#
# Compressibility (1/GPa) = 0.02626171
#
# Stress axis : x y z
#
# Youngs Moduli (GPa) = 68.44049 68.44049 56.39898
#
# Poissons Ratio (x) = 0.19115 0.21299
# Poissons Ratio (y) = 0.19115 0.21299
# Poissons Ratio (z) = 0.25846 0.25846
#
# Static dielectric constant tensor:
#      x y z
#    x 1.877250 0.000000 0.000000 
#    y 0.000000 1.877250 0.000000 
#    z 0.000000 0.000000 1.815140 
# 
# From -- ./inp_files/5438.got.cif
#   From: 2010.05.17/outbox.cif.g08.bks.cpg/sg135_3_cif.got.tgz:5438.got - 2010.05.20 12:50:20.
