data_PCOD9568687
_publ_section_title
;
Structure prediction by ZEFSAII (Michael W. Deem and Ramdas Pophale) SiO2 
 PCOD9568687
Probable space group: P 42/M B C
;
_chemical_formula_sum "Si O2"
_cell_formula_units_Z 96
_cell_length_a 24.833303
_cell_length_b 24.833303
_cell_length_c 7.792616
_cell_angle_alpha 90.000000
_cell_angle_beta 90.000000
_cell_angle_gamma 90.000000
_cell_volume 4805.651255
_symmetry_space_group_name_H-M "P 42/M B C"
_symmetry_group_IT_number 135
_symmetry_cell_setting 'tetragonal'
loop_
_space_group_symop_operation_xyz
x,y,z
-y,x,1/2+z
-x,-y,z
y,-x,1/2+z
1/2+x,1/2-y,-z
1/2-x,1/2+y,-z
1/2+y,1/2+x,1/2-z
1/2-y,1/2-x,1/2-z
-x,-y,-z
y,-x,1/2-z
x,y,-z
-y,x,1/2-z
1/2-x,1/2+y,z
1/2+x,1/2-y,z
1/2-y,1/2-x,1/2+z
1/2+y,1/2+x,1/2+z
loop_
_atom_site_type_symbol
_atom_site_label
_atom_site_fract_x
_atom_site_fract_y
_atom_site_fract_z
Si Si1 0.722983 0.136662 0.793709
Si Si2 0.511489 0.224717 0.706478
Si Si3 0.291907 0.675044 0.699818
Si Si4 0.809212 0.393158 0.702815
Si Si5 0.111368 0.092083 0.700179
Si Si6 0.014137 0.157033 0.303005
O O1 0.669366 0.169366 0.750000
O O2 0.772975 0.174799 0.728701
O O3 0.717280 0.074091 0.734223
O O4 0.730706 0.133586 0.000000
O O5 0.513602 0.220955 0.500000
O O6 0.456557 0.193247 0.751521
O O7 0.499064 0.285360 0.769941
O O8 0.279933 0.689300 0.500000
O O9 0.238123 0.646947 0.776916
O O10 0.334940 0.627063 0.703619
O O11 0.865264 0.365264 0.750000
O O12 0.801312 0.391235 0.500000
O O13 0.099438 0.079505 0.500000
O O14 0.119241 0.036815 0.795905
O O15 0.064698 0.128361 0.778415
O O16 0.030314 0.167872 0.500000
#
# Coordination Sequence:
#
# PCOD9568687 Si02
#       6
#    16  16  16  16  16  16
#     4  10  20  36  57  82 113 145 179 220 270 325
#     4  10  20  36  57  79 108 144 180 220 269 322
#     4   9  17  32  54  80 110 144 177 219 272 319
#     4  11  22  36  57  84 114 145 182 223 269 324
#     4  10  19  34  53  73 104 144 186 230 275 319
#     4  10  20  34  53  75 102 142 189 232 272 317
#
# _framework density 19.976482000000001
#
# number of rings (size 3 to 8) (size 9 to 14) (size 15 to 20)
#    0.000    2.000    3.333    1.000    0.000    1.667 
#    0.000    3.333    0.000    0.500    0.000    3.500 
#    0.000    0.000    0.000    0.000    0.000    0.000 
#
# Total GULP energy -534511.321567 kJ/mol
# GULP energy per Si atom -5567.826266 kJ/mol
# Density = 1.993101 g / cm^3
# Si number density = 19.976482 Si / 1000 Ang^3
#
#
#
# Elastic Constant Matrix: (Units=GPa)
#
#
# Indices 1 2 3 4 5 6 
#
# 1 59.4401 64.7386 8.3985 0.0000 0.0000 0.0000
# 2 64.7386 59.4401 8.3985 0.0000 0.0000 0.0000
# 3 8.3985 8.3985 31.7168 0.0000 0.0000 0.0000
# 4 0.0000 0.0000 0.0000 16.4880 0.0000 0.0000
# 5 0.0000 0.0000 0.0000 0.0000 16.4880 0.0000
# 6 0.0000 0.0000 0.0000 0.0000 0.0000 31.2685
#
#
#
# Elastic Compliance Matrix: (Units=1/GPa)
#
#
# Indices 1 2 3 4 5 6 
#
# 1 -0.090191 0.098543 -0.002212 0.000000 0.000000 0.000000
# 2 0.098543 -0.090191 -0.002212 0.000000 0.000000 0.000000
# 3 -0.002212 -0.002212 0.032700 0.000000 0.000000 0.000000
# 4 0.000000 0.000000 0.000000 0.060650 0.000000 0.000000
# 5 0.000000 0.000000 0.000000 0.000000 0.060650 0.000000
# 6 0.000000 0.000000 0.000000 0.000000 0.000000 0.031981
#
#
# Mechanical properties :
#
#
# Convention : Reuss Voigt Hill
#
# Bulk Modulus (GPa) = 24.65605 34.85202 29.75404
# Shear Modulus (GPa) = -29.56485 17.45299 -6.05593
#
# Velocity S-wave (km/s) = -3.85123 2.95901 -1.74302
# Velocity P-wave (km/s) = 2.72151 5.39988 3.29789
#
# Compressibility (1/GPa) = 0.04055799
#
# Stress axis : x y z
#
# Youngs Moduli (GPa) = -11.08760 -11.08760 30.58077
#
# Poissons Ratio (x) = 1.09260 0.06763
# Poissons Ratio (y) = 1.09260 0.06763
# Poissons Ratio (z) = -0.02452 -0.02452
#
# Static dielectric constant tensor:
#      x y z
#    x 1.720870 0.000000 0.000000 
#    y 0.000000 1.720870 0.000000 
#    z 0.000000 0.000000 1.745650 
# 
# From -- ./inp_files/1198.got.cif
#   From: 2010.05.17/outbox.cif.g08.bks.cpg/sg135_1_cif.got.tgz:1198.got - 2010.05.20 12:50:20.
