data_PCOD9568030
_publ_section_title
;
Structure prediction by ZEFSAII (Michael W. Deem and Ramdas Pophale) SiO2 
 PCOD9568030
Probable space group: P 42/N B C
;
_chemical_formula_sum "Si O2"
_cell_formula_units_Z 56
_cell_length_a 10.002858
_cell_length_b 10.002858
_cell_length_c 20.143693
_cell_angle_alpha 90.000000
_cell_angle_beta 90.000000
_cell_angle_gamma 90.000000
_cell_volume 2015.520878
_symmetry_space_group_name_H-M "P 42/N B C"
_symmetry_group_IT_number 133
_space_group.IT_coordinate_system_code '2'
_symmetry_cell_setting 'tetragonal'
loop_
_space_group_symop_operation_xyz
x,y,z
1/2-y,x,1/2+z
1/2-x,1/2-y,z
y,1/2-x,1/2+z
x,1/2-y,-z
1/2-x,y,-z
y,x,1/2-z
1/2-y,1/2-x,1/2-z
-x,-y,-z
1/2+y,-x,1/2-z
1/2+x,1/2+y,-z
-y,1/2+x,1/2-z
-x,1/2+y,z
1/2+x,-y,z
-y,-x,1/2+z
1/2+y,1/2+x,1/2+z
loop_
_atom_site_type_symbol
_atom_site_label
_atom_site_fract_x
_atom_site_fract_y
_atom_site_fract_z
Si Si1 0.200169 0.040823 0.139303
Si Si2 0.750000 0.250000 0.250000
Si Si3 0.750000 0.999392 0.000000
Si Si4 0.250000 0.555102 0.500000
Si Si5 0.334819 0.928567 0.642942
Si Si6 0.250000 0.250000 0.750000
O O1 0.256272 0.128085 0.198796
O O2 0.041480 0.052097 0.150801
O O3 0.282251 0.902854 0.133840
O O4 0.231223 0.089949 0.064525
O O5 0.609606 0.254543 0.209085
O O6 0.872220 0.104502 0.001452
O O7 0.247888 0.519224 0.579091
#
# Coordination Sequence:
#
# PCOD9568030 Si02
#       6
#    16   4   8   8  16   4
#     4  11  26  45  71 105 148 194 251 315 383 457
#     4  12  24  42  76 108 152 206 252 308 392 466
#     4   9  20  43  72 100 134 187 244 309 378 456
#     4   9  20  42  72 101 134 179 248 311 380 457
#     4  11  25  47  75 108 147 199 255 318 387 466
#     4  12  28  42  60 104 156 194 244 312 380 462
#
# _framework density 27.784382999999998
#
# number of rings (size 3 to 8) (size 9 to 14) (size 15 to 20)
#    0.000    1.429    0.000    5.143    0.000   15.429 
#    0.000    0.000    0.000    8.571    0.000    0.000 
#    0.000    0.000    0.000    0.000    0.000    0.000 
#
# Total GULP energy -312009.344785 kJ/mol
# GULP energy per Si atom -5571.595443 kJ/mol
# Density = 2.772114 g / cm^3
# Si number density = 27.784383 Si / 1000 Ang^3
#
#
#
# Elastic Constant Matrix: (Units=GPa)
#
#
# Indices 1 2 3 4 5 6 
#
# 1 94.3194 66.1745 58.7928 0.0000 0.0000 0.0000
# 2 66.1745 94.3194 58.7928 0.0000 0.0000 0.0000
# 3 58.7928 58.7928 227.2008 0.0000 0.0000 0.0000
# 4 0.0000 0.0000 0.0000 -6.1776 0.0000 0.0000
# 5 0.0000 0.0000 0.0000 0.0000 -6.1776 0.0000
# 6 0.0000 0.0000 0.0000 0.0000 0.0000 40.5956
#
#
#
# Elastic Compliance Matrix: (Units=1/GPa)
#
#
# Indices 1 2 3 4 5 6 
#
# 1 0.021609 -0.013921 -0.001990 0.000000 0.000000 0.000000
# 2 -0.013921 0.021609 -0.001990 0.000000 0.000000 0.000000
# 3 -0.001990 -0.001990 0.005431 0.000000 0.000000 0.000000
# 4 0.000000 0.000000 0.000000 -0.161876 0.000000 0.000000
# 5 0.000000 0.000000 0.000000 0.000000 -0.161876 0.000000
# 6 0.000000 0.000000 0.000000 0.000000 0.000000 0.024633
#
#
# Mechanical properties :
#
#
# Convention : Reuss Voigt Hill
#
# Bulk Modulus (GPa) = 77.82266 87.03997 82.43131
# Shear Modulus (GPa) = -23.76578 21.12007 -1.32285
#
# Velocity S-wave (km/s) = -2.92783 2.76006 -0.69076
# Velocity P-wave (km/s) = 4.07930 6.44610 5.39411
#
# Compressibility (1/GPa) = 0.01284973
#
# Stress axis : x y z
#
# Youngs Moduli (GPa) = 46.27621 46.27621 184.12634
#
# Poissons Ratio (x) = 0.64421 0.36632
# Poissons Ratio (y) = 0.64421 0.36632
# Poissons Ratio (z) = 0.09207 0.09207
#
# Static dielectric constant tensor:
#      x y z
#    x 2.221230 0.000000 0.000000 
#    y 0.000000 2.221230 0.000000 
#    z 0.000000 0.000000 2.657270 
# 
# From -- ./inp_files/6111.got.cif
#   From: 2010.05.17/outbox.cif.g08.bks.cpg/sg133_4_cif.got.tgz:6111.got - 2010.05.20 12:37:36.
