data_PCOD9568558
_publ_section_title
;
Structure prediction by ZEFSAII (Michael W. Deem and Ramdas Pophale) SiO2 
 PCOD9568558
Probable space group: P 42/N N M
;
_chemical_formula_sum "Si O2"
_cell_formula_units_Z 40
_cell_length_a 10.923024
_cell_length_b 10.923024
_cell_length_c 15.528251
_cell_angle_alpha 90.000000
_cell_angle_beta 90.000000
_cell_angle_gamma 90.000000
_cell_volume 1852.713722
_symmetry_space_group_name_H-M "P 42/N N M"
_symmetry_group_IT_number 134
_space_group.IT_coordinate_system_code '2'
_symmetry_cell_setting 'tetragonal'
loop_
_space_group_symop_operation_xyz
x,y,z
1/2-y,x,1/2+z
1/2-x,1/2-y,z
y,1/2-x,1/2+z
x,1/2-y,1/2-z
1/2-x,y,1/2-z
y,x,-z
1/2-y,1/2-x,-z
-x,-y,-z
1/2+y,-x,1/2-z
1/2+x,1/2+y,-z
-y,1/2+x,1/2-z
-x,1/2+y,1/2+z
1/2+x,-y,1/2+z
-y,-x,z
1/2+y,1/2+x,z
loop_
_atom_site_type_symbol
_atom_site_label
_atom_site_fract_x
_atom_site_fract_y
_atom_site_fract_z
Si Si1 0.073368 0.926633 0.632490
Si Si2 0.250000 0.090023 0.750000
Si Si3 0.881428 0.118573 0.553453
Si Si4 0.010919 0.179510 0.835120
O O1 0.133634 0.866367 0.548572
O O2 0.994808 0.834570 0.690122
O O3 0.979416 0.020584 0.588547
O O4 0.155328 0.161488 0.814835
O O5 0.945663 0.242073 0.590121
O O6 0.965160 0.250000 0.750000
O O7 0.954628 0.045373 0.839234
#
# Coordination Sequence:
#
# PCOD9568558 Si02
#       4
#     8   8   8  16
#     4  11  26  45  68 100 143 189 230 290 349 422
#     4  12  23  47  70  98 140 195 235 274 362 434
#     4  11  25  44  69 108 138 171 242 303 348 408
#     4  12  22  41  71 103 135 182 233 292 352 416
#
# _framework density 21.589953000000001
#
# number of rings (size 3 to 8) (size 9 to 14) (size 15 to 20)
#    0.000    0.400    8.000    1.200    0.000    2.000 
#    7.200    6.000    0.000    0.000    0.000    0.000 
#    0.000    0.000    0.000    0.000    0.000    0.000 
#
# Total GULP energy -222690.342832 kJ/mol
# GULP energy per Si atom -5567.258571 kJ/mol
# Density = 2.154081 g / cm^3
# Si number density = 21.589953 Si / 1000 Ang^3
#
#
#
# Elastic Constant Matrix: (Units=GPa)
#
#
# Indices 1 2 3 4 5 6 
#
# 1 129.3192 67.6411 37.3436 0.0000 0.0000 0.0000
# 2 67.6411 129.3192 37.3436 0.0000 0.0000 0.0000
# 3 37.3436 37.3436 113.4426 0.0000 0.0000 0.0000
# 4 0.0000 0.0000 0.0000 28.8501 0.0000 0.0000
# 5 0.0000 0.0000 0.0000 0.0000 28.8501 0.0000
# 6 0.0000 0.0000 0.0000 0.0000 0.0000 50.0146
#
#
#
# Elastic Compliance Matrix: (Units=1/GPa)
#
#
# Indices 1 2 3 4 5 6 
#
# 1 0.011007 -0.005206 -0.001910 0.000000 0.000000 0.000000
# 2 -0.005206 0.011007 -0.001910 0.000000 0.000000 0.000000
# 3 -0.001910 -0.001910 0.010072 0.000000 0.000000 0.000000
# 4 0.000000 0.000000 0.000000 0.034662 0.000000 0.000000
# 5 0.000000 0.000000 0.000000 0.000000 0.034662 0.000000
# 6 0.000000 0.000000 0.000000 0.000000 0.000000 0.019994
#
#
# Mechanical properties :
#
#
# Convention : Reuss Voigt Hill
#
# Bulk Modulus (GPa) = 71.24464 72.97084 72.10774
# Shear Modulus (GPa) = 34.68987 36.85982 35.77484
#
# Velocity S-wave (km/s) = 4.01279 4.13639 4.07506
# Velocity P-wave (km/s) = 7.38516 7.52894 7.45739
#
# Compressibility (1/GPa) = 0.01403614
#
# Stress axis : x y z
#
# Youngs Moduli (GPa) = 90.84910 90.84910 99.28196
#
# Poissons Ratio (x) = 0.47296 0.18960
# Poissons Ratio (y) = 0.47296 0.18960
# Poissons Ratio (z) = 0.17350 0.17350
#
# Static dielectric constant tensor:
#      x y z
#    x 1.850760 0.000000 0.000000 
#    y 0.000000 1.850760 0.000000 
#    z 0.000000 0.000000 1.806900 
# 
# From -- ./inp_files/5791.got.cif
#   From: 2010.05.17/outbox.cif.g08.bks.cpg/sg134_3_cif.got.tgz:5791.got - 2010.05.20 12:42:49.
