data_PCOD9568667
_publ_section_title
;
Structure prediction by ZEFSAII (Michael W. Deem and Ramdas Pophale) SiO2 
 PCOD9568667
Probable space group: P 42/M B C
;
_chemical_formula_sum "Si O2"
_cell_formula_units_Z 128
_cell_length_a 22.613543
_cell_length_b 22.613543
_cell_length_c 15.195085
_cell_angle_alpha 90.000000
_cell_angle_beta 90.000000
_cell_angle_gamma 90.000000
_cell_volume 7770.345976
_symmetry_space_group_name_H-M "P 42/M B C"
_symmetry_group_IT_number 135
_symmetry_cell_setting 'tetragonal'
loop_
_space_group_symop_operation_xyz
x,y,z
-y,x,1/2+z
-x,-y,z
y,-x,1/2+z
1/2+x,1/2-y,-z
1/2-x,1/2+y,-z
1/2+y,1/2+x,1/2-z
1/2-y,1/2-x,1/2-z
-x,-y,-z
y,-x,1/2-z
x,y,-z
-y,x,1/2-z
1/2-x,1/2+y,z
1/2+x,1/2-y,z
1/2-y,1/2-x,1/2+z
1/2+y,1/2+x,1/2+z
loop_
_atom_site_type_symbol
_atom_site_label
_atom_site_fract_x
_atom_site_fract_y
_atom_site_fract_z
Si Si1 0.287671 0.881299 0.603614
Si Si2 0.292572 0.892295 0.898532
Si Si3 0.471949 0.435355 0.101927
Si Si4 0.804554 0.819865 0.595371
Si Si5 0.266567 0.716991 0.158580
Si Si6 0.799639 0.901728 0.235829
Si Si7 0.885792 0.068573 0.264975
Si Si8 0.467031 0.747372 0.247516
O O1 0.284355 0.893201 0.500000
O O2 0.349400 0.847587 0.622669
O O3 0.239044 0.830758 0.627274
O O4 0.277905 0.939501 0.661213
O O5 0.233651 0.851217 0.891813
O O6 0.284640 0.945012 0.830876
O O7 0.297262 0.910991 0.000000
O O8 0.500000 0.500000 0.095066
O O9 0.519760 0.398934 0.160028
O O10 0.417221 0.441346 0.170162
O O11 0.461050 0.415220 0.000000
O O12 0.815151 0.846575 0.500000
O O13 0.742035 0.785253 0.597837
O O14 0.806760 0.868421 0.670621
O O15 0.250621 0.750621 0.250000
O O16 0.267717 0.647272 0.175580
O O17 0.867235 0.908518 0.203350
O O18 0.766680 0.963510 0.247816
O O19 0.816167 0.065560 0.249738
#
# Coordination Sequence:
#
# PCOD9568667 Si02
#       8
#    16  16  16  16  16  16  16  16
#     4  10  19  32  53  76  96 125 169 213 255 304
#     4   9  18  34  55  74  92 126 174 212 252 308
#     4  11  22  37  53  60  79 131 189 228 257 287
#     4   9  17  32  54  74  93 125 170 213 254 307
#     4   9  16  32  51  70  93 127 168 211 259 298
#     4  11  21  31  48  72 102 135 163 209 252 301
#     4  12  20  36  46  66 102 129 173 216 252 290
#     4  12  21  32  50  70 106 136 161 209 257 293
#
# _framework density 16.472882999999999
#
# number of rings (size 3 to 8) (size 9 to 14) (size 15 to 20)
#    0.000    1.625    5.000    3.000    0.000    2.000 
#    0.000    1.875    0.000    0.000    0.000    0.000 
#    0.000   18.000    0.000   29.250    0.000    0.000 
#
# Total GULP energy -713307.068015 kJ/mol
# GULP energy per Si atom -5572.711469 kJ/mol
# Density = 1.643539 g / cm^3
# Si number density = 16.472883 Si / 1000 Ang^3
#
#
#
# Elastic Constant Matrix: (Units=GPa)
#
#
# Indices 1 2 3 4 5 6 
#
# 1 39.4210 -4.2782 10.7001 0.0000 0.0000 0.0000
# 2 -4.2782 39.4210 10.7001 0.0000 0.0000 0.0000
# 3 10.7001 10.7001 74.3352 0.0000 0.0000 0.0000
# 4 0.0000 0.0000 0.0000 9.2902 0.0000 0.0000
# 5 0.0000 0.0000 0.0000 0.0000 9.2902 0.0000
# 6 0.0000 0.0000 0.0000 0.0000 0.0000 21.7309
#
#
#
# Elastic Compliance Matrix: (Units=1/GPa)
#
#
# Indices 1 2 3 4 5 6 
#
# 1 0.027036 0.004153 -0.004489 0.000000 0.000000 0.000000
# 2 0.004153 0.027036 -0.004489 0.000000 0.000000 0.000000
# 3 -0.004489 -0.004489 0.014745 0.000000 0.000000 0.000000
# 4 0.000000 0.000000 0.000000 0.107641 0.000000 0.000000
# 5 0.000000 0.000000 0.000000 0.000000 0.107641 0.000000
# 6 0.000000 0.000000 0.000000 0.000000 0.000000 0.046017
#
#
# Mechanical properties :
#
#
# Convention : Reuss Voigt Hill
#
# Bulk Modulus (GPa) = 16.90175 20.82458 18.86317
# Shear Modulus (GPa) = 13.90854 17.13259 15.52057
#
# Velocity S-wave (km/s) = 2.90889 3.22848 3.07284
# Velocity P-wave (km/s) = 4.64379 5.15428 4.90568
#
# Compressibility (1/GPa) = 0.05916546
#
# Stress axis : x y z
#
# Youngs Moduli (GPa) = 36.98711 36.98711 67.81943
#
# Poissons Ratio (x) = -0.15360 0.30447
# Poissons Ratio (y) = -0.15360 0.30447
# Poissons Ratio (z) = 0.16605 0.16605
#
# Static dielectric constant tensor:
#      x y z
#    x 1.564340 0.000000 0.000000 
#    y 0.000000 1.564340 0.000000 
#    z 0.000000 0.000000 1.611170 
# 
# From -- ./inp_files/4747.got.cif
#   From: 2010.05.17/outbox.cif.g08.bks.cpg/sg135_3_cif.got.tgz:4747.got - 2010.05.20 12:50:20.
