data_PCOD9568790
_publ_section_title
;
Structure prediction by ZEFSAII (Michael W. Deem and Ramdas Pophale) SiO2 
 PCOD9568790
Probable space group: P 42/M B C
;
_chemical_formula_sum "Si O2"
_cell_formula_units_Z 96
_cell_length_a 24.530468
_cell_length_b 24.530468
_cell_length_c 7.884155
_cell_angle_alpha 90.000000
_cell_angle_beta 90.000000
_cell_angle_gamma 90.000000
_cell_volume 4744.241865
_symmetry_space_group_name_H-M "P 42/M B C"
_symmetry_group_IT_number 135
_symmetry_cell_setting 'tetragonal'
loop_
_space_group_symop_operation_xyz
x,y,z
-y,x,1/2+z
-x,-y,z
y,-x,1/2+z
1/2+x,1/2-y,-z
1/2-x,1/2+y,-z
1/2+y,1/2+x,1/2-z
1/2-y,1/2-x,1/2-z
-x,-y,-z
y,-x,1/2-z
x,y,-z
-y,x,1/2-z
1/2-x,1/2+y,z
1/2+x,1/2-y,z
1/2-y,1/2-x,1/2+z
1/2+y,1/2+x,1/2+z
loop_
_atom_site_type_symbol
_atom_site_label
_atom_site_fract_x
_atom_site_fract_y
_atom_site_fract_z
Si Si1 0.687431 0.103633 0.797809
Si Si2 0.904058 0.881720 0.305093
Si Si3 0.237583 0.510142 0.297979
Si Si4 0.986514 0.143297 0.693336
Si Si5 0.290672 0.326174 0.208285
Si Si6 0.722109 0.863341 0.296720
O O1 0.629311 0.129311 0.750000
O O2 0.732755 0.148577 0.735896
O O3 0.698590 0.041868 0.735289
O O4 0.692640 0.101727 0.000000
O O5 0.914978 0.866640 0.500000
O O6 0.865399 0.932905 0.299738
O O7 0.872215 0.832087 0.227443
O O8 0.963829 0.892250 0.235216
O O9 0.246040 0.512750 0.500000
O O10 0.294388 0.495672 0.207795
O O11 0.224458 0.572901 0.240426
O O12 0.972076 0.129096 0.500000
O O13 0.320956 0.270005 0.264451
O O14 0.289474 0.323368 0.000000
O O15 0.665534 0.834467 0.250000
O O16 0.727564 0.864811 0.500000
#
# Coordination Sequence:
#
# PCOD9568790 Si02
#       6
#    16  16  16  16  16  16
#     4  11  22  38  60  88 121 153 193 237 284 342
#     4  10  20  37  55  75 111 151 192 243 291 336
#     4  11  22  38  60  84 115 154 189 230 288 343
#     4  11  22  36  56  81 108 149 201 245 287 339
#     4   9  17  34  56  81 116 152 183 229 285 334
#     4  10  21  37  58  84 115 149 185 228 280 338
#
# _framework density 20.235056
#
# number of rings (size 3 to 8) (size 9 to 14) (size 15 to 20)
#    0.000    1.667    3.333    2.000    0.000    3.000 
#    0.000    2.500    0.000    0.500    0.000    3.500 
#    0.000    0.000    0.000    0.000    0.000    0.000 
#
# Total GULP energy -534738.648314 kJ/mol
# GULP energy per Si atom -5570.194253 kJ/mol
# Density = 2.018900 g / cm^3
# Si number density = 20.235056 Si / 1000 Ang^3
#
#
#
# Elastic Constant Matrix: (Units=GPa)
#
#
# Indices 1 2 3 4 5 6 
#
# 1 7309.4352-7180.5756 8.0515 0.0000 0.0000 0.0000
# 2 -7180.5756 7310.1926 8.2182 0.0000 0.0000 0.0000
# 3 8.0515 8.2182 39.4301 0.0000 0.0000 0.0000
# 4 0.0000 0.0000 0.0000 17.1949 0.0000 0.0000
# 5 0.0000 0.0000 0.0000 0.0000 17.1952 0.0000
# 6 0.0000 0.0000 0.0000 0.0000 0.0000 31.0136
#
#
#
# Elastic Compliance Matrix: (Units=1/GPa)
#
#
# Indices 1 2 3 4 5 6 
#
# 1 0.004007 0.003937 -0.001639 0.000000 0.000000 0.000000
# 2 0.003937 0.004006 -0.001639 0.000000 0.000000 0.000000
# 3 -0.001639 -0.001639 0.026038 0.000000 0.000000 0.000000
# 4 0.000000 0.000000 0.000000 0.058157 0.000000 0.000000
# 5 0.000000 0.000000 0.000000 0.000000 0.058156 0.000000
# 6 0.000000 0.000000 0.000000 0.000000 0.000000 0.032244
#
#
# Mechanical properties :
#
#
# Convention : Reuss Voigt Hill
#
# Bulk Modulus (GPa) = 28.27269 36.71622 32.49445
# Shear Modulus (GPa) = 25.89629 1467.97165 746.93397
#
# Velocity S-wave (km/s) = 3.58127 26.96358 19.23357
# Velocity P-wave (km/s) = 5.57702 31.42553 22.56842
#
# Compressibility (1/GPa) = 0.03536983
#
# Stress axis : x y z
#
# Youngs Moduli (GPa) = 249.58333 249.60685 38.40605
#
# Poissons Ratio (x) = -0.98282 0.06294
# Poissons Ratio (y) = -0.98273 0.06295
# Poissons Ratio (z) = 0.40902 0.40911
#
# Static dielectric constant tensor:
#      x y z
#    x 1.759610 0.000000 0.000000 
#    y 0.000000 1.759610 0.000000 
#    z 0.000000 0.000000 1.769680 
# 
# From -- ./inp_files/1266.got.cif
#   From: 2010.05.17/outbox.cif.g08.bks.cpg/sg135_1_cif.got.tgz:1266.got - 2010.05.20 12:50:20.
