data_PCOD9568046
_publ_section_title
;
Structure prediction by ZEFSAII (Michael W. Deem and Ramdas Pophale) SiO2 
 PCOD9568046
Probable space group: P 42/N B C
;
_chemical_formula_sum "Si O2"
_cell_formula_units_Z 60
_cell_length_a 15.000794
_cell_length_b 15.000794
_cell_length_c 11.706373
_cell_angle_alpha 90.000000
_cell_angle_beta 90.000000
_cell_angle_gamma 90.000000
_cell_volume 2634.212778
_symmetry_space_group_name_H-M "P 42/N B C"
_symmetry_group_IT_number 133
_space_group.IT_coordinate_system_code '2'
_symmetry_cell_setting 'tetragonal'
loop_
_space_group_symop_operation_xyz
x,y,z
1/2-y,x,1/2+z
1/2-x,1/2-y,z
y,1/2-x,1/2+z
x,1/2-y,-z
1/2-x,y,-z
y,x,1/2-z
1/2-y,1/2-x,1/2-z
-x,-y,-z
1/2+y,-x,1/2-z
1/2+x,1/2+y,-z
-y,1/2+x,1/2-z
-x,1/2+y,z
1/2+x,-y,z
-y,-x,1/2+z
1/2+y,1/2+x,1/2+z
loop_
_atom_site_type_symbol
_atom_site_label
_atom_site_fract_x
_atom_site_fract_y
_atom_site_fract_z
Si Si1 0.170853 0.591508 0.133773
Si Si2 0.250000 0.750000 0.000000
Si Si3 0.009205 0.667305 0.239094
Si Si4 0.250000 0.433682 0.500000
Si Si5 0.904182 0.550872 0.023087
O O1 0.079707 0.592047 0.204076
O O2 0.255750 0.569725 0.207318
O O3 0.187475 0.685964 0.073926
O O4 0.160714 0.515586 0.040777
O O5 0.975299 0.714457 0.121296
O O6 0.949944 0.627082 0.343511
O O7 0.349071 0.394616 0.528851
O O8 0.000000 0.500000 0.000000
#
# Coordination Sequence:
#
# PCOD9568046 Si02
#       5
#    16   4  16   8  16
#     4  12  25  44  76 112 155 199 257 343 417 495
#     4  12  22  46  72 120 154 188 276 338 430 494
#     4  12  25  46  73 113 155 204 268 335 422 492
#     4  12  27  44  77 111 153 214 270 325 402 506
#     4  12  26  49  74 111 155 210 270 332 416 499
#
# _framework density 22.777204000000001
#
# number of rings (size 3 to 8) (size 9 to 14) (size 15 to 20)
#    0.000    0.000    5.333    4.800    0.000    3.200 
#    0.000    2.667    0.000    6.400    0.000    0.000 
#    0.000    0.000    0.000    0.000    0.000    0.000 
#
# Total GULP energy -334135.914203 kJ/mol
# GULP energy per Si atom -5568.931903 kJ/mol
# Density = 2.272536 g / cm^3
# Si number density = 22.777204 Si / 1000 Ang^3
#
#
#
# Elastic Constant Matrix: (Units=GPa)
#
#
# Indices 1 2 3 4 5 6 
#
# 1 109.8910 37.5046 40.8440 0.0000 0.0000 0.0000
# 2 37.5046 109.8910 40.8440 0.0000 0.0000 0.0000
# 3 40.8440 40.8440 141.2256 0.0000 0.0000 0.0000
# 4 0.0000 0.0000 0.0000 6.7563 0.0000 0.0000
# 5 0.0000 0.0000 0.0000 0.0000 6.7563 0.0000
# 6 0.0000 0.0000 0.0000 0.0000 0.0000 33.1960
#
#
#
# Elastic Compliance Matrix: (Units=1/GPa)
#
#
# Indices 1 2 3 4 5 6 
#
# 1 0.010947 -0.002868 -0.002337 0.000000 0.000000 0.000000
# 2 -0.002868 0.010947 -0.002337 0.000000 0.000000 0.000000
# 3 -0.002337 -0.002337 0.008432 0.000000 0.000000 0.000000
# 4 0.000000 0.000000 0.000000 0.148009 0.000000 0.000000
# 5 0.000000 0.000000 0.000000 0.000000 0.148009 0.000000
# 6 0.000000 0.000000 0.000000 0.000000 0.000000 0.030124
#
#
# Mechanical properties :
#
#
# Convention : Reuss Voigt Hill
#
# Bulk Modulus (GPa) = 65.59655 66.59919 66.09787
# Shear Modulus (GPa) = 13.27553 25.46275 19.36914
#
# Velocity S-wave (km/s) = 2.41683 3.34714 2.91928
# Velocity P-wave (km/s) = 6.05391 6.65136 6.35966
#
# Compressibility (1/GPa) = 0.01524470
#
# Stress axis : x y z
#
# Youngs Moduli (GPa) = 91.34836 91.34836 118.58950
#
# Poissons Ratio (x) = 0.26195 0.27710
# Poissons Ratio (y) = 0.26195 0.27710
# Poissons Ratio (z) = 0.21345 0.21345
#
# Static dielectric constant tensor:
#      x y z
#    x 1.854380 0.000000 0.000000 
#    y 0.000000 1.854380 0.000000 
#    z 0.000000 0.000000 1.915950 
# 
# From -- ./inp_files/1368.got.cif
#   From: 2010.05.17/outbox.cif.g08.bks.cpg/sg133_1_cif.got.tgz:1368.got - 2010.05.20 12:37:36.
