data_PCOD9568395
_publ_section_title
;
Structure prediction by ZEFSAII (Michael W. Deem and Ramdas Pophale) SiO2 
 PCOD9568395
Probable space group: P 42/N N M
;
_chemical_formula_sum "Si O2"
_cell_formula_units_Z 96
_cell_length_a 22.655656
_cell_length_b 22.655656
_cell_length_c 8.739407
_cell_angle_alpha 90.000000
_cell_angle_beta 90.000000
_cell_angle_gamma 90.000000
_cell_volume 4485.751890
_symmetry_space_group_name_H-M "P 42/N N M"
_symmetry_group_IT_number 134
_space_group.IT_coordinate_system_code '2'
_symmetry_cell_setting 'tetragonal'
loop_
_space_group_symop_operation_xyz
x,y,z
1/2-y,x,1/2+z
1/2-x,1/2-y,z
y,1/2-x,1/2+z
x,1/2-y,1/2-z
1/2-x,y,1/2-z
y,x,-z
1/2-y,1/2-x,-z
-x,-y,-z
1/2+y,-x,1/2-z
1/2+x,1/2+y,-z
-y,1/2+x,1/2-z
-x,1/2+y,1/2+z
1/2+x,-y,1/2+z
-y,-x,z
1/2+y,1/2+x,z
loop_
_atom_site_type_symbol
_atom_site_label
_atom_site_fract_x
_atom_site_fract_y
_atom_site_fract_z
Si Si1 0.755027 0.009432 0.931079
Si Si2 0.346962 0.079162 0.121986
Si Si3 0.815331 0.690259 0.682203
Si Si4 0.869117 0.466038 0.374826
Si Si5 0.797238 0.387668 0.135787
Si Si6 0.457374 0.055131 0.680640
O O1 0.750000 0.019065 0.750000
O O2 0.711816 0.951701 0.946904
O O3 0.821626 0.007001 0.003612
O O4 0.728930 0.066394 0.016128
O O5 0.336983 0.128284 0.253162
O O6 0.388975 0.033837 0.211992
O O7 0.385108 0.114893 0.000000
O O8 0.845507 0.750000 0.750000
O O9 0.750000 0.692490 0.750000
O O10 0.811377 0.688624 0.500000
O O11 0.921770 0.421770 0.437238
O O12 0.833249 0.427156 0.256100
O O13 0.900924 0.515925 0.272453
O O14 0.750000 0.358294 0.250000
O O15 0.839416 0.339416 0.062686
O O16 0.440425 0.059576 0.500000
O O17 0.514199 0.014199 0.691065
#
# Coordination Sequence:
#
# PCOD9568395 Si02
#       6
#    16  16  16  16  16  16
#     4  11  23  37  58  90 126 159 205 266 331 397
#     4  12  25  38  57  89 125 165 209 257 321 394
#     4  11  23  42  64  87 118 157 206 259 314 376
#     4   9  19  39  62  82 111 158 213 261 310 379
#     4   9  19  37  61  87 116 157 205 255 317 390
#     4  10  21  37  57  81 112 154 203 255 311 372
#
# _framework density 21.401094000000001
#
# number of rings (size 3 to 8) (size 9 to 14) (size 15 to 20)
#    0.000    1.667    0.000    5.000    0.000    4.500 
#    0.000    0.000    0.000    0.000    0.000    2.333 
#    0.000    0.000    0.000    0.000    0.000    0.000 
#
# Total GULP energy -534904.146877 kJ/mol
# GULP energy per Si atom -5571.918197 kJ/mol
# Density = 2.135238 g / cm^3
# Si number density = 21.401094 Si / 1000 Ang^3
#
#
#
# Elastic Constant Matrix: (Units=GPa)
#
#
# Indices 1 2 3 4 5 6 
#
# 1 127.6939 -26.7055 24.3569 0.0000 0.0000 0.0000
# 2 -26.7055 127.6869 24.3370 0.0000 0.0000 0.0000
# 3 24.3569 24.3370 89.3118 0.0000 0.0000 0.0000
# 4 0.0000 0.0000 0.0000 28.6280 0.0000 0.0000
# 5 0.0000 0.0000 0.0000 0.0000 28.6305 0.0000
# 6 0.0000 0.0000 0.0000 0.0000 0.0000 38.0155
#
#
#
# Elastic Compliance Matrix: (Units=1/GPa)
#
#
# Indices 1 2 3 4 5 6 
#
# 1 0.008939 0.002462 -0.003109 0.000000 0.000000 0.000000
# 2 0.002462 0.008939 -0.003107 0.000000 0.000000 0.000000
# 3 -0.003109 -0.003107 0.012891 0.000000 0.000000 0.000000
# 4 0.000000 0.000000 0.000000 0.034931 0.000000 0.000000
# 5 0.000000 0.000000 0.000000 0.000000 0.034928 0.000000
# 6 0.000000 0.000000 0.000000 0.000000 0.000000 0.026305
#
#
# Mechanical properties :
#
#
# Convention : Reuss Voigt Hill
#
# Bulk Modulus (GPa) = 42.98959 43.18548 43.08754
# Shear Modulus (GPa) = 35.16310 40.56842 37.86576
#
# Velocity S-wave (km/s) = 4.05785 4.35860 4.21091
# Velocity P-wave (km/s) = 6.48738 6.74928 6.61962
#
# Compressibility (1/GPa) = 0.02326144
#
# Stress axis : x y z
#
# Youngs Moduli (GPa) = 111.86759 111.87124 77.57189
#
# Poissons Ratio (x) = -0.27544 0.24115
# Poissons Ratio (y) = -0.27543 0.24104
# Poissons Ratio (z) = 0.34777 0.34761
#
# Static dielectric constant tensor:
#      x y z
#    x 1.886610 0.000000 0.000000 
#    y 0.000000 1.886610 0.000000 
#    z 0.000000 0.000000 1.784730 
# 
# From -- ./inp_files/3215.got.cif
#   From: 2010.05.17/outbox.cif.g08.bks.cpg/sg134_2_cif.got.tgz:3215.got - 2010.05.20 12:42:49.
