data_PCOD9568311
_publ_section_title
;
Structure prediction by ZEFSAII (Michael W. Deem and Ramdas Pophale) SiO2 
 PCOD9568311
Probable space group: P 42/N N M
;
_chemical_formula_sum "Si O2"
_cell_formula_units_Z 80
_cell_length_a 11.094872
_cell_length_b 11.094872
_cell_length_c 33.413447
_cell_angle_alpha 90.000000
_cell_angle_beta 90.000000
_cell_angle_gamma 90.000000
_cell_volume 4113.067843
_symmetry_space_group_name_H-M "P 42/N N M"
_symmetry_group_IT_number 134
_space_group.IT_coordinate_system_code '2'
_symmetry_cell_setting 'tetragonal'
loop_
_space_group_symop_operation_xyz
x,y,z
1/2-y,x,1/2+z
1/2-x,1/2-y,z
y,1/2-x,1/2+z
x,1/2-y,1/2-z
1/2-x,y,1/2-z
y,x,-z
1/2-y,1/2-x,-z
-x,-y,-z
1/2+y,-x,1/2-z
1/2+x,1/2+y,-z
-y,1/2+x,1/2-z
-x,1/2+y,1/2+z
1/2+x,-y,1/2+z
-y,-x,z
1/2+y,1/2+x,z
loop_
_atom_site_type_symbol
_atom_site_label
_atom_site_fract_x
_atom_site_fract_y
_atom_site_fract_z
Si Si1 0.868303 0.674942 0.863159
Si Si2 0.251086 0.553939 0.571210
Si Si3 0.448811 0.754757 0.705368
Si Si4 0.448091 0.752060 0.398791
Si Si5 0.511093 0.805178 0.486184
O O1 0.750000 0.750000 0.855442
O O2 0.815946 0.539967 0.869056
O O3 0.936335 0.726152 0.902626
O O4 0.961311 0.704677 0.827835
O O5 0.347971 0.652030 0.585474
O O6 0.119549 0.619549 0.575042
O O7 0.272787 0.528918 0.524206
O O8 0.503756 0.750000 0.750000
O O9 0.339531 0.660470 0.707134
O O10 0.384730 0.884730 0.696829
O O11 0.338947 0.661054 0.405276
O O12 0.381698 0.881698 0.388981
O O13 0.516519 0.757903 0.441404
O O14 0.633955 0.866046 0.500000
O O15 0.409219 0.909219 0.483500
#
# Coordination Sequence:
#
# PCOD9568311 Si02
#       5
#    16  16  16  16  16
#     4  12  24  35  54  83 116 148 182 227 277 332
#     4  10  20  35  56  80 106 141 191 248 297 337
#     4   9  19  39  67  94 117 141 172 219 284 350
#     4  10  21  37  54  74 108 155 199 231 265 320
#     4   9  17  31  51  75 107 145 186 236 290 337
#
# _framework density 19.450199999999999
#
# number of rings (size 3 to 8) (size 9 to 14) (size 15 to 20)
#    0.000    2.000    0.000    4.800    0.000    8.400 
#    0.000    4.000    0.000    0.000    0.000    0.000 
#    0.000    6.400    0.000    0.000    0.000    0.000 
#
# Total GULP energy -445737.837433 kJ/mol
# GULP energy per Si atom -5571.722968 kJ/mol
# Density = 1.940593 g / cm^3
# Si number density = 19.450200 Si / 1000 Ang^3
#
#
#
# Elastic Constant Matrix: (Units=GPa)
#
#
# Indices 1 2 3 4 5 6 
#
# 1 67.9697 19.8373 45.2680 0.0000 0.0000 0.0000
# 2 19.8373 67.9693 45.2684 0.0000 0.0000 0.0000
# 3 45.2680 45.2684 97.6143 0.0000 0.0000 0.0000
# 4 0.0000 0.0000 0.0000 10.8358 0.0000 0.0000
# 5 0.0000 0.0000 0.0000 0.0000 10.8360 0.0000
# 6 0.0000 0.0000 0.0000 0.0000 0.0000 27.9135
#
#
#
# Elastic Compliance Matrix: (Units=1/GPa)
#
#
# Indices 1 2 3 4 5 6 
#
# 1 0.021300 0.000524 -0.010121 0.000000 0.000000 0.000000
# 2 0.000524 0.021300 -0.010121 0.000000 0.000000 0.000000
# 3 -0.010121 -0.010121 0.019631 0.000000 0.000000 0.000000
# 4 0.000000 0.000000 0.000000 0.092287 0.000000 0.000000
# 5 0.000000 0.000000 0.000000 0.000000 0.092285 0.000000
# 6 0.000000 0.000000 0.000000 0.000000 0.000000 0.035825
#
#
# Mechanical properties :
#
#
# Convention : Reuss Voigt Hill
#
# Bulk Modulus (GPa) = 43.86685 50.47786 47.17235
# Shear Modulus (GPa) = 15.16704 18.12903 16.64804
#
# Velocity S-wave (km/s) = 2.79550 3.05630 2.92880
# Velocity P-wave (km/s) = 5.74649 6.20188 5.97852
#
# Compressibility (1/GPa) = 0.02279626
#
# Stress axis : x y z
#
# Youngs Moduli (GPa) = 46.94855 46.94772 50.93887
#
# Poissons Ratio (x) = -0.02460 0.51554
# Poissons Ratio (y) = -0.02460 0.51555
# Poissons Ratio (z) = 0.47515 0.47516
#
# Static dielectric constant tensor:
#      x y z
#    x 1.700020 0.000000 0.000000 
#    y 0.000000 1.700020 0.000000 
#    z 0.000000 0.000000 1.708490 
# 
# From -- ./inp_files/11336.got.cif
#   From: 2010.05.17/outbox.cif.g08.bks.cpg/sg134_6_cif.got.tgz:11336.got - 2010.05.20 12:42:49.
