data_PCOD9568289
_publ_section_title
;
Structure prediction by ZEFSAII (Michael W. Deem and Ramdas Pophale) SiO2 
 PCOD9568289
Probable space group: P 42/N N M
;
_chemical_formula_sum "Si O2"
_cell_formula_units_Z 64
_cell_length_a 24.004143
_cell_length_b 24.004143
_cell_length_c 5.251314
_cell_angle_alpha 90.000000
_cell_angle_beta 90.000000
_cell_angle_gamma 90.000000
_cell_volume 3025.801251
_symmetry_space_group_name_H-M "P 42/N N M"
_symmetry_group_IT_number 134
_space_group.IT_coordinate_system_code '2'
_symmetry_cell_setting 'tetragonal'
loop_
_space_group_symop_operation_xyz
x,y,z
1/2-y,x,1/2+z
1/2-x,1/2-y,z
y,1/2-x,1/2+z
x,1/2-y,1/2-z
1/2-x,y,1/2-z
y,x,-z
1/2-y,1/2-x,-z
-x,-y,-z
1/2+y,-x,1/2-z
1/2+x,1/2+y,-z
-y,1/2+x,1/2-z
-x,1/2+y,1/2+z
1/2+x,-y,1/2+z
-y,-x,z
1/2+y,1/2+x,z
loop_
_atom_site_type_symbol
_atom_site_label
_atom_site_fract_x
_atom_site_fract_y
_atom_site_fract_z
Si Si1 0.799635 0.514450 0.428521
Si Si2 0.190946 0.601550 0.314747
Si Si3 0.127316 0.078359 0.256832
Si Si4 0.613615 0.473844 0.461096
O O1 0.750000 0.534234 0.250000
O O2 0.790740 0.450543 0.511709
O O3 0.812859 0.552898 0.671606
O O4 0.854777 0.507933 0.255511
O O5 0.250000 0.629609 0.250000
O O6 0.146246 0.646246 0.419446
O O7 0.157591 0.569283 0.088862
O O8 0.118659 0.118659 0.500000
O O9 0.096514 0.020445 0.332763
O O10 0.106592 0.106592 0.000000
O O11 0.562068 0.437933 0.367391
#
# Coordination Sequence:
#
# PCOD9568289 Si02
#       4
#    16  16  16  16
#     4  11  21  38  63  84 116 165 220 258 314 387
#     4  10  20  34  54  81 115 156 213 279 333 384
#     4  11  23  41  58  90 125 159 203 261 312 376
#     4  10  21  37  59  84 117 161 209 259 314 375
#
# _framework density 21.151420999999999
#
# number of rings (size 3 to 8) (size 9 to 14) (size 15 to 20)
#    0.000    1.500    5.000    0.750    0.000    2.250 
#    0.000    0.000    0.000    0.000    0.000    0.000 
#    0.000    0.000    0.000   15.750    1.000    0.000 
#
# Total GULP energy -356649.156543 kJ/mol
# GULP energy per Si atom -5572.643071 kJ/mol
# Density = 2.110328 g / cm^3
# Si number density = 21.151421 Si / 1000 Ang^3
#
#
#
# Elastic Constant Matrix: (Units=GPa)
#
#
# Indices 1 2 3 4 5 6 
#
# 1 59.4763 42.9274 35.3121 0.0000 0.0000 0.0000
# 2 42.9274 59.4763 35.3121 0.0000 0.0000 0.0000
# 3 35.3121 35.3121 109.8989 0.0000 0.0000 0.0000
# 4 0.0000 0.0000 0.0000 21.1233 0.0000 0.0000
# 5 0.0000 0.0000 0.0000 0.0000 21.1233 0.0000
# 6 0.0000 0.0000 0.0000 0.0000 0.0000 4.4160
#
#
#
# Elastic Compliance Matrix: (Units=1/GPa)
#
#
# Indices 1 2 3 4 5 6 
#
# 1 0.036486 -0.023941 -0.004031 0.000000 0.000000 0.000000
# 2 -0.023941 0.036486 -0.004031 0.000000 0.000000 0.000000
# 3 -0.004031 -0.004031 0.011690 0.000000 0.000000 0.000000
# 4 0.000000 0.000000 0.000000 0.047341 0.000000 0.000000
# 5 0.000000 0.000000 0.000000 0.000000 0.047341 0.000000
# 6 0.000000 0.000000 0.000000 0.000000 0.000000 0.226448
#
#
# Mechanical properties :
#
#
# Convention : Reuss Voigt Hill
#
# Bulk Modulus (GPa) = 48.41124 50.66162 49.53643
# Shear Modulus (GPa) = 10.48917 17.01921 13.75419
#
# Velocity S-wave (km/s) = 2.22932 2.83969 2.55281
# Velocity P-wave (km/s) = 5.43729 5.89539 5.67097
#
# Compressibility (1/GPa) = 0.02065636
#
# Stress axis : x y z
#
# Youngs Moduli (GPa) = 27.40775 27.40775 85.54550
#
# Poissons Ratio (x) = 0.65616 0.34483
# Poissons Ratio (y) = 0.65616 0.34483
# Poissons Ratio (z) = 0.11048 0.11048
#
# Static dielectric constant tensor:
#      x y z
#    x 1.812650 0.000000 0.000000 
#    y 0.000000 1.812650 0.000000 
#    z 0.000000 0.000000 1.915120 
# 
# From -- ./inp_files/917.got.cif
#   From: 2010.05.17/outbox.cif.g08.bks.cpg/sg134_1_cif.got.tgz:917.got - 2010.05.20 12:42:49.
