data_PCOD9568822
_publ_section_title
;
Structure prediction by ZEFSAII (Michael W. Deem and Ramdas Pophale) SiO2 
 PCOD9568822
Probable space group: P 42/M B C
;
_chemical_formula_sum "Si O2"
_cell_formula_units_Z 116
_cell_length_a 17.220768
_cell_length_b 17.220768
_cell_length_c 18.191205
_cell_angle_alpha 90.000000
_cell_angle_beta 90.000000
_cell_angle_gamma 90.000000
_cell_volume 5394.690079
_symmetry_space_group_name_H-M "P 42/M B C"
_symmetry_group_IT_number 135
_symmetry_cell_setting 'tetragonal'
loop_
_space_group_symop_operation_xyz
x,y,z
-y,x,1/2+z
-x,-y,z
y,-x,1/2+z
1/2+x,1/2-y,-z
1/2-x,1/2+y,-z
1/2+y,1/2+x,1/2-z
1/2-y,1/2-x,1/2-z
-x,-y,-z
y,-x,1/2-z
x,y,-z
-y,x,1/2-z
1/2-x,1/2+y,z
1/2+x,1/2-y,z
1/2-y,1/2-x,1/2+z
1/2+y,1/2+x,1/2+z
loop_
_atom_site_type_symbol
_atom_site_label
_atom_site_fract_x
_atom_site_fract_y
_atom_site_fract_z
Si Si1 0.901873 0.936763 0.635069
Si Si2 0.100181 0.378265 0.586508
Si Si3 0.760465 0.332107 0.175512
Si Si4 0.500000 0.500000 0.500000
Si Si5 0.717242 0.681666 0.086649
Si Si6 0.458917 0.125344 0.310937
Si Si7 0.595102 0.368248 0.209519
Si Si8 0.193898 0.425114 0.287502
O O1 0.841371 0.867206 0.618097
O O2 0.931967 0.909308 0.715272
O O3 0.959361 0.945827 0.566091
O O4 0.872913 0.024926 0.651083
O O5 0.098168 0.391726 0.500000
O O6 0.119275 0.286550 0.600150
O O7 0.167436 0.426616 0.628111
O O8 0.020278 0.398010 0.627679
O O9 0.789438 0.289438 0.250000
O O10 0.750839 0.262244 0.118633
O O11 0.834115 0.384839 0.153781
O O12 0.683002 0.385833 0.182829
O O13 0.708733 0.688041 0.000000
O O14 0.438515 0.061486 0.250000
O O15 0.495443 0.189850 0.256380
O O16 0.608223 0.277635 0.224840
O O17 0.130032 0.369969 0.250000
#
# Coordination Sequence:
#
# PCOD9568822 Si02
#       8
#    16  16  16   4  16  16  16  16
#     4  12  25  43  68  98 139 185 230 285 353 417
#     4  10  22  42  70  99 132 179 226 275 347 418
#     4  11  22  42  69 100 132 170 236 290 339 401
#     4  12  28  50  56  96 152 186 218 290 368 434
#     4  11  23  45  69  98 137 187 226 280 355 419
#     4  10  23  39  65  99 132 173 219 281 342 407
#     4  12  23  41  72 101 127 179 241 289 331 417
#     4  10  20  39  67  97 133 172 223 280 339 400
#
# _framework density 21.502627
#
# number of rings (size 3 to 8) (size 9 to 14) (size 15 to 20)
#    0.000    1.103    3.448    3.724    1.931    4.138 
#    2.483    1.379    0.000    0.000    0.000    0.000 
#    0.000    0.000    0.000    0.000    0.000    0.000 
#
# Total GULP energy -646020.931884 kJ/mol
# GULP energy per Si atom -5569.145965 kJ/mol
# Density = 2.145369 g / cm^3
# Si number density = 21.502627 Si / 1000 Ang^3
#
#
#
# Elastic Constant Matrix: (Units=GPa)
#
#
# Indices 1 2 3 4 5 6 
#
# 1 67.4959 11.7381 30.3561 0.0000 0.0000 0.0000
# 2 11.7381 67.4929 30.3552 0.0000 0.0000 0.0000
# 3 30.3561 30.3552 115.1984 0.0000 0.0000 0.0000
# 4 0.0000 0.0000 0.0000 31.6342 0.0000 0.0000
# 5 0.0000 0.0000 0.0000 0.0000 31.6340 0.0000
# 6 0.0000 0.0000 0.0000 0.0000 0.0000 26.5359
#
#
#
# Elastic Compliance Matrix: (Units=1/GPa)
#
#
# Indices 1 2 3 4 5 6 
#
# 1 0.016874 -0.001061 -0.004167 0.000000 0.000000 0.000000
# 2 -0.001061 0.016875 -0.004167 0.000000 0.000000 0.000000
# 3 -0.004167 -0.004167 0.010877 0.000000 0.000000 0.000000
# 4 0.000000 0.000000 0.000000 0.031611 0.000000 0.000000
# 5 0.000000 0.000000 0.000000 0.000000 0.031612 0.000000
# 6 0.000000 0.000000 0.000000 0.000000 0.000000 0.037685
#
#
# Mechanical properties :
#
#
# Convention : Reuss Voigt Hill
#
# Bulk Modulus (GPa) = 38.70495 43.89846 41.30170
# Shear Modulus (GPa) = 28.91248 29.81000 29.36124
#
# Velocity S-wave (km/s) = 3.67086 3.72740 3.69924
# Velocity P-wave (km/s) = 6.00051 6.24375 6.12334
#
# Compressibility (1/GPa) = 0.02583649
#
# Stress axis : x y z
#
# Youngs Moduli (GPa) = 59.26171 59.25920 91.93859
#
# Poissons Ratio (x) = 0.06285 0.38312
# Poissons Ratio (y) = 0.06285 0.38312
# Poissons Ratio (z) = 0.24695 0.24694
#
# Static dielectric constant tensor:
#      x y z
#    x 1.857130 0.000000 0.000000 
#    y 0.000000 1.857130 0.000000 
#    z 0.000000 0.000000 1.765610 
# 
# From -- ./inp_files/4609.got.cif
#   From: 2010.05.17/outbox.cif.g08.bks.cpg/sg135_3_cif.got.tgz:4609.got - 2010.05.20 12:50:20.
