data_PCOD9568541
_publ_section_title
;
Structure prediction by ZEFSAII (Michael W. Deem and Ramdas Pophale) SiO2 
 PCOD9568541
Probable space group: P 42/N N M
;
_chemical_formula_sum "Si O2"
_cell_formula_units_Z 48
_cell_length_a 8.952295
_cell_length_b 8.952295
_cell_length_c 32.521442
_cell_angle_alpha 90.000000
_cell_angle_beta 90.000000
_cell_angle_gamma 90.000000
_cell_volume 2606.384976
_symmetry_space_group_name_H-M "P 42/N N M"
_symmetry_group_IT_number 134
_space_group.IT_coordinate_system_code '2'
_symmetry_cell_setting 'tetragonal'
loop_
_space_group_symop_operation_xyz
x,y,z
1/2-y,x,1/2+z
1/2-x,1/2-y,z
y,1/2-x,1/2+z
x,1/2-y,1/2-z
1/2-x,y,1/2-z
y,x,-z
1/2-y,1/2-x,-z
-x,-y,-z
1/2+y,-x,1/2-z
1/2+x,1/2+y,-z
-y,1/2+x,1/2-z
-x,1/2+y,1/2+z
1/2+x,-y,1/2+z
-y,-x,z
1/2+y,1/2+x,z
loop_
_atom_site_type_symbol
_atom_site_label
_atom_site_fract_x
_atom_site_fract_y
_atom_site_fract_z
Si Si1 0.865347 0.365347 0.572496
Si Si2 0.428170 0.571831 0.871370
Si Si3 0.431223 0.931223 0.294211
Si Si4 0.423971 0.576030 0.622030
Si Si5 0.066432 0.566432 0.041088
Si Si6 0.923531 0.076470 0.700023
O O1 0.750000 0.250000 0.596809
O O2 0.954232 0.245944 0.544961
O O3 0.968041 0.468041 0.599939
O O4 0.472402 0.527598 0.825228
O O5 0.454142 0.746963 0.878519
O O6 0.466517 0.966517 0.246716
O O7 0.254357 0.953625 0.302196
O O8 0.495385 0.504616 0.581586
O O9 0.493841 0.506160 0.663261
O O10 0.000000 0.500000 0.000000
#
# Coordination Sequence:
#
# PCOD9568541 Si02
#       6
#     8   8   8   8   8   8
#     4   8  21  39  63  85 114 148 192 237 284 350
#     4  11  23  38  55  88 119 160 189 241 294 349
#     4   9  19  35  60  83 117 146 207 239 289 352
#     4  11  24  37  56  83 126 152 196 242 297 348
#     4   9  20  41  64  88 114 147 192 241 290 350
#     4   9  19  37  58  87 109 157 195 251 286 343
#
# _framework density 18.416314
#
# number of rings (size 3 to 8) (size 9 to 14) (size 15 to 20)
#    1.000    1.333    0.000    3.000    2.333    9.333 
#    0.000   10.000    0.000    0.000    0.000    0.000 
#    0.000    0.000    0.000    0.000    0.000    0.000 
#
# Total GULP energy -267512.377934 kJ/mol
# GULP energy per Si atom -5573.174540 kJ/mol
# Density = 1.837440 g / cm^3
# Si number density = 18.416314 Si / 1000 Ang^3
#
#
#
# Elastic Constant Matrix: (Units=GPa)
#
#
# Indices 1 2 3 4 5 6 
#
# 1 83.9791 87.0007 84.6502 0.0000 0.0000 0.0000
# 2 87.0007 83.9791 84.6502 0.0000 0.0000 0.0000
# 3 84.6502 84.6502 148.9383 0.0000 0.0000 0.0000
# 4 0.0000 0.0000 0.0000 9.9707 0.0000 0.0000
# 5 0.0000 0.0000 0.0000 0.0000 9.9707 0.0000
# 6 0.0000 0.0000 0.0000 0.0000 0.0000 32.8499
#
#
#
# Elastic Compliance Matrix: (Units=1/GPa)
#
#
# Indices 1 2 3 4 5 6 
#
# 1 -0.158786 0.172163 -0.007603 0.000000 0.000000 0.000000
# 2 0.172163 -0.158786 -0.007603 0.000000 0.000000 0.000000
# 3 -0.007603 -0.007603 0.015356 0.000000 0.000000 0.000000
# 4 0.000000 0.000000 0.000000 0.100294 0.000000 0.000000
# 5 0.000000 0.000000 0.000000 0.000000 0.100294 0.000000
# 6 0.000000 0.000000 0.000000 0.000000 0.000000 0.030441
#
#
# Mechanical properties :
#
#
# Convention : Reuss Voigt Hill
#
# Bulk Modulus (GPa) = 85.47907 92.16653 88.82280
# Shear Modulus (GPa) = -13.11643 14.59794 0.74076
#
# Velocity S-wave (km/s) = -2.67164 2.81848 0.63490
# Velocity P-wave (km/s) = 6.08266 7.79401 6.99090
#
# Compressibility (1/GPa) = 0.01169877
#
# Stress axis : x y z
#
# Youngs Moduli (GPa) = -6.29778 -6.29778 65.11944
#
# Poissons Ratio (x) = 1.08424 0.49509
# Poissons Ratio (y) = 1.08424 0.49509
# Poissons Ratio (z) = -0.04788 -0.04788
#
# Static dielectric constant tensor:
#      x y z
#    x 1.640210 0.000000 0.000000 
#    y 0.000000 1.640210 0.000000 
#    z 0.000000 0.000000 1.620650 
# 
# From -- ./inp_files/11114.got.cif
#   From: 2010.05.17/outbox.cif.g08.bks.cpg/sg134_6_cif.got.tgz:11114.got - 2010.05.20 12:42:49.
