data_PCOD9568569
_publ_section_title
;
Structure prediction by ZEFSAII (Michael W. Deem and Ramdas Pophale) SiO2 
 PCOD9568569
Probable space group: P 42/N N M
;
_chemical_formula_sum "Si O2"
_cell_formula_units_Z 42
_cell_length_a 13.604366
_cell_length_b 13.604366
_cell_length_c 9.353556
_cell_angle_alpha 90.000000
_cell_angle_beta 90.000000
_cell_angle_gamma 90.000000
_cell_volume 1731.144679
_symmetry_space_group_name_H-M "P 42/N N M"
_symmetry_group_IT_number 134
_space_group.IT_coordinate_system_code '2'
_symmetry_cell_setting 'tetragonal'
loop_
_space_group_symop_operation_xyz
x,y,z
1/2-y,x,1/2+z
1/2-x,1/2-y,z
y,1/2-x,1/2+z
x,1/2-y,1/2-z
1/2-x,y,1/2-z
y,x,-z
1/2-y,1/2-x,-z
-x,-y,-z
1/2+y,-x,1/2-z
1/2+x,1/2+y,-z
-y,1/2+x,1/2-z
-x,1/2+y,1/2+z
1/2+x,-y,1/2+z
-y,-x,z
1/2+y,1/2+x,z
loop_
_atom_site_type_symbol
_atom_site_label
_atom_site_fract_x
_atom_site_fract_y
_atom_site_fract_z
Si Si1 0.750000 0.486750 0.250000
Si Si2 0.088741 0.911260 0.525341
Si Si3 0.116802 0.158294 0.853205
Si Si4 0.250000 0.750000 0.250000
Si Si5 0.395990 0.604011 0.183465
O O1 0.810545 0.439271 0.114593
O O2 0.663028 0.557925 0.200929
O O3 0.105856 0.894145 0.357267
O O4 0.000000 0.000000 0.500000
O O5 0.129187 0.250000 0.750000
O O6 0.001816 0.136716 0.870234
O O7 0.172857 0.172857 0.000000
O O8 0.316037 0.683964 0.147587
#
# Coordination Sequence:
#
# PCOD9568569 Si02
#       5
#     8   8  16   2   8
#     4  12  27  45  78 108 156 226 266 356 426 520
#     4  12  26  51  77 113 167 216 289 358 433 521
#     4  12  26  45  76 114 161 215 286 350 437 526
#     4  12  28  44  80 110 156 224 264 352 426 492
#     4  12  25  49  75 115 163 217 279 364 421 525
#
# _framework density 24.261403000000001
#
# number of rings (size 3 to 8) (size 9 to 14) (size 15 to 20)
#    0.000    0.000    5.714    3.429    0.000    3.429 
#    0.000    0.000    0.000    0.000    0.000    0.000 
#    0.000    0.000    0.000    0.000    0.000    0.000 
#
# Total GULP energy -234160.306774 kJ/mol
# GULP energy per Si atom -5575.245399 kJ/mol
# Density = 2.420618 g / cm^3
# Si number density = 24.261403 Si / 1000 Ang^3
#
#
#
# Elastic Constant Matrix: (Units=GPa)
#
#
# Indices 1 2 3 4 5 6 
#
# 1 -7.1336 259.3057 52.8374 0.0000 0.0000 0.0000
# 2 259.3057 -7.1336 52.8374 0.0000 0.0000 0.0000
# 3 52.8374 52.8374 154.4970 0.0000 0.0000 0.0000
# 4 0.0000 0.0000 0.0000 54.8304 0.0000 0.0000
# 5 0.0000 0.0000 0.0000 0.0000 54.8304 0.0000
# 6 0.0000 0.0000 0.0000 0.0000 0.0000 -817.9681
#
#
#
# Elastic Compliance Matrix: (Units=1/GPa)
#
#
# Indices 1 2 3 4 5 6 
#
# 1 0.000438 0.004191 -0.001583 0.000000 0.000000 0.000000
# 2 0.004191 0.000438 -0.001583 0.000000 0.000000 0.000000
# 3 -0.001583 -0.001583 0.007555 0.000000 0.000000 0.000000
# 4 0.000000 0.000000 0.000000 0.018238 0.000000 0.000000
# 5 0.000000 0.000000 0.000000 0.000000 0.018238 0.000000
# 6 0.000000 0.000000 0.000000 0.000000 0.000000 -0.001223
#
#
# Mechanical properties :
#
#
# Convention : Reuss Voigt Hill
#
# Bulk Modulus (GPa) = 95.41077 96.68790 96.04933
# Shear Modulus (GPa) = 110.79440 -156.64485 -22.92522
#
# Velocity S-wave (km/s) = 6.76506 -8.04398 -3.07730
# Velocity P-wave (km/s) = 10.02162 6.80699 5.20086
#
# Compressibility (1/GPa) = 0.01048100
#
# Stress axis : x y z
#
# Youngs Moduli (GPa) = 2283.75936 2283.75936 132.35505
#
# Poissons Ratio (x) = -9.57141 0.20953
# Poissons Ratio (y) = -9.57141 0.20953
# Poissons Ratio (z) = 3.61538 3.61538
#
# Static dielectric constant tensor:
#      x y z
#    x 2.023460 0.000000 0.000000 
#    y 0.000000 2.023460 0.000000 
#    z 0.000000 0.000000 2.279720 
# 
# From -- ./inp_files/1914.got.cif
#   From: 2010.05.17/outbox.cif.g08.bks.cpg/sg134_1_cif.got.tgz:1914.got - 2010.05.20 12:42:49.
