data_PCOD9568936
_publ_section_title
;
Structure prediction by ZEFSAII (Michael W. Deem and Ramdas Pophale) SiO2 
 PCOD9568936
Probable space group: P 42/M B C
;
_chemical_formula_sum "Si O2"
_cell_formula_units_Z 96
_cell_length_a 13.874562
_cell_length_b 13.874562
_cell_length_c 21.910198
_cell_angle_alpha 90.000000
_cell_angle_beta 90.000000
_cell_angle_gamma 90.000000
_cell_volume 4217.789159
_symmetry_space_group_name_H-M "P 42/M B C"
_symmetry_group_IT_number 135
_symmetry_cell_setting 'tetragonal'
loop_
_space_group_symop_operation_xyz
x,y,z
-y,x,1/2+z
-x,-y,z
y,-x,1/2+z
1/2+x,1/2-y,-z
1/2-x,1/2+y,-z
1/2+y,1/2+x,1/2-z
1/2-y,1/2-x,1/2-z
-x,-y,-z
y,-x,1/2-z
x,y,-z
-y,x,1/2-z
1/2-x,1/2+y,z
1/2+x,1/2-y,z
1/2-y,1/2-x,1/2+z
1/2+y,1/2+x,1/2+z
loop_
_atom_site_type_symbol
_atom_site_label
_atom_site_fract_x
_atom_site_fract_y
_atom_site_fract_z
Si Si1 0.388016 0.616935 0.257258
Si Si2 0.128567 0.378557 0.427700
Si Si3 0.800183 0.221744 0.645144
Si Si4 0.922394 0.291185 0.927878
Si Si5 0.571890 0.589419 0.112027
Si Si6 0.229117 0.026492 0.065910
O O1 0.501150 0.632328 0.241942
O O2 0.315724 0.677516 0.214370
O O3 0.385624 0.636805 0.328870
O O4 0.151400 0.361154 0.500000
O O5 0.207636 0.329114 0.384202
O O6 0.131699 0.493002 0.418604
O O7 0.025997 0.327923 0.416875
O O8 0.801631 0.332185 0.618465
O O9 0.898643 0.187415 0.613224
O O10 0.972174 0.188361 0.911691
O O11 0.896391 0.289796 0.000000
O O12 0.500000 0.500000 0.124176
O O13 0.649413 0.556008 0.063205
O O14 0.239365 0.072849 0.000000
#
# Coordination Sequence:
#
# PCOD9568936 Si02
#       6
#    16  16  16  16  16  16
#     4  11  21  40  64  98 134 173 230 288 341 414
#     4  10  22  41  62  96 141 176 223 285 347 421
#     4  12  23  41  67  95 138 182 228 285 345 419
#     4  11  24  41  65  99 137 179 228 283 354 428
#     4  12  22  39  65  97 132 175 234 294 353 412
#     4  11  22  38  64  97 133 177 225 282 354 419
#
# _framework density 22.760738
#
# number of rings (size 3 to 8) (size 9 to 14) (size 15 to 20)
#    0.000    0.833    5.000    4.000    0.000    4.000 
#    0.000    2.500    0.000    0.000    0.000    2.333 
#    0.000    0.000    0.000    0.000    0.000    0.000 
#
# Total GULP energy -535474.158384 kJ/mol
# GULP energy per Si atom -5577.855817 kJ/mol
# Density = 2.270893 g / cm^3
# Si number density = 22.760738 Si / 1000 Ang^3
#
#
#
# Elastic Constant Matrix: (Units=GPa)
#
#
# Indices 1 2 3 4 5 6 
#
# 1 77.5012 27.0716 42.5423 0.0000 0.0000 0.0000
# 2 27.0716 77.5012 42.5423 0.0000 0.0000 0.0000
# 3 42.5423 42.5423 135.5023 0.0000 0.0000 0.0000
# 4 0.0000 0.0000 0.0000 18.7433 0.0000 0.0000
# 5 0.0000 0.0000 0.0000 0.0000 18.7433 0.0000
# 6 0.0000 0.0000 0.0000 0.0000 0.0000 39.0489
#
#
#
# Elastic Compliance Matrix: (Units=1/GPa)
#
#
# Indices 1 2 3 4 5 6 
#
# 1 0.016337 -0.003493 -0.004032 0.000000 0.000000 0.000000
# 2 -0.003493 0.016337 -0.004032 0.000000 0.000000 0.000000
# 3 -0.004032 -0.004032 0.009912 0.000000 0.000000 0.000000
# 4 0.000000 0.000000 0.000000 0.053352 0.000000 0.000000
# 5 0.000000 0.000000 0.000000 0.000000 0.053352 0.000000
# 6 0.000000 0.000000 0.000000 0.000000 0.000000 0.025609
#
#
# Mechanical properties :
#
#
# Convention : Reuss Voigt Hill
#
# Bulk Modulus (GPa) = 51.36191 57.20188 54.28189
# Shear Modulus (GPa) = 24.44936 27.19701 25.82318
#
# Velocity S-wave (km/s) = 3.28104 3.46050 3.37196
# Velocity P-wave (km/s) = 6.08018 6.41507 6.24987
#
# Compressibility (1/GPa) = 0.01946968
#
# Stress axis : x y z
#
# Youngs Moduli (GPa) = 61.21216 61.21216 100.88819
#
# Poissons Ratio (x) = 0.21381 0.40682
# Poissons Ratio (y) = 0.21381 0.40682
# Poissons Ratio (z) = 0.24683 0.24683
#
# Static dielectric constant tensor:
#      x y z
#    x 1.913330 0.000000 0.000000 
#    y 0.000000 1.913330 0.000000 
#    z 0.000000 0.000000 1.841840 
# 
# From -- ./inp_files/5437.got.cif
#   From: 2010.05.17/outbox.cif.g08.bks.cpg/sg135_3_cif.got.tgz:5437.got - 2010.05.20 12:50:20.
