data_PCOD9568172
_publ_section_title
;
Structure prediction by ZEFSAII (Michael W. Deem and Ramdas Pophale) SiO2 
 PCOD9568172
Probable space group: P 42/N N M
;
_chemical_formula_sum "Si O2"
_cell_formula_units_Z 96
_cell_length_a 18.956544
_cell_length_b 18.956544
_cell_length_c 15.959798
_cell_angle_alpha 90.000000
_cell_angle_beta 90.000000
_cell_angle_gamma 90.000000
_cell_volume 5735.162356
_symmetry_space_group_name_H-M "P 42/N N M"
_symmetry_group_IT_number 134
_space_group.IT_coordinate_system_code '2'
_symmetry_cell_setting 'tetragonal'
loop_
_space_group_symop_operation_xyz
x,y,z
1/2-y,x,1/2+z
1/2-x,1/2-y,z
y,1/2-x,1/2+z
x,1/2-y,1/2-z
1/2-x,y,1/2-z
y,x,-z
1/2-y,1/2-x,-z
-x,-y,-z
1/2+y,-x,1/2-z
1/2+x,1/2+y,-z
-y,1/2+x,1/2-z
-x,1/2+y,1/2+z
1/2+x,-y,1/2+z
-y,-x,z
1/2+y,1/2+x,z
loop_
_atom_site_type_symbol
_atom_site_label
_atom_site_fract_x
_atom_site_fract_y
_atom_site_fract_z
Si Si1 0.798483 0.082803 0.832536
Si Si2 0.247735 0.632331 0.511839
Si Si3 0.811781 0.579355 0.679078
Si Si4 0.691602 0.428282 0.322416
Si Si5 0.179296 0.214915 0.594586
Si Si6 0.087303 0.330087 0.217451
O O1 0.750000 0.091357 0.750000
O O2 0.861697 0.138304 0.826882
O O3 0.824597 0.002541 0.834828
O O4 0.758807 0.097779 0.920256
O O5 0.308437 0.691564 0.507630
O O6 0.174945 0.674945 0.529703
O O7 0.269488 0.581141 0.587786
O O8 0.750000 0.585703 0.750000
O O9 0.774169 0.619198 0.602528
O O10 0.881423 0.618872 0.711072
O O11 0.750000 0.417128 0.250000
O O12 0.631249 0.368752 0.316699
O O13 0.659739 0.506510 0.309894
O O14 0.250000 0.250000 0.633633
O O15 0.196110 0.196110 0.500000
O O16 0.161276 0.143018 0.642302
O O17 0.091968 0.250000 0.250000
#
# Coordination Sequence:
#
# PCOD9568172 Si02
#       6
#    16  16  16  16  16  16
#     4  10  20  34  54  80 111 147 180 220 269 324
#     4   9  18  33  54  78 103 136 183 232 269 311
#     4   9  19  33  51  76 107 138 179 218 263 319
#     4  10  21  35  55  78 104 140 182 226 273 322
#     4  10  19  31  54  80 101 134 173 219 264 313
#     4  10  19  34  53  76 105 139 174 222 267 318
#
# _framework density 16.738845000000001
#
# number of rings (size 3 to 8) (size 9 to 14) (size 15 to 20)
#    0.000    2.333    1.667    1.000    2.333    2.333 
#    0.000    0.000    0.000    0.500    0.000    8.167 
#    0.000    0.000    0.000    0.000    0.000    0.000 
#
# Total GULP energy -534933.992181 kJ/mol
# GULP energy per Si atom -5572.229085 kJ/mol
# Density = 1.670075 g / cm^3
# Si number density = 16.738845 Si / 1000 Ang^3
#
#
#
# Elastic Constant Matrix: (Units=GPa)
#
#
# Indices 1 2 3 4 5 6 
#
# 1 102.1655 49.3932 54.1160 0.0000 0.0000 0.0000
# 2 49.3932 102.1655 54.1160 0.0000 0.0000 0.0000
# 3 54.1160 54.1160 112.8893 0.0000 0.0000 0.0000
# 4 0.0000 0.0000 0.0000 19.5425 0.0000 0.0000
# 5 0.0000 0.0000 0.0000 0.0000 19.5425 0.0000
# 6 0.0000 0.0000 0.0000 0.0000 0.0000 11.5568
#
#
#
# Elastic Compliance Matrix: (Units=1/GPa)
#
#
# Indices 1 2 3 4 5 6 
#
# 1 0.014491 -0.004458 -0.004809 0.000000 0.000000 0.000000
# 2 -0.004458 0.014491 -0.004809 0.000000 0.000000 0.000000
# 3 -0.004809 -0.004809 0.013469 0.000000 0.000000 0.000000
# 4 0.000000 0.000000 0.000000 0.051171 0.000000 0.000000
# 5 0.000000 0.000000 0.000000 0.000000 0.051171 0.000000
# 6 0.000000 0.000000 0.000000 0.000000 0.000000 0.086529
#
#
# Mechanical properties :
#
#
# Convention : Reuss Voigt Hill
#
# Bulk Modulus (GPa) = 69.94495 70.27453 70.10974
# Shear Modulus (GPa) = 18.92212 20.76803 19.84508
#
# Velocity S-wave (km/s) = 3.36584 3.52619 3.44695
# Velocity P-wave (km/s) = 7.54863 7.65851 7.60377
#
# Compressibility (1/GPa) = 0.01429696
#
# Stress axis : x y z
#
# Youngs Moduli (GPa) = 69.00859 69.00859 74.24372
#
# Poissons Ratio (x) = 0.30767 0.35706
# Poissons Ratio (y) = 0.30767 0.35706
# Poissons Ratio (z) = 0.33189 0.33189
#
# Static dielectric constant tensor:
#      x y z
#    x 1.558890 0.000000 0.000000 
#    y 0.000000 1.558890 0.000000 
#    z 0.000000 0.000000 1.578540 
# 
# From -- ./inp_files/7912.got.cif
#   From: 2010.05.17/outbox.cif.g08.bks.cpg/sg134_4_cif.got.tgz:7912.got - 2010.05.20 12:42:49.
