data_PCOD9568241
_publ_section_title
;
Structure prediction by ZEFSAII (Michael W. Deem and Ramdas Pophale) SiO2 
 PCOD9568241
Probable space group: P 42/N N M
;
_chemical_formula_sum "Si O2"
_cell_formula_units_Z 48
_cell_length_a 13.597007
_cell_length_b 13.597007
_cell_length_c 11.148632
_cell_angle_alpha 90.000000
_cell_angle_beta 90.000000
_cell_angle_gamma 90.000000
_cell_volume 2061.143469
_symmetry_space_group_name_H-M "P 42/N N M"
_symmetry_group_IT_number 134
_space_group.IT_coordinate_system_code '2'
_symmetry_cell_setting 'tetragonal'
loop_
_space_group_symop_operation_xyz
x,y,z
1/2-y,x,1/2+z
1/2-x,1/2-y,z
y,1/2-x,1/2+z
x,1/2-y,1/2-z
1/2-x,y,1/2-z
y,x,-z
1/2-y,1/2-x,-z
-x,-y,-z
1/2+y,-x,1/2-z
1/2+x,1/2+y,-z
-y,1/2+x,1/2-z
-x,1/2+y,1/2+z
1/2+x,-y,1/2+z
-y,-x,z
1/2+y,1/2+x,z
loop_
_atom_site_type_symbol
_atom_site_label
_atom_site_fract_x
_atom_site_fract_y
_atom_site_fract_z
Si Si1 0.983974 0.321486 0.459036
Si Si2 0.470383 0.529618 0.366029
Si Si3 0.329389 0.829389 0.023572
Si Si4 0.107983 0.146526 0.804126
O O1 0.920085 0.420085 0.433001
O O2 0.910380 0.230605 0.449242
O O3 0.079151 0.314881 0.375445
O O4 0.024432 0.330240 0.594794
O O5 0.500000 0.500000 0.500000
O O6 0.386650 0.613351 0.373862
O O7 0.422032 0.439603 0.296654
O O8 0.250000 0.750000 0.067577
O O9 0.139877 0.250000 0.750000
#
# Coordination Sequence:
#
# PCOD9568241 Si02
#       4
#    16   8   8  16
#     4  10  19  36  67 104 147 188 240 309 379 427
#     4  12  24  41  65 102 148 198 237 295 375 440
#     4  10  22  40  69 110 144 180 251 309 363 451
#     4  11  20  37  68 100 143 195 242 301 365 443
#
# _framework density 23.288043999999999
#
# number of rings (size 3 to 8) (size 9 to 14) (size 15 to 20)
#    0.000    1.333    6.667    1.000    0.000    0.000 
#    3.000    1.667    3.667    6.000    0.000    0.000 
#    0.000    5.333    0.000    0.167    0.000    0.000 
#
# Total GULP energy -268713.940540 kJ/mol
# GULP energy per Si atom -5598.207095 kJ/mol
# Density = 2.323504 g / cm^3
# Si number density = 23.288044 Si / 1000 Ang^3
#
#
#
# Elastic Constant Matrix: (Units=GPa)
#
#
# Indices 1 2 3 4 5 6 
#
# 1 107.5432 29.6979 45.4688 0.0000 0.0000 0.0000
# 2 29.6979 107.5432 45.4688 0.0000 0.0000 0.0000
# 3 45.4688 45.4688 130.8835 0.0000 0.0000 0.0000
# 4 0.0000 0.0000 0.0000 22.2841 0.0000 0.0000
# 5 0.0000 0.0000 0.0000 0.0000 22.2841 0.0000
# 6 0.0000 0.0000 0.0000 0.0000 0.0000 44.1311
#
#
#
# Elastic Compliance Matrix: (Units=1/GPa)
#
#
# Indices 1 2 3 4 5 6 
#
# 1 0.011156 -0.001690 -0.003288 0.000000 0.000000 0.000000
# 2 -0.001690 0.011156 -0.003288 0.000000 0.000000 0.000000
# 3 -0.003288 -0.003288 0.009925 0.000000 0.000000 0.000000
# 4 0.000000 0.000000 0.000000 0.044875 0.000000 0.000000
# 5 0.000000 0.000000 0.000000 0.000000 0.044875 0.000000
# 6 0.000000 0.000000 0.000000 0.000000 0.000000 0.022660
#
#
# Mechanical properties :
#
#
# Convention : Reuss Voigt Hill
#
# Bulk Modulus (GPa) = 63.68347 65.24901 64.46624
# Shear Modulus (GPa) = 30.04557 32.76217 31.40387
#
# Velocity S-wave (km/s) = 3.59579 3.75483 3.67617
# Velocity P-wave (km/s) = 6.68169 6.84671 6.76470
#
# Compressibility (1/GPa) = 0.01570266
#
# Stress axis : x y z
#
# Youngs Moduli (GPa) = 89.64089 89.64089 100.75533
#
# Poissons Ratio (x) = 0.15153 0.33131
# Poissons Ratio (y) = 0.15153 0.33131
# Poissons Ratio (z) = 0.29476 0.29476
#
# Static dielectric constant tensor:
#      x y z
#    x 1.889400 0.000000 0.000000 
#    y 0.000000 1.889400 0.000000 
#    z 0.000000 0.000000 1.834020 
# 
# From -- ./inp_files/4206.got.cif
#   From: 2010.05.17/outbox.cif.g08.bks.cpg/sg134_3_cif.got.tgz:4206.got - 2010.05.20 12:42:49.
