data_PCOD9568842
_publ_section_title
;
Structure prediction by ZEFSAII (Michael W. Deem and Ramdas Pophale) SiO2 
 PCOD9568842
Probable space group: P 42/M B C
;
_chemical_formula_sum "Si O2"
_cell_formula_units_Z 64
_cell_length_a 14.535656
_cell_length_b 14.535656
_cell_length_c 14.607368
_cell_angle_alpha 90.000000
_cell_angle_beta 90.000000
_cell_angle_gamma 90.000000
_cell_volume 3086.322062
_symmetry_space_group_name_H-M "P 42/M B C"
_symmetry_group_IT_number 135
_symmetry_cell_setting 'tetragonal'
loop_
_space_group_symop_operation_xyz
x,y,z
-y,x,1/2+z
-x,-y,z
y,-x,1/2+z
1/2+x,1/2-y,-z
1/2-x,1/2+y,-z
1/2+y,1/2+x,1/2-z
1/2-y,1/2-x,1/2-z
-x,-y,-z
y,-x,1/2-z
x,y,-z
-y,x,1/2-z
1/2-x,1/2+y,z
1/2+x,1/2-y,z
1/2-y,1/2-x,1/2+z
1/2+y,1/2+x,1/2+z
loop_
_atom_site_type_symbol
_atom_site_label
_atom_site_fract_x
_atom_site_fract_y
_atom_site_fract_z
Si Si1 0.596946 0.972859 0.348059
Si Si2 0.160239 0.761050 0.892638
Si Si3 0.762862 0.630829 0.611599
Si Si4 0.895781 0.995308 0.388351
O O1 0.566454 0.933547 0.250000
O O2 0.664069 0.893700 0.386643
O O3 0.500000 0.000000 0.394705
O O4 0.658632 0.065023 0.347227
O O5 0.263886 0.763331 0.857312
O O6 0.092883 0.839026 0.853334
O O7 0.169421 0.781260 0.000000
O O8 0.773697 0.625985 0.500000
O O9 0.665290 0.584062 0.633666
O O10 0.897430 0.989936 0.500000
O O11 0.000000 0.000000 0.356887
#
# Coordination Sequence:
#
# PCOD9568842 Si02
#       4
#    16  16  16  16
#     4  10  21  37  53  79 114 156 192 230 283 344
#     4   9  18  33  55  84 111 144 187 235 287 330
#     4   9  18  33  55  82 109 140 188 240 282 333
#     4   8  14  26  46  74 108 135 165 217 275 327
#
# _framework density 20.736654999999999
#
# number of rings (size 3 to 8) (size 9 to 14) (size 15 to 20)
#    0.000    3.000    0.000    2.250    0.000    4.000 
#    4.500    5.000    0.000    0.000    0.000    0.000 
#    0.000    0.000    0.000    0.000    0.000    0.000 
#
# Total GULP energy -356788.022695 kJ/mol
# GULP energy per Si atom -5574.812855 kJ/mol
# Density = 2.068946 g / cm^3
# Si number density = 20.736655 Si / 1000 Ang^3
#
#
#
# Elastic Constant Matrix: (Units=GPa)
#
#
# Indices 1 2 3 4 5 6 
#
# 1 197.2570 96.1468 14.3242 0.0000 0.0000 0.0000
# 2 96.1468 197.2572 14.3241 0.0000 0.0000 0.0000
# 3 14.3242 14.3241 54.8457 0.0000 0.0000 0.0000
# 4 0.0000 0.0000 0.0000 6.3125 0.0000 0.0000
# 5 0.0000 0.0000 0.0000 0.0000 6.3112 0.0000
# 6 0.0000 0.0000 0.0000 0.0000 0.0000 15.9880
#
#
#
# Elastic Compliance Matrix: (Units=1/GPa)
#
#
# Indices 1 2 3 4 5 6 
#
# 1 0.006694 -0.003196 -0.000913 0.000000 0.000000 0.000000
# 2 -0.003196 0.006694 -0.000913 0.000000 0.000000 0.000000
# 3 -0.000913 -0.000913 0.018710 0.000000 0.000000 0.000000
# 4 0.000000 0.000000 0.000000 0.158417 0.000000 0.000000
# 5 0.000000 0.000000 0.000000 0.000000 0.158449 0.000000
# 6 0.000000 0.000000 0.000000 0.000000 0.000000 0.062547
#
#
# Mechanical properties :
#
#
# Convention : Reuss Voigt Hill
#
# Bulk Modulus (GPa) = 45.34885 77.66111 61.50498
# Shear Modulus (GPa) = 11.65752 27.35998 19.50875
#
# Velocity S-wave (km/s) = 2.37358 3.63630 3.07055
# Velocity P-wave (km/s) = 5.42478 7.42716 6.50350
#
# Compressibility (1/GPa) = 0.02205127
#
# Stress axis : x y z
#
# Youngs Moduli (GPa) = 149.39136 149.39157 53.44706
#
# Poissons Ratio (x) = 0.47751 0.04882
# Poissons Ratio (y) = 0.47751 0.04882
# Poissons Ratio (z) = 0.13646 0.13646
#
# Static dielectric constant tensor:
#      x y z
#    x 1.731900 0.000000 0.000000 
#    y 0.000000 1.731900 0.000000 
#    z 0.000000 0.000000 1.784350 
# 
# From -- ./inp_files/4143.got.cif
#   From: 2010.05.17/outbox.cif.g08.bks.cpg/sg135_3_cif.got.tgz:4143.got - 2010.05.20 12:50:20.
