data_PCOD9568712
_publ_section_title
;
Structure prediction by ZEFSAII (Michael W. Deem and Ramdas Pophale) SiO2 
 PCOD9568712
Probable space group: P 42/M B C
;
_chemical_formula_sum "Si O2"
_cell_formula_units_Z 96
_cell_length_a 13.965500
_cell_length_b 13.965500
_cell_length_c 21.713076
_cell_angle_alpha 90.000000
_cell_angle_beta 90.000000
_cell_angle_gamma 90.000000
_cell_volume 4234.813909
_symmetry_space_group_name_H-M "P 42/M B C"
_symmetry_group_IT_number 135
_symmetry_cell_setting 'tetragonal'
loop_
_space_group_symop_operation_xyz
x,y,z
-y,x,1/2+z
-x,-y,z
y,-x,1/2+z
1/2+x,1/2-y,-z
1/2-x,1/2+y,-z
1/2+y,1/2+x,1/2-z
1/2-y,1/2-x,1/2-z
-x,-y,-z
y,-x,1/2-z
x,y,-z
-y,x,1/2-z
1/2-x,1/2+y,z
1/2+x,1/2-y,z
1/2-y,1/2-x,1/2+z
1/2+y,1/2+x,1/2+z
loop_
_atom_site_type_symbol
_atom_site_label
_atom_site_fract_x
_atom_site_fract_y
_atom_site_fract_z
Si Si1 0.376678 0.841844 0.813157
Si Si2 0.028974 0.605139 0.614059
Si Si3 0.595933 0.794580 0.197514
Si Si4 0.793072 0.099624 0.571731
Si Si5 0.700772 0.491495 0.935463
Si Si6 0.439991 0.405074 0.150348
O O1 0.319922 0.819922 0.750000
O O2 0.484707 0.817711 0.793877
O O3 0.363566 0.783132 0.877144
O O4 0.375624 0.953924 0.830491
O O5 0.138574 0.615576 0.636993
O O6 0.003788 0.686556 0.566550
O O7 0.000000 0.500000 0.592120
O O8 0.661953 0.838048 0.250000
O O9 0.597349 0.679386 0.194192
O O10 0.760592 0.085526 0.500000
O O11 0.880707 0.173337 0.570100
O O12 0.845559 0.005693 0.601241
O O13 0.652171 0.550210 0.881757
O O14 0.659777 0.527625 0.000000
O O15 0.500000 0.500000 0.171929
#
# Coordination Sequence:
#
# PCOD9568712 Si02
#       6
#    16  16  16  16  16  16
#     4  10  19  36  66  95 130 175 226 282 347 431
#     4  10  22  37  59  90 127 168 227 275 339 408
#     4  10  19  37  68  95 128 175 225 285 349 423
#     4   9  19  37  65  98 132 173 228 290 355 423
#     4  10  21  40  62  89 131 179 226 283 349 415
#     4   9  19  38  68 100 133 172 229 287 348 416
#
# _framework density 22.669238
#
# number of rings (size 3 to 8) (size 9 to 14) (size 15 to 20)
#    0.000    2.333    1.667    0.500    0.000    4.333 
#    0.000   12.500    0.000    0.000    0.000    0.000 
#    0.000    0.000    0.000    0.000    0.000   10.667 
#
# Total GULP energy -534904.429228 kJ/mol
# GULP energy per Si atom -5571.921138 kJ/mol
# Density = 2.261764 g / cm^3
# Si number density = 22.669238 Si / 1000 Ang^3
#
#
#
# Elastic Constant Matrix: (Units=GPa)
#
#
# Indices 1 2 3 4 5 6 
#
# 1 88.7611 -0.6223 45.5342 0.0000 0.0000 0.0000
# 2 -0.6223 88.7608 45.5345 0.0000 0.0000 0.0000
# 3 45.5342 45.5345 104.5831 0.0000 0.0000 0.0000
# 4 0.0000 0.0000 0.0000 -0.0984 0.0000 0.0000
# 5 0.0000 0.0000 0.0000 0.0000 -0.0956 0.0000
# 6 0.0000 0.0000 0.0000 0.0000 0.0000 8.4934
#
#
#
# Elastic Compliance Matrix: (Units=1/GPa)
#
#
# Indices 1 2 3 4 5 6 
#
# 1 0.015906 0.004718 -0.008979 0.000000 0.000000 0.000000
# 2 0.004718 0.015906 -0.008979 0.000000 0.000000 0.000000
# 3 -0.008979 -0.008979 0.017381 0.000000 0.000000 0.000000
# 4 0.000000 0.000000 0.000000-10.158284 0.000000 0.000000
# 5 0.000000 0.000000 0.000000 0.000000-10.462801 0.000000
# 6 0.000000 0.000000 0.000000 0.000000 0.000000 0.117738
#
#
# Mechanical properties :
#
#
# Convention : Reuss Voigt Hill
#
# Bulk Modulus (GPa) = 44.03205 51.44421 47.73813
# Shear Modulus (GPa) = -0.24486 14.43713 7.09613
#
# Velocity S-wave (km/s) = -0.32901 2.52635 1.77118
# Velocity P-wave (km/s) = 4.39563 5.59040 5.02862
#
# Compressibility (1/GPa) = 0.02271073
#
# Stress axis : x y z
#
# Youngs Moduli (GPa) = 62.87097 62.87048 57.53503
#
# Poissons Ratio (x) = -0.29662 0.51662
# Poissons Ratio (y) = -0.29662 0.51662
# Poissons Ratio (z) = 0.56453 0.56453
#
# Static dielectric constant tensor:
#      x y z
#    x 1.863160 0.000000 0.000000 
#    y 0.000000 1.863150 0.000000 
#    z 0.000000 0.000000 1.921680 
# 
# From -- ./inp_files/5439.got.cif
#   From: 2010.05.17/outbox.cif.g08.bks.cpg/sg135_3_cif.got.tgz:5439.got - 2010.05.20 12:50:20.
