data_PCOD9568808
_publ_section_title
;
Structure prediction by ZEFSAII (Michael W. Deem and Ramdas Pophale) SiO2 
 PCOD9568808
Probable space group: P 42/M B C
;
_chemical_formula_sum "Si O2"
_cell_formula_units_Z 64
_cell_length_a 14.794209
_cell_length_b 14.794209
_cell_length_c 15.651260
_cell_angle_alpha 90.000000
_cell_angle_beta 90.000000
_cell_angle_gamma 90.000000
_cell_volume 3425.569676
_symmetry_space_group_name_H-M "P 42/M B C"
_symmetry_group_IT_number 135
_symmetry_cell_setting 'tetragonal'
loop_
_space_group_symop_operation_xyz
x,y,z
-y,x,1/2+z
-x,-y,z
y,-x,1/2+z
1/2+x,1/2-y,-z
1/2-x,1/2+y,-z
1/2+y,1/2+x,1/2-z
1/2-y,1/2-x,1/2-z
-x,-y,-z
y,-x,1/2-z
x,y,-z
-y,x,1/2-z
1/2-x,1/2+y,z
1/2+x,1/2-y,z
1/2-y,1/2-x,1/2+z
1/2+y,1/2+x,1/2+z
loop_
_atom_site_type_symbol
_atom_site_label
_atom_site_fract_x
_atom_site_fract_y
_atom_site_fract_z
Si Si1 0.488357 0.898068 0.101790
Si Si2 0.099255 0.103236 0.245697
Si Si3 0.244104 0.854907 0.598938
Si Si4 0.725715 0.845525 0.340655
O O1 0.399534 0.839938 0.127412
O O2 0.575941 0.836300 0.120736
O O3 0.500000 0.000000 0.137610
O O4 0.480600 0.907554 0.000000
O O5 0.109513 0.170498 0.166162
O O6 0.174782 0.121079 0.316361
O O7 0.999622 0.112106 0.283905
O O8 0.228122 0.881421 0.500000
O O9 0.237595 0.746483 0.606174
O O10 0.681799 0.818202 0.250000
#
# Coordination Sequence:
#
# PCOD9568808 Si02
#       4
#    16  16  16  16
#     4  10  21  39  60  87 120 157 202 252 302 363
#     4  10  20  38  61  86 117 156 199 254 307 368
#     4  10  21  38  60  87 122 158 200 253 308 368
#     4  10  21  37  58  86 118 158 197 245 305 366
#
# _framework density 18.683022000000001
#
# number of rings (size 3 to 8) (size 9 to 14) (size 15 to 20)
#    0.000    2.000    2.500    0.750    0.000    4.500 
#    4.500    7.500    0.000    0.000    0.000    0.000 
#    0.000    0.000    0.000    0.000    0.000    0.000 
#
# Total GULP energy -356699.936873 kJ/mol
# GULP energy per Si atom -5573.436514 kJ/mol
# Density = 1.864050 g / cm^3
# Si number density = 18.683022 Si / 1000 Ang^3
#
#
#
# Elastic Constant Matrix: (Units=GPa)
#
#
# Indices 1 2 3 4 5 6 
#
# 1 116.5019 51.2111 20.9022 0.0000 0.0000 0.0000
# 2 51.2111 116.5013 20.9025 0.0000 0.0000 0.0000
# 3 20.9022 20.9025 18.3229 0.0000 0.0000 0.0000
# 4 0.0000 0.0000 0.0000 9.3892 0.0000 0.0000
# 5 0.0000 0.0000 0.0000 0.0000 9.3885 0.0000
# 6 0.0000 0.0000 0.0000 0.0000 0.0000 26.0707
#
#
#
# Elastic Compliance Matrix: (Units=1/GPa)
#
#
# Indices 1 2 3 4 5 6 
#
# 1 0.011824 -0.003492 -0.009505 0.000000 0.000000 0.000000
# 2 -0.003492 0.011824 -0.009505 0.000000 0.000000 0.000000
# 3 -0.009505 -0.009505 0.076262 0.000000 0.000000 0.000000
# 4 0.000000 0.000000 0.000000 0.106506 0.000000 0.000000
# 5 0.000000 0.000000 0.000000 0.000000 0.106513 0.000000
# 6 0.000000 0.000000 0.000000 0.000000 0.000000 0.038357
#
#
# Mechanical properties :
#
#
# Convention : Reuss Voigt Hill
#
# Bulk Modulus (GPa) = 18.21266 48.59529 33.40398
# Shear Modulus (GPa) = 12.06005 19.52368 15.79187
#
# Velocity S-wave (km/s) = 2.54344 3.23615 2.91048
# Velocity P-wave (km/s) = 4.28892 6.32696 5.40487
#
# Compressibility (1/GPa) = 0.05490687
#
# Stress axis : x y z
#
# Youngs Moduli (GPa) = 84.57463 84.57351 13.11266
#
# Poissons Ratio (x) = 0.29535 0.12463
# Poissons Ratio (y) = 0.29535 0.12463
# Poissons Ratio (z) = 0.80384 0.80386
#
# Static dielectric constant tensor:
#      x y z
#    x 1.670470 0.000000 0.000000 
#    y 0.000000 1.670470 0.000000 
#    z 0.000000 0.000000 1.624520 
# 
# From -- ./inp_files/3119.got.cif
#   From: 2010.05.17/outbox.cif.g08.bks.cpg/sg135_2_cif.got.tgz:3119.got - 2010.05.20 12:50:20.
