data_PCOD9568368
_publ_section_title
;
Structure prediction by ZEFSAII (Michael W. Deem and Ramdas Pophale) SiO2 
 PCOD9568368
Probable space group: P 42/N N M
;
_chemical_formula_sum "Si O2"
_cell_formula_units_Z 96
_cell_length_a 14.613655
_cell_length_b 14.613655
_cell_length_c 20.027636
_cell_angle_alpha 90.000000
_cell_angle_beta 90.000000
_cell_angle_gamma 90.000000
_cell_volume 4277.080163
_symmetry_space_group_name_H-M "P 42/N N M"
_symmetry_group_IT_number 134
_space_group.IT_coordinate_system_code '2'
_symmetry_cell_setting 'tetragonal'
loop_
_space_group_symop_operation_xyz
x,y,z
1/2-y,x,1/2+z
1/2-x,1/2-y,z
y,1/2-x,1/2+z
x,1/2-y,1/2-z
1/2-x,y,1/2-z
y,x,-z
1/2-y,1/2-x,-z
-x,-y,-z
1/2+y,-x,1/2-z
1/2+x,1/2+y,-z
-y,1/2+x,1/2-z
-x,1/2+y,1/2+z
1/2+x,-y,1/2+z
-y,-x,z
1/2+y,1/2+x,z
loop_
_atom_site_type_symbol
_atom_site_label
_atom_site_fract_x
_atom_site_fract_y
_atom_site_fract_z
Si Si1 0.250583 0.603618 0.464639
Si Si2 0.733569 0.593168 0.035332
Si Si3 0.072957 0.074288 0.859789
Si Si4 0.021897 0.738969 0.170885
Si Si5 0.568359 0.577638 0.604474
Si Si6 0.017044 0.649292 0.766798
O O1 0.341660 0.658341 0.487299
O O2 0.163372 0.663372 0.486775
O O3 0.245114 0.499602 0.491095
O O4 0.252130 0.601567 0.383913
O O5 0.663125 0.566881 0.095102
O O6 0.837057 0.610579 0.062899
O O7 0.676958 0.676958 0.000000
O O8 0.043755 0.178233 0.850776
O O9 0.091245 0.041960 0.784723
O O10 0.990251 0.009750 0.886797
O O11 0.042961 0.750000 0.250000
O O12 0.973084 0.645009 0.148959
O O13 0.502791 0.497210 0.574062
O O14 0.505617 0.629057 0.657727
O O15 0.994680 0.750000 0.750000
O O16 0.120998 0.620998 0.753127
#
# Coordination Sequence:
#
# PCOD9568368 Si02
#       6
#    16  16  16  16  16  16
#     4  11  26  47  71 103 142 186 240 298 358 428
#     4  12  25  46  73 100 139 187 243 290 349 425
#     4  11  23  42  69 102 136 176 230 293 350 411
#     4  12  25  44  73 103 136 182 235 288 355 426
#     4  11  25  45  69 100 147 193 229 288 368 434
#     4  10  20  39  65  98 138 184 233 289 356 426
#
# _framework density 22.445219000000002
#
# number of rings (size 3 to 8) (size 9 to 14) (size 15 to 20)
#    0.000    0.833    5.000    2.000    0.000    4.167 
#    3.000    4.167    0.000    0.000    0.000    0.000 
#    0.000    0.000    0.000    0.000    0.000    0.000 
#
# Total GULP energy -535397.937384 kJ/mol
# GULP energy per Si atom -5577.061848 kJ/mol
# Density = 2.239413 g / cm^3
# Si number density = 22.445219 Si / 1000 Ang^3
#
#
#
# Elastic Constant Matrix: (Units=GPa)
#
#
# Indices 1 2 3 4 5 6 
#
# 1 130.8669 29.1242 20.2019 0.0000 0.0000 0.0000
# 2 29.1242 130.8669 20.2019 0.0000 0.0000 0.0000
# 3 20.2019 20.2019 95.1292 0.0000 0.0000 0.0000
# 4 0.0000 0.0000 0.0000 15.0000 0.0000 0.0000
# 5 0.0000 0.0000 0.0000 0.0000 15.0000 0.0000
# 6 0.0000 0.0000 0.0000 0.0000 0.0000 36.0620
#
#
#
# Elastic Compliance Matrix: (Units=1/GPa)
#
#
# Indices 1 2 3 4 5 6 
#
# 1 0.008217 -0.001612 -0.001403 0.000000 0.000000 0.000000
# 2 -0.001612 0.008217 -0.001403 0.000000 0.000000 0.000000
# 3 -0.001403 -0.001403 0.011108 0.000000 0.000000 0.000000
# 4 0.000000 0.000000 0.000000 0.066667 0.000000 0.000000
# 5 0.000000 0.000000 0.000000 0.000000 0.066667 0.000000
# 6 0.000000 0.000000 0.000000 0.000000 0.000000 0.027730
#
#
# Mechanical properties :
#
#
# Convention : Reuss Voigt Hill
#
# Bulk Modulus (GPa) = 53.45711 55.10208 54.27959
# Shear Modulus (GPa) = 24.54900 32.36806 28.45853
#
# Velocity S-wave (km/s) = 3.31075 3.80161 3.56464
# Velocity P-wave (km/s) = 6.20348 6.62363 6.41699
#
# Compressibility (1/GPa) = 0.01870659
#
# Stress axis : x y z
#
# Youngs Moduli (GPa) = 121.70437 121.70437 90.02749
#
# Poissons Ratio (x) = 0.19620 0.12627
# Poissons Ratio (y) = 0.19620 0.12627
# Poissons Ratio (z) = 0.17070 0.17070
#
# Static dielectric constant tensor:
#      x y z
#    x 1.867910 0.000000 0.000000 
#    y 0.000000 1.867910 0.000000 
#    z 0.000000 0.000000 1.871570 
# 
# From -- ./inp_files/9122.got.cif
#   From: 2010.05.17/outbox.cif.g08.bks.cpg/sg134_5_cif.got.tgz:9122.got - 2010.05.20 12:42:49.
