data_PCOD9568778
_publ_section_title
;
Structure prediction by ZEFSAII (Michael W. Deem and Ramdas Pophale) SiO2 
 PCOD9568778
Probable space group: P 42/M B C
;
_chemical_formula_sum "Si O2"
_cell_formula_units_Z 88
_cell_length_a 14.059815
_cell_length_b 14.059815
_cell_length_c 20.227879
_cell_angle_alpha 90.000000
_cell_angle_beta 90.000000
_cell_angle_gamma 90.000000
_cell_volume 3998.614712
_symmetry_space_group_name_H-M "P 42/M B C"
_symmetry_group_IT_number 135
_symmetry_cell_setting 'tetragonal'
loop_
_space_group_symop_operation_xyz
x,y,z
-y,x,1/2+z
-x,-y,z
y,-x,1/2+z
1/2+x,1/2-y,-z
1/2-x,1/2+y,-z
1/2+y,1/2+x,1/2-z
1/2-y,1/2-x,1/2-z
-x,-y,-z
y,-x,1/2-z
x,y,-z
-y,x,1/2-z
1/2-x,1/2+y,z
1/2+x,1/2-y,z
1/2-y,1/2-x,1/2+z
1/2+y,1/2+x,1/2+z
loop_
_atom_site_type_symbol
_atom_site_label
_atom_site_fract_x
_atom_site_fract_y
_atom_site_fract_z
Si Si1 0.148540 0.169500 0.382025
Si Si2 0.050432 0.152549 0.747948
Si Si3 0.739795 0.757850 0.000000
Si Si4 0.458214 0.158229 0.500000
Si Si5 0.494500 0.215763 0.861933
Si Si6 0.000000 0.500000 0.607545
Si Si7 0.551687 0.310380 0.000000
Si Si8 0.518421 0.383959 0.500000
O O1 0.086724 0.199531 0.319834
O O2 0.194534 0.239137 0.434558
O O3 0.079766 0.109911 0.431665
O O4 0.238676 0.110576 0.354039
O O5 0.055215 0.225971 0.808169
O O6 0.942583 0.113153 0.739930
O O7 0.837184 0.807521 0.000000
O O8 0.661907 0.842028 0.000000
O O9 0.492928 0.095073 0.562009
O O10 0.492628 0.267867 0.500000
O O11 0.518822 0.253383 0.935418
O O12 0.502079 0.102315 0.856072
O O13 0.548855 0.425435 0.000000
#
# Coordination Sequence:
#
# PCOD9568778 Si02
#       8
#    16  16   8   8  16   8   8   8
#     4  10  20  37  60  94 127 169 211 274 342 387
#     4   9  19  37  63  93 131 170 218 283 353 405
#     4  10  20  36  56  90 128 171 213 277 311 389
#     4  10  20  37  57  89 131 167 211 260 324 377
#     4  11  22  37  63  95 130 173 217 267 331 401
#     4  11  22  36  60  89 128 182 210 260 312 405
#     4  11  22  35  56  96 125 165 225 272 338 386
#     4  10  22  33  61  92 129 162 219 285 329 388
#
# _framework density 22.007622000000001
#
# number of rings (size 3 to 8) (size 9 to 14) (size 15 to 20)
#    0.000    1.818    1.818    3.273    5.091    2.909 
#    0.000    0.909    0.000    3.273    0.000    0.000 
#    0.000    0.000    0.000    0.000    0.000    0.000 
#
# Total GULP energy -490432.829740 kJ/mol
# GULP energy per Si atom -5573.100338 kJ/mol
# Density = 2.195753 g / cm^3
# Si number density = 22.007622 Si / 1000 Ang^3
#
#
#
# Elastic Constant Matrix: (Units=GPa)
#
#
# Indices 1 2 3 4 5 6 
#
# 1 97.9826 32.3819 39.9917 0.0000 0.0000 0.0000
# 2 32.3819 97.9826 39.9917 0.0000 0.0000 0.0000
# 3 39.9917 39.9917 136.8058 0.0000 0.0000 0.0000
# 4 0.0000 0.0000 0.0000 4.6208 0.0000 0.0000
# 5 0.0000 0.0000 0.0000 0.0000 4.6208 0.0000
# 6 0.0000 0.0000 0.0000 0.0000 0.0000 29.3111
#
#
#
# Elastic Compliance Matrix: (Units=1/GPa)
#
#
# Indices 1 2 3 4 5 6 
#
# 1 0.012295 -0.002948 -0.002732 0.000000 0.000000 0.000000
# 2 -0.002948 0.012295 -0.002732 0.000000 0.000000 0.000000
# 3 -0.002732 -0.002732 0.008907 0.000000 0.000000 0.000000
# 4 0.000000 0.000000 0.000000 0.216414 0.000000 0.000000
# 5 0.000000 0.000000 0.000000 0.000000 0.216414 0.000000
# 6 0.000000 0.000000 0.000000 0.000000 0.000000 0.034117
#
#
# Mechanical properties :
#
#
# Convention : Reuss Voigt Hill
#
# Bulk Modulus (GPa) = 59.98111 61.94462 60.96287
# Shear Modulus (GPa) = 9.56341 22.40425 15.98383
#
# Velocity S-wave (km/s) = 2.08685 3.19411 2.69789
# Velocity P-wave (km/s) = 5.75504 6.46615 6.12093
#
# Compressibility (1/GPa) = 0.01667192
#
# Stress axis : x y z
#
# Youngs Moduli (GPa) = 81.33066 81.33066 112.26946
#
# Poissons Ratio (x) = 0.23978 0.30677
# Poissons Ratio (y) = 0.23978 0.30677
# Poissons Ratio (z) = 0.22223 0.22223
#
# Static dielectric constant tensor:
#      x y z
#    x 1.880310 0.000000 0.000000 
#    y 0.000000 1.880310 0.000000 
#    z 0.000000 0.000000 1.777450 
# 
# From -- ./inp_files/5404.got.cif
#   From: 2010.05.17/outbox.cif.g08.bks.cpg/sg135_3_cif.got.tgz:5404.got - 2010.05.20 12:50:20.
