data_PCOD9568233
_publ_section_title
;
Structure prediction by ZEFSAII (Michael W. Deem and Ramdas Pophale) SiO2 
 PCOD9568233
Probable space group: P 42/N N M
;
_chemical_formula_sum "Si O2"
_cell_formula_units_Z 64
_cell_length_a 22.924466
_cell_length_b 22.924466
_cell_length_c 7.393910
_cell_angle_alpha 90.000000
_cell_angle_beta 90.000000
_cell_angle_gamma 90.000000
_cell_volume 3885.729962
_symmetry_space_group_name_H-M "P 42/N N M"
_symmetry_group_IT_number 134
_space_group.IT_coordinate_system_code '2'
_symmetry_cell_setting 'tetragonal'
loop_
_space_group_symop_operation_xyz
x,y,z
1/2-y,x,1/2+z
1/2-x,1/2-y,z
y,1/2-x,1/2+z
x,1/2-y,1/2-z
1/2-x,y,1/2-z
y,x,-z
1/2-y,1/2-x,-z
-x,-y,-z
1/2+y,-x,1/2-z
1/2+x,1/2+y,-z
-y,1/2+x,1/2-z
-x,1/2+y,1/2+z
1/2+x,-y,1/2+z
-y,-x,z
1/2+y,1/2+x,z
loop_
_atom_site_type_symbol
_atom_site_label
_atom_site_fract_x
_atom_site_fract_y
_atom_site_fract_z
Si Si1 0.050825 0.185314 0.719710
Si Si2 0.403109 0.997533 0.500600
Si Si3 0.166446 0.316121 0.213167
Si Si4 0.814987 0.967267 0.294000
O O1 0.027912 0.250000 0.750000
O O2 0.119710 0.186832 0.780333
O O3 0.041334 0.172675 0.507051
O O4 0.015604 0.140028 0.839858
O O5 0.452430 0.047571 0.500000
O O6 0.365223 0.000059 0.684441
O O7 0.436708 0.936708 0.477956
O O8 0.188654 0.250000 0.250000
O O9 0.099501 0.314499 0.275748
O O10 0.175968 0.324033 0.000000
O O11 0.750000 0.990705 0.250000
#
# Coordination Sequence:
#
# PCOD9568233 Si02
#       4
#    16  16  16  16
#     4  11  21  35  58  78 108 149 191 232 276 327
#     4  11  23  37  56  82 115 149 186 232 282 334
#     4   9  19  33  50  71 104 145 191 234 266 310
#     4  10  19  36  56  77 105 147 189 227 272 321
#
# _framework density 16.470523
#
# number of rings (size 3 to 8) (size 9 to 14) (size 15 to 20)
#    0.000    1.750    5.000    0.000    0.000    1.500 
#    0.000    6.250    0.000    0.000    0.000    0.000 
#    0.000    3.000    0.000    0.000    0.000    0.000 
#
# Total GULP energy -356449.325383 kJ/mol
# GULP energy per Si atom -5569.520709 kJ/mol
# Density = 1.643304 g / cm^3
# Si number density = 16.470523 Si / 1000 Ang^3
#
#
#
# Elastic Constant Matrix: (Units=GPa)
#
#
# Indices 1 2 3 4 5 6 
#
# 1 98.0549 64.2583 40.5696 0.0000 0.0000 0.0000
# 2 64.2583 98.0549 40.5695 0.0000 0.0000 0.0000
# 3 40.5696 40.5695 100.9349 0.0000 0.0000 0.0000
# 4 0.0000 0.0000 0.0000 11.1776 0.0000 0.0000
# 5 0.0000 0.0000 0.0000 0.0000 11.1782 0.0000
# 6 0.0000 0.0000 0.0000 0.0000 0.0000 4.9804
#
#
#
# Elastic Compliance Matrix: (Units=1/GPa)
#
#
# Indices 1 2 3 4 5 6 
#
# 1 0.018649 -0.010939 -0.003099 0.000000 0.000000 0.000000
# 2 -0.010939 0.018649 -0.003099 0.000000 0.000000 0.000000
# 3 -0.003099 -0.003099 0.012399 0.000000 0.000000 0.000000
# 4 0.000000 0.000000 0.000000 0.089465 0.000000 0.000000
# 5 0.000000 0.000000 0.000000 0.000000 0.089460 0.000000
# 6 0.000000 0.000000 0.000000 0.000000 0.000000 0.200788
#
#
# Mechanical properties :
#
#
# Convention : Reuss Voigt Hill
#
# Bulk Modulus (GPa) = 64.83891 65.31549 65.07720
# Shear Modulus (GPa) = 10.66496 15.57706 13.12101
#
# Velocity S-wave (km/s) = 2.54740 3.07865 2.82554
# Velocity P-wave (km/s) = 6.93573 7.23737 7.08816
#
# Compressibility (1/GPa) = 0.01542284
#
# Stress axis : x y z
#
# Youngs Moduli (GPa) = 53.62093 53.62100 80.65450
#
# Poissons Ratio (x) = 0.58658 0.24995
# Poissons Ratio (y) = 0.58658 0.24994
# Poissons Ratio (z) = 0.16617 0.16617
#
# Static dielectric constant tensor:
#      x y z
#    x 1.563160 0.000000 0.000000 
#    y 0.000000 1.563160 0.000000 
#    z 0.000000 0.000000 1.608370 
# 
# From -- ./inp_files/2763.got.cif
#   From: 2010.05.17/outbox.cif.g08.bks.cpg/sg134_2_cif.got.tgz:2763.got - 2010.05.20 12:42:49.
