data_PCOD9568866
_publ_section_title
;
Structure prediction by ZEFSAII (Michael W. Deem and Ramdas Pophale) SiO2 
 PCOD9568866
Probable space group: P 42/M B C
;
_chemical_formula_sum "Si O2"
_cell_formula_units_Z 40
_cell_length_a 9.648883
_cell_length_b 9.648883
_cell_length_c 18.460876
_cell_angle_alpha 90.000000
_cell_angle_beta 90.000000
_cell_angle_gamma 90.000000
_cell_volume 1718.724967
_symmetry_space_group_name_H-M "P 42/M B C"
_symmetry_group_IT_number 135
_symmetry_cell_setting 'tetragonal'
loop_
_space_group_symop_operation_xyz
x,y,z
-y,x,1/2+z
-x,-y,z
y,-x,1/2+z
1/2+x,1/2-y,-z
1/2-x,1/2+y,-z
1/2+y,1/2+x,1/2-z
1/2-y,1/2-x,1/2-z
-x,-y,-z
y,-x,1/2-z
x,y,-z
-y,x,1/2-z
1/2-x,1/2+y,z
1/2+x,1/2-y,z
1/2-y,1/2-x,1/2+z
1/2+y,1/2+x,1/2+z
loop_
_atom_site_type_symbol
_atom_site_label
_atom_site_fract_x
_atom_site_fract_y
_atom_site_fract_z
Si Si1 0.203225 0.999059 0.081877
Si Si2 0.261931 0.816048 0.670436
Si Si3 0.500000 0.000000 0.129469
O O1 0.141943 0.117448 0.133758
O O2 0.210339 0.848307 0.118889
O O3 0.366855 0.037574 0.082559
O O4 0.152289 0.999130 0.000000
O O5 0.251890 0.751890 0.750000
O O6 0.366804 0.947124 0.673643
#
# Coordination Sequence:
#
# PCOD9568866 Si02
#       3
#    16  16   8
#     4  10  21  38  63  92 122 163 209 260 320 383
#     4  10  22  36  67  89 125 164 216 259 320 381
#     4   8  22  38  62  84 126 160 210 250 328 366
#
# _framework density 23.273066
#
# number of rings (size 3 to 8) (size 9 to 14) (size 15 to 20)
#    2.400    0.000    0.000    2.400    5.600    0.000 
#    0.000    2.000    0.000    4.800    0.000    0.000 
#    0.000    0.000    0.000    0.000    0.000    0.000 
#
# Total GULP energy -222749.354718 kJ/mol
# GULP energy per Si atom -5568.733868 kJ/mol
# Density = 2.322010 g / cm^3
# Si number density = 23.273066 Si / 1000 Ang^3
#
#
#
# Elastic Constant Matrix: (Units=GPa)
#
#
# Indices 1 2 3 4 5 6 
#
# 1 97.9266 -6.3971 12.5963 0.0000 0.0000 0.0000
# 2 -6.3971 97.9266 12.5963 0.0000 0.0000 0.0000
# 3 12.5963 12.5963 164.2759 0.0000 0.0000 0.0000
# 4 0.0000 0.0000 0.0000 10.3583 0.0000 0.0000
# 5 0.0000 0.0000 0.0000 0.0000 10.3583 0.0000
# 6 0.0000 0.0000 0.0000 0.0000 0.0000 38.3238
#
#
#
# Elastic Compliance Matrix: (Units=1/GPa)
#
#
# Indices 1 2 3 4 5 6 
#
# 1 0.010373 0.000788 -0.000856 0.000000 0.000000 0.000000
# 2 0.000788 0.010373 -0.000856 0.000000 0.000000 0.000000
# 3 -0.000856 -0.000856 0.006219 0.000000 0.000000 0.000000
# 4 0.000000 0.000000 0.000000 0.096541 0.000000 0.000000
# 5 0.000000 0.000000 0.000000 0.000000 0.096541 0.000000
# 6 0.000000 0.000000 0.000000 0.000000 0.000000 0.026093
#
#
# Mechanical properties :
#
#
# Convention : Reuss Voigt Hill
#
# Bulk Modulus (GPa) = 39.81311 44.19110 42.00211
# Shear Modulus (GPa) = 19.50375 34.56365 27.03370
#
# Velocity S-wave (km/s) = 2.89803 3.85793 3.41190
# Velocity P-wave (km/s) = 5.32374 6.23491 5.79725
#
# Compressibility (1/GPa) = 0.02511735
#
# Stress axis : x y z
#
# Youngs Moduli (GPa) = 96.40163 96.40163 160.80887
#
# Poissons Ratio (x) = -0.07594 0.13762
# Poissons Ratio (y) = -0.07594 0.13762
# Poissons Ratio (z) = 0.08250 0.08250
#
# Static dielectric constant tensor:
#      x y z
#    x 1.906220 0.000000 0.000000 
#    y 0.000000 1.906220 0.000000 
#    z 0.000000 0.000000 1.854110 
# 
# From -- ./inp_files/3920.got.cif
#   From: 2010.05.17/outbox.cif.g08.bks.cpg/sg135_2_cif.got.tgz:3920.got - 2010.05.20 12:50:20.
