data_PCOD9568567
_publ_section_title
;
Structure prediction by ZEFSAII (Michael W. Deem and Ramdas Pophale) SiO2 
 PCOD9568567
Probable space group: P 42/N N M
;
_chemical_formula_sum "Si O2"
_cell_formula_units_Z 58
_cell_length_a 17.991118
_cell_length_b 17.991118
_cell_length_c 7.933285
_cell_angle_alpha 90.000000
_cell_angle_beta 90.000000
_cell_angle_gamma 90.000000
_cell_volume 2567.848282
_symmetry_space_group_name_H-M "P 42/N N M"
_symmetry_group_IT_number 134
_space_group.IT_coordinate_system_code '2'
_symmetry_cell_setting 'tetragonal'
loop_
_space_group_symop_operation_xyz
x,y,z
1/2-y,x,1/2+z
1/2-x,1/2-y,z
y,1/2-x,1/2+z
x,1/2-y,1/2-z
1/2-x,y,1/2-z
y,x,-z
1/2-y,1/2-x,-z
-x,-y,-z
1/2+y,-x,1/2-z
1/2+x,1/2+y,-z
-y,1/2+x,1/2-z
-x,1/2+y,1/2+z
1/2+x,-y,1/2+z
-y,-x,z
1/2+y,1/2+x,z
loop_
_atom_site_type_symbol
_atom_site_label
_atom_site_fract_x
_atom_site_fract_y
_atom_site_fract_z
Si Si1 0.125897 0.125897 0.500000
Si Si2 0.504993 0.226380 0.063665
Si Si3 0.349544 0.422774 0.155340
Si Si4 0.967088 0.032913 0.676972
Si Si5 0.250000 0.750000 0.250000
Si Si6 0.647912 0.147912 0.971814
O O1 0.166867 0.130922 0.317427
O O2 0.042532 0.152100 0.464763
O O3 0.483605 0.250000 0.250000
O O4 0.478965 0.286702 0.922482
O O5 0.590571 0.202392 0.064906
O O6 0.422268 0.470520 0.214939
O O7 0.371627 0.371627 0.000000
O O8 0.905121 0.094880 0.637646
O O9 0.000000 0.000000 0.500000
O O10 0.301393 0.698608 0.360266
#
# Coordination Sequence:
#
# PCOD9568567 Si02
#       6
#     8  16  16   8   2   8
#     4  12  24  49  73 106 156 186 259 335 376 458
#     4  12  27  47  77 110 149 206 257 319 401 469
#     4  12  24  44  75 108 149 195 250 318 389 462
#     4  12  23  42  74 111 142 195 254 330 385 441
#     4  12  28  48  66 112 160 216 250 300 400 482
#     4  12  26  45  73 104 156 199 250 311 377 470
#
# _framework density 22.587002999999999
#
# number of rings (size 3 to 8) (size 9 to 14) (size 15 to 20)
#    0.000    0.000    6.897    2.897    0.000    2.207 
#    0.000    0.690    0.000    0.000    0.000    0.000 
#    0.000    0.000    0.000    0.000    0.000    0.000 
#
# Total GULP energy -323022.675893 kJ/mol
# GULP energy per Si atom -5569.356481 kJ/mol
# Density = 2.253559 g / cm^3
# Si number density = 22.587003 Si / 1000 Ang^3
#
#
#
# Elastic Constant Matrix: (Units=GPa)
#
#
# Indices 1 2 3 4 5 6 
#
# 1 103.6289 50.6076 48.7716 0.0000 0.0000 0.0000
# 2 50.6076 103.6289 48.7716 0.0000 0.0000 0.0000
# 3 48.7716 48.7716 189.5773 0.0000 0.0000 0.0000
# 4 0.0000 0.0000 0.0000 47.3270 0.0000 0.0000
# 5 0.0000 0.0000 0.0000 0.0000 47.3270 0.0000
# 6 0.0000 0.0000 0.0000 0.0000 0.0000 53.0202
#
#
#
# Elastic Compliance Matrix: (Units=1/GPa)
#
#
# Indices 1 2 3 4 5 6 
#
# 1 0.013302 -0.005558 -0.001992 0.000000 0.000000 0.000000
# 2 -0.005558 0.013302 -0.001992 0.000000 0.000000 0.000000
# 3 -0.001992 -0.001992 0.006300 0.000000 0.000000 0.000000
# 4 0.000000 0.000000 0.000000 0.021130 0.000000 0.000000
# 5 0.000000 0.000000 0.000000 0.000000 0.021130 0.000000
# 6 0.000000 0.000000 0.000000 0.000000 0.000000 0.018861
#
#
# Mechanical properties :
#
#
# Convention : Reuss Voigt Hill
#
# Bulk Modulus (GPa) = 72.36787 77.01516 74.69152
# Shear Modulus (GPa) = 42.47548 46.11381 44.29464
#
# Velocity S-wave (km/s) = 4.34121 4.52332 4.43320
# Velocity P-wave (km/s) = 7.56553 7.83911 7.70354
#
# Compressibility (1/GPa) = 0.01381829
#
# Stress axis : x y z
#
# Youngs Moduli (GPa) = 75.17737 75.17737 158.73286
#
# Poissons Ratio (x) = 0.41787 0.31621
# Poissons Ratio (y) = 0.41787 0.31621
# Poissons Ratio (z) = 0.14976 0.14976
#
# Static dielectric constant tensor:
#      x y z
#    x 1.865350 0.000000 0.000000 
#    y 0.000000 1.865350 0.000000 
#    z 0.000000 0.000000 1.947100 
# 
# From -- ./inp_files/2477.got.cif
#   From: 2010.05.17/outbox.cif.g08.bks.cpg/sg134_2_cif.got.tgz:2477.got - 2010.05.20 12:42:49.
