data_PCOD9568184
_publ_section_title
;
Structure prediction by ZEFSAII (Michael W. Deem and Ramdas Pophale) SiO2 
 PCOD9568184
Probable space group: P 42/N N M
;
_chemical_formula_sum "Si O2"
_cell_formula_units_Z 112
_cell_length_a 16.261639
_cell_length_b 16.261639
_cell_length_c 23.756113
_cell_angle_alpha 90.000000
_cell_angle_beta 90.000000
_cell_angle_gamma 90.000000
_cell_volume 6282.087973
_symmetry_space_group_name_H-M "P 42/N N M"
_symmetry_group_IT_number 134
_space_group.IT_coordinate_system_code '2'
_symmetry_cell_setting 'tetragonal'
loop_
_space_group_symop_operation_xyz
x,y,z
1/2-y,x,1/2+z
1/2-x,1/2-y,z
y,1/2-x,1/2+z
x,1/2-y,1/2-z
1/2-x,y,1/2-z
y,x,-z
1/2-y,1/2-x,-z
-x,-y,-z
1/2+y,-x,1/2-z
1/2+x,1/2+y,-z
-y,1/2+x,1/2-z
-x,1/2+y,1/2+z
1/2+x,-y,1/2+z
-y,-x,z
1/2+y,1/2+x,z
loop_
_atom_site_type_symbol
_atom_site_label
_atom_site_fract_x
_atom_site_fract_y
_atom_site_fract_z
Si Si1 0.706176 0.066761 0.810157
Si Si2 0.526960 0.161631 0.598423
Si Si3 0.611759 0.979049 0.050480
Si Si4 0.478837 0.838907 0.735450
Si Si5 0.602200 0.965796 0.378644
Si Si6 0.294391 0.075858 0.512132
Si Si7 0.426263 0.435009 0.324918
O O1 0.750000 0.076577 0.750000
O O2 0.639001 0.139001 0.816918
O O3 0.770184 0.066333 0.861552
O O4 0.659839 0.978881 0.813122
O O5 0.596688 0.096688 0.580174
O O6 0.459463 0.109641 0.633517
O O7 0.477725 0.194470 0.544456
O O8 0.704427 0.950952 0.034705
O O9 0.592408 0.937746 0.110695
O O10 0.573620 0.073620 0.054500
O O11 0.560680 0.939321 0.000000
O O12 0.444863 0.750000 0.750000
O O13 0.407222 0.907222 0.736283
O O14 0.519211 0.839026 0.673855
O O15 0.547023 0.865105 0.781305
O O16 0.645756 0.951662 0.437618
O O17 0.545281 0.045281 0.384139
O O18 0.330344 0.169657 0.500000
O O19 0.492918 0.507083 0.315812
#
# Coordination Sequence:
#
# PCOD9568184 Si02
#       7
#    16  16  16  16  16  16  16
#     4  11  22  36  55  79 108 142 182 227 273 323
#     4  10  20  34  53  77 106 139 175 217 268 325
#     4  10  20  35  54  75 103 141 180 219 269 327
#     4  10  19  32  53  78 103 132 167 211 263 318
#     4   9  18  34  54  75 101 136 175 212 257 318
#     4  10  20  34  55  81 106 136 178 227 271 319
#     4   9  19  35  54  75 101 139 184 220 256 317
#
# _framework density 17.828468000000001
#
# number of rings (size 3 to 8) (size 9 to 14) (size 15 to 20)
#    0.000    2.143    0.000    3.429    0.000    7.143 
#    0.000    0.000    0.000   11.143    0.000    0.000 
#    0.000    0.000    0.000    0.000    0.000    0.000 
#
# Total GULP energy -623477.877533 kJ/mol
# GULP energy per Si atom -5566.766764 kJ/mol
# Density = 1.778789 g / cm^3
# Si number density = 17.828468 Si / 1000 Ang^3
#
#
#
# Elastic Constant Matrix: (Units=GPa)
#
#
# Indices 1 2 3 4 5 6 
#
# 1 80.1988 19.8378 15.8613 0.0000 0.0000 0.0000
# 2 19.8378 80.1993 15.8599 0.0000 0.0000 0.0000
# 3 15.8613 15.8599 82.4049 0.0000 0.0000 0.0000
# 4 0.0000 0.0000 0.0000 36.5858 0.0000 0.0000
# 5 0.0000 0.0000 0.0000 0.0000 36.5846 0.0000
# 6 0.0000 0.0000 0.0000 0.0000 0.0000 18.8438
#
#
#
# Elastic Compliance Matrix: (Units=1/GPa)
#
#
# Indices 1 2 3 4 5 6 
#
# 1 0.013607 -0.002960 -0.002049 0.000000 0.000000 0.000000
# 2 -0.002960 0.013606 -0.002049 0.000000 0.000000 0.000000
# 3 -0.002049 -0.002049 0.012924 0.000000 0.000000 0.000000
# 4 0.000000 0.000000 0.000000 0.027333 0.000000 0.000000
# 5 0.000000 0.000000 0.000000 0.000000 0.027334 0.000000
# 6 0.000000 0.000000 0.000000 0.000000 0.000000 0.053068
#
#
# Mechanical properties :
#
#
# Convention : Reuss Voigt Hill
#
# Bulk Modulus (GPa) = 38.43221 38.43567 38.43394
# Shear Modulus (GPa) = 29.29763 31.15242 30.22502
#
# Velocity S-wave (km/s) = 4.05817 4.18466 4.12190
# Velocity P-wave (km/s) = 6.60013 6.70476 6.65265
#
# Compressibility (1/GPa) = 0.02601984
#
# Stress axis : x y z
#
# Youngs Moduli (GPa) = 73.49378 73.49479 77.37552
#
# Poissons Ratio (x) = 0.21758 0.15856
# Poissons Ratio (y) = 0.21757 0.15854
# Poissons Ratio (z) = 0.15061 0.15058
#
# Static dielectric constant tensor:
#      x y z
#    x 1.635280 0.000000 0.000000 
#    y 0.000000 1.635280 0.000000 
#    z 0.000000 0.000000 1.593260 
# 
# From -- ./inp_files/10119.got.cif
#   From: 2010.05.17/outbox.cif.g08.bks.cpg/sg134_6_cif.got.tgz:10119.got - 2010.05.20 12:42:49.
