data_PCOD9568762
_publ_section_title
;
Structure prediction by ZEFSAII (Michael W. Deem and Ramdas Pophale) SiO2 
 PCOD9568762
Probable space group: P 42/M B C
;
_chemical_formula_sum "Si O2"
_cell_formula_units_Z 112
_cell_length_a 14.869401
_cell_length_b 14.869401
_cell_length_c 25.277324
_cell_angle_alpha 90.000000
_cell_angle_beta 90.000000
_cell_angle_gamma 90.000000
_cell_volume 5588.793235
_symmetry_space_group_name_H-M "P 42/M B C"
_symmetry_group_IT_number 135
_symmetry_cell_setting 'tetragonal'
loop_
_space_group_symop_operation_xyz
x,y,z
-y,x,1/2+z
-x,-y,z
y,-x,1/2+z
1/2+x,1/2-y,-z
1/2-x,1/2+y,-z
1/2+y,1/2+x,1/2-z
1/2-y,1/2-x,1/2-z
-x,-y,-z
y,-x,1/2-z
x,y,-z
-y,x,1/2-z
1/2-x,1/2+y,z
1/2+x,1/2-y,z
1/2-y,1/2-x,1/2+z
1/2+y,1/2+x,1/2+z
loop_
_atom_site_type_symbol
_atom_site_label
_atom_site_fract_x
_atom_site_fract_y
_atom_site_fract_z
Si Si1 0.401198 0.598802 0.250000
Si Si2 0.272018 0.352289 0.657157
Si Si3 0.299334 0.606588 0.940635
Si Si4 0.396369 0.901888 0.596226
Si Si5 0.772018 0.852289 0.657157
Si Si6 0.098112 0.603631 0.096226
Si Si7 0.799334 0.106588 0.059365
O O1 0.500000 0.606259 0.275330
O O2 0.393439 0.673122 0.205030
O O3 0.326878 0.606561 0.294970
O O4 0.334056 0.345816 0.604464
O O5 0.178308 0.397842 0.641807
O O6 0.250000 0.250000 0.672030
O O7 0.190654 0.618982 0.935832
O O8 0.316527 0.500000 0.933019
O O9 0.327253 0.631950 0.000000
O O10 0.500000 0.896309 0.615100
O O11 0.381018 0.809346 0.564169
O O12 0.387467 1.000000 0.569167
O O13 0.678308 0.897842 0.641807
O O14 0.834056 0.845816 0.604464
O O15 0.827253 0.131950 0.000000
#
# Coordination Sequence:
#
# PCOD9568762 Si02
#       7
#    16  16  16  16  16  16  16
#     4  11  23  38  58  82 107 139 182 230 276 325
#     4  10  20  35  56  80 107 142 179 222 271 325
#     4   9  18  33  54  79 107 141 180 221 267 321
#     4   9  18  32  51  77 107 138 175 219 267 322
#     4  10  20  35  56  80 107 142 179 222 271 325
#     4   9  18  32  51  77 107 138 175 219 267 322
#     4   9  18  33  54  79 107 141 180 221 267 321
#
# _framework density 20.040106000000002
#
# number of rings (size 3 to 8) (size 9 to 14) (size 15 to 20)
#    0.000    2.429    0.000    2.143    0.000    6.857 
#    0.000    2.857    0.000    4.286    0.000   26.000 
#    0.000    0.000    0.000    0.000    0.000    0.000 
#
# Total GULP energy -624446.233746 kJ/mol
# GULP energy per Si atom -5575.412801 kJ/mol
# Density = 1.999449 g / cm^3
# Si number density = 20.040106 Si / 1000 Ang^3
#
#
#
# Elastic Constant Matrix: (Units=GPa)
#
#
# Indices 1 2 3 4 5 6 
#
# 1 68.2816 15.1303 34.4777 0.0000 0.0000 0.0000
# 2 15.1303 68.2816 34.4777 0.0000 0.0000 0.0000
# 3 34.4777 34.4777 85.0354 0.0000 0.0000 0.0000
# 4 0.0000 0.0000 0.0000 -5.9812 0.0000 0.0000
# 5 0.0000 0.0000 0.0000 0.0000 -5.9812 0.0000
# 6 0.0000 0.0000 0.0000 0.0000 0.0000 13.0688
#
#
#
# Elastic Compliance Matrix: (Units=1/GPa)
#
#
# Indices 1 2 3 4 5 6 
#
# 1 0.018424 -0.000391 -0.007311 0.000000 0.000000 0.000000
# 2 -0.000391 0.018424 -0.007311 0.000000 0.000000 0.000000
# 3 -0.007311 -0.007311 0.017689 0.000000 0.000000 0.000000
# 4 0.000000 0.000000 0.000000 -0.167191 0.000000 0.000000
# 5 0.000000 0.000000 0.000000 0.000000 -0.167191 0.000000
# 6 0.000000 0.000000 0.000000 0.000000 0.000000 0.076518
#
#
# Mechanical properties :
#
#
# Convention : Reuss Voigt Hill
#
# Bulk Modulus (GPa) = 40.80182 43.30780 42.05481
# Shear Modulus (GPa) = -30.27881 9.38882 -10.44500
#
# Velocity S-wave (km/s) = -3.89126 2.16684 -2.28547
# Velocity P-wave (km/s) = 0.46375 5.28372 3.75052
#
# Compressibility (1/GPa) = 0.02450871
#
# Stress axis : x y z
#
# Youngs Moduli (GPa) = 54.27820 54.27820 56.53320
#
# Poissons Ratio (x) = 0.02120 0.41334
# Poissons Ratio (y) = 0.02120 0.41334
# Poissons Ratio (z) = 0.39686 0.39686
#
# Static dielectric constant tensor:
#      x y z
#    x 1.732790 0.000000 0.000000 
#    y 0.000000 1.732790 0.000000 
#    z 0.000000 0.000000 1.667270 
# 
# From -- ./inp_files/6146.got.cif
#   From: 2010.05.17/outbox.cif.g08.bks.cpg/sg135_4_cif.got.tgz:6146.got - 2010.05.20 12:50:20.
