data_PCOD9568269
_publ_section_title
;
Structure prediction by ZEFSAII (Michael W. Deem and Ramdas Pophale) SiO2 
 PCOD9568269
Probable space group: P 42/N N M
;
_chemical_formula_sum "Si O2"
_cell_formula_units_Z 128
_cell_length_a 17.120367
_cell_length_b 17.120367
_cell_length_c 24.275610
_cell_angle_alpha 90.000000
_cell_angle_beta 90.000000
_cell_angle_gamma 90.000000
_cell_volume 7115.350400
_symmetry_space_group_name_H-M "P 42/N N M"
_symmetry_group_IT_number 134
_space_group.IT_coordinate_system_code '2'
_symmetry_cell_setting 'tetragonal'
loop_
_space_group_symop_operation_xyz
x,y,z
1/2-y,x,1/2+z
1/2-x,1/2-y,z
y,1/2-x,1/2+z
x,1/2-y,1/2-z
1/2-x,y,1/2-z
y,x,-z
1/2-y,1/2-x,-z
-x,-y,-z
1/2+y,-x,1/2-z
1/2+x,1/2+y,-z
-y,1/2+x,1/2-z
-x,1/2+y,1/2+z
1/2+x,-y,1/2+z
-y,-x,z
1/2+y,1/2+x,z
loop_
_atom_site_type_symbol
_atom_site_label
_atom_site_fract_x
_atom_site_fract_y
_atom_site_fract_z
Si Si1 0.936159 0.570730 0.678047
Si Si2 0.666436 0.465398 0.261341
Si Si3 0.955767 0.590003 0.059468
Si Si4 0.442142 0.810241 0.300824
Si Si5 0.911792 0.538543 0.445126
Si Si6 0.285505 0.918518 0.086089
Si Si7 0.906045 0.216853 0.035818
Si Si8 0.347849 0.520041 0.615127
O O1 0.860303 0.522244 0.696581
O O2 0.925643 0.600145 0.615242
O O3 0.006763 0.506763 0.676676
O O4 0.967021 0.637406 0.719637
O O5 0.750000 0.428272 0.250000
O O6 0.599633 0.400368 0.259782
O O7 0.679312 0.493554 0.323354
O O8 0.886071 0.561110 0.097338
O O9 0.024995 0.524995 0.060027
O O10 0.000208 0.668391 0.075522
O O11 0.916754 0.583246 0.000000
O O12 0.443391 0.750000 0.250000
O O13 0.372146 0.872146 0.292278
O O14 0.427244 0.767666 0.359690
O O15 0.909335 0.590666 0.500000
O O16 0.849649 0.470607 0.455160
O O17 0.997700 0.497700 0.443230
O O18 0.349218 0.849218 0.094467
O O19 0.241259 0.901787 0.028408
O O20 0.823312 0.176689 0.051913
O O21 0.938792 0.287335 0.073358
O O22 0.418878 0.581123 0.617312
#
# Coordination Sequence:
#
# PCOD9568269 Si02
#       8
#    16  16  16  16  16  16  16  16
#     4   9  19  37  57  79 109 148 198 241 275 333
#     4  10  21  36  57  84 114 149 188 233 288 343
#     4   9  17  33  54  76 104 139 189 237 270 317
#     4  11  24  39  57  84 117 154 195 240 293 348
#     4   9  17  31  52  75 102 136 178 228 274 323
#     4  11  22  35  55  82 115 154 190 232 290 353
#     4  11  21  32  51  82 115 144 176 219 284 355
#     4  10  20  33  51  77 107 142 182 224 268 324
#
# _framework density 17.989276
#
# number of rings (size 3 to 8) (size 9 to 14) (size 15 to 20)
#    0.000    2.000    1.250    2.625    1.750    6.000 
#    0.000    1.250    0.000    0.375    0.000    5.250 
#    0.000    0.000    0.000    0.000    0.000    0.000 
#
# Total GULP energy -712771.077424 kJ/mol
# GULP energy per Si atom -5568.524042 kJ/mol
# Density = 1.794833 g / cm^3
# Si number density = 17.989276 Si / 1000 Ang^3
#
#
#
# Elastic Constant Matrix: (Units=GPa)
#
#
# Indices 1 2 3 4 5 6 
#
# 1 26.9212 54.1986 29.5510 0.0000 0.0000 0.0000
# 2 54.1986 26.9206 29.5507 0.0000 0.0000 0.0000
# 3 29.5510 29.5507 125.3458 0.0000 0.0000 0.0000
# 4 0.0000 0.0000 0.0000 15.9700 0.0000 0.0000
# 5 0.0000 0.0000 0.0000 0.0000 15.9700 0.0000
# 6 0.0000 0.0000 0.0000 0.0000 0.0000 17.4627
#
#
#
# Elastic Compliance Matrix: (Units=1/GPa)
#
#
# Indices 1 2 3 4 5 6 
#
# 1 -0.010888 0.025772 -0.003509 0.000000 0.000000 0.000000
# 2 0.025772 -0.010888 -0.003509 0.000000 0.000000 0.000000
# 3 -0.003509 -0.003509 0.009632 0.000000 0.000000 0.000000
# 4 0.000000 0.000000 0.000000 0.062617 0.000000 0.000000
# 5 0.000000 0.000000 0.000000 0.000000 0.062617 0.000000
# 6 0.000000 0.000000 0.000000 0.000000 0.000000 0.057265
#
#
# Mechanical properties :
#
#
# Convention : Reuss Voigt Hill
#
# Bulk Modulus (GPa) = 39.42498 45.08757 42.25628
# Shear Modulus (GPa) = 35.38499 14.27303 24.82901
#
# Velocity S-wave (km/s) = 4.43990 2.81982 3.71915
# Velocity P-wave (km/s) = 6.94601 5.97661 6.47947
#
# Compressibility (1/GPa) = 0.02536463
#
# Stress axis : x y z
#
# Youngs Moduli (GPa) = -91.84548 -91.84311 103.81570
#
# Poissons Ratio (x) = 2.36699 0.36429
# Poissons Ratio (y) = 2.36705 0.36429
# Poissons Ratio (z) = -0.32228 -0.32228
#
# Static dielectric constant tensor:
#      x y z
#    x 1.608790 0.000000 0.000000 
#    y 0.000000 1.608790 0.000000 
#    z 0.000000 0.000000 1.585330 
# 
# From -- ./inp_files/10292.got.cif
#   From: 2010.05.17/outbox.cif.g08.bks.cpg/sg134_6_cif.got.tgz:10292.got - 2010.05.20 12:42:49.
