data_PCOD9568885
_publ_section_title
;
Structure prediction by ZEFSAII (Michael W. Deem and Ramdas Pophale) SiO2 
 PCOD9568885
Probable space group: P 42/M B C
;
_chemical_formula_sum "Si O2"
_cell_formula_units_Z 112
_cell_length_a 13.923538
_cell_length_b 13.923538
_cell_length_c 25.192797
_cell_angle_alpha 90.000000
_cell_angle_beta 90.000000
_cell_angle_gamma 90.000000
_cell_volume 4883.999334
_symmetry_space_group_name_H-M "P 42/M B C"
_symmetry_group_IT_number 135
_symmetry_cell_setting 'tetragonal'
loop_
_space_group_symop_operation_xyz
x,y,z
-y,x,1/2+z
-x,-y,z
y,-x,1/2+z
1/2+x,1/2-y,-z
1/2-x,1/2+y,-z
1/2+y,1/2+x,1/2-z
1/2-y,1/2-x,1/2-z
-x,-y,-z
y,-x,1/2-z
x,y,-z
-y,x,1/2-z
1/2-x,1/2+y,z
1/2+x,1/2-y,z
1/2-y,1/2-x,1/2+z
1/2+y,1/2+x,1/2+z
loop_
_atom_site_type_symbol
_atom_site_label
_atom_site_fract_x
_atom_site_fract_y
_atom_site_fract_z
Si Si1 0.703409 0.463732 0.288626
Si Si2 0.421434 0.131729 0.873317
Si Si3 0.146539 0.467834 0.204735
Si Si4 0.695410 0.730475 0.060916
Si Si5 0.686308 0.588814 0.847180
Si Si6 0.730142 0.077348 0.438974
Si Si7 0.577012 0.413173 0.865909
O O1 0.786866 0.432133 0.328786
O O2 0.765255 0.480083 0.235993
O O3 0.622978 0.382302 0.298859
O O4 0.649171 0.556541 0.312929
O O5 0.401558 0.037267 0.838628
O O6 0.338101 0.168815 0.913092
O O7 0.517906 0.147934 0.907987
O O8 0.421815 0.921815 0.250000
O O9 0.205574 0.388703 0.171500
O O10 0.657876 0.648732 0.100745
O O11 0.809070 0.716349 0.061791
O O12 0.663873 0.722500 0.000000
O O13 0.672624 0.476869 0.862054
O O14 0.731286 0.046227 0.500000
O O15 0.834823 0.065060 0.411796
O O16 0.500000 0.500000 0.869911
#
# Coordination Sequence:
#
# PCOD9568885 Si02
#       7
#    16  16  16  16  16  16  16
#     4   9  22  42  63  92 134 175 227 279 349 408
#     4  10  22  43  66  94 134 174 236 285 339 420
#     4  12  27  41  65  98 135 186 234 286 343 412
#     4  10  22  43  70 100 137 181 226 285 356 420
#     4  10  23  41  66 103 137 178 227 291 341 421
#     4  10  21  39  70 101 136 181 222 284 359 419
#     4   9  19  38  64  98 133 169 221 287 340 411
#
# _framework density 22.932027000000001
#
# number of rings (size 3 to 8) (size 9 to 14) (size 15 to 20)
#    0.000    2.000    0.000    2.571    6.000    4.286 
#    0.000    1.429    0.000    1.714    0.000    0.000 
#    0.000    0.000    0.000    0.000    0.000    0.000 
#
# Total GULP energy -624527.709000 kJ/mol
# GULP energy per Si atom -5576.140259 kJ/mol
# Density = 2.287983 g / cm^3
# Si number density = 22.932027 Si / 1000 Ang^3
#
#
#
# Elastic Constant Matrix: (Units=GPa)
#
#
# Indices 1 2 3 4 5 6 
#
# 1 101.2737 27.6520 47.4941 0.0000 0.0000 0.0000
# 2 27.6520 101.2737 47.4941 0.0000 0.0000 0.0000
# 3 47.4941 47.4941 168.6125 0.0000 0.0000 0.0000
# 4 0.0000 0.0000 0.0000 30.9304 0.0000 0.0000
# 5 0.0000 0.0000 0.0000 0.0000 30.9304 0.0000
# 6 0.0000 0.0000 0.0000 0.0000 0.0000 30.4897
#
#
#
# Elastic Compliance Matrix: (Units=1/GPa)
#
#
# Indices 1 2 3 4 5 6 
#
# 1 0.011685 -0.001898 -0.002757 0.000000 0.000000 0.000000
# 2 -0.001898 0.011685 -0.002757 0.000000 0.000000 0.000000
# 3 -0.002757 -0.002757 0.007484 0.000000 0.000000 0.000000
# 4 0.000000 0.000000 0.000000 0.032331 0.000000 0.000000
# 5 0.000000 0.000000 0.000000 0.000000 0.032331 0.000000
# 6 0.000000 0.000000 0.000000 0.000000 0.000000 0.032798
#
#
# Mechanical properties :
#
#
# Convention : Reuss Voigt Hill
#
# Bulk Modulus (GPa) = 62.37767 68.49338 65.43552
# Shear Modulus (GPa) = 33.67441 35.03806 34.35623
#
# Velocity S-wave (km/s) = 3.83619 3.91309 3.87483
# Velocity P-wave (km/s) = 6.84704 7.09572 6.97249
#
# Compressibility (1/GPa) = 0.01603138
#
# Stress axis : x y z
#
# Youngs Moduli (GPa) = 85.57765 85.57765 133.62037
#
# Poissons Ratio (x) = 0.16240 0.36838
# Poissons Ratio (y) = 0.16240 0.36838
# Poissons Ratio (z) = 0.23593 0.23593
#
# Static dielectric constant tensor:
#      x y z
#    x 1.924560 0.000000 0.000000 
#    y 0.000000 1.924560 0.000000 
#    z 0.000000 0.000000 1.887360 
# 
# From -- ./inp_files/6486.got.cif
#   From: 2010.05.17/outbox.cif.g08.bks.cpg/sg135_4_cif.got.tgz:6486.got - 2010.05.20 12:50:20.
