data_PCOD9568595
_publ_section_title
;
Structure prediction by ZEFSAII (Michael W. Deem and Ramdas Pophale) SiO2 
 PCOD9568595
Probable space group: P 42/M B C
;
_chemical_formula_sum "Si O2"
_cell_formula_units_Z 96
_cell_length_a 12.323943
_cell_length_b 12.323943
_cell_length_c 23.057029
_cell_angle_alpha 90.000000
_cell_angle_beta 90.000000
_cell_angle_gamma 90.000000
_cell_volume 3501.891675
_symmetry_space_group_name_H-M "P 42/M B C"
_symmetry_group_IT_number 135
_symmetry_cell_setting 'tetragonal'
loop_
_space_group_symop_operation_xyz
x,y,z
-y,x,1/2+z
-x,-y,z
y,-x,1/2+z
1/2+x,1/2-y,-z
1/2-x,1/2+y,-z
1/2+y,1/2+x,1/2-z
1/2-y,1/2-x,1/2-z
-x,-y,-z
y,-x,1/2-z
x,y,-z
-y,x,1/2-z
1/2-x,1/2+y,z
1/2+x,1/2-y,z
1/2-y,1/2-x,1/2+z
1/2+y,1/2+x,1/2+z
loop_
_atom_site_type_symbol
_atom_site_label
_atom_site_fract_x
_atom_site_fract_y
_atom_site_fract_z
Si Si1 0.748130 0.424284 0.936508
Si Si2 0.405068 0.653121 0.259103
Si Si3 0.407568 0.406101 0.886165
Si Si4 0.356500 0.898642 0.678385
Si Si5 0.763844 0.570660 0.562732
Si Si6 0.348910 0.094379 0.809240
O O1 0.678073 0.533919 0.926940
O O2 0.661177 0.328267 0.941579
O O3 0.802333 0.397292 0.874137
O O4 0.805194 0.429617 0.000000
O O5 0.536136 0.639316 0.262943
O O6 0.649497 0.631429 0.173503
O O7 0.375558 0.741066 0.209176
O O8 0.500000 0.500000 0.873711
O O9 0.466439 0.302998 0.914127
O O10 0.346716 0.885337 0.609892
O O11 0.339678 0.963518 0.797115
O O12 0.382586 0.024544 0.683518
O O13 0.811955 0.549658 0.500000
O O14 0.333444 0.166557 0.750000
#
# Coordination Sequence:
#
# PCOD9568595 Si02
#       6
#    16  16  16  16  16  16
#     4  10  22  43  72 102 138 185 239 300 367 439
#     4  11  18  34  66 111 147 175 229 295 375 440
#     4  10  17  33  63 102 140 177 214 283 365 437
#     4  11  23  42  68  96 135 193 234 294 357 433
#     4  10  21  40  67 106 145 177 232 302 368 439
#     4  11  26  49  68  93 141 193 254 302 348 426
#
# _framework density 27.413754999999998
#
# number of rings (size 3 to 8) (size 9 to 14) (size 15 to 20)
#    0.000    1.500    3.333    3.500    0.000    3.333 
#    3.000    5.000    0.000    0.000    0.000    0.000 
#    0.000    0.000    0.000    0.000    0.000    0.000 
#
# Total GULP energy -537287.373897 kJ/mol
# GULP energy per Si atom -5596.743478 kJ/mol
# Density = 2.735136 g / cm^3
# Si number density = 27.413755 Si / 1000 Ang^3
#
#
#
# Elastic Constant Matrix: (Units=GPa)
#
#
# Indices 1 2 3 4 5 6 
#
# 1 101.2898 29.3861 63.7184 0.0000 0.0000 0.0000
# 2 29.3861 101.2903 63.7183 0.0000 0.0000 0.0000
# 3 63.7184 63.7183 292.5572 0.0000 0.0000 0.0000
# 4 0.0000 0.0000 0.0000 -1.0311 0.0000 0.0000
# 5 0.0000 0.0000 0.0000 0.0000 -1.0311 0.0000
# 6 0.0000 0.0000 0.0000 0.0000 0.0000 29.2782
#
#
#
# Elastic Compliance Matrix: (Units=1/GPa)
#
#
# Indices 1 2 3 4 5 6 
#
# 1 0.011812 -0.002096 -0.002116 0.000000 0.000000 0.000000
# 2 -0.002096 0.011812 -0.002116 0.000000 0.000000 0.000000
# 3 -0.002116 -0.002116 0.004340 0.000000 0.000000 0.000000
# 4 0.000000 0.000000 0.000000 -0.969836 0.000000 0.000000
# 5 0.000000 0.000000 0.000000 0.000000 -0.969885 0.000000
# 6 0.000000 0.000000 0.000000 0.000000 0.000000 0.034155
#
#
# Mechanical properties :
#
#
# Convention : Reuss Voigt Hill
#
# Bulk Modulus (GPa) = 65.32667 89.86475 77.59571
# Shear Modulus (GPa) = -2.68840 27.99751 12.65456
#
# Velocity S-wave (km/s) = -0.99136 3.19924 2.15085
# Velocity P-wave (km/s) = 4.75092 6.81901 5.87665
#
# Compressibility (1/GPa) = 0.01530768
#
# Stress axis : x y z
#
# Youngs Moduli (GPa) = 84.66061 84.66116 230.41848
#
# Poissons Ratio (x) = 0.17742 0.48761
# Poissons Ratio (y) = 0.17742 0.48760
# Poissons Ratio (z) = 0.17916 0.17916
#
# Static dielectric constant tensor:
#      x y z
#    x 2.210180 0.000000 0.000000 
#    y 0.000000 2.210180 0.000000 
#    z 0.000000 0.000000 2.221450 
# 
# From -- ./inp_files/5572.got.cif
#   From: 2010.05.17/outbox.cif.g08.bks.cpg/sg135_3_cif.got.tgz:5572.got - 2010.05.20 12:50:20.
