data_PCOD9568112
_publ_section_title
;
Structure prediction by ZEFSAII (Michael W. Deem and Ramdas Pophale) SiO2 
 PCOD9568112
Probable space group: P 42/N N M
;
_chemical_formula_sum "Si O2"
_cell_formula_units_Z 82
_cell_length_a 20.294881
_cell_length_b 20.294881
_cell_length_c 9.731268
_cell_angle_alpha 90.000000
_cell_angle_beta 90.000000
_cell_angle_gamma 90.000000
_cell_volume 4008.136022
_symmetry_space_group_name_H-M "P 42/N N M"
_symmetry_group_IT_number 134
_space_group.IT_coordinate_system_code '2'
_symmetry_cell_setting 'tetragonal'
loop_
_space_group_symop_operation_xyz
x,y,z
1/2-y,x,1/2+z
1/2-x,1/2-y,z
y,1/2-x,1/2+z
x,1/2-y,1/2-z
1/2-x,y,1/2-z
y,x,-z
1/2-y,1/2-x,-z
-x,-y,-z
1/2+y,-x,1/2-z
1/2+x,1/2+y,-z
-y,1/2+x,1/2-z
-x,1/2+y,1/2+z
1/2+x,-y,1/2+z
-y,-x,z
1/2+y,1/2+x,z
loop_
_atom_site_type_symbol
_atom_site_label
_atom_site_fract_x
_atom_site_fract_y
_atom_site_fract_z
Si Si1 0.697140 0.197140 0.014629
Si Si2 0.502809 0.602672 0.508365
Si Si3 0.951805 0.263320 0.991202
Si Si4 0.985738 0.123495 0.898828
Si Si5 0.889804 0.550362 0.299635
Si Si6 0.250000 0.750000 0.250000
Si Si7 0.048312 0.250000 0.250000
O O1 0.750000 0.250000 0.073046
O O2 0.622337 0.219373 0.041252
O O3 0.706089 0.206089 0.849975
O O4 0.577677 0.577677 0.500000
O O5 0.454339 0.545662 0.458256
O O6 0.481102 0.668616 0.433733
O O7 0.498128 0.607025 0.674593
O O8 0.000020 0.252279 0.119910
O O9 0.959673 0.198658 0.898139
O O10 0.925920 0.074081 0.872331
O O11 0.048216 0.099535 0.808389
O O12 0.011903 0.111897 0.055811
O O13 0.819212 0.585418 0.270871
#
# Coordination Sequence:
#
# PCOD9568112 Si02
#       7
#     8  16  16  16  16   2   8
#     4  10  20  40  48  67 103 146 189 217 260 321
#     4  10  19  33  50  73  99 137 175 226 277 316
#     4  10  19  35  52  76 107 139 179 224 275 337
#     4  10  18  30  52  81 105 140 176 222 271 325
#     4   9  17  32  51  76 108 131 172 226 272 322
#     4   8  24  40  52  54 100 168 176 220 256 302
#     4   8  18  32  55  80 105 138 164 224 298 326
#
# _framework density 20.458387999999999
#
# number of rings (size 3 to 8) (size 9 to 14) (size 15 to 20)
#    0.293    2.146    0.976    2.927    0.000    0.000 
#    7.024    0.000    0.000    0.000    0.000   32.780 
#    0.000    0.000    0.000    0.000    0.000    0.000 
#
# Total GULP energy -456476.492887 kJ/mol
# GULP energy per Si atom -5566.786499 kJ/mol
# Density = 2.041182 g / cm^3
# Si number density = 20.458388 Si / 1000 Ang^3
#
#
#
# Elastic Constant Matrix: (Units=GPa)
#
#
# Indices 1 2 3 4 5 6 
#
# 1 156.5482 92.2249 4.2247 0.0000 0.0000 0.0000
# 2 92.2249 156.5482 4.2247 0.0000 0.0000 0.0000
# 3 4.2247 4.2247 46.1716 0.0000 0.0000 0.0000
# 4 0.0000 0.0000 0.0000 -12.3527 0.0000 0.0000
# 5 0.0000 0.0000 0.0000 0.0000 -12.3527 0.0000
# 6 0.0000 0.0000 0.0000 0.0000 0.0000 23.1559
#
#
#
# Elastic Compliance Matrix: (Units=1/GPa)
#
#
# Indices 1 2 3 4 5 6 
#
# 1 0.009789 -0.005757 -0.000369 0.000000 0.000000 0.000000
# 2 -0.005757 0.009789 -0.000369 0.000000 0.000000 0.000000
# 3 -0.000369 -0.000369 0.021726 0.000000 0.000000 0.000000
# 4 0.000000 0.000000 0.000000 -0.080954 0.000000 0.000000
# 5 0.000000 0.000000 0.000000 0.000000 -0.080954 0.000000
# 6 0.000000 0.000000 0.000000 0.000000 0.000000 0.043186
#
#
# Mechanical properties :
#
#
# Convention : Reuss Voigt Hill
#
# Bulk Modulus (GPa) = 35.31748 62.29070 48.80409
# Shear Modulus (GPa) = -90.92610 16.92968 -36.99821
#
# Velocity S-wave (km/s) = -6.67390 2.87978 -4.25721
# Velocity P-wave (km/s) = 6.48747 6.44757 0.50802
#
# Compressibility (1/GPa) = 0.02831459
#
# Stress axis : x y z
#
# Youngs Moduli (GPa) = 102.15171 102.15171 46.02808
#
# Poissons Ratio (x) = 0.58810 0.01698
# Poissons Ratio (y) = 0.58810 0.01698
# Poissons Ratio (z) = 0.03769 0.03769
#
# Static dielectric constant tensor:
#      x y z
#    x 1.802720 0.000000 0.000000 
#    y 0.000000 1.802720 0.000000 
#    z 0.000000 0.000000 1.837790 
# 
# From -- ./inp_files/5016.got.cif
#   From: 2010.05.17/outbox.cif.g08.bks.cpg/sg134_3_cif.got.tgz:5016.got - 2010.05.20 12:42:49.
