data_PCOD9568573
_publ_section_title
;
Structure prediction by ZEFSAII (Michael W. Deem and Ramdas Pophale) SiO2 
 PCOD9568573
Probable space group: P 42/N N M
;
_chemical_formula_sum "Si O2"
_cell_formula_units_Z 80
_cell_length_a 16.673406
_cell_length_b 16.673406
_cell_length_c 13.079570
_cell_angle_alpha 90.000000
_cell_angle_beta 90.000000
_cell_angle_gamma 90.000000
_cell_volume 3636.152736
_symmetry_space_group_name_H-M "P 42/N N M"
_symmetry_group_IT_number 134
_space_group.IT_coordinate_system_code '2'
_symmetry_cell_setting 'tetragonal'
loop_
_space_group_symop_operation_xyz
x,y,z
1/2-y,x,1/2+z
1/2-x,1/2-y,z
y,1/2-x,1/2+z
x,1/2-y,1/2-z
1/2-x,y,1/2-z
y,x,-z
1/2-y,1/2-x,-z
-x,-y,-z
1/2+y,-x,1/2-z
1/2+x,1/2+y,-z
-y,1/2+x,1/2-z
-x,1/2+y,1/2+z
1/2+x,-y,1/2+z
-y,-x,z
1/2+y,1/2+x,z
loop_
_atom_site_type_symbol
_atom_site_label
_atom_site_fract_x
_atom_site_fract_y
_atom_site_fract_z
Si Si1 0.983215 0.146723 0.143750
Si Si2 0.967497 0.603727 0.309453
Si Si3 0.122503 0.006683 0.416190
Si Si4 0.538057 0.329890 0.386059
Si Si5 0.272330 0.600111 0.132557
O O1 0.915289 0.084712 0.108180
O O2 0.980956 0.152935 0.267519
O O3 0.962242 0.234187 0.103569
O O4 0.070924 0.108312 0.127900
O O5 0.026460 0.526460 0.300902
O O6 0.949661 0.633182 0.193069
O O7 0.022833 0.669099 0.363593
O O8 0.037541 0.962460 0.409807
O O9 0.136027 0.028934 0.535488
O O10 0.190354 0.935016 0.411928
O O11 0.620548 0.379453 0.401776
O O12 0.250000 0.619722 0.250000
O O13 0.323596 0.676405 0.092073
#
# Coordination Sequence:
#
# PCOD9568573 Si02
#       5
#    16  16  16  16  16
#     4   9  17  30  46  63  89 123 154 188 232 279
#     4   8  15  28  45  64  87 118 154 190 230 275
#     4   9  17  28  43  66  93 120 155 195 232 273
#     4   9  18  30  44  65  90 117 152 191 230 275
#     4   9  16  26  41  63  91 120 151 188 232 279
#
# _framework density 22.001277000000002
#
# number of rings (size 3 to 8) (size 9 to 14) (size 15 to 20)
#    0.000    3.200    0.000    1.800    0.000    3.400 
#    0.000    9.000    0.000    3.600    0.000   25.200 
#    0.000   19.200    0.000    0.000    0.000    0.000 
#
# Total GULP energy -445514.818717 kJ/mol
# GULP energy per Si atom -5568.935234 kJ/mol
# Density = 2.195120 g / cm^3
# Si number density = 22.001277 Si / 1000 Ang^3
#
#
#
# Elastic Constant Matrix: (Units=GPa)
#
#
# Indices 1 2 3 4 5 6 
#
# 1 31.6082 100.5947 4.8515 0.0000 0.0000 0.0000
# 2 100.5947 31.6082 4.8515 0.0000 0.0000 0.0000
# 3 4.8515 4.8515 62.4169 0.0000 0.0000 0.0000
# 4 0.0000 0.0000 0.0000 22.3434 0.0000 0.0000
# 5 0.0000 0.0000 0.0000 0.0000 22.3434 0.0000
# 6 0.0000 0.0000 0.0000 0.0000 0.0000 18.2367
#
#
#
# Elastic Compliance Matrix: (Units=1/GPa)
#
#
# Indices 1 2 3 4 5 6 
#
# 1 -0.003444 0.011052 -0.000591 0.000000 0.000000 0.000000
# 2 0.011052 -0.003444 -0.000591 0.000000 0.000000 0.000000
# 3 -0.000591 -0.000591 0.016113 0.000000 0.000000 0.000000
# 4 0.000000 0.000000 0.000000 0.044756 0.000000 0.000000
# 5 0.000000 0.000000 0.000000 0.000000 0.044756 0.000000
# 6 0.000000 0.000000 0.000000 0.000000 0.000000 0.054835
#
#
# Mechanical properties :
#
#
# Convention : Reuss Voigt Hill
#
# Bulk Modulus (GPa) = 34.52681 38.46989 36.49835
# Shear Modulus (GPa) = 34.84609 13.60706 24.22657
#
# Velocity S-wave (km/s) = 3.98404 2.48960 3.32195
# Velocity P-wave (km/s) = 6.07376 5.07813 5.59812
#
# Compressibility (1/GPa) = 0.02896300
#
# Stress axis : x y z
#
# Youngs Moduli (GPa) = -290.35744 -290.35744 62.06085
#
# Poissons Ratio (x) = 3.20890 0.03670
# Poissons Ratio (y) = 3.20890 0.03670
# Poissons Ratio (z) = -0.17169 -0.17169
#
# Static dielectric constant tensor:
#      x y z
#    x 1.882330 0.000000 0.000000 
#    y 0.000000 1.882330 0.000000 
#    z 0.000000 0.000000 1.966760 
# 
# From -- ./inp_files/6301.got.cif
#   From: 2010.05.17/outbox.cif.g08.bks.cpg/sg134_4_cif.got.tgz:6301.got - 2010.05.20 12:42:49.
