data_PCOD9568060
_publ_section_title
;
Structure prediction by ZEFSAII (Michael W. Deem and Ramdas Pophale) SiO2 
 PCOD9568060
Probable space group: P 42/N B C
;
_chemical_formula_sum "Si O2"
_cell_formula_units_Z 96
_cell_length_a 15.000000
_cell_length_b 15.000000
_cell_length_c 21.000000
_cell_angle_alpha 90.000000
_cell_angle_beta 90.000000
_cell_angle_gamma 90.000000
_cell_volume 4725.000000
_symmetry_space_group_name_H-M "P 42/N B C"
_symmetry_group_IT_number 133
_space_group.IT_coordinate_system_code '2'
_symmetry_cell_setting 'tetragonal'
loop_
_space_group_symop_operation_xyz
x,y,z
1/2-y,x,1/2+z
1/2-x,1/2-y,z
y,1/2-x,1/2+z
x,1/2-y,-z
1/2-x,y,-z
y,x,1/2-z
1/2-y,1/2-x,1/2-z
-x,-y,-z
1/2+y,-x,1/2-z
1/2+x,1/2+y,-z
-y,1/2+x,1/2-z
-x,1/2+y,z
1/2+x,-y,z
-y,-x,1/2+z
1/2+y,1/2+x,1/2+z
loop_
_atom_site_type_symbol
_atom_site_label
_atom_site_fract_x
_atom_site_fract_y
_atom_site_fract_z
Si Si1 0.572276 0.288914 0.569523
Si Si2 0.408401 0.298414 0.658511
Si Si3 0.032241 0.853121 0.983278
Si Si4 0.095217 0.393190 0.870402
Si Si5 0.782343 0.539285 0.694225
Si Si6 0.097148 0.904260 0.620456
O O1 0.546163 0.250000 0.500000
O O2 0.486903 0.321190 0.609219
O O3 0.633100 0.375118 0.555895
O O4 0.611681 0.201604 0.606032
O O5 0.373889 0.201073 0.636186
O O6 0.449239 0.289258 0.729752
O O7 0.334416 0.375409 0.663674
O O8 0.948965 0.883462 0.940361
O O9 0.020982 0.750000 0.000000
O O10 0.046979 0.900350 0.051381
O O11 0.045427 0.320324 0.827244
O O12 0.085463 0.497131 0.852230
O O13 0.831442 0.452310 0.665826
#
# Coordination Sequence:
#
# PCOD9568060 Si02
#       6
#    16  16  16  16  16  16
#     4   9  21  42  66  95 127 174 219 273 328 387
#     4  10  23  42  65  97 130 175 217 270 336 393
#     4  11  21  41  68  96 129 173 224 269 330 394
#     4  11  22  40  65  96 130 173 217 276 326 390
#     4  11  22  43  64  97 134 172 222 267 330 407
#     4  10  22  41  65  97 132 168 221 270 328 392
#
# _framework density 20.317460000000001
#
# number of rings (size 3 to 8) (size 9 to 14) (size 15 to 20)
#    0.000    1.667    1.667    2.500    0.000    7.000 
#   21.000    0.000    0.000    0.000    0.000    0.000 
#    0.000    0.000    0.000    0.000    0.000    0.000 
#
# Total GULP energy -536517.962167 kJ/mol
# GULP energy per Si atom -5588.728773 kJ/mol
# Density = 2.027122 g / cm^3
# Si number density = 20.317460 Si / 1000 Ang^3
#
#
#
# Elastic Constant Matrix: (Units=GPa)
#
#
# Indices 1 2 3 4 5 6 
#
# 1 83.1206 33.3542 21.7044 0.0000 0.0000 0.0000
# 2 33.3542 83.1206 21.7044 0.0000 0.0000 0.0000
# 3 21.7044 21.7044 54.3273 0.0000 0.0000 0.0000
# 4 0.0000 0.0000 0.0000 29.6586 0.0000 0.0000
# 5 0.0000 0.0000 0.0000 0.0000 29.6586 0.0000
# 6 0.0000 0.0000 0.0000 0.0000 0.0000 20.3425
#
#
#
# Elastic Compliance Matrix: (Units=1/GPa)
#
#
# Indices 1 2 3 4 5 6 
#
# 1 0.015091 -0.005003 -0.004030 0.000000 0.000000 0.000000
# 2 -0.005003 0.015091 -0.004030 0.000000 0.000000 0.000000
# 3 -0.004030 -0.004030 0.021627 0.000000 0.000000 0.000000
# 4 0.000000 0.000000 0.000000 0.033717 0.000000 0.000000
# 5 0.000000 0.000000 0.000000 0.000000 0.033717 0.000000
# 6 0.000000 0.000000 0.000000 0.000000 0.000000 0.049158
#
#
# Mechanical properties :
#
#
# Convention : Reuss Voigt Hill
#
# Bulk Modulus (GPa) = 38.93814 41.56608 40.25211
# Shear Modulus (GPa) = 24.61986 25.51895 25.06941
#
# Velocity S-wave (km/s) = 3.48481 3.54787 3.51648
# Velocity P-wave (km/s) = 5.94965 6.10622 6.02844
#
# Compressibility (1/GPa) = 0.02568176
#
# Stress axis : x y z
#
# Youngs Moduli (GPa) = 66.26595 66.26595 46.23833
#
# Poissons Ratio (x) = 0.33154 0.18634
# Poissons Ratio (y) = 0.33154 0.18634
# Poissons Ratio (z) = 0.26706 0.26706
#
# Static dielectric constant tensor:
#      x y z
#    x 1.730600 0.000000 0.000000 
#    y 0.000000 1.730600 0.000000 
#    z 0.000000 0.000000 1.716860 
# 
# From -- ./inp_files/6501.got.cif
#   From: 2010.05.17/outbox.ucp.g08.bks.cvg/sg133_4_cif.got.tgz:6501.got - 2010.06.11 11:39:40.
