data_PCOD9568502
_publ_section_title
;
Structure prediction by ZEFSAII (Michael W. Deem and Ramdas Pophale) SiO2 
 PCOD9568502
Probable space group: P 42/N N M
;
_chemical_formula_sum "Si O2"
_cell_formula_units_Z 72
_cell_length_a 21.113679
_cell_length_b 21.113679
_cell_length_c 8.419007
_cell_angle_alpha 90.000000
_cell_angle_beta 90.000000
_cell_angle_gamma 90.000000
_cell_volume 3753.087586
_symmetry_space_group_name_H-M "P 42/N N M"
_symmetry_group_IT_number 134
_space_group.IT_coordinate_system_code '2'
_symmetry_cell_setting 'tetragonal'
loop_
_space_group_symop_operation_xyz
x,y,z
1/2-y,x,1/2+z
1/2-x,1/2-y,z
y,1/2-x,1/2+z
x,1/2-y,1/2-z
1/2-x,y,1/2-z
y,x,-z
1/2-y,1/2-x,-z
-x,-y,-z
1/2+y,-x,1/2-z
1/2+x,1/2+y,-z
-y,1/2+x,1/2-z
-x,1/2+y,1/2+z
1/2+x,-y,1/2+z
-y,-x,z
1/2+y,1/2+x,z
loop_
_atom_site_type_symbol
_atom_site_label
_atom_site_fract_x
_atom_site_fract_y
_atom_site_fract_z
Si Si1 0.022138 0.522138 0.256588
Si Si2 0.425242 0.374863 0.841466
Si Si3 0.571353 0.428648 0.422230
Si Si4 0.194705 0.124848 0.626999
Si Si5 0.250000 0.997552 0.250000
Si Si6 0.712530 0.022254 0.085824
O O1 0.075044 0.482395 0.347146
O O2 0.972098 0.472098 0.188501
O O3 0.054472 0.554472 0.103982
O O4 0.373934 0.387396 0.705676
O O5 0.457975 0.308841 0.799881
O O6 0.383940 0.383940 0.000000
O O7 0.643342 0.448303 0.393420
O O8 0.250000 0.143441 0.750000
O O9 0.179479 0.179479 0.500000
O O10 0.212451 0.054594 0.567209
O O11 0.236862 0.957513 0.410854
O O12 0.750000 0.035254 0.250000
#
# Coordination Sequence:
#
# PCOD9568502 Si02
#       6
#     8  16   8  16   8  16
#     4  11  21  38  64  96 125 161 213 266 339 382
#     4  12  24  39  61  91 129 169 218 266 322 388
#     4  11  20  40  66  95 131 163 211 270 336 392
#     4  11  21  40  63  85 123 169 216 267 322 367
#     4  12  24  40  61  88 132 175 212 266 324 378
#     4  11  23  42  67  96 128 170 210 265 332 394
#
# _framework density 19.184204999999999
#
# number of rings (size 3 to 8) (size 9 to 14) (size 15 to 20)
#    0.000    0.667    6.667    3.000    0.000    0.000 
#    0.000    1.667    4.889    0.333    0.000    0.000 
#    0.000    0.444    0.000    0.000    0.000    0.000 
#
# Total GULP energy -401735.835501 kJ/mol
# GULP energy per Si atom -5579.664382 kJ/mol
# Density = 1.914054 g / cm^3
# Si number density = 19.184205 Si / 1000 Ang^3
#
#
#
# Elastic Constant Matrix: (Units=GPa)
#
#
# Indices 1 2 3 4 5 6 
#
# 1 88.6864 34.6348 47.6150 0.0000 0.0000 0.0000
# 2 34.6348 88.6864 47.6150 0.0000 0.0000 0.0000
# 3 47.6150 47.6150 117.3930 0.0000 0.0000 0.0000
# 4 0.0000 0.0000 0.0000 18.0812 0.0000 0.0000
# 5 0.0000 0.0000 0.0000 0.0000 18.0812 0.0000
# 6 0.0000 0.0000 0.0000 0.0000 0.0000 15.4442
#
#
#
# Elastic Compliance Matrix: (Units=1/GPa)
#
#
# Indices 1 2 3 4 5 6 
#
# 1 0.015154 -0.003347 -0.004789 0.000000 0.000000 0.000000
# 2 -0.003347 0.015154 -0.004789 0.000000 0.000000 0.000000
# 3 -0.004789 -0.004789 0.012403 0.000000 0.000000 0.000000
# 4 0.000000 0.000000 0.000000 0.055306 0.000000 0.000000
# 5 0.000000 0.000000 0.000000 0.000000 0.055306 0.000000
# 6 0.000000 0.000000 0.000000 0.000000 0.000000 0.064749
#
#
# Mechanical properties :
#
#
# Convention : Reuss Voigt Hill
#
# Bulk Modulus (GPa) = 59.30710 61.61060 60.45885
# Shear Modulus (GPa) = 20.03669 21.31474 20.67572
#
# Velocity S-wave (km/s) = 3.23528 3.33687 3.28647
# Velocity P-wave (km/s) = 6.70356 6.85793 6.78119
#
# Compressibility (1/GPa) = 0.01686139
#
# Stress axis : x y z
#
# Youngs Moduli (GPa) = 65.98959 65.98959 80.62417
#
# Poissons Ratio (x) = 0.22086 0.38611
# Poissons Ratio (y) = 0.22086 0.38611
# Poissons Ratio (z) = 0.31602 0.31602
#
# Static dielectric constant tensor:
#      x y z
#    x 1.647230 0.000000 0.000000 
#    y 0.000000 1.647230 0.000000 
#    z 0.000000 0.000000 2.168190 
# 
# From -- ./inp_files/2964.got.cif
#   From: 2010.05.17/outbox.cif.g08.bks.cpg/sg134_2_cif.got.tgz:2964.got - 2010.05.20 12:42:49.
