data_PCOD9568412
_publ_section_title
;
Structure prediction by ZEFSAII (Michael W. Deem and Ramdas Pophale) SiO2 
 PCOD9568412
Probable space group: P 42/N N M
;
_chemical_formula_sum "Si O2"
_cell_formula_units_Z 112
_cell_length_a 15.710020
_cell_length_b 15.710020
_cell_length_c 23.936971
_cell_angle_alpha 90.000000
_cell_angle_beta 90.000000
_cell_angle_gamma 90.000000
_cell_volume 5907.757626
_symmetry_space_group_name_H-M "P 42/N N M"
_symmetry_group_IT_number 134
_space_group.IT_coordinate_system_code '2'
_symmetry_cell_setting 'tetragonal'
loop_
_space_group_symop_operation_xyz
x,y,z
1/2-y,x,1/2+z
1/2-x,1/2-y,z
y,1/2-x,1/2+z
x,1/2-y,1/2-z
1/2-x,y,1/2-z
y,x,-z
1/2-y,1/2-x,-z
-x,-y,-z
1/2+y,-x,1/2-z
1/2+x,1/2+y,-z
-y,1/2+x,1/2-z
-x,1/2+y,1/2+z
1/2+x,-y,1/2+z
-y,-x,z
1/2+y,1/2+x,z
loop_
_atom_site_type_symbol
_atom_site_label
_atom_site_fract_x
_atom_site_fract_y
_atom_site_fract_z
Si Si1 0.609564 0.246711 0.190061
Si Si2 0.557398 0.584021 0.334913
Si Si3 0.272501 0.477112 0.599084
Si Si4 0.000240 0.241352 0.886813
Si Si5 0.182254 0.325750 0.437156
Si Si6 0.486962 0.845348 0.270725
Si Si7 0.747640 0.107230 0.501747
O O1 0.565380 0.250000 0.250000
O O2 0.683602 0.316399 0.192553
O O3 0.656542 0.156542 0.181432
O O4 0.546300 0.263276 0.141227
O O5 0.499660 0.500341 0.334926
O O6 0.640839 0.560036 0.371804
O O7 0.505914 0.662535 0.362903
O O8 0.562392 0.616215 0.269489
O O9 0.208287 0.399465 0.594425
O O10 0.274205 0.529612 0.540238
O O11 0.995655 0.171835 0.836921
O O12 0.092022 0.225486 0.912983
O O13 0.930813 0.234840 0.935954
O O14 0.250000 0.250000 0.437715
O O15 0.155068 0.344933 0.500000
O O16 0.469361 0.750000 0.250000
O O17 0.408500 0.908500 0.261261
O O18 0.824774 0.175227 0.501171
O O19 0.662596 0.162596 0.485668
#
# Coordination Sequence:
#
# PCOD9568412 Si02
#       7
#    16  16  16  16  16  16  16
#     4   9  19  37  60  87 122 161 200 249 309 371
#     4  10  21  37  61  93 122 154 205 264 315 361
#     4  12  22  38  63  90 121 161 205 254 317 371
#     4  11  21  41  62  87 122 166 209 251 308 367
#     4  11  23  42  60  83 119 163 201 244 298 366
#     4   9  20  38  61  88 124 162 201 257 309 365
#     4  11  24  40  61  93 129 163 203 255 313 375
#
# _framework density 18.958124999999999
#
# number of rings (size 3 to 8) (size 9 to 14) (size 15 to 20)
#    0.000    1.571    2.857    3.000    0.000    3.571 
#    0.000    6.429    0.000    0.000    0.000    0.000 
#    0.000    0.000    0.000    0.000    0.000    0.000 
#
# Total GULP energy -623765.827723 kJ/mol
# GULP energy per Si atom -5569.337748 kJ/mol
# Density = 1.891498 g / cm^3
# Si number density = 18.958125 Si / 1000 Ang^3
#
#
#
# Elastic Constant Matrix: (Units=GPa)
#
#
# Indices 1 2 3 4 5 6 
#
# 1 50.7140 -7.0985 9.0661 0.0000 0.0000 0.0000
# 2 -7.0985 50.7142 9.0664 0.0000 0.0000 0.0000
# 3 9.0661 9.0664 96.8136 0.0000 0.0000 0.0000
# 4 0.0000 0.0000 0.0000 38.2877 0.0000 0.0000
# 5 0.0000 0.0000 0.0000 0.0000 38.2882 0.0000
# 6 0.0000 0.0000 0.0000 0.0000 0.0000 18.2479
#
#
#
# Elastic Compliance Matrix: (Units=1/GPa)
#
#
# Indices 1 2 3 4 5 6 
#
# 1 0.020577 0.003280 -0.002234 0.000000 0.000000 0.000000
# 2 0.003280 0.020577 -0.002234 0.000000 0.000000 0.000000
# 3 -0.002234 -0.002234 0.010748 0.000000 0.000000 0.000000
# 4 0.000000 0.000000 0.000000 0.026118 0.000000 0.000000
# 5 0.000000 0.000000 0.000000 0.000000 0.026118 0.000000
# 6 0.000000 0.000000 0.000000 0.000000 0.000000 0.054801
#
#
# Mechanical properties :
#
#
# Convention : Reuss Voigt Hill
#
# Bulk Modulus (GPa) = 20.19225 24.47888 22.33556
# Shear Modulus (GPa) = 28.11784 31.44527 29.78155
#
# Velocity S-wave (km/s) = 3.85535 4.07710 3.96777
# Velocity P-wave (km/s) = 5.52200 5.92484 5.72696
#
# Compressibility (1/GPa) = 0.04952396
#
# Stress axis : x y z
#
# Youngs Moduli (GPa) = 48.59837 48.59849 93.04446
#
# Poissons Ratio (x) = -0.15938 0.20786
# Poissons Ratio (y) = -0.15938 0.20787
# Poissons Ratio (z) = 0.10857 0.10857
#
# Static dielectric constant tensor:
#      x y z
#    x 1.628400 0.000000 0.000000 
#    y 0.000000 1.628400 0.000000 
#    z 0.000000 0.000000 1.697820 
# 
# From -- ./inp_files/10096.got.cif
#   From: 2010.05.17/outbox.cif.g08.bks.cpg/sg134_6_cif.got.tgz:10096.got - 2010.05.20 12:42:49.
