data_PCOD9568323
_publ_section_title
;
Structure prediction by ZEFSAII (Michael W. Deem and Ramdas Pophale) SiO2 
 PCOD9568323
Probable space group: P 42/N N M
;
_chemical_formula_sum "Si O2"
_cell_formula_units_Z 96
_cell_length_a 20.845675
_cell_length_b 20.845675
_cell_length_c 11.861633
_cell_angle_alpha 90.000000
_cell_angle_beta 90.000000
_cell_angle_gamma 90.000000
_cell_volume 5154.379699
_symmetry_space_group_name_H-M "P 42/N N M"
_symmetry_group_IT_number 134
_space_group.IT_coordinate_system_code '2'
_symmetry_cell_setting 'tetragonal'
loop_
_space_group_symop_operation_xyz
x,y,z
1/2-y,x,1/2+z
1/2-x,1/2-y,z
y,1/2-x,1/2+z
x,1/2-y,1/2-z
1/2-x,y,1/2-z
y,x,-z
1/2-y,1/2-x,-z
-x,-y,-z
1/2+y,-x,1/2-z
1/2+x,1/2+y,-z
-y,1/2+x,1/2-z
-x,1/2+y,1/2+z
1/2+x,-y,1/2+z
-y,-x,z
1/2+y,1/2+x,z
loop_
_atom_site_type_symbol
_atom_site_label
_atom_site_fract_x
_atom_site_fract_y
_atom_site_fract_z
Si Si1 0.011135 0.323199 0.725036
Si Si2 0.942465 0.214469 0.421520
Si Si3 0.549588 0.552212 0.134399
Si Si4 0.223588 0.620739 0.374366
Si Si5 0.394388 0.001761 0.036628
Si Si6 0.947918 0.152339 0.185748
O O1 0.032563 0.250000 0.750000
O O2 0.055695 0.372855 0.660193
O O3 0.000542 0.363818 0.839290
O O4 0.945502 0.313708 0.654438
O O5 0.894953 0.224231 0.528471
O O6 0.922660 0.179870 0.305279
O O7 0.962239 0.286052 0.388943
O O8 0.999146 0.168586 0.460628
O O9 0.483112 0.516889 0.173739
O O10 0.605723 0.509321 0.189575
O O11 0.548247 0.548247 0.000000
O O12 0.250000 0.638527 0.250000
O O13 0.176098 0.676098 0.413328
O O14 0.438295 0.938295 0.019603
O O15 0.439530 0.060471 0.000000
O O16 0.891790 0.108210 0.135395
#
# Coordination Sequence:
#
# PCOD9568323 Si02
#       6
#    16  16  16  16  16  16
#     4  11  21  36  57  88 124 157 197 248 310 368
#     4  11  21  37  58  85 118 160 202 252 312 368
#     4  10  20  35  60  91 121 156 203 254 307 363
#     4  11  22  36  55  80 117 162 208 250 299 362
#     4  11  22  37  60  87 118 155 199 255 314 368
#     4  10  22  38  59  87 120 158 203 256 312 370
#
# _framework density 18.624938
#
# number of rings (size 3 to 8) (size 9 to 14) (size 15 to 20)
#    0.000    1.333    3.333    4.500    0.000    4.833 
#    0.000    0.000    0.000   18.500    0.000   10.500 
#    0.000    0.000    0.000    0.000    0.000    0.000 
#
# Total GULP energy -534795.160591 kJ/mol
# GULP energy per Si atom -5570.782923 kJ/mol
# Density = 1.858255 g / cm^3
# Si number density = 18.624938 Si / 1000 Ang^3
#
#
#
# Elastic Constant Matrix: (Units=GPa)
#
#
# Indices 1 2 3 4 5 6 
#
# 1 101.5202 72.7639 31.2945 0.0000 0.0000 0.0000
# 2 72.7639 101.5183 31.2925 0.0000 0.0000 0.0000
# 3 31.2945 31.2925 82.9044 0.0000 0.0000 0.0000
# 4 0.0000 0.0000 0.0000 -6.7167 0.0000 0.0000
# 5 0.0000 0.0000 0.0000 0.0000 -6.7140 0.0000
# 6 0.0000 0.0000 0.0000 0.0000 0.0000 26.0161
#
#
#
# Elastic Compliance Matrix: (Units=1/GPa)
#
#
# Indices 1 2 3 4 5 6 
#
# 1 0.020707 -0.014069 -0.002506 0.000000 0.000000 0.000000
# 2 -0.014069 0.020707 -0.002505 0.000000 0.000000 0.000000
# 3 -0.002506 -0.002505 0.013954 0.000000 0.000000 0.000000
# 4 0.000000 0.000000 0.000000 -0.148882 0.000000 0.000000
# 5 0.000000 0.000000 0.000000 0.000000 -0.148941 0.000000
# 6 0.000000 0.000000 0.000000 0.000000 0.000000 0.038438
#
#
# Mechanical properties :
#
#
# Convention : Reuss Voigt Hill
#
# Bulk Modulus (GPa) = 58.11647 61.84941 59.98294
# Shear Modulus (GPa) = -31.22597 12.55654 -9.33471
#
# Velocity S-wave (km/s) = -4.09903 2.59931 -2.24117
# Velocity P-wave (km/s) = 2.97801 6.50296 5.05752
#
# Compressibility (1/GPa) = 0.01720683
#
# Stress axis : x y z
#
# Youngs Moduli (GPa) = 48.29343 48.29320 71.66654
#
# Poissons Ratio (x) = 0.67945 0.17958
# Poissons Ratio (y) = 0.67945 0.17953
# Poissons Ratio (z) = 0.12101 0.12098
#
# Static dielectric constant tensor:
#      x y z
#    x 1.633400 0.000000 0.000000 
#    y 0.000000 1.633400 0.000000 
#    z 0.000000 0.000000 1.779800 
# 
# From -- ./inp_files/5038.got.cif
#   From: 2010.05.17/outbox.cif.g08.bks.cpg/sg134_3_cif.got.tgz:5038.got - 2010.05.20 12:42:49.
