data_PCOD9568061
_publ_section_title
;
Structure prediction by ZEFSAII (Michael W. Deem and Ramdas Pophale) SiO2 
 PCOD9568061
Probable space group: P 42/N B C
;
_chemical_formula_sum "Si O2"
_cell_formula_units_Z 96
_cell_length_a 15.000000
_cell_length_b 15.000000
_cell_length_c 21.000000
_cell_angle_alpha 90.000000
_cell_angle_beta 90.000000
_cell_angle_gamma 90.000000
_cell_volume 4725.000000
_symmetry_space_group_name_H-M "P 42/N B C"
_symmetry_group_IT_number 133
_space_group.IT_coordinate_system_code '2'
_symmetry_cell_setting 'tetragonal'
loop_
_space_group_symop_operation_xyz
x,y,z
1/2-y,x,1/2+z
1/2-x,1/2-y,z
y,1/2-x,1/2+z
x,1/2-y,-z
1/2-x,y,-z
y,x,1/2-z
1/2-y,1/2-x,1/2-z
-x,-y,-z
1/2+y,-x,1/2-z
1/2+x,1/2+y,-z
-y,1/2+x,1/2-z
-x,1/2+y,z
1/2+x,-y,z
-y,-x,1/2+z
1/2+y,1/2+x,1/2+z
loop_
_atom_site_type_symbol
_atom_site_label
_atom_site_fract_x
_atom_site_fract_y
_atom_site_fract_z
Si Si1 0.678016 0.124531 0.245356
Si Si2 0.249817 0.024616 0.573372
Si Si3 0.513883 0.220064 0.619868
Si Si4 0.910393 0.082223 0.623959
Si Si5 0.046737 0.960231 0.563774
Si Si6 0.177029 0.327700 0.674455
O O1 0.639783 0.221805 0.228724
O O2 0.686808 0.066502 0.182662
O O3 0.621119 0.086436 0.303083
O O4 0.250000 0.061343 0.500000
O O5 0.148411 0.988812 0.577903
O O6 0.280457 0.093372 0.629710
O O7 0.324717 0.946545 0.581194
O O8 0.547348 0.320954 0.606972
O O9 0.410247 0.210245 0.638415
O O10 0.536166 0.146431 0.566414
O O11 0.984208 0.005743 0.616918
O O12 0.000000 0.000000 0.500000
O O13 0.250000 0.250000 0.676462
O O14 0.153344 0.346657 0.750000
#
# Coordination Sequence:
#
# PCOD9568061 Si02
#       6
#    16  16  16  16  16  16
#     4   9  19  37  64 100 137 174 226 290 363 432
#     4  12  24  46  71  99 147 189 235 305 364 433
#     4  11  23  41  69  99 138 181 231 293 360 433
#     4  11  23  43  67 101 137 180 236 293 360 433
#     4  12  25  44  67 102 138 185 242 291 357 447
#     4  11  24  44  69 104 144 189 246 299 362 440
#
# _framework density 20.317460000000001
#
# number of rings (size 3 to 8) (size 9 to 14) (size 15 to 20)
#    0.000    1.000    3.333    3.000    0.000    4.333 
#    0.000    4.167    0.000    0.000    0.000    0.000 
#    0.000    0.000    0.000    0.000    0.000    0.000 
#
# Total GULP energy -536166.458720 kJ/mol
# GULP energy per Si atom -5585.067278 kJ/mol
# Density = 2.027122 g / cm^3
# Si number density = 20.317460 Si / 1000 Ang^3
#
#
#
# Elastic Constant Matrix: (Units=GPa)
#
#
# Indices 1 2 3 4 5 6 
#
# 1 124.3592 37.9503 22.8026 0.0000 0.0000 0.0000
# 2 37.9503 124.3591 22.8025 0.0000 0.0000 0.0000
# 3 22.8026 22.8025 77.7374 0.0000 0.0000 0.0000
# 4 0.0000 0.0000 0.0000 38.7258 0.0000 0.0000
# 5 0.0000 0.0000 0.0000 0.0000 38.7257 0.0000
# 6 0.0000 0.0000 0.0000 0.0000 0.0000 42.5104
#
#
#
# Elastic Compliance Matrix: (Units=1/GPa)
#
#
# Indices 1 2 3 4 5 6 
#
# 1 0.009144 -0.002429 -0.001970 0.000000 0.000000 0.000000
# 2 -0.002429 0.009144 -0.001970 0.000000 0.000000 0.000000
# 3 -0.001970 -0.001970 0.014019 0.000000 0.000000 0.000000
# 4 0.000000 0.000000 0.000000 0.025823 0.000000 0.000000
# 5 0.000000 0.000000 0.000000 0.000000 0.025823 0.000000
# 6 0.000000 0.000000 0.000000 0.000000 0.000000 0.023524
#
#
# Mechanical properties :
#
#
# Convention : Reuss Voigt Hill
#
# Bulk Modulus (GPa) = 51.09852 54.84071 52.96961
# Shear Modulus (GPa) = 39.45227 40.18573 39.81900
#
# Velocity S-wave (km/s) = 4.41136 4.45217 4.43181
# Velocity P-wave (km/s) = 7.15202 7.31298 7.23295
#
# Compressibility (1/GPa) = 0.01957004
#
# Stress axis : x y z
#
# Youngs Moduli (GPa) = 109.36515 109.36512 71.33047
#
# Poissons Ratio (x) = 0.26567 0.14049
# Poissons Ratio (y) = 0.26567 0.14049
# Poissons Ratio (z) = 0.21540 0.21540
#
# Static dielectric constant tensor:
#      x y z
#    x 1.726470 0.000000 0.000000 
#    y 0.000000 1.726470 0.000000 
#    z 0.000000 0.000000 1.767380 
# 
# From -- ./inp_files/6547.got.cif
#   From: 2010.05.17/outbox.ucp.g08.bks.cvg/sg133_4_cif.got.tgz:6547.got - 2010.06.11 11:39:40.
