data_PCOD9568066
_publ_section_title
;
Structure prediction by ZEFSAII (Michael W. Deem and Ramdas Pophale) SiO2 
 PCOD9568066
Probable space group: P 42/N N M
;
_chemical_formula_sum "Si O2"
_cell_formula_units_Z 52
_cell_length_a 16.406278
_cell_length_b 16.406278
_cell_length_c 8.885987
_cell_angle_alpha 90.000000
_cell_angle_beta 90.000000
_cell_angle_gamma 90.000000
_cell_volume 2391.805202
_symmetry_space_group_name_H-M "P 42/N N M"
_symmetry_group_IT_number 134
_space_group.IT_coordinate_system_code '2'
_symmetry_cell_setting 'tetragonal'
loop_
_space_group_symop_operation_xyz
x,y,z
1/2-y,x,1/2+z
1/2-x,1/2-y,z
y,1/2-x,1/2+z
x,1/2-y,1/2-z
1/2-x,y,1/2-z
y,x,-z
1/2-y,1/2-x,-z
-x,-y,-z
1/2+y,-x,1/2-z
1/2+x,1/2+y,-z
-y,1/2+x,1/2-z
-x,1/2+y,1/2+z
1/2+x,-y,1/2+z
-y,-x,z
1/2+y,1/2+x,z
loop_
_atom_site_type_symbol
_atom_site_label
_atom_site_fract_x
_atom_site_fract_y
_atom_site_fract_z
Si Si1 0.250000 0.750000 0.750000
Si Si2 0.653227 0.346774 0.500969
Si Si3 0.588222 0.411779 0.998091
Si Si4 0.395755 0.104245 0.000000
Si Si5 0.505284 0.005284 0.765663
Si Si6 0.750000 0.250000 0.750000
Si Si7 0.241014 0.499973 0.929384
O O1 0.195027 0.695027 0.855880
O O2 0.694284 0.305717 0.644392
O O3 0.559525 0.330363 0.483789
O O4 0.542761 0.457240 0.134786
O O5 0.552957 0.319798 0.016312
O O6 0.563659 0.436342 0.830322
O O7 0.441333 0.060134 0.858770
O O8 0.298406 0.084290 0.989916
O O9 0.250000 0.493902 0.750000
#
# Coordination Sequence:
#
# PCOD9568066 Si02
#       7
#     2   8   8   8   8   2  16
#     4  10  16  30  52  86 116 182 216 274 344 406
#     4  11  21  33  57  84 134 173 223 273 346 410
#     4  11  23  41  71  96 138 178 246 279 360 415
#     4  11  24  40  68 101 146 177 242 287 358 411
#     4  10  22  43  65 100 128 186 236 295 337 433
#     4  10  24  34  48 102 144 166 220 294 360 398
#     4  12  23  41  65 101 136 187 230 294 346 427
#
# _framework density 21.740898999999999
#
# number of rings (size 3 to 8) (size 9 to 14) (size 15 to 20)
#    0.000    0.923    4.615    4.615    0.000    6.154 
#    0.000    0.000    0.000    3.692    0.000    0.000 
#    0.000    0.000    0.000    0.000    0.000    0.000 
#
# Total GULP energy -289923.822528 kJ/mol
# GULP energy per Si atom -5575.458126 kJ/mol
# Density = 2.169142 g / cm^3
# Si number density = 21.740899 Si / 1000 Ang^3
#
#
#
# Elastic Constant Matrix: (Units=GPa)
#
#
# Indices 1 2 3 4 5 6 
#
# 1 79.1688 70.4013 26.4496 0.0000 0.0000 0.0000
# 2 70.4013 79.1716 26.4495 0.0000 0.0000 0.0000
# 3 26.4496 26.4495 102.1314 0.0000 0.0000 0.0000
# 4 0.0000 0.0000 0.0000 41.7751 0.0000 0.0000
# 5 0.0000 0.0000 0.0000 0.0000 41.7765 0.0000
# 6 0.0000 0.0000 0.0000 0.0000 0.0000 31.6002
#
#
#
# Elastic Compliance Matrix: (Units=1/GPa)
#
#
# Indices 1 2 3 4 5 6 
#
# 1 0.060700 -0.053339 -0.001906 0.000000 0.000000 0.000000
# 2 -0.053339 0.060698 -0.001906 0.000000 0.000000 0.000000
# 3 -0.001906 -0.001906 0.010779 0.000000 0.000000 0.000000
# 4 0.000000 0.000000 0.000000 0.023938 0.000000 0.000000
# 5 0.000000 0.000000 0.000000 0.000000 0.023937 0.000000
# 6 0.000000 0.000000 0.000000 0.000000 0.000000 0.031645
#
#
# Mechanical properties :
#
#
# Convention : Reuss Voigt Hill
#
# Bulk Modulus (GPa) = 55.94664 56.34139 56.14401
# Shear Modulus (GPa) = 15.06215 32.17513 23.61864
#
# Velocity S-wave (km/s) = 2.63497 3.85117 3.29959
# Velocity P-wave (km/s) = 5.92002 6.76362 6.35583
#
# Compressibility (1/GPa) = 0.01787417
#
# Stress axis : x y z
#
# Youngs Moduli (GPa) = 16.47434 16.47500 92.77695
#
# Poissons Ratio (x) = 0.87877 0.17687
# Poissons Ratio (y) = 0.87873 0.17680
# Poissons Ratio (z) = 0.03141 0.03140
#
# Static dielectric constant tensor:
#      x y z
#    x 1.933580 0.000000 0.000000 
#    y 0.000000 1.933570 0.000000 
#    z 0.000000 0.000000 1.769570 
# 
# From -- ./inp_files/2341.got.cif
#   From: 2010.05.17/outbox.cif.g08.bks.cpg/sg134_2_cif.got.tgz:2341.got - 2010.05.20 12:42:49.
