data_PCOD9568090
_publ_section_title
;
Structure prediction by ZEFSAII (Michael W. Deem and Ramdas Pophale) SiO2 
 PCOD9568090
Probable space group: P 42/N N M
;
_chemical_formula_sum "Si O2"
_cell_formula_units_Z 52
_cell_length_a 11.073400
_cell_length_b 11.073400
_cell_length_c 23.974448
_cell_angle_alpha 90.000000
_cell_angle_beta 90.000000
_cell_angle_gamma 90.000000
_cell_volume 2939.751310
_symmetry_space_group_name_H-M "P 42/N N M"
_symmetry_group_IT_number 134
_space_group.IT_coordinate_system_code '2'
_symmetry_cell_setting 'tetragonal'
loop_
_space_group_symop_operation_xyz
x,y,z
1/2-y,x,1/2+z
1/2-x,1/2-y,z
y,1/2-x,1/2+z
x,1/2-y,1/2-z
1/2-x,y,1/2-z
y,x,-z
1/2-y,1/2-x,-z
-x,-y,-z
1/2+y,-x,1/2-z
1/2+x,1/2+y,-z
-y,1/2+x,1/2-z
-x,1/2+y,1/2+z
1/2+x,-y,1/2+z
-y,-x,z
1/2+y,1/2+x,z
loop_
_atom_site_type_symbol
_atom_site_label
_atom_site_fract_x
_atom_site_fract_y
_atom_site_fract_z
Si Si1 0.149703 0.649703 0.344597
Si Si2 0.250000 0.250000 0.750000
Si Si3 0.085580 0.585580 0.464241
Si Si4 0.463570 0.333790 0.544831
Si Si5 0.042228 0.159999 0.674367
O O1 0.250000 0.750000 0.365683
O O2 0.084510 0.584510 0.396497
O O3 0.228548 0.550113 0.313318
O O4 0.160254 0.170442 0.711906
O O5 0.221274 0.543191 0.475473
O O6 0.000000 0.500000 0.500000
O O7 0.360562 0.360562 0.500000
O O8 0.552301 0.447700 0.546957
O O9 0.423433 0.320558 0.609032
O O10 0.961806 0.038195 0.680181
#
# Coordination Sequence:
#
# PCOD9568090 Si02
#       5
#     8   4   8  16  16
#     4   8  16  36  58  74 102 138 183 243 282 313
#     4  12  24  32  56  86 108 144 176 232 282 336
#     4  10  18  26  46  82 110 138 166 209 268 325
#     4   9  18  35  57  75 104 145 182 223 264 316
#     4   9  20  37  56  83 109 139 186 233 281 323
#
# _framework density 17.688571
#
# number of rings (size 3 to 8) (size 9 to 14) (size 15 to 20)
#    0.000    2.769    0.000    3.231    2.154    5.538 
#    0.000    0.000    3.385    0.462    0.000    0.000 
#    0.000    0.000    0.000    0.000    0.000    0.000 
#
# Total GULP energy -289477.297075 kJ/mol
# GULP energy per Si atom -5566.871098 kJ/mol
# Density = 1.764831 g / cm^3
# Si number density = 17.688571 Si / 1000 Ang^3
#
#
#
# Elastic Constant Matrix: (Units=GPa)
#
#
# Indices 1 2 3 4 5 6 
#
# 1 76.4101 37.6976 58.6161 0.0000 0.0000 0.0000
# 2 37.6976 76.4101 58.6161 0.0000 0.0000 0.0000
# 3 58.6161 58.6161 113.9390 0.0000 0.0000 0.0000
# 4 0.0000 0.0000 0.0000 34.4386 0.0000 0.0000
# 5 0.0000 0.0000 0.0000 0.0000 34.4386 0.0000
# 6 0.0000 0.0000 0.0000 0.0000 0.0000 28.7101
#
#
#
# Elastic Compliance Matrix: (Units=1/GPa)
#
#
# Indices 1 2 3 4 5 6 
#
# 1 0.022210 -0.003622 -0.009563 0.000000 0.000000 0.000000
# 2 -0.003622 0.022210 -0.009563 0.000000 0.000000 0.000000
# 3 -0.009563 -0.009563 0.018616 0.000000 0.000000 0.000000
# 4 0.000000 0.000000 0.000000 0.029037 0.000000 0.000000
# 5 0.000000 0.000000 0.000000 0.000000 0.029037 0.000000
# 6 0.000000 0.000000 0.000000 0.000000 0.000000 0.034831
#
#
# Mechanical properties :
#
#
# Convention : Reuss Voigt Hill
#
# Bulk Modulus (GPa) = 57.00842 64.06875 60.53859
# Shear Modulus (GPa) = 24.12170 26.97275 25.54723
#
# Velocity S-wave (km/s) = 3.69682 3.90919 3.80449
# Velocity P-wave (km/s) = 7.10781 7.52827 7.32105
#
# Compressibility (1/GPa) = 0.01754127
#
# Stress axis : x y z
#
# Youngs Moduli (GPa) = 45.02505 45.02505 53.71776
#
# Poissons Ratio (x) = 0.16306 0.51369
# Poissons Ratio (y) = 0.16306 0.51369
# Poissons Ratio (z) = 0.43056 0.43056
#
# Static dielectric constant tensor:
#      x y z
#    x 1.609380 0.000000 0.000000 
#    y 0.000000 1.609380 0.000000 
#    z 0.000000 0.000000 1.668010 
# 
# From -- ./inp_files/8598.got.cif
#   From: 2010.05.17/outbox.cif.g08.bks.cpg/sg134_5_cif.got.tgz:8598.got - 2010.05.20 12:42:49.
