data_PCOD9568761
_publ_section_title
;
Structure prediction by ZEFSAII (Michael W. Deem and Ramdas Pophale) SiO2 
 PCOD9568761
Probable space group: P 42/M B C
;
_chemical_formula_sum "Si O2"
_cell_formula_units_Z 64
_cell_length_a 20.513107
_cell_length_b 20.513107
_cell_length_c 8.830783
_cell_angle_alpha 90.000000
_cell_angle_beta 90.000000
_cell_angle_gamma 90.000000
_cell_volume 3715.883621
_symmetry_space_group_name_H-M "P 42/M B C"
_symmetry_group_IT_number 135
_symmetry_cell_setting 'tetragonal'
loop_
_space_group_symop_operation_xyz
x,y,z
-y,x,1/2+z
-x,-y,z
y,-x,1/2+z
1/2+x,1/2-y,-z
1/2-x,1/2+y,-z
1/2+y,1/2+x,1/2-z
1/2-y,1/2-x,1/2-z
-x,-y,-z
y,-x,1/2-z
x,y,-z
-y,x,1/2-z
1/2-x,1/2+y,z
1/2+x,1/2-y,z
1/2-y,1/2-x,1/2+z
1/2+y,1/2+x,1/2+z
loop_
_atom_site_type_symbol
_atom_site_label
_atom_site_fract_x
_atom_site_fract_y
_atom_site_fract_z
Si Si1 0.073430 0.325512 0.181453
Si Si2 0.072314 0.820379 0.681579
Si Si3 0.576686 0.821740 0.181916
Si Si4 0.568609 0.323966 0.182634
O O1 0.123774 0.376227 0.250000
O O2 0.087159 0.250318 0.225179
O O3 0.998148 0.338862 0.224543
O O4 0.077438 0.329328 0.000000
O O5 0.071544 0.813845 0.500000
O O6 0.089191 0.750755 0.755149
O O7 0.124847 0.875465 0.722821
O O8 0.000490 0.838962 0.740569
O O9 0.626990 0.873011 0.250000
O O10 0.580887 0.820897 0.000000
O O11 0.559727 0.325016 0.000000
#
# Coordination Sequence:
#
# PCOD9568761 Si02
#       4
#    16  16  16  16
#     4   9  19  35  53  74 103 136 170 213 259 306
#     4  10  20  35  56  79 105 140 179 218 263 314
#     4  10  21  37  55  77 107 139 174 218 264 313
#     4   9  20  37  53  76 109 139 173 217 263 313
#
# _framework density 17.22336
#
# number of rings (size 3 to 8) (size 9 to 14) (size 15 to 20)
#    0.000    2.500    0.000    3.000    0.000    9.000 
#    0.000    7.500    0.000    0.000    0.000    0.000 
#    0.000    0.000    0.000    0.000    0.000    0.000 
#
# Total GULP energy -357085.966789 kJ/mol
# GULP energy per Si atom -5579.468231 kJ/mol
# Density = 1.718416 g / cm^3
# Si number density = 17.223360 Si / 1000 Ang^3
#
#
#
# Elastic Constant Matrix: (Units=GPa)
#
#
# Indices 1 2 3 4 5 6 
#
# 1 156.1702 146.1319 59.6900 0.0000 0.0000 0.0000
# 2 146.1319 156.1735 59.6916 0.0000 0.0000 0.0000
# 3 59.6900 59.6916 42.5548 0.0000 0.0000 0.0000
# 4 0.0000 0.0000 0.0000 31.4388 0.0000 0.0000
# 5 0.0000 0.0000 0.0000 0.0000 31.4382 0.0000
# 6 0.0000 0.0000 0.0000 0.0000 0.0000 43.0912
#
#
#
# Elastic Compliance Matrix: (Units=1/GPa)
#
#
# Indices 1 2 3 4 5 6 
#
# 1 0.053509 -0.046093 -0.010399 0.000000 0.000000 0.000000
# 2 -0.046093 0.053509 -0.010404 0.000000 0.000000 0.000000
# 3 -0.010399 -0.010404 0.052680 0.000000 0.000000 0.000000
# 4 0.000000 0.000000 0.000000 0.031808 0.000000 0.000000
# 5 0.000000 0.000000 0.000000 0.000000 0.031808 0.000000
# 6 0.000000 0.000000 0.000000 0.000000 0.000000 0.023207
#
#
# Mechanical properties :
#
#
# Convention : Reuss Voigt Hill
#
# Bulk Modulus (GPa) = 38.60402 98.43616 68.52009
# Shear Modulus (GPa) = 12.85515 27.15264 20.00390
#
# Velocity S-wave (km/s) = 2.73496 3.97483 3.41169
# Velocity P-wave (km/s) = 5.69524 8.85113 7.44238
#
# Compressibility (1/GPa) = 0.02590404
#
# Stress axis : x y z
#
# Youngs Moduli (GPa) = 18.68860 18.68832 18.98255
#
# Poissons Ratio (x) = 0.86141 0.19741
# Poissons Ratio (y) = 0.86142 0.19750
# Poissons Ratio (z) = 0.19435 0.19444
#
# Static dielectric constant tensor:
#      x y z
#    x 1.563610 0.000000 0.000000 
#    y 0.000000 1.563610 0.000000 
#    z 0.000000 0.000000 1.580360 
# 
# From -- ./inp_files/933.got.cif
#   From: 2010.05.17/outbox.cif.g08.bks.cpg/sg135_1_cif.got.tgz:933.got - 2010.05.20 12:50:20.
