data_PCOD9568576
_publ_section_title
;
Structure prediction by ZEFSAII (Michael W. Deem and Ramdas Pophale) SiO2 
 PCOD9568576
Probable space group: P 42/N N M
;
_chemical_formula_sum "Si O2"
_cell_formula_units_Z 112
_cell_length_a 15.000000
_cell_length_b 15.000000
_cell_length_c 24.000000
_cell_angle_alpha 90.000000
_cell_angle_beta 90.000000
_cell_angle_gamma 90.000000
_cell_volume 5400.000000
_symmetry_space_group_name_H-M "P 42/N N M"
_symmetry_group_IT_number 134
_space_group.IT_coordinate_system_code '2'
_symmetry_cell_setting 'tetragonal'
loop_
_space_group_symop_operation_xyz
x,y,z
1/2-y,x,1/2+z
1/2-x,1/2-y,z
y,1/2-x,1/2+z
x,1/2-y,1/2-z
1/2-x,y,1/2-z
y,x,-z
1/2-y,1/2-x,-z
-x,-y,-z
1/2+y,-x,1/2-z
1/2+x,1/2+y,-z
-y,1/2+x,1/2-z
-x,1/2+y,1/2+z
1/2+x,-y,1/2+z
-y,-x,z
1/2+y,1/2+x,z
loop_
_atom_site_type_symbol
_atom_site_label
_atom_site_fract_x
_atom_site_fract_y
_atom_site_fract_z
Si Si1 0.444980 0.704572 0.874529
Si Si2 0.066694 0.077455 0.560080
Si Si3 0.548146 0.196714 0.693423
Si Si4 0.583733 0.276721 0.576064
Si Si5 0.143861 0.002045 0.989414
Si Si6 0.373142 0.482909 0.669965
Si Si7 0.560153 0.907941 0.708607
O O1 0.353950 0.646051 0.873908
O O2 0.484702 0.708729 0.936959
O O3 0.442705 0.799315 0.844099
O O4 0.519023 0.654620 0.837884
O O5 0.104345 0.104345 0.500000
O O6 0.987683 0.145964 0.568877
O O7 0.125831 0.079140 0.615445
O O8 0.022276 0.977725 0.554777
O O9 0.548576 0.250000 0.750000
O O10 0.617372 0.117372 0.699432
O O11 0.580662 0.251417 0.640577
O O12 0.451277 0.151691 0.688145
O O13 0.678588 0.321413 0.559855
O O14 0.545125 0.193395 0.541161
O O15 0.058846 0.941155 0.973605
O O16 0.099822 0.099822 0.000000
O O17 0.469127 0.530874 0.670869
O O18 0.363818 0.437140 0.730031
O O19 0.486879 0.986879 0.712996
#
# Coordination Sequence:
#
# PCOD9568576 Si02
#       7
#    16  16  16  16  16  16  16
#     4  10  20  34  55  81 107 139 183 235 286 337
#     4   9  18  33  53  78 109 147 189 228 272 332
#     4  11  22  36  56  82 113 146 180 224 282 344
#     4  11  22  36  58  87 116 148 191 243 290 335
#     4  10  21  37  56  79 112 155 195 232 288 362
#     4  10  19  33  55  81 110 144 182 228 284 346
#     4   9  19  36  55  75 103 144 188 223 266 335
#
# _framework density 20.740741
#
# number of rings (size 3 to 8) (size 9 to 14) (size 15 to 20)
#    0.000    2.000    0.000    3.857    0.000    8.429 
#    0.000    1.429    0.000   17.571    0.000    0.000 
#    0.000    0.000    0.000    0.000    0.000    0.000 
#
# Total GULP energy -623586.941110 kJ/mol
# GULP energy per Si atom -5567.740546 kJ/mol
# Density = 2.069353 g / cm^3
# Si number density = 20.740741 Si / 1000 Ang^3
#
#
#
# Elastic Constant Matrix: (Units=GPa)
#
#
# Indices 1 2 3 4 5 6 
#
# 1 -226.7548 277.8436 -3.4679 0.0000 0.0000 0.0000
# 2 277.8436 -226.7548 -3.4679 0.0000 0.0000 0.0000
# 3 -3.4679 -3.4679 46.4277 0.0000 0.0000 0.0000
# 4 0.0000 0.0000 0.0000 19.9380 0.0000 0.0000
# 5 0.0000 0.0000 0.0000 0.0000 19.9380 0.0000
# 6 0.0000 0.0000 0.0000 0.0000 0.0000 30.7013
#
#
#
# Elastic Compliance Matrix: (Units=1/GPa)
#
#
# Indices 1 2 3 4 5 6 
#
# 1 0.008896 0.010878 0.001477 0.000000 0.000000 0.000000
# 2 0.010878 0.008896 0.001477 0.000000 0.000000 0.000000
# 3 0.001477 0.001477 0.021760 0.000000 0.000000 0.000000
# 4 0.000000 0.000000 0.000000 0.050156 0.000000 0.000000
# 5 0.000000 0.000000 0.000000 0.000000 0.050156 0.000000
# 6 0.000000 0.000000 0.000000 0.000000 0.000000 0.032572
#
#
# Mechanical properties :
#
#
# Convention : Reuss Voigt Hill
#
# Bulk Modulus (GPa) = 14.87736 14.97041 14.92389
# Shear Modulus (GPa) = 29.90858 -31.08384 -0.58763
#
# Velocity S-wave (km/s) = 3.80151 -3.87549 -0.53286
# Velocity P-wave (km/s) = 5.14366 3.57663 2.61390
#
# Compressibility (1/GPa) = 0.06721622
#
# Stress axis : x y z
#
# Youngs Moduli (GPa) = 112.40697 112.40697 45.95691
#
# Poissons Ratio (x) = -1.22277 -0.06788
# Poissons Ratio (y) = -1.22277 -0.06788
# Poissons Ratio (z) = -0.16603 -0.16603
#
# Static dielectric constant tensor:
#      x y z
#    x 1.778470 0.000000 0.000000 
#    y 0.000000 1.778470 0.000000 
#    z 0.000000 0.000000 1.774990 
# 
# From -- ./inp_files/10142.got.cif
#   From: 2010.05.17/outbox.ucp.g08.bks.cvg/sg134_6_cif.got.tgz:10142.got - 2010.06.11 11:39:54.
