data_PCOD9568369
_publ_section_title
;
Structure prediction by ZEFSAII (Michael W. Deem and Ramdas Pophale) SiO2 
 PCOD9568369
Probable space group: P 42/N N M
;
_chemical_formula_sum "Si O2"
_cell_formula_units_Z 80
_cell_length_a 16.240996
_cell_length_b 16.240996
_cell_length_c 13.088188
_cell_angle_alpha 90.000000
_cell_angle_beta 90.000000
_cell_angle_gamma 90.000000
_cell_volume 3452.270708
_symmetry_space_group_name_H-M "P 42/N N M"
_symmetry_group_IT_number 134
_space_group.IT_coordinate_system_code '2'
_symmetry_cell_setting 'tetragonal'
loop_
_space_group_symop_operation_xyz
x,y,z
1/2-y,x,1/2+z
1/2-x,1/2-y,z
y,1/2-x,1/2+z
x,1/2-y,1/2-z
1/2-x,y,1/2-z
y,x,-z
1/2-y,1/2-x,-z
-x,-y,-z
1/2+y,-x,1/2-z
1/2+x,1/2+y,-z
-y,1/2+x,1/2-z
-x,1/2+y,1/2+z
1/2+x,-y,1/2+z
-y,-x,z
1/2+y,1/2+x,z
loop_
_atom_site_type_symbol
_atom_site_label
_atom_site_fract_x
_atom_site_fract_y
_atom_site_fract_z
Si Si1 0.916634 0.613055 0.103656
Si Si2 0.263394 0.542476 0.135180
Si Si3 0.071957 0.259003 0.366501
Si Si4 0.928954 0.557997 0.660689
Si Si5 0.882459 0.251049 0.420822
O O1 0.817886 0.619848 0.087616
O O2 0.929749 0.571056 0.215103
O O3 0.970703 0.695642 0.114176
O O4 0.937032 0.562968 0.000000
O O5 0.250000 0.575053 0.250000
O O6 0.353001 0.501147 0.134366
O O7 0.254130 0.606184 0.043610
O O8 0.096408 0.250000 0.250000
O O9 0.084673 0.354124 0.392194
O O10 0.974224 0.244930 0.378461
O O11 0.013202 0.513202 0.630647
O O12 0.826909 0.173092 0.392632
O O13 0.832189 0.332189 0.387923
#
# Coordination Sequence:
#
# PCOD9568369 Si02
#       5
#    16  16  16  16  16
#     4  10  20  40  63  91 125 165 210 265 316 370
#     4  10  22  41  62  93 127 160 209 260 320 376
#     4  10  22  41  62  93 127 160 209 260 320 376
#     4  10  22  39  64  93 127 169 207 257 317 377
#     4  11  24  40  60  87 122 168 213 255 313 382
#
# _framework density 23.173154
#
# number of rings (size 3 to 8) (size 9 to 14) (size 15 to 20)
#    0.000    1.800    2.000    1.200    0.000   10.000 
#    0.000    9.000    0.000    0.000    0.000    0.000 
#    0.000    0.000    0.000    0.000    0.000    0.000 
#
# Total GULP energy -446628.244839 kJ/mol
# GULP energy per Si atom -5582.853060 kJ/mol
# Density = 2.312041 g / cm^3
# Si number density = 23.173154 Si / 1000 Ang^3
#
#
#
# Elastic Constant Matrix: (Units=GPa)
#
#
# Indices 1 2 3 4 5 6 
#
# 1 33.6457 76.9539 0.1140 0.0000 0.0000 0.0000
# 2 76.9539 33.6465 0.1164 0.0000 0.0000 0.0000
# 3 0.1140 0.1164 78.3169 0.0000 0.0000 0.0000
# 4 0.0000 0.0000 0.0000 8.7073 0.0000 0.0000
# 5 0.0000 0.0000 0.0000 0.0000 8.7077 0.0000
# 6 0.0000 0.0000 0.0000 0.0000 0.0000 33.2706
#
#
#
# Elastic Compliance Matrix: (Units=1/GPa)
#
#
# Indices 1 2 3 4 5 6 
#
# 1 -0.007025 0.016066 -0.000014 0.000000 0.000000 0.000000
# 2 0.016066 -0.007024 -0.000013 0.000000 0.000000 0.000000
# 3 -0.000014 -0.000013 0.012769 0.000000 0.000000 0.000000
# 4 0.000000 0.000000 0.000000 0.114846 0.000000 0.000000
# 5 0.000000 0.000000 0.000000 0.000000 0.114840 0.000000
# 6 0.000000 0.000000 0.000000 0.000000 0.000000 0.030057
#
#
# Mechanical properties :
#
#
# Convention : Reuss Voigt Hill
#
# Bulk Modulus (GPa) = 32.46889 33.33086 32.89988
# Shear Modulus (GPa) = 21.12822 14.69878 17.91350
#
# Velocity S-wave (km/s) = 3.02280 2.52127 2.78335
# Velocity P-wave (km/s) = 5.12103 4.78438 4.95557
#
# Compressibility (1/GPa) = 0.03079871
#
# Stress axis : x y z
#
# Youngs Moduli (GPa) = -142.35842 -142.36172 78.31666
#
# Poissons Ratio (x) = 2.28719 0.00107
# Poissons Ratio (y) = 2.28714 0.00101
# Poissons Ratio (z) = -0.00194 -0.00184
#
# Static dielectric constant tensor:
#      x y z
#    x 1.863150 0.000000 0.000000 
#    y 0.000000 1.863150 0.000000 
#    z 0.000000 0.000000 1.925070 
# 
# From -- ./inp_files/6370.got.cif
#   From: 2010.05.17/outbox.cif.g08.bks.cpg/sg134_4_cif.got.tgz:6370.got - 2010.05.20 12:42:49.
