data_PCOD9568971
_publ_section_title
;
Structure prediction by ZEFSAII (Michael W. Deem and Ramdas Pophale) SiO2 
 PCOD9568971
Probable space group: P 42/M B C
;
_chemical_formula_sum "Si O2"
_cell_formula_units_Z 96
_cell_length_a 14.348481
_cell_length_b 14.348481
_cell_length_c 21.828558
_cell_angle_alpha 90.000000
_cell_angle_beta 90.000000
_cell_angle_gamma 90.000000
_cell_volume 4494.039663
_symmetry_space_group_name_H-M "P 42/M B C"
_symmetry_group_IT_number 135
_symmetry_cell_setting 'tetragonal'
loop_
_space_group_symop_operation_xyz
x,y,z
-y,x,1/2+z
-x,-y,z
y,-x,1/2+z
1/2+x,1/2-y,-z
1/2-x,1/2+y,-z
1/2+y,1/2+x,1/2-z
1/2-y,1/2-x,1/2-z
-x,-y,-z
y,-x,1/2-z
x,y,-z
-y,x,1/2-z
1/2-x,1/2+y,z
1/2+x,1/2-y,z
1/2-y,1/2-x,1/2+z
1/2+y,1/2+x,1/2+z
loop_
_atom_site_type_symbol
_atom_site_label
_atom_site_fract_x
_atom_site_fract_y
_atom_site_fract_z
Si Si1 0.936473 0.355880 0.930581
Si Si2 0.197614 0.819692 0.931416
Si Si3 0.017161 0.610756 0.317441
Si Si4 0.592833 0.561808 0.842066
Si Si5 0.875818 0.687027 0.141992
Si Si6 0.723007 0.492517 0.264680
O O1 0.879829 0.260252 0.933371
O O2 0.888434 0.420760 0.878863
O O3 0.039444 0.332282 0.905194
O O4 0.939173 0.395281 0.000000
O O5 0.151269 0.911183 0.901707
O O6 0.283585 0.781177 0.891907
O O7 0.230649 0.839744 0.000000
O O8 0.913563 0.648111 0.330357
O O9 0.046575 0.679391 0.261848
O O10 0.000000 0.500000 0.307892
O O11 0.500000 0.500000 0.852399
O O12 0.568708 0.661708 0.810993
O O13 0.656067 0.509460 0.792642
O O14 0.915723 0.751460 0.195840
#
# Coordination Sequence:
#
# PCOD9568971 Si02
#       6
#    16  16  16  16  16  16
#     4  10  23  43  65  95 134 179 231 280 340 415
#     4  11  25  46  69  99 134 182 235 284 352 415
#     4  10  24  41  63  99 132 175 219 270 333 410
#     4  12  25  45  72 100 135 183 228 292 353 417
#     4  11  23  41  68  96 135 177 219 286 345 403
#     4  12  23  43  67 101 141 173 229 283 351 421
#
# _framework density 21.361626000000001
#
# number of rings (size 3 to 8) (size 9 to 14) (size 15 to 20)
#    0.000    1.000    5.000    1.000    2.333    8.667 
#    0.000    0.000    0.000    0.000    0.000    0.000 
#    0.000    0.000    0.000    0.000    0.000    0.000 
#
# Total GULP energy -536186.661996 kJ/mol
# GULP energy per Si atom -5585.277729 kJ/mol
# Density = 2.131301 g / cm^3
# Si number density = 21.361626 Si / 1000 Ang^3
#
#
#
# Elastic Constant Matrix: (Units=GPa)
#
#
# Indices 1 2 3 4 5 6 
#
# 1 63.4017 7.4694 14.0129 0.0000 0.0000 0.0000
# 2 7.4694 63.4017 14.0129 0.0000 0.0000 0.0000
# 3 14.0129 14.0129 103.3251 0.0000 0.0000 0.0000
# 4 0.0000 0.0000 0.0000 31.6852 0.0000 0.0000
# 5 0.0000 0.0000 0.0000 0.0000 31.6852 0.0000
# 6 0.0000 0.0000 0.0000 0.0000 0.0000 16.8355
#
#
#
# Elastic Compliance Matrix: (Units=1/GPa)
#
#
# Indices 1 2 3 4 5 6 
#
# 1 0.016394 -0.001485 -0.002022 0.000000 0.000000 0.000000
# 2 -0.001485 0.016394 -0.002022 0.000000 0.000000 0.000000
# 3 -0.002022 -0.002022 0.010227 0.000000 0.000000 0.000000
# 4 0.000000 0.000000 0.000000 0.031560 0.000000 0.000000
# 5 0.000000 0.000000 0.000000 0.000000 0.031560 0.000000
# 6 0.000000 0.000000 0.000000 0.000000 0.000000 0.059398
#
#
# Mechanical properties :
#
#
# Convention : Reuss Voigt Hill
#
# Bulk Modulus (GPa) = 31.29111 33.45762 32.37436
# Shear Modulus (GPa) = 26.70308 29.01673 27.85991
#
# Velocity S-wave (km/s) = 3.53944 3.68959 3.61529
# Velocity P-wave (km/s) = 5.60211 5.81784 5.71099
#
# Compressibility (1/GPa) = 0.03195796
#
# Stress axis : x y z
#
# Youngs Moduli (GPa) = 60.99699 60.99699 97.78374
#
# Poissons Ratio (x) = 0.09055 0.19772
# Poissons Ratio (y) = 0.09055 0.19772
# Poissons Ratio (z) = 0.12334 0.12334
#
# Static dielectric constant tensor:
#      x y z
#    x 1.772450 0.000000 0.000000 
#    y 0.000000 1.772450 0.000000 
#    z 0.000000 0.000000 1.841960 
# 
# From -- ./inp_files/5453.got.cif
#   From: 2010.05.17/outbox.cif.g08.bks.cpg/sg135_3_cif.got.tgz:5453.got - 2010.05.20 12:50:20.
