data_PCOD9568442
_publ_section_title
;
Structure prediction by ZEFSAII (Michael W. Deem and Ramdas Pophale) SiO2 
 PCOD9568442
Probable space group: P 42/N N M
;
_chemical_formula_sum "Si O2"
_cell_formula_units_Z 112
_cell_length_a 15.323918
_cell_length_b 15.323918
_cell_length_c 22.256991
_cell_angle_alpha 90.000000
_cell_angle_beta 90.000000
_cell_angle_gamma 90.000000
_cell_volume 5226.441443
_symmetry_space_group_name_H-M "P 42/N N M"
_symmetry_group_IT_number 134
_space_group.IT_coordinate_system_code '2'
_symmetry_cell_setting 'tetragonal'
loop_
_space_group_symop_operation_xyz
x,y,z
1/2-y,x,1/2+z
1/2-x,1/2-y,z
y,1/2-x,1/2+z
x,1/2-y,1/2-z
1/2-x,y,1/2-z
y,x,-z
1/2-y,1/2-x,-z
-x,-y,-z
1/2+y,-x,1/2-z
1/2+x,1/2+y,-z
-y,1/2+x,1/2-z
-x,1/2+y,1/2+z
1/2+x,-y,1/2+z
-y,-x,z
1/2+y,1/2+x,z
loop_
_atom_site_type_symbol
_atom_site_label
_atom_site_fract_x
_atom_site_fract_y
_atom_site_fract_z
Si Si1 0.049336 0.406521 0.432559
Si Si2 0.583782 0.937086 0.866400
Si Si3 0.568394 0.578111 0.771748
Si Si4 0.290954 0.514530 0.568466
Si Si5 0.710028 0.967825 0.639198
Si Si6 0.886375 0.248492 0.950250
Si Si7 0.431092 0.787405 0.684359
O O1 0.065195 0.434806 0.500000
O O2 0.022933 0.306481 0.433337
O O3 0.141981 0.413426 0.400302
O O4 0.974628 0.474628 0.409458
O O5 0.566777 0.901091 0.798960
O O6 0.550355 0.870110 0.917026
O O7 0.688270 0.945822 0.866810
O O8 0.526863 0.026863 0.871954
O O9 0.504258 0.495743 0.779500
O O10 0.663021 0.547326 0.796436
O O11 0.522975 0.659473 0.806111
O O12 0.295369 0.560611 0.503784
O O13 0.282815 0.568907 0.630813
O O14 0.708354 0.060411 0.604927
O O15 0.829911 0.170090 0.979295
O O16 0.819321 0.319321 0.925532
O O17 0.411255 0.750000 0.750000
O O18 0.358611 0.858611 0.669167
#
# Coordination Sequence:
#
# PCOD9568442 Si02
#       7
#    16  16  16  16  16  16  16
#     4  11  22  40  68 101 132 166 218 285 341 393
#     4  11  26  45  64  92 138 186 224 273 339 412
#     4  10  21  41  67  95 128 170 226 288 345 401
#     4  12  23  41  67  98 134 180 224 272 340 421
#     4  12  23  41  68  97 128 175 229 279 342 402
#     4  11  24  41  65  99 136 176 226 284 346 413
#     4  11  22  38  63  97 132 174 224 278 337 404
#
# _framework density 21.429496
#
# number of rings (size 3 to 8) (size 9 to 14) (size 15 to 20)
#    0.000    0.857    4.286    3.857    0.000    1.857 
#    0.000    2.143    0.000    0.000    0.000   10.000 
#    0.000    0.000    0.000    0.000    0.000    0.000 
#
# Total GULP energy -624529.374709 kJ/mol
# GULP energy per Si atom -5576.155131 kJ/mol
# Density = 2.138072 g / cm^3
# Si number density = 21.429496 Si / 1000 Ang^3
#
#
#
# Elastic Constant Matrix: (Units=GPa)
#
#
# Indices 1 2 3 4 5 6 
#
# 1 67.3900 49.4109 7.7326 0.0000 0.0000 0.0000
# 2 49.4109 67.3911 7.7317 0.0000 0.0000 0.0000
# 3 7.7326 7.7317 56.1631 0.0000 0.0000 0.0000
# 4 0.0000 0.0000 0.0000 21.7939 0.0000 0.0000
# 5 0.0000 0.0000 0.0000 0.0000 21.7918 0.0000
# 6 0.0000 0.0000 0.0000 0.0000 0.0000 38.2578
#
#
#
# Elastic Compliance Matrix: (Units=1/GPa)
#
#
# Indices 1 2 3 4 5 6 
#
# 1 0.032170 -0.023449 -0.001201 0.000000 0.000000 0.000000
# 2 -0.023449 0.032169 -0.001200 0.000000 0.000000 0.000000
# 3 -0.001201 -0.001200 0.018136 0.000000 0.000000 0.000000
# 4 0.000000 0.000000 0.000000 0.045884 0.000000 0.000000
# 5 0.000000 0.000000 0.000000 0.000000 0.045889 0.000000
# 6 0.000000 0.000000 0.000000 0.000000 0.000000 0.026138
#
#
# Mechanical properties :
#
#
# Convention : Reuss Voigt Hill
#
# Bulk Modulus (GPa) = 32.49442 35.63274 34.06358
# Shear Modulus (GPa) = 19.05890 24.77332 21.91611
#
# Velocity S-wave (km/s) = 2.98548 3.40374 3.20145
# Velocity P-wave (km/s) = 5.20389 5.66668 5.44021
#
# Compressibility (1/GPa) = 0.03077451
#
# Stress axis : x y z
#
# Youngs Moduli (GPa) = 31.08512 31.08572 55.13938
#
# Poissons Ratio (x) = 0.72893 0.06623
# Poissons Ratio (y) = 0.72891 0.06617
# Poissons Ratio (z) = 0.03734 0.03731
#
# Static dielectric constant tensor:
#      x y z
#    x 1.783780 0.000000 0.000000 
#    y 0.000000 1.783780 0.000000 
#    z 0.000000 0.000000 1.866710 
# 
# From -- ./inp_files/10160.got.cif
#   From: 2010.05.17/outbox.cif.g08.bks.cpg/sg134_6_cif.got.tgz:10160.got - 2010.05.20 12:42:49.
