data_PCOD9568410
_publ_section_title
;
Structure prediction by ZEFSAII (Michael W. Deem and Ramdas Pophale) SiO2 
 PCOD9568410
Probable space group: P 42/N N M
;
_chemical_formula_sum "Si O2"
_cell_formula_units_Z 64
_cell_length_a 25.057885
_cell_length_b 25.057885
_cell_length_c 5.002323
_cell_angle_alpha 90.000000
_cell_angle_beta 90.000000
_cell_angle_gamma 90.000000
_cell_volume 3140.946609
_symmetry_space_group_name_H-M "P 42/N N M"
_symmetry_group_IT_number 134
_space_group.IT_coordinate_system_code '2'
_symmetry_cell_setting 'tetragonal'
loop_
_space_group_symop_operation_xyz
x,y,z
1/2-y,x,1/2+z
1/2-x,1/2-y,z
y,1/2-x,1/2+z
x,1/2-y,1/2-z
1/2-x,y,1/2-z
y,x,-z
1/2-y,1/2-x,-z
-x,-y,-z
1/2+y,-x,1/2-z
1/2+x,1/2+y,-z
-y,1/2+x,1/2-z
-x,1/2+y,1/2+z
1/2+x,-y,1/2+z
-y,-x,z
1/2+y,1/2+x,z
loop_
_atom_site_type_symbol
_atom_site_label
_atom_site_fract_x
_atom_site_fract_y
_atom_site_fract_z
Si Si1 0.192405 0.604190 0.315793
Si Si2 0.212694 0.372004 0.501300
Si Si3 0.936457 0.886901 0.774432
Si Si4 0.969240 0.308843 0.181132
O O1 0.250000 0.629598 0.250000
O O2 0.145127 0.645127 0.265235
O O3 0.188493 0.580217 0.612818
O O4 0.190873 0.553798 0.116418
O O5 0.250000 0.375871 0.750000
O O6 0.186602 0.313399 0.500000
O O7 0.162922 0.410125 0.563235
O O8 0.250000 0.383813 0.250000
O O9 0.905627 0.905627 0.500000
O O10 0.992891 0.860188 0.706572
O O11 0.933209 0.933209 0.000000
O O12 0.994334 0.250000 0.250000
#
# Coordination Sequence:
#
# PCOD9568410 Si02
#       4
#    16  16  16  16
#     4  10  21  38  62  93 124 156 191 229 283 348
#     4  11  22  34  48  69  98 135 179 231 292 353
#     4  11  22  37  57  81 110 146 195 253 301 342
#     4  10  21  37  61  87 116 157 199 243 293 349
#
# _framework density 20.376021999999999
#
# number of rings (size 3 to 8) (size 9 to 14) (size 15 to 20)
#    0.000    1.500    0.000    6.750    0.000    4.750 
#    0.000    0.000    0.000   19.500    0.000    0.000 
#    0.000    0.000    0.000    0.000    0.000    0.000 
#
# Total GULP energy -356773.558077 kJ/mol
# GULP energy per Si atom -5574.586845 kJ/mol
# Density = 2.032965 g / cm^3
# Si number density = 20.376022 Si / 1000 Ang^3
#
#
#
# Elastic Constant Matrix: (Units=GPa)
#
#
# Indices 1 2 3 4 5 6 
#
# 1 50.2347 28.5361 3.5569 0.0000 0.0000 0.0000
# 2 28.5361 50.2360 3.5563 0.0000 0.0000 0.0000
# 3 3.5569 3.5563 109.6654 0.0000 0.0000 0.0000
# 4 0.0000 0.0000 0.0000 15.1505 0.0000 0.0000
# 5 0.0000 0.0000 0.0000 0.0000 15.1479 0.0000
# 6 0.0000 0.0000 0.0000 0.0000 0.0000 32.7735
#
#
#
# Elastic Compliance Matrix: (Units=1/GPa)
#
#
# Indices 1 2 3 4 5 6 
#
# 1 0.029409 -0.016676 -0.000413 0.000000 0.000000 0.000000
# 2 -0.016676 0.029408 -0.000413 0.000000 0.000000 0.000000
# 3 -0.000413 -0.000413 0.009145 0.000000 0.000000 0.000000
# 4 0.000000 0.000000 0.000000 0.066004 0.000000 0.000000
# 5 0.000000 0.000000 0.000000 0.000000 0.066016 0.000000
# 6 0.000000 0.000000 0.000000 0.000000 0.000000 0.030512
#
#
# Mechanical properties :
#
#
# Convention : Reuss Voigt Hill
#
# Bulk Modulus (GPa) = 30.34144 31.27052 30.80598
# Shear Modulus (GPa) = 18.08420 24.24686 21.16553
#
# Velocity S-wave (km/s) = 2.98237 3.45334 3.22646
# Velocity P-wave (km/s) = 5.17517 5.59292 5.38810
#
# Compressibility (1/GPa) = 0.03295822
#
# Stress axis : x y z
#
# Youngs Moduli (GPa) = 34.00349 34.00441 109.34421
#
# Poissons Ratio (x) = 0.56706 0.04517
# Poissons Ratio (y) = 0.56705 0.04514
# Poissons Ratio (z) = 0.01405 0.01404
#
# Static dielectric constant tensor:
#      x y z
#    x 1.891090 0.000000 0.000000 
#    y 0.000000 1.891550 0.000000 
#    z 0.000000 0.000000 1.715890 
# 
# From -- ./inp_files/920.got.cif
#   From: 2010.05.17/outbox.cif.g08.bks.cpg/sg134_1_cif.got.tgz:920.got - 2010.05.20 12:42:49.
