data_PCOD9568694
_publ_section_title
;
Structure prediction by ZEFSAII (Michael W. Deem and Ramdas Pophale) SiO2 
 PCOD9568694
Probable space group: P 42/M B C
;
_chemical_formula_sum "Si O2"
_cell_formula_units_Z 112
_cell_length_a 15.180587
_cell_length_b 15.180587
_cell_length_c 28.687103
_cell_angle_alpha 90.000000
_cell_angle_beta 90.000000
_cell_angle_gamma 90.000000
_cell_volume 6610.949245
_symmetry_space_group_name_H-M "P 42/M B C"
_symmetry_group_IT_number 135
_symmetry_cell_setting 'tetragonal'
loop_
_space_group_symop_operation_xyz
x,y,z
-y,x,1/2+z
-x,-y,z
y,-x,1/2+z
1/2+x,1/2-y,-z
1/2-x,1/2+y,-z
1/2+y,1/2+x,1/2-z
1/2-y,1/2-x,1/2-z
-x,-y,-z
y,-x,1/2-z
x,y,-z
-y,x,1/2-z
1/2-x,1/2+y,z
1/2+x,1/2-y,z
1/2-y,1/2-x,1/2+z
1/2+y,1/2+x,1/2+z
loop_
_atom_site_type_symbol
_atom_site_label
_atom_site_fract_x
_atom_site_fract_y
_atom_site_fract_z
Si Si1 0.202658 0.279202 0.877490
Si Si2 0.243747 0.659141 0.704186
Si Si3 0.210071 0.918582 0.945945
Si Si4 0.477672 0.742907 0.164577
Si Si5 0.077168 0.114384 0.246690
Si Si6 0.097688 0.013786 0.587464
Si Si7 0.880203 0.177434 0.552194
O O1 0.266744 0.251837 0.835235
O O2 0.238246 0.360255 0.908296
O O3 0.103910 0.295390 0.857802
O O4 0.200502 0.194337 0.911087
O O5 0.191417 0.691417 0.750000
O O6 0.209981 0.565396 0.683950
O O7 0.344299 0.641860 0.720031
O O8 0.106186 0.898910 0.938941
O O9 0.217975 0.023683 0.937422
O O10 0.234684 0.900793 0.000000
O O11 0.436434 0.685010 0.206363
O O12 0.510775 0.672900 0.126216
O O13 0.982877 0.102824 0.271763
O O14 0.109429 0.928524 0.555014
O O15 0.000000 0.000000 0.608812
O O16 0.854531 0.203528 0.500000
#
# Coordination Sequence:
#
# PCOD9568694 Si02
#       7
#    16  16  16  16  16  16  16
#     4  11  21  35  55  84 108 146 184 229 271 325
#     4  11  21  36  52  79 110 146 183 226 272 329
#     4  10  19  34  56  82 112 148 180 220 278 334
#     4  10  20  33  51  79 114 143 182 226 269 322
#     4   9  19  31  52  81 109 140 174 221 280 334
#     4   9  17  28  51  83 117 139 169 215 282 340
#     4   9  19  34  53  82 115 144 179 224 275 334
#
# _framework density 16.941590999999999
#
# number of rings (size 3 to 8) (size 9 to 14) (size 15 to 20)
#    0.000    2.143    2.857    0.857    4.000    2.857 
#    0.000    0.000    0.000    0.857    3.714    2.000 
#    0.000    0.000    0.000    0.000    0.000    0.000 
#
# Total GULP energy -624121.432784 kJ/mol
# GULP energy per Si atom -5572.512793 kJ/mol
# Density = 1.690303 g / cm^3
# Si number density = 16.941591 Si / 1000 Ang^3
#
#
#
# Elastic Constant Matrix: (Units=GPa)
#
#
# Indices 1 2 3 4 5 6 
#
# 1 52.9158 19.9060 25.7865 0.0000 0.0000 0.0000
# 2 19.9060 52.9158 25.7865 0.0000 0.0000 0.0000
# 3 25.7865 25.7865 74.6080 0.0000 0.0000 0.0000
# 4 0.0000 0.0000 0.0000 19.4957 0.0000 0.0000
# 5 0.0000 0.0000 0.0000 0.0000 19.4957 0.0000
# 6 0.0000 0.0000 0.0000 0.0000 0.0000 25.8724
#
#
#
# Elastic Compliance Matrix: (Units=1/GPa)
#
#
# Indices 1 2 3 4 5 6 
#
# 1 0.024238 -0.006056 -0.006284 0.000000 0.000000 0.000000
# 2 -0.006056 0.024238 -0.006284 0.000000 0.000000 0.000000
# 3 -0.006284 -0.006284 0.017748 0.000000 0.000000 0.000000
# 4 0.000000 0.000000 0.000000 0.051293 0.000000 0.000000
# 5 0.000000 0.000000 0.000000 0.000000 0.051293 0.000000
# 6 0.000000 0.000000 0.000000 0.000000 0.000000 0.038651
#
#
# Mechanical properties :
#
#
# Convention : Reuss Voigt Hill
#
# Bulk Modulus (GPa) = 34.51208 35.93307 35.22257
# Shear Modulus (GPa) = 19.65640 20.23679 19.94660
#
# Velocity S-wave (km/s) = 3.40993 3.45991 3.43501
# Velocity P-wave (km/s) = 5.99324 6.10060 6.04716
#
# Compressibility (1/GPa) = 0.02897536
#
# Stress axis : x y z
#
# Youngs Moduli (GPa) = 41.25679 41.25679 56.34580
#
# Poissons Ratio (x) = 0.24983 0.35410
# Poissons Ratio (y) = 0.24983 0.35410
# Poissons Ratio (z) = 0.25928 0.25928
#
# Static dielectric constant tensor:
#      x y z
#    x 1.578900 0.000000 0.000000 
#    y 0.000000 1.578900 0.000000 
#    z 0.000000 0.000000 1.587030 
# 
# From -- ./inp_files/6876.got.cif
#   From: 2010.05.17/outbox.cif.g08.bks.cpg/sg135_4_cif.got.tgz:6876.got - 2010.05.20 12:50:20.
