data_PCOD9568704
_publ_section_title
;
Structure prediction by ZEFSAII (Michael W. Deem and Ramdas Pophale) SiO2 
 PCOD9568704
Probable space group: P 42/M B C
;
_chemical_formula_sum "Si O2"
_cell_formula_units_Z 80
_cell_length_a 17.927980
_cell_length_b 17.927980
_cell_length_c 12.999639
_cell_angle_alpha 90.000000
_cell_angle_beta 90.000000
_cell_angle_gamma 90.000000
_cell_volume 4178.246040
_symmetry_space_group_name_H-M "P 42/M B C"
_symmetry_group_IT_number 135
_symmetry_cell_setting 'tetragonal'
loop_
_space_group_symop_operation_xyz
x,y,z
-y,x,1/2+z
-x,-y,z
y,-x,1/2+z
1/2+x,1/2-y,-z
1/2-x,1/2+y,-z
1/2+y,1/2+x,1/2-z
1/2-y,1/2-x,1/2-z
-x,-y,-z
y,-x,1/2-z
x,y,-z
-y,x,1/2-z
1/2-x,1/2+y,z
1/2+x,1/2-y,z
1/2-y,1/2-x,1/2+z
1/2+y,1/2+x,1/2+z
loop_
_atom_site_type_symbol
_atom_site_label
_atom_site_fract_x
_atom_site_fract_y
_atom_site_fract_z
Si Si1 0.669332 0.919674 0.880012
Si Si2 0.240898 0.428271 0.616796
Si Si3 0.261963 0.095193 0.331973
Si Si4 0.839467 0.776445 0.701832
Si Si5 0.634522 0.083578 0.119450
O O1 0.732323 0.911758 0.792555
O O2 0.621828 0.843935 0.868605
O O3 0.627081 0.996922 0.849712
O O4 0.692427 0.926635 0.000000
O O5 0.246687 0.399484 0.500000
O O6 0.253453 0.515531 0.620596
O O7 0.294655 0.388259 0.697656
O O8 0.155708 0.412194 0.658394
O O9 0.198717 0.155551 0.355608
O O10 0.771125 0.728876 0.750000
O O11 0.889372 0.720104 0.634426
O O12 0.614332 0.082083 0.000000
#
# Coordination Sequence:
#
# PCOD9568704 Si02
#       5
#    16  16  16  16  16
#     4  10  20  34  53  82 114 145 182 223 275 336
#     4  10  21  36  56  83 112 147 188 230 278 336
#     4  11  21  35  55  82 112 146 186 232 278 326
#     4  10  19  35  53  78 109 144 186 227 275 323
#     4   9  19  35  55  78 111 149 181 218 275 338
#
# _framework density 19.146789999999999
#
# number of rings (size 3 to 8) (size 9 to 14) (size 15 to 20)
#    0.000    2.000    4.000    0.600    0.000    3.200 
#    0.000    5.000    0.000    0.600    0.000    1.400 
#    0.000    0.000    0.000    0.000    0.000    0.000 
#
# Total GULP energy -445522.524163 kJ/mol
# GULP energy per Si atom -5569.031552 kJ/mol
# Density = 1.910321 g / cm^3
# Si number density = 19.146790 Si / 1000 Ang^3
#
#
#
# Elastic Constant Matrix: (Units=GPa)
#
#
# Indices 1 2 3 4 5 6 
#
# 1 65.1564 50.1838 -2.4308 0.0000 0.0000 0.0000
# 2 50.1838 65.1552 -2.4319 0.0000 0.0000 0.0000
# 3 -2.4308 -2.4319 57.8087 0.0000 0.0000 0.0000
# 4 0.0000 0.0000 0.0000 12.5784 0.0000 0.0000
# 5 0.0000 0.0000 0.0000 0.0000 12.5782 0.0000
# 6 0.0000 0.0000 0.0000 0.0000 0.0000 12.5910
#
#
#
# Elastic Compliance Matrix: (Units=1/GPa)
#
#
# Indices 1 2 3 4 5 6 
#
# 1 0.037738 -0.029053 0.000365 0.000000 0.000000 0.000000
# 2 -0.029053 0.037739 0.000366 0.000000 0.000000 0.000000
# 3 0.000365 0.000366 0.017329 0.000000 0.000000 0.000000
# 4 0.000000 0.000000 0.000000 0.079501 0.000000 0.000000
# 5 0.000000 0.000000 0.000000 0.000000 0.079502 0.000000
# 6 0.000000 0.000000 0.000000 0.000000 0.000000 0.079422
#
#
# Mechanical properties :
#
#
# Convention : Reuss Voigt Hill
#
# Bulk Modulus (GPa) = 27.65391 30.97362 29.31376
# Shear Modulus (GPa) = 12.50221 17.06948 14.78584
#
# Velocity S-wave (km/s) = 2.55809 2.98905 2.78193
# Velocity P-wave (km/s) = 4.81659 5.30326 5.06578
#
# Compressibility (1/GPa) = 0.03616125
#
# Stress axis : x y z
#
# Youngs Moduli (GPa) = 26.49856 26.49805 57.70619
#
# Poissons Ratio (x) = 0.76984 -0.02104
# Poissons Ratio (y) = 0.76986 -0.02112
# Poissons Ratio (z) = -0.00966 -0.00970
#
# Static dielectric constant tensor:
#      x y z
#    x 1.680820 0.000000 0.000000 
#    y 0.000000 1.680820 0.000000 
#    z 0.000000 0.000000 1.767300 
# 
# From -- ./inp_files/3404.got.cif
#   From: 2010.05.17/outbox.cif.g08.bks.cpg/sg135_2_cif.got.tgz:3404.got - 2010.05.20 12:50:20.
