data_PCOD9568593
_publ_section_title
;
Structure prediction by ZEFSAII (Michael W. Deem and Ramdas Pophale) SiO2 
 PCOD9568593
Probable space group: P 42/M B C
;
_chemical_formula_sum "Si O2"
_cell_formula_units_Z 96
_cell_length_a 23.604788
_cell_length_b 23.604788
_cell_length_c 8.420908
_cell_angle_alpha 90.000000
_cell_angle_beta 90.000000
_cell_angle_gamma 90.000000
_cell_volume 4692.012184
_symmetry_space_group_name_H-M "P 42/M B C"
_symmetry_group_IT_number 135
_symmetry_cell_setting 'tetragonal'
loop_
_space_group_symop_operation_xyz
x,y,z
-y,x,1/2+z
-x,-y,z
y,-x,1/2+z
1/2+x,1/2-y,-z
1/2-x,1/2+y,-z
1/2+y,1/2+x,1/2-z
1/2-y,1/2-x,1/2-z
-x,-y,-z
y,-x,1/2-z
x,y,-z
-y,x,1/2-z
1/2-x,1/2+y,z
1/2+x,1/2-y,z
1/2-y,1/2-x,1/2+z
1/2+y,1/2+x,1/2+z
loop_
_atom_site_type_symbol
_atom_site_label
_atom_site_fract_x
_atom_site_fract_y
_atom_site_fract_z
Si Si1 0.837321 0.996132 0.807297
Si Si2 0.695686 0.283278 0.316714
Si Si3 0.135453 0.712535 0.319557
Si Si4 0.001281 0.589257 0.308231
Si Si5 0.111247 0.124639 0.189941
Si Si6 0.501097 0.785105 0.318044
O O1 0.856121 0.932968 0.756327
O O2 0.775003 0.014203 0.743517
O O3 0.877231 0.047336 0.754701
O O4 0.834016 0.994733 0.000000
O O5 0.725700 0.225700 0.250000
O O6 0.683296 0.273594 0.500000
O O7 0.743972 0.331088 0.290179
O O8 0.642527 0.316911 0.241387
O O9 0.151910 0.651910 0.250000
O O10 0.156363 0.720626 0.500000
O O11 0.069125 0.719667 0.324091
O O12 0.951094 0.548907 0.250000
O O13 0.003597 0.591143 0.500000
O O14 0.058508 0.558508 0.250000
O O15 0.990545 0.653046 0.247256
O O16 0.111185 0.123615 0.000000
O O17 0.478884 0.786227 0.500000
#
# Coordination Sequence:
#
# PCOD9568593 Si02
#       6
#    16  16  16  16  16  16
#     4  10  22  42  64  85 118 157 195 249 312 368
#     4  11  21  35  58  88 122 158 193 237 295 354
#     4  10  17  29  49  79 113 145 183 229 283 339
#     4  10  19  33  53  79 114 155 197 239 286 341
#     4  11  23  42  65  91 123 157 202 251 300 366
#     4   9  18  34  55  78 110 153 192 234 291 347
#
# _framework density 20.460305999999999
#
# number of rings (size 3 to 8) (size 9 to 14) (size 15 to 20)
#    0.000    1.833    1.667    5.000    0.000    1.667 
#    0.000    6.667    0.000    2.000    0.000    0.000 
#    0.000    0.000    0.000    0.000    0.000    0.000 
#
# Total GULP energy -534912.083129 kJ/mol
# GULP energy per Si atom -5572.000866 kJ/mol
# Density = 2.041374 g / cm^3
# Si number density = 20.460306 Si / 1000 Ang^3
#
#
#
# Elastic Constant Matrix: (Units=GPa)
#
#
# Indices 1 2 3 4 5 6 
#
# 1 91.2422 48.9078 14.7693 0.0000 0.0000 0.0000
# 2 48.9078 91.2433 14.7700 0.0000 0.0000 0.0000
# 3 14.7693 14.7700 41.8360 0.0000 0.0000 0.0000
# 4 0.0000 0.0000 0.0000 20.2458 0.0000 0.0000
# 5 0.0000 0.0000 0.0000 0.0000 20.2459 0.0000
# 6 0.0000 0.0000 0.0000 0.0000 0.0000 28.6649
#
#
#
# Elastic Compliance Matrix: (Units=1/GPa)
#
#
# Indices 1 2 3 4 5 6 
#
# 1 0.015665 -0.007956 -0.002721 0.000000 0.000000 0.000000
# 2 -0.007956 0.015665 -0.002722 0.000000 0.000000 0.000000
# 3 -0.002721 -0.002722 0.025824 0.000000 0.000000 0.000000
# 4 0.000000 0.000000 0.000000 0.049393 0.000000 0.000000
# 5 0.000000 0.000000 0.000000 0.000000 0.049393 0.000000
# 6 0.000000 0.000000 0.000000 0.000000 0.000000 0.034886
#
#
# Mechanical properties :
#
#
# Convention : Reuss Voigt Hill
#
# Bulk Modulus (GPa) = 32.94235 42.35729 37.64982
# Shear Modulus (GPa) = 21.95458 23.55627 22.75543
#
# Velocity S-wave (km/s) = 3.27927 3.39679 3.33855
# Velocity P-wave (km/s) = 5.52030 6.01093 5.77083
#
# Compressibility (1/GPa) = 0.03035606
#
# Stress axis : x y z
#
# Youngs Moduli (GPa) = 63.83643 63.83691 38.72301
#
# Poissons Ratio (x) = 0.50790 0.10538
# Poissons Ratio (y) = 0.50789 0.10539
# Poissons Ratio (z) = 0.17372 0.17374
#
# Static dielectric constant tensor:
#      x y z
#    x 1.773490 0.000000 0.000000 
#    y 0.000000 1.773490 0.000000 
#    z 0.000000 0.000000 1.724730 
# 
# From -- ./inp_files/1283.got.cif
#   From: 2010.05.17/outbox.cif.g08.bks.cpg/sg135_1_cif.got.tgz:1283.got - 2010.05.20 12:50:20.
