data_PCOD9568620
_publ_section_title
;
Structure prediction by ZEFSAII (Michael W. Deem and Ramdas Pophale) SiO2 
 PCOD9568620
Probable space group: P 42/M B C
;
_chemical_formula_sum "Si O2"
_cell_formula_units_Z 80
_cell_length_a 13.519462
_cell_length_b 13.519462
_cell_length_c 26.820094
_cell_angle_alpha 90.000000
_cell_angle_beta 90.000000
_cell_angle_gamma 90.000000
_cell_volume 4902.065552
_symmetry_space_group_name_H-M "P 42/M B C"
_symmetry_group_IT_number 135
_symmetry_cell_setting 'tetragonal'
loop_
_space_group_symop_operation_xyz
x,y,z
-y,x,1/2+z
-x,-y,z
y,-x,1/2+z
1/2+x,1/2-y,-z
1/2-x,1/2+y,-z
1/2+y,1/2+x,1/2-z
1/2-y,1/2-x,1/2-z
-x,-y,-z
y,-x,1/2-z
x,y,-z
-y,x,1/2-z
1/2-x,1/2+y,z
1/2+x,1/2-y,z
1/2-y,1/2-x,1/2+z
1/2+y,1/2+x,1/2+z
loop_
_atom_site_type_symbol
_atom_site_label
_atom_site_fract_x
_atom_site_fract_y
_atom_site_fract_z
Si Si1 0.965198 0.886669 0.557118
Si Si2 0.428454 0.761570 0.814017
Si Si3 0.219703 0.111748 0.132539
Si Si4 0.129788 0.785124 0.132034
Si Si5 0.924805 0.732967 0.303944
O O1 0.955689 0.852920 0.500000
O O2 0.861201 0.882886 0.586405
O O3 0.048384 0.825547 0.587236
O O4 0.000000 0.000000 0.557352
O O5 0.363714 0.672330 0.837087
O O6 0.529742 0.758344 0.844612
O O7 0.366236 0.863483 0.817011
O O8 0.440865 0.750085 0.754641
O O9 0.298805 0.194814 0.117781
O O10 0.265754 0.029547 0.168867
O O11 0.181344 0.853506 0.174388
#
# Coordination Sequence:
#
# PCOD9568620 Si02
#       5
#    16  16  16  16  16
#     4  10  20  37  59  80 100 132 178 222 268 316
#     4  10  18  33  50  76 111 143 177 217 256 305
#     4  10  20  35  52  79 107 138 175 217 262 315
#     4  10  20  34  54  77 107 141 175 218 266 310
#     4   9  20  31  50  78 107 145 182 211 255 315
#
# _framework density 16.319649999999999
#
# number of rings (size 3 to 8) (size 9 to 14) (size 15 to 20)
#    0.000    2.200    2.000    1.200    0.000    4.000 
#    0.000    4.000    0.000    0.000    0.000    5.600 
#    0.000    0.000    0.000    0.000    0.000    0.000 
#
# Total GULP energy -445904.718677 kJ/mol
# GULP energy per Si atom -5573.808983 kJ/mol
# Density = 1.628251 g / cm^3
# Si number density = 16.319650 Si / 1000 Ang^3
#
#
#
# Elastic Constant Matrix: (Units=GPa)
#
#
# Indices 1 2 3 4 5 6 
#
# 1 94.0814 53.9203 61.8781 0.0000 0.0000 0.0000
# 2 53.9203 94.0814 61.8781 0.0000 0.0000 0.0000
# 3 61.8781 61.8781 127.4091 0.0000 0.0000 0.0000
# 4 0.0000 0.0000 0.0000 17.3131 0.0000 0.0000
# 5 0.0000 0.0000 0.0000 0.0000 17.3131 0.0000
# 6 0.0000 0.0000 0.0000 0.0000 0.0000 13.0215
#
#
#
# Elastic Compliance Matrix: (Units=1/GPa)
#
#
# Indices 1 2 3 4 5 6 
#
# 1 0.018138 -0.006761 -0.005525 0.000000 0.000000 0.000000
# 2 -0.006761 0.018138 -0.005525 0.000000 0.000000 0.000000
# 3 -0.005525 -0.005525 0.013216 0.000000 0.000000 0.000000
# 4 0.000000 0.000000 0.000000 0.057760 0.000000 0.000000
# 5 0.000000 0.000000 0.000000 0.000000 0.057760 0.000000
# 6 0.000000 0.000000 0.000000 0.000000 0.000000 0.076796
#
#
# Mechanical properties :
#
#
# Convention : Reuss Voigt Hill
#
# Bulk Modulus (GPa) = 72.10832 74.54720 73.32776
# Shear Modulus (GPa) = 17.72705 18.72256 18.22480
#
# Velocity S-wave (km/s) = 3.29939 3.39077 3.34539
# Velocity P-wave (km/s) = 7.66782 7.81718 7.74286
#
# Compressibility (1/GPa) = 0.01386803
#
# Stress axis : x y z
#
# Youngs Moduli (GPa) = 55.13202 55.13202 75.66786
#
# Poissons Ratio (x) = 0.37277 0.41809
# Poissons Ratio (y) = 0.37277 0.41809
# Poissons Ratio (z) = 0.30462 0.30462
#
# Static dielectric constant tensor:
#      x y z
#    x 1.540100 0.000000 0.000000 
#    y 0.000000 1.540100 0.000000 
#    z 0.000000 0.000000 1.528450 
# 
# From -- ./inp_files/6677.got.cif
#   From: 2010.05.17/outbox.cif.g08.bks.cpg/sg135_4_cif.got.tgz:6677.got - 2010.05.20 12:50:20.
