data_PCOD9568373
_publ_section_title
;
Structure prediction by ZEFSAII (Michael W. Deem and Ramdas Pophale) SiO2 
 PCOD9568373
Probable space group: P 42/N N M
;
_chemical_formula_sum "Si O2"
_cell_formula_units_Z 72
_cell_length_a 14.958720
_cell_length_b 14.958720
_cell_length_c 16.373795
_cell_angle_alpha 90.000000
_cell_angle_beta 90.000000
_cell_angle_gamma 90.000000
_cell_volume 3663.854469
_symmetry_space_group_name_H-M "P 42/N N M"
_symmetry_group_IT_number 134
_space_group.IT_coordinate_system_code '2'
_symmetry_cell_setting 'tetragonal'
loop_
_space_group_symop_operation_xyz
x,y,z
1/2-y,x,1/2+z
1/2-x,1/2-y,z
y,1/2-x,1/2+z
x,1/2-y,1/2-z
1/2-x,y,1/2-z
y,x,-z
1/2-y,1/2-x,-z
-x,-y,-z
1/2+y,-x,1/2-z
1/2+x,1/2+y,-z
-y,1/2+x,1/2-z
-x,1/2+y,1/2+z
1/2+x,-y,1/2+z
-y,-x,z
1/2+y,1/2+x,z
loop_
_atom_site_type_symbol
_atom_site_label
_atom_site_fract_x
_atom_site_fract_y
_atom_site_fract_z
Si Si1 0.069999 0.930002 0.441942
Si Si2 0.397311 0.397311 0.000000
Si Si3 0.805200 0.556332 0.029120
Si Si4 0.675735 0.324266 0.045739
Si Si5 0.056492 0.795321 0.666515
Si Si6 0.858252 0.358252 0.763036
Si Si7 0.069082 0.930919 0.095371
O O1 0.097608 0.902393 0.346815
O O2 0.028450 0.837653 0.475018
O O3 0.000000 0.000000 0.500000
O O4 0.418500 0.297414 0.026203
O O5 0.415708 0.465797 0.073395
O O6 0.833022 0.528582 0.120005
O O7 0.859277 0.640724 0.000000
O O8 0.750000 0.250000 0.020104
O O9 0.725918 0.395261 0.104582
O O10 0.627233 0.372768 0.970444
O O11 0.032229 0.750000 0.750000
O O12 0.128010 0.871991 0.682492
O O13 0.872261 0.250000 0.750000
O O14 0.904907 0.404907 0.685812
#
# Coordination Sequence:
#
# PCOD9568373 Si02
#       7
#     8   8  16   8  16   8   8
#     4  10  23  47  72  97 138 198 243 301 367 439
#     4  11  23  42  66  92 131 179 232 298 354 433
#     4  11  23  43  67  92 130 185 238 286 360 429
#     4  10  21  34  66  98 135 172 217 287 375 427
#     4  11  21  37  64 100 137 170 221 293 361 433
#     4  11  25  40  71 111 151 183 240 310 369 447
#     4  11  23  42  64  98 133 186 233 286 368 434
#
# _framework density 19.651434999999999
#
# number of rings (size 3 to 8) (size 9 to 14) (size 15 to 20)
#    0.000    1.222    4.444    1.667    1.556    0.000 
#    8.000    0.000    0.000    1.333    0.000    0.000 
#    0.000    0.000    0.000    0.000    0.000    0.000 
#
# Total GULP energy -401067.801903 kJ/mol
# GULP energy per Si atom -5570.386138 kJ/mol
# Density = 1.960671 g / cm^3
# Si number density = 19.651435 Si / 1000 Ang^3
#
#
#
# Elastic Constant Matrix: (Units=GPa)
#
#
# Indices 1 2 3 4 5 6 
#
# 1 145.3088 -36.4402 58.5755 0.0000 0.0000 0.0000
# 2 -36.4402 145.3118 58.5748 0.0000 0.0000 0.0000
# 3 58.5755 58.5748 168.4846 0.0000 0.0000 0.0000
# 4 0.0000 0.0000 0.0000 22.9371 0.0000 0.0000
# 5 0.0000 0.0000 0.0000 0.0000 22.9387 0.0000
# 6 0.0000 0.0000 0.0000 0.0000 0.0000 24.8846
#
#
#
# Elastic Compliance Matrix: (Units=1/GPa)
#
#
# Indices 1 2 3 4 5 6 
#
# 1 0.010089 0.004587 -0.005102 0.000000 0.000000 0.000000
# 2 0.004587 0.010089 -0.005102 0.000000 0.000000 0.000000
# 3 -0.005102 -0.005102 0.009483 0.000000 0.000000 0.000000
# 4 0.000000 0.000000 0.000000 0.043598 0.000000 0.000000
# 5 0.000000 0.000000 0.000000 0.000000 0.043594 0.000000
# 6 0.000000 0.000000 0.000000 0.000000 0.000000 0.040185
#
#
# Mechanical properties :
#
#
# Convention : Reuss Voigt Hill
#
# Bulk Modulus (GPa) = 54.27302 68.94728 61.61015
# Shear Modulus (GPa) = 28.66742 39.37842 34.02292
#
# Velocity S-wave (km/s) = 3.82356 4.48129 4.16543
# Velocity P-wave (km/s) = 6.86809 7.87002 7.38606
#
# Compressibility (1/GPa) = 0.01842536
#
# Stress axis : x y z
#
# Youngs Moduli (GPa) = 99.11979 99.12256 105.45454
#
# Poissons Ratio (x) = -0.45464 0.53803
# Poissons Ratio (y) = -0.45462 0.53802
# Poissons Ratio (z) = 0.50571 0.50572
#
# Static dielectric constant tensor:
#      x y z
#    x 1.759970 0.000000 0.000000 
#    y 0.000000 1.759970 0.000000 
#    z 0.000000 0.000000 1.672650 
# 
# From -- ./inp_files/7726.got.cif
#   From: 2010.05.17/outbox.cif.g08.bks.cpg/sg134_4_cif.got.tgz:7726.got - 2010.05.20 12:42:49.
