data_PCOD9568560
_publ_section_title
;
Structure prediction by ZEFSAII (Michael W. Deem and Ramdas Pophale) SiO2 
 PCOD9568560
Probable space group: P 42/N N M
;
_chemical_formula_sum "Si O2"
_cell_formula_units_Z 40
_cell_length_a 12.128058
_cell_length_b 12.128058
_cell_length_c 12.367262
_cell_angle_alpha 90.000000
_cell_angle_beta 90.000000
_cell_angle_gamma 90.000000
_cell_volume 1819.097981
_symmetry_space_group_name_H-M "P 42/N N M"
_symmetry_group_IT_number 134
_space_group.IT_coordinate_system_code '2'
_symmetry_cell_setting 'tetragonal'
loop_
_space_group_symop_operation_xyz
x,y,z
1/2-y,x,1/2+z
1/2-x,1/2-y,z
y,1/2-x,1/2+z
x,1/2-y,1/2-z
1/2-x,y,1/2-z
y,x,-z
1/2-y,1/2-x,-z
-x,-y,-z
1/2+y,-x,1/2-z
1/2+x,1/2+y,-z
-y,1/2+x,1/2-z
-x,1/2+y,1/2+z
1/2+x,-y,1/2+z
-y,-x,z
1/2+y,1/2+x,z
loop_
_atom_site_type_symbol
_atom_site_label
_atom_site_fract_x
_atom_site_fract_y
_atom_site_fract_z
Si Si1 0.819646 0.495123 0.478990
Si Si2 0.441924 0.250000 0.250000
Si Si3 0.025288 0.343131 0.833170
O O1 0.902059 0.597942 0.500000
O O2 0.794360 0.490649 0.352159
O O3 0.710997 0.514895 0.549110
O O4 0.886368 0.386368 0.513524
O O5 0.370764 0.350473 0.297956
O O6 0.983782 0.250000 0.750000
O O7 0.951911 0.451911 0.824940
#
# Coordination Sequence:
#
# PCOD9568560 Si02
#       3
#    16   8  16
#     4  11  25  45  70 105 149 191 239 303 366 432
#     4  12  25  44  76 105 142 191 246 298 359 444
#     4  12  26  45  73 108 144 189 243 299 363 433
#
# _framework density 21.98892
#
# number of rings (size 3 to 8) (size 9 to 14) (size 15 to 20)
#    0.000    0.400    4.000    4.200    0.000    9.200 
#    0.000    0.000    0.000    5.400    0.000    0.000 
#    0.000    0.000    0.000    0.000    0.000    0.000 
#
# Total GULP energy -223987.331758 kJ/mol
# GULP energy per Si atom -5599.683294 kJ/mol
# Density = 2.193887 g / cm^3
# Si number density = 21.988920 Si / 1000 Ang^3
#
#
#
# Elastic Constant Matrix: (Units=GPa)
#
#
# Indices 1 2 3 4 5 6 
#
# 1 100.0529 91.0889 33.2198 0.0000 0.0000 0.0000
# 2 91.0889 100.0524 33.2214 0.0000 0.0000 0.0000
# 3 33.2198 33.2214 135.4327 0.0000 0.0000 0.0000
# 4 0.0000 0.0000 0.0000 -24.3801 0.0000 0.0000
# 5 0.0000 0.0000 0.0000 0.0000 -24.4362 0.0000
# 6 0.0000 0.0000 0.0000 0.0000 0.0000 -7.9174
#
#
#
# Elastic Compliance Matrix: (Units=1/GPa)
#
#
# Indices 1 2 3 4 5 6 
#
# 1 0.058639 -0.052920 -0.001402 0.000000 0.000000 0.000000
# 2 -0.052920 0.058640 -0.001404 0.000000 0.000000 0.000000
# 3 -0.001402 -0.001404 0.008072 0.000000 0.000000 0.000000
# 4 0.000000 0.000000 0.000000 -0.041017 0.000000 0.000000
# 5 0.000000 0.000000 0.000000 0.000000 -0.040923 0.000000
# 6 0.000000 0.000000 0.000000 0.000000 0.000000 -0.126305
#
#
# Mechanical properties :
#
#
# Convention : Reuss Voigt Hill
#
# Bulk Modulus (GPa) = 71.94723 72.28869 72.11796
# Shear Modulus (GPa) = 150.64018 0.52046 75.58032
#
# Velocity S-wave (km/s) = 8.28589 0.48704 5.86912
# Velocity P-wave (km/s) = 11.15043 5.76738 8.87679
#
# Compressibility (1/GPa) = 0.01389907
#
# Stress axis : x y z
#
# Youngs Moduli (GPa) = 17.05345 17.05321 123.88516
#
# Poissons Ratio (x) = 0.90246 0.17371
# Poissons Ratio (y) = 0.90247 0.17390
# Poissons Ratio (z) = 0.02391 0.02394
#
# Static dielectric constant tensor:
#      x y z
#    x 1.775090 0.000000 0.000000 
#    y 0.000000 1.775090 0.000000 
#    z 0.000000 0.000000 1.825130 
# 
# From -- ./inp_files/5686.got.cif
#   From: 2010.05.17/outbox.cif.g08.bks.cpg/sg134_3_cif.got.tgz:5686.got - 2010.05.20 12:42:49.
