data_PCOD9568255
_publ_section_title
;
Structure prediction by ZEFSAII (Michael W. Deem and Ramdas Pophale) SiO2 
 PCOD9568255
Probable space group: P 42/N N M
;
_chemical_formula_sum "Si O2"
_cell_formula_units_Z 64
_cell_length_a 19.467745
_cell_length_b 19.467745
_cell_length_c 9.314735
_cell_angle_alpha 90.000000
_cell_angle_beta 90.000000
_cell_angle_gamma 90.000000
_cell_volume 3530.220250
_symmetry_space_group_name_H-M "P 42/N N M"
_symmetry_group_IT_number 134
_space_group.IT_coordinate_system_code '2'
_symmetry_cell_setting 'tetragonal'
loop_
_space_group_symop_operation_xyz
x,y,z
1/2-y,x,1/2+z
1/2-x,1/2-y,z
y,1/2-x,1/2+z
x,1/2-y,1/2-z
1/2-x,y,1/2-z
y,x,-z
1/2-y,1/2-x,-z
-x,-y,-z
1/2+y,-x,1/2-z
1/2+x,1/2+y,-z
-y,1/2+x,1/2-z
-x,1/2+y,1/2+z
1/2+x,-y,1/2+z
-y,-x,z
1/2+y,1/2+x,z
loop_
_atom_site_type_symbol
_atom_site_label
_atom_site_fract_x
_atom_site_fract_y
_atom_site_fract_z
Si Si1 0.248585 0.347801 0.418229
Si Si2 0.391972 0.007270 0.927801
Si Si3 0.940041 0.323731 0.321603
Si Si4 0.244265 0.988536 0.414343
O O1 0.250000 0.329152 0.250000
O O2 0.311782 0.311782 0.500000
O O3 0.183009 0.316992 0.500000
O O4 0.249751 0.429192 0.426709
O O5 0.332310 0.975338 0.026805
O O6 0.455075 0.955075 0.917622
O O7 0.423972 0.076029 0.000000
O O8 0.356319 0.004146 0.769663
O O9 0.923145 0.250000 0.250000
O O10 0.877582 0.377582 0.312955
O O11 0.957866 0.197098 0.016306
O O12 0.250000 0.967274 0.250000
#
# Coordination Sequence:
#
# PCOD9568255 Si02
#       4
#    16  16  16  16
#     4  10  20  32  48  71 100 135 174 212 249 293
#     4   9  18  34  55  76  99 131 170 209 252 305
#     4   9  19  35  55  77 101 133 171 211 257 310
#     4  10  21  33  50  76 104 135 168 210 257 304
#
# _framework density 18.129180000000002
#
# number of rings (size 3 to 8) (size 9 to 14) (size 15 to 20)
#    0.000    2.500    0.000    2.250    0.000   11.250 
#    0.000    0.000    0.000    5.250    0.000    3.500 
#    0.000    0.000    0.000    0.000    0.000    0.000 
#
# Total GULP energy -356353.155916 kJ/mol
# GULP energy per Si atom -5568.018061 kJ/mol
# Density = 1.808792 g / cm^3
# Si number density = 18.129180 Si / 1000 Ang^3
#
#
#
# Elastic Constant Matrix: (Units=GPa)
#
#
# Indices 1 2 3 4 5 6 
#
# 1 19.7712 53.2366 32.2373 0.0000 0.0000 0.0000
# 2 53.2366 19.7610 32.2377 0.0000 0.0000 0.0000
# 3 32.2373 32.2377 153.4748 0.0000 0.0000 0.0000
# 4 0.0000 0.0000 0.0000 15.2609 0.0000 0.0000
# 5 0.0000 0.0000 0.0000 0.0000 15.2626 0.0000
# 6 0.0000 0.0000 0.0000 0.0000 0.0000 18.1211
#
#
#
# Elastic Compliance Matrix: (Units=1/GPa)
#
#
# Indices 1 2 3 4 5 6 
#
# 1 -0.006527 0.023348 -0.003533 0.000000 0.000000 0.000000
# 2 0.023348 -0.006532 -0.003532 0.000000 0.000000 0.000000
# 3 -0.003533 -0.003532 0.008000 0.000000 0.000000 0.000000
# 4 0.000000 0.000000 0.000000 0.065527 0.000000 0.000000
# 5 0.000000 0.000000 0.000000 0.000000 0.065519 0.000000
# 6 0.000000 0.000000 0.000000 0.000000 0.000000 0.055184
#
#
# Mechanical properties :
#
#
# Convention : Reuss Voigt Hill
#
# Bulk Modulus (GPa) = 36.35649 47.60337 41.97993
# Shear Modulus (GPa) = 31.69059 14.74862 23.21961
#
# Velocity S-wave (km/s) = 4.18550 2.85534 3.58269
# Velocity P-wave (km/s) = 6.59208 6.09799 6.34984
#
# Compressibility (1/GPa) = 0.02750541
#
# Stress axis : x y z
#
# Youngs Moduli (GPa) = -153.21349 -153.09005 125.00306
#
# Poissons Ratio (x) = 3.57428 0.44167
# Poissons Ratio (y) = 3.57717 0.44152
# Poissons Ratio (z) = -0.54134 -0.54072
#
# Static dielectric constant tensor:
#      x y z
#    x 1.625260 0.000000 0.000000 
#    y 0.000000 1.625260 0.000000 
#    z 0.000000 0.000000 1.645020 
# 
# From -- ./inp_files/2725.got.cif
#   From: 2010.05.17/outbox.cif.g08.bks.cpg/sg134_2_cif.got.tgz:2725.got - 2010.05.20 12:42:49.
