data_PCOD9568672
_publ_section_title
;
Structure prediction by ZEFSAII (Michael W. Deem and Ramdas Pophale) SiO2 
 PCOD9568672
Probable space group: P 42/M B C
;
_chemical_formula_sum "Si O2"
_cell_formula_units_Z 80
_cell_length_a 16.596781
_cell_length_b 16.596781
_cell_length_c 15.241250
_cell_angle_alpha 90.000000
_cell_angle_beta 90.000000
_cell_angle_gamma 90.000000
_cell_volume 4198.250163
_symmetry_space_group_name_H-M "P 42/M B C"
_symmetry_group_IT_number 135
_symmetry_cell_setting 'tetragonal'
loop_
_space_group_symop_operation_xyz
x,y,z
-y,x,1/2+z
-x,-y,z
y,-x,1/2+z
1/2+x,1/2-y,-z
1/2-x,1/2+y,-z
1/2+y,1/2+x,1/2-z
1/2-y,1/2-x,1/2-z
-x,-y,-z
y,-x,1/2-z
x,y,-z
-y,x,1/2-z
1/2-x,1/2+y,z
1/2+x,1/2-y,z
1/2-y,1/2-x,1/2+z
1/2+y,1/2+x,1/2+z
loop_
_atom_site_type_symbol
_atom_site_label
_atom_site_fract_x
_atom_site_fract_y
_atom_site_fract_z
Si Si1 0.952248 0.578838 0.352990
Si Si2 0.111421 0.762413 0.097117
Si Si3 0.202104 0.591226 0.102456
Si Si4 0.312823 0.677723 0.231425
Si Si5 0.768295 0.578332 0.596341
O O1 0.935964 0.564037 0.250000
O O2 0.864454 0.589578 0.394478
O O3 0.000000 0.500000 0.387244
O O4 0.012733 0.652597 0.368562
O O5 0.146892 0.672056 0.111414
O O6 0.140091 0.823086 0.172501
O O7 0.016005 0.751113 0.098431
O O8 0.137896 0.788333 0.000000
O O9 0.274748 0.609858 0.168206
O O10 0.224174 0.584432 0.000000
O O11 0.246966 0.746966 0.250000
O O12 0.381548 0.721610 0.176700
O O13 0.743678 0.611240 0.500000
#
# Coordination Sequence:
#
# PCOD9568672 Si02
#       5
#    16  16  16  16  16
#     4  11  21  31  53  84 121 157 192 234 287 345
#     4   9  19  35  57  79 107 146 189 233 286 344
#     4  10  19  33  52  78 114 157 192 228 286 350
#     4  10  21  35  53  78 113 151 191 235 287 344
#     4  11  21  35  56  85 115 148 191 238 287 347
#
# _framework density 19.055558999999999
#
# number of rings (size 3 to 8) (size 9 to 14) (size 15 to 20)
#    0.000    1.800    2.000    3.000    5.600    1.600 
#    0.000    0.000    0.000    3.000    0.000    2.800 
#    0.000    0.000    0.000    0.000    0.000    0.000 
#
# Total GULP energy -446461.685517 kJ/mol
# GULP energy per Si atom -5580.771069 kJ/mol
# Density = 1.901219 g / cm^3
# Si number density = 19.055559 Si / 1000 Ang^3
#
#
#
# Elastic Constant Matrix: (Units=GPa)
#
#
# Indices 1 2 3 4 5 6 
#
# 1 42.1256 30.0906 46.7791 0.0000 0.0000 0.0000
# 2 30.0906 42.1256 46.7792 0.0000 0.0000 0.0000
# 3 46.7791 46.7792 163.8566 0.0000 0.0000 0.0000
# 4 0.0000 0.0000 0.0000 12.3353 0.0000 0.0000
# 5 0.0000 0.0000 0.0000 0.0000 12.3344 0.0000
# 6 0.0000 0.0000 0.0000 0.0000 0.0000 26.7592
#
#
#
# Elastic Compliance Matrix: (Units=1/GPa)
#
#
# Indices 1 2 3 4 5 6 
#
# 1 0.052533 -0.030558 -0.006274 0.000000 0.000000 0.000000
# 2 -0.030558 0.052533 -0.006274 0.000000 0.000000 0.000000
# 3 -0.006274 -0.006274 0.009685 0.000000 0.000000 0.000000
# 4 0.000000 0.000000 0.000000 0.081068 0.000000 0.000000
# 5 0.000000 0.000000 0.000000 0.000000 0.081074 0.000000
# 6 0.000000 0.000000 0.000000 0.000000 0.000000 0.037370
#
#
# Mechanical properties :
#
#
# Convention : Reuss Voigt Hill
#
# Bulk Modulus (GPa) = 35.03794 55.04507 45.04151
# Shear Modulus (GPa) = 12.19551 18.58303 15.38927
#
# Velocity S-wave (km/s) = 2.53256 3.12621 2.84491
# Velocity P-wave (km/s) = 5.19413 6.47922 5.87194
#
# Compressibility (1/GPa) = 0.02854049
#
# Stress axis : x y z
#
# Youngs Moduli (GPa) = 19.03575 19.03569 103.25274
#
# Poissons Ratio (x) = 0.58169 0.64776
# Poissons Ratio (y) = 0.58169 0.64777
# Poissons Ratio (z) = 0.11942 0.11942
#
# Static dielectric constant tensor:
#      x y z
#    x 1.648580 0.000000 0.000000 
#    y 0.000000 1.648580 0.000000 
#    z 0.000000 0.000000 1.663360 
# 
# From -- ./inp_files/3374.got.cif
#   From: 2010.05.17/outbox.cif.g08.bks.cpg/sg135_2_cif.got.tgz:3374.got - 2010.05.20 12:50:20.
