data_PCOD9568852
_publ_section_title
;
Structure prediction by ZEFSAII (Michael W. Deem and Ramdas Pophale) SiO2 
 PCOD9568852
Probable space group: P 42/M B C
;
_chemical_formula_sum "Si O2"
_cell_formula_units_Z 60
_cell_length_a 13.975892
_cell_length_b 13.975892
_cell_length_c 14.591642
_cell_angle_alpha 90.000000
_cell_angle_beta 90.000000
_cell_angle_gamma 90.000000
_cell_volume 2850.120604
_symmetry_space_group_name_H-M "P 42/M B C"
_symmetry_group_IT_number 135
_symmetry_cell_setting 'tetragonal'
loop_
_space_group_symop_operation_xyz
x,y,z
-y,x,1/2+z
-x,-y,z
y,-x,1/2+z
1/2+x,1/2-y,-z
1/2-x,1/2+y,-z
1/2+y,1/2+x,1/2-z
1/2-y,1/2-x,1/2-z
-x,-y,-z
y,-x,1/2-z
x,y,-z
-y,x,1/2-z
1/2-x,1/2+y,z
1/2+x,1/2-y,z
1/2-y,1/2-x,1/2+z
1/2+y,1/2+x,1/2+z
loop_
_atom_site_type_symbol
_atom_site_label
_atom_site_fract_x
_atom_site_fract_y
_atom_site_fract_z
Si Si1 0.000000 0.500000 0.250000
Si Si2 0.773223 0.273223 0.750000
Si Si3 0.608707 0.484858 0.895278
Si Si4 0.754670 0.128895 0.603138
Si Si5 0.784247 0.494555 0.231068
O O1 0.895859 0.499321 0.198469
O O2 0.732191 0.224951 0.658976
O O3 0.758856 0.385490 0.748410
O O4 0.500000 0.500000 0.860235
O O5 0.621489 0.370005 0.900552
O O6 0.696866 0.525259 0.835355
O O7 0.612573 0.522703 0.000000
O O8 0.717428 0.124498 0.500000
O O9 0.718632 0.048700 0.672569
#
# Coordination Sequence:
#
# PCOD9568852 Si02
#       5
#     4   8  16  16  16
#     4  10  22  44  58  88 126 168 236 248 302 390
#     4   9  21  39  58  85 121 169 200 256 318 373
#     4   9  20  37  61  97 131 159 204 265 332 397
#     4  10  21  37  59  90 121 157 211 264 317 384
#     4  10  21  38  64  85 123 171 207 261 312 376
#
# _framework density 21.051741
#
# number of rings (size 3 to 8) (size 9 to 14) (size 15 to 20)
#    0.000    2.400    0.000    0.800    7.467    1.067 
#    0.000   10.667    0.000    0.000    0.000    0.000 
#    0.000    0.000    0.000    0.000    0.000    0.000 
#
# Total GULP energy -334352.684376 kJ/mol
# GULP energy per Si atom -5572.544740 kJ/mol
# Density = 2.100383 g / cm^3
# Si number density = 21.051741 Si / 1000 Ang^3
#
#
#
# Elastic Constant Matrix: (Units=GPa)
#
#
# Indices 1 2 3 4 5 6 
#
# 1 161.0874 -8.2742 61.9170 0.0000 0.0000 0.0000
# 2 -8.2742 161.0874 61.9170 0.0000 0.0000 0.0000
# 3 61.9170 61.9170 152.7116 0.0000 0.0000 0.0000
# 4 0.0000 0.0000 0.0000 22.4128 0.0000 0.0000
# 5 0.0000 0.0000 0.0000 0.0000 22.4128 0.0000
# 6 0.0000 0.0000 0.0000 0.0000 0.0000 25.4797
#
#
#
# Elastic Compliance Matrix: (Units=1/GPa)
#
#
# Indices 1 2 3 4 5 6 
#
# 1 0.007825 0.001921 -0.003952 0.000000 0.000000 0.000000
# 2 0.001921 0.007825 -0.003952 0.000000 0.000000 0.000000
# 3 -0.003952 -0.003952 0.009753 0.000000 0.000000 0.000000
# 4 0.000000 0.000000 0.000000 0.044617 0.000000 0.000000
# 5 0.000000 0.000000 0.000000 0.000000 0.044617 0.000000
# 6 0.000000 0.000000 0.000000 0.000000 0.000000 0.039247
#
#
# Mechanical properties :
#
#
# Convention : Reuss Voigt Hill
#
# Bulk Modulus (GPa) = 74.41251 78.44512 76.42881
# Shear Modulus (GPa) = 29.35495 38.01618 33.68556
#
# Velocity S-wave (km/s) = 3.73824 4.25413 4.00450
# Velocity P-wave (km/s) = 7.35233 7.84054 7.60036
#
# Compressibility (1/GPa) = 0.01343860
#
# Stress axis : x y z
#
# Youngs Moduli (GPa) = 127.79005 127.79005 102.53640
#
# Poissons Ratio (x) = -0.24546 0.40518
# Poissons Ratio (y) = -0.24546 0.40518
# Poissons Ratio (z) = 0.50497 0.50497
#
# Static dielectric constant tensor:
#      x y z
#    x 1.765910 0.000000 0.000000 
#    y 0.000000 1.765910 0.000000 
#    z 0.000000 0.000000 1.734990 
# 
# From -- ./inp_files/3215.got.cif
#   From: 2010.05.17/outbox.cif.g08.bks.cpg/sg135_2_cif.got.tgz:3215.got - 2010.05.20 12:50:20.
