data_PCOD9568381
_publ_section_title
;
Structure prediction by ZEFSAII (Michael W. Deem and Ramdas Pophale) SiO2 
 PCOD9568381
Probable space group: P 42/N N M
;
_chemical_formula_sum "Si O2"
_cell_formula_units_Z 80
_cell_length_a 16.912496
_cell_length_b 16.912496
_cell_length_c 14.316626
_cell_angle_alpha 90.000000
_cell_angle_beta 90.000000
_cell_angle_gamma 90.000000
_cell_volume 4095.020626
_symmetry_space_group_name_H-M "P 42/N N M"
_symmetry_group_IT_number 134
_space_group.IT_coordinate_system_code '2'
_symmetry_cell_setting 'tetragonal'
loop_
_space_group_symop_operation_xyz
x,y,z
1/2-y,x,1/2+z
1/2-x,1/2-y,z
y,1/2-x,1/2+z
x,1/2-y,1/2-z
1/2-x,y,1/2-z
y,x,-z
1/2-y,1/2-x,-z
-x,-y,-z
1/2+y,-x,1/2-z
1/2+x,1/2+y,-z
-y,1/2+x,1/2-z
-x,1/2+y,1/2+z
1/2+x,-y,1/2+z
-y,-x,z
1/2+y,1/2+x,z
loop_
_atom_site_type_symbol
_atom_site_label
_atom_site_fract_x
_atom_site_fract_y
_atom_site_fract_z
Si Si1 0.441984 0.242574 0.138405
Si Si2 0.666867 0.037826 0.507642
Si Si3 0.352617 0.091646 0.152552
Si Si4 0.794514 0.423879 0.846816
Si Si5 0.117043 0.171480 0.872356
O O1 0.452544 0.250000 0.250000
O O2 0.418832 0.152040 0.116220
O O3 0.368682 0.299078 0.109188
O O4 0.513366 0.281969 0.082367
O O5 0.590612 0.090612 0.487224
O O6 0.726683 0.083270 0.576300
O O7 0.646033 0.956984 0.563855
O O8 0.352487 0.097492 0.265455
O O9 0.265978 0.122023 0.122035
O O10 0.349927 0.999199 0.128293
O O11 0.750000 0.442851 0.750000
O O12 0.846842 0.346842 0.836119
#
# Coordination Sequence:
#
# PCOD9568381 Si02
#       5
#    16  16  16  16  16
#     4  10  21  36  57  84 122 166 204 238 298 362
#     4  11  23  39  58  87 121 158 214 263 297 351
#     4   9  17  35  56  89 125 150 188 242 308 375
#     4  11  22  39  64  91 118 149 191 254 326 379
#     4   9  17  32  57  87 118 157 193 248 303 358
#
# _framework density 19.535920999999998
#
# number of rings (size 3 to 8) (size 9 to 14) (size 15 to 20)
#    0.000    2.000    4.000    1.800    0.000    8.600 
#    0.000   10.000    0.000    0.000    0.000    0.000 
#    0.000    0.000    0.000    0.000    0.000    0.000 
#
# Total GULP energy -446385.953069 kJ/mol
# GULP energy per Si atom -5579.824413 kJ/mol
# Density = 1.949146 g / cm^3
# Si number density = 19.535921 Si / 1000 Ang^3
#
#
#
# Elastic Constant Matrix: (Units=GPa)
#
#
# Indices 1 2 3 4 5 6 
#
# 1 71.4789 53.3401 42.3631 0.0000 0.0000 0.0000
# 2 53.3401 71.4789 42.3631 0.0000 0.0000 0.0000
# 3 42.3631 42.3631 72.0959 0.0000 0.0000 0.0000
# 4 0.0000 0.0000 0.0000 14.5345 0.0000 0.0000
# 5 0.0000 0.0000 0.0000 0.0000 14.5345 0.0000
# 6 0.0000 0.0000 0.0000 0.0000 0.0000 46.3141
#
#
#
# Elastic Compliance Matrix: (Units=1/GPa)
#
#
# Indices 1 2 3 4 5 6 
#
# 1 0.034229 -0.020902 -0.007831 0.000000 0.000000 0.000000
# 2 -0.020902 0.034229 -0.007831 0.000000 0.000000 0.000000
# 3 -0.007831 -0.007831 0.023073 0.000000 0.000000 0.000000
# 4 0.000000 0.000000 0.000000 0.068802 0.000000 0.000000
# 5 0.000000 0.000000 0.000000 0.000000 0.068802 0.000000
# 6 0.000000 0.000000 0.000000 0.000000 0.000000 0.021592
#
#
# Mechanical properties :
#
#
# Convention : Reuss Voigt Hill
#
# Bulk Modulus (GPa) = 54.33672 54.57628 54.45650
# Shear Modulus (GPa) = 15.15205 20.20910 17.68057
#
# Velocity S-wave (km/s) = 2.78798 3.21979 3.01163
# Velocity P-wave (km/s) = 6.18368 6.46682 6.32683
#
# Compressibility (1/GPa) = 0.01840376
#
# Stress axis : x y z
#
# Youngs Moduli (GPa) = 29.21513 29.21513 43.34011
#
# Poissons Ratio (x) = 0.61064 0.33940
# Poissons Ratio (y) = 0.61064 0.33940
# Poissons Ratio (z) = 0.22878 0.22878
#
# Static dielectric constant tensor:
#      x y z
#    x 1.681730 0.000000 0.000000 
#    y 0.000000 1.681730 0.000000 
#    z 0.000000 0.000000 1.741950 
# 
# From -- ./inp_files/6310.got.cif
#   From: 2010.05.17/outbox.cif.g08.bks.cpg/sg134_4_cif.got.tgz:6310.got - 2010.05.20 12:42:49.
