data_PCOD9568399
_publ_section_title
;
Structure prediction by ZEFSAII (Michael W. Deem and Ramdas Pophale) SiO2 
 PCOD9568399
Probable space group: P 42/N N M
;
_chemical_formula_sum "Si O2"
_cell_formula_units_Z 96
_cell_length_a 20.535524
_cell_length_b 20.535524
_cell_length_c 11.338208
_cell_angle_alpha 90.000000
_cell_angle_beta 90.000000
_cell_angle_gamma 90.000000
_cell_volume 4781.410139
_symmetry_space_group_name_H-M "P 42/N N M"
_symmetry_group_IT_number 134
_space_group.IT_coordinate_system_code '2'
_symmetry_cell_setting 'tetragonal'
loop_
_space_group_symop_operation_xyz
x,y,z
1/2-y,x,1/2+z
1/2-x,1/2-y,z
y,1/2-x,1/2+z
x,1/2-y,1/2-z
1/2-x,y,1/2-z
y,x,-z
1/2-y,1/2-x,-z
-x,-y,-z
1/2+y,-x,1/2-z
1/2+x,1/2+y,-z
-y,1/2+x,1/2-z
-x,1/2+y,1/2+z
1/2+x,-y,1/2+z
-y,-x,z
1/2+y,1/2+x,z
loop_
_atom_site_type_symbol
_atom_site_label
_atom_site_fract_x
_atom_site_fract_y
_atom_site_fract_z
Si Si1 0.145616 0.378302 0.269891
Si Si2 0.638458 0.737102 0.445392
Si Si3 0.501365 0.107063 0.588845
Si Si4 0.216314 0.887844 0.127344
Si Si5 0.540935 0.691626 0.883477
Si Si6 0.217385 0.609891 0.629513
O O1 0.184003 0.385410 0.149240
O O2 0.197246 0.350606 0.367718
O O3 0.120008 0.448036 0.311713
O O4 0.085121 0.329111 0.273387
O O5 0.701484 0.701484 0.500000
O O6 0.582432 0.757841 0.537407
O O7 0.538733 0.038733 0.591715
O O8 0.556650 0.162344 0.605230
O O9 0.468281 0.127003 0.465124
O O10 0.250000 0.905265 0.250000
O O11 0.180020 0.819981 0.148228
O O12 0.251483 0.881638 0.999415
O O13 0.467604 0.710420 0.855625
O O14 0.250000 0.634724 0.750000
O O15 0.148923 0.648923 0.617293
#
# Coordination Sequence:
#
# PCOD9568399 Si02
#       6
#    16  16  16  16  16  16
#     4  10  22  36  57  87 114 159 206 248 312 365
#     4  10  22  37  56  84 123 161 201 255 302 371
#     4   9  18  33  56  85 113 147 199 257 306 359
#     4   9  19  34  56  85 115 150 191 244 309 369
#     4  10  21  37  59  85 118 158 205 248 310 371
#     4  10  23  41  64  92 124 163 208 258 316 378
#
# _framework density 20.077759
#
# number of rings (size 3 to 8) (size 9 to 14) (size 15 to 20)
#    0.000    2.333    0.000    3.500    9.333    4.333 
#    0.000    5.000    0.000    0.500    0.000    0.000 
#    0.000    0.000    0.000    0.000    0.000    0.000 
#
# Total GULP energy -535114.677257 kJ/mol
# GULP energy per Si atom -5574.111221 kJ/mol
# Density = 2.003206 g / cm^3
# Si number density = 20.077759 Si / 1000 Ang^3
#
#
#
# Elastic Constant Matrix: (Units=GPa)
#
#
# Indices 1 2 3 4 5 6 
#
# 1 69.1015 60.1292 45.5850 0.0000 0.0000 0.0000
# 2 60.1292 69.1015 45.5850 0.0000 0.0000 0.0000
# 3 45.5850 45.5850 117.0262 0.0000 0.0000 0.0000
# 4 0.0000 0.0000 0.0000 21.6945 0.0000 0.0000
# 5 0.0000 0.0000 0.0000 0.0000 21.6945 0.0000
# 6 0.0000 0.0000 0.0000 0.0000 0.0000 35.7921
#
#
#
# Elastic Compliance Matrix: (Units=1/GPa)
#
#
# Indices 1 2 3 4 5 6 
#
# 1 0.061062 -0.050392 -0.004156 0.000000 0.000000 0.000000
# 2 -0.050392 0.061062 -0.004156 0.000000 0.000000 0.000000
# 3 -0.004156 -0.004156 0.011783 0.000000 0.000000 0.000000
# 4 0.000000 0.000000 0.000000 0.046095 0.000000 0.000000
# 5 0.000000 0.000000 0.000000 0.000000 0.046095 0.000000
# 6 0.000000 0.000000 0.000000 0.000000 0.000000 0.027939
#
#
# Mechanical properties :
#
#
# Convention : Reuss Voigt Hill
#
# Bulk Modulus (GPa) = 60.61239 61.98085 61.29662
# Shear Modulus (GPa) = 13.26454 22.76488 18.01471
#
# Velocity S-wave (km/s) = 2.57312 3.37090 2.99866
# Velocity P-wave (km/s) = 6.25158 6.78882 6.52573
#
# Compressibility (1/GPa) = 0.01649828
#
# Stress axis : x y z
#
# Youngs Moduli (GPa) = 16.37673 16.37673 84.86673
#
# Poissons Ratio (x) = 0.82525 0.35274
# Poissons Ratio (y) = 0.82525 0.35274
# Poissons Ratio (z) = 0.06807 0.06807
#
# Static dielectric constant tensor:
#      x y z
#    x 1.725440 0.000000 0.000000 
#    y 0.000000 1.725440 0.000000 
#    z 0.000000 0.000000 1.758970 
# 
# From -- ./inp_files/5091.got.cif
#   From: 2010.05.17/outbox.cif.g08.bks.cpg/sg134_3_cif.got.tgz:5091.got - 2010.05.20 12:42:49.
