data_PCOD9568457
_publ_section_title
;
Structure prediction by ZEFSAII (Michael W. Deem and Ramdas Pophale) SiO2 
 PCOD9568457
Probable space group: P 42/N N M
;
_chemical_formula_sum "Si O2"
_cell_formula_units_Z 64
_cell_length_a 12.556993
_cell_length_b 12.556993
_cell_length_c 19.620604
_cell_angle_alpha 90.000000
_cell_angle_beta 90.000000
_cell_angle_gamma 90.000000
_cell_volume 3093.739034
_symmetry_space_group_name_H-M "P 42/N N M"
_symmetry_group_IT_number 134
_space_group.IT_coordinate_system_code '2'
_symmetry_cell_setting 'tetragonal'
loop_
_space_group_symop_operation_xyz
x,y,z
1/2-y,x,1/2+z
1/2-x,1/2-y,z
y,1/2-x,1/2+z
x,1/2-y,1/2-z
1/2-x,y,1/2-z
y,x,-z
1/2-y,1/2-x,-z
-x,-y,-z
1/2+y,-x,1/2-z
1/2+x,1/2+y,-z
-y,1/2+x,1/2-z
-x,1/2+y,1/2+z
1/2+x,-y,1/2+z
-y,-x,z
1/2+y,1/2+x,z
loop_
_atom_site_type_symbol
_atom_site_label
_atom_site_fract_x
_atom_site_fract_y
_atom_site_fract_z
Si Si1 0.242576 0.579100 0.075369
Si Si2 0.523114 0.303374 0.178172
Si Si3 0.978445 0.653100 0.947586
Si Si4 0.656144 0.978965 0.696344
O O1 0.330126 0.669875 0.078841
O O2 0.131928 0.631928 0.100262
O O3 0.284924 0.487193 0.123597
O O4 0.226630 0.546203 0.998261
O O5 0.554242 0.250000 0.250000
O O6 0.623417 0.376584 0.153480
O O7 0.477134 0.218660 0.122934
O O8 0.427461 0.384192 0.195202
O O9 0.045405 0.545405 0.933625
O O10 0.882959 0.617042 0.000000
O O11 0.750000 0.968196 0.750000
O O12 0.586945 0.086945 0.708134
#
# Coordination Sequence:
#
# PCOD9568457 Si02
#       4
#    16  16  16  16
#     4   9  18  35  61  89 118 160 211 262 319 384
#     4  11  25  43  65  95 133 178 222 272 335 404
#     4  10  22  40  64  93 126 167 219 278 329 389
#     4  10  22  39  62  92 130 170 214 269 326 393
#
# _framework density 20.686942999999999
#
# number of rings (size 3 to 8) (size 9 to 14) (size 15 to 20)
#    0.000    2.000    0.000    2.250    3.500    5.500 
#    0.000    5.000    0.000    0.000    0.000    0.000 
#    0.000    0.000    0.000    0.000    0.000    0.000 
#
# Total GULP energy -356586.011279 kJ/mol
# GULP energy per Si atom -5571.656426 kJ/mol
# Density = 2.063986 g / cm^3
# Si number density = 20.686943 Si / 1000 Ang^3
#
#
#
# Elastic Constant Matrix: (Units=GPa)
#
#
# Indices 1 2 3 4 5 6 
#
# 1 76.7034 32.8507 44.8766 0.0000 0.0000 0.0000
# 2 32.8507 76.7029 44.8758 0.0000 0.0000 0.0000
# 3 44.8766 44.8758 96.7564 0.0000 0.0000 0.0000
# 4 0.0000 0.0000 0.0000 144.5786 0.0000 0.0000
# 5 0.0000 0.0000 0.0000 0.0000 144.5606 0.0000
# 6 0.0000 0.0000 0.0000 0.0000 0.0000 16.4333
#
#
#
# Elastic Compliance Matrix: (Units=1/GPa)
#
#
# Indices 1 2 3 4 5 6 
#
# 1 0.018763 -0.004041 -0.006828 0.000000 0.000000 0.000000
# 2 -0.004041 0.018763 -0.006828 0.000000 0.000000 0.000000
# 3 -0.006828 -0.006828 0.016669 0.000000 0.000000 0.000000
# 4 0.000000 0.000000 0.000000 0.006917 0.000000 0.000000
# 5 0.000000 0.000000 0.000000 0.000000 0.006918 0.000000
# 6 0.000000 0.000000 0.000000 0.000000 0.000000 0.060852
#
#
# Mechanical properties :
#
#
# Convention : Reuss Voigt Hill
#
# Bulk Modulus (GPa) = 53.19027 55.04099 54.11563
# Shear Modulus (GPa) = 29.31831 69.61847 49.46839
#
# Velocity S-wave (km/s) = 3.76871 5.80744 4.89538
# Velocity P-wave (km/s) = 6.68621 8.46362 7.62687
#
# Compressibility (1/GPa) = 0.01880043
#
# Stress axis : x y z
#
# Youngs Moduli (GPa) = 53.29675 53.29711 59.99139
#
# Poissons Ratio (x) = 0.21537 0.40963
# Poissons Ratio (y) = 0.21537 0.40962
# Poissons Ratio (z) = 0.36392 0.36391
#
# Static dielectric constant tensor:
#      x y z
#    x 1.798240 0.000000 0.000000 
#    y 0.000000 1.798240 0.000000 
#    z 0.000000 0.000000 1.736490 
# 
# From -- ./inp_files/8690.got.cif
#   From: 2010.05.17/outbox.cif.g08.bks.cpg/sg134_5_cif.got.tgz:8690.got - 2010.05.20 12:42:49.
