data_PCOD9568187
_publ_section_title
;
Structure prediction by ZEFSAII (Michael W. Deem and Ramdas Pophale) SiO2 
 PCOD9568187
Probable space group: P 42/N N M
;
_chemical_formula_sum "Si O2"
_cell_formula_units_Z 48
_cell_length_a 20.944334
_cell_length_b 20.944334
_cell_length_c 4.999994
_cell_angle_alpha 90.000000
_cell_angle_beta 90.000000
_cell_angle_gamma 90.000000
_cell_volume 2193.323002
_symmetry_space_group_name_H-M "P 42/N N M"
_symmetry_group_IT_number 134
_space_group.IT_coordinate_system_code '2'
_symmetry_cell_setting 'tetragonal'
loop_
_space_group_symop_operation_xyz
x,y,z
1/2-y,x,1/2+z
1/2-x,1/2-y,z
y,1/2-x,1/2+z
x,1/2-y,1/2-z
1/2-x,y,1/2-z
y,x,-z
1/2-y,1/2-x,-z
-x,-y,-z
1/2+y,-x,1/2-z
1/2+x,1/2+y,-z
-y,1/2+x,1/2-z
-x,1/2+y,1/2+z
1/2+x,-y,1/2+z
-y,-x,z
1/2+y,1/2+x,z
loop_
_atom_site_type_symbol
_atom_site_label
_atom_site_fract_x
_atom_site_fract_y
_atom_site_fract_z
Si Si1 0.413352 0.685343 0.581644
Si Si2 0.374590 0.975524 0.423869
Si Si3 0.296871 0.100160 0.496202
O O1 0.415675 0.750000 0.750000
O O2 0.341692 0.658309 0.569131
O O3 0.442175 0.674649 0.286939
O O4 0.453663 0.639416 0.774822
O O5 0.444106 0.944106 0.353813
O O6 0.352948 0.048585 0.436153
O O7 0.250000 0.096601 0.250000
O O8 0.331676 0.168325 0.500000
O O9 0.250000 0.087494 0.750000
#
# Coordination Sequence:
#
# PCOD9568187 Si02
#       3
#    16  16  16
#     4  10  19  32  53  82 119 161 204 254 309 370
#     4  10  21  38  62  90 120 158 205 258 316 377
#     4  12  26  44  68  96 129 171 217 268 325 389
#
# _framework density 21.884599999999999
#
# number of rings (size 3 to 8) (size 9 to 14) (size 15 to 20)
#    0.000    1.333    0.000    7.000    0.000    3.000 
#    0.000    0.000    0.000   16.000    0.000    0.000 
#    0.000    0.000    0.000    0.000    0.000    0.000 
#
# Total GULP energy -267244.073960 kJ/mol
# GULP energy per Si atom -5567.584874 kJ/mol
# Density = 2.183479 g / cm^3
# Si number density = 21.884600 Si / 1000 Ang^3
#
#
#
# Elastic Constant Matrix: (Units=GPa)
#
#
# Indices 1 2 3 4 5 6 
#
# 1 444.1003 -281.6867 26.2625 0.0000 0.0000 0.0000
# 2 -281.6867 444.4349 26.2863 0.0000 0.0000 0.0000
# 3 26.2625 26.2863 137.4954 0.0000 0.0000 0.0000
# 4 0.0000 0.0000 0.0000 -41.6540 0.0000 0.0000
# 5 0.0000 0.0000 0.0000 0.0000 -41.5446 0.0000
# 6 0.0000 0.0000 0.0000 0.0000 0.0000 47.6869
#
#
#
# Elastic Compliance Matrix: (Units=1/GPa)
#
#
# Indices 1 2 3 4 5 6 
#
# 1 0.003968 0.002589 -0.001253 0.000000 0.000000 0.000000
# 2 0.002589 0.003965 -0.001253 0.000000 0.000000 0.000000
# 3 -0.001253 -0.001253 0.007752 0.000000 0.000000 0.000000
# 4 0.000000 0.000000 0.000000 -0.024007 0.000000 0.000000
# 5 0.000000 0.000000 0.000000 0.000000 -0.024071 0.000000
# 6 0.000000 0.000000 0.000000 0.000000 0.000000 0.020970
#
#
# Mechanical properties :
#
#
# Convention : Reuss Voigt Hill
#
# Bulk Modulus (GPa) = 63.08292 63.08387 63.08339
# Shear Modulus (GPa) = -792.90626 76.57557 -358.16535
#
# Velocity S-wave (km/s) = -19.05516 5.92170 -12.80688
# Velocity P-wave (km/s) = 21.33645 8.69734 13.77680
#
# Compressibility (1/GPa) = 0.01585215
#
# Stress axis : x y z
#
# Youngs Moduli (GPa) = 252.01198 252.19881 129.00309
#
# Poissons Ratio (x) = -0.65297 0.16163
# Poissons Ratio (y) = -0.65248 0.16159
# Poissons Ratio (z) = 0.31575 0.31590
#
# Static dielectric constant tensor:
#      x y z
#    x 1.842560 0.000000 0.000000 
#    y 0.000000 1.842560 0.000000 
#    z 0.000000 0.000000 1.670130 
# 
# From -- ./inp_files/618.got.cif
#   From: 2010.05.17/outbox.cif.g08.bks.cpg/sg134_1_cif.got.tgz:618.got - 2010.05.20 12:42:49.
