data_PCOD9568509
_publ_section_title
;
Structure prediction by ZEFSAII (Michael W. Deem and Ramdas Pophale) SiO2 
 PCOD9568509
Probable space group: P 42/N N M
;
_chemical_formula_sum "Si O2"
_cell_formula_units_Z 64
_cell_length_a 19.750732
_cell_length_b 19.750732
_cell_length_c 8.879925
_cell_angle_alpha 90.000000
_cell_angle_beta 90.000000
_cell_angle_gamma 90.000000
_cell_volume 3463.982504
_symmetry_space_group_name_H-M "P 42/N N M"
_symmetry_group_IT_number 134
_space_group.IT_coordinate_system_code '2'
_symmetry_cell_setting 'tetragonal'
loop_
_space_group_symop_operation_xyz
x,y,z
1/2-y,x,1/2+z
1/2-x,1/2-y,z
y,1/2-x,1/2+z
x,1/2-y,1/2-z
1/2-x,y,1/2-z
y,x,-z
1/2-y,1/2-x,-z
-x,-y,-z
1/2+y,-x,1/2-z
1/2+x,1/2+y,-z
-y,1/2+x,1/2-z
-x,1/2+y,1/2+z
1/2+x,-y,1/2+z
-y,-x,z
1/2+y,1/2+x,z
loop_
_atom_site_type_symbol
_atom_site_label
_atom_site_fract_x
_atom_site_fract_y
_atom_site_fract_z
Si Si1 0.252802 0.147732 0.570033
Si Si2 0.562603 0.177089 0.328251
Si Si3 0.257570 0.498990 0.425997
Si Si4 0.107273 0.006322 0.569185
O O1 0.250000 0.152949 0.750000
O O2 0.193451 0.193451 0.500000
O O3 0.320865 0.179136 0.500000
O O4 0.245083 0.072022 0.513729
O O5 0.576251 0.250000 0.250000
O O6 0.625589 0.125589 0.320530
O O7 0.543221 0.198841 0.497026
O O8 0.500185 0.141854 0.235468
O O9 0.250000 0.490293 0.250000
O O10 0.333684 0.523013 0.462739
O O11 0.045422 0.954579 0.575175
O O12 0.075815 0.075815 0.500000
#
# Coordination Sequence:
#
# PCOD9568509 Si02
#       4
#    16  16  16  16
#     4  11  21  35  53  76 107 143 185 227 268 314
#     4   9  19  36  57  80 105 138 179 221 267 320
#     4  11  22  34  52  78 109 144 177 217 265 317
#     4   9  18  35  57  78 102 135 175 219 266 314
#
# _framework density 18.475845
#
# number of rings (size 3 to 8) (size 9 to 14) (size 15 to 20)
#    0.000    2.000    0.000    6.000    0.000    3.250 
#    0.000    0.000    0.000    5.250    0.000    3.500 
#    0.000    0.000    0.000    0.000    0.000    0.000 
#
# Total GULP energy -356596.363109 kJ/mol
# GULP energy per Si atom -5571.818174 kJ/mol
# Density = 1.843379 g / cm^3
# Si number density = 18.475845 Si / 1000 Ang^3
#
#
#
# Elastic Constant Matrix: (Units=GPa)
#
#
# Indices 1 2 3 4 5 6 
#
# 1 67.2337 27.2041 34.3013 0.0000 0.0000 0.0000
# 2 27.2041 67.2388 34.3019 0.0000 0.0000 0.0000
# 3 34.3013 34.3019 173.5786 0.0000 0.0000 0.0000
# 4 0.0000 0.0000 0.0000 22.0615 0.0000 0.0000
# 5 0.0000 0.0000 0.0000 0.0000 22.0613 0.0000
# 6 0.0000 0.0000 0.0000 0.0000 0.0000 27.8802
#
#
#
# Elastic Compliance Matrix: (Units=1/GPa)
#
#
# Indices 1 2 3 4 5 6 
#
# 1 0.018672 -0.006308 -0.002443 0.000000 0.000000 0.000000
# 2 -0.006308 0.018671 -0.002443 0.000000 0.000000 0.000000
# 3 -0.002443 -0.002443 0.006727 0.000000 0.000000 0.000000
# 4 0.000000 0.000000 0.000000 0.045328 0.000000 0.000000
# 5 0.000000 0.000000 0.000000 0.000000 0.045328 0.000000
# 6 0.000000 0.000000 0.000000 0.000000 0.000000 0.035868
#
#
# Mechanical properties :
#
#
# Convention : Reuss Voigt Hill
#
# Bulk Modulus (GPa) = 46.12361 55.51842 50.82102
# Shear Modulus (GPa) = 24.97377 28.55020 26.76198
#
# Velocity S-wave (km/s) = 3.68053 3.93526 3.81003
# Velocity P-wave (km/s) = 6.56355 7.12480 6.84993
#
# Compressibility (1/GPa) = 0.02168087
#
# Stress axis : x y z
#
# Youngs Moduli (GPa) = 53.55488 53.55912 148.66127
#
# Poissons Ratio (x) = 0.33786 0.36322
# Poissons Ratio (y) = 0.33784 0.36319
# Poissons Ratio (z) = 0.13085 0.13085
#
# Static dielectric constant tensor:
#      x y z
#    x 1.674410 0.000000 0.000000 
#    y 0.000000 1.674400 0.000000 
#    z 0.000000 0.000000 1.662520 
# 
# From -- ./inp_files/2730.got.cif
#   From: 2010.05.17/outbox.cif.g08.bks.cpg/sg134_2_cif.got.tgz:2730.got - 2010.05.20 12:42:49.
