data_PCOD9568829
_publ_section_title
;
Structure prediction by ZEFSAII (Michael W. Deem and Ramdas Pophale) SiO2 
 PCOD9568829
Probable space group: P 42/M B C
;
_chemical_formula_sum "Si O2"
_cell_formula_units_Z 96
_cell_length_a 15.527966
_cell_length_b 15.527966
_cell_length_c 19.540806
_cell_angle_alpha 90.000000
_cell_angle_beta 90.000000
_cell_angle_gamma 90.000000
_cell_volume 4711.634748
_symmetry_space_group_name_H-M "P 42/M B C"
_symmetry_group_IT_number 135
_symmetry_cell_setting 'tetragonal'
loop_
_space_group_symop_operation_xyz
x,y,z
-y,x,1/2+z
-x,-y,z
y,-x,1/2+z
1/2+x,1/2-y,-z
1/2-x,1/2+y,-z
1/2+y,1/2+x,1/2-z
1/2-y,1/2-x,1/2-z
-x,-y,-z
y,-x,1/2-z
x,y,-z
-y,x,1/2-z
1/2-x,1/2+y,z
1/2+x,1/2-y,z
1/2-y,1/2-x,1/2+z
1/2+y,1/2+x,1/2+z
loop_
_atom_site_type_symbol
_atom_site_label
_atom_site_fract_x
_atom_site_fract_y
_atom_site_fract_z
Si Si1 0.705215 0.249536 0.075904
Si Si2 0.443783 0.617467 0.722892
Si Si3 0.297127 0.913623 0.297425
Si Si4 0.581613 0.943976 0.669877
Si Si5 0.101875 0.158059 0.423055
Si Si6 0.936032 0.281070 0.423821
O O1 0.649496 0.222308 0.140170
O O2 0.792646 0.193082 0.079856
O O3 0.721953 0.351349 0.079468
O O4 0.668163 0.229922 0.000000
O O5 0.545732 0.600422 0.729146
O O6 0.424807 0.712932 0.750461
O O7 0.410371 0.602939 0.645541
O O8 0.372181 0.872181 0.250000
O O9 0.331480 0.000638 0.332674
O O10 0.571751 0.928250 0.750000
O O11 0.577299 0.854812 0.631054
O O12 0.500000 0.000000 0.645716
O O13 0.093634 0.119556 0.500000
O O14 0.024164 0.227908 0.416085
O O15 0.937830 0.320180 0.500000
#
# Coordination Sequence:
#
# PCOD9568829 Si02
#       6
#    16  16  16  16  16  16
#     4  10  22  39  60  91 121 159 214 258 304 388
#     4  11  25  43  62  94 128 162 217 270 301 371
#     4  12  22  38  63  88 122 164 205 251 325 374
#     4  11  22  37  57  90 128 156 192 257 310 372
#     4  10  20  40  66  88 125 170 206 259 320 377
#     4  10  22  39  62  90 121 161 212 253 309 381
#
# _framework density 20.375093
#
# number of rings (size 3 to 8) (size 9 to 14) (size 15 to 20)
#    0.000    1.333    3.333    3.000    2.333    1.667 
#    0.000    2.500    0.000    0.000    0.000    0.000 
#    0.000    0.000    0.000    0.000    0.000    0.000 
#
# Total GULP energy -536059.721884 kJ/mol
# GULP energy per Si atom -5583.955436 kJ/mol
# Density = 2.032872 g / cm^3
# Si number density = 20.375093 Si / 1000 Ang^3
#
#
#
# Elastic Constant Matrix: (Units=GPa)
#
#
# Indices 1 2 3 4 5 6 
#
# 1 19.3945 -2.6410 -3.4572 0.0000 0.0000 0.0000
# 2 -2.6410 19.3949 -3.4575 0.0000 0.0000 0.0000
# 3 -3.4572 -3.4575 76.9445 0.0000 0.0000 0.0000
# 4 0.0000 0.0000 0.0000 25.1780 0.0000 0.0000
# 5 0.0000 0.0000 0.0000 0.0000 25.1781 0.0000
# 6 0.0000 0.0000 0.0000 0.0000 0.0000 23.5970
#
#
#
# Elastic Compliance Matrix: (Units=1/GPa)
#
#
# Indices 1 2 3 4 5 6 
#
# 1 0.053099 0.007718 0.002733 0.000000 0.000000 0.000000
# 2 0.007718 0.053098 0.002733 0.000000 0.000000 0.000000
# 3 0.002733 0.002733 0.013242 0.000000 0.000000 0.000000
# 4 0.000000 0.000000 0.000000 0.039717 0.000000 0.000000
# 5 0.000000 0.000000 0.000000 0.000000 0.039717 0.000000
# 6 0.000000 0.000000 0.000000 0.000000 0.000000 0.042378
#
#
# Mechanical properties :
#
#
# Convention : Reuss Voigt Hill
#
# Bulk Modulus (GPa) = 6.85849 10.73584 8.79716
# Shear Modulus (GPa) = 18.97625 23.14326 21.05976
#
# Velocity S-wave (km/s) = 3.05511 3.37391 3.21846
# Velocity P-wave (km/s) = 3.97723 4.52308 4.25891
#
# Compressibility (1/GPa) = 0.14580467
#
# Stress axis : x y z
#
# Youngs Moduli (GPa) = 18.83276 18.83311 75.51757
#
# Poissons Ratio (x) = -0.14535 -0.20636
# Poissons Ratio (y) = -0.14534 -0.20637
# Poissons Ratio (z) = -0.05146 -0.05147
#
# Static dielectric constant tensor:
#      x y z
#    x 1.747360 0.000000 0.000000 
#    y 0.000000 1.747350 0.000000 
#    z 0.000000 0.000000 1.750020 
# 
# From -- ./inp_files/5407.got.cif
#   From: 2010.05.17/outbox.cif.g08.bks.cpg/sg135_3_cif.got.tgz:5407.got - 2010.05.20 12:50:20.
