data_PCOD9568221
_publ_section_title
;
Structure prediction by ZEFSAII (Michael W. Deem and Ramdas Pophale) SiO2 
 PCOD9568221
Probable space group: P 42/N N M
;
_chemical_formula_sum "Si O2"
_cell_formula_units_Z 80
_cell_length_a 13.098526
_cell_length_b 13.098526
_cell_length_c 25.901240
_cell_angle_alpha 90.000000
_cell_angle_beta 90.000000
_cell_angle_gamma 90.000000
_cell_volume 4443.911578
_symmetry_space_group_name_H-M "P 42/N N M"
_symmetry_group_IT_number 134
_space_group.IT_coordinate_system_code '2'
_symmetry_cell_setting 'tetragonal'
loop_
_space_group_symop_operation_xyz
x,y,z
1/2-y,x,1/2+z
1/2-x,1/2-y,z
y,1/2-x,1/2+z
x,1/2-y,1/2-z
1/2-x,y,1/2-z
y,x,-z
1/2-y,1/2-x,-z
-x,-y,-z
1/2+y,-x,1/2-z
1/2+x,1/2+y,-z
-y,1/2+x,1/2-z
-x,1/2+y,1/2+z
1/2+x,-y,1/2+z
-y,-x,z
1/2+y,1/2+x,z
loop_
_atom_site_type_symbol
_atom_site_label
_atom_site_fract_x
_atom_site_fract_y
_atom_site_fract_z
Si Si1 0.974254 0.646569 0.894405
Si Si2 0.756430 0.080727 0.013668
Si Si3 0.323337 0.993217 0.299959
Si Si4 0.721275 0.631642 0.190689
Si Si5 0.695695 0.475878 0.595790
O O1 0.942804 0.716167 0.846259
O O2 0.877476 0.574440 0.906338
O O3 0.069602 0.569602 0.884301
O O4 0.003338 0.717350 0.942896
O O5 0.860833 0.139167 0.026513
O O6 0.668110 0.168110 0.011837
O O7 0.760392 0.032238 0.956686
O O8 0.250000 0.006350 0.250000
O O9 0.402333 0.902333 0.290034
O O10 0.379082 0.099845 0.311450
O O11 0.258401 0.972993 0.351476
O O12 0.750000 0.750000 0.177716
O O13 0.750000 0.615485 0.250000
O O14 0.620831 0.379170 0.596619
#
# Coordination Sequence:
#
# PCOD9568221 Si02
#       5
#    16  16  16  16  16
#     4  10  20  36  63  88 111 151 205 248 290 352
#     4   9  18  33  54  83 119 155 195 249 302 347
#     4  12  24  38  60  90 122 157 195 239 295 358
#     4  11  21  41  61  81 118 156 192 232 291 355
#     4  10  19  34  57  86 119 157 197 241 296 359
#
# _framework density 18.002158000000001
#
# number of rings (size 3 to 8) (size 9 to 14) (size 15 to 20)
#    0.000    1.600    4.000    1.800    0.000    7.800 
#    0.000    1.000    0.000    2.400    0.000    1.400 
#    0.000    0.000    0.000    0.000    0.000    0.000 
#
# Total GULP energy -446475.285942 kJ/mol
# GULP energy per Si atom -5580.941074 kJ/mol
# Density = 1.796118 g / cm^3
# Si number density = 18.002158 Si / 1000 Ang^3
#
#
#
# Elastic Constant Matrix: (Units=GPa)
#
#
# Indices 1 2 3 4 5 6 
#
# 1 62.0121 23.4935 28.5982 0.0000 0.0000 0.0000
# 2 23.4935 62.0121 28.5982 0.0000 0.0000 0.0000
# 3 28.5982 28.5982 95.7630 0.0000 0.0000 0.0000
# 4 0.0000 0.0000 0.0000 23.5485 0.0000 0.0000
# 5 0.0000 0.0000 0.0000 0.0000 23.5485 0.0000
# 6 0.0000 0.0000 0.0000 0.0000 0.0000 27.5747
#
#
#
# Elastic Compliance Matrix: (Units=1/GPa)
#
#
# Indices 1 2 3 4 5 6 
#
# 1 0.020288 -0.005673 -0.004364 0.000000 0.000000 0.000000
# 2 -0.005673 0.020288 -0.004364 0.000000 0.000000 0.000000
# 3 -0.004364 -0.004364 0.013049 0.000000 0.000000 0.000000
# 4 0.000000 0.000000 0.000000 0.042466 0.000000 0.000000
# 5 0.000000 0.000000 0.000000 0.000000 0.042466 0.000000
# 6 0.000000 0.000000 0.000000 0.000000 0.000000 0.036265
#
#
# Mechanical properties :
#
#
# Convention : Reuss Voigt Hill
#
# Bulk Modulus (GPa) = 40.28901 42.35188 41.32045
# Shear Modulus (GPa) = 23.59606 24.20748 23.90177
#
# Velocity S-wave (km/s) = 3.62434 3.67099 3.64774
# Velocity P-wave (km/s) = 6.32006 6.44557 6.38312
#
# Compressibility (1/GPa) = 0.02482066
#
# Stress axis : x y z
#
# Youngs Moduli (GPa) = 49.29015 49.29015 76.63307
#
# Poissons Ratio (x) = 0.27964 0.33446
# Poissons Ratio (y) = 0.27964 0.33446
# Poissons Ratio (z) = 0.21512 0.21512
#
# Static dielectric constant tensor:
#      x y z
#    x 1.628750 0.000000 0.000000 
#    y 0.000000 1.628750 0.000000 
#    z 0.000000 0.000000 1.599020 
# 
# From -- ./inp_files/11302.got.cif
#   From: 2010.05.17/outbox.cif.g08.bks.cpg/sg134_6_cif.got.tgz:11302.got - 2010.05.20 12:42:49.
