data_PCOD9568460
_publ_section_title
;
Structure prediction by ZEFSAII (Michael W. Deem and Ramdas Pophale) SiO2 
 PCOD9568460
Probable space group: P 42/N N M
;
_chemical_formula_sum "Si O2"
_cell_formula_units_Z 72
_cell_length_a 21.638592
_cell_length_b 21.638592
_cell_length_c 7.347701
_cell_angle_alpha 90.000000
_cell_angle_beta 90.000000
_cell_angle_gamma 90.000000
_cell_volume 3440.404221
_symmetry_space_group_name_H-M "P 42/N N M"
_symmetry_group_IT_number 134
_space_group.IT_coordinate_system_code '2'
_symmetry_cell_setting 'tetragonal'
loop_
_space_group_symop_operation_xyz
x,y,z
1/2-y,x,1/2+z
1/2-x,1/2-y,z
y,1/2-x,1/2+z
x,1/2-y,1/2-z
1/2-x,y,1/2-z
y,x,-z
1/2-y,1/2-x,-z
-x,-y,-z
1/2+y,-x,1/2-z
1/2+x,1/2+y,-z
-y,1/2+x,1/2-z
-x,1/2+y,1/2+z
1/2+x,-y,1/2+z
-y,-x,z
1/2+y,1/2+x,z
loop_
_atom_site_type_symbol
_atom_site_label
_atom_site_fract_x
_atom_site_fract_y
_atom_site_fract_z
Si Si1 0.309180 0.592477 0.531428
Si Si2 0.180613 0.322527 0.289932
Si Si3 0.832944 0.063579 0.071532
Si Si4 0.885776 0.014526 0.742574
Si Si5 0.106884 0.393117 0.000000
O O1 0.339248 0.660752 0.552869
O O2 0.331496 0.554625 0.711019
O O3 0.235771 0.587006 0.524984
O O4 0.339431 0.562269 0.355685
O O5 0.185468 0.250000 0.250000
O O6 0.250000 0.349115 0.250000
O O7 0.166639 0.333362 0.500000
O O8 0.126666 0.346217 0.159424
O O9 0.881927 0.118074 0.035288
O O10 0.856552 0.007692 0.944255
O O11 0.952440 0.047561 0.755946
O O12 0.888510 0.957142 0.607895
#
# Coordination Sequence:
#
# PCOD9568460 Si02
#       5
#    16  16  16  16   8
#     4   9  18  34  56  84 120 161 202 251 306 356
#     4  11  21  42  67  92 126 155 179 233 309 375
#     4   9  18  34  57  85 120 161 202 251 307 356
#     4  10  22  40  57  80 119 163 206 253 299 344
#     4  12  25  39  64  92 114 158 206 245 293 364
#
# _framework density 20.927772999999998
#
# number of rings (size 3 to 8) (size 9 to 14) (size 15 to 20)
#    0.000    2.000    2.222    1.667    0.000    4.000 
#    4.000    2.222    0.000   10.667    0.000    0.000 
#    0.000    0.000    0.000    0.000    0.000    0.000 
#
# Total GULP energy -401416.201062 kJ/mol
# GULP energy per Si atom -5575.225015 kJ/mol
# Density = 2.088014 g / cm^3
# Si number density = 20.927773 Si / 1000 Ang^3
#
#
#
# Elastic Constant Matrix: (Units=GPa)
#
#
# Indices 1 2 3 4 5 6 
#
# 1 73.2794 3.9059 31.7730 0.0000 0.0000 0.0000
# 2 3.9059 73.2800 31.7735 0.0000 0.0000 0.0000
# 3 31.7730 31.7735 141.9013 0.0000 0.0000 0.0000
# 4 0.0000 0.0000 0.0000 30.6321 0.0000 0.0000
# 5 0.0000 0.0000 0.0000 0.0000 30.6335 0.0000
# 6 0.0000 0.0000 0.0000 0.0000 0.0000 11.2411
#
#
#
# Elastic Compliance Matrix: (Units=1/GPa)
#
#
# Indices 1 2 3 4 5 6 
#
# 1 0.015149 0.000735 -0.003557 0.000000 0.000000 0.000000
# 2 0.000735 0.015149 -0.003557 0.000000 0.000000 0.000000
# 3 -0.003557 -0.003557 0.008640 0.000000 0.000000 0.000000
# 4 0.000000 0.000000 0.000000 0.032645 0.000000 0.000000
# 5 0.000000 0.000000 0.000000 0.000000 0.032644 0.000000
# 6 0.000000 0.000000 0.000000 0.000000 0.000000 0.088960
#
#
# Mechanical properties :
#
#
# Convention : Reuss Voigt Hill
#
# Bulk Modulus (GPa) = 38.19515 47.04062 42.61788
# Shear Modulus (GPa) = 23.29138 29.23522 26.26330
#
# Velocity S-wave (km/s) = 3.33970 3.74164 3.54637
# Velocity P-wave (km/s) = 5.75864 6.41817 6.09733
#
# Compressibility (1/GPa) = 0.02618134
#
# Stress axis : x y z
#
# Youngs Moduli (GPa) = 66.00957 66.00989 115.74255
#
# Poissons Ratio (x) = -0.04849 0.41164
# Poissons Ratio (y) = -0.04849 0.41165
# Poissons Ratio (z) = 0.23477 0.23477
#
# Static dielectric constant tensor:
#      x y z
#    x 1.745910 0.000000 0.000000 
#    y 0.000000 1.745910 0.000000 
#    z 0.000000 0.000000 1.777890 
# 
# From -- ./inp_files/2922.got.cif
#   From: 2010.05.17/outbox.cif.g08.bks.cpg/sg134_2_cif.got.tgz:2922.got - 2010.05.20 12:42:49.
