data_PCOD9568921
_publ_section_title
;
Structure prediction by ZEFSAII (Michael W. Deem and Ramdas Pophale) SiO2 
 PCOD9568921
Probable space group: P 42/M B C
;
_chemical_formula_sum "Si O2"
_cell_formula_units_Z 112
_cell_length_a 14.720457
_cell_length_b 14.720457
_cell_length_c 26.967462
_cell_angle_alpha 90.000000
_cell_angle_beta 90.000000
_cell_angle_gamma 90.000000
_cell_volume 5843.629346
_symmetry_space_group_name_H-M "P 42/M B C"
_symmetry_group_IT_number 135
_symmetry_cell_setting 'tetragonal'
loop_
_space_group_symop_operation_xyz
x,y,z
-y,x,1/2+z
-x,-y,z
y,-x,1/2+z
1/2+x,1/2-y,-z
1/2-x,1/2+y,-z
1/2+y,1/2+x,1/2-z
1/2-y,1/2-x,1/2-z
-x,-y,-z
y,-x,1/2-z
x,y,-z
-y,x,1/2-z
1/2-x,1/2+y,z
1/2+x,1/2-y,z
1/2-y,1/2-x,1/2+z
1/2+y,1/2+x,1/2+z
loop_
_atom_site_type_symbol
_atom_site_label
_atom_site_fract_x
_atom_site_fract_y
_atom_site_fract_z
Si Si1 0.447340 0.415628 0.653846
Si Si2 0.394935 0.681768 0.298166
Si Si3 0.827241 0.705708 0.384511
Si Si4 0.987810 0.605663 0.440681
Si Si5 0.189660 0.622646 0.299228
Si Si6 0.751806 0.566893 0.694881
Si Si7 0.366285 0.238898 0.607090
O O1 0.500000 0.500000 0.629253
O O2 0.516919 0.381131 0.696152
O O3 0.353041 0.446031 0.678905
O O4 0.418404 0.333377 0.617589
O O5 0.381780 0.717397 0.354496
O O6 0.295288 0.642637 0.285621
O O7 0.416008 0.751650 0.253777
O O8 0.788750 0.647817 0.338259
O O9 0.736435 0.741301 0.412071
O O10 0.896602 0.647996 0.416973
O O11 0.981662 0.608477 0.500000
O O12 0.071901 0.668901 0.423215
O O13 0.000000 0.500000 0.425561
O O14 0.132197 0.632197 0.250000
O O15 0.190653 0.521130 0.318813
O O16 0.152780 0.692403 0.339522
#
# Coordination Sequence:
#
# PCOD9568921 Si02
#       7
#    16  16  16  16  16  16  16
#     4  11  21  34  57  87 118 162 211 252 300 364
#     4  11  19  34  53  82 121 159 201 242 297 357
#     4  10  22  39  63  86 119 162 201 256 311 375
#     4  11  24  44  69  94 121 159 208 265 324 388
#     4  11  21  34  51  82 126 163 199 250 300 362
#     4  11  21  33  53  86 121 162 208 247 294 362
#     4  10  22  41  62  88 122 161 203 257 315 374
#
# _framework density 19.166172
#
# number of rings (size 3 to 8) (size 9 to 14) (size 15 to 20)
#    0.000    1.286    2.857    5.571    0.000    0.571 
#    0.000    0.000    0.000    0.429    0.000    0.000 
#    0.000    0.000    0.000    0.000    0.000    0.000 
#
# Total GULP energy -624926.450115 kJ/mol
# GULP energy per Si atom -5579.700447 kJ/mol
# Density = 1.912255 g / cm^3
# Si number density = 19.166172 Si / 1000 Ang^3
#
#
#
# Elastic Constant Matrix: (Units=GPa)
#
#
# Indices 1 2 3 4 5 6 
#
# 1 98.3032 35.5562 25.5593 0.0000 0.0000 0.0000
# 2 35.5562 98.3032 25.5593 0.0000 0.0000 0.0000
# 3 25.5593 25.5593 43.6750 0.0000 0.0000 0.0000
# 4 0.0000 0.0000 0.0000 19.6796 0.0000 0.0000
# 5 0.0000 0.0000 0.0000 0.0000 19.6796 0.0000
# 6 0.0000 0.0000 0.0000 0.0000 0.0000 38.3875
#
#
#
# Elastic Compliance Matrix: (Units=1/GPa)
#
#
# Indices 1 2 3 4 5 6 
#
# 1 0.012779 -0.003158 -0.005630 0.000000 0.000000 0.000000
# 2 -0.003158 0.012779 -0.005630 0.000000 0.000000 0.000000
# 3 -0.005630 -0.005630 0.029486 0.000000 0.000000 0.000000
# 4 0.000000 0.000000 0.000000 0.050814 0.000000 0.000000
# 5 0.000000 0.000000 0.000000 0.000000 0.050814 0.000000
# 6 0.000000 0.000000 0.000000 0.000000 0.000000 0.026050
#
#
# Mechanical properties :
#
#
# Convention : Reuss Voigt Hill
#
# Bulk Modulus (GPa) = 38.15813 45.95902 42.05858
# Shear Modulus (GPa) = 22.69690 25.78976 24.24333
#
# Velocity S-wave (km/s) = 3.44498 3.67220 3.56040
# Velocity P-wave (km/s) = 5.98132 6.48162 6.23649
#
# Compressibility (1/GPa) = 0.02620673
#
# Stress axis : x y z
#
# Youngs Moduli (GPa) = 78.25458 78.25458 33.91433
#
# Poissons Ratio (x) = 0.24715 0.19094
# Poissons Ratio (y) = 0.24715 0.19094
# Poissons Ratio (z) = 0.44058 0.44058
#
# Static dielectric constant tensor:
#      x y z
#    x 1.721010 0.000000 0.000000 
#    y 0.000000 1.721010 0.000000 
#    z 0.000000 0.000000 1.622950 
# 
# From -- ./inp_files/6534.got.cif
#   From: 2010.05.17/outbox.cif.g08.bks.cpg/sg135_4_cif.got.tgz:6534.got - 2010.05.20 12:50:20.
