data_PCOD9568572
_publ_section_title
;
Structure prediction by ZEFSAII (Michael W. Deem and Ramdas Pophale) SiO2 
 PCOD9568572
Probable space group: P 42/N N M
;
_chemical_formula_sum "Si O2"
_cell_formula_units_Z 112
_cell_length_a 13.365138
_cell_length_b 13.365138
_cell_length_c 37.632672
_cell_angle_alpha 90.000000
_cell_angle_beta 90.000000
_cell_angle_gamma 90.000000
_cell_volume 6722.208056
_symmetry_space_group_name_H-M "P 42/N N M"
_symmetry_group_IT_number 134
_space_group.IT_coordinate_system_code '2'
_symmetry_cell_setting 'tetragonal'
loop_
_space_group_symop_operation_xyz
x,y,z
1/2-y,x,1/2+z
1/2-x,1/2-y,z
y,1/2-x,1/2+z
x,1/2-y,1/2-z
1/2-x,y,1/2-z
y,x,-z
1/2-y,1/2-x,-z
-x,-y,-z
1/2+y,-x,1/2-z
1/2+x,1/2+y,-z
-y,1/2+x,1/2-z
-x,1/2+y,1/2+z
1/2+x,-y,1/2+z
-y,-x,z
1/2+y,1/2+x,z
loop_
_atom_site_type_symbol
_atom_site_label
_atom_site_fract_x
_atom_site_fract_y
_atom_site_fract_z
Si Si1 0.418338 0.749195 0.570059
Si Si2 0.417971 0.254466 0.789038
Si Si3 0.331935 0.499433 0.358759
Si Si4 0.582030 0.745534 0.789038
Si Si5 0.750807 0.418338 0.929941
Si Si6 0.499433 0.331935 0.358759
Si Si7 0.995245 0.667608 0.500000
O O1 0.347764 0.652237 0.564221
O O2 0.342645 0.842645 0.574365
O O3 0.479938 0.731736 0.606000
O O4 0.485738 0.769543 0.535638
O O5 0.467275 0.250000 0.750000
O O6 0.485107 0.231539 0.823003
O O7 0.357949 0.357949 0.793250
O O8 0.332629 0.167371 0.787961
O O9 0.407733 0.592268 0.354410
O O10 0.268265 0.520064 0.394000
O O11 0.401277 0.401278 0.363484
O O12 0.532725 0.750000 0.750000
O O13 0.514893 0.768461 0.823003
O O14 0.657358 0.342643 0.925636
O O15 0.847765 0.347765 0.935780
O O16 0.730457 0.485739 0.964362
O O17 0.592268 0.407733 0.354410
O O18 0.082338 0.582338 0.500000
O O19 0.890910 0.609091 0.500000
#
# Coordination Sequence:
#
# PCOD9568572 Si02
#       7
#    16  16  16  16  16  16  16
#     4   9  17  30  47  64  84 113 145 172 205 255
#     4   8  14  26  44  63  83 111 145 175 206 250
#     4   9  17  29  45  65  88 113 142 177 214 250
#     4   8  14  26  44  63  83 111 145 175 206 250
#     4   9  17  30  47  64  84 113 145 172 205 255
#     4   9  17  29  45  65  88 113 142 177 214 250
#     4   9  17  29  46  67  88 110 140 179 216 248
#
# _framework density 16.661193000000001
#
# number of rings (size 3 to 8) (size 9 to 14) (size 15 to 20)
#    0.000    3.286    0.000    1.286    0.000    2.857 
#    0.000    2.143    0.000    6.000    0.000    0.000 
#    0.000    0.000    0.000    0.000    0.000    0.000 
#
# Total GULP energy -623625.114544 kJ/mol
# GULP energy per Si atom -5568.081380 kJ/mol
# Density = 1.662327 g / cm^3
# Si number density = 16.661193 Si / 1000 Ang^3
#
#
#
# Elastic Constant Matrix: (Units=GPa)
#
#
# Indices 1 2 3 4 5 6 
#
# 1 42.1073 18.9358 67.9542 0.0000 0.0000 0.0000
# 2 18.9358 42.1073 67.9541 0.0000 0.0000 0.0000
# 3 67.9542 67.9541 222.9438 0.0000 0.0000 0.0000
# 4 0.0000 0.0000 0.0000 33.5689 0.0000 0.0000
# 5 0.0000 0.0000 0.0000 0.0000 33.5690 0.0000
# 6 0.0000 0.0000 0.0000 0.0000 0.0000 1.9834
#
#
#
# Elastic Compliance Matrix: (Units=1/GPa)
#
#
# Indices 1 2 3 4 5 6 
#
# 1 0.047065 0.003909 -0.015537 0.000000 0.000000 0.000000
# 2 0.003909 0.047065 -0.015537 0.000000 0.000000 0.000000
# 3 -0.015537 -0.015537 0.013957 0.000000 0.000000 0.000000
# 4 0.000000 0.000000 0.000000 0.029789 0.000000 0.000000
# 5 0.000000 0.000000 0.000000 0.000000 0.029789 0.000000
# 6 0.000000 0.000000 0.000000 0.000000 0.000000 0.504197
#
#
# Mechanical properties :
#
#
# Convention : Reuss Voigt Hill
#
# Bulk Modulus (GPa) = 18.60225 68.53849 43.57037
# Shear Modulus (GPa) = 6.71940 23.97854 15.34897
#
# Velocity S-wave (km/s) = 2.01040 3.79778 3.03849
# Velocity P-wave (km/s) = 4.07164 7.77539 6.20624
#
# Compressibility (1/GPa) = 0.05375694
#
# Stress axis : x y z
#
# Youngs Moduli (GPa) = 21.24705 21.24706 71.64862
#
# Poissons Ratio (x) = -0.08305 1.11322
# Poissons Ratio (y) = -0.08305 1.11321
# Poissons Ratio (z) = 0.33012 0.33012
#
# Static dielectric constant tensor:
#      x y z
#    x 1.556320 0.000000 0.000000 
#    y 0.000000 1.556320 0.000000 
#    z 0.000000 0.000000 1.558590 
# 
# From -- ./inp_files/11627.got.cif
#   From: 2010.05.17/outbox.cif.g08.bks.cpg/sg134_6_cif.got.tgz:11627.got - 2010.05.20 12:42:49.
