data_PCOD9568014
_publ_section_title
;
Structure prediction by ZEFSAII (Michael W. Deem and Ramdas Pophale) SiO2 
 PCOD9568014
Probable space group: P 42/N B C
;
_chemical_formula_sum "Si O2"
_cell_formula_units_Z 48
_cell_length_a 8.915873
_cell_length_b 8.915873
_cell_length_c 22.561213
_cell_angle_alpha 90.000000
_cell_angle_beta 90.000000
_cell_angle_gamma 90.000000
_cell_volume 1793.453798
_symmetry_space_group_name_H-M "P 42/N B C"
_symmetry_group_IT_number 133
_space_group.IT_coordinate_system_code '2'
_symmetry_cell_setting 'tetragonal'
loop_
_space_group_symop_operation_xyz
x,y,z
1/2-y,x,1/2+z
1/2-x,1/2-y,z
y,1/2-x,1/2+z
x,1/2-y,-z
1/2-x,y,-z
y,x,1/2-z
1/2-y,1/2-x,1/2-z
-x,-y,-z
1/2+y,-x,1/2-z
1/2+x,1/2+y,-z
-y,1/2+x,1/2-z
-x,1/2+y,z
1/2+x,-y,z
-y,-x,1/2+z
1/2+y,1/2+x,1/2+z
loop_
_atom_site_type_symbol
_atom_site_label
_atom_site_fract_x
_atom_site_fract_y
_atom_site_fract_z
Si Si1 0.118829 0.567387 0.954957
Si Si2 0.387406 0.345033 0.626167
Si Si3 0.075845 0.629250 0.224777
O O1 0.215478 0.450364 0.917216
O O2 0.001541 0.652137 0.909407
O O3 0.250000 0.619644 0.000000
O O4 0.000000 0.500000 0.000000
O O5 0.250000 0.250000 0.654030
O O6 0.527489 0.381297 0.669426
O O7 0.088653 0.806357 0.222190
O O8 0.918266 0.581735 0.250000
#
# Coordination Sequence:
#
# PCOD9568014 Si02
#       3
#    16  16  16
#     4   9  21  44  71 109 150 193 257 319 394 485
#     4  11  24  44  75 105 153 206 257 324 404 472
#     4  11  27  47  74 110 152 198 264 326 393 472
#
# _framework density 26.764004
#
# number of rings (size 3 to 8) (size 9 to 14) (size 15 to 20)
#    0.000    1.667    0.000    2.000    9.333    6.000 
#    0.000   10.000    0.000    0.000    0.000    0.000 
#    0.000    0.000    0.000    0.000    0.000    0.000 
#
# Total GULP energy -267484.875774 kJ/mol
# GULP energy per Si atom -5572.601579 kJ/mol
# Density = 2.670309 g / cm^3
# Si number density = 26.764004 Si / 1000 Ang^3
#
#
#
# Elastic Constant Matrix: (Units=GPa)
#
#
# Indices 1 2 3 4 5 6 
#
# 1 147.4886 58.8499 54.4684 0.0000 0.0000 0.0000
# 2 58.8499 147.4850 54.4680 0.0000 0.0000 0.0000
# 3 54.4684 54.4680 135.2498 0.0000 0.0000 0.0000
# 4 0.0000 0.0000 0.0000 94.6836 0.0000 0.0000
# 5 0.0000 0.0000 0.0000 0.0000 94.6841 0.0000
# 6 0.0000 0.0000 0.0000 0.0000 0.0000 31.4837
#
#
#
# Elastic Compliance Matrix: (Units=1/GPa)
#
#
# Indices 1 2 3 4 5 6 
#
# 1 0.008718 -0.002563 -0.002479 0.000000 0.000000 0.000000
# 2 -0.002563 0.008719 -0.002479 0.000000 0.000000 0.000000
# 3 -0.002479 -0.002479 0.009390 0.000000 0.000000 0.000000
# 4 0.000000 0.000000 0.000000 0.010561 0.000000 0.000000
# 5 0.000000 0.000000 0.000000 0.000000 0.010561 0.000000
# 6 0.000000 0.000000 0.000000 0.000000 0.000000 0.031762
#
#
# Mechanical properties :
#
#
# Convention : Reuss Voigt Hill
#
# Bulk Modulus (GPa) = 84.85144 85.08844 84.96994
# Shear Modulus (GPa) = 50.66711 61.66609 56.16660
#
# Velocity S-wave (km/s) = 4.35570 4.80528 4.58600
# Velocity P-wave (km/s) = 7.55438 7.91510 7.73684
#
# Compressibility (1/GPa) = 0.01178530
#
# Stress axis : x y z
#
# Youngs Moduli (GPa) = 114.69923 114.69630 106.49305
#
# Poissons Ratio (x) = 0.29401 0.26397
# Poissons Ratio (y) = 0.29402 0.26398
# Poissons Ratio (z) = 0.28432 0.28431
#
# Static dielectric constant tensor:
#      x y z
#    x 0.216840 0.000000 0.000000 
#    y 0.000000 0.214970 0.000000 
#    z 0.000000 0.000000 2.160040 
# 
# From -- ./inp_files/7751.got.cif
#   From: 2010.05.17/outbox.cif.g08.bks.cpg/sg133_4_cif.got.tgz:7751.got - 2010.05.20 12:37:36.
