data_PCOD9568179
_publ_section_title
;
Structure prediction by ZEFSAII (Michael W. Deem and Ramdas Pophale) SiO2 
 PCOD9568179
Probable space group: P 42/N N M
;
_chemical_formula_sum "Si O2"
_cell_formula_units_Z 72
_cell_length_a 20.570906
_cell_length_b 20.570906
_cell_length_c 9.748099
_cell_angle_alpha 90.000000
_cell_angle_beta 90.000000
_cell_angle_gamma 90.000000
_cell_volume 4125.026762
_symmetry_space_group_name_H-M "P 42/N N M"
_symmetry_group_IT_number 134
_space_group.IT_coordinate_system_code '2'
_symmetry_cell_setting 'tetragonal'
loop_
_space_group_symop_operation_xyz
x,y,z
1/2-y,x,1/2+z
1/2-x,1/2-y,z
y,1/2-x,1/2+z
x,1/2-y,1/2-z
1/2-x,y,1/2-z
y,x,-z
1/2-y,1/2-x,-z
-x,-y,-z
1/2+y,-x,1/2-z
1/2+x,1/2+y,-z
-y,1/2+x,1/2-z
-x,1/2+y,1/2+z
1/2+x,-y,1/2+z
-y,-x,z
1/2+y,1/2+x,z
loop_
_atom_site_type_symbol
_atom_site_label
_atom_site_fract_x
_atom_site_fract_y
_atom_site_fract_z
Si Si1 0.829214 0.829214 0.000000
Si Si2 0.988081 0.011920 0.280434
Si Si3 0.486885 0.796265 0.127380
Si Si4 0.906286 0.606754 0.250011
Si Si5 0.920231 0.079770 0.526836
Si Si6 0.721647 0.585011 0.401839
O O1 0.868060 0.856813 0.130301
O O2 0.755657 0.850989 0.033063
O O3 0.942860 0.057141 0.376238
O O4 0.040151 0.057963 0.205074
O O5 0.033984 0.966017 0.376455
O O6 0.463053 0.750000 0.250000
O O7 0.541211 0.842797 0.194908
O O8 0.435817 0.845819 0.061329
O O9 0.526083 0.761737 0.004143
O O10 0.854873 0.590108 0.129609
O O11 0.750000 0.574059 0.250000
#
# Coordination Sequence:
#
# PCOD9568179 Si02
#       6
#     8   8  16  16   8  16
#     4  10  20  33  45  74 106 142 186 219 255 308
#     4   9  16  29  50  74 100 132 175 216 262 326
#     4  11  19  34  56  74 102 136 172 224 271 317
#     4  10  19  32  52  72 102 140 179 219 269 312
#     4   9  18  30  50  81  98 129 180 214 269 326
#     4  10  20  33  50  69 104 144 178 217 257 314
#
# _framework density 17.454432000000001
#
# number of rings (size 3 to 8) (size 9 to 14) (size 15 to 20)
#    0.000    2.000    4.444    0.667    0.000    0.444 
#    0.000    2.222    0.000    1.667    0.000    0.000 
#    0.000    0.000    0.000    0.000    0.000    0.000 
#
# Total GULP energy -401139.951229 kJ/mol
# GULP energy per Si atom -5571.388212 kJ/mol
# Density = 1.741471 g / cm^3
# Si number density = 17.454432 Si / 1000 Ang^3
#
#
#
# Elastic Constant Matrix: (Units=GPa)
#
#
# Indices 1 2 3 4 5 6 
#
# 1 74.7966 14.8132 11.8066 0.0000 0.0000 0.0000
# 2 14.8132 74.7966 11.8066 0.0000 0.0000 0.0000
# 3 11.8066 11.8066 64.3645 0.0000 0.0000 0.0000
# 4 0.0000 0.0000 0.0000 9.7973 0.0000 0.0000
# 5 0.0000 0.0000 0.0000 0.0000 9.7973 0.0000
# 6 0.0000 0.0000 0.0000 0.0000 0.0000 30.4667
#
#
#
# Elastic Compliance Matrix: (Units=1/GPa)
#
#
# Indices 1 2 3 4 5 6 
#
# 1 0.014199 -0.002472 -0.002151 0.000000 0.000000 0.000000
# 2 -0.002472 0.014199 -0.002151 0.000000 0.000000 0.000000
# 3 -0.002151 -0.002151 0.016326 0.000000 0.000000 0.000000
# 4 0.000000 0.000000 0.000000 0.102069 0.000000 0.000000
# 5 0.000000 0.000000 0.000000 0.000000 0.102069 0.000000
# 6 0.000000 0.000000 0.000000 0.000000 0.000000 0.032823
#
#
# Mechanical properties :
#
#
# Convention : Reuss Voigt Hill
#
# Bulk Modulus (GPa) = 32.07773 32.31227 32.19500
# Shear Modulus (GPa) = 16.35998 21.71435 19.03716
#
# Velocity S-wave (km/s) = 3.06485 3.53095 3.30612
# Velocity P-wave (km/s) = 5.56258 5.93094 5.74971
#
# Compressibility (1/GPa) = 0.03117428
#
# Stress axis : x y z
#
# Youngs Moduli (GPa) = 70.42857 70.42857 61.25330
#
# Poissons Ratio (x) = 0.17413 0.13176
# Poissons Ratio (y) = 0.17413 0.13176
# Poissons Ratio (z) = 0.15149 0.15149
#
# Static dielectric constant tensor:
#      x y z
#    x 1.621360 0.000000 0.000000 
#    y 0.000000 1.621360 0.000000 
#    z 0.000000 0.000000 1.648570 
# 
# From -- ./inp_files/2963.got.cif
#   From: 2010.05.17/outbox.cif.g08.bks.cpg/sg134_2_cif.got.tgz:2963.got - 2010.05.20 12:42:49.
