data_PCOD9568976
_publ_section_title
;
Structure prediction by ZEFSAII (Michael W. Deem and Ramdas Pophale) SiO2 
 PCOD9568976
Probable space group: P 42/M B C
;
_chemical_formula_sum "Si O2"
_cell_formula_units_Z 88
_cell_length_a 14.145736
_cell_length_b 14.145736
_cell_length_c 21.088338
_cell_angle_alpha 90.000000
_cell_angle_beta 90.000000
_cell_angle_gamma 90.000000
_cell_volume 4219.815384
_symmetry_space_group_name_H-M "P 42/M B C"
_symmetry_group_IT_number 135
_symmetry_cell_setting 'tetragonal'
loop_
_space_group_symop_operation_xyz
x,y,z
-y,x,1/2+z
-x,-y,z
y,-x,1/2+z
1/2+x,1/2-y,-z
1/2-x,1/2+y,-z
1/2+y,1/2+x,1/2-z
1/2-y,1/2-x,1/2-z
-x,-y,-z
y,-x,1/2-z
x,y,-z
-y,x,1/2-z
1/2-x,1/2+y,z
1/2+x,1/2-y,z
1/2-y,1/2-x,1/2+z
1/2+y,1/2+x,1/2+z
loop_
_atom_site_type_symbol
_atom_site_label
_atom_site_fract_x
_atom_site_fract_y
_atom_site_fract_z
Si Si1 0.752104 0.295331 0.322024
Si Si2 0.142343 0.881000 0.622667
Si Si3 0.068287 0.254487 0.000000
Si Si4 0.494728 0.780752 0.795280
Si Si5 0.080514 0.422237 0.392909
Si Si6 0.228200 0.964574 0.151745
O O1 0.757386 0.257386 0.250000
O O2 0.805065 0.220475 0.366226
O O3 0.795407 0.399616 0.321392
O O4 0.643413 0.303436 0.341562
O O5 0.174037 0.921524 0.555923
O O6 0.185023 0.949140 0.676621
O O7 0.033275 0.855480 0.631063
O O8 0.065128 0.337658 0.055486
O O9 0.433786 0.866084 0.824784
O O10 0.498380 0.767848 0.720136
O O11 0.036586 0.317730 0.395188
O O12 0.000000 0.500000 0.399330
#
# Coordination Sequence:
#
# PCOD9568976 Si02
#       6
#    16  16   8  16  16  16
#     4  12  21  40  65  96 136 167 213 281 344 408
#     4  11  24  42  63  92 133 182 221 281 336 405
#     4  10  23  46  60  87 140 174 228 278 326 399
#     4  11  22  38  63  99 140 168 211 290 355 410
#     4  11  23  38  67  98 130 178 226 289 343 403
#     4  12  21  39  68  97 134 173 226 278 352 408
#
# _framework density 20.853992999999999
#
# number of rings (size 3 to 8) (size 9 to 14) (size 15 to 20)
#    0.000    0.727    7.273    1.909    0.000    2.182 
#    0.000    9.091    0.000    4.364    0.000    0.000 
#    0.000    0.000    0.000    0.000    0.000    0.000 
#
# Total GULP energy -489958.771233 kJ/mol
# GULP energy per Si atom -5567.713309 kJ/mol
# Density = 2.080653 g / cm^3
# Si number density = 20.853993 Si / 1000 Ang^3
#
#
#
# Elastic Constant Matrix: (Units=GPa)
#
#
# Indices 1 2 3 4 5 6 
#
# 1 60.1562 -2.3149 2.2888 0.0000 0.0000 0.0000
# 2 -2.3149 60.1562 2.2888 0.0000 0.0000 0.0000
# 3 2.2888 2.2888 68.0427 0.0000 0.0000 0.0000
# 4 0.0000 0.0000 0.0000 -6.2494 0.0000 0.0000
# 5 0.0000 0.0000 0.0000 0.0000 -6.2494 0.0000
# 6 0.0000 0.0000 0.0000 0.0000 0.0000 39.4954
#
#
#
# Elastic Compliance Matrix: (Units=1/GPa)
#
#
# Indices 1 2 3 4 5 6 
#
# 1 0.016671 0.000664 -0.000583 0.000000 0.000000 0.000000
# 2 0.000664 0.016671 -0.000583 0.000000 0.000000 0.000000
# 3 -0.000583 -0.000583 0.014736 0.000000 0.000000 0.000000
# 4 0.000000 0.000000 0.000000 -0.160016 0.000000 0.000000
# 5 0.000000 0.000000 0.000000 0.000000 -0.160016 0.000000
# 6 0.000000 0.000000 0.000000 0.000000 0.000000 0.025319
#
#
# Mechanical properties :
#
#
# Convention : Reuss Voigt Hill
#
# Bulk Modulus (GPa) = 21.24356 21.43119 21.33738
# Shear Modulus (GPa) = -21.74496 17.80549 -1.96973
#
# Velocity S-wave (km/s) = -3.23263 2.92518 -0.97293
# Velocity P-wave (km/s) = 1.92983 4.65919 2.99865
#
# Compressibility (1/GPa) = 0.04707308
#
# Stress axis : x y z
#
# Youngs Moduli (GPa) = 59.98403 59.98403 67.86152
#
# Poissons Ratio (x) = -0.03981 0.03957
# Poissons Ratio (y) = -0.03981 0.03957
# Poissons Ratio (z) = 0.03498 0.03498
#
# Static dielectric constant tensor:
#      x y z
#    x 1.772340 0.000000 0.000000 
#    y 0.000000 1.772340 0.000000 
#    z 0.000000 0.000000 1.723730 
# 
# From -- ./inp_files/5338.got.cif
#   From: 2010.05.17/outbox.cif.g08.bks.cpg/sg135_3_cif.got.tgz:5338.got - 2010.05.20 12:50:20.
