data_PCOD9568154
_publ_section_title
;
Structure prediction by ZEFSAII (Michael W. Deem and Ramdas Pophale) SiO2 
 PCOD9568154
Probable space group: P 42/N N M
;
_chemical_formula_sum "Si O2"
_cell_formula_units_Z 80
_cell_length_a 10.956787
_cell_length_b 10.956787
_cell_length_c 33.323127
_cell_angle_alpha 90.000000
_cell_angle_beta 90.000000
_cell_angle_gamma 90.000000
_cell_volume 4000.480763
_symmetry_space_group_name_H-M "P 42/N N M"
_symmetry_group_IT_number 134
_space_group.IT_coordinate_system_code '2'
_symmetry_cell_setting 'tetragonal'
loop_
_space_group_symop_operation_xyz
x,y,z
1/2-y,x,1/2+z
1/2-x,1/2-y,z
y,1/2-x,1/2+z
x,1/2-y,1/2-z
1/2-x,y,1/2-z
y,x,-z
1/2-y,1/2-x,-z
-x,-y,-z
1/2+y,-x,1/2-z
1/2+x,1/2+y,-z
-y,1/2+x,1/2-z
-x,1/2+y,1/2+z
1/2+x,-y,1/2+z
-y,-x,z
1/2+y,1/2+x,z
loop_
_atom_site_type_symbol
_atom_site_label
_atom_site_fract_x
_atom_site_fract_y
_atom_site_fract_z
Si Si1 0.739935 0.441163 0.925703
Si Si2 0.949100 0.754587 0.508537
Si Si3 0.914470 0.874074 0.364754
Si Si4 0.046797 0.744114 0.296212
Si Si5 0.741975 0.048898 0.401202
O O1 0.608966 0.391035 0.912290
O O2 0.838022 0.338022 0.914423
O O3 0.789654 0.560114 0.903740
O O4 0.740560 0.453884 0.973284
O O5 0.882902 0.882902 0.500000
O O6 0.850081 0.649920 0.500000
O O7 0.999040 0.742811 0.553229
O O8 0.943769 0.788258 0.327022
O O9 0.786919 0.942345 0.371446
O O10 0.016457 0.983544 0.363686
O O11 0.005419 0.750000 0.250000
O O12 0.154894 0.845107 0.299545
O O13 0.115098 0.615098 0.304407
O O14 0.845742 0.154259 0.399903
O O15 0.614734 0.114734 0.392005
#
# Coordination Sequence:
#
# PCOD9568154 Si02
#       5
#    16  16  16  16  16
#     4  10  19  30  47  68  89 122 168 214 261 311
#     4  11  22  34  47  64  90 128 174 218 267 315
#     4   9  16  27  43  64  94 129 167 212 253 300
#     4   8  13  22  39  66 100 135 165 192 235 305
#     4  10  20  33  49  67  90 130 182 227 264 303
#
# _framework density 19.997595
#
# number of rings (size 3 to 8) (size 9 to 14) (size 15 to 20)
#    0.000    2.400    2.000    2.400    0.000    6.400 
#    0.000    0.000    0.000    0.000    0.000    0.000 
#    0.000    3.200    0.000   16.400    0.000   75.800 
#
# Total GULP energy -446133.230017 kJ/mol
# GULP energy per Si atom -5576.665375 kJ/mol
# Density = 1.995208 g / cm^3
# Si number density = 19.997595 Si / 1000 Ang^3
#
#
#
# Elastic Constant Matrix: (Units=GPa)
#
#
# Indices 1 2 3 4 5 6 
#
# 1 54.9909 63.8976 39.3619 0.0000 0.0000 0.0000
# 2 63.8976 54.9908 39.3622 0.0000 0.0000 0.0000
# 3 39.3619 39.3622 115.8967 0.0000 0.0000 0.0000
# 4 0.0000 0.0000 0.0000 5.8799 0.0000 0.0000
# 5 0.0000 0.0000 0.0000 0.0000 5.8772 0.0000
# 6 0.0000 0.0000 0.0000 0.0000 0.0000 35.5283
#
#
#
# Elastic Compliance Matrix: (Units=1/GPa)
#
#
# Indices 1 2 3 4 5 6 
#
# 1 -0.050711 0.061563 -0.003686 0.000000 0.000000 0.000000
# 2 0.061563 -0.050712 -0.003685 0.000000 0.000000 0.000000
# 3 -0.003686 -0.003685 0.011132 0.000000 0.000000 0.000000
# 4 0.000000 0.000000 0.000000 0.170070 0.000000 0.000000
# 5 0.000000 0.000000 0.000000 0.000000 0.170150 0.000000
# 6 0.000000 0.000000 0.000000 0.000000 0.000000 0.028147
#
#
# Mechanical properties :
#
#
# Convention : Reuss Voigt Hill
#
# Bulk Modulus (GPa) = 55.27007 56.79132 56.03069
# Shear Modulus (GPa) = 28.45387 15.00752 21.73070
#
# Velocity S-wave (km/s) = 3.77618 2.74244 3.30004
# Velocity P-wave (km/s) = 6.83455 6.20392 6.52686
#
# Compressibility (1/GPa) = 0.01809298
#
# Stress axis : x y z
#
# Youngs Moduli (GPa) = -19.71956 -19.71938 89.83238
#
# Poissons Ratio (x) = 1.21398 0.33111
# Poissons Ratio (y) = 1.21400 0.33106
# Poissons Ratio (z) = -0.07268 -0.07267
#
# Static dielectric constant tensor:
#      x y z
#    x 1.764350 0.000000 0.000000 
#    y 0.000000 1.764350 0.000000 
#    z 0.000000 0.000000 1.684150 
# 
# From -- ./inp_files/11307.got.cif
#   From: 2010.05.17/outbox.cif.g08.bks.cpg/sg134_6_cif.got.tgz:11307.got - 2010.05.20 12:42:49.
