data_PCOD9568481
_publ_section_title
;
Structure prediction by ZEFSAII (Michael W. Deem and Ramdas Pophale) SiO2 
 PCOD9568481
Probable space group: P 42/N N M
;
_chemical_formula_sum "Si O2"
_cell_formula_units_Z 48
_cell_length_a 13.906169
_cell_length_b 13.906169
_cell_length_c 11.166190
_cell_angle_alpha 90.000000
_cell_angle_beta 90.000000
_cell_angle_gamma 90.000000
_cell_volume 2159.334976
_symmetry_space_group_name_H-M "P 42/N N M"
_symmetry_group_IT_number 134
_space_group.IT_coordinate_system_code '2'
_symmetry_cell_setting 'tetragonal'
loop_
_space_group_symop_operation_xyz
x,y,z
1/2-y,x,1/2+z
1/2-x,1/2-y,z
y,1/2-x,1/2+z
x,1/2-y,1/2-z
1/2-x,y,1/2-z
y,x,-z
1/2-y,1/2-x,-z
-x,-y,-z
1/2+y,-x,1/2-z
1/2+x,1/2+y,-z
-y,1/2+x,1/2-z
-x,1/2+y,1/2+z
1/2+x,-y,1/2+z
-y,-x,z
1/2+y,1/2+x,z
loop_
_atom_site_type_symbol
_atom_site_label
_atom_site_fract_x
_atom_site_fract_y
_atom_site_fract_z
Si Si1 0.713409 0.063188 0.120450
Si Si2 0.305182 0.439114 0.065035
Si Si3 0.055440 0.097473 0.682318
O O1 0.750000 0.094126 0.250000
O O2 0.648801 0.148801 0.068068
O O3 0.643319 0.973053 0.151874
O O4 0.795168 0.024840 0.031386
O O5 0.197807 0.429695 0.115863
O O6 0.375567 0.454312 0.177694
O O7 0.344739 0.344739 0.000000
O O8 0.960033 0.039968 0.644354
#
# Coordination Sequence:
#
# PCOD9568481 Si02
#       3
#    16  16  16
#     4  11  23  41  63  95 133 174 214 268 331 391
#     4  11  22  40  66 100 127 171 220 274 319 387
#     4  10  23  42  64  93 135 178 214 264 336 395
#
# _framework density 22.229068000000002
#
# number of rings (size 3 to 8) (size 9 to 14) (size 15 to 20)
#    0.000    1.333    3.333    2.000    0.000    7.667 
#    0.000    0.000    0.000   16.000    0.000    0.000 
#    0.000    0.000    0.000    0.000    0.000    0.000 
#
# Total GULP energy -268443.405096 kJ/mol
# GULP energy per Si atom -5592.570939 kJ/mol
# Density = 2.217847 g / cm^3
# Si number density = 22.229068 Si / 1000 Ang^3
#
#
#
# Elastic Constant Matrix: (Units=GPa)
#
#
# Indices 1 2 3 4 5 6 
#
# 1 82.6426 53.1916 29.8728 0.0000 0.0000 0.0000
# 2 53.1916 82.6426 29.8728 0.0000 0.0000 0.0000
# 3 29.8728 29.8728 130.5819 0.0000 0.0000 0.0000
# 4 0.0000 0.0000 0.0000 -10.2551 0.0000 0.0000
# 5 0.0000 0.0000 0.0000 0.0000 -10.2551 0.0000
# 6 0.0000 0.0000 0.0000 0.0000 0.0000 38.4038
#
#
#
# Elastic Compliance Matrix: (Units=1/GPa)
#
#
# Indices 1 2 3 4 5 6 
#
# 1 0.021070 -0.012885 -0.001873 0.000000 0.000000 0.000000
# 2 -0.012885 0.021070 -0.001873 0.000000 0.000000 0.000000
# 3 -0.001873 -0.001873 0.008515 0.000000 0.000000 0.000000
# 4 0.000000 0.000000 0.000000 -0.097512 0.000000 0.000000
# 5 0.000000 0.000000 0.000000 0.000000 -0.097512 0.000000
# 6 0.000000 0.000000 0.000000 0.000000 0.000000 0.026039
#
#
# Mechanical properties :
#
#
# Convention : Reuss Voigt Hill
#
# Bulk Modulus (GPa) = 57.48587 57.97128 57.72857
# Shear Modulus (GPa) = -63.07412 15.77403 -23.65005
#
# Velocity S-wave (km/s) = -5.33256 2.66675 -3.26532
# Velocity P-wave (km/s) = 3.46383 5.96806 3.43654
#
# Compressibility (1/GPa) = 0.01739558
#
# Stress axis : x y z
#
# Youngs Moduli (GPa) = 47.46049 47.46049 117.44260
#
# Poissons Ratio (x) = 0.61151 0.21992
# Poissons Ratio (y) = 0.61151 0.21992
# Poissons Ratio (z) = 0.08887 0.08887
#
# Static dielectric constant tensor:
#      x y z
#    x 1.795350 0.000000 0.000000 
#    y 0.000000 1.795350 0.000000 
#    z 0.000000 0.000000 1.870790 
# 
# From -- ./inp_files/2080.got.cif
#   From: 2010.05.17/outbox.cif.g08.bks.cpg/sg134_2_cif.got.tgz:2080.got - 2010.05.20 12:42:49.
