data_PCOD9568671
_publ_section_title
;
Structure prediction by ZEFSAII (Michael W. Deem and Ramdas Pophale) SiO2 
 PCOD9568671
Probable space group: P 42/M B C
;
_chemical_formula_sum "Si O2"
_cell_formula_units_Z 96
_cell_length_a 13.348491
_cell_length_b 13.348491
_cell_length_c 31.566064
_cell_angle_alpha 90.000000
_cell_angle_beta 90.000000
_cell_angle_gamma 90.000000
_cell_volume 5624.511107
_symmetry_space_group_name_H-M "P 42/M B C"
_symmetry_group_IT_number 135
_symmetry_cell_setting 'tetragonal'
loop_
_space_group_symop_operation_xyz
x,y,z
-y,x,1/2+z
-x,-y,z
y,-x,1/2+z
1/2+x,1/2-y,-z
1/2-x,1/2+y,-z
1/2+y,1/2+x,1/2-z
1/2-y,1/2-x,1/2-z
-x,-y,-z
y,-x,1/2-z
x,y,-z
-y,x,1/2-z
1/2-x,1/2+y,z
1/2+x,1/2-y,z
1/2-y,1/2-x,1/2+z
1/2+y,1/2+x,1/2+z
loop_
_atom_site_type_symbol
_atom_site_label
_atom_site_fract_x
_atom_site_fract_y
_atom_site_fract_z
Si Si1 0.865018 0.709839 0.109018
Si Si2 0.976394 0.836207 0.245159
Si Si3 0.057897 0.763461 0.157000
Si Si4 0.114180 0.712240 0.381040
Si Si5 0.617196 0.025769 0.048123
Si Si6 0.079131 0.231349 0.666872
O O1 0.785725 0.798376 0.103975
O O2 0.869774 0.634650 0.069513
O O3 0.824333 0.640786 0.147822
O O4 0.971060 0.755991 0.122221
O O5 0.932971 0.768760 0.282733
O O6 0.075640 0.894763 0.262179
O O7 0.006815 0.776851 0.203012
O O8 0.127476 0.666645 0.148261
O O9 0.132076 0.858751 0.154010
O O10 0.055667 0.667042 0.421032
O O11 0.030098 0.768325 0.353765
O O12 0.500000 0.000000 0.047466
O O13 0.655613 0.023207 0.000000
#
# Coordination Sequence:
#
# PCOD9568671 Si02
#       6
#    16  16  16  16  16  16
#     4  10  20  34  56  79 104 138 176 213 265 315
#     4   9  17  30  48  71 104 145 179 213 259 303
#     4  10  19  33  52  75 107 141 178 221 256 306
#     4  10  20  35  55  80 104 138 175 215 263 316
#     4  10  20  37  59  79 105 137 170 215 266 321
#     4   9  20  33  49  78 105 139 182 216 259 310
#
# _framework density 17.068149999999999
#
# number of rings (size 3 to 8) (size 9 to 14) (size 15 to 20)
#    0.000    2.333    1.667    1.000    0.000    4.000 
#    0.000    5.000    0.000    2.000    0.000    4.667 
#    0.000    0.000    0.000    0.000    0.000    0.000 
#
# Total GULP energy -535096.422705 kJ/mol
# GULP energy per Si atom -5573.921070 kJ/mol
# Density = 1.702930 g / cm^3
# Si number density = 17.068150 Si / 1000 Ang^3
#
#
#
# Elastic Constant Matrix: (Units=GPa)
#
#
# Indices 1 2 3 4 5 6 
#
# 1 65.1598 25.4760 36.5741 0.0000 0.0000 0.0000
# 2 25.4760 65.1598 36.5741 0.0000 0.0000 0.0000
# 3 36.5741 36.5741 92.0786 0.0000 0.0000 0.0000
# 4 0.0000 0.0000 0.0000 15.9807 0.0000 0.0000
# 5 0.0000 0.0000 0.0000 0.0000 15.9807 0.0000
# 6 0.0000 0.0000 0.0000 0.0000 0.0000 10.0912
#
#
#
# Elastic Compliance Matrix: (Units=1/GPa)
#
#
# Indices 1 2 3 4 5 6 
#
# 1 0.020719 -0.004480 -0.006450 0.000000 0.000000 0.000000
# 2 -0.004480 0.020719 -0.006450 0.000000 0.000000 0.000000
# 3 -0.006450 -0.006450 0.015984 0.000000 0.000000 0.000000
# 4 0.000000 0.000000 0.000000 0.062576 0.000000 0.000000
# 5 0.000000 0.000000 0.000000 0.000000 0.062576 0.000000
# 6 0.000000 0.000000 0.000000 0.000000 0.000000 0.099096
#
#
# Mechanical properties :
#
#
# Convention : Reuss Voigt Hill
#
# Bulk Modulus (GPa) = 44.12791 46.62738 45.37764
# Shear Modulus (GPa) = 15.43284 16.66211 16.04748
#
# Velocity S-wave (km/s) = 3.01024 3.12783 3.06959
# Velocity P-wave (km/s) = 6.16377 6.35783 6.26156
#
# Compressibility (1/GPa) = 0.02266140
#
# Stress axis : x y z
#
# Youngs Moduli (GPa) = 48.26486 48.26486 62.56130
#
# Poissons Ratio (x) = 0.21624 0.40353
# Poissons Ratio (y) = 0.21624 0.40353
# Poissons Ratio (z) = 0.31131 0.31131
#
# Static dielectric constant tensor:
#      x y z
#    x 1.578370 0.000000 0.000000 
#    y 0.000000 1.578370 0.000000 
#    z 0.000000 0.000000 1.563560 
# 
# From -- ./inp_files/6850.got.cif
#   From: 2010.05.17/outbox.cif.g08.bks.cpg/sg135_4_cif.got.tgz:6850.got - 2010.05.20 12:50:20.
