data_PCOD9568638
_publ_section_title
;
Structure prediction by ZEFSAII (Michael W. Deem and Ramdas Pophale) SiO2 
 PCOD9568638
Probable space group: P 42/M B C
;
_chemical_formula_sum "Si O2"
_cell_formula_units_Z 96
_cell_length_a 24.572513
_cell_length_b 24.572513
_cell_length_c 8.906362
_cell_angle_alpha 90.000000
_cell_angle_beta 90.000000
_cell_angle_gamma 90.000000
_cell_volume 5377.736146
_symmetry_space_group_name_H-M "P 42/M B C"
_symmetry_group_IT_number 135
_symmetry_cell_setting 'tetragonal'
loop_
_space_group_symop_operation_xyz
x,y,z
-y,x,1/2+z
-x,-y,z
y,-x,1/2+z
1/2+x,1/2-y,-z
1/2-x,1/2+y,-z
1/2+y,1/2+x,1/2-z
1/2-y,1/2-x,1/2-z
-x,-y,-z
y,-x,1/2-z
x,y,-z
-y,x,1/2-z
1/2-x,1/2+y,z
1/2+x,1/2-y,z
1/2-y,1/2-x,1/2+z
1/2+y,1/2+x,1/2+z
loop_
_atom_site_type_symbol
_atom_site_label
_atom_site_fract_x
_atom_site_fract_y
_atom_site_fract_z
Si Si1 0.564537 0.459698 0.831607
Si Si2 0.234255 0.066712 0.183245
Si Si3 0.567273 0.150562 0.319551
Si Si4 0.860250 0.444350 0.180952
Si Si5 0.056955 0.222800 0.319335
Si Si6 0.356878 0.641654 0.172709
O O1 0.508215 0.430567 0.786465
O O2 0.610470 0.415128 0.828149
O O3 0.562305 0.482648 0.000000
O O4 0.297817 0.069240 0.223598
O O5 0.200582 0.119618 0.236415
O O6 0.212857 0.006205 0.229734
O O7 0.230732 0.067097 0.000000
O O8 0.614437 0.114437 0.250000
O O9 0.570224 0.147588 0.500000
O O10 0.507146 0.130053 0.273756
O O11 0.569949 0.214486 0.279832
O O12 0.903042 0.403042 0.250000
O O13 0.863012 0.441953 0.000000
O O14 0.056980 0.217706 0.500000
O O15 0.103784 0.183949 0.255215
O O16 0.349790 0.660149 0.000000
#
# Coordination Sequence:
#
# PCOD9568638 Si02
#       6
#    16  16  16  16  16  16
#     4  10  19  29  42  62  89 121 159 205 258 305
#     4   8  16  33  52  68  95 134 167 198 244 296
#     4   9  19  35  55  78 103 132 162 194 239 292
#     4   9  18  34  55  77 101 130 162 195 237 291
#     4   9  18  34  53  71  96 132 169 204 244 290
#     4  10  19  30  47  70  93 125 168 208 247 289
#
# _framework density 17.851378
#
# number of rings (size 3 to 8) (size 9 to 14) (size 15 to 20)
#    0.000    2.833    0.000    4.000    0.000    4.333 
#    0.000    6.667    0.000    4.000    0.000    0.000 
#    0.000    0.000    0.000    0.000    0.000    0.000 
#
# Total GULP energy -534643.342706 kJ/mol
# GULP energy per Si atom -5569.201487 kJ/mol
# Density = 1.781075 g / cm^3
# Si number density = 17.851378 Si / 1000 Ang^3
#
#
#
# Elastic Constant Matrix: (Units=GPa)
#
#
# Indices 1 2 3 4 5 6 
#
# 1 80.0177 64.2631 18.6657 0.0000 0.0000 0.0000
# 2 64.2631 80.0177 18.6657 0.0000 0.0000 0.0000
# 3 18.6657 18.6657 16.0871 0.0000 0.0000 0.0000
# 4 0.0000 0.0000 0.0000 24.1965 0.0000 0.0000
# 5 0.0000 0.0000 0.0000 0.0000 24.1965 0.0000
# 6 0.0000 0.0000 0.0000 0.0000 0.0000 39.7809
#
#
#
# Elastic Compliance Matrix: (Units=1/GPa)
#
#
# Indices 1 2 3 4 5 6 
#
# 1 0.036689 -0.026784 -0.011492 0.000000 0.000000 0.000000
# 2 -0.026784 0.036689 -0.011492 0.000000 0.000000 0.000000
# 3 -0.011492 -0.011492 0.088830 0.000000 0.000000 0.000000
# 4 0.000000 0.000000 0.000000 0.041328 0.000000 0.000000
# 5 0.000000 0.000000 0.000000 0.000000 0.041328 0.000000
# 6 0.000000 0.000000 0.000000 0.000000 0.000000 0.025138
#
#
# Mechanical properties :
#
#
# Convention : Reuss Voigt Hill
#
# Bulk Modulus (GPa) = 15.95645 42.14574 29.05110
# Shear Modulus (GPa) = 12.80643 22.60329 17.70486
#
# Velocity S-wave (km/s) = 2.68132 3.56222 3.15269
# Velocity P-wave (km/s) = 4.30626 6.37022 5.43708
#
# Compressibility (1/GPa) = 0.06267058
#
# Stress axis : x y z
#
# Youngs Moduli (GPa) = 27.25624 27.25624 11.25749
#
# Poissons Ratio (x) = 0.73004 0.12937
# Poissons Ratio (y) = 0.73004 0.12937
# Poissons Ratio (z) = 0.31323 0.31323
#
# Static dielectric constant tensor:
#      x y z
#    x 1.627610 0.000000 0.000000 
#    y 0.000000 1.627610 0.000000 
#    z 0.000000 0.000000 1.616460 
# 
# From -- ./inp_files/1242.got.cif
#   From: 2010.05.17/outbox.cif.g08.bks.cpg/sg135_1_cif.got.tgz:1242.got - 2010.05.20 12:50:20.
