data_PCOD9568640
_publ_section_title
;
Structure prediction by ZEFSAII (Michael W. Deem and Ramdas Pophale) SiO2 
 PCOD9568640
Probable space group: P 42/M B C
;
_chemical_formula_sum "Si O2"
_cell_formula_units_Z 80
_cell_length_a 15.301962
_cell_length_b 15.301962
_cell_length_c 14.182328
_cell_angle_alpha 90.000000
_cell_angle_beta 90.000000
_cell_angle_gamma 90.000000
_cell_volume 3320.792683
_symmetry_space_group_name_H-M "P 42/M B C"
_symmetry_group_IT_number 135
_symmetry_cell_setting 'tetragonal'
loop_
_space_group_symop_operation_xyz
x,y,z
-y,x,1/2+z
-x,-y,z
y,-x,1/2+z
1/2+x,1/2-y,-z
1/2-x,1/2+y,-z
1/2+y,1/2+x,1/2-z
1/2-y,1/2-x,1/2-z
-x,-y,-z
y,-x,1/2-z
x,y,-z
-y,x,1/2-z
1/2-x,1/2+y,z
1/2+x,1/2-y,z
1/2-y,1/2-x,1/2+z
1/2+y,1/2+x,1/2+z
loop_
_atom_site_type_symbol
_atom_site_label
_atom_site_fract_x
_atom_site_fract_y
_atom_site_fract_z
Si Si1 0.483571 0.852238 0.289300
Si Si2 0.760218 0.505778 0.602813
Si Si3 0.209666 0.313774 0.106573
Si Si4 0.945020 0.129520 0.764101
Si Si5 0.234269 0.629936 0.111937
O O1 0.439429 0.939429 0.250000
O O2 0.522302 0.813762 0.193630
O O3 0.399216 0.798165 0.328632
O O4 0.560364 0.842908 0.365439
O O5 0.789063 0.475983 0.500000
O O6 0.770802 0.611613 0.604565
O O7 0.667722 0.466508 0.632309
O O8 0.274537 0.234268 0.131962
O O9 0.228866 0.342540 0.000000
O O10 0.900809 0.190339 0.684681
O O11 0.041067 0.107763 0.725348
O O12 0.255732 0.624468 0.000000
#
# Coordination Sequence:
#
# PCOD9568640 Si02
#       5
#    16  16  16  16  16
#     4   9  18  31  50  71 101 140 181 231 281 327
#     4   9  17  30  46  65  94 137 180 219 269 322
#     4   9  16  29  48  70  99 132 174 230 277 327
#     4  10  19  29  43  65  99 143 186 224 260 318
#     4  10  19  31  49  74 101 140 191 230 277 341
#
# _framework density 24.090631999999999
#
# number of rings (size 3 to 8) (size 9 to 14) (size 15 to 20)
#    0.000    2.600    2.000    0.600    0.000    1.600 
#    0.000    2.000    0.000    1.200    0.000    0.000 
#    0.000    7.200    0.000   44.400   25.600    6.800 
#
# Total GULP energy -446130.741857 kJ/mol
# GULP energy per Si atom -5576.634273 kJ/mol
# Density = 2.403580 g / cm^3
# Si number density = 24.090632 Si / 1000 Ang^3
#
#
#
# Elastic Constant Matrix: (Units=GPa)
#
#
# Indices 1 2 3 4 5 6 
#
# 1 68.5387 79.7391 46.1880 0.0000 0.0000 0.0000
# 2 79.7391 68.5387 46.1880 0.0000 0.0000 0.0000
# 3 46.1880 46.1880 169.2382 0.0000 0.0000 0.0000
# 4 0.0000 0.0000 0.0000 123.3158 0.0000 0.0000
# 5 0.0000 0.0000 0.0000 0.0000 123.3158 0.0000
# 6 0.0000 0.0000 0.0000 0.0000 0.0000 52.7101
#
#
#
# Elastic Compliance Matrix: (Units=1/GPa)
#
#
# Indices 1 2 3 4 5 6 
#
# 1 -0.040579 0.048704 -0.002218 0.000000 0.000000 0.000000
# 2 0.048704 -0.040579 -0.002218 0.000000 0.000000 0.000000
# 3 -0.002218 -0.002218 0.007119 0.000000 0.000000 0.000000
# 4 0.000000 0.000000 0.000000 0.008109 0.000000 0.000000
# 5 0.000000 0.000000 0.000000 0.000000 0.008109 0.000000
# 6 0.000000 0.000000 0.000000 0.000000 0.000000 0.018972
#
#
# Mechanical properties :
#
#
# Convention : Reuss Voigt Hill
#
# Bulk Modulus (GPa) = 68.96506 72.28284 70.62395
# Shear Modulus (GPa) = -40.79876 68.81504 14.00814
#
# Velocity S-wave (km/s) = -4.11974 5.35043 2.41400
# Velocity P-wave (km/s) = 2.46166 8.26070 6.09503
#
# Compressibility (1/GPa) = 0.01450010
#
# Stress axis : x y z
#
# Youngs Moduli (GPa) = -24.64347 -24.64347 140.46344
#
# Poissons Ratio (x) = 1.20024 0.31150
# Poissons Ratio (y) = 1.20024 0.31150
# Poissons Ratio (z) = -0.05465 -0.05465
#
# Static dielectric constant tensor:
#      x y z
#    x 2.714120 0.000000 0.000000 
#    y 0.000000 2.714120 0.000000 
#    z 0.000000 0.000000 1.914690 
# 
# From -- ./inp_files/3392.got.cif
#   From: 2010.05.17/outbox.cif.g08.bks.cpg/sg135_2_cif.got.tgz:3392.got - 2010.05.20 12:50:20.
