data_PCOD9568675
_publ_section_title
;
Structure prediction by ZEFSAII (Michael W. Deem and Ramdas Pophale) SiO2 
 PCOD9568675
Probable space group: P 42/M B C
;
_chemical_formula_sum "Si O2"
_cell_formula_units_Z 112
_cell_length_a 14.238769
_cell_length_b 14.238769
_cell_length_c 29.600012
_cell_angle_alpha 90.000000
_cell_angle_beta 90.000000
_cell_angle_gamma 90.000000
_cell_volume 6001.181695
_symmetry_space_group_name_H-M "P 42/M B C"
_symmetry_group_IT_number 135
_symmetry_cell_setting 'tetragonal'
loop_
_space_group_symop_operation_xyz
x,y,z
-y,x,1/2+z
-x,-y,z
y,-x,1/2+z
1/2+x,1/2-y,-z
1/2-x,1/2+y,-z
1/2+y,1/2+x,1/2-z
1/2-y,1/2-x,1/2-z
-x,-y,-z
y,-x,1/2-z
x,y,-z
-y,x,1/2-z
1/2-x,1/2+y,z
1/2+x,1/2-y,z
1/2-y,1/2-x,1/2+z
1/2+y,1/2+x,1/2+z
loop_
_atom_site_type_symbol
_atom_site_label
_atom_site_fract_x
_atom_site_fract_y
_atom_site_fract_z
Si Si1 0.565868 0.641940 0.743732
Si Si2 0.344783 0.617304 0.857392
Si Si3 0.216235 0.033917 0.337332
Si Si4 0.040592 0.269377 0.406748
Si Si5 0.296481 0.260907 0.093481
Si Si6 0.897839 0.410617 0.550229
Si Si7 0.091053 0.453577 0.362507
O O1 0.617069 0.544802 0.757412
O O2 0.601581 0.679416 0.695645
O O3 0.573831 0.705770 0.787316
O O4 0.456470 0.639433 0.853909
O O5 0.311237 0.525282 0.885288
O O6 0.286815 0.701689 0.881765
O O7 0.218612 0.122481 0.370059
O O8 0.312879 0.976606 0.338646
O O9 0.139382 0.235225 0.425867
O O10 0.070782 0.344296 0.368302
O O11 0.980093 0.335343 0.439832
O O12 0.348016 0.194741 0.057569
O O13 0.902636 0.449524 0.500000
O O14 0.899708 0.491212 0.588796
O O15 0.000000 0.500000 0.340272
#
# Coordination Sequence:
#
# PCOD9568675 Si02
#       7
#    16  16  16  16  16  16  16
#     4   9  18  32  52  80 110 146 190 228 265 316
#     4  10  20  35  54  80 112 143 187 230 265 323
#     4  10  19  35  56  78 111 148 181 227 274 314
#     4  10  19  33  55  80 106 141 184 221 274 329
#     4  10  20  34  56  81 108 146 183 221 274 336
#     4   9  20  36  55  82 110 139 182 230 275 328
#     4   9  18  34  56  78 107 139 184 226 272 326
#
# _framework density 18.662991999999999
#
# number of rings (size 3 to 8) (size 9 to 14) (size 15 to 20)
#    0.000    2.429    1.429    1.714    0.000    5.429 
#    0.000    0.714    0.000    4.286    0.000    4.000 
#    0.000    0.000    0.000    0.000    0.000    0.000 
#
# Total GULP energy -623761.506280 kJ/mol
# GULP energy per Si atom -5569.299163 kJ/mol
# Density = 1.862051 g / cm^3
# Si number density = 18.662992 Si / 1000 Ang^3
#
#
#
# Elastic Constant Matrix: (Units=GPa)
#
#
# Indices 1 2 3 4 5 6 
#
# 1 58.8844 -2.0069 -2.8334 0.0000 0.0000 0.0000
# 2 -2.0069 58.8844 -2.8334 0.0000 0.0000 0.0000
# 3 -2.8334 -2.8334 56.2210 0.0000 0.0000 0.0000
# 4 0.0000 0.0000 0.0000 3.6269 0.0000 0.0000
# 5 0.0000 0.0000 0.0000 0.0000 3.6269 0.0000
# 6 0.0000 0.0000 0.0000 0.0000 0.0000 21.6729
#
#
#
# Elastic Compliance Matrix: (Units=1/GPa)
#
#
# Indices 1 2 3 4 5 6 
#
# 1 0.017047 0.000624 0.000891 0.000000 0.000000 0.000000
# 2 0.000624 0.017047 0.000891 0.000000 0.000000 0.000000
# 3 0.000891 0.000891 0.017877 0.000000 0.000000 0.000000
# 4 0.000000 0.000000 0.000000 0.275720 0.000000 0.000000
# 5 0.000000 0.000000 0.000000 0.000000 0.275720 0.000000
# 6 0.000000 0.000000 0.000000 0.000000 0.000000 0.046141
#
#
# Mechanical properties :
#
#
# Convention : Reuss Voigt Hill
#
# Bulk Modulus (GPa) = 17.61196 17.62694 17.61945
# Shear Modulus (GPa) = 7.53389 17.89622 12.71505
#
# Velocity S-wave (km/s) = 2.01136 3.09999 2.61300
# Velocity P-wave (km/s) = 3.85375 4.72003 4.30872
#
# Compressibility (1/GPa) = 0.05677959
#
# Stress axis : x y z
#
# Youngs Moduli (GPa) = 58.66292 58.66292 55.93875
#
# Poissons Ratio (x) = -0.03660 -0.04982
# Poissons Ratio (y) = -0.03660 -0.04982
# Poissons Ratio (z) = -0.05224 -0.05224
#
# Static dielectric constant tensor:
#      x y z
#    x 1.683750 0.000000 0.000000 
#    y 0.000000 1.683750 0.000000 
#    z 0.000000 0.000000 1.636180 
# 
# From -- ./inp_files/6858.got.cif
#   From: 2010.05.17/outbox.cif.g08.bks.cpg/sg135_4_cif.got.tgz:6858.got - 2010.05.20 12:50:20.
