data_PCOD9568562
_publ_section_title
;
Structure prediction by ZEFSAII (Michael W. Deem and Ramdas Pophale) SiO2 
 PCOD9568562
Probable space group: P 42/N N M
;
_chemical_formula_sum "Si O2"
_cell_formula_units_Z 40
_cell_length_a 14.340158
_cell_length_b 14.340158
_cell_length_c 7.966596
_cell_angle_alpha 90.000000
_cell_angle_beta 90.000000
_cell_angle_gamma 90.000000
_cell_volume 1638.251849
_symmetry_space_group_name_H-M "P 42/N N M"
_symmetry_group_IT_number 134
_space_group.IT_coordinate_system_code '2'
_symmetry_cell_setting 'tetragonal'
loop_
_space_group_symop_operation_xyz
x,y,z
1/2-y,x,1/2+z
1/2-x,1/2-y,z
y,1/2-x,1/2+z
x,1/2-y,1/2-z
1/2-x,y,1/2-z
y,x,-z
1/2-y,1/2-x,-z
-x,-y,-z
1/2+y,-x,1/2-z
1/2+x,1/2+y,-z
-y,1/2+x,1/2-z
-x,1/2+y,1/2+z
1/2+x,-y,1/2+z
-y,-x,z
1/2+y,1/2+x,z
loop_
_atom_site_type_symbol
_atom_site_label
_atom_site_fract_x
_atom_site_fract_y
_atom_site_fract_z
Si Si1 0.142670 0.355486 0.301409
Si Si2 0.858605 0.358605 0.057507
Si Si3 0.860777 0.360777 0.454154
Si Si4 0.537527 0.462473 0.736109
O O1 0.119673 0.250000 0.250000
O O2 0.250000 0.374922 0.250000
O O3 0.139112 0.360889 0.500000
O O4 0.071150 0.431044 0.232212
O O5 0.875574 0.375574 0.255094
O O6 0.877520 0.249361 0.020873
O O7 0.916486 0.416486 0.925967
O O8 0.919363 0.419363 0.589363
#
# Coordination Sequence:
#
# PCOD9568562 Si02
#       4
#    16   8   8   8
#     4  11  25  51  78 109 152 206 260 320 396 466
#     4   9  18  35  63 105 163 199 246 307 393 468
#     4   9  18  35  61 110 156 205 242 309 390 473
#     4  12  23  43  77 113 146 194 266 322 376 462
#
# _framework density 24.416269
#
# number of rings (size 3 to 8) (size 9 to 14) (size 15 to 20)
#    0.000    1.600    0.000    7.800    0.000    1.600 
#   21.600    4.000    0.000    0.600    0.000    5.600 
#    0.000    0.000    0.000    0.000    0.000    0.000 
#
# Total GULP energy -224489.344227 kJ/mol
# GULP energy per Si atom -5612.233606 kJ/mol
# Density = 2.436070 g / cm^3
# Si number density = 24.416269 Si / 1000 Ang^3
#
#
#
# Elastic Constant Matrix: (Units=GPa)
#
#
# Indices 1 2 3 4 5 6 
#
# 1 172.2218 143.7255 53.5742 0.0000 0.0000 0.0000
# 2 143.7255 172.2220 53.5741 0.0000 0.0000 0.0000
# 3 53.5742 53.5741 127.7250 0.0000 0.0000 0.0000
# 4 0.0000 0.0000 0.0000 -14.5939 0.0000 0.0000
# 5 0.0000 0.0000 0.0000 0.0000 -14.5911 0.0000
# 6 0.0000 0.0000 0.0000 0.0000 0.0000 38.0374
#
#
#
# Elastic Compliance Matrix: (Units=1/GPa)
#
#
# Indices 1 2 3 4 5 6 
#
# 1 0.019391 -0.015701 -0.001548 0.000000 0.000000 0.000000
# 2 -0.015701 0.019391 -0.001548 0.000000 0.000000 0.000000
# 3 -0.001548 -0.001548 0.009128 0.000000 0.000000 0.000000
# 4 0.000000 0.000000 0.000000 -0.068522 0.000000 0.000000
# 5 0.000000 0.000000 0.000000 0.000000 -0.068535 0.000000
# 6 0.000000 0.000000 0.000000 0.000000 0.000000 0.026290
#
#
# Mechanical properties :
#
#
# Convention : Reuss Voigt Hill
#
# Bulk Modulus (GPa) = 96.93062 108.21293 102.57178
# Shear Modulus (GPa) = -229.09476 16.52349 -106.28563
#
# Velocity S-wave (km/s) = -9.69703 2.60425 -6.60493
# Velocity P-wave (km/s) = 9.25155 7.31157 4.00825
#
# Compressibility (1/GPa) = 0.01031666
#
# Stress axis : x y z
#
# Youngs Moduli (GPa) = 51.57011 51.57019 109.55627
#
# Poissons Ratio (x) = 0.80971 0.16957
# Poissons Ratio (y) = 0.80971 0.16956
# Poissons Ratio (z) = 0.07982 0.07982
#
# Static dielectric constant tensor:
#      x y z
#    x 2.032420 0.000000 0.000000 
#    y 0.000000 2.032420 0.000000 
#    z 0.000000 0.000000 1.865960 
# 
# From -- ./inp_files/1878.got.cif
#   From: 2010.05.17/outbox.cif.g08.bks.cpg/sg134_1_cif.got.tgz:1878.got - 2010.05.20 12:42:49.
