data_PCOD9568296
_publ_section_title
;
Structure prediction by ZEFSAII (Michael W. Deem and Ramdas Pophale) SiO2 
 PCOD9568296
Probable space group: P 42/N N M
;
_chemical_formula_sum "Si O2"
_cell_formula_units_Z 88
_cell_length_a 15.575606
_cell_length_b 15.575606
_cell_length_c 19.447870
_cell_angle_alpha 90.000000
_cell_angle_beta 90.000000
_cell_angle_gamma 90.000000
_cell_volume 4718.043582
_symmetry_space_group_name_H-M "P 42/N N M"
_symmetry_group_IT_number 134
_space_group.IT_coordinate_system_code '2'
_symmetry_cell_setting 'tetragonal'
loop_
_space_group_symop_operation_xyz
x,y,z
1/2-y,x,1/2+z
1/2-x,1/2-y,z
y,1/2-x,1/2+z
x,1/2-y,1/2-z
1/2-x,y,1/2-z
y,x,-z
1/2-y,1/2-x,-z
-x,-y,-z
1/2+y,-x,1/2-z
1/2+x,1/2+y,-z
-y,1/2+x,1/2-z
-x,1/2+y,1/2+z
1/2+x,-y,1/2+z
-y,-x,z
1/2+y,1/2+x,z
loop_
_atom_site_type_symbol
_atom_site_label
_atom_site_fract_x
_atom_site_fract_y
_atom_site_fract_z
Si Si1 0.568552 0.804025 0.957392
Si Si2 0.683183 0.316818 0.593035
Si Si3 0.185403 0.550092 0.457794
Si Si4 0.535825 0.035825 0.072131
Si Si5 0.777375 0.650386 0.323645
Si Si6 0.067548 0.932453 0.310340
Si Si7 0.390549 0.023408 0.321278
O O1 0.491333 0.865596 0.931862
O O2 0.611900 0.768942 0.889277
O O3 0.636674 0.863327 0.000000
O O4 0.530108 0.724906 0.001386
O O5 0.750000 0.250000 0.626844
O O6 0.619300 0.261115 0.547090
O O7 0.628713 0.371288 0.646632
O O8 0.099899 0.599899 0.484485
O O9 0.165059 0.524408 0.379013
O O10 0.488364 0.988364 0.135874
O O11 0.500000 0.000000 0.000000
O O12 0.750000 0.750000 0.322772
O O13 0.750000 0.612726 0.250000
O O14 0.878011 0.631288 0.329110
O O15 0.007987 0.878227 0.257413
O O16 0.488403 0.988403 0.334301
#
# Coordination Sequence:
#
# PCOD9568296 Si02
#       7
#    16   8  16   8  16   8  16
#     4  11  22  37  64  90 116 156 206 249 305 358
#     4  10  20  34  56  86 124 152 196 249 300 355
#     4  10  21  39  55  87 123 159 199 248 304 365
#     4  10  20  36  59  87 113 149 196 252 300 350
#     4  11  24  40  59  88 122 155 198 257 307 350
#     4  10  20  38  58  80 121 163 205 241 300 377
#     4   9  22  40  56  82 119 162 201 232 305 366
#
# _framework density 18.651799
#
# number of rings (size 3 to 8) (size 9 to 14) (size 15 to 20)
#    0.545    1.273    0.000    4.909    0.000    6.909 
#    1.636    1.818    0.000    0.000    0.000    0.000 
#    0.000    0.000    0.000    0.000    0.000    0.000 
#
# Total GULP energy -490338.467305 kJ/mol
# GULP energy per Si atom -5572.028038 kJ/mol
# Density = 1.860935 g / cm^3
# Si number density = 18.651799 Si / 1000 Ang^3
#
#
#
# Elastic Constant Matrix: (Units=GPa)
#
#
# Indices 1 2 3 4 5 6 
#
# 1 72.8228 31.2361 32.7828 0.0000 0.0000 0.0000
# 2 31.2361 72.8224 32.7817 0.0000 0.0000 0.0000
# 3 32.7828 32.7817 117.1194 0.0000 0.0000 0.0000
# 4 0.0000 0.0000 0.0000 23.4712 0.0000 0.0000
# 5 0.0000 0.0000 0.0000 0.0000 23.4708 0.0000
# 6 0.0000 0.0000 0.0000 0.0000 0.0000 31.2714
#
#
#
# Elastic Compliance Matrix: (Units=1/GPa)
#
#
# Indices 1 2 3 4 5 6 
#
# 1 0.017857 -0.006189 -0.003266 0.000000 0.000000 0.000000
# 2 -0.006189 0.017857 -0.003266 0.000000 0.000000 0.000000
# 3 -0.003266 -0.003266 0.010367 0.000000 0.000000 0.000000
# 4 0.000000 0.000000 0.000000 0.042605 0.000000 0.000000
# 5 0.000000 0.000000 0.000000 0.000000 0.042606 0.000000
# 6 0.000000 0.000000 0.000000 0.000000 0.000000 0.031978
#
#
# Mechanical properties :
#
#
# Convention : Reuss Voigt Hill
#
# Bulk Modulus (GPa) = 48.45304 50.70733 49.58019
# Shear Modulus (GPa) = 25.56348 26.70695 26.13522
#
# Velocity S-wave (km/s) = 3.70613 3.78811 3.74734
# Velocity P-wave (km/s) = 6.65942 6.81017 6.73522
#
# Compressibility (1/GPa) = 0.02063854
#
# Stress axis : x y z
#
# Youngs Moduli (GPa) = 56.00048 56.00060 96.46419
#
# Poissons Ratio (x) = 0.34660 0.31505
# Poissons Ratio (y) = 0.34660 0.31503
# Poissons Ratio (z) = 0.18289 0.18288
#
# Static dielectric constant tensor:
#      x y z
#    x 1.649770 0.000000 0.000000 
#    y 0.000000 1.649770 0.000000 
#    z 0.000000 0.000000 1.658530 
# 
# From -- ./inp_files/9083.got.cif
#   From: 2010.05.17/outbox.cif.g08.bks.cpg/sg134_5_cif.got.tgz:9083.got - 2010.05.20 12:42:49.
