data_PCOD9568566
_publ_section_title
;
Structure prediction by ZEFSAII (Michael W. Deem and Ramdas Pophale) SiO2 
 PCOD9568566
Probable space group: P 42/N N M
;
_chemical_formula_sum "Si O2"
_cell_formula_units_Z 80
_cell_length_a 11.392829
_cell_length_b 11.392829
_cell_length_c 31.595155
_cell_angle_alpha 90.000000
_cell_angle_beta 90.000000
_cell_angle_gamma 90.000000
_cell_volume 4100.942199
_symmetry_space_group_name_H-M "P 42/N N M"
_symmetry_group_IT_number 134
_space_group.IT_coordinate_system_code '2'
_symmetry_cell_setting 'tetragonal'
loop_
_space_group_symop_operation_xyz
x,y,z
1/2-y,x,1/2+z
1/2-x,1/2-y,z
y,1/2-x,1/2+z
x,1/2-y,1/2-z
1/2-x,y,1/2-z
y,x,-z
1/2-y,1/2-x,-z
-x,-y,-z
1/2+y,-x,1/2-z
1/2+x,1/2+y,-z
-y,1/2+x,1/2-z
-x,1/2+y,1/2+z
1/2+x,-y,1/2+z
-y,-x,z
1/2+y,1/2+x,z
loop_
_atom_site_type_symbol
_atom_site_label
_atom_site_fract_x
_atom_site_fract_y
_atom_site_fract_z
Si Si1 0.605287 0.916241 0.403294
Si Si2 0.022512 0.791051 0.537035
Si Si3 0.611142 0.930505 0.755255
Si Si4 0.013898 0.173176 0.560421
Si Si5 0.243057 0.108752 0.819157
O O1 0.671016 0.980507 0.441987
O O2 0.566767 0.782218 0.413406
O O3 0.698040 0.925688 0.364949
O O4 0.489230 0.989230 0.392451
O O5 0.021524 0.780483 0.486231
O O6 0.922033 0.884382 0.551019
O O7 0.145927 0.854074 0.549134
O O8 0.750000 0.931905 0.750000
O O9 0.568979 0.851460 0.715886
O O10 0.573743 0.867220 0.798924
O O11 0.557151 0.057151 0.752848
O O12 0.902076 0.097924 0.577624
O O13 0.250000 0.250000 0.819218
#
# Coordination Sequence:
#
# PCOD9568566 Si02
#       5
#    16  16  16  16  16
#     4  12  23  33  52  82 114 146 183 235 291 338
#     4   9  19  36  56  77 104 144 194 239 282 342
#     4   9  18  35  59  84 109 138 171 211 265 325
#     4   9  19  37  58  77 103 146 196 241 286 340
#     4   9  19  36  56  76 104 145 184 214 252 318
#
# _framework density 19.507714
#
# number of rings (size 3 to 8) (size 9 to 14) (size 15 to 20)
#    0.000    2.400    0.000    5.400    0.000    5.000 
#    0.000    8.000    0.000   14.400    0.000    0.000 
#    0.000    0.000    0.000    0.000    0.000    0.000 
#
# Total GULP energy -445712.692813 kJ/mol
# GULP energy per Si atom -5571.408660 kJ/mol
# Density = 1.946331 g / cm^3
# Si number density = 19.507714 Si / 1000 Ang^3
#
#
#
# Elastic Constant Matrix: (Units=GPa)
#
#
# Indices 1 2 3 4 5 6 
#
# 1 46.3524 42.7792 20.4532 0.0000 0.0000 0.0000
# 2 42.7792 46.3524 20.4532 0.0000 0.0000 0.0000
# 3 20.4532 20.4532 61.9244 0.0000 0.0000 0.0000
# 4 0.0000 0.0000 0.0000 8.7212 0.0000 0.0000
# 5 0.0000 0.0000 0.0000 0.0000 8.7212 0.0000
# 6 0.0000 0.0000 0.0000 0.0000 0.0000 27.0918
#
#
#
# Elastic Compliance Matrix: (Units=1/GPa)
#
#
# Indices 1 2 3 4 5 6 
#
# 1 0.146542 -0.133318 -0.004368 0.000000 0.000000 0.000000
# 2 -0.133318 0.146542 -0.004368 0.000000 0.000000 0.000000
# 3 -0.004368 -0.004368 0.019034 0.000000 0.000000 0.000000
# 4 0.000000 0.000000 0.000000 0.114663 0.000000 0.000000
# 5 0.000000 0.000000 0.000000 0.000000 0.114663 0.000000
# 6 0.000000 0.000000 0.000000 0.000000 0.000000 0.036912
#
#
# Mechanical properties :
#
#
# Convention : Reuss Voigt Hill
#
# Bulk Modulus (GPa) = 35.70053 35.77782 35.73918
# Shear Modulus (GPa) = 5.73526 13.63640 9.68583
#
# Velocity S-wave (km/s) = 1.71650 2.64678 2.23067
# Velocity P-wave (km/s) = 4.71900 5.26505 4.99948
#
# Compressibility (1/GPa) = 0.02801079
#
# Stress axis : x y z
#
# Youngs Moduli (GPa) = 6.82399 6.82399 52.53747
#
# Poissons Ratio (x) = 0.90976 0.22947
# Poissons Ratio (y) = 0.90976 0.22947
# Poissons Ratio (z) = 0.02981 0.02981
#
# Static dielectric constant tensor:
#      x y z
#    x 1.691270 0.000000 0.000000 
#    y 0.000000 1.691270 0.000000 
#    z 0.000000 0.000000 1.716870 
# 
# From -- ./inp_files/11263.got.cif
#   From: 2010.05.17/outbox.cif.g08.bks.cpg/sg134_6_cif.got.tgz:11263.got - 2010.05.20 12:42:49.
