data_PCOD9568949
_publ_section_title
;
Structure prediction by ZEFSAII (Michael W. Deem and Ramdas Pophale) SiO2 
 PCOD9568949
Probable space group: P 42/M B C
;
_chemical_formula_sum "Si O2"
_cell_formula_units_Z 76
_cell_length_a 14.736998
_cell_length_b 14.736998
_cell_length_c 18.128856
_cell_angle_alpha 90.000000
_cell_angle_beta 90.000000
_cell_angle_gamma 90.000000
_cell_volume 3937.208812
_symmetry_space_group_name_H-M "P 42/M B C"
_symmetry_group_IT_number 135
_symmetry_cell_setting 'tetragonal'
loop_
_space_group_symop_operation_xyz
x,y,z
-y,x,1/2+z
-x,-y,z
y,-x,1/2+z
1/2+x,1/2-y,-z
1/2-x,1/2+y,-z
1/2+y,1/2+x,1/2-z
1/2-y,1/2-x,1/2-z
-x,-y,-z
y,-x,1/2-z
x,y,-z
-y,x,1/2-z
1/2-x,1/2+y,z
1/2+x,1/2-y,z
1/2-y,1/2-x,1/2+z
1/2+y,1/2+x,1/2+z
loop_
_atom_site_type_symbol
_atom_site_label
_atom_site_fract_x
_atom_site_fract_y
_atom_site_fract_z
Si Si1 0.334586 0.872721 0.500000
Si Si2 0.138298 0.787881 0.500000
Si Si3 0.247123 0.252878 0.250000
Si Si4 0.571955 0.681405 0.333136
Si Si5 0.381212 0.074183 0.500000
Si Si6 0.323787 0.913412 0.846088
Si Si7 0.500000 0.000000 0.631102
Si Si8 0.500000 0.500000 0.750000
O O1 0.237623 0.828814 0.500000
O O2 0.392183 0.838435 0.568533
O O3 0.321008 0.982239 0.500000
O O4 0.094318 0.819287 0.578479
O O5 0.148220 0.678109 0.500000
O O6 0.345039 0.276556 0.284707
O O7 0.176895 0.281200 0.313168
O O8 0.491224 0.753544 0.326422
O O9 0.541240 0.583362 0.299613
O O10 0.437724 0.058348 0.424926
O O11 0.426486 0.941558 0.825543
#
# Coordination Sequence:
#
# PCOD9568949 Si02
#       8
#     8   8   8  16   8  16   8   4
#     4  10  22  42  69 104 139 174 236 305 360 422
#     4  12  22  45  74 105 136 186 246 293 355 440
#     4  12  26  43  68 101 140 188 234 286 354 426
#     4  12  26  48  73 102 143 195 237 296 359 439
#     4   9  18  36  63  98 133 166 210 292 352 392
#     4  11  22  43  68 100 137 178 229 292 359 414
#     4   9  18  35  66  96 128 166 214 284 352 406
#     4  12  28  54  72  96 160 194 236 300 368 434
#
# _framework density 19.303014000000001
#
# number of rings (size 3 to 8) (size 9 to 14) (size 15 to 20)
#    0.000    1.053    6.316    1.263    0.000    2.526 
#    7.579    0.000    0.000    0.000    0.000    0.000 
#    0.000    0.000    0.000    0.000    0.000    0.000 
#
# Total GULP energy -423428.689492 kJ/mol
# GULP energy per Si atom -5571.430125 kJ/mol
# Density = 1.925908 g / cm^3
# Si number density = 19.303014 Si / 1000 Ang^3
#
#
#
# Elastic Constant Matrix: (Units=GPa)
#
#
# Indices 1 2 3 4 5 6 
#
# 1 126.0710 60.7817 42.0764 0.0000 0.0000 0.0000
# 2 60.7817 126.0691 42.0756 0.0000 0.0000 0.0000
# 3 42.0764 42.0756 129.3843 0.0000 0.0000 0.0000
# 4 0.0000 0.0000 0.0000 16.9473 0.0000 0.0000
# 5 0.0000 0.0000 0.0000 0.0000 16.9466 0.0000
# 6 0.0000 0.0000 0.0000 0.0000 0.0000 43.5531
#
#
#
# Elastic Compliance Matrix: (Units=1/GPa)
#
#
# Indices 1 2 3 4 5 6 
#
# 1 0.010793 -0.004523 -0.002039 0.000000 0.000000 0.000000
# 2 -0.004523 0.010793 -0.002039 0.000000 0.000000 0.000000
# 3 -0.002039 -0.002039 0.009055 0.000000 0.000000 0.000000
# 4 0.000000 0.000000 0.000000 0.059006 0.000000 0.000000
# 5 0.000000 0.000000 0.000000 0.000000 0.059009 0.000000
# 6 0.000000 0.000000 0.000000 0.000000 0.000000 0.022960
#
#
# Mechanical properties :
#
#
# Convention : Reuss Voigt Hill
#
# Bulk Modulus (GPa) = 74.40926 74.59910 74.50418
# Shear Modulus (GPa) = 25.86651 31.26212 28.56431
#
# Velocity S-wave (km/s) = 3.66461 4.02872 3.85097
# Velocity P-wave (km/s) = 7.51914 7.76988 7.64554
#
# Compressibility (1/GPa) = 0.01343919
#
# Stress axis : x y z
#
# Youngs Moduli (GPa) = 92.64955 92.64844 110.43458
#
# Poissons Ratio (x) = 0.41907 0.22519
# Poissons Ratio (y) = 0.41908 0.22518
# Poissons Ratio (z) = 0.18892 0.18891
#
# Static dielectric constant tensor:
#      x y z
#    x 1.656290 0.000000 0.000000 
#    y 0.000000 1.656290 0.000000 
#    z 0.000000 0.000000 1.740260 
# 
# From -- ./inp_files/5288.got.cif
#   From: 2010.05.17/outbox.cif.g08.bks.cpg/sg135_3_cif.got.tgz:5288.got - 2010.05.20 12:50:20.
