data_PCOD9568893
_publ_section_title
;
Structure prediction by ZEFSAII (Michael W. Deem and Ramdas Pophale) SiO2 
 PCOD9568893
Probable space group: P 42/M B C
;
_chemical_formula_sum "Si O2"
_cell_formula_units_Z 56
_cell_length_a 14.762252
_cell_length_b 14.762252
_cell_length_c 10.497591
_cell_angle_alpha 90.000000
_cell_angle_beta 90.000000
_cell_angle_gamma 90.000000
_cell_volume 2287.677904
_symmetry_space_group_name_H-M "P 42/M B C"
_symmetry_group_IT_number 135
_symmetry_cell_setting 'tetragonal'
loop_
_space_group_symop_operation_xyz
x,y,z
-y,x,1/2+z
-x,-y,z
y,-x,1/2+z
1/2+x,1/2-y,-z
1/2-x,1/2+y,-z
1/2+y,1/2+x,1/2-z
1/2-y,1/2-x,1/2-z
-x,-y,-z
y,-x,1/2-z
x,y,-z
-y,x,1/2-z
1/2-x,1/2+y,z
1/2+x,1/2-y,z
1/2-y,1/2-x,1/2+z
1/2+y,1/2+x,1/2+z
loop_
_atom_site_type_symbol
_atom_site_label
_atom_site_fract_x
_atom_site_fract_y
_atom_site_fract_z
Si Si1 0.951041 0.300794 0.780322
Si Si2 0.810904 0.462215 0.000000
Si Si3 0.872943 0.578220 0.500000
Si Si4 0.613866 0.414653 0.760137
Si Si5 0.181318 0.196649 0.000000
O O1 0.872715 0.372715 0.750000
O O2 0.912584 0.204244 0.825004
O O3 0.991607 0.279546 0.640408
O O4 0.020462 0.344248 0.877146
O O5 0.903197 0.520027 0.000000
O O6 0.779486 0.355344 0.000000
O O7 0.804734 0.666044 0.500000
O O8 0.518706 0.396409 0.693864
O O9 0.631409 0.345239 0.875752
#
# Coordination Sequence:
#
# PCOD9568893 Si02
#       5
#    16   8   8  16   8
#     4  11  24  44  70 107 144 186 243 293 355 436
#     4  10  25  46  66 104 145 181 234 304 344 423
#     4  12  23  45  79  98 141 201 235 288 375 423
#     4  10  21  41  67  96 141 185 229 300 345 420
#     4  10  22  44  64 103 141 180 248 279 358 437
#
# _framework density 24.478967999999998
#
# number of rings (size 3 to 8) (size 9 to 14) (size 15 to 20)
#    0.000    1.429    2.857    1.714    0.000    6.857 
#   20.571    0.000    0.000    0.000    0.000    0.000 
#    0.000    0.000    0.000    0.000    0.000    0.000 
#
# Total GULP energy -311838.614233 kJ/mol
# GULP energy per Si atom -5568.546683 kJ/mol
# Density = 2.442325 g / cm^3
# Si number density = 24.478968 Si / 1000 Ang^3
#
#
#
# Elastic Constant Matrix: (Units=GPa)
#
#
# Indices 1 2 3 4 5 6 
#
# 1 105.3629 85.3832 3.9754 0.0000 0.0000 0.0000
# 2 85.3832 105.3629 3.9754 0.0000 0.0000 0.0000
# 3 3.9754 3.9754 91.2491 0.0000 0.0000 0.0000
# 4 0.0000 0.0000 0.0000 15.8899 0.0000 0.0000
# 5 0.0000 0.0000 0.0000 0.0000 15.8899 0.0000
# 6 0.0000 0.0000 0.0000 0.0000 0.0000 45.2971
#
#
#
# Elastic Compliance Matrix: (Units=1/GPa)
#
#
# Indices 1 2 3 4 5 6 
#
# 1 0.027651 -0.022399 -0.000229 0.000000 0.000000 0.000000
# 2 -0.022399 0.027651 -0.000229 0.000000 0.000000 0.000000
# 3 -0.000229 -0.000229 0.010979 0.000000 0.000000 0.000000
# 4 0.000000 0.000000 0.000000 0.062933 0.000000 0.000000
# 5 0.000000 0.000000 0.000000 0.000000 0.062933 0.000000
# 6 0.000000 0.000000 0.000000 0.000000 0.000000 0.022076
#
#
# Mechanical properties :
#
#
# Convention : Reuss Voigt Hill
#
# Bulk Modulus (GPa) = 48.61944 54.29366 51.45655
# Shear Modulus (GPa) = 18.74102 29.32476 24.03289
#
# Velocity S-wave (km/s) = 2.76994 3.46491 3.13673
# Velocity P-wave (km/s) = 5.48953 6.18347 5.84681
#
# Compressibility (1/GPa) = 0.02056790
#
# Stress axis : x y z
#
# Youngs Moduli (GPa) = 36.16449 36.16449 91.08337
#
# Poissons Ratio (x) = 0.81006 0.02084
# Poissons Ratio (y) = 0.81006 0.02084
# Poissons Ratio (z) = 0.00828 0.00828
#
# Static dielectric constant tensor:
#      x y z
#    x 2.033390 0.000000 0.000000 
#    y 0.000000 2.033390 0.000000 
#    z 0.000000 0.000000 1.924230 
# 
# From -- ./inp_files/2098.got.cif
#   From: 2010.05.17/outbox.cif.g08.bks.cpg/sg135_2_cif.got.tgz:2098.got - 2010.05.20 12:50:20.
