data_PCOD9568794
_publ_section_title
;
Structure prediction by ZEFSAII (Michael W. Deem and Ramdas Pophale) SiO2 
 PCOD9568794
Probable space group: P 42/M B C
;
_chemical_formula_sum "Si O2"
_cell_formula_units_Z 80
_cell_length_a 16.930007
_cell_length_b 16.930007
_cell_length_c 14.753479
_cell_angle_alpha 90.000000
_cell_angle_beta 90.000000
_cell_angle_gamma 90.000000
_cell_volume 4228.717940
_symmetry_space_group_name_H-M "P 42/M B C"
_symmetry_group_IT_number 135
_symmetry_cell_setting 'tetragonal'
loop_
_space_group_symop_operation_xyz
x,y,z
-y,x,1/2+z
-x,-y,z
y,-x,1/2+z
1/2+x,1/2-y,-z
1/2-x,1/2+y,-z
1/2+y,1/2+x,1/2-z
1/2-y,1/2-x,1/2-z
-x,-y,-z
y,-x,1/2-z
x,y,-z
-y,x,1/2-z
1/2-x,1/2+y,z
1/2+x,1/2-y,z
1/2-y,1/2-x,1/2+z
1/2+y,1/2+x,1/2+z
loop_
_atom_site_type_symbol
_atom_site_label
_atom_site_fract_x
_atom_site_fract_y
_atom_site_fract_z
Si Si1 0.096118 0.776466 0.000000
Si Si2 0.064573 0.169860 0.500000
Si Si3 0.061824 0.602851 0.000000
Si Si4 0.530264 0.590915 0.341075
Si Si5 0.478921 0.689914 0.833354
Si Si6 0.437890 0.846916 0.500000
Si Si7 0.564021 0.130663 0.159700
O O1 0.165066 0.840626 0.000000
O O2 0.042021 0.795825 0.912745
O O3 0.113942 0.683022 0.000000
O O4 0.036143 0.258127 0.500000
O O5 0.026968 0.127175 0.585243
O O6 0.009384 0.609373 0.092445
O O7 0.897941 0.481945 0.000000
O O8 0.500000 0.500000 0.336126
O O9 0.353328 0.518413 0.246743
O O10 0.623155 0.584217 0.363764
O O11 0.443764 0.776871 0.814211
O O12 0.387044 0.865358 0.410494
O O13 0.578851 0.078851 0.250000
#
# Coordination Sequence:
#
# PCOD9568794 Si02
#       7
#     8   8   8  16  16   8  16
#     4  10  20  37  59  88 116 156 199 251 308 361
#     4  12  23  36  62  85 123 164 202 243 325 376
#     4   9  22  41  64  88 118 154 211 268 298 367
#     4  12  20  36  59  90 122 162 201 246 296 394
#     4  11  20  35  60  88 120 156 202 252 304 366
#     4  11  24  43  58  92 119 161 211 264 308 374
#     4  10  21  39  64  87 118 161 209 257 313 358
#
# _framework density 18.918263
#
# number of rings (size 3 to 8) (size 9 to 14) (size 15 to 20)
#    0.000    1.200    4.000    3.900    0.000    1.600 
#    3.600    0.000    0.000    0.000    0.000    0.000 
#    0.000    0.000    0.000    0.000    0.000    0.000 
#
# Total GULP energy -445688.527705 kJ/mol
# GULP energy per Si atom -5571.106596 kJ/mol
# Density = 1.887520 g / cm^3
# Si number density = 18.918263 Si / 1000 Ang^3
#
#
#
# Elastic Constant Matrix: (Units=GPa)
#
#
# Indices 1 2 3 4 5 6 
#
# 1 99.1626 52.0826 23.7577 0.0000 0.0000 0.0000
# 2 52.0826 99.1626 23.7577 0.0000 0.0000 0.0000
# 3 23.7577 23.7577 102.3075 0.0000 0.0000 0.0000
# 4 0.0000 0.0000 0.0000 14.0626 0.0000 0.0000
# 5 0.0000 0.0000 0.0000 0.0000 14.0626 0.0000
# 6 0.0000 0.0000 0.0000 0.0000 0.0000 9.4485
#
#
#
# Elastic Compliance Matrix: (Units=1/GPa)
#
#
# Indices 1 2 3 4 5 6 
#
# 1 0.014186 -0.007054 -0.001656 0.000000 0.000000 0.000000
# 2 -0.007054 0.014186 -0.001656 0.000000 0.000000 0.000000
# 3 -0.001656 -0.001656 0.010544 0.000000 0.000000 0.000000
# 4 0.000000 0.000000 0.000000 0.071110 0.000000 0.000000
# 5 0.000000 0.000000 0.000000 0.000000 0.071110 0.000000
# 6 0.000000 0.000000 0.000000 0.000000 0.000000 0.105837
#
#
# Mechanical properties :
#
#
# Convention : Reuss Voigt Hill
#
# Bulk Modulus (GPa) = 54.99635 55.53653 55.26644
# Shear Modulus (GPa) = 15.93535 20.91707 18.42621
#
# Velocity S-wave (km/s) = 2.90543 3.32875 3.12427
# Velocity P-wave (km/s) = 6.35524 6.64784 6.50319
#
# Compressibility (1/GPa) = 0.01818303
#
# Stress axis : x y z
#
# Youngs Moduli (GPa) = 70.49073 70.49073 94.84372
#
# Poissons Ratio (x) = 0.49725 0.15708
# Poissons Ratio (y) = 0.49725 0.15708
# Poissons Ratio (z) = 0.11675 0.11675
#
# Static dielectric constant tensor:
#      x y z
#    x 1.671970 0.000000 0.000000 
#    y 0.000000 1.671970 0.000000 
#    z 0.000000 0.000000 1.680540 
# 
# From -- ./inp_files/4435.got.cif
#   From: 2010.05.17/outbox.cif.g08.bks.cpg/sg135_3_cif.got.tgz:4435.got - 2010.05.20 12:50:20.
