data_PCOD9568568
_publ_section_title
;
Structure prediction by ZEFSAII (Michael W. Deem and Ramdas Pophale) SiO2 
 PCOD9568568
Probable space group: P 42/N N M
;
_chemical_formula_sum "Si O2"
_cell_formula_units_Z 52
_cell_length_a 22.361202
_cell_length_b 22.361202
_cell_length_c 4.972892
_cell_angle_alpha 90.000000
_cell_angle_beta 90.000000
_cell_angle_gamma 90.000000
_cell_volume 2486.562141
_symmetry_space_group_name_H-M "P 42/N N M"
_symmetry_group_IT_number 134
_space_group.IT_coordinate_system_code '2'
_symmetry_cell_setting 'tetragonal'
loop_
_space_group_symop_operation_xyz
x,y,z
1/2-y,x,1/2+z
1/2-x,1/2-y,z
y,1/2-x,1/2+z
x,1/2-y,1/2-z
1/2-x,y,1/2-z
y,x,-z
1/2-y,1/2-x,-z
-x,-y,-z
1/2+y,-x,1/2-z
1/2+x,1/2+y,-z
-y,1/2+x,1/2-z
-x,1/2+y,1/2+z
1/2+x,-y,1/2+z
-y,-x,z
1/2+y,1/2+x,z
loop_
_atom_site_type_symbol
_atom_site_label
_atom_site_fract_x
_atom_site_fract_y
_atom_site_fract_z
Si Si1 0.920342 0.321824 0.716246
Si Si2 0.180591 0.375893 0.765859
Si Si3 0.369279 0.504469 0.721078
Si Si4 0.000000 0.000000 0.000000
O O1 0.913251 0.250000 0.750000
O O2 0.857788 0.357788 0.676480
O O3 0.962684 0.333489 0.460301
O O4 0.953733 0.355933 0.963117
O O5 0.250000 0.386601 0.750000
O O6 0.148922 0.351079 0.500000
O O7 0.153427 0.439149 0.849175
O O8 0.170950 0.329051 0.000000
O O9 0.435481 0.493387 0.838933
#
# Coordination Sequence:
#
# PCOD9568568 Si02
#       4
#    16  16  16   4
#     4  12  25  45  70 101 141 186 230 284 349 422
#     4  12  26  44  67  96 132 177 225 277 336 406
#     4  12  26  45  71 103 139 175 229 295 360 413
#     4  12  24  46  76 106 136 174 236 298 360 418
#
# _framework density 20.912407999999999
#
# number of rings (size 3 to 8) (size 9 to 14) (size 15 to 20)
#    0.000    0.000    4.615    5.538    0.000    3.385 
#    0.000    0.000    0.000    3.692    0.000    0.000 
#    0.000    0.000    0.000    0.000    0.000    0.000 
#
# Total GULP energy -289559.100737 kJ/mol
# GULP energy per Si atom -5568.444245 kJ/mol
# Density = 2.086481 g / cm^3
# Si number density = 20.912408 Si / 1000 Ang^3
#
#
#
# Elastic Constant Matrix: (Units=GPa)
#
#
# Indices 1 2 3 4 5 6 
#
# 1 37.0816 33.9472 -40.4174 0.0000 0.0000 0.0000
# 2 33.9472 37.1147 -40.4054 0.0000 0.0000 0.0000
# 3 -40.4174 -40.4054 50.7493 0.0000 0.0000 0.0000
# 4 0.0000 0.0000 0.0000 23.3688 0.0000 0.0000
# 5 0.0000 0.0000 0.0000 0.0000 23.3621 0.0000
# 6 0.0000 0.0000 0.0000 0.0000 0.0000 9.5696
#
#
#
# Elastic Compliance Matrix: (Units=1/GPa)
#
#
# Indices 1 2 3 4 5 6 
#
# 1 0.234709 -0.083909 0.120119 0.000000 0.000000 0.000000
# 2 -0.083909 0.232227 0.118067 0.000000 0.000000 0.000000
# 3 0.120119 0.118067 0.209371 0.000000 0.000000 0.000000
# 4 0.000000 0.000000 0.000000 0.042792 0.000000 0.000000
# 5 0.000000 0.000000 0.000000 0.000000 0.042804 0.000000
# 6 0.000000 0.000000 0.000000 0.000000 0.000000 0.104498
#
#
# Mechanical properties :
#
#
# Convention : Reuss Voigt Hill
#
# Bulk Modulus (GPa) = 1.01537 3.46605 2.24071
# Shear Modulus (GPa) = 5.64249 22.71486 14.17867
#
# Velocity S-wave (km/s) = 1.64439 3.29932 2.60667
# Velocity P-wave (km/s) = 2.02285 4.02181 3.18331
#
# Compressibility (1/GPa) = 0.98485928
#
# Stress axis : x y z
#
# Youngs Moduli (GPa) = 4.26060 4.30614 4.77621
#
# Poissons Ratio (x) = 0.36133 -0.57371
# Poissons Ratio (y) = 0.35750 -0.56391
# Poissons Ratio (z) = -0.51178 -0.50841
#
# Static dielectric constant tensor:
#      x y z
#    x 1.735040 0.000000 0.000000 
#    y 0.000000 1.735070 0.000000 
#    z 0.000000 0.000000 1.785310 
# 
# From -- ./inp_files/704.got.cif
#   From: 2010.05.17/outbox.cif.g08.bks.cpg/sg134_1_cif.got.tgz:704.got - 2010.05.20 12:42:49.
