data_PCOD9568386
_publ_section_title
;
Structure prediction by ZEFSAII (Michael W. Deem and Ramdas Pophale) SiO2 
 PCOD9568386
Probable space group: P 42/N N M
;
_chemical_formula_sum "Si O2"
_cell_formula_units_Z 64
_cell_length_a 11.981961
_cell_length_b 11.981961
_cell_length_c 24.267630
_cell_angle_alpha 90.000000
_cell_angle_beta 90.000000
_cell_angle_gamma 90.000000
_cell_volume 3484.040286
_symmetry_space_group_name_H-M "P 42/N N M"
_symmetry_group_IT_number 134
_space_group.IT_coordinate_system_code '2'
_symmetry_cell_setting 'tetragonal'
loop_
_space_group_symop_operation_xyz
x,y,z
1/2-y,x,1/2+z
1/2-x,1/2-y,z
y,1/2-x,1/2+z
x,1/2-y,1/2-z
1/2-x,y,1/2-z
y,x,-z
1/2-y,1/2-x,-z
-x,-y,-z
1/2+y,-x,1/2-z
1/2+x,1/2+y,-z
-y,1/2+x,1/2-z
-x,1/2+y,1/2+z
1/2+x,-y,1/2+z
-y,-x,z
1/2+y,1/2+x,z
loop_
_atom_site_type_symbol
_atom_site_label
_atom_site_fract_x
_atom_site_fract_y
_atom_site_fract_z
Si Si1 0.940230 0.250000 0.750000
Si Si2 0.575753 0.889514 0.562778
Si Si3 0.002936 0.812380 0.630306
Si Si4 0.063385 0.750000 0.750000
Si Si5 0.766437 0.879905 0.653034
O O1 0.858264 0.141737 0.749452
O O2 0.025150 0.249273 0.801519
O O3 0.616744 0.883257 0.500000
O O4 0.507053 0.782047 0.584101
O O5 0.678832 0.896492 0.604218
O O6 0.496654 0.996654 0.567748
O O7 0.891627 0.886108 0.629583
O O8 0.001421 0.758576 0.691902
O O9 0.113083 0.886918 0.625326
O O10 0.142153 0.857848 0.753455
O O11 0.750000 0.750000 0.672473
#
# Coordination Sequence:
#
# PCOD9568386 Si02
#       5
#     8  16  16   8  16
#     4  11  23  38  56  80 117 161 198 234 280 343
#     4  10  22  41  63  85 113 154 198 241 289 343
#     4  10  21  36  59  89 118 150 190 242 299 348
#     4   9  18  32  53  86 122 150 183 235 298 350
#     4  10  22  37  58  85 117 149 192 239 291 346
#
# _framework density 18.369478000000001
#
# number of rings (size 3 to 8) (size 9 to 14) (size 15 to 20)
#    0.000    2.000    0.000    2.625    7.000    6.000 
#    0.000    3.750    0.000    3.000    0.000    0.000 
#    0.000    0.000    0.000    0.000    0.000    0.000 
#
# Total GULP energy -357086.503488 kJ/mol
# GULP energy per Si atom -5579.476617 kJ/mol
# Density = 1.832767 g / cm^3
# Si number density = 18.369478 Si / 1000 Ang^3
#
#
#
# Elastic Constant Matrix: (Units=GPa)
#
#
# Indices 1 2 3 4 5 6 
#
# 1 91.1321 41.7724 78.2884 0.0000 0.0000 0.0000
# 2 41.7724 91.1320 78.2883 0.0000 0.0000 0.0000
# 3 78.2884 78.2883 139.0639 0.0000 0.0000 0.0000
# 4 0.0000 0.0000 0.0000 29.2667 0.0000 0.0000
# 5 0.0000 0.0000 0.0000 0.0000 29.2670 0.0000
# 6 0.0000 0.0000 0.0000 0.0000 0.0000 14.8328
#
#
#
# Elastic Compliance Matrix: (Units=1/GPa)
#
#
# Indices 1 2 3 4 5 6 
#
# 1 0.021301 0.001042 -0.012578 0.000000 0.000000 0.000000
# 2 0.001042 0.021301 -0.012578 0.000000 0.000000 0.000000
# 3 -0.012578 -0.012578 0.021353 0.000000 0.000000 0.000000
# 4 0.000000 0.000000 0.000000 0.034169 0.000000 0.000000
# 5 0.000000 0.000000 0.000000 0.000000 0.034168 0.000000
# 6 0.000000 0.000000 0.000000 0.000000 0.000000 0.067418
#
#
# Mechanical properties :
#
#
# Convention : Reuss Voigt Hill
#
# Bulk Modulus (GPa) = 63.58968 79.78070 71.68519
# Shear Modulus (GPa) = 19.74862 22.87189 21.31026
#
# Velocity S-wave (km/s) = 3.28240 3.53243 3.40971
# Velocity P-wave (km/s) = 7.00412 7.75647 7.38987
#
# Compressibility (1/GPa) = 0.01572582
#
# Stress axis : x y z
#
# Youngs Moduli (GPa) = 46.94580 46.94581 46.83128
#
# Poissons Ratio (x) = -0.04890 0.58906
# Poissons Ratio (y) = -0.04890 0.58906
# Poissons Ratio (z) = 0.59050 0.59050
#
# Static dielectric constant tensor:
#      x y z
#    x 1.639820 0.000000 0.000000 
#    y 0.000000 1.639820 0.000000 
#    z 0.000000 0.000000 1.618270 
# 
# From -- ./inp_files/9827.got.cif
#   From: 2010.05.17/outbox.cif.g08.bks.cpg/sg134_5_cif.got.tgz:9827.got - 2010.05.20 12:42:49.
