data_PCOD9568116
_publ_section_title
;
Structure prediction by ZEFSAII (Michael W. Deem and Ramdas Pophale) SiO2 
 PCOD9568116
Probable space group: P 42/N N M
;
_chemical_formula_sum "Si O2"
_cell_formula_units_Z 56
_cell_length_a 17.893403
_cell_length_b 17.893403
_cell_length_c 10.930751
_cell_angle_alpha 90.000000
_cell_angle_beta 90.000000
_cell_angle_gamma 90.000000
_cell_volume 3499.740860
_symmetry_space_group_name_H-M "P 42/N N M"
_symmetry_group_IT_number 134
_space_group.IT_coordinate_system_code '2'
_symmetry_cell_setting 'tetragonal'
loop_
_space_group_symop_operation_xyz
x,y,z
1/2-y,x,1/2+z
1/2-x,1/2-y,z
y,1/2-x,1/2+z
x,1/2-y,1/2-z
1/2-x,y,1/2-z
y,x,-z
1/2-y,1/2-x,-z
-x,-y,-z
1/2+y,-x,1/2-z
1/2+x,1/2+y,-z
-y,1/2+x,1/2-z
-x,1/2+y,1/2+z
1/2+x,-y,1/2+z
-y,-x,z
1/2+y,1/2+x,z
loop_
_atom_site_type_symbol
_atom_site_label
_atom_site_fract_x
_atom_site_fract_y
_atom_site_fract_z
Si Si1 0.165175 0.958678 0.215373
Si Si2 0.894308 0.838620 0.376301
Si Si3 0.097760 0.250000 0.250000
Si Si4 0.314019 0.060604 0.498869
O O1 0.250000 0.937445 0.250000
O O2 0.106829 0.893172 0.236682
O O3 0.145446 0.032372 0.296036
O O4 0.165527 0.986430 0.074975
O O5 0.887625 0.887625 0.500000
O O6 0.818725 0.853479 0.301419
O O7 0.901202 0.753229 0.421434
O O8 0.051426 0.217515 0.135624
O O9 0.383569 0.116432 0.500000
#
# Coordination Sequence:
#
# PCOD9568116 Si02
#       4
#    16  16   8  16
#     4  10  21  38  54  75 102 131 180 228 265 311
#     4   9  19  31  49  76 107 142 171 208 248 313
#     4  10  18  31  46  74 116 143 172 198 256 309
#     4  10  19  31  48  76 107 143 175 206 252 312
#
# _framework density 16.001185
#
# number of rings (size 3 to 8) (size 9 to 14) (size 15 to 20)
#    0.000    2.286    2.857    0.000    0.000    7.714 
#    0.000    0.000    0.000    1.714    0.000    0.000 
#    0.000    0.000    0.000    0.000    0.000    0.000 
#
# Total GULP energy -312213.820342 kJ/mol
# GULP energy per Si atom -5575.246792 kJ/mol
# Density = 1.596477 g / cm^3
# Si number density = 16.001185 Si / 1000 Ang^3
#
#
#
# Elastic Constant Matrix: (Units=GPa)
#
#
# Indices 1 2 3 4 5 6 
#
# 1 80.3199 63.7781 41.9745 0.0000 0.0000 0.0000
# 2 63.7781 80.3205 41.9748 0.0000 0.0000 0.0000
# 3 41.9745 41.9748 109.8398 0.0000 0.0000 0.0000
# 4 0.0000 0.0000 0.0000 12.6392 0.0000 0.0000
# 5 0.0000 0.0000 0.0000 0.0000 12.6386 0.0000
# 6 0.0000 0.0000 0.0000 0.0000 0.0000 18.6680
#
#
#
# Elastic Compliance Matrix: (Units=1/GPa)
#
#
# Indices 1 2 3 4 5 6 
#
# 1 0.034690 -0.025762 -0.003411 0.000000 0.000000 0.000000
# 2 -0.025762 0.034689 -0.003412 0.000000 0.000000 0.000000
# 3 -0.003411 -0.003412 0.011712 0.000000 0.000000 0.000000
# 4 0.000000 0.000000 0.000000 0.079119 0.000000 0.000000
# 5 0.000000 0.000000 0.000000 0.000000 0.079123 0.000000
# 6 0.000000 0.000000 0.000000 0.000000 0.000000 0.053568
#
#
# Mechanical properties :
#
#
# Convention : Reuss Voigt Hill
#
# Bulk Modulus (GPa) = 62.81410 62.88165 62.84788
# Shear Modulus (GPa) = 13.75982 16.97268 15.36625
#
# Velocity S-wave (km/s) = 2.93563 3.26039 3.10226
# Velocity P-wave (km/s) = 7.12963 7.31826 7.22456
#
# Compressibility (1/GPa) = 0.01591999
#
# Stress axis : x y z
#
# Youngs Moduli (GPa) = 28.82716 28.82731 85.38604
#
# Poissons Ratio (x) = 0.74266 0.29129
# Poissons Ratio (y) = 0.74265 0.29130
# Poissons Ratio (z) = 0.09834 0.09834
#
# Static dielectric constant tensor:
#      x y z
#    x 1.510280 0.000000 0.000000 
#    y 0.000000 1.510280 0.000000 
#    z 0.000000 0.000000 1.594260 
# 
# From -- ./inp_files/4434.got.cif
#   From: 2010.05.17/outbox.cif.g08.bks.cpg/sg134_3_cif.got.tgz:4434.got - 2010.05.20 12:42:49.
