data_PCOD9568614
_publ_section_title
;
Structure prediction by ZEFSAII (Michael W. Deem and Ramdas Pophale) SiO2 
 PCOD9568614
Probable space group: P 42/M B C
;
_chemical_formula_sum "Si O2"
_cell_formula_units_Z 96
_cell_length_a 14.382385
_cell_length_b 14.382385
_cell_length_c 26.380912
_cell_angle_alpha 90.000000
_cell_angle_beta 90.000000
_cell_angle_gamma 90.000000
_cell_volume 5456.970745
_symmetry_space_group_name_H-M "P 42/M B C"
_symmetry_group_IT_number 135
_symmetry_cell_setting 'tetragonal'
loop_
_space_group_symop_operation_xyz
x,y,z
-y,x,1/2+z
-x,-y,z
y,-x,1/2+z
1/2+x,1/2-y,-z
1/2-x,1/2+y,-z
1/2+y,1/2+x,1/2-z
1/2-y,1/2-x,1/2-z
-x,-y,-z
y,-x,1/2-z
x,y,-z
-y,x,1/2-z
1/2-x,1/2+y,z
1/2+x,1/2-y,z
1/2-y,1/2-x,1/2+z
1/2+y,1/2+x,1/2+z
loop_
_atom_site_type_symbol
_atom_site_label
_atom_site_fract_x
_atom_site_fract_y
_atom_site_fract_z
Si Si1 0.297095 0.557573 0.194507
Si Si2 0.287590 0.576205 0.441391
Si Si3 0.281515 0.202685 0.637286
Si Si4 0.686403 0.644826 0.443435
Si Si5 0.509291 0.389561 0.408118
Si Si6 0.286789 0.357901 0.228377
O O1 0.220449 0.624865 0.169224
O O2 0.360484 0.516383 0.149150
O O3 0.261160 0.465010 0.221304
O O4 0.349850 0.625352 0.233648
O O5 0.265665 0.594653 0.500000
O O6 0.215233 0.617852 0.401681
O O7 0.296091 0.464968 0.435409
O O8 0.386098 0.625960 0.427347
O O9 0.270843 0.293590 0.601349
O O10 0.196515 0.189855 0.676240
O O11 0.718444 0.670237 0.500000
O O12 0.574229 0.655987 0.440055
O O13 0.500000 0.500000 0.412886
O O14 0.201373 0.298628 0.250000
#
# Coordination Sequence:
#
# PCOD9568614 Si02
#       6
#    16  16  16  16  16  16
#     4  10  21  34  54  78 111 141 181 229 278 334
#     4  10  18  31  55  81 112 146 179 221 277 337
#     4  10  20  35  53  79 110 145 179 225 274 328
#     4   9  18  31  50  79 110 141 180 223 269 324
#     4   9  17  29  49  80 110 137 170 222 281 327
#     4  10  22  36  54  80 107 140 185 230 280 334
#
# _framework density 17.592178000000001
#
# number of rings (size 3 to 8) (size 9 to 14) (size 15 to 20)
#    0.000    2.333    1.667    1.000    2.333    4.667 
#    0.000    0.000    0.000   11.500    0.000    2.333 
#    0.000    0.000    0.000    0.000    0.000    0.000 
#
# Total GULP energy -534655.975726 kJ/mol
# GULP energy per Si atom -5569.333080 kJ/mol
# Density = 1.755214 g / cm^3
# Si number density = 17.592178 Si / 1000 Ang^3
#
#
#
# Elastic Constant Matrix: (Units=GPa)
#
#
# Indices 1 2 3 4 5 6 
#
# 1 47.5183 20.6648 29.4077 0.0000 0.0000 0.0000
# 2 20.6648 47.5216 29.4090 0.0000 0.0000 0.0000
# 3 29.4077 29.4090 105.2996 0.0000 0.0000 0.0000
# 4 0.0000 0.0000 0.0000 19.4734 0.0000 0.0000
# 5 0.0000 0.0000 0.0000 0.0000 19.4736 0.0000
# 6 0.0000 0.0000 0.0000 0.0000 0.0000 11.5618
#
#
#
# Elastic Compliance Matrix: (Units=1/GPa)
#
#
# Indices 1 2 3 4 5 6 
#
# 1 0.028280 -0.008958 -0.005396 0.000000 0.000000 0.000000
# 2 -0.008958 0.028278 -0.005396 0.000000 0.000000 0.000000
# 3 -0.005396 -0.005396 0.012511 0.000000 0.000000 0.000000
# 4 0.000000 0.000000 0.000000 0.051352 0.000000 0.000000
# 5 0.000000 0.000000 0.000000 0.000000 0.051351 0.000000
# 6 0.000000 0.000000 0.000000 0.000000 0.000000 0.086492
#
#
# Mechanical properties :
#
#
# Convention : Reuss Voigt Hill
#
# Bulk Modulus (GPa) = 33.82006 39.92249 36.87128
# Shear Modulus (GPa) = 16.25386 18.15897 17.20641
#
# Velocity S-wave (km/s) = 3.04291 3.21630 3.13081
# Velocity P-wave (km/s) = 5.62245 6.04445 5.83727
#
# Compressibility (1/GPa) = 0.02956825
#
# Stress axis : x y z
#
# Youngs Moduli (GPa) = 35.36116 35.36347 79.93173
#
# Poissons Ratio (x) = 0.31679 0.43131
# Poissons Ratio (y) = 0.31677 0.43130
# Poissons Ratio (z) = 0.19081 0.19082
#
# Static dielectric constant tensor:
#      x y z
#    x 1.598670 0.000000 0.000000 
#    y 0.000000 1.598670 0.000000 
#    z 0.000000 0.000000 1.655900 
# 
# From -- ./inp_files/6844.got.cif
#   From: 2010.05.17/outbox.cif.g08.bks.cpg/sg135_4_cif.got.tgz:6844.got - 2010.05.20 12:50:20.
