data_PCOD9568443
_publ_section_title
;
Structure prediction by ZEFSAII (Michael W. Deem and Ramdas Pophale) SiO2 
 PCOD9568443
Probable space group: P 42/N N M
;
_chemical_formula_sum "Si O2"
_cell_formula_units_Z 116
_cell_length_a 18.504900
_cell_length_b 18.504900
_cell_length_c 16.502665
_cell_angle_alpha 90.000000
_cell_angle_beta 90.000000
_cell_angle_gamma 90.000000
_cell_volume 5651.029426
_symmetry_space_group_name_H-M "P 42/N N M"
_symmetry_group_IT_number 134
_space_group.IT_coordinate_system_code '2'
_symmetry_cell_setting 'tetragonal'
loop_
_space_group_symop_operation_xyz
x,y,z
1/2-y,x,1/2+z
1/2-x,1/2-y,z
y,1/2-x,1/2+z
x,1/2-y,1/2-z
1/2-x,y,1/2-z
y,x,-z
1/2-y,1/2-x,-z
-x,-y,-z
1/2+y,-x,1/2-z
1/2+x,1/2+y,-z
-y,1/2+x,1/2-z
-x,1/2+y,1/2+z
1/2+x,-y,1/2+z
-y,-x,z
1/2+y,1/2+x,z
loop_
_atom_site_type_symbol
_atom_site_label
_atom_site_fract_x
_atom_site_fract_y
_atom_site_fract_z
Si Si1 0.693533 0.426093 0.178064
Si Si2 0.750000 0.750000 0.250000
Si Si3 0.537654 0.918542 0.695591
Si Si4 0.950147 0.645998 0.440048
Si Si5 0.086199 0.394395 0.124282
Si Si6 0.254204 0.379688 0.336806
Si Si7 0.096606 0.712104 0.494090
Si Si8 0.859950 0.021568 0.510048
O O1 0.750000 0.427427 0.250000
O O2 0.629989 0.370012 0.200956
O O3 0.657411 0.504544 0.166969
O O4 0.722345 0.400999 0.091196
O O5 0.806888 0.788198 0.190039
O O6 0.607095 0.943670 0.646710
O O7 0.549375 0.912077 0.790864
O O8 0.478199 0.978199 0.676044
O O9 0.901822 0.598179 0.500000
O O10 0.916225 0.723150 0.416503
O O11 0.030787 0.657732 0.471965
O O12 0.163244 0.358605 0.144853
O O13 0.032827 0.349384 0.066195
O O14 0.108329 0.468983 0.079317
O O15 0.250000 0.422537 0.250000
O O16 0.171177 0.671177 0.469423
O O17 0.068512 0.790133 0.463545
O O18 0.922262 0.077739 0.485863
#
# Coordination Sequence:
#
# PCOD9568443 Si02
#       8
#    16   4  16  16  16  16  16  16
#     4  10  22  39  59  89 123 161 212 266 323 391
#     4   8  20  40  58  88 128 168 208 250 316 390
#     4  11  21  36  61  87 117 159 208 262 318 377
#     4  12  23  40  63  93 125 170 213 259 320 381
#     4  11  21  40  65  92 126 164 217 268 323 390
#     4  10  21  42  60  89 132 168 209 260 316 384
#     4  11  24  42  64  93 128 167 216 270 328 396
#     4  11  24  42  65  94 129 167 218 276 331 394
#
# _framework density 20.527232000000001
#
# number of rings (size 3 to 8) (size 9 to 14) (size 15 to 20)
#    0.414    0.828    4.138    2.897    0.000    3.724 
#    7.448    1.379    0.000    0.000    0.000    0.000 
#    0.000    4.414    0.000    0.000    0.000    0.000 
#
# Total GULP energy -646374.008031 kJ/mol
# GULP energy per Si atom -5572.189724 kJ/mol
# Density = 2.048051 g / cm^3
# Si number density = 20.527232 Si / 1000 Ang^3
#
#
#
# Elastic Constant Matrix: (Units=GPa)
#
#
# Indices 1 2 3 4 5 6 
#
# 1 57.6464 15.2791 -6.3501 0.0000 0.0000 0.0000
# 2 15.2791 57.6464 -6.3499 0.0000 0.0000 0.0000
# 3 -6.3501 -6.3499 49.7166 0.0000 0.0000 0.0000
# 4 0.0000 0.0000 0.0000 20.5201 0.0000 0.0000
# 5 0.0000 0.0000 0.0000 0.0000 20.5195 0.0000
# 6 0.0000 0.0000 0.0000 0.0000 0.0000 25.6540
#
#
#
# Elastic Compliance Matrix: (Units=1/GPa)
#
#
# Indices 1 2 3 4 5 6 
#
# 1 0.018814 -0.004789 0.001791 0.000000 0.000000 0.000000
# 2 -0.004789 0.018814 0.001791 0.000000 0.000000 0.000000
# 3 0.001791 0.001791 0.020572 0.000000 0.000000 0.000000
# 4 0.000000 0.000000 0.000000 0.048733 0.000000 0.000000
# 5 0.000000 0.000000 0.000000 0.000000 0.048734 0.000000
# 6 0.000000 0.000000 0.000000 0.000000 0.000000 0.038980
#
#
# Mechanical properties :
#
#
# Convention : Reuss Voigt Hill
#
# Bulk Modulus (GPa) = 17.92570 18.90751 18.41661
# Shear Modulus (GPa) = 23.18517 24.16741 23.67629
#
# Velocity S-wave (km/s) = 3.36442 3.43495 3.39987
# Velocity P-wave (km/s) = 4.88304 4.99628 4.93998
#
# Compressibility (1/GPa) = 0.05578583
#
# Stress axis : x y z
#
# Youngs Moduli (GPa) = 53.15227 53.15233 48.61073
#
# Poissons Ratio (x) = 0.25456 -0.08708
# Poissons Ratio (y) = 0.25456 -0.08707
# Poissons Ratio (z) = -0.09521 -0.09521
#
# Static dielectric constant tensor:
#      x y z
#    x 1.808040 0.000000 0.000000 
#    y 0.000000 1.808050 0.000000 
#    z 0.000000 0.000000 1.743180 
# 
# From -- ./inp_files/8055.got.cif
#   From: 2010.05.17/outbox.cif.g08.bks.cpg/sg134_5_cif.got.tgz:8055.got - 2010.05.20 12:42:49.
