data_PCOD9568580
_publ_section_title
;
Structure prediction by ZEFSAII (Michael W. Deem and Ramdas Pophale) SiO2 
 PCOD9568580
Probable space group: P 42/N N M
;
_chemical_formula_sum "Si O2"
_cell_formula_units_Z 108
_cell_length_a 15.000000
_cell_length_b 15.000000
_cell_length_c 24.000000
_cell_angle_alpha 90.000000
_cell_angle_beta 90.000000
_cell_angle_gamma 90.000000
_cell_volume 5400.000000
_symmetry_space_group_name_H-M "P 42/N N M"
_symmetry_group_IT_number 134
_space_group.IT_coordinate_system_code '2'
_symmetry_cell_setting 'tetragonal'
loop_
_space_group_symop_operation_xyz
x,y,z
1/2-y,x,1/2+z
1/2-x,1/2-y,z
y,1/2-x,1/2+z
x,1/2-y,1/2-z
1/2-x,y,1/2-z
y,x,-z
1/2-y,1/2-x,-z
-x,-y,-z
1/2+y,-x,1/2-z
1/2+x,1/2+y,-z
-y,1/2+x,1/2-z
-x,1/2+y,1/2+z
1/2+x,-y,1/2+z
-y,-x,z
1/2+y,1/2+x,z
loop_
_atom_site_type_symbol
_atom_site_label
_atom_site_fract_x
_atom_site_fract_y
_atom_site_fract_z
Si Si1 0.464671 0.252850 0.148281
Si Si2 0.741918 0.467500 0.861409
Si Si3 0.864200 0.991081 0.966300
Si Si4 0.250000 0.750000 0.126221
Si Si5 0.939824 0.582374 0.309719
Si Si6 0.750000 0.100895 0.250000
Si Si7 0.936021 0.919609 0.322533
Si Si8 0.105804 0.747465 0.552959
O O1 0.414488 0.347012 0.156170
O O2 0.537351 0.253089 0.197332
O O3 0.408420 0.162954 0.153402
O O4 0.524675 0.239771 0.094214
O O5 0.700862 0.521593 0.914190
O O6 0.748611 0.361706 0.872654
O O7 0.666085 0.494052 0.816832
O O8 0.836491 0.504386 0.841376
O O9 0.950888 0.049113 0.947930
O O10 0.804432 0.058222 0.002997
O O11 0.906997 0.906997 0.000000
O O12 0.922380 0.576558 0.243955
O O13 0.993559 0.493559 0.326917
O O14 0.664268 0.164268 0.247740
O O15 0.989430 0.010571 0.338462
O O16 0.164256 0.835744 0.538823
O O17 0.177884 0.677884 0.577818
#
# Coordination Sequence:
#
# PCOD9568580 Si02
#       8
#    16  16  16   4  16   8  16  16
#     4  12  22  39  60  89 132 175 215 266 329 406
#     4  12  24  43  69  96 131 170 223 281 337 397
#     4  10  21  39  65  96 126 163 213 274 341 404
#     4  12  24  44  71 104 122 172 224 293 344 384
#     4  11  22  40  63  93 127 174 222 274 335 400
#     4  11  20  32  58  89 120 166 220 273 332 393
#     4  11  24  40  61  93 131 173 218 269 336 397
#     4  10  21  34  58  92 125 159 208 269 326 388
#
# _framework density 20.0
#
# number of rings (size 3 to 8) (size 9 to 14) (size 15 to 20)
#    0.000    0.963    3.704    4.000    1.037    2.963 
#    0.000    3.704    0.000    2.667    0.000    0.000 
#    0.000    0.000    0.000    0.000    0.000    0.000 
#
# Total GULP energy -601382.471779 kJ/mol
# GULP energy per Si atom -5568.356220 kJ/mol
# Density = 1.995448 g / cm^3
# Si number density = 20.000000 Si / 1000 Ang^3
#
#
#
# Elastic Constant Matrix: (Units=GPa)
#
#
# Indices 1 2 3 4 5 6 
#
# 1 119.9074 48.4540 19.9178 0.0000 0.0000 0.0000
# 2 48.4540 119.9074 19.9178 0.0000 0.0000 0.0000
# 3 19.9178 19.9178 51.2405 0.0000 0.0000 0.0000
# 4 0.0000 0.0000 0.0000 14.3136 0.0000 0.0000
# 5 0.0000 0.0000 0.0000 0.0000 14.3136 0.0000
# 6 0.0000 0.0000 0.0000 0.0000 0.0000 -27.6268
#
#
#
# Elastic Compliance Matrix: (Units=1/GPa)
#
#
# Indices 1 2 3 4 5 6 
#
# 1 0.010268 -0.003727 -0.002543 0.000000 0.000000 0.000000
# 2 -0.003727 0.010268 -0.002543 0.000000 0.000000 0.000000
# 3 -0.002543 -0.002543 0.021493 0.000000 0.000000 0.000000
# 4 0.000000 0.000000 0.000000 0.069864 0.000000 0.000000
# 5 0.000000 0.000000 0.000000 0.000000 0.069864 0.000000
# 6 0.000000 0.000000 0.000000 0.000000 0.000000 -0.036197
#
#
# Mechanical properties :
#
#
# Convention : Reuss Voigt Hill
#
# Bulk Modulus (GPa) = 40.97625 51.95938 46.46782
# Shear Modulus (GPa) = 29.18534 13.71779 21.45157
#
# Velocity S-wave (km/s) = 3.82418 2.62179 3.27858
# Velocity P-wave (km/s) = 6.32706 5.93305 6.13322
#
# Compressibility (1/GPa) = 0.02440438
#
# Stress axis : x y z
#
# Youngs Moduli (GPa) = 97.38835 97.38835 46.52778
#
# Poissons Ratio (x) = 0.36296 0.11830
# Poissons Ratio (y) = 0.36296 0.11830
# Poissons Ratio (z) = 0.24762 0.24762
#
# Static dielectric constant tensor:
#      x y z
#    x 1.690070 0.000000 0.000000 
#    y 0.000000 1.690070 0.000000 
#    z 0.000000 0.000000 1.920480 
# 
# From -- ./inp_files/10176.got.cif
#   From: 2010.05.17/outbox.ucp.g08.bks.cvg/sg134_6_cif.got.tgz:10176.got - 2010.06.11 11:39:54.
