data_PCOD9568570
_publ_section_title
;
Structure prediction by ZEFSAII (Michael W. Deem and Ramdas Pophale) SiO2 
 PCOD9568570
Probable space group: P 42/N N M
;
_chemical_formula_sum "Si O2"
_cell_formula_units_Z 64
_cell_length_a 21.486219
_cell_length_b 21.486219
_cell_length_c 7.960930
_cell_angle_alpha 90.000000
_cell_angle_beta 90.000000
_cell_angle_gamma 90.000000
_cell_volume 3675.223893
_symmetry_space_group_name_H-M "P 42/N N M"
_symmetry_group_IT_number 134
_space_group.IT_coordinate_system_code '2'
_symmetry_cell_setting 'tetragonal'
loop_
_space_group_symop_operation_xyz
x,y,z
1/2-y,x,1/2+z
1/2-x,1/2-y,z
y,1/2-x,1/2+z
x,1/2-y,1/2-z
1/2-x,y,1/2-z
y,x,-z
1/2-y,1/2-x,-z
-x,-y,-z
1/2+y,-x,1/2-z
1/2+x,1/2+y,-z
-y,1/2+x,1/2-z
-x,1/2+y,1/2+z
1/2+x,-y,1/2+z
-y,-x,z
1/2+y,1/2+x,z
loop_
_atom_site_type_symbol
_atom_site_label
_atom_site_fract_x
_atom_site_fract_y
_atom_site_fract_z
Si Si1 0.745362 0.151486 0.453032
Si Si2 0.608423 0.001541 0.321452
Si Si3 0.837288 0.054477 0.501371
Si Si4 0.399769 0.006763 0.303280
O O1 0.750000 0.147638 0.250000
O O2 0.794775 0.205226 0.502377
O O3 0.677237 0.177237 0.498033
O O4 0.771357 0.088043 0.524546
O O5 0.630835 0.995298 0.512706
O O6 0.570294 0.938652 0.280242
O O7 0.556386 0.056386 0.321008
O O8 0.656563 0.020736 0.178214
O O9 0.889977 0.110024 0.499418
O O10 0.854963 0.008759 0.650729
O O11 0.452711 0.952711 0.303205
#
# Coordination Sequence:
#
# PCOD9568570 Si02
#       4
#    16  16  16  16
#     4   8  14  24  36  48  61  81 114 156 196 222
#     4   8  13  20  30  47  69  84  93 113 151 207
#     4   9  14  20  34  49  59  79 107 130 162 214
#     4   8  13  20  30  47  69  84  93 113 151 207
#
# _framework density 17.413903999999999
#
# number of rings (size 3 to 8) (size 9 to 14) (size 15 to 20)
#    0.000    3.750    0.000    3.000    0.000    3.000 
#    0.000    0.000    0.000    3.000    0.000   17.500 
#    0.000   12.000    0.000    0.000    0.000    0.000 
#
# Total GULP energy -356488.629433 kJ/mol
# GULP energy per Si atom -5570.134835 kJ/mol
# Density = 1.737427 g / cm^3
# Si number density = 17.413904 Si / 1000 Ang^3
#
#
#
# Elastic Constant Matrix: (Units=GPa)
#
#
# Indices 1 2 3 4 5 6 
#
# 1 29.2030 31.2830 26.6806 0.0000 0.0000 0.0000
# 2 31.2830 29.2030 26.6806 0.0000 0.0000 0.0000
# 3 26.6806 26.6806 54.4502 0.0000 0.0000 0.0000
# 4 0.0000 0.0000 0.0000 -7.1815 0.0000 0.0000
# 5 0.0000 0.0000 0.0000 0.0000 -7.1815 0.0000
# 6 0.0000 0.0000 0.0000 0.0000 0.0000 2.9300
#
#
#
# Elastic Compliance Matrix: (Units=1/GPa)
#
#
# Indices 1 2 3 4 5 6 
#
# 1 -0.225831 0.254952 -0.014269 0.000000 0.000000 0.000000
# 2 0.254952 -0.225831 -0.014269 0.000000 0.000000 0.000000
# 3 -0.014269 -0.014269 0.032350 0.000000 0.000000 0.000000
# 4 0.000000 0.000000 0.000000 -0.139246 0.000000 0.000000
# 5 0.000000 0.000000 0.000000 0.000000 -0.139246 0.000000
# 6 0.000000 0.000000 0.000000 0.000000 0.000000 0.341296
#
#
# Mechanical properties :
#
#
# Convention : Reuss Voigt Hill
#
# Bulk Modulus (GPa) = 29.83798 31.34941 30.59369
# Shear Modulus (GPa) = -6.26438 -0.40580 -3.33509
#
# Velocity S-wave (km/s) = -1.89872 -0.48326 -1.38540
# Velocity P-wave (km/s) = 3.51638 4.21073 3.87912
#
# Compressibility (1/GPa) = 0.03351434
#
# Stress axis : x y z
#
# Youngs Moduli (GPa) = -4.42809 -4.42809 30.91237
#
# Poissons Ratio (x) = 1.12895 0.44110
# Poissons Ratio (y) = 1.12895 0.44110
# Poissons Ratio (z) = -0.06319 -0.06319
#
# Static dielectric constant tensor:
#      x y z
#    x 1.594920 0.000000 0.000000 
#    y 0.000000 1.594920 0.000000 
#    z 0.000000 0.000000 1.629580 
# 
# From -- ./inp_files/2738.got.cif
#   From: 2010.05.17/outbox.cif.g08.bks.cpg/sg134_2_cif.got.tgz:2738.got - 2010.05.20 12:42:49.
