data_PCOD9568975
_publ_section_title
;
Structure prediction by ZEFSAII (Michael W. Deem and Ramdas Pophale) SiO2 
 PCOD9568975
Probable space group: P 42/M B C
;
_chemical_formula_sum "Si O2"
_cell_formula_units_Z 80
_cell_length_a 10.518545
_cell_length_b 10.518545
_cell_length_c 32.616176
_cell_angle_alpha 90.000000
_cell_angle_beta 90.000000
_cell_angle_gamma 90.000000
_cell_volume 3608.646828
_symmetry_space_group_name_H-M "P 42/M B C"
_symmetry_group_IT_number 135
_symmetry_cell_setting 'tetragonal'
loop_
_space_group_symop_operation_xyz
x,y,z
-y,x,1/2+z
-x,-y,z
y,-x,1/2+z
1/2+x,1/2-y,-z
1/2-x,1/2+y,-z
1/2+y,1/2+x,1/2-z
1/2-y,1/2-x,1/2-z
-x,-y,-z
y,-x,1/2-z
x,y,-z
-y,x,1/2-z
1/2-x,1/2+y,z
1/2+x,1/2-y,z
1/2-y,1/2-x,1/2+z
1/2+y,1/2+x,1/2+z
loop_
_atom_site_type_symbol
_atom_site_label
_atom_site_fract_x
_atom_site_fract_y
_atom_site_fract_z
Si Si1 0.795998 0.975089 0.629835
Si Si2 0.166508 0.756085 0.044586
Si Si3 0.606073 0.891480 0.296836
Si Si4 0.463068 0.296868 0.641093
Si Si5 0.486588 0.850418 0.563196
O O1 0.758490 0.927852 0.584038
O O2 0.836783 0.123189 0.629277
O O3 0.705341 0.940463 0.668176
O O4 0.921252 0.892426 0.637914
O O5 0.215860 0.611524 0.044533
O O6 0.278169 0.859446 0.049833
O O7 0.000000 0.500000 0.053713
O O8 0.104656 0.780031 0.000000
O O9 0.640631 0.859370 0.250000
O O10 0.552611 0.760674 0.314662
O O11 0.500000 0.000000 0.295419
O O12 0.496758 0.179553 0.611307
#
# Coordination Sequence:
#
# PCOD9568975 Si02
#       5
#    16  16  16  16  16
#     4  10  24  44  68  98 135 180 226 277 348 412
#     4  11  25  44  71 104 140 186 241 295 355 426
#     4  11  25  42  69 102 133 173 224 282 343 412
#     4  10  23  44  69  96 133 179 223 276 343 413
#     4  11  25  45  70 101 141 187 236 293 357 426
#
# _framework density 22.168976000000001
#
# number of rings (size 3 to 8) (size 9 to 14) (size 15 to 20)
#    0.000    1.400    2.000    1.200    5.600    3.200 
#    0.000   10.000    0.000    0.000    0.000    0.000 
#    0.000    0.000    0.000    0.000    0.000    0.000 
#
# Total GULP energy -446455.253453 kJ/mol
# GULP energy per Si atom -5580.690668 kJ/mol
# Density = 2.211852 g / cm^3
# Si number density = 22.168976 Si / 1000 Ang^3
#
#
#
# Elastic Constant Matrix: (Units=GPa)
#
#
# Indices 1 2 3 4 5 6 
#
# 1 89.8603 22.8995 30.8432 0.0000 0.0000 0.0000
# 2 22.8995 89.8606 30.8433 0.0000 0.0000 0.0000
# 3 30.8432 30.8433 192.1533 0.0000 0.0000 0.0000
# 4 0.0000 0.0000 0.0000 16.7197 0.0000 0.0000
# 5 0.0000 0.0000 0.0000 0.0000 16.7192 0.0000
# 6 0.0000 0.0000 0.0000 0.0000 0.0000 22.4220
#
#
#
# Elastic Compliance Matrix: (Units=1/GPa)
#
#
# Indices 1 2 3 4 5 6 
#
# 1 0.012328 -0.002606 -0.001561 0.000000 0.000000 0.000000
# 2 -0.002606 0.012328 -0.001561 0.000000 0.000000 0.000000
# 3 -0.001561 -0.001561 0.005705 0.000000 0.000000 0.000000
# 4 0.000000 0.000000 0.000000 0.059810 0.000000 0.000000
# 5 0.000000 0.000000 0.000000 0.000000 0.059812 0.000000
# 6 0.000000 0.000000 0.000000 0.000000 0.000000 0.044599
#
#
# Mechanical properties :
#
#
# Convention : Reuss Voigt Hill
#
# Bulk Modulus (GPa) = 52.88981 60.11623 56.50302
# Shear Modulus (GPa) = 23.54735 30.32473 26.93604
#
# Velocity S-wave (km/s) = 3.26264 3.70251 3.48951
# Velocity P-wave (km/s) = 6.17272 6.74198 6.46362
#
# Compressibility (1/GPa) = 0.01890723
#
# Stress axis : x y z
#
# Youngs Moduli (GPa) = 81.11550 81.11565 175.28013
#
# Poissons Ratio (x) = 0.21139 0.27353
# Poissons Ratio (y) = 0.21139 0.27353
# Poissons Ratio (z) = 0.12658 0.12658
#
# Static dielectric constant tensor:
#      x y z
#    x 1.916480 0.000000 0.000000 
#    y 0.000000 1.916480 0.000000 
#    z 0.000000 0.000000 1.839890 
# 
# From -- ./inp_files/6718.got.cif
#   From: 2010.05.17/outbox.cif.g08.bks.cpg/sg135_4_cif.got.tgz:6718.got - 2010.05.20 12:50:20.
