data_PCOD9568140
_publ_section_title
;
Structure prediction by ZEFSAII (Michael W. Deem and Ramdas Pophale) SiO2 
 PCOD9568140
Probable space group: P 42/N N M
;
_chemical_formula_sum "Si O2"
_cell_formula_units_Z 112
_cell_length_a 15.520965
_cell_length_b 15.520965
_cell_length_c 25.031243
_cell_angle_alpha 90.000000
_cell_angle_beta 90.000000
_cell_angle_gamma 90.000000
_cell_volume 6030.035313
_symmetry_space_group_name_H-M "P 42/N N M"
_symmetry_group_IT_number 134
_space_group.IT_coordinate_system_code '2'
_symmetry_cell_setting 'tetragonal'
loop_
_space_group_symop_operation_xyz
x,y,z
1/2-y,x,1/2+z
1/2-x,1/2-y,z
y,1/2-x,1/2+z
x,1/2-y,1/2-z
1/2-x,y,1/2-z
y,x,-z
1/2-y,1/2-x,-z
-x,-y,-z
1/2+y,-x,1/2-z
1/2+x,1/2+y,-z
-y,1/2+x,1/2-z
-x,1/2+y,1/2+z
1/2+x,-y,1/2+z
-y,-x,z
1/2+y,1/2+x,z
loop_
_atom_site_type_symbol
_atom_site_label
_atom_site_fract_x
_atom_site_fract_y
_atom_site_fract_z
Si Si1 0.980419 0.881664 0.255711
Si Si2 0.041543 0.201883 0.049313
Si Si3 0.667499 0.807909 0.892317
Si Si4 0.887360 0.250009 0.124492
Si Si5 0.969823 0.741898 0.339719
Si Si6 0.464380 0.189434 0.199630
Si Si7 0.980469 0.624350 0.433744
O O1 0.011494 0.815657 0.302297
O O2 0.940986 0.826178 0.206606
O O3 0.906620 0.941345 0.281518
O O4 0.058767 0.941234 0.236948
O O5 0.102071 0.285343 0.059632
O O6 0.088495 0.117098 0.074357
O O7 0.952199 0.216405 0.079557
O O8 0.025983 0.179888 0.987759
O O9 0.750000 0.750000 0.901266
O O10 0.706287 0.899677 0.875226
O O11 0.611117 0.782030 0.840806
O O12 0.829437 0.170564 0.145493
O O13 0.820869 0.320869 0.103056
O O14 0.946563 0.295543 0.168810
O O15 0.012956 0.681672 0.384239
O O16 0.463631 0.250000 0.250000
O O17 0.043840 0.543840 0.442038
#
# Coordination Sequence:
#
# PCOD9568140 Si02
#       7
#    16  16  16  16  16  16  16
#     4  10  21  38  59  82 115 153 190 238 297 354
#     4  10  21  36  57  84 116 152 189 239 295 349
#     4  10  18  34  53  80 117 146 183 233 293 346
#     4  10  21  37  54  75 111 154 192 231 278 339
#     4  10  21  36  57  86 112 148 189 238 292 352
#     4  10  21  33  53  81 109 147 193 237 277 339
#     4  11  21  36  58  86 117 148 193 248 299 355
#
# _framework density 18.573689999999999
#
# number of rings (size 3 to 8) (size 9 to 14) (size 15 to 20)
#    0.000    1.857    1.429    3.429    2.000    3.143 
#    0.000    1.429    0.000    8.143    0.000    6.000 
#    0.000    0.000    0.000    0.000    0.000    0.000 
#
# Total GULP energy -623731.960311 kJ/mol
# GULP energy per Si atom -5569.035360 kJ/mol
# Density = 1.853142 g / cm^3
# Si number density = 18.573690 Si / 1000 Ang^3
#
#
#
# Elastic Constant Matrix: (Units=GPa)
#
#
# Indices 1 2 3 4 5 6 
#
# 1 77.5536 37.8498 34.5453 0.0000 0.0000 0.0000
# 2 37.8498 77.5536 34.5453 0.0000 0.0000 0.0000
# 3 34.5453 34.5453 75.2905 0.0000 0.0000 0.0000
# 4 0.0000 0.0000 0.0000 10.7960 0.0000 0.0000
# 5 0.0000 0.0000 0.0000 0.0000 10.7960 0.0000
# 6 0.0000 0.0000 0.0000 0.0000 0.0000 24.8493
#
#
#
# Elastic Compliance Matrix: (Units=1/GPa)
#
#
# Indices 1 2 3 4 5 6 
#
# 1 0.018567 -0.006620 -0.005482 0.000000 0.000000 0.000000
# 2 -0.006620 0.018567 -0.005482 0.000000 0.000000 0.000000
# 3 -0.005482 -0.005482 0.018312 0.000000 0.000000 0.000000
# 4 0.000000 0.000000 0.000000 0.092627 0.000000 0.000000
# 5 0.000000 0.000000 0.000000 0.000000 0.092627 0.000000
# 6 0.000000 0.000000 0.000000 0.000000 0.000000 0.040243
#
#
# Mechanical properties :
#
#
# Convention : Reuss Voigt Hill
#
# Bulk Modulus (GPa) = 49.31035 49.36425 49.33730
# Shear Modulus (GPa) = 15.48619 17.51873 16.50246
#
# Velocity S-wave (km/s) = 2.89064 3.07449 2.98398
# Velocity P-wave (km/s) = 6.14387 6.26407 6.20426
#
# Compressibility (1/GPa) = 0.02027972
#
# Stress axis : x y z
#
# Youngs Moduli (GPa) = 53.85964 53.85964 54.60860
#
# Poissons Ratio (x) = 0.35654 0.29934
# Poissons Ratio (y) = 0.35654 0.29934
# Poissons Ratio (z) = 0.29524 0.29524
#
# Static dielectric constant tensor:
#      x y z
#    x 1.669220 0.000000 0.000000 
#    y 0.000000 1.669220 0.000000 
#    z 0.000000 0.000000 1.653060 
# 
# From -- ./inp_files/10099.got.cif
#   From: 2010.05.17/outbox.cif.g08.bks.cpg/sg134_6_cif.got.tgz:10099.got - 2010.05.20 12:42:49.
