data_PCOD9568688
_publ_section_title
;
Structure prediction by ZEFSAII (Michael W. Deem and Ramdas Pophale) SiO2 
 PCOD9568688
Probable space group: P 42/M B C
;
_chemical_formula_sum "Si O2"
_cell_formula_units_Z 88
_cell_length_a 13.352198
_cell_length_b 13.352198
_cell_length_c 21.608800
_cell_angle_alpha 90.000000
_cell_angle_beta 90.000000
_cell_angle_gamma 90.000000
_cell_volume 3852.442609
_symmetry_space_group_name_H-M "P 42/M B C"
_symmetry_group_IT_number 135
_symmetry_cell_setting 'tetragonal'
loop_
_space_group_symop_operation_xyz
x,y,z
-y,x,1/2+z
-x,-y,z
y,-x,1/2+z
1/2+x,1/2-y,-z
1/2-x,1/2+y,-z
1/2+y,1/2+x,1/2-z
1/2-y,1/2-x,1/2-z
-x,-y,-z
y,-x,1/2-z
x,y,-z
-y,x,1/2-z
1/2-x,1/2+y,z
1/2+x,1/2-y,z
1/2-y,1/2-x,1/2+z
1/2+y,1/2+x,1/2+z
loop_
_atom_site_type_symbol
_atom_site_label
_atom_site_fract_x
_atom_site_fract_y
_atom_site_fract_z
Si Si1 0.870387 0.586048 0.136916
Si Si2 0.270426 0.061123 0.234056
Si Si3 0.309199 0.298043 0.500000
Si Si4 0.288535 0.054593 0.365947
Si Si5 0.711255 0.940287 0.500000
Si Si6 0.685514 0.707139 0.367677
Si Si7 0.881926 0.580092 0.000000
O O1 0.820908 0.525177 0.192542
O O2 0.828050 0.700114 0.139274
O O3 0.988802 0.610370 0.140900
O O4 0.850811 0.541051 0.067874
O O5 0.358663 0.141338 0.250000
O O6 0.231403 0.032308 0.302161
O O7 0.189142 0.116343 0.191397
O O8 0.303134 0.177777 0.500000
O O9 0.355240 0.327640 0.434225
O O10 0.194265 0.336695 0.500000
O O11 0.242340 0.030759 0.433504
O O12 0.309551 0.171993 0.369796
O O13 0.605367 0.999168 0.500000
#
# Coordination Sequence:
#
# PCOD9568688 Si02
#       7
#    16  16   8  16   8  16   8
#     4  10  19  34  54  74 106 140 169 222 268 307
#     4  10  21  32  47  75 105 132 172 209 257 321
#     4   8  14  29  49  68  98 130 163 213 258 304
#     4   9  18  30  48  70  95 129 170 206 254 308
#     4   8  14  28  44  63  92 125 162 212 248 291
#     4   9  19  33  50  75 101 132 173 212 260 318
#     4   8  16  29  49  76  96 132 181 203 260 330
#
# _framework density 22.842652000000001
#
# number of rings (size 3 to 8) (size 9 to 14) (size 15 to 20)
#    0.000    2.909    0.000    0.545    0.000   10.182 
#    0.000    0.909    0.000   17.455    0.000    5.091 
#    0.000   21.818    0.000    0.182    0.000    0.182 
#
# Total GULP energy -490144.504388 kJ/mol
# GULP energy per Si atom -5569.823913 kJ/mol
# Density = 2.279066 g / cm^3
# Si number density = 22.842652 Si / 1000 Ang^3
#
#
#
# Elastic Constant Matrix: (Units=GPa)
#
#
# Indices 1 2 3 4 5 6 
#
# 1 40.9203 21.7228 10.4717 0.0000 0.0000 0.0000
# 2 21.7228 40.9203 10.4716 0.0000 0.0000 0.0000
# 3 10.4717 10.4716 288.5178 0.0000 0.0000 0.0000
# 4 0.0000 0.0000 0.0000 15.4179 0.0000 0.0000
# 5 0.0000 0.0000 0.0000 0.0000 15.4185 0.0000
# 6 0.0000 0.0000 0.0000 0.0000 0.0000 18.5051
#
#
#
# Elastic Compliance Matrix: (Units=1/GPa)
#
#
# Indices 1 2 3 4 5 6 
#
# 1 0.034125 -0.017965 -0.000587 0.000000 0.000000 0.000000
# 2 -0.017965 0.034125 -0.000587 0.000000 0.000000 0.000000
# 3 -0.000587 -0.000587 0.003509 0.000000 0.000000 0.000000
# 4 0.000000 0.000000 0.000000 0.064860 0.000000 0.000000
# 5 0.000000 0.000000 0.000000 0.000000 0.064857 0.000000
# 6 0.000000 0.000000 0.000000 0.000000 0.000000 0.054039
#
#
# Mechanical properties :
#
#
# Convention : Reuss Voigt Hill
#
# Bulk Modulus (GPa) = 29.86712 50.63228 40.24970
# Shear Modulus (GPa) = 16.39607 31.71446 24.05527
#
# Velocity S-wave (km/s) = 2.68205 3.73015 3.24865
# Velocity P-wave (km/s) = 4.76390 6.38481 5.63296
#
# Compressibility (1/GPa) = 0.03348163
#
# Stress axis : x y z
#
# Youngs Moduli (GPa) = 29.30422 29.30423 285.01682
#
# Poissons Ratio (x) = 0.52646 0.16716
# Poissons Ratio (y) = 0.52646 0.16716
# Poissons Ratio (z) = 0.01719 0.01719
#
# Static dielectric constant tensor:
#      x y z
#    x 1.880700 0.000000 0.000000 
#    y 0.000000 1.880700 0.000000 
#    z 0.000000 0.000000 2.027350 
# 
# From -- ./inp_files/5361.got.cif
#   From: 2010.05.17/outbox.cif.g08.bks.cpg/sg135_3_cif.got.tgz:5361.got - 2010.05.20 12:50:20.
