data_PCOD9568701
_publ_section_title
;
Structure prediction by ZEFSAII (Michael W. Deem and Ramdas Pophale) SiO2 
 PCOD9568701
Probable space group: P 42/M B C
;
_chemical_formula_sum "Si O2"
_cell_formula_units_Z 88
_cell_length_a 14.788407
_cell_length_b 14.788407
_cell_length_c 21.173327
_cell_angle_alpha 90.000000
_cell_angle_beta 90.000000
_cell_angle_gamma 90.000000
_cell_volume 4630.542705
_symmetry_space_group_name_H-M "P 42/M B C"
_symmetry_group_IT_number 135
_symmetry_cell_setting 'tetragonal'
loop_
_space_group_symop_operation_xyz
x,y,z
-y,x,1/2+z
-x,-y,z
y,-x,1/2+z
1/2+x,1/2-y,-z
1/2-x,1/2+y,-z
1/2+y,1/2+x,1/2-z
1/2-y,1/2-x,1/2-z
-x,-y,-z
y,-x,1/2-z
x,y,-z
-y,x,1/2-z
1/2-x,1/2+y,z
1/2+x,1/2-y,z
1/2-y,1/2-x,1/2+z
1/2+y,1/2+x,1/2+z
loop_
_atom_site_type_symbol
_atom_site_label
_atom_site_fract_x
_atom_site_fract_y
_atom_site_fract_z
Si Si1 0.608316 0.322349 0.500000
Si Si2 0.566696 0.271964 0.867934
Si Si3 0.431056 0.392543 0.278996
Si Si4 0.403528 0.275956 0.500000
Si Si5 0.729423 0.757093 0.102465
Si Si6 0.481513 0.662794 0.000000
Si Si7 0.793073 0.411746 0.286245
O O1 0.512159 0.271070 0.500000
O O2 0.671988 0.298411 0.559504
O O3 0.599176 0.431229 0.500000
O O4 0.574164 0.373537 0.838481
O O5 0.668706 0.239377 0.874625
O O6 0.508303 0.213019 0.819828
O O7 0.519410 0.278056 0.936051
O O8 0.402360 0.460588 0.221667
O O9 0.407491 0.290530 0.262570
O O10 0.348588 0.235640 0.440239
O O11 0.383713 0.383571 0.500000
O O12 0.661215 0.771969 0.159476
O O13 0.883010 0.383010 0.250000
#
# Coordination Sequence:
#
# PCOD9568701 Si02
#       7
#     8  16  16   8  16   8  16
#     4  11  20  39  60  88 115 166 188 241 307 363
#     4  10  20  37  56  87 122 153 197 250 290 362
#     4   9  19  34  54  86 119 152 187 236 307 371
#     4   9  22  37  56  90 123 148 194 247 301 363
#     4  10  21  38  58  86 119 153 201 240 296 357
#     4  10  19  34  58  92 123 144 183 254 312 358
#     4  11  20  35  58  85 115 162 194 241 299 356
#
# _framework density 19.004251
#
# number of rings (size 3 to 8) (size 9 to 14) (size 15 to 20)
#    0.000    2.000    3.636    0.818    0.000    2.909 
#   13.091    0.000    0.000    2.182    4.727    0.000 
#    0.000    0.000    0.000    0.000    0.000    0.000 
#
# Total GULP energy -490652.279987 kJ/mol
# GULP energy per Si atom -5575.594091 kJ/mol
# Density = 1.896100 g / cm^3
# Si number density = 19.004251 Si / 1000 Ang^3
#
#
#
# Elastic Constant Matrix: (Units=GPa)
#
#
# Indices 1 2 3 4 5 6 
#
# 1 47.8856 -6.8529 -1.6140 0.0000 0.0000 0.0000
# 2 -6.8529 47.8856 -1.6140 0.0000 0.0000 0.0000
# 3 -1.6140 -1.6140 52.1068 0.0000 0.0000 0.0000
# 4 0.0000 0.0000 0.0000 11.1403 0.0000 0.0000
# 5 0.0000 0.0000 0.0000 0.0000 11.1403 0.0000
# 6 0.0000 0.0000 0.0000 0.0000 0.0000 19.2456
#
#
#
# Elastic Compliance Matrix: (Units=1/GPa)
#
#
# Indices 1 2 3 4 5 6 
#
# 1 0.021350 0.003081 0.000757 0.000000 0.000000 0.000000
# 2 0.003081 0.021350 0.000757 0.000000 0.000000 0.000000
# 3 0.000757 0.000757 0.019238 0.000000 0.000000 0.000000
# 4 0.000000 0.000000 0.000000 0.089764 0.000000 0.000000
# 5 0.000000 0.000000 0.000000 0.000000 0.089764 0.000000
# 6 0.000000 0.000000 0.000000 0.000000 0.000000 0.051960
#
#
# Mechanical properties :
#
#
# Convention : Reuss Voigt Hill
#
# Bulk Modulus (GPa) = 14.05956 14.19065 14.12510
# Shear Modulus (GPa) = 16.23660 18.83581 17.53621
#
# Velocity S-wave (km/s) = 2.92613 3.15165 3.04098
# Velocity P-wave (km/s) = 4.33941 4.55271 4.44734
#
# Compressibility (1/GPa) = 0.07112600
#
# Stress axis : x y z
#
# Youngs Moduli (GPa) = 46.83943 46.83943 51.97979
#
# Poissons Ratio (x) = -0.14431 -0.03934
# Poissons Ratio (y) = -0.14431 -0.03934
# Poissons Ratio (z) = -0.03545 -0.03545
#
# Static dielectric constant tensor:
#      x y z
#    x 1.661830 0.000000 0.000000 
#    y 0.000000 1.661830 0.000000 
#    z 0.000000 0.000000 1.699760 
# 
# From -- ./inp_files/5367.got.cif
#   From: 2010.05.17/outbox.cif.g08.bks.cpg/sg135_3_cif.got.tgz:5367.got - 2010.05.20 12:50:20.
