data_PCOD9568249
_publ_section_title
;
Structure prediction by ZEFSAII (Michael W. Deem and Ramdas Pophale) SiO2 
 PCOD9568249
Probable space group: P 42/N N M
;
_chemical_formula_sum "Si O2"
_cell_formula_units_Z 64
_cell_length_a 18.607849
_cell_length_b 18.607849
_cell_length_c 10.561366
_cell_angle_alpha 90.000000
_cell_angle_beta 90.000000
_cell_angle_gamma 90.000000
_cell_volume 3656.894569
_symmetry_space_group_name_H-M "P 42/N N M"
_symmetry_group_IT_number 134
_space_group.IT_coordinate_system_code '2'
_symmetry_cell_setting 'tetragonal'
loop_
_space_group_symop_operation_xyz
x,y,z
1/2-y,x,1/2+z
1/2-x,1/2-y,z
y,1/2-x,1/2+z
x,1/2-y,1/2-z
1/2-x,y,1/2-z
y,x,-z
1/2-y,1/2-x,-z
-x,-y,-z
1/2+y,-x,1/2-z
1/2+x,1/2+y,-z
-y,1/2+x,1/2-z
-x,1/2+y,1/2+z
1/2+x,-y,1/2+z
-y,-x,z
1/2+y,1/2+x,z
loop_
_atom_site_type_symbol
_atom_site_label
_atom_site_fract_x
_atom_site_fract_y
_atom_site_fract_z
Si Si1 0.480494 0.980494 0.644564
Si Si2 0.634230 0.911004 0.288783
Si Si3 0.953778 0.046223 0.601160
Si Si4 0.483809 0.310805 0.669715
Si Si5 0.769805 0.880331 0.451437
O O1 0.512629 0.899938 0.667612
O O2 0.500000 0.000000 0.500000
O O3 0.521808 0.021808 0.758150
O O4 0.569226 0.856120 0.261792
O O5 0.692188 0.878869 0.386316
O O6 0.676302 0.913038 0.155212
O O7 0.970526 0.130088 0.595445
O O8 0.000000 0.000000 0.500000
O O9 0.523693 0.250000 0.750000
O O10 0.433290 0.271670 0.569135
O O11 0.806743 0.806743 0.500000
#
# Coordination Sequence:
#
# PCOD9568249 Si02
#       5
#     8  16   8  16  16
#     4  10  20  30  54  76 100 133 173 234 260 292
#     4   9  19  34  50  74 104 139 174 211 265 313
#     4  10  20  38  56  73 102 142 181 212 264 325
#     4  10  20  32  53  76 101 134 177 220 259 314
#     4   9  18  34  51  71 106 142 172 207 254 332
#
# _framework density 17.501187999999999
#
# number of rings (size 3 to 8) (size 9 to 14) (size 15 to 20)
#    0.000    2.500    0.000    3.750    7.000    0.000 
#    0.000   15.000    0.000    0.375    0.000    0.000 
#    0.000   16.000    0.000    0.000    0.000    0.000 
#
# Total GULP energy -356278.444437 kJ/mol
# GULP energy per Si atom -5566.850694 kJ/mol
# Density = 1.746135 g / cm^3
# Si number density = 17.501188 Si / 1000 Ang^3
#
#
#
# Elastic Constant Matrix: (Units=GPa)
#
#
# Indices 1 2 3 4 5 6 
#
# 1 57.2229 39.1203 39.6747 0.0000 0.0000 0.0000
# 2 39.1203 57.2229 39.6747 0.0000 0.0000 0.0000
# 3 39.6747 39.6747 81.2580 0.0000 0.0000 0.0000
# 4 0.0000 0.0000 0.0000 19.4931 0.0000 0.0000
# 5 0.0000 0.0000 0.0000 0.0000 19.4931 0.0000
# 6 0.0000 0.0000 0.0000 0.0000 0.0000 27.7067
#
#
#
# Elastic Compliance Matrix: (Units=1/GPa)
#
#
# Indices 1 2 3 4 5 6 
#
# 1 0.036301 -0.018940 -0.008477 0.000000 0.000000 0.000000
# 2 -0.018940 0.036301 -0.008477 0.000000 0.000000 0.000000
# 3 -0.008477 -0.008477 0.020584 0.000000 0.000000 0.000000
# 4 0.000000 0.000000 0.000000 0.051300 0.000000 0.000000
# 5 0.000000 0.000000 0.000000 0.000000 0.051300 0.000000
# 6 0.000000 0.000000 0.000000 0.000000 0.000000 0.036092
#
#
# Mechanical properties :
#
#
# Convention : Reuss Voigt Hill
#
# Bulk Modulus (GPa) = 46.72997 48.07147 47.40072
# Shear Modulus (GPa) = 16.08766 18.48754 17.28760
#
# Velocity S-wave (km/s) = 3.03517 3.25369 3.14633
# Velocity P-wave (km/s) = 6.24836 6.45310 6.35156
#
# Compressibility (1/GPa) = 0.02139954
#
# Stress axis : x y z
#
# Youngs Moduli (GPa) = 27.54765 27.54765 48.58142
#
# Poissons Ratio (x) = 0.52175 0.41181
# Poissons Ratio (y) = 0.52175 0.41181
# Poissons Ratio (z) = 0.23351 0.23351
#
# Static dielectric constant tensor:
#      x y z
#    x 1.633210 0.000000 0.000000 
#    y 0.000000 1.633210 0.000000 
#    z 0.000000 0.000000 1.575660 
# 
# From -- ./inp_files/4628.got.cif
#   From: 2010.05.17/outbox.cif.g08.bks.cpg/sg134_3_cif.got.tgz:4628.got - 2010.05.20 12:42:49.
