data_PCOD9568651
_publ_section_title
;
Structure prediction by ZEFSAII (Michael W. Deem and Ramdas Pophale) SiO2 
 PCOD9568651
Probable space group: P 42/M B C
;
_chemical_formula_sum "Si O2"
_cell_formula_units_Z 80
_cell_length_a 13.284443
_cell_length_b 13.284443
_cell_length_c 21.196527
_cell_angle_alpha 90.000000
_cell_angle_beta 90.000000
_cell_angle_gamma 90.000000
_cell_volume 3740.687325
_symmetry_space_group_name_H-M "P 42/M B C"
_symmetry_group_IT_number 135
_symmetry_cell_setting 'tetragonal'
loop_
_space_group_symop_operation_xyz
x,y,z
-y,x,1/2+z
-x,-y,z
y,-x,1/2+z
1/2+x,1/2-y,-z
1/2-x,1/2+y,-z
1/2+y,1/2+x,1/2-z
1/2-y,1/2-x,1/2-z
-x,-y,-z
y,-x,1/2-z
x,y,-z
-y,x,1/2-z
1/2-x,1/2+y,z
1/2+x,1/2-y,z
1/2-y,1/2-x,1/2+z
1/2+y,1/2+x,1/2+z
loop_
_atom_site_type_symbol
_atom_site_label
_atom_site_fract_x
_atom_site_fract_y
_atom_site_fract_z
Si Si1 0.121940 0.270684 0.152090
Si Si2 0.669177 0.914155 0.316454
Si Si3 0.807363 0.244857 0.073033
Si Si4 0.393523 0.380131 0.754712
Si Si5 0.610489 0.504345 0.570694
O O1 0.216921 0.306480 0.112413
O O2 0.146986 0.204406 0.213655
O O3 0.032277 0.348098 0.168264
O O4 0.075192 0.185410 0.107385
O O5 0.618123 0.881878 0.250000
O O6 0.663650 0.847074 0.380616
O O7 0.789243 0.905611 0.302823
O O8 0.897089 0.164621 0.067370
O O9 0.782320 0.273884 0.000000
O O10 0.379065 0.495128 0.777394
O O11 0.500000 0.500000 0.599467
O O12 0.598232 0.544519 0.500000
#
# Coordination Sequence:
#
# PCOD9568651 Si02
#       5
#    16  16  16  16  16
#     4  10  19  30  53  79 116 155 196 252 308 373
#     4  10  19  34  52  82 116 157 208 256 304 372
#     4  10  20  34  52  80 119 161 202 255 319 376
#     4   9  18  29  49  79 109 143 187 246 304 350
#     4   9  19  33  52  81 115 150 197 253 305 364
#
# _framework density 21.386443
#
# number of rings (size 3 to 8) (size 9 to 14) (size 15 to 20)
#    0.000    2.400    2.000    0.600    8.400    0.800 
#    0.000    0.000    0.000    0.000    0.000   36.400 
#    0.000   46.400    0.000    0.000    0.000    0.000 
#
# Total GULP energy -445409.401138 kJ/mol
# GULP energy per Si atom -5567.617514 kJ/mol
# Density = 2.133777 g / cm^3
# Si number density = 21.386443 Si / 1000 Ang^3
#
#
#
# Elastic Constant Matrix: (Units=GPa)
#
#
# Indices 1 2 3 4 5 6 
#
# 1 37.5958 -0.4071 4.9486 0.0000 0.0000 0.0000
# 2 -0.4071 37.5957 4.9486 0.0000 0.0000 0.0000
# 3 4.9486 4.9486 108.3886 0.0000 0.0000 0.0000
# 4 0.0000 0.0000 0.0000 31.6081 0.0000 0.0000
# 5 0.0000 0.0000 0.0000 0.0000 31.6082 0.0000
# 6 0.0000 0.0000 0.0000 0.0000 0.0000 7.2084
#
#
#
# Elastic Compliance Matrix: (Units=1/GPa)
#
#
# Indices 1 2 3 4 5 6 
#
# 1 0.026767 0.000453 -0.001243 0.000000 0.000000 0.000000
# 2 0.000453 0.026767 -0.001243 0.000000 0.000000 0.000000
# 3 -0.001243 -0.001243 0.009340 0.000000 0.000000 0.000000
# 4 0.000000 0.000000 0.000000 0.031637 0.000000 0.000000
# 5 0.000000 0.000000 0.000000 0.000000 0.031637 0.000000
# 6 0.000000 0.000000 0.000000 0.000000 0.000000 0.138727
#
#
# Mechanical properties :
#
#
# Convention : Reuss Voigt Hill
#
# Bulk Modulus (GPa) = 17.00398 22.50671 19.75534
# Shear Modulus (GPa) = 17.32845 25.69095 21.50970
#
# Velocity S-wave (km/s) = 2.84958 3.46970 3.17482
# Velocity P-wave (km/s) = 4.33531 5.15736 4.76410
#
# Compressibility (1/GPa) = 0.05880975
#
# Stress axis : x y z
#
# Youngs Moduli (GPa) = 37.35918 37.35904 107.07163
#
# Poissons Ratio (x) = -0.01694 0.13307
# Poissons Ratio (y) = -0.01694 0.13307
# Poissons Ratio (z) = 0.04643 0.04643
#
# Static dielectric constant tensor:
#      x y z
#    x 1.810660 0.000000 0.000000 
#    y 0.000000 1.810660 0.000000 
#    z 0.000000 0.000000 1.897460 
# 
# From -- ./inp_files/5173.got.cif
#   From: 2010.05.17/outbox.cif.g08.bks.cpg/sg135_3_cif.got.tgz:5173.got - 2010.05.20 12:50:20.
