data_PCOD9568491
_publ_section_title
;
Structure prediction by ZEFSAII (Michael W. Deem and Ramdas Pophale) SiO2 
 PCOD9568491
Probable space group: P 42/N N M
;
_chemical_formula_sum "Si O2"
_cell_formula_units_Z 80
_cell_length_a 11.622100
_cell_length_b 11.622100
_cell_length_c 28.355156
_cell_angle_alpha 90.000000
_cell_angle_beta 90.000000
_cell_angle_gamma 90.000000
_cell_volume 3830.021896
_symmetry_space_group_name_H-M "P 42/N N M"
_symmetry_group_IT_number 134
_space_group.IT_coordinate_system_code '2'
_symmetry_cell_setting 'tetragonal'
loop_
_space_group_symop_operation_xyz
x,y,z
1/2-y,x,1/2+z
1/2-x,1/2-y,z
y,1/2-x,1/2+z
x,1/2-y,1/2-z
1/2-x,y,1/2-z
y,x,-z
1/2-y,1/2-x,-z
-x,-y,-z
1/2+y,-x,1/2-z
1/2+x,1/2+y,-z
-y,1/2+x,1/2-z
-x,1/2+y,1/2+z
1/2+x,-y,1/2+z
-y,-x,z
1/2+y,1/2+x,z
loop_
_atom_site_type_symbol
_atom_site_label
_atom_site_fract_x
_atom_site_fract_y
_atom_site_fract_z
Si Si1 0.591352 0.598624 0.553018
Si Si2 0.168845 0.492837 0.602184
Si Si3 0.516269 0.298496 0.891303
Si Si4 0.789676 0.029469 0.304055
Si Si5 0.117927 0.286522 0.804070
O O1 0.629190 0.629190 0.500000
O O2 0.476829 0.523171 0.550064
O O3 0.555170 0.713210 0.580820
O O4 0.687513 0.519452 0.578134
O O5 0.113932 0.613932 0.584980
O O6 0.073538 0.396752 0.593382
O O7 0.190680 0.506051 0.658257
O O8 0.642161 0.357840 0.894350
O O9 0.477229 0.266368 0.838154
O O10 0.750000 0.033524 0.250000
O O11 0.853533 0.146468 0.316747
O O12 0.878240 0.923790 0.307792
O O13 0.250000 0.250000 0.817630
O O14 0.102626 0.250000 0.750000
#
# Coordination Sequence:
#
# PCOD9568491 Si02
#       5
#    16  16  16  16  16
#     4  11  25  45  68  94 127 168 214 269 330 390
#     4  11  23  40  64  95 129 165 210 266 327 386
#     4  11  23  41  67  96 129 169 218 271 322 392
#     4  12  23  36  59  92 129 169 212 262 325 391
#     4  11  19  37  62  88 127 173 222 265 320 389
#
# _framework density 20.887609000000001
#
# number of rings (size 3 to 8) (size 9 to 14) (size 15 to 20)
#    0.000    0.800    6.000    1.800    0.000    7.800 
#    0.000    4.000    0.000    0.000    0.000    1.400 
#    0.000    0.000    0.000    0.000    0.000    0.000 
#
# Total GULP energy -446739.464284 kJ/mol
# GULP energy per Si atom -5584.243304 kJ/mol
# Density = 2.084007 g / cm^3
# Si number density = 20.887609 Si / 1000 Ang^3
#
#
#
# Elastic Constant Matrix: (Units=GPa)
#
#
# Indices 1 2 3 4 5 6 
#
# 1 -12.6621 103.7690 12.6613 0.0000 0.0000 0.0000
# 2 103.7690 -12.6621 12.6613 0.0000 0.0000 0.0000
# 3 12.6613 12.6613 82.2858 0.0000 0.0000 0.0000
# 4 0.0000 0.0000 0.0000 24.4345 0.0000 0.0000
# 5 0.0000 0.0000 0.0000 0.0000 24.4345 0.0000
# 6 0.0000 0.0000 0.0000 0.0000 0.0000 45.1125
#
#
#
# Elastic Compliance Matrix: (Units=1/GPa)
#
#
# Indices 1 2 3 4 5 6 
#
# 1 0.001439 0.010028 -0.001764 0.000000 0.000000 0.000000
# 2 0.010028 0.001439 -0.001764 0.000000 0.000000 0.000000
# 3 -0.001764 -0.001764 0.012696 0.000000 0.000000 0.000000
# 4 0.000000 0.000000 0.000000 0.040926 0.000000 0.000000
# 5 0.000000 0.000000 0.000000 0.000000 0.040926 0.000000
# 6 0.000000 0.000000 0.000000 0.000000 0.000000 0.022167
#
#
# Mechanical properties :
#
#
# Convention : Reuss Voigt Hill
#
# Bulk Modulus (GPa) = 35.00010 35.01609 35.00810
# Shear Modulus (GPa) = 43.05974 13.98762 28.52368
#
# Velocity S-wave (km/s) = 4.54530 2.59059 3.69938
# Velocity P-wave (km/s) = 6.65876 5.07431 5.91978
#
# Compressibility (1/GPa) = 0.02857134
#
# Stress axis : x y z
#
# Youngs Moduli (GPa) = 694.98730 694.98730 78.76663
#
# Poissons Ratio (x) = -6.96909 0.13897
# Poissons Ratio (y) = -6.96909 0.13897
# Poissons Ratio (z) = 1.22621 1.22621
#
# Static dielectric constant tensor:
#      x y z
#    x 1.788530 0.000000 0.000000 
#    y 0.000000 1.788530 0.000000 
#    z 0.000000 0.000000 1.784650 
# 
# From -- ./inp_files/11313.got.cif
#   From: 2010.05.17/outbox.cif.g08.bks.cpg/sg134_6_cif.got.tgz:11313.got - 2010.05.20 12:42:49.
