data_PCOD9568700
_publ_section_title
;
Structure prediction by ZEFSAII (Michael W. Deem and Ramdas Pophale) SiO2 
 PCOD9568700
Probable space group: P 42/M B C
;
_chemical_formula_sum "Si O2"
_cell_formula_units_Z 80
_cell_length_a 12.519588
_cell_length_b 12.519588
_cell_length_c 23.240685
_cell_angle_alpha 90.000000
_cell_angle_beta 90.000000
_cell_angle_gamma 90.000000
_cell_volume 3642.746912
_symmetry_space_group_name_H-M "P 42/M B C"
_symmetry_group_IT_number 135
_symmetry_cell_setting 'tetragonal'
loop_
_space_group_symop_operation_xyz
x,y,z
-y,x,1/2+z
-x,-y,z
y,-x,1/2+z
1/2+x,1/2-y,-z
1/2-x,1/2+y,-z
1/2+y,1/2+x,1/2-z
1/2-y,1/2-x,1/2-z
-x,-y,-z
y,-x,1/2-z
x,y,-z
-y,x,1/2-z
1/2-x,1/2+y,z
1/2+x,1/2-y,z
1/2-y,1/2-x,1/2+z
1/2+y,1/2+x,1/2+z
loop_
_atom_site_type_symbol
_atom_site_label
_atom_site_fract_x
_atom_site_fract_y
_atom_site_fract_z
Si Si1 0.396747 0.227836 0.641756
Si Si2 0.439565 0.886809 0.434650
Si Si3 0.196482 0.072237 0.659801
Si Si4 0.868023 0.803811 0.761183
Si Si5 0.185066 0.919865 0.433605
O O1 0.506052 0.178115 0.617521
O O2 0.303811 0.137844 0.646250
O O3 0.382239 0.288859 0.702474
O O4 0.364660 0.315512 0.594640
O O5 0.454295 0.840681 0.500000
O O6 0.313678 0.906346 0.426682
O O7 0.500000 0.000000 0.434950
O O8 0.117436 0.141617 0.699218
O O9 0.217637 0.968180 0.698799
O O10 0.150544 0.025159 0.601123
O O11 0.804285 0.695716 0.750000
O O12 0.159997 0.928895 0.500000
#
# Coordination Sequence:
#
# PCOD9568700 Si02
#       5
#    16  16  16  16  16
#     4  10  20  36  57  86 124 157 200 252 309 364
#     4  10  19  34  58  89 118 152 203 249 296 361
#     4  10  20  38  56  82 118 156 200 246 302 364
#     4   9  21  37  56  81 114 155 202 250 300 361
#     4  10  21  36  60  90 123 162 200 254 313 368
#
# _framework density 21.961449000000002
#
# number of rings (size 3 to 8) (size 9 to 14) (size 15 to 20)
#    0.000    2.200    2.000    0.600    0.000    6.000 
#    0.000    2.000    0.000    0.000    0.000   11.200 
#    0.000    0.000    0.000    0.000    0.000    0.000 
#
# Total GULP energy -446830.850682 kJ/mol
# GULP energy per Si atom -5585.385634 kJ/mol
# Density = 2.191146 g / cm^3
# Si number density = 21.961449 Si / 1000 Ang^3
#
#
#
# Elastic Constant Matrix: (Units=GPa)
#
#
# Indices 1 2 3 4 5 6 
#
# 1 29.9737 3.9822 24.2162 0.0000 0.0000 0.0000
# 2 3.9822 29.9759 24.2165 0.0000 0.0000 0.0000
# 3 24.2162 24.2165 127.0406 0.0000 0.0000 0.0000
# 4 0.0000 0.0000 0.0000 31.7569 0.0000 0.0000
# 5 0.0000 0.0000 0.0000 0.0000 31.7563 0.0000
# 6 0.0000 0.0000 0.0000 0.0000 0.0000 14.6506
#
#
#
# Elastic Compliance Matrix: (Units=1/GPa)
#
#
# Indices 1 2 3 4 5 6 
#
# 1 0.039460 0.000986 -0.007710 0.000000 0.000000 0.000000
# 2 0.000986 0.039457 -0.007709 0.000000 0.000000 0.000000
# 3 -0.007710 -0.007709 0.010811 0.000000 0.000000 0.000000
# 4 0.000000 0.000000 0.000000 0.031489 0.000000 0.000000
# 5 0.000000 0.000000 0.000000 0.000000 0.031490 0.000000
# 6 0.000000 0.000000 0.000000 0.000000 0.000000 0.068257
#
#
# Mechanical properties :
#
#
# Convention : Reuss Voigt Hill
#
# Bulk Modulus (GPa) = 16.43042 32.42445 24.42744
# Shear Modulus (GPa) = 18.51048 24.60446 21.55747
#
# Velocity S-wave (km/s) = 2.90636 3.35079 3.13646
# Velocity P-wave (km/s) = 4.33132 5.45589 4.92580
#
# Compressibility (1/GPa) = 0.06086270
#
# Stress axis : x y z
#
# Youngs Moduli (GPa) = 25.34187 25.34385 92.50091
#
# Poissons Ratio (x) = -0.02500 0.71317
# Poissons Ratio (y) = -0.02500 0.71313
# Poissons Ratio (z) = 0.19538 0.19539
#
# Static dielectric constant tensor:
#      x y z
#    x 1.796850 0.000000 0.000000 
#    y 0.000000 1.796840 0.000000 
#    z 0.000000 0.000000 1.820480 
# 
# From -- ./inp_files/5212.got.cif
#   From: 2010.05.17/outbox.cif.g08.bks.cpg/sg135_3_cif.got.tgz:5212.got - 2010.05.20 12:50:20.
