data_PCOD9568600
_publ_section_title
;
Structure prediction by ZEFSAII (Michael W. Deem and Ramdas Pophale) SiO2 
 PCOD9568600
Probable space group: P 42/M B C
;
_chemical_formula_sum "Si O2"
_cell_formula_units_Z 128
_cell_length_a 18.624298
_cell_length_b 18.624298
_cell_length_c 20.885551
_cell_angle_alpha 90.000000
_cell_angle_beta 90.000000
_cell_angle_gamma 90.000000
_cell_volume 7244.455703
_symmetry_space_group_name_H-M "P 42/M B C"
_symmetry_group_IT_number 135
_symmetry_cell_setting 'tetragonal'
loop_
_space_group_symop_operation_xyz
x,y,z
-y,x,1/2+z
-x,-y,z
y,-x,1/2+z
1/2+x,1/2-y,-z
1/2-x,1/2+y,-z
1/2+y,1/2+x,1/2-z
1/2-y,1/2-x,1/2-z
-x,-y,-z
y,-x,1/2-z
x,y,-z
-y,x,1/2-z
1/2-x,1/2+y,z
1/2+x,1/2-y,z
1/2-y,1/2-x,1/2+z
1/2+y,1/2+x,1/2+z
loop_
_atom_site_type_symbol
_atom_site_label
_atom_site_fract_x
_atom_site_fract_y
_atom_site_fract_z
Si Si1 0.590667 0.343595 0.771941
Si Si2 0.989793 0.085565 0.336176
Si Si3 0.971366 0.319279 0.346423
Si Si4 0.167118 0.690916 0.174519
Si Si5 0.171627 0.244041 0.665920
Si Si6 0.195350 0.952173 0.075366
Si Si7 0.009661 0.719030 0.805883
Si Si8 0.102811 0.401682 0.324602
O O1 0.541810 0.380926 0.717595
O O2 0.611876 0.409701 0.817124
O O3 0.649213 0.297347 0.732117
O O4 0.540442 0.288272 0.809766
O O5 0.015908 0.119366 0.402466
O O6 0.000000 0.000000 0.334683
O O7 0.887925 0.334441 0.355603
O O8 0.997362 0.254874 0.391060
O O9 0.983728 0.296804 0.271262
O O10 0.026791 0.385058 0.357552
O O11 0.177780 0.677780 0.250000
O O12 0.228886 0.745294 0.153286
O O13 0.089396 0.727876 0.167728
O O14 0.123997 0.208857 0.610003
O O15 0.147861 0.327006 0.670668
O O16 0.203662 0.948139 0.000000
O O17 0.968638 0.653318 0.840424
O O18 0.086319 0.413682 0.250000
#
# Coordination Sequence:
#
# PCOD9568600 Si02
#       8
#    16  16  16  16  16  16  16  16
#     4  11  17  29  48  78 112 138 171 216 266 337
#     4  11  20  30  50  77 105 142 175 219 272 321
#     4   9  18  34  50  75 105 138 177 213 270 319
#     4  10  21  29  49  83 111 136 166 219 275 332
#     4  10  19  31  53  75 106 139 179 216 268 318
#     4  10  22  39  54  71 102 144 188 225 255 316
#     4  10  18  29  49  79 113 135 165 212 273 337
#     4   9  15  30  46  72 106 142 165 202 262 326
#
# _framework density 17.668683999999999
#
# number of rings (size 3 to 8) (size 9 to 14) (size 15 to 20)
#    0.000    2.000    6.250    1.125    3.500    0.750 
#    0.000    3.125    0.000    0.000    0.000   10.500 
#    0.000    0.000    0.000    0.000    0.000    0.000 
#
# Total GULP energy -713501.450799 kJ/mol
# GULP energy per Si atom -5574.230084 kJ/mol
# Density = 1.762847 g / cm^3
# Si number density = 17.668684 Si / 1000 Ang^3
#
#
#
# Elastic Constant Matrix: (Units=GPa)
#
#
# Indices 1 2 3 4 5 6 
#
# 1 62.8613 6.0967 14.0028 0.0000 0.0000 0.0000
# 2 6.0967 62.8607 14.0027 0.0000 0.0000 0.0000
# 3 14.0028 14.0027 44.6604 0.0000 0.0000 0.0000
# 4 0.0000 0.0000 0.0000 8.9133 0.0000 0.0000
# 5 0.0000 0.0000 0.0000 0.0000 8.9133 0.0000
# 6 0.0000 0.0000 0.0000 0.0000 0.0000 22.3219
#
#
#
# Elastic Compliance Matrix: (Units=1/GPa)
#
#
# Indices 1 2 3 4 5 6 
#
# 1 0.017117 -0.000500 -0.005210 0.000000 0.000000 0.000000
# 2 -0.000500 0.017117 -0.005210 0.000000 0.000000 0.000000
# 3 -0.005210 -0.005210 0.025658 0.000000 0.000000 0.000000
# 4 0.000000 0.000000 0.000000 0.112192 0.000000 0.000000
# 5 0.000000 0.000000 0.000000 0.000000 0.112192 0.000000
# 6 0.000000 0.000000 0.000000 0.000000 0.000000 0.044799
#
#
# Mechanical properties :
#
#
# Convention : Reuss Voigt Hill
#
# Bulk Modulus (GPa) = 26.27938 26.50966 26.39452
# Shear Modulus (GPa) = 13.75137 17.11506 15.43321
#
# Velocity S-wave (km/s) = 2.79281 3.11572 2.95867
# Velocity P-wave (km/s) = 5.03045 5.28960 5.16165
#
# Compressibility (1/GPa) = 0.03805265
#
# Stress axis : x y z
#
# Youngs Moduli (GPa) = 58.42109 58.42057 38.97356
#
# Poissons Ratio (x) = 0.02918 0.20306
# Poissons Ratio (y) = 0.02918 0.20306
# Poissons Ratio (z) = 0.30439 0.30439
#
# Static dielectric constant tensor:
#      x y z
#    x 1.653630 0.000000 0.000000 
#    y 0.000000 1.653630 0.000000 
#    z 0.000000 0.000000 1.562730 
# 
# From -- ./inp_files/6265.got.cif
#   From: 2010.05.17/outbox.cif.g08.bks.cpg/sg135_4_cif.got.tgz:6265.got - 2010.05.20 12:50:20.
