data_PCOD9568486
_publ_section_title
;
Structure prediction by ZEFSAII (Michael W. Deem and Ramdas Pophale) SiO2 
 PCOD9568486
Probable space group: P 42/N N M
;
_chemical_formula_sum "Si O2"
_cell_formula_units_Z 50
_cell_length_a 20.294216
_cell_length_b 20.294216
_cell_length_c 5.370739
_cell_angle_alpha 90.000000
_cell_angle_beta 90.000000
_cell_angle_gamma 90.000000
_cell_volume 2211.966801
_symmetry_space_group_name_H-M "P 42/N N M"
_symmetry_group_IT_number 134
_space_group.IT_coordinate_system_code '2'
_symmetry_cell_setting 'tetragonal'
loop_
_space_group_symop_operation_xyz
x,y,z
1/2-y,x,1/2+z
1/2-x,1/2-y,z
y,1/2-x,1/2+z
x,1/2-y,1/2-z
1/2-x,y,1/2-z
y,x,-z
1/2-y,1/2-x,-z
-x,-y,-z
1/2+y,-x,1/2-z
1/2+x,1/2+y,-z
-y,1/2+x,1/2-z
-x,1/2+y,1/2+z
1/2+x,-y,1/2+z
-y,-x,z
1/2+y,1/2+x,z
loop_
_atom_site_type_symbol
_atom_site_label
_atom_site_fract_x
_atom_site_fract_y
_atom_site_fract_z
Si Si1 0.712182 0.607037 0.515307
Si Si2 0.467065 0.815004 0.918674
Si Si3 0.146815 0.853186 0.233809
Si Si4 0.554376 0.054376 0.389154
Si Si5 0.750000 0.250000 0.750000
O O1 0.750000 0.609998 0.250000
O O2 0.644985 0.644985 0.500000
O O3 0.695034 0.532198 0.577888
O O4 0.750000 0.637063 0.750000
O O5 0.462501 0.750000 0.750000
O O6 0.476071 0.885283 0.775260
O O7 0.402815 0.815604 0.084965
O O8 0.198741 0.801259 0.115939
O O9 0.098265 0.901736 0.080988
O O10 0.500000 0.000000 0.500000
#
# Coordination Sequence:
#
# PCOD9568486 Si02
#       5
#    16  16   8   8   2
#     4  11  26  44  72 103 142 191 243 310 383 460
#     4  10  25  43  66 102 142 189 245 310 380 465
#     4  11  25  43  69 100 143 185 248 303 393 454
#     4  11  26  43  72 106 144 201 256 322 391 478
#     4  12  24  40  78 100 132 194 228 332 374 492
#
# _framework density 22.604317000000002
#
# number of rings (size 3 to 8) (size 9 to 14) (size 15 to 20)
#    0.000    1.280    0.000    2.880   15.680    4.480 
#    0.000    3.200    0.000    0.000    0.000    0.000 
#    0.000    0.000    0.000    0.000    0.000    0.000 
#
# Total GULP energy -278742.881730 kJ/mol
# GULP energy per Si atom -5574.857635 kJ/mol
# Density = 2.255287 g / cm^3
# Si number density = 22.604317 Si / 1000 Ang^3
#
#
#
# Elastic Constant Matrix: (Units=GPa)
#
#
# Indices 1 2 3 4 5 6 
#
# 1 123.9882 76.0798 30.3125 0.0000 0.0000 0.0000
# 2 76.0798 123.9882 30.3125 0.0000 0.0000 0.0000
# 3 30.3125 30.3125 56.4535 0.0000 0.0000 0.0000
# 4 0.0000 0.0000 0.0000 29.9246 0.0000 0.0000
# 5 0.0000 0.0000 0.0000 0.0000 29.9246 0.0000
# 6 0.0000 0.0000 0.0000 0.0000 0.0000 79.2683
#
#
#
# Elastic Compliance Matrix: (Units=1/GPa)
#
#
# Indices 1 2 3 4 5 6 
#
# 1 0.013421 -0.007452 -0.003205 0.000000 0.000000 0.000000
# 2 -0.007452 0.013421 -0.003205 0.000000 0.000000 0.000000
# 3 -0.003205 -0.003205 0.021156 0.000000 0.000000 0.000000
# 4 0.000000 0.000000 0.000000 0.033417 0.000000 0.000000
# 5 0.000000 0.000000 0.000000 0.000000 0.033417 0.000000
# 6 0.000000 0.000000 0.000000 0.000000 0.000000 0.012615
#
#
# Mechanical properties :
#
#
# Convention : Reuss Voigt Hill
#
# Bulk Modulus (GPa) = 49.32505 64.20438 56.76472
# Shear Modulus (GPa) = 30.87724 39.00517 34.94120
#
# Velocity S-wave (km/s) = 3.69994 4.15850 3.93590
# Velocity P-wave (km/s) = 6.33413 7.17793 6.76919
#
# Compressibility (1/GPa) = 0.02027367
#
# Stress axis : x y z
#
# Youngs Moduli (GPa) = 74.50804 74.50804 47.26823
#
# Poissons Ratio (x) = 0.55522 0.15151
# Poissons Ratio (y) = 0.55522 0.15151
# Poissons Ratio (z) = 0.23882 0.23882
#
# Static dielectric constant tensor:
#      x y z
#    x 1.460790 0.000000 0.000000 
#    y 0.000000 1.460790 0.000000 
#    z 0.000000 0.000000 -4.097760 
# 
# From -- ./inp_files/677.got.cif
#   From: 2010.05.17/outbox.cif.g08.bks.cpg/sg134_1_cif.got.tgz:677.got - 2010.05.20 12:42:49.
