data_PCOD9568970
_publ_section_title
;
Structure prediction by ZEFSAII (Michael W. Deem and Ramdas Pophale) SiO2 
 PCOD9568970
Probable space group: P 42/M B C
;
_chemical_formula_sum "Si O2"
_cell_formula_units_Z 96
_cell_length_a 13.952995
_cell_length_b 13.952995
_cell_length_c 23.463590
_cell_angle_alpha 90.000000
_cell_angle_beta 90.000000
_cell_angle_gamma 90.000000
_cell_volume 4568.034113
_symmetry_space_group_name_H-M "P 42/M B C"
_symmetry_group_IT_number 135
_symmetry_cell_setting 'tetragonal'
loop_
_space_group_symop_operation_xyz
x,y,z
-y,x,1/2+z
-x,-y,z
y,-x,1/2+z
1/2+x,1/2-y,-z
1/2-x,1/2+y,-z
1/2+y,1/2+x,1/2-z
1/2-y,1/2-x,1/2-z
-x,-y,-z
y,-x,1/2-z
x,y,-z
-y,x,1/2-z
1/2-x,1/2+y,z
1/2+x,1/2-y,z
1/2-y,1/2-x,1/2+z
1/2+y,1/2+x,1/2+z
loop_
_atom_site_type_symbol
_atom_site_label
_atom_site_fract_x
_atom_site_fract_y
_atom_site_fract_z
Si Si1 0.330408 0.214158 0.434093
Si Si2 0.495800 0.755315 0.352762
Si Si3 0.736060 0.919831 0.734266
Si Si4 0.896369 0.549623 0.655114
Si Si5 0.770399 0.064358 0.433901
Si Si6 0.105468 0.848277 0.878622
O O1 0.352931 0.192670 0.500000
O O2 0.421360 0.201381 0.392930
O O3 0.298059 0.324731 0.429636
O O4 0.240425 0.153540 0.412255
O O5 0.541308 0.722893 0.293268
O O6 0.419948 0.838548 0.337140
O O7 0.441312 0.670068 0.384183
O O8 0.672864 0.827137 0.750000
O O9 0.815568 0.897853 0.687172
O O10 0.662903 0.996560 0.705083
O O11 0.828095 0.544095 0.599936
O O12 0.000000 0.500000 0.649926
O O13 0.761246 0.039120 0.500000
O O14 0.851723 0.000705 0.403697
#
# Coordination Sequence:
#
# PCOD9568970 Si02
#       6
#    16  16  16  16  16  16
#     4  11  24  43  66  95 131 175 223 270 329 395
#     4  12  24  40  66  97 130 171 221 272 324 396
#     4  11  22  39  64  95 130 167 210 266 337 392
#     4  11  21  37  65 100 126 164 213 269 333 390
#     4  10  23  43  64  91 133 173 215 272 325 385
#     4  11  24  43  66  95 131 176 217 273 329 393
#
# _framework density 21.015602999999999
#
# number of rings (size 3 to 8) (size 9 to 14) (size 15 to 20)
#    0.000    1.000    5.000    2.000    0.000    7.000 
#    0.000    1.667    0.000    0.000    0.000    0.000 
#    0.000    0.000    0.000    0.000    0.000    0.000 
#
# Total GULP energy -536918.453864 kJ/mol
# GULP energy per Si atom -5592.900561 kJ/mol
# Density = 2.096777 g / cm^3
# Si number density = 21.015603 Si / 1000 Ang^3
#
#
#
# Elastic Constant Matrix: (Units=GPa)
#
#
# Indices 1 2 3 4 5 6 
#
# 1 43.8080 -4.2157 0.6439 0.0000 0.0000 0.0000
# 2 -4.2157 43.8085 0.6443 0.0000 0.0000 0.0000
# 3 0.6439 0.6443 103.0170 0.0000 0.0000 0.0000
# 4 0.0000 0.0000 0.0000 12.5330 0.0000 0.0000
# 5 0.0000 0.0000 0.0000 0.0000 12.5323 0.0000
# 6 0.0000 0.0000 0.0000 0.0000 0.0000 17.8311
#
#
#
# Elastic Compliance Matrix: (Units=1/GPa)
#
#
# Indices 1 2 3 4 5 6 
#
# 1 0.023043 0.002220 -0.000158 0.000000 0.000000 0.000000
# 2 0.002220 0.023043 -0.000158 0.000000 0.000000 0.000000
# 3 -0.000158 -0.000158 0.009709 0.000000 0.000000 0.000000
# 4 0.000000 0.000000 0.000000 0.079789 0.000000 0.000000
# 5 0.000000 0.000000 0.000000 0.000000 0.079794 0.000000
# 6 0.000000 0.000000 0.000000 0.000000 0.000000 0.056082
#
#
# Mechanical properties :
#
#
# Convention : Reuss Voigt Hill
#
# Bulk Modulus (GPa) = 16.77794 20.53097 18.65445
# Shear Modulus (GPa) = 17.39016 21.48335 19.43676
#
# Velocity S-wave (km/s) = 2.87973 3.20074 3.04447
# Velocity P-wave (km/s) = 4.36555 4.84255 4.61022
#
# Compressibility (1/GPa) = 0.05960208
#
# Stress axis : x y z
#
# Youngs Moduli (GPa) = 43.39753 43.39796 102.99604
#
# Poissons Ratio (x) = -0.09633 0.01627
# Poissons Ratio (y) = -0.09633 0.01627
# Poissons Ratio (z) = 0.00685 0.00686
#
# Static dielectric constant tensor:
#      x y z
#    x 1.757900 0.000000 0.000000 
#    y 0.000000 1.757890 0.000000 
#    z 0.000000 0.000000 1.734950 
# 
# From -- ./inp_files/5423.got.cif
#   From: 2010.05.17/outbox.cif.g08.bks.cpg/sg135_3_cif.got.tgz:5423.got - 2010.05.20 12:50:20.
