data_PCOD9568685
_publ_section_title
;
Structure prediction by ZEFSAII (Michael W. Deem and Ramdas Pophale) SiO2 
 PCOD9568685
Probable space group: P 42/M B C
;
_chemical_formula_sum "Si O2"
_cell_formula_units_Z 60
_cell_length_a 14.073437
_cell_length_b 14.073437
_cell_length_c 12.753065
_cell_angle_alpha 90.000000
_cell_angle_beta 90.000000
_cell_angle_gamma 90.000000
_cell_volume 2525.892829
_symmetry_space_group_name_H-M "P 42/M B C"
_symmetry_group_IT_number 135
_symmetry_cell_setting 'tetragonal'
loop_
_space_group_symop_operation_xyz
x,y,z
-y,x,1/2+z
-x,-y,z
y,-x,1/2+z
1/2+x,1/2-y,-z
1/2-x,1/2+y,-z
1/2+y,1/2+x,1/2-z
1/2-y,1/2-x,1/2-z
-x,-y,-z
y,-x,1/2-z
x,y,-z
-y,x,1/2-z
1/2-x,1/2+y,z
1/2+x,1/2-y,z
1/2-y,1/2-x,1/2+z
1/2+y,1/2+x,1/2+z
loop_
_atom_site_type_symbol
_atom_site_label
_atom_site_fract_x
_atom_site_fract_y
_atom_site_fract_z
Si Si1 0.805662 0.305662 0.750000
Si Si2 0.786916 0.502671 0.174025
Si Si3 0.538082 0.107153 0.885233
Si Si4 0.625061 0.379048 0.378241
Si Si5 0.500000 0.500000 0.250000
O O1 0.812234 0.391526 0.835419
O O2 0.707014 0.326600 0.690138
O O3 0.816329 0.517958 0.296264
O O4 0.851495 0.580521 0.116155
O O5 0.684158 0.529710 0.134645
O O6 0.500000 0.000000 0.861886
O O7 0.505727 0.136184 0.000000
O O8 0.650445 0.388404 0.500000
O O9 0.590246 0.476245 0.324118
#
# Coordination Sequence:
#
# PCOD9568685 Si02
#       5
#     8  16  16  16   4
#     4  12  24  45  74 107 142 184 256 306 360 452
#     4  11  21  42  65  98 143 176 233 303 355 440
#     4  10  19  33  61  99 139 180 216 279 368 433
#     4  12  28  49  74 104 144 197 248 308 379 443
#     4  12  26  56  76 102 152 196 254 316 372 470
#
# _framework density 23.753976000000002
#
# number of rings (size 3 to 8) (size 9 to 14) (size 15 to 20)
#    0.000    0.800    5.333    3.600    0.000    3.200 
#    0.000    0.000    0.000    0.000    0.000    0.000 
#    0.000    0.000    0.000    0.000    0.000    0.000 
#
# Total GULP energy -334779.592347 kJ/mol
# GULP energy per Si atom -5579.659872 kJ/mol
# Density = 2.369991 g / cm^3
# Si number density = 23.753976 Si / 1000 Ang^3
#
#
#
# Elastic Constant Matrix: (Units=GPa)
#
#
# Indices 1 2 3 4 5 6 
#
# 1 84.5349 10.1955 24.7076 0.0000 0.0000 0.0000
# 2 10.1955 84.5349 24.7076 0.0000 0.0000 0.0000
# 3 24.7076 24.7076 188.5542 0.0000 0.0000 0.0000
# 4 0.0000 0.0000 0.0000 13.2346 0.0000 0.0000
# 5 0.0000 0.0000 0.0000 0.0000 13.2346 0.0000
# 6 0.0000 0.0000 0.0000 0.0000 0.0000 41.1185
#
#
#
# Elastic Compliance Matrix: (Units=1/GPa)
#
#
# Indices 1 2 3 4 5 6 
#
# 1 0.012391 -0.001061 -0.001485 0.000000 0.000000 0.000000
# 2 -0.001061 0.012391 -0.001485 0.000000 0.000000 0.000000
# 3 -0.001485 -0.001485 0.005693 0.000000 0.000000 0.000000
# 4 0.000000 0.000000 0.000000 0.075560 0.000000 0.000000
# 5 0.000000 0.000000 0.000000 0.000000 0.075560 0.000000
# 6 0.000000 0.000000 0.000000 0.000000 0.000000 0.024320
#
#
# Mechanical properties :
#
#
# Convention : Reuss Voigt Hill
#
# Bulk Modulus (GPa) = 44.61261 52.98280 48.79771
# Shear Modulus (GPa) = 22.57887 33.38511 27.98199
#
# Velocity S-wave (km/s) = 3.08641 3.75300 3.43591
# Velocity P-wave (km/s) = 5.61455 6.41352 6.02729
#
# Compressibility (1/GPa) = 0.02241519
#
# Stress axis : x y z
#
# Youngs Moduli (GPa) = 80.70177 80.70177 175.66578
#
# Poissons Ratio (x) = 0.08559 0.26082
# Poissons Ratio (y) = 0.08559 0.26082
# Poissons Ratio (z) = 0.11982 0.11982
#
# Static dielectric constant tensor:
#      x y z
#    x 2.027080 0.000000 0.000000 
#    y 0.000000 2.027080 0.000000 
#    z 0.000000 0.000000 1.894660 
# 
# From -- ./inp_files/3223.got.cif
#   From: 2010.05.17/outbox.cif.g08.bks.cpg/sg135_2_cif.got.tgz:3223.got - 2010.05.20 12:50:20.
