data_PCOD9568446
_publ_section_title
;
Structure prediction by ZEFSAII (Michael W. Deem and Ramdas Pophale) SiO2 
 PCOD9568446
Probable space group: P 42/N N M
;
_chemical_formula_sum "Si O2"
_cell_formula_units_Z 116
_cell_length_a 17.579354
_cell_length_b 17.579354
_cell_length_c 18.815833
_cell_angle_alpha 90.000000
_cell_angle_beta 90.000000
_cell_angle_gamma 90.000000
_cell_volume 5814.726247
_symmetry_space_group_name_H-M "P 42/N N M"
_symmetry_group_IT_number 134
_space_group.IT_coordinate_system_code '2'
_symmetry_cell_setting 'tetragonal'
loop_
_space_group_symop_operation_xyz
x,y,z
1/2-y,x,1/2+z
1/2-x,1/2-y,z
y,1/2-x,1/2+z
x,1/2-y,1/2-z
1/2-x,y,1/2-z
y,x,-z
1/2-y,1/2-x,-z
-x,-y,-z
1/2+y,-x,1/2-z
1/2+x,1/2+y,-z
-y,1/2+x,1/2-z
-x,1/2+y,1/2+z
1/2+x,-y,1/2+z
-y,-x,z
1/2+y,1/2+x,z
loop_
_atom_site_type_symbol
_atom_site_label
_atom_site_fract_x
_atom_site_fract_y
_atom_site_fract_z
Si Si1 0.170754 0.099123 0.432403
Si Si2 0.673662 0.958939 0.297819
Si Si3 0.387999 0.201903 0.679078
Si Si4 0.305435 0.569015 0.184058
Si Si5 0.922475 0.247678 0.386828
Si Si6 0.922562 0.294326 0.955665
Si Si7 0.750000 0.250000 0.342124
Si Si8 0.481775 0.400436 0.344041
O O1 0.149624 0.149624 0.500000
O O2 0.245574 0.122330 0.389605
O O3 0.101150 0.105206 0.377227
O O4 0.179545 0.010757 0.455036
O O5 0.750000 0.958876 0.250000
O O6 0.659208 0.874996 0.326254
O O7 0.608767 0.977992 0.240750
O O8 0.687507 0.021100 0.358254
O O9 0.368045 0.250000 0.750000
O O10 0.477990 0.182087 0.685019
O O11 0.250000 0.587076 0.250000
O O12 0.381696 0.618305 0.189197
O O13 0.260194 0.588218 0.111846
O O14 0.906198 0.249229 0.470662
O O15 0.843605 0.249876 0.345268
O O16 0.965575 0.167868 0.372735
O O17 0.865903 0.365903 0.951552
O O18 0.520958 0.479043 0.364715
#
# Coordination Sequence:
#
# PCOD9568446 Si02
#       8
#    16  16  16  16  16  16   4  16
#     4  11  22  38  68 100 132 170 221 280 336 399
#     4  10  24  44  67  93 131 170 223 266 332 414
#     4  10  21  44  66  96 133 174 217 275 333 404
#     4  10  23  40  62  93 131 171 223 272 328 393
#     4  11  24  42  63  96 129 175 216 270 331 405
#     4  11  22  38  64  96 131 170 216 272 340 393
#     4  12  24  44  69  94 143 176 218 280 336 402
#     4  11  21  40  64  97 131 170 218 273 341 392
#
# _framework density 19.949349000000002
#
# number of rings (size 3 to 8) (size 9 to 14) (size 15 to 20)
#    0.000    1.379    4.138    0.828    1.931    2.345 
#    0.000    5.862    6.069    0.828    0.000    0.000 
#    0.000    0.000    0.000    0.000    0.000    0.000 
#
# Total GULP energy -647391.728040 kJ/mol
# GULP energy per Si atom -5580.963173 kJ/mol
# Density = 1.990394 g / cm^3
# Si number density = 19.949349 Si / 1000 Ang^3
#
#
#
# Elastic Constant Matrix: (Units=GPa)
#
#
# Indices 1 2 3 4 5 6 
#
# 1 19.6866 57.6984 14.0513 0.0000 0.0000 0.0000
# 2 57.6984 19.6866 14.0513 0.0000 0.0000 0.0000
# 3 14.0513 14.0513 71.3363 0.0000 0.0000 0.0000
# 4 0.0000 0.0000 0.0000 -58.5356 0.0000 0.0000
# 5 0.0000 0.0000 0.0000 0.0000 -58.5356 0.0000
# 6 0.0000 0.0000 0.0000 0.0000 0.0000 36.1090
#
#
#
# Elastic Compliance Matrix: (Units=1/GPa)
#
#
# Indices 1 2 3 4 5 6 
#
# 1 -0.006195 0.020113 -0.002741 0.000000 0.000000 0.000000
# 2 0.020113 -0.006195 -0.002741 0.000000 0.000000 0.000000
# 3 -0.002741 -0.002741 0.015098 0.000000 0.000000 0.000000
# 4 0.000000 0.000000 0.000000 -0.017084 0.000000 0.000000
# 5 0.000000 0.000000 0.000000 0.000000 -0.017084 0.000000
# 6 0.000000 0.000000 0.000000 0.000000 0.000000 0.027694
#
#
# Mechanical properties :
#
#
# Convention : Reuss Voigt Hill
#
# Bulk Modulus (GPa) = 31.28108 31.36794 31.32451
# Shear Modulus (GPa) = -223.52728 -14.53188 -119.02958
#
# Velocity S-wave (km/s) = -10.59673 -2.70189 -7.73275
# Velocity P-wave (km/s) = 11.57612 2.45445 7.99945
#
# Compressibility (1/GPa) = 0.03196820
#
# Stress axis : x y z
#
# Youngs Moduli (GPa) = -161.42445 -161.42445 66.23350
#
# Poissons Ratio (x) = 3.24670 0.18158
# Poissons Ratio (y) = 3.24670 0.18158
# Poissons Ratio (z) = -0.44254 -0.44254
#
# Static dielectric constant tensor:
#      x y z
#    x 1.690240 0.000000 0.000000 
#    y 0.000000 1.690240 0.000000 
#    z 0.000000 0.000000 1.724510 
# 
# From -- ./inp_files/8056.got.cif
#   From: 2010.05.17/outbox.cif.g08.bks.cpg/sg134_5_cif.got.tgz:8056.got - 2010.05.20 12:42:49.
