data_PCOD9568422
_publ_section_title
;
Structure prediction by ZEFSAII (Michael W. Deem and Ramdas Pophale) SiO2 
 PCOD9568422
Probable space group: P 42/N N M
;
_chemical_formula_sum "Si O2"
_cell_formula_units_Z 96
_cell_length_a 21.152962
_cell_length_b 21.152962
_cell_length_c 11.907350
_cell_angle_alpha 90.000000
_cell_angle_beta 90.000000
_cell_angle_gamma 90.000000
_cell_volume 5327.917578
_symmetry_space_group_name_H-M "P 42/N N M"
_symmetry_group_IT_number 134
_space_group.IT_coordinate_system_code '2'
_symmetry_cell_setting 'tetragonal'
loop_
_space_group_symop_operation_xyz
x,y,z
1/2-y,x,1/2+z
1/2-x,1/2-y,z
y,1/2-x,1/2+z
x,1/2-y,1/2-z
1/2-x,y,1/2-z
y,x,-z
1/2-y,1/2-x,-z
-x,-y,-z
1/2+y,-x,1/2-z
1/2+x,1/2+y,-z
-y,1/2+x,1/2-z
-x,1/2+y,1/2+z
1/2+x,-y,1/2+z
-y,-x,z
1/2+y,1/2+x,z
loop_
_atom_site_type_symbol
_atom_site_label
_atom_site_fract_x
_atom_site_fract_y
_atom_site_fract_z
Si Si1 0.993001 0.235022 0.501482
Si Si2 0.191845 0.587606 0.329762
Si Si3 0.183191 0.183191 0.500000
Si Si4 0.388766 0.364447 0.290549
Si Si5 0.120877 0.303100 0.582980
Si Si6 0.750000 0.976004 0.250000
Si Si7 0.006621 0.887359 0.345731
O O1 0.938080 0.275902 0.558381
O O2 0.993838 0.164313 0.553784
O O3 0.056028 0.269986 0.547322
O O4 0.989207 0.236999 0.367353
O O5 0.250000 0.606259 0.250000
O O6 0.144557 0.644557 0.349458
O O7 0.152173 0.533707 0.261708
O O8 0.131582 0.171423 0.403665
O O9 0.172079 0.248589 0.562266
O O10 0.329582 0.376412 0.208181
O O11 0.434644 0.313874 0.231971
O O12 0.410883 0.435185 0.322154
O O13 0.139740 0.360261 0.500000
O O14 0.055450 0.944551 0.366350
#
# Coordination Sequence:
#
# PCOD9568422 Si02
#       7
#    16  16   8  16  16   8  16
#     4  11  21  40  58  84 125 160 198 254 306 362
#     4   9  19  36  64  94 116 143 186 242 311 372
#     4  12  23  34  53  84 112 156 211 254 297 358
#     4  12  21  38  58  82 118 156 207 257 307 354
#     4  12  22  35  56  80 118 167 205 252 304 349
#     4  12  24  38  57  82 118 167 210 252 294 358
#     4  10  21  38  64  89 113 155 203 252 312 368
#
# _framework density 18.018297
#
# number of rings (size 3 to 8) (size 9 to 14) (size 15 to 20)
#    0.000    1.000    6.667    0.750    0.000    0.167 
#    0.000    7.917    0.000    3.000    0.000    0.000 
#    0.000    2.667    0.000    0.000    0.000    0.000 
#
# Total GULP energy -535724.122582 kJ/mol
# GULP energy per Si atom -5580.459610 kJ/mol
# Density = 1.797729 g / cm^3
# Si number density = 18.018297 Si / 1000 Ang^3
#
#
#
# Elastic Constant Matrix: (Units=GPa)
#
#
# Indices 1 2 3 4 5 6 
#
# 1 84.4213 65.0176 36.3976 0.0000 0.0000 0.0000
# 2 65.0176 84.4207 36.3978 0.0000 0.0000 0.0000
# 3 36.3976 36.3978 117.4568 0.0000 0.0000 0.0000
# 4 0.0000 0.0000 0.0000 17.2280 0.0000 0.0000
# 5 0.0000 0.0000 0.0000 0.0000 17.2282 0.0000
# 6 0.0000 0.0000 0.0000 0.0000 0.0000 33.4600
#
#
#
# Elastic Compliance Matrix: (Units=1/GPa)
#
#
# Indices 1 2 3 4 5 6 
#
# 1 0.029709 -0.021828 -0.002442 0.000000 0.000000 0.000000
# 2 -0.021828 0.029709 -0.002442 0.000000 0.000000 0.000000
# 3 -0.002442 -0.002442 0.010027 0.000000 0.000000 0.000000
# 4 0.000000 0.000000 0.000000 0.058045 0.000000 0.000000
# 5 0.000000 0.000000 0.000000 0.000000 0.058044 0.000000
# 6 0.000000 0.000000 0.000000 0.000000 0.000000 0.029886
#
#
# Mechanical properties :
#
#
# Convention : Reuss Voigt Hill
#
# Bulk Modulus (GPa) = 62.41795 62.43610 62.42703
# Shear Modulus (GPa) = 18.23571 23.48230 20.85901
#
# Velocity S-wave (km/s) = 3.18475 3.61397 3.40613
# Velocity P-wave (km/s) = 6.94551 7.22088 7.08453
#
# Compressibility (1/GPa) = 0.01602103
#
# Stress axis : x y z
#
# Youngs Moduli (GPa) = 33.65959 33.65928 99.72650
#
# Poissons Ratio (x) = 0.73471 0.24356
# Poissons Ratio (y) = 0.73472 0.24357
# Poissons Ratio (z) = 0.08220 0.08221
#
# Static dielectric constant tensor:
#      x y z
#    x 1.637360 0.000000 0.000000 
#    y 0.000000 1.637360 0.000000 
#    z 0.000000 0.000000 1.634930 
# 
# From -- ./inp_files/5114.got.cif
#   From: 2010.05.17/outbox.cif.g08.bks.cpg/sg134_3_cif.got.tgz:5114.got - 2010.05.20 12:42:49.
