data_PCOD9568071
_publ_section_title
;
Structure prediction by ZEFSAII (Michael W. Deem and Ramdas Pophale) SiO2 
 PCOD9568071
Probable space group: P 42/N N M
;
_chemical_formula_sum "Si O2"
_cell_formula_units_Z 88
_cell_length_a 11.647557
_cell_length_b 11.647557
_cell_length_c 30.715430
_cell_angle_alpha 90.000000
_cell_angle_beta 90.000000
_cell_angle_gamma 90.000000
_cell_volume 4167.026751
_symmetry_space_group_name_H-M "P 42/N N M"
_symmetry_group_IT_number 134
_space_group.IT_coordinate_system_code '2'
_symmetry_cell_setting 'tetragonal'
loop_
_space_group_symop_operation_xyz
x,y,z
1/2-y,x,1/2+z
1/2-x,1/2-y,z
y,1/2-x,1/2+z
x,1/2-y,1/2-z
1/2-x,y,1/2-z
y,x,-z
1/2-y,1/2-x,-z
-x,-y,-z
1/2+y,-x,1/2-z
1/2+x,1/2+y,-z
-y,1/2+x,1/2-z
-x,1/2+y,1/2+z
1/2+x,-y,1/2+z
-y,-x,z
1/2+y,1/2+x,z
loop_
_atom_site_type_symbol
_atom_site_label
_atom_site_fract_x
_atom_site_fract_y
_atom_site_fract_z
Si Si1 0.007684 0.190781 0.890540
Si Si2 0.411797 0.250000 0.250000
Si Si3 0.929374 0.249677 0.322894
Si Si4 0.848845 0.348845 0.942071
Si Si5 0.827732 0.981394 0.789644
Si Si6 0.676150 0.512912 0.085997
Si Si7 0.150564 0.849437 0.543553
O O1 0.020037 0.219412 0.839101
O O2 0.956829 0.296881 0.916859
O O3 0.119860 0.138804 0.914720
O O4 0.911860 0.088141 0.891741
O O5 0.491363 0.305526 0.286916
O O6 0.349961 0.350592 0.224352
O O7 0.843305 0.156696 0.342322
O O8 0.848507 0.348507 0.302299
O O9 0.995811 0.305995 0.362354
O O10 0.750000 0.250000 0.940253
O O11 0.870040 0.370040 0.992665
O O12 0.750000 0.029431 0.750000
O O13 0.944203 0.055797 0.790821
O O14 0.576595 0.423406 0.071295
O O15 0.791911 0.464653 0.063810
O O16 0.250000 0.750000 0.549001
#
# Coordination Sequence:
#
# PCOD9568071 Si02
#       7
#    16   8  16   8  16  16   8
#     4   9  18  33  50  71 104 148 196 250 305 362
#     4  12  21  35  52  78 114 147 190 244 297 366
#     4  10  17  26  45  74 106 149 191 228 283 360
#     4   9  18  30  48  72 105 151 203 255 305 362
#     4  11  24  39  57  81 111 155 203 249 299 357
#     4   9  15  26  44  68 105 145 185 237 301 368
#     4   9  16  26  44  76 111 151 195 241 303 385
#
# _framework density 21.118174
#
# number of rings (size 3 to 8) (size 9 to 14) (size 15 to 20)
#    0.000    2.182    2.727    1.909    1.273    1.636 
#    0.000    3.636    0.000    0.000    0.000    0.000 
#    0.000    2.909    1.091    0.000    0.727    0.000 
#
# Total GULP energy -490353.394835 kJ/mol
# GULP energy per Si atom -5572.197669 kJ/mol
# Density = 2.107011 g / cm^3
# Si number density = 21.118174 Si / 1000 Ang^3
#
#
#
# Elastic Constant Matrix: (Units=GPa)
#
#
# Indices 1 2 3 4 5 6 
#
# 1 58.1357 35.9885 44.6290 0.0000 0.0000 0.0000
# 2 35.9885 58.1357 44.6290 0.0000 0.0000 0.0000
# 3 44.6290 44.6290 119.9923 0.0000 0.0000 0.0000
# 4 0.0000 0.0000 0.0000 9.0675 0.0000 0.0000
# 5 0.0000 0.0000 0.0000 0.0000 9.0675 0.0000
# 6 0.0000 0.0000 0.0000 0.0000 0.0000 28.8825
#
#
#
# Elastic Compliance Matrix: (Units=1/GPa)
#
#
# Indices 1 2 3 4 5 6 
#
# 1 0.030783 -0.014370 -0.006105 0.000000 0.000000 0.000000
# 2 -0.014370 0.030783 -0.006105 0.000000 0.000000 0.000000
# 3 -0.006105 -0.006105 0.012875 0.000000 0.000000 0.000000
# 4 0.000000 0.000000 0.000000 0.110284 0.000000 0.000000
# 5 0.000000 0.000000 0.000000 0.000000 0.110284 0.000000
# 6 0.000000 0.000000 0.000000 0.000000 0.000000 0.034623
#
#
# Mechanical properties :
#
#
# Convention : Reuss Voigt Hill
#
# Bulk Modulus (GPa) = 46.98600 54.08410 50.53505
# Shear Modulus (GPa) = 12.82435 16.80466 14.81450
#
# Velocity S-wave (km/s) = 2.46695 2.82395 2.65147
# Velocity P-wave (km/s) = 5.51469 6.02485 5.77540
#
# Compressibility (1/GPa) = 0.02128293
#
# Stress axis : x y z
#
# Youngs Moduli (GPa) = 32.48567 32.48567 77.67055
#
# Poissons Ratio (x) = 0.46680 0.47415
# Poissons Ratio (y) = 0.46680 0.47415
# Poissons Ratio (z) = 0.19831 0.19831
#
# Static dielectric constant tensor:
#      x y z
#    x 1.823740 0.000000 0.000000 
#    y 0.000000 1.823740 0.000000 
#    z 0.000000 0.000000 1.733430 
# 
# From -- ./inp_files/11485.got.cif
#   From: 2010.05.17/outbox.cif.g08.bks.cpg/sg134_6_cif.got.tgz:11485.got - 2010.05.20 12:42:49.
