data_PCOD9568245
_publ_section_title
;
Structure prediction by ZEFSAII (Michael W. Deem and Ramdas Pophale) SiO2 
 PCOD9568245
Probable space group: P 42/N N M
;
_chemical_formula_sum "Si O2"
_cell_formula_units_Z 112
_cell_length_a 30.100062
_cell_length_b 30.100062
_cell_length_c 5.653072
_cell_angle_alpha 90.000000
_cell_angle_beta 90.000000
_cell_angle_gamma 90.000000
_cell_volume 5121.760862
_symmetry_space_group_name_H-M "P 42/N N M"
_symmetry_group_IT_number 134
_space_group.IT_coordinate_system_code '2'
_symmetry_cell_setting 'tetragonal'
loop_
_space_group_symop_operation_xyz
x,y,z
1/2-y,x,1/2+z
1/2-x,1/2-y,z
y,1/2-x,1/2+z
x,1/2-y,1/2-z
1/2-x,y,1/2-z
y,x,-z
1/2-y,1/2-x,-z
-x,-y,-z
1/2+y,-x,1/2-z
1/2+x,1/2+y,-z
-y,1/2+x,1/2-z
-x,1/2+y,1/2+z
1/2+x,-y,1/2+z
-y,-x,z
1/2+y,1/2+x,z
loop_
_atom_site_type_symbol
_atom_site_label
_atom_site_fract_x
_atom_site_fract_y
_atom_site_fract_z
Si Si1 0.869808 0.298261 0.355177
Si Si2 0.814259 0.038063 0.893507
Si Si3 0.643445 0.422250 0.517034
Si Si4 0.022386 0.908142 0.856457
Si Si5 0.445021 0.292924 0.092555
Si Si6 0.389621 0.075205 0.746657
Si Si7 0.848935 0.724759 0.489459
O O1 0.857433 0.250000 0.250000
O O2 0.827314 0.327314 0.448225
O O3 0.914178 0.295546 0.520106
O O4 0.890612 0.328145 0.149239
O O5 0.819505 0.045186 0.618415
O O6 0.866139 0.031353 0.971557
O O7 0.792825 0.992256 0.964051
O O8 0.612207 0.387794 0.665266
O O9 0.610089 0.453745 0.378183
O O10 0.048521 0.951480 0.940082
O O11 0.971163 0.915202 0.798406
O O12 0.445107 0.250000 0.250000
O O13 0.438644 0.337879 0.244062
O O14 0.400009 0.289018 0.942977
O O15 0.398036 0.101965 0.500000
O O16 0.403360 0.096641 0.000000
O O17 0.834027 0.750000 0.250000
O O18 0.818298 0.681703 0.500000
O O19 0.846224 0.750000 0.750000
#
# Coordination Sequence:
#
# PCOD9568245 Si02
#       7
#    16  16  16  16  16  16  16
#     4  10  21  37  56  85 122 161 217 274 335 403
#     4  10  19  38  62  89 123 166 210 266 332 398
#     4   9  18  35  61  88 120 163 211 271 325 387
#     4   9  20  37  60  91 127 167 219 266 313 384
#     4  10  24  44  66  95 130 168 214 270 330 402
#     4  11  26  44  66  93 133 178 221 270 334 393
#     4  11  25  47  73 106 140 181 227 277 332 393
#
# _framework density 21.867478999999999
#
# number of rings (size 3 to 8) (size 9 to 14) (size 15 to 20)
#    0.000    2.000    0.000    3.429    4.000    6.714 
#   12.857    0.000    0.000    0.000    0.000    2.000 
#    0.000    0.000    0.000    0.000    0.000    0.000 
#
# Total GULP energy -623536.273145 kJ/mol
# GULP energy per Si atom -5567.288153 kJ/mol
# Density = 2.181771 g / cm^3
# Si number density = 21.867479 Si / 1000 Ang^3
#
#
#
# Elastic Constant Matrix: (Units=GPa)
#
#
# Indices 1 2 3 4 5 6 
#
# 1 135.9406 7.4701 21.9763 0.0000 0.0000 0.0000
# 2 7.4701 135.9445 21.9776 0.0000 0.0000 0.0000
# 3 21.9763 21.9776 52.5046 0.0000 0.0000 0.0000
# 4 0.0000 0.0000 0.0000 4.0987 0.0000 0.0000
# 5 0.0000 0.0000 0.0000 0.0000 4.1006 0.0000
# 6 0.0000 0.0000 0.0000 0.0000 0.0000 34.6914
#
#
#
# Elastic Compliance Matrix: (Units=1/GPa)
#
#
# Indices 1 2 3 4 5 6 
#
# 1 0.007891 0.000108 -0.003348 0.000000 0.000000 0.000000
# 2 0.000108 0.007891 -0.003348 0.000000 0.000000 0.000000
# 3 -0.003348 -0.003348 0.021849 0.000000 0.000000 0.000000
# 4 0.000000 0.000000 0.000000 0.243982 0.000000 0.000000
# 5 0.000000 0.000000 0.000000 0.000000 0.243869 0.000000
# 6 0.000000 0.000000 0.000000 0.000000 0.000000 0.028826
#
#
# Mechanical properties :
#
#
# Convention : Reuss Voigt Hill
#
# Bulk Modulus (GPa) = 40.89272 47.47089 44.18180
# Shear Modulus (GPa) = 8.68602 26.77583 17.73093
#
# Velocity S-wave (km/s) = 1.99518 3.50302 2.85061
# Velocity P-wave (km/s) = 4.90393 6.17391 5.57520
#
# Compressibility (1/GPa) = 0.02445423
#
# Stress axis : x y z
#
# Youngs Moduli (GPa) = 126.71862 126.72146 45.76899
#
# Poissons Ratio (x) = -0.01364 0.15324
# Poissons Ratio (y) = -0.01364 0.15325
# Poissons Ratio (z) = 0.42427 0.42429
#
# Static dielectric constant tensor:
#      x y z
#    x 1.883460 0.000000 0.000000 
#    y 0.000000 1.883460 0.000000 
#    z 0.000000 0.000000 1.858980 
# 
# From -- ./inp_files/1342.got.cif
#   From: 2010.05.17/outbox.cif.g08.bks.cpg/sg134_1_cif.got.tgz:1342.got - 2010.05.20 12:42:49.
