data_PCOD9568596
_publ_section_title
;
Structure prediction by ZEFSAII (Michael W. Deem and Ramdas Pophale) SiO2 
 PCOD9568596
Probable space group: P 42/M B C
;
_chemical_formula_sum "Si O2"
_cell_formula_units_Z 72
_cell_length_a 14.473003
_cell_length_b 14.473003
_cell_length_c 16.398391
_cell_angle_alpha 90.000000
_cell_angle_beta 90.000000
_cell_angle_gamma 90.000000
_cell_volume 3434.935146
_symmetry_space_group_name_H-M "P 42/M B C"
_symmetry_group_IT_number 135
_symmetry_cell_setting 'tetragonal'
loop_
_space_group_symop_operation_xyz
x,y,z
-y,x,1/2+z
-x,-y,z
y,-x,1/2+z
1/2+x,1/2-y,-z
1/2-x,1/2+y,-z
1/2+y,1/2+x,1/2-z
1/2-y,1/2-x,1/2-z
-x,-y,-z
y,-x,1/2-z
x,y,-z
-y,x,1/2-z
1/2-x,1/2+y,z
1/2+x,1/2-y,z
1/2-y,1/2-x,1/2+z
1/2+y,1/2+x,1/2+z
loop_
_atom_site_type_symbol
_atom_site_label
_atom_site_fract_x
_atom_site_fract_y
_atom_site_fract_z
Si Si1 0.671713 0.675964 0.842748
Si Si2 0.446150 0.874565 0.000000
Si Si3 0.620989 0.765955 0.000000
Si Si4 0.212475 0.138230 0.833104
Si Si5 0.160811 0.180207 0.000000
Si Si6 0.807350 0.519731 0.093903
O O1 0.607039 0.707164 0.917786
O O2 0.746206 0.758919 0.833984
O O3 0.622959 0.668375 0.755171
O O4 0.731841 0.588640 0.868870
O O5 0.405171 0.929770 0.078004
O O6 0.554260 0.854480 0.000000
O O7 0.396625 0.774975 0.000000
O O8 0.729508 0.792375 0.000000
O O9 0.298786 0.070487 0.851238
O O10 0.147519 0.130376 0.912971
O O11 0.778813 0.499649 0.000000
#
# Coordination Sequence:
#
# PCOD9568596 Si02
#       6
#    16   8   8  16   8  16
#     4  10  20  37  56  88 120 153 194 242 294 341
#     4  10  19  33  64  87 109 159 197 235 295 348
#     4  10  18  35  55  82 121 150 187 245 291 335
#     4  10  19  34  62  81 114 161 185 244 290 343
#     4  10  17  38  54  82 120 151 204 234 296 342
#     4  10  18  36  61  87 111 151 199 232 284 352
#
# _framework density 20.961095
#
# number of rings (size 3 to 8) (size 9 to 14) (size 15 to 20)
#    0.667    1.333    6.667    0.000    0.000    1.778 
#    0.000    8.889    0.000   11.333    0.000    0.000 
#    0.000    0.000    0.000    0.000    0.000    0.000 
#
# Total GULP energy -400925.060438 kJ/mol
# GULP energy per Si atom -5568.403617 kJ/mol
# Density = 2.091339 g / cm^3
# Si number density = 20.961095 Si / 1000 Ang^3
#
#
#
# Elastic Constant Matrix: (Units=GPa)
#
#
# Indices 1 2 3 4 5 6 
#
# 1 31.8320 30.0188 16.2286 0.0000 0.0000 0.0000
# 2 30.0188 31.8320 16.2286 0.0000 0.0000 0.0000
# 3 16.2286 16.2286 188.3240 0.0000 0.0000 0.0000
# 4 0.0000 0.0000 0.0000 7.9011 0.0000 0.0000
# 5 0.0000 0.0000 0.0000 0.0000 7.9011 0.0000
# 6 0.0000 0.0000 0.0000 0.0000 0.0000 21.2206
#
#
#
# Elastic Compliance Matrix: (Units=1/GPa)
#
#
# Indices 1 2 3 4 5 6 
#
# 1 0.284220 -0.267286 -0.001459 0.000000 0.000000 0.000000
# 2 -0.267286 0.284220 -0.001459 0.000000 0.000000 0.000000
# 3 -0.001459 -0.001459 0.005561 0.000000 0.000000 0.000000
# 4 0.000000 0.000000 0.000000 0.126564 0.000000 0.000000
# 5 0.000000 0.000000 0.000000 0.000000 0.126564 0.000000
# 6 0.000000 0.000000 0.000000 0.000000 0.000000 0.047124
#
#
# Mechanical properties :
#
#
# Convention : Reuss Voigt Hill
#
# Bulk Modulus (GPa) = 29.76902 41.88218 35.82560
# Shear Modulus (GPa) = 3.50666 20.03871 11.77268
#
# Velocity S-wave (km/s) = 1.29482 3.09527 2.37247
# Velocity P-wave (km/s) = 4.05811 5.72700 4.96321
#
# Compressibility (1/GPa) = 0.03359197
#
# Stress axis : x y z
#
# Youngs Moduli (GPa) = 3.51840 3.51840 179.80780
#
# Poissons Ratio (x) = 0.94042 0.26238
# Poissons Ratio (y) = 0.94042 0.26238
# Poissons Ratio (z) = 0.00513 0.00513
#
# Static dielectric constant tensor:
#      x y z
#    x 1.765840 0.000000 0.000000 
#    y 0.000000 1.765840 0.000000 
#    z 0.000000 0.000000 1.873550 
# 
# From -- ./inp_files/4337.got.cif
#   From: 2010.05.17/outbox.cif.g08.bks.cpg/sg135_3_cif.got.tgz:4337.got - 2010.05.20 12:50:20.
