data_PCOD9568371
_publ_section_title
;
Structure prediction by ZEFSAII (Michael W. Deem and Ramdas Pophale) SiO2 
 PCOD9568371
Probable space group: P 42/N N M
;
_chemical_formula_sum "Si O2"
_cell_formula_units_Z 84
_cell_length_a 11.405745
_cell_length_b 11.405745
_cell_length_c 33.199142
_cell_angle_alpha 90.000000
_cell_angle_beta 90.000000
_cell_angle_gamma 90.000000
_cell_volume 4318.910213
_symmetry_space_group_name_H-M "P 42/N N M"
_symmetry_group_IT_number 134
_space_group.IT_coordinate_system_code '2'
_symmetry_cell_setting 'tetragonal'
loop_
_space_group_symop_operation_xyz
x,y,z
1/2-y,x,1/2+z
1/2-x,1/2-y,z
y,1/2-x,1/2+z
x,1/2-y,1/2-z
1/2-x,y,1/2-z
y,x,-z
1/2-y,1/2-x,-z
-x,-y,-z
1/2+y,-x,1/2-z
1/2+x,1/2+y,-z
-y,1/2+x,1/2-z
-x,1/2+y,1/2+z
1/2+x,-y,1/2+z
-y,-x,z
1/2+y,1/2+x,z
loop_
_atom_site_type_symbol
_atom_site_label
_atom_site_fract_x
_atom_site_fract_y
_atom_site_fract_z
Si Si1 0.189269 0.995442 0.707600
Si Si2 0.111508 0.089134 0.062044
Si Si3 0.250000 0.750000 0.516771
Si Si4 0.007737 0.808447 0.292537
Si Si5 0.782564 0.973808 0.497772
Si Si6 0.598393 0.599624 0.844017
O O1 0.250000 0.966197 0.750000
O O2 0.093321 0.096019 0.715764
O O3 0.284212 0.049385 0.677422
O O4 0.118107 0.881894 0.692195
O O5 0.095247 0.204537 0.035056
O O6 0.122629 0.118077 0.108885
O O7 0.226138 0.031717 0.042373
O O8 0.002692 0.997309 0.056930
O O9 0.394060 0.743819 0.515672
O O10 0.039093 0.750000 0.250000
O O11 0.952968 0.711676 0.321758
O O12 0.120011 0.879990 0.308716
O O13 0.908165 0.908165 0.500000
O O14 0.497206 0.502795 0.840358
#
# Coordination Sequence:
#
# PCOD9568371 Si02
#       6
#    16  16   4  16  16  16
#     4  11  23  40  62  88 124 166 215 270 328 392
#     4  10  20  43  66  88 130 172 222 274 326 385
#     4  12  22  42  64 102 144 166 216 272 332 400
#     4  11  23  40  62  88 124 166 215 270 328 392
#     4  11  22  40  70  96 128 181 217 266 327 398
#     4  11  24  40  65  96 126 175 219 268 334 394
#
# _framework density 19.449351
#
# number of rings (size 3 to 8) (size 9 to 14) (size 15 to 20)
#    0.000    1.143    3.810    3.714    0.000    5.714 
#    3.429    0.000    0.000    0.000    0.000    0.000 
#    0.000    0.000    0.000    0.000    0.000    0.000 
#
# Total GULP energy -467626.742528 kJ/mol
# GULP energy per Si atom -5566.985030 kJ/mol
# Density = 1.940508 g / cm^3
# Si number density = 19.449351 Si / 1000 Ang^3
#
#
#
# Elastic Constant Matrix: (Units=GPa)
#
#
# Indices 1 2 3 4 5 6 
#
# 1 113.2371 37.6054 38.2293 0.0000 0.0000 0.0000
# 2 37.6054 113.2371 38.2293 0.0000 0.0000 0.0000
# 3 38.2293 38.2293 102.4192 0.0000 0.0000 0.0000
# 4 0.0000 0.0000 0.0000 17.7157 0.0000 0.0000
# 5 0.0000 0.0000 0.0000 0.0000 17.7157 0.0000
# 6 0.0000 0.0000 0.0000 0.0000 0.0000 43.7103
#
#
#
# Elastic Compliance Matrix: (Units=1/GPa)
#
#
# Indices 1 2 3 4 5 6 
#
# 1 0.010699 -0.002523 -0.003052 0.000000 0.000000 0.000000
# 2 -0.002523 0.010699 -0.003052 0.000000 0.000000 0.000000
# 3 -0.003052 -0.003052 0.012042 0.000000 0.000000 0.000000
# 4 0.000000 0.000000 0.000000 0.056447 0.000000 0.000000
# 5 0.000000 0.000000 0.000000 0.000000 0.056447 0.000000
# 6 0.000000 0.000000 0.000000 0.000000 0.000000 0.022878
#
#
# Mechanical properties :
#
#
# Convention : Reuss Voigt Hill
#
# Bulk Modulus (GPa) = 61.77736 61.89125 61.83431
# Shear Modulus (GPa) = 26.06047 30.15032 28.10539
#
# Velocity S-wave (km/s) = 3.66446 3.94152 3.80551
# Velocity P-wave (km/s) = 7.05241 7.25293 7.15337
#
# Compressibility (1/GPa) = 0.01618716
#
# Stress axis : x y z
#
# Youngs Moduli (GPa) = 93.46507 93.46507 83.04165
#
# Poissons Ratio (x) = 0.23579 0.25344
# Poissons Ratio (y) = 0.23579 0.25344
# Poissons Ratio (z) = 0.28525 0.28525
#
# Static dielectric constant tensor:
#      x y z
#    x 1.769420 0.000000 0.000000 
#    y 0.000000 1.769420 0.000000 
#    z 0.000000 0.000000 1.646300 
# 
# From -- ./inp_files/11469.got.cif
#   From: 2010.05.17/outbox.cif.g08.bks.cpg/sg134_6_cif.got.tgz:11469.got - 2010.05.20 12:42:49.
