data_PCOD9568787
_publ_section_title
;
Structure prediction by ZEFSAII (Michael W. Deem and Ramdas Pophale) SiO2 
 PCOD9568787
Probable space group: P 42/M B C
;
_chemical_formula_sum "Si O2"
_cell_formula_units_Z 80
_cell_length_a 14.500911
_cell_length_b 14.500911
_cell_length_c 16.212510
_cell_angle_alpha 90.000000
_cell_angle_beta 90.000000
_cell_angle_gamma 90.000000
_cell_volume 3409.108559
_symmetry_space_group_name_H-M "P 42/M B C"
_symmetry_group_IT_number 135
_symmetry_cell_setting 'tetragonal'
loop_
_space_group_symop_operation_xyz
x,y,z
-y,x,1/2+z
-x,-y,z
y,-x,1/2+z
1/2+x,1/2-y,-z
1/2-x,1/2+y,-z
1/2+y,1/2+x,1/2-z
1/2-y,1/2-x,1/2-z
-x,-y,-z
y,-x,1/2-z
x,y,-z
-y,x,1/2-z
1/2-x,1/2+y,z
1/2+x,1/2-y,z
1/2-y,1/2-x,1/2+z
1/2+y,1/2+x,1/2+z
loop_
_atom_site_type_symbol
_atom_site_label
_atom_site_fract_x
_atom_site_fract_y
_atom_site_fract_z
Si Si1 0.663984 0.111362 0.649753
Si Si2 0.989999 0.825549 0.092132
Si Si3 0.311609 0.339666 0.904114
Si Si4 0.347143 0.020435 0.800062
Si Si5 0.316298 0.562301 0.095931
O O1 0.726719 0.057222 0.586562
O O2 0.689253 0.055814 0.733699
O O3 0.446400 0.893690 0.637564
O O4 0.690236 0.218750 0.641479
O O5 0.089690 0.811676 0.132663
O O6 0.911828 0.893411 0.127800
O O7 0.009603 0.863149 0.000000
O O8 0.317898 0.451158 0.903451
O O9 0.303097 0.309265 0.000000
O O10 0.418027 0.081973 0.750000
O O11 0.271431 0.080843 0.846371
O O12 0.304615 0.591797 0.000000
#
# Coordination Sequence:
#
# PCOD9568787 Si02
#       5
#    16  16  16  16  16
#     4  10  20  37  58  86 127 171 212 261 326 396
#     4  10  20  36  62  98 131 164 215 274 332 402
#     4   9  18  35  61  89 127 169 204 261 331 393
#     4  10  22  43  64  87 127 174 219 279 341 392
#     4   9  19  39  66  95 125 164 217 276 342 409
#
# _framework density 23.466546000000001
#
# number of rings (size 3 to 8) (size 9 to 14) (size 15 to 20)
#    0.000    2.400    0.000    2.400    0.000    4.800 
#   14.400    4.000    0.000   13.200    0.000    0.000 
#    0.000    0.000    0.000    0.400    0.000    0.000 
#
# Total GULP energy -445960.850209 kJ/mol
# GULP energy per Si atom -5574.510628 kJ/mol
# Density = 2.341314 g / cm^3
# Si number density = 23.466546 Si / 1000 Ang^3
#
#
#
# Elastic Constant Matrix: (Units=GPa)
#
#
# Indices 1 2 3 4 5 6 
#
# 1 123.2359 65.1823 35.2130 0.0000 0.0000 0.0000
# 2 65.1823 123.2357 35.2141 0.0000 0.0000 0.0000
# 3 35.2130 35.2141 50.6094 0.0000 0.0000 0.0000
# 4 0.0000 0.0000 0.0000 20.4061 0.0000 0.0000
# 5 0.0000 0.0000 0.0000 0.0000 20.4063 0.0000
# 6 0.0000 0.0000 0.0000 0.0000 0.0000 36.7064
#
#
#
# Elastic Compliance Matrix: (Units=1/GPa)
#
#
# Indices 1 2 3 4 5 6 
#
# 1 0.012199 -0.005026 -0.004991 0.000000 0.000000 0.000000
# 2 -0.005026 0.012199 -0.004991 0.000000 0.000000 0.000000
# 3 -0.004991 -0.004991 0.026704 0.000000 0.000000 0.000000
# 4 0.000000 0.000000 0.000000 0.049005 0.000000 0.000000
# 5 0.000000 0.000000 0.000000 0.000000 0.049005 0.000000
# 6 0.000000 0.000000 0.000000 0.000000 0.000000 0.027243
#
#
# Mechanical properties :
#
#
# Convention : Reuss Voigt Hill
#
# Bulk Modulus (GPa) = 47.42307 63.14439 55.28373
# Shear Modulus (GPa) = 23.43018 26.26853 24.84936
#
# Velocity S-wave (km/s) = 3.16325 3.34938 3.25765
# Velocity P-wave (km/s) = 5.79605 6.47491 6.14486
#
# Compressibility (1/GPa) = 0.02108678
#
# Stress axis : x y z
#
# Youngs Moduli (GPa) = 81.97375 81.97229 37.44723
#
# Poissons Ratio (x) = 0.41202 0.18688
# Poissons Ratio (y) = 0.41203 0.18690
# Poissons Ratio (z) = 0.40909 0.40913
#
# Static dielectric constant tensor:
#      x y z
#    x 1.932250 0.000000 0.000000 
#    y 0.000000 1.932240 0.000000 
#    z 0.000000 0.000000 2.002670 
# 
# From -- ./inp_files/3418.got.cif
#   From: 2010.05.17/outbox.cif.g08.bks.cpg/sg135_2_cif.got.tgz:3418.got - 2010.05.20 12:50:20.
