data_PCOD9568360
_publ_section_title
;
Structure prediction by ZEFSAII (Michael W. Deem and Ramdas Pophale) SiO2 
 PCOD9568360
Probable space group: P 42/N N M
;
_chemical_formula_sum "Si O2"
_cell_formula_units_Z 58
_cell_length_a 17.425402
_cell_length_b 17.425402
_cell_length_c 9.212305
_cell_angle_alpha 90.000000
_cell_angle_beta 90.000000
_cell_angle_gamma 90.000000
_cell_volume 2797.266988
_symmetry_space_group_name_H-M "P 42/N N M"
_symmetry_group_IT_number 134
_space_group.IT_coordinate_system_code '2'
_symmetry_cell_setting 'tetragonal'
loop_
_space_group_symop_operation_xyz
x,y,z
1/2-y,x,1/2+z
1/2-x,1/2-y,z
y,1/2-x,1/2+z
x,1/2-y,1/2-z
1/2-x,y,1/2-z
y,x,-z
1/2-y,1/2-x,-z
-x,-y,-z
1/2+y,-x,1/2-z
1/2+x,1/2+y,-z
-y,1/2+x,1/2-z
-x,1/2+y,1/2+z
1/2+x,-y,1/2+z
-y,-x,z
1/2+y,1/2+x,z
loop_
_atom_site_type_symbol
_atom_site_label
_atom_site_fract_x
_atom_site_fract_y
_atom_site_fract_z
Si Si1 0.750000 0.250000 0.250000
Si Si2 0.323991 0.334350 0.324162
Si Si3 0.630757 0.369244 0.088159
Si Si4 0.339406 0.013267 0.769043
Si Si5 0.342309 0.657692 0.241570
Si Si6 0.066839 0.566839 0.008672
O O1 0.692203 0.307798 0.160450
O O2 0.324645 0.250000 0.250000
O O3 0.250000 0.372975 0.250000
O O4 0.324302 0.324302 0.500000
O O5 0.402487 0.375898 0.278098
O O6 0.544451 0.356503 0.140934
O O7 0.635928 0.364072 0.919416
O O8 0.250000 0.025351 0.750000
O O9 0.363874 0.969411 0.914685
O O10 0.355160 0.750000 0.250000
O O11 0.393582 0.606419 0.352029
O O12 0.000000 0.500000 0.000000
#
# Coordination Sequence:
#
# PCOD9568360 Si02
#       6
#     2  16   8  16   8   8
#     4  12  20  36  78  92 144 180 210 272 372 440
#     4  10  20  38  63  93 122 162 222 283 335 397
#     4  11  22  38  67 103 133 178 220 271 349 423
#     4  10  21  39  64  91 128 172 220 266 338 411
#     4  11  24  41  72 111 139 170 237 294 347 423
#     4  11  24  45  64  92 145 186 214 284 368 412
#
# _framework density 20.734525999999999
#
# number of rings (size 3 to 8) (size 9 to 14) (size 15 to 20)
#    0.000    1.517    1.379    4.966    3.862    0.000 
#    0.000   27.586    0.000    1.655    0.000    0.000 
#    0.000    0.000    0.000    0.000    0.000    0.000 
#
# Total GULP energy -322899.588272 kJ/mol
# GULP energy per Si atom -5567.234281 kJ/mol
# Density = 2.068733 g / cm^3
# Si number density = 20.734526 Si / 1000 Ang^3
#
#
#
# Elastic Constant Matrix: (Units=GPa)
#
#
# Indices 1 2 3 4 5 6 
#
# 1 128.2319 50.1809 81.0326 0.0000 0.0000 0.0000
# 2 50.1809 128.2319 81.0326 0.0000 0.0000 0.0000
# 3 81.0326 81.0326 198.1722 0.0000 0.0000 0.0000
# 4 0.0000 0.0000 0.0000 18.2043 0.0000 0.0000
# 5 0.0000 0.0000 0.0000 0.0000 18.2043 0.0000
# 6 0.0000 0.0000 0.0000 0.0000 0.0000 15.6374
#
#
#
# Elastic Compliance Matrix: (Units=1/GPa)
#
#
# Indices 1 2 3 4 5 6 
#
# 1 0.010865 -0.001948 -0.003646 0.000000 0.000000 0.000000
# 2 -0.001948 0.010865 -0.003646 0.000000 0.000000 0.000000
# 3 -0.003646 -0.003646 0.008028 0.000000 0.000000 0.000000
# 4 0.000000 0.000000 0.000000 0.054932 0.000000 0.000000
# 5 0.000000 0.000000 0.000000 0.000000 0.054932 0.000000
# 6 0.000000 0.000000 0.000000 0.000000 0.000000 0.063949
#
#
# Mechanical properties :
#
#
# Convention : Reuss Voigt Hill
#
# Bulk Modulus (GPa) = 88.67326 97.68092 93.17709
# Shear Modulus (GPa) = 22.14258 26.56855 24.35556
#
# Velocity S-wave (km/s) = 3.27143 3.58350 3.43102
# Velocity P-wave (km/s) = 7.55834 8.02088 7.79304
#
# Compressibility (1/GPa) = 0.01127736
#
# Stress axis : x y z
#
# Youngs Moduli (GPa) = 92.04203 92.04203 124.56443
#
# Poissons Ratio (x) = 0.17925 0.45419
# Poissons Ratio (y) = 0.17925 0.45419
# Poissons Ratio (z) = 0.33560 0.33560
#
# Static dielectric constant tensor:
#      x y z
#    x 1.917950 0.000000 0.000000 
#    y 0.000000 1.917950 0.000000 
#    z 0.000000 0.000000 1.705460 
# 
# From -- ./inp_files/2467.got.cif
#   From: 2010.05.17/outbox.cif.g08.bks.cpg/sg134_2_cif.got.tgz:2467.got - 2010.05.20 12:42:49.
