data_PCOD9568642
_publ_section_title
;
Structure prediction by ZEFSAII (Michael W. Deem and Ramdas Pophale) SiO2 
 PCOD9568642
Probable space group: P 42/M B C
;
_chemical_formula_sum "Si O2"
_cell_formula_units_Z 64
_cell_length_a 20.203704
_cell_length_b 20.203704
_cell_length_c 9.061437
_cell_angle_alpha 90.000000
_cell_angle_beta 90.000000
_cell_angle_gamma 90.000000
_cell_volume 3698.784846
_symmetry_space_group_name_H-M "P 42/M B C"
_symmetry_group_IT_number 135
_symmetry_cell_setting 'tetragonal'
loop_
_space_group_symop_operation_xyz
x,y,z
-y,x,1/2+z
-x,-y,z
y,-x,1/2+z
1/2+x,1/2-y,-z
1/2-x,1/2+y,-z
1/2+y,1/2+x,1/2-z
1/2-y,1/2-x,1/2-z
-x,-y,-z
y,-x,1/2-z
x,y,-z
-y,x,1/2-z
1/2-x,1/2+y,z
1/2+x,1/2-y,z
1/2-y,1/2-x,1/2+z
1/2+y,1/2+x,1/2+z
loop_
_atom_site_type_symbol
_atom_site_label
_atom_site_fract_x
_atom_site_fract_y
_atom_site_fract_z
Si Si1 0.500672 0.406726 0.168128
Si Si2 0.750229 0.009332 0.670231
Si Si3 0.242631 0.640374 0.321304
Si Si4 0.150511 0.247033 0.322666
O O1 0.437522 0.436929 0.248993
O O2 0.501878 0.329072 0.168411
O O3 0.500659 0.428720 0.000000
O O4 0.726932 0.018211 0.500000
O O5 0.729988 0.935890 0.725660
O O6 0.740034 0.076629 0.761696
O O7 0.187744 0.687744 0.250000
O O8 0.238394 0.640902 0.500000
O O9 0.313687 0.675969 0.285628
O O10 0.198716 0.301285 0.250000
O O11 0.150413 0.252332 0.500000
#
# Coordination Sequence:
#
# PCOD9568642 Si02
#       4
#    16  16  16  16
#     4  10  19  30  44  65  97 133 167 203 245 296
#     4  10  20  33  50  73 101 132 167 209 254 301
#     4   9  19  35  53  75 104 135 170 212 255 302
#     4  10  20  35  55  78 105 137 173 212 255 304
#
# _framework density 17.302980000000002
#
# number of rings (size 3 to 8) (size 9 to 14) (size 15 to 20)
#    0.000    2.250    0.000    3.750    0.000    6.000 
#    0.000    0.000    0.000    0.750    0.000    5.250 
#    0.000    0.000    0.000    0.000    0.000    0.000 
#
# Total GULP energy -356366.687616 kJ/mol
# GULP energy per Si atom -5568.229494 kJ/mol
# Density = 1.726360 g / cm^3
# Si number density = 17.302980 Si / 1000 Ang^3
#
#
#
# Elastic Constant Matrix: (Units=GPa)
#
#
# Indices 1 2 3 4 5 6 
#
# 1 117.6813 46.7604 45.5300 0.0000 0.0000 0.0000
# 2 46.7604 117.6834 45.5314 0.0000 0.0000 0.0000
# 3 45.5300 45.5314 83.0221 0.0000 0.0000 0.0000
# 4 0.0000 0.0000 0.0000 7.3819 0.0000 0.0000
# 5 0.0000 0.0000 0.0000 0.0000 7.3842 0.0000
# 6 0.0000 0.0000 0.0000 0.0000 0.0000 31.0430
#
#
#
# Elastic Compliance Matrix: (Units=1/GPa)
#
#
# Indices 1 2 3 4 5 6 
#
# 1 0.011417 -0.002683 -0.004789 0.000000 0.000000 0.000000
# 2 -0.002683 0.011417 -0.004790 0.000000 0.000000 0.000000
# 3 -0.004789 -0.004790 0.017298 0.000000 0.000000 0.000000
# 4 0.000000 0.000000 0.000000 0.135466 0.000000 0.000000
# 5 0.000000 0.000000 0.000000 0.000000 0.135424 0.000000
# 6 0.000000 0.000000 0.000000 0.000000 0.000000 0.032213
#
#
# Mechanical properties :
#
#
# Convention : Reuss Voigt Hill
#
# Bulk Modulus (GPa) = 64.07406 66.00338 65.03872
# Shear Modulus (GPa) = 13.40620 21.19951 17.30285
#
# Velocity S-wave (km/s) = 2.78653 3.50407 3.16570
# Velocity P-wave (km/s) = 6.88941 7.38917 7.14366
#
# Compressibility (1/GPa) = 0.01560694
#
# Stress axis : x y z
#
# Youngs Moduli (GPa) = 87.59071 87.59137 57.80918
#
# Poissons Ratio (x) = 0.23503 0.27687
# Poissons Ratio (y) = 0.23503 0.27688
# Poissons Ratio (z) = 0.41951 0.41953
#
# Static dielectric constant tensor:
#      x y z
#    x 1.601940 0.000000 0.000000 
#    y 0.000000 1.601950 0.000000 
#    z 0.000000 0.000000 1.600580 
# 
# From -- ./inp_files/934.got.cif
#   From: 2010.05.17/outbox.cif.g08.bks.cpg/sg135_1_cif.got.tgz:934.got - 2010.05.20 12:50:20.
