data_PCOD9568648
_publ_section_title
;
Structure prediction by ZEFSAII (Michael W. Deem and Ramdas Pophale) SiO2 
 PCOD9568648
Probable space group: P 42/M B C
;
_chemical_formula_sum "Si O2"
_cell_formula_units_Z 80
_cell_length_a 13.252940
_cell_length_b 13.252940
_cell_length_c 18.170504
_cell_angle_alpha 90.000000
_cell_angle_beta 90.000000
_cell_angle_gamma 90.000000
_cell_volume 3191.474930
_symmetry_space_group_name_H-M "P 42/M B C"
_symmetry_group_IT_number 135
_symmetry_cell_setting 'tetragonal'
loop_
_space_group_symop_operation_xyz
x,y,z
-y,x,1/2+z
-x,-y,z
y,-x,1/2+z
1/2+x,1/2-y,-z
1/2-x,1/2+y,-z
1/2+y,1/2+x,1/2-z
1/2-y,1/2-x,1/2-z
-x,-y,-z
y,-x,1/2-z
x,y,-z
-y,x,1/2-z
1/2-x,1/2+y,z
1/2+x,1/2-y,z
1/2-y,1/2-x,1/2+z
1/2+y,1/2+x,1/2+z
loop_
_atom_site_type_symbol
_atom_site_label
_atom_site_fract_x
_atom_site_fract_y
_atom_site_fract_z
Si Si1 0.393979 0.494976 0.374708
Si Si2 0.480440 0.848991 0.801850
Si Si3 0.648450 0.200695 0.415091
Si Si4 0.500232 0.677235 0.681332
Si Si5 0.297990 0.114951 0.580949
O O1 0.500000 0.500000 0.419430
O O2 0.422833 0.581253 0.313707
O O3 0.601235 0.618723 0.343905
O O4 0.296554 0.535899 0.414948
O O5 0.432556 0.932556 0.750000
O O6 0.392684 0.835355 0.861817
O O7 0.499826 0.751403 0.750638
O O8 0.581014 0.866763 0.850469
O O9 0.637425 0.171315 0.500000
O O10 0.549318 0.259110 0.385448
O O11 0.741788 0.278861 0.409662
O O12 0.345440 0.109792 0.500000
#
# Coordination Sequence:
#
# PCOD9568648 Si02
#       5
#    16  16  16  16  16
#     4   7  15  29  44  69 101 139 163 200 268 344
#     4  10  19  31  45  68 101 142 183 222 262 322
#     4   9  17  30  46  66  96 136 179 221 262 318
#     4   7  15  28  43  65  98 136 167 200 258 319
#     4  10  19  30  47  71 102 143 182 221 274 328
#
# _framework density 25.066780999999999
#
# number of rings (size 3 to 8) (size 9 to 14) (size 15 to 20)
#    1.200    2.000    0.000    0.600    0.000    6.000 
#    3.600    0.000    0.000    0.000    0.000    0.000 
#    0.000   63.200    0.000  199.600    0.000    0.000 
#
# Total GULP energy -446228.184741 kJ/mol
# GULP energy per Si atom -5577.852309 kJ/mol
# Density = 2.500973 g / cm^3
# Si number density = 25.066781 Si / 1000 Ang^3
#
#
#
# Elastic Constant Matrix: (Units=GPa)
#
#
# Indices 1 2 3 4 5 6 
#
# 1 64.5623 54.3300 49.0203 0.0000 0.0000 0.0000
# 2 54.3300 64.5623 49.0203 0.0000 0.0000 0.0000
# 3 49.0203 49.0203 191.5503 0.0000 0.0000 0.0000
# 4 0.0000 0.0000 0.0000 9.6708 0.0000 0.0000
# 5 0.0000 0.0000 0.0000 0.0000 9.6708 0.0000
# 6 0.0000 0.0000 0.0000 0.0000 0.0000 42.0448
#
#
#
# Elastic Compliance Matrix: (Units=1/GPa)
#
#
# Indices 1 2 3 4 5 6 
#
# 1 0.054195 -0.043534 -0.002728 0.000000 0.000000 0.000000
# 2 -0.043534 0.054195 -0.002728 0.000000 0.000000 0.000000
# 3 -0.002728 -0.002728 0.006617 0.000000 0.000000 0.000000
# 4 0.000000 0.000000 0.000000 0.103404 0.000000 0.000000
# 5 0.000000 0.000000 0.000000 0.000000 0.103404 0.000000
# 6 0.000000 0.000000 0.000000 0.000000 0.000000 0.023784
#
#
# Mechanical properties :
#
#
# Convention : Reuss Voigt Hill
#
# Bulk Modulus (GPa) = 58.73546 69.49064 64.11305
# Shear Modulus (GPa) = 11.12952 23.49760 17.31356
#
# Velocity S-wave (km/s) = 2.10940 3.06502 2.63096
# Velocity P-wave (km/s) = 5.42358 6.34887 5.90438
#
# Compressibility (1/GPa) = 0.01702549
#
# Stress axis : x y z
#
# Youngs Moduli (GPa) = 18.45184 18.45184 151.12738
#
# Poissons Ratio (x) = 0.80329 0.41231
# Poissons Ratio (y) = 0.80329 0.41231
# Poissons Ratio (z) = 0.05034 0.05034
#
# Static dielectric constant tensor:
#      x y z
#    x 2.003500 0.000000 0.000000 
#    y 0.000000 2.003500 0.000000 
#    z 0.000000 0.000000 2.044530 
# 
# From -- ./inp_files/3427.got.cif
#   From: 2010.05.17/outbox.cif.g08.bks.cpg/sg135_2_cif.got.tgz:3427.got - 2010.05.20 12:50:20.
