data_PCOD9568900
_publ_section_title
;
Structure prediction by ZEFSAII (Michael W. Deem and Ramdas Pophale) SiO2 
 PCOD9568900
Probable space group: P 42/M B C
;
_chemical_formula_sum "Si O2"
_cell_formula_units_Z 112
_cell_length_a 15.006467
_cell_length_b 15.006467
_cell_length_c 22.809210
_cell_angle_alpha 90.000000
_cell_angle_beta 90.000000
_cell_angle_gamma 90.000000
_cell_volume 5136.498419
_symmetry_space_group_name_H-M "P 42/M B C"
_symmetry_group_IT_number 135
_symmetry_cell_setting 'tetragonal'
loop_
_space_group_symop_operation_xyz
x,y,z
-y,x,1/2+z
-x,-y,z
y,-x,1/2+z
1/2+x,1/2-y,-z
1/2-x,1/2+y,-z
1/2+y,1/2+x,1/2-z
1/2-y,1/2-x,1/2-z
-x,-y,-z
y,-x,1/2-z
x,y,-z
-y,x,1/2-z
1/2-x,1/2+y,z
1/2+x,1/2-y,z
1/2-y,1/2-x,1/2+z
1/2+y,1/2+x,1/2+z
loop_
_atom_site_type_symbol
_atom_site_label
_atom_site_fract_x
_atom_site_fract_y
_atom_site_fract_z
Si Si1 0.079759 0.246592 0.065609
Si Si2 0.430135 0.419167 0.163147
Si Si3 0.303100 0.423570 0.274312
Si Si4 0.274747 0.668613 0.132923
Si Si5 0.131621 0.799178 0.068433
Si Si6 0.431817 0.123829 0.685049
Si Si7 0.129506 0.440804 0.332489
O O1 0.143093 0.165029 0.086997
O O2 0.104512 0.322227 0.112681
O O3 0.973291 0.231185 0.067183
O O4 0.103893 0.271113 0.000000
O O5 0.500000 0.500000 0.157749
O O6 0.356937 0.431403 0.214305
O O7 0.495783 0.340923 0.185950
O O8 0.379437 0.391168 0.104436
O O9 0.314371 0.327834 0.305827
O O10 0.198188 0.436607 0.278668
O O11 0.202130 0.738546 0.105608
O O12 0.215103 0.585173 0.151603
O O13 0.159108 0.804811 0.000000
O O14 0.387957 0.112044 0.750000
O O15 0.534128 0.096801 0.682260
O O16 0.383718 0.043596 0.650778
#
# Coordination Sequence:
#
# PCOD9568900 Si02
#       7
#    16  16  16  16  16  16  16
#     4  10  21  43  70  96 136 187 248 305 357 437
#     4  12  23  45  70 107 151 191 243 314 380 458
#     4  11  23  42  69 107 145 190 236 303 382 457
#     4  11  23  43  72  99 141 191 242 295 377 448
#     4  11  24  46  70 100 144 192 252 309 365 444
#     4  11  24  42  66 102 147 180 233 303 375 462
#     4  10  21  45  66  99 144 186 231 296 383 440
#
# _framework density 21.804738
#
# number of rings (size 3 to 8) (size 9 to 14) (size 15 to 20)
#    0.000    1.143    5.714    1.286    4.000    0.286 
#   15.429    2.857    0.000    0.000    0.000    0.000 
#    0.000    0.000    0.000    0.571    0.000    0.000 
#
# Total GULP energy -624229.134831 kJ/mol
# GULP energy per Si atom -5573.474418 kJ/mol
# Density = 2.175511 g / cm^3
# Si number density = 21.804738 Si / 1000 Ang^3
#
#
#
# Elastic Constant Matrix: (Units=GPa)
#
#
# Indices 1 2 3 4 5 6 
#
# 1 95.2749 19.3513 21.1817 0.0000 0.0000 0.0000
# 2 19.3513 95.2750 21.1819 0.0000 0.0000 0.0000
# 3 21.1817 21.1819 116.8370 0.0000 0.0000 0.0000
# 4 0.0000 0.0000 0.0000 18.5254 0.0000 0.0000
# 5 0.0000 0.0000 0.0000 0.0000 18.5271 0.0000
# 6 0.0000 0.0000 0.0000 0.0000 0.0000 35.9328
#
#
#
# Elastic Compliance Matrix: (Units=1/GPa)
#
#
# Indices 1 2 3 4 5 6 
#
# 1 0.011261 -0.001910 -0.001695 0.000000 0.000000 0.000000
# 2 -0.001910 0.011261 -0.001695 0.000000 0.000000 0.000000
# 3 -0.001695 -0.001695 0.009174 0.000000 0.000000 0.000000
# 4 0.000000 0.000000 0.000000 0.053980 0.000000 0.000000
# 5 0.000000 0.000000 0.000000 0.000000 0.053975 0.000000
# 6 0.000000 0.000000 0.000000 0.000000 0.000000 0.027830
#
#
# Mechanical properties :
#
#
# Convention : Reuss Voigt Hill
#
# Bulk Modulus (GPa) = 47.40716 47.86852 47.63784
# Shear Modulus (GPa) = 27.01060 30.97520 28.99290
#
# Velocity S-wave (km/s) = 3.52340 3.77314 3.65041
# Velocity P-wave (km/s) = 6.19204 6.40180 6.29779
#
# Compressibility (1/GPa) = 0.02109386
#
# Stress axis : x y z
#
# Youngs Moduli (GPa) = 88.80341 88.80347 109.00869
#
# Poissons Ratio (x) = 0.16964 0.18479
# Poissons Ratio (y) = 0.16964 0.18479
# Poissons Ratio (z) = 0.15054 0.15054
#
# Static dielectric constant tensor:
#      x y z
#    x 1.929140 0.000000 0.000000 
#    y 0.000000 1.929150 0.000000 
#    z 0.000000 0.000000 1.827320 
# 
# From -- ./inp_files/6116.got.cif
#   From: 2010.05.17/outbox.cif.g08.bks.cpg/sg135_4_cif.got.tgz:6116.got - 2010.05.20 12:50:20.
