data_PCOD9568734
_publ_section_title
;
Structure prediction by ZEFSAII (Michael W. Deem and Ramdas Pophale) SiO2 
 PCOD9568734
Probable space group: P 42/M B C
;
_chemical_formula_sum "Si O2"
_cell_formula_units_Z 96
_cell_length_a 25.475649
_cell_length_b 25.475649
_cell_length_c 8.899307
_cell_angle_alpha 90.000000
_cell_angle_beta 90.000000
_cell_angle_gamma 90.000000
_cell_volume 5775.727596
_symmetry_space_group_name_H-M "P 42/M B C"
_symmetry_group_IT_number 135
_symmetry_cell_setting 'tetragonal'
loop_
_space_group_symop_operation_xyz
x,y,z
-y,x,1/2+z
-x,-y,z
y,-x,1/2+z
1/2+x,1/2-y,-z
1/2-x,1/2+y,-z
1/2+y,1/2+x,1/2-z
1/2-y,1/2-x,1/2-z
-x,-y,-z
y,-x,1/2-z
x,y,-z
-y,x,1/2-z
1/2-x,1/2+y,z
1/2+x,1/2-y,z
1/2-y,1/2-x,1/2+z
1/2+y,1/2+x,1/2+z
loop_
_atom_site_type_symbol
_atom_site_label
_atom_site_fract_x
_atom_site_fract_y
_atom_site_fract_z
Si Si1 0.554464 0.744422 0.827310
Si Si2 0.247703 0.445055 0.819779
Si Si3 0.440442 0.129787 0.831864
Si Si4 0.254960 0.165454 0.174633
Si Si5 0.334567 0.754566 0.175928
Si Si6 0.368284 0.948173 0.317505
O O1 0.499855 0.728207 0.745444
O O2 0.553668 0.807922 0.831327
O O3 0.610778 0.735636 0.748298
O O4 0.554463 0.725607 0.000000
O O5 0.264876 0.388036 0.756250
O O6 0.188305 0.445109 0.758281
O O7 0.250231 0.445983 0.000000
O O8 0.389789 0.110212 0.750000
O O9 0.495339 0.108251 0.771172
O O10 0.435257 0.110790 0.000000
O O11 0.304765 0.195236 0.250000
O O12 0.208004 0.207872 0.183730
O O13 0.267643 0.155538 0.000000
O O14 0.305518 0.805518 0.250000
O O15 0.345480 0.766208 0.000000
O O16 0.402750 0.902750 0.250000
O O17 0.364066 0.946529 0.500000
#
# Coordination Sequence:
#
# PCOD9568734 Si02
#       6
#    16  16  16  16  16  16
#     4  10  20  34  50  69  95 125 158 197 240 287
#     4  11  21  33  50  70  93 123 159 197 240 290
#     4   9  19  31  43  59  80 109 145 186 230 275
#     4  10  20  33  51  75 102 133 167 203 245 294
#     4  10  20  34  51  73 102 133 166 204 247 294
#     4  10  20  33  45  60  82 111 149 191 238 284
#
# _framework density 16.621282000000001
#
# number of rings (size 3 to 8) (size 9 to 14) (size 15 to 20)
#    0.000    2.000    0.000    5.500    0.000    7.667 
#    0.000    1.667    0.000    0.000    0.000    0.000 
#    0.000    0.667    0.000    7.000    0.000    3.000 
#
# Total GULP energy -534611.336544 kJ/mol
# GULP energy per Si atom -5568.868089 kJ/mol
# Density = 1.658345 g / cm^3
# Si number density = 16.621282 Si / 1000 Ang^3
#
#
#
# Elastic Constant Matrix: (Units=GPa)
#
#
# Indices 1 2 3 4 5 6 
#
# 1 -46.1498 119.5871 33.4486 0.0000 0.0000 0.0000
# 2 119.5871 -46.1490 33.4481 0.0000 0.0000 0.0000
# 3 33.4486 33.4481 117.0744 0.0000 0.0000 0.0000
# 4 0.0000 0.0000 0.0000 23.7043 0.0000 0.0000
# 5 0.0000 0.0000 0.0000 0.0000 23.7045 0.0000
# 6 0.0000 0.0000 0.0000 0.0000 0.0000 14.8891
#
#
#
# Elastic Compliance Matrix: (Units=1/GPa)
#
#
# Indices 1 2 3 4 5 6 
#
# 1 0.006187 0.012221 -0.005259 0.000000 0.000000 0.000000
# 2 0.012221 0.006187 -0.005259 0.000000 0.000000 0.000000
# 3 -0.005259 -0.005259 0.011547 0.000000 0.000000 0.000000
# 4 0.000000 0.000000 0.000000 0.042186 0.000000 0.000000
# 5 0.000000 0.000000 0.000000 0.000000 0.042186 0.000000
# 6 0.000000 0.000000 0.000000 0.000000 0.000000 0.067163
#
#
# Mechanical properties :
#
#
# Convention : Reuss Voigt Hill
#
# Bulk Modulus (GPa) = 36.59577 44.19368 40.39473
# Shear Modulus (GPa) = 27.59991 1.67904 14.63948
#
# Velocity S-wave (km/s) = 4.07936 1.00617 2.97099
# Velocity P-wave (km/s) = 6.65233 5.29114 6.01039
#
# Compressibility (1/GPa) = 0.02732556
#
# Stress axis : x y z
#
# Youngs Moduli (GPa) = 161.63129 161.62816 86.60536
#
# Poissons Ratio (x) = -1.97520 0.45546
# Poissons Ratio (y) = -1.97524 0.45547
# Poissons Ratio (z) = 0.85003 0.85002
#
# Static dielectric constant tensor:
#      x y z
#    x 1.619570 0.000000 0.000000 
#    y 0.000000 1.619570 0.000000 
#    z 0.000000 0.000000 1.694430 
# 
# From -- ./inp_files/1219.got.cif
#   From: 2010.05.17/outbox.cif.g08.bks.cpg/sg135_1_cif.got.tgz:1219.got - 2010.05.20 12:50:20.
