data_PCOD9568309
_publ_section_title
;
Structure prediction by ZEFSAII (Michael W. Deem and Ramdas Pophale) SiO2 
 PCOD9568309
Probable space group: P 42/N N M
;
_chemical_formula_sum "Si O2"
_cell_formula_units_Z 72
_cell_length_a 10.564886
_cell_length_b 10.564886
_cell_length_c 29.880515
_cell_angle_alpha 90.000000
_cell_angle_beta 90.000000
_cell_angle_gamma 90.000000
_cell_volume 3335.167951
_symmetry_space_group_name_H-M "P 42/N N M"
_symmetry_group_IT_number 134
_space_group.IT_coordinate_system_code '2'
_symmetry_cell_setting 'tetragonal'
loop_
_space_group_symop_operation_xyz
x,y,z
1/2-y,x,1/2+z
1/2-x,1/2-y,z
y,1/2-x,1/2+z
x,1/2-y,1/2-z
1/2-x,y,1/2-z
y,x,-z
1/2-y,1/2-x,-z
-x,-y,-z
1/2+y,-x,1/2-z
1/2+x,1/2+y,-z
-y,1/2+x,1/2-z
-x,1/2+y,1/2+z
1/2+x,-y,1/2+z
-y,-x,z
1/2+y,1/2+x,z
loop_
_atom_site_type_symbol
_atom_site_label
_atom_site_fract_x
_atom_site_fract_y
_atom_site_fract_z
Si Si1 0.250000 0.536915 0.750000
Si Si2 0.240906 0.543559 0.302863
Si Si3 0.748651 0.456924 0.985832
Si Si4 0.824275 0.624001 0.068340
Si Si5 0.572131 0.639135 0.665350
O O1 0.129746 0.629746 0.744939
O O2 0.236373 0.453782 0.794756
O O3 0.250000 0.513324 0.250000
O O4 0.342871 0.657130 0.310063
O O5 0.104866 0.604866 0.312932
O O6 0.289370 0.424009 0.330368
O O7 0.614476 0.385525 0.975971
O O8 0.845391 0.345391 0.997461
O O9 0.752961 0.549989 0.028515
O O10 0.822199 0.538999 0.947875
O O11 0.750000 0.750000 0.077952
O O12 0.823852 0.548039 0.114369
O O13 0.473353 0.526648 0.675091
#
# Coordination Sequence:
#
# PCOD9568309 Si02
#       5
#     8  16  16  16  16
#     4   9  20  38  57  78 108 152 205 255 298 340
#     4   8  15  29  49  73 102 138 179 224 278 339
#     4  10  21  40  65  86 110 151 198 243 294 355
#     4  11  23  37  56  87 123 153 187 238 298 361
#     4  10  20  35  55  79 111 150 193 240 286 342
#
# _framework density 21.58812
#
# number of rings (size 3 to 8) (size 9 to 14) (size 15 to 20)
#    0.000    2.333    0.000    4.667    0.000    5.333 
#    0.000    4.444    0.000    0.000    0.000    0.000 
#    0.000    0.000    0.000    0.000    0.000    0.000 
#
# Total GULP energy -401366.027562 kJ/mol
# GULP energy per Si atom -5574.528161 kJ/mol
# Density = 2.153898 g / cm^3
# Si number density = 21.588120 Si / 1000 Ang^3
#
#
#
# Elastic Constant Matrix: (Units=GPa)
#
#
# Indices 1 2 3 4 5 6 
#
# 1 7.0306 61.7159 27.2686 0.0000 0.0000 0.0000
# 2 61.7159 7.0306 27.2686 0.0000 0.0000 0.0000
# 3 27.2686 27.2686 124.3237 0.0000 0.0000 0.0000
# 4 0.0000 0.0000 0.0000 23.7889 0.0000 0.0000
# 5 0.0000 0.0000 0.0000 0.0000 23.7889 0.0000
# 6 0.0000 0.0000 0.0000 0.0000 0.0000 13.4677
#
#
#
# Elastic Compliance Matrix: (Units=1/GPa)
#
#
# Indices 1 2 3 4 5 6 
#
# 1 -0.000338 0.017948 -0.003863 0.000000 0.000000 0.000000
# 2 0.017948 -0.000338 -0.003863 0.000000 0.000000 0.000000
# 3 -0.003863 -0.003863 0.009738 0.000000 0.000000 0.000000
# 4 0.000000 0.000000 0.000000 0.042036 0.000000 0.000000
# 5 0.000000 0.000000 0.000000 0.000000 0.042036 0.000000
# 6 0.000000 0.000000 0.000000 0.000000 0.000000 0.074252
#
#
# Mechanical properties :
#
#
# Convention : Reuss Voigt Hill
#
# Bulk Modulus (GPa) = 33.88861 41.21009 37.54935
# Shear Modulus (GPa) = 31.89256 13.68454 22.78855
#
# Velocity S-wave (km/s) = 3.84776 2.52045 3.25253
# Velocity P-wave (km/s) = 5.95586 5.25366 5.61574
#
# Compressibility (1/GPa) = 0.02950844
#
# Stress axis : x y z
#
# Youngs Moduli (GPa) = -2958.50707 -2958.50707 102.69127
#
# Poissons Ratio (x) = 53.10060 0.39665
# Poissons Ratio (y) = 53.10060 0.39665
# Poissons Ratio (z) = -11.42750 -11.42750
#
# Static dielectric constant tensor:
#      x y z
#    x 1.827730 0.000000 0.000000 
#    y 0.000000 1.827730 0.000000 
#    z 0.000000 0.000000 1.803710 
# 
# From -- ./inp_files/10589.got.cif
#   From: 2010.05.17/outbox.cif.g08.bks.cpg/sg134_6_cif.got.tgz:10589.got - 2010.05.20 12:42:49.
