data_PCOD9568605
_publ_section_title
;
Structure prediction by ZEFSAII (Michael W. Deem and Ramdas Pophale) SiO2 
 PCOD9568605
Probable space group: P 42/M B C
;
_chemical_formula_sum "Si O2"
_cell_formula_units_Z 112
_cell_length_a 27.703714
_cell_length_b 27.703714
_cell_length_c 7.640360
_cell_angle_alpha 90.000000
_cell_angle_beta 90.000000
_cell_angle_gamma 90.000000
_cell_volume 5863.943977
_symmetry_space_group_name_H-M "P 42/M B C"
_symmetry_group_IT_number 135
_symmetry_cell_setting 'tetragonal'
loop_
_space_group_symop_operation_xyz
x,y,z
-y,x,1/2+z
-x,-y,z
y,-x,1/2+z
1/2+x,1/2-y,-z
1/2-x,1/2+y,-z
1/2+y,1/2+x,1/2-z
1/2-y,1/2-x,1/2-z
-x,-y,-z
y,-x,1/2-z
x,y,-z
-y,x,1/2-z
1/2-x,1/2+y,z
1/2+x,1/2-y,z
1/2-y,1/2-x,1/2+z
1/2+y,1/2+x,1/2+z
loop_
_atom_site_type_symbol
_atom_site_label
_atom_site_fract_x
_atom_site_fract_y
_atom_site_fract_z
Si Si1 0.610898 0.678636 0.789692
Si Si2 0.293690 0.506875 0.287014
Si Si3 0.867427 0.707913 0.209908
Si Si4 0.188369 0.900637 0.290168
Si Si5 0.870562 0.553999 0.289946
Si Si6 0.216072 0.639097 0.709747
Si Si7 0.536087 0.815226 0.212752
O O1 0.555446 0.679548 0.726756
O O2 0.642728 0.632610 0.746346
O O3 0.635200 0.728793 0.726028
O O4 0.609027 0.681435 0.000000
O O5 0.295680 0.506669 0.500000
O O6 0.313472 0.455666 0.224204
O O7 0.237018 0.513038 0.243251
O O8 0.816066 0.683935 0.250000
O O9 0.876406 0.761848 0.275952
O O10 0.908374 0.670478 0.275956
O O11 0.872170 0.709015 0.000000
O O12 0.192625 0.903537 0.500000
O O13 0.921970 0.578031 0.250000
O O14 0.866536 0.553045 0.500000
O O15 0.856614 0.500604 0.225786
O O16 0.187394 0.687394 0.750000
O O17 0.218207 0.635143 0.500000
O O18 0.187250 0.591411 0.774585
O O19 0.537677 0.817770 0.000000
#
# Coordination Sequence:
#
# PCOD9568605 Si02
#       7
#    16  16  16  16  16  16  16
#     4   9  19  33  49  70  94 121 152 186 227 272
#     4   8  14  29  50  67  86 117 156 189 220 267
#     4   9  17  27  41  64  93 122 148 178 218 267
#     4  10  18  30  50  71  91 120 155 188 223 265
#     4   9  15  25  42  64  90 116 147 185 226 269
#     4   9  18  32  50  69  91 122 157 192 227 265
#     4   8  13  26  48  67  84 116 160 193 222 267
#
# _framework density 19.099772999999999
#
# number of rings (size 3 to 8) (size 9 to 14) (size 15 to 20)
#    0.000    3.143    1.429    1.714    0.000    1.714 
#    0.000    4.286    0.000    2.571    0.000    6.000 
#    0.000    0.000    0.000    0.000    0.000    0.000 
#
# Total GULP energy -624056.159660 kJ/mol
# GULP energy per Si atom -5571.929997 kJ/mol
# Density = 1.905630 g / cm^3
# Si number density = 19.099773 Si / 1000 Ang^3
#
#
#
# Elastic Constant Matrix: (Units=GPa)
#
#
# Indices 1 2 3 4 5 6 
#
# 1 97.7965 63.4231 3.3831 0.0000 0.0000 0.0000
# 2 63.4231 97.7968 3.3835 0.0000 0.0000 0.0000
# 3 3.3831 3.3835 33.6000 0.0000 0.0000 0.0000
# 4 0.0000 0.0000 0.0000 19.5581 0.0000 0.0000
# 5 0.0000 0.0000 0.0000 0.0000 19.5583 0.0000
# 6 0.0000 0.0000 0.0000 0.0000 0.0000 26.8576
#
#
#
# Elastic Compliance Matrix: (Units=1/GPa)
#
#
# Indices 1 2 3 4 5 6 
#
# 1 0.017661 -0.011432 -0.000627 0.000000 0.000000 0.000000
# 2 -0.011432 0.017661 -0.000627 0.000000 0.000000 0.000000
# 3 -0.000627 -0.000627 0.029888 0.000000 0.000000 0.000000
# 4 0.000000 0.000000 0.000000 0.051130 0.000000 0.000000
# 5 0.000000 0.000000 0.000000 0.000000 0.051129 0.000000
# 6 0.000000 0.000000 0.000000 0.000000 0.000000 0.037233
#
#
# Mechanical properties :
#
#
# Convention : Reuss Voigt Hill
#
# Bulk Modulus (GPa) = 25.10203 41.06363 33.08283
# Shear Modulus (GPa) = 20.54629 23.79503 22.17066
#
# Velocity S-wave (km/s) = 3.28340 3.53346 3.41072
# Velocity P-wave (km/s) = 5.24837 6.18007 5.73318
#
# Compressibility (1/GPa) = 0.03983741
#
# Stress axis : x y z
#
# Youngs Moduli (GPa) = 56.62318 56.62328 33.45800
#
# Poissons Ratio (x) = 0.64729 0.02098
# Poissons Ratio (y) = 0.64729 0.02099
# Poissons Ratio (z) = 0.03550 0.03553
#
# Static dielectric constant tensor:
#      x y z
#    x 1.670310 0.000000 0.000000 
#    y 0.000000 1.670310 0.000000 
#    z 0.000000 0.000000 1.729130 
# 
# From -- ./inp_files/2632.got.cif
#   From: 2010.05.17/outbox.cif.g08.bks.cpg/sg135_2_cif.got.tgz:2632.got - 2010.05.20 12:50:20.
