data_PCOD9568765
_publ_section_title
;
Structure prediction by ZEFSAII (Michael W. Deem and Ramdas Pophale) SiO2 
 PCOD9568765
Probable space group: P 42/M B C
;
_chemical_formula_sum "Si O2"
_cell_formula_units_Z 112
_cell_length_a 14.055537
_cell_length_b 14.055537
_cell_length_c 26.940603
_cell_angle_alpha 90.000000
_cell_angle_beta 90.000000
_cell_angle_gamma 90.000000
_cell_volume 5322.334890
_symmetry_space_group_name_H-M "P 42/M B C"
_symmetry_group_IT_number 135
_symmetry_cell_setting 'tetragonal'
loop_
_space_group_symop_operation_xyz
x,y,z
-y,x,1/2+z
-x,-y,z
y,-x,1/2+z
1/2+x,1/2-y,-z
1/2-x,1/2+y,-z
1/2+y,1/2+x,1/2-z
1/2-y,1/2-x,1/2-z
-x,-y,-z
y,-x,1/2-z
x,y,-z
-y,x,1/2-z
1/2-x,1/2+y,z
1/2+x,1/2-y,z
1/2-y,1/2-x,1/2+z
1/2+y,1/2+x,1/2+z
loop_
_atom_site_type_symbol
_atom_site_label
_atom_site_fract_x
_atom_site_fract_y
_atom_site_fract_z
Si Si1 0.424004 0.875200 0.556410
Si Si2 0.959106 0.094644 0.606995
Si Si3 0.541820 0.807792 0.354102
Si Si4 0.748712 0.379929 0.344421
Si Si5 0.576786 0.245146 0.879813
Si Si6 0.358381 0.656154 0.446047
Si Si7 0.286607 0.848416 0.803785
O O1 0.448691 0.901437 0.500000
O O2 0.510572 0.863071 0.595244
O O3 0.340807 0.937461 0.581448
O O4 0.378720 0.768971 0.554429
O O5 0.848043 0.081921 0.594226
O O6 0.959815 0.194745 0.635441
O O7 0.038425 0.108998 0.564324
O O8 0.000000 0.000000 0.633781
O O9 0.644985 0.841091 0.337325
O O10 0.454530 0.820696 0.316406
O O11 0.750492 0.492671 0.339751
O O12 0.712067 0.365796 0.401119
O O13 0.672872 0.325112 0.310648
O O14 0.668533 0.217500 0.847356
O O15 0.321744 0.627978 0.500000
O O16 0.318521 0.818521 0.750000
#
# Coordination Sequence:
#
# PCOD9568765 Si02
#       7
#    16  16  16  16  16  16  16
#     4   9  19  37  58  85 122 166 212 250 297 362
#     4  11  18  36  63  89 127 164 209 258 313 363
#     4  10  21  40  64  89 123 168 206 260 317 375
#     4  12  22  41  64  92 128 166 206 258 318 379
#     4  11  22  39  63  91 124 169 204 258 320 376
#     4  10  20  35  57  90 128 168 210 253 305 367
#     4  11  24  44  65  90 123 155 208 268 323 388
#
# _framework density 21.043396000000001
#
# number of rings (size 3 to 8) (size 9 to 14) (size 15 to 20)
#    0.000    1.429    7.143    0.000    0.000    5.429 
#    0.000    4.286    0.000    0.000    0.000    0.000 
#    0.000    0.000    0.000    0.000    0.000    0.000 
#
# Total GULP energy -624709.318494 kJ/mol
# GULP energy per Si atom -5577.761772 kJ/mol
# Density = 2.099550 g / cm^3
# Si number density = 21.043396 Si / 1000 Ang^3
#
#
#
# Elastic Constant Matrix: (Units=GPa)
#
#
# Indices 1 2 3 4 5 6 
#
# 1 87.5466 12.5583 6.9213 0.0000 0.0000 0.0000
# 2 12.5583 87.5466 6.9213 0.0000 0.0000 0.0000
# 3 6.9213 6.9213 72.3451 0.0000 0.0000 0.0000
# 4 0.0000 0.0000 0.0000 4.5679 0.0000 0.0000
# 5 0.0000 0.0000 0.0000 0.0000 4.5679 0.0000
# 6 0.0000 0.0000 0.0000 0.0000 0.0000 31.7970
#
#
#
# Elastic Compliance Matrix: (Units=1/GPa)
#
#
# Indices 1 2 3 4 5 6 
#
# 1 0.011729 -0.001606 -0.000969 0.000000 0.000000 0.000000
# 2 -0.001606 0.011729 -0.000969 0.000000 0.000000 0.000000
# 3 -0.000969 -0.000969 0.014008 0.000000 0.000000 0.000000
# 4 0.000000 0.000000 0.000000 0.218917 0.000000 0.000000
# 5 0.000000 0.000000 0.000000 0.000000 0.218917 0.000000
# 6 0.000000 0.000000 0.000000 0.000000 0.000000 0.031449
#
#
# Mechanical properties :
#
#
# Convention : Reuss Voigt Hill
#
# Bulk Modulus (GPa) = 32.91552 33.35999 33.13776
# Shear Modulus (GPa) = 9.54266 22.92242 16.23254
#
# Velocity S-wave (km/s) = 2.13181 3.30402 2.78039
# Velocity P-wave (km/s) = 4.66210 5.51750 5.10774
#
# Compressibility (1/GPa) = 0.03038080
#
# Stress axis : x y z
#
# Youngs Moduli (GPa) = 85.25563 85.25563 71.38802
#
# Poissons Ratio (x) = 0.13692 0.06914
# Poissons Ratio (y) = 0.13692 0.06914
# Poissons Ratio (z) = 0.08257 0.08257
#
# Static dielectric constant tensor:
#      x y z
#    x 1.795530 0.000000 0.000000 
#    y 0.000000 1.795530 0.000000 
#    z 0.000000 0.000000 1.735090 
# 
# From -- ./inp_files/6881.got.cif
#   From: 2010.05.17/outbox.cif.g08.bks.cpg/sg135_4_cif.got.tgz:6881.got - 2010.05.20 12:50:20.
