data_PCOD9568703
_publ_section_title
;
Structure prediction by ZEFSAII (Michael W. Deem and Ramdas Pophale) SiO2 
 PCOD9568703
Probable space group: P 42/M B C
;
_chemical_formula_sum "Si O2"
_cell_formula_units_Z 120
_cell_length_a 14.263756
_cell_length_b 14.263756
_cell_length_c 29.350423
_cell_angle_alpha 90.000000
_cell_angle_beta 90.000000
_cell_angle_gamma 90.000000
_cell_volume 5971.482540
_symmetry_space_group_name_H-M "P 42/M B C"
_symmetry_group_IT_number 135
_symmetry_cell_setting 'tetragonal'
loop_
_space_group_symop_operation_xyz
x,y,z
-y,x,1/2+z
-x,-y,z
y,-x,1/2+z
1/2+x,1/2-y,-z
1/2-x,1/2+y,-z
1/2+y,1/2+x,1/2-z
1/2-y,1/2-x,1/2-z
-x,-y,-z
y,-x,1/2-z
x,y,-z
-y,x,1/2-z
1/2-x,1/2+y,z
1/2+x,1/2-y,z
1/2-y,1/2-x,1/2+z
1/2+y,1/2+x,1/2+z
loop_
_atom_site_type_symbol
_atom_site_label
_atom_site_fract_x
_atom_site_fract_y
_atom_site_fract_z
Si Si1 0.474990 0.892351 0.642942
Si Si2 0.931918 0.763250 0.704782
Si Si3 0.105770 0.815257 0.548054
Si Si4 0.000000 0.000000 0.576846
Si Si5 0.670523 0.779750 0.365813
Si Si6 0.303433 0.920895 0.948350
Si Si7 0.140801 0.862003 0.885280
Si Si8 0.355965 0.276992 0.731067
O O1 0.424791 0.843956 0.686609
O O2 0.572609 0.834338 0.639235
O O3 0.420911 0.875200 0.594557
O O4 0.500000 0.000000 0.649224
O O5 0.921980 0.816368 0.656265
O O6 0.852800 0.805094 0.737414
O O7 0.032310 0.783310 0.727656
O O8 0.157960 0.814836 0.500000
O O9 0.166802 0.791096 0.591756
O O10 0.028059 0.733068 0.547635
O O11 0.047204 0.911653 0.551793
O O12 0.087383 0.044182 0.603903
O O13 0.754319 0.853860 0.370941
O O14 0.682639 0.719721 0.320236
O O15 0.210679 0.869673 0.928686
O O16 0.331781 0.892664 0.000000
O O17 0.324046 0.175955 0.750000
#
# Coordination Sequence:
#
# PCOD9568703 Si02
#       8
#    16  16  16   8  16  16  16  16
#     4   9  19  39  61  88 120 163 210 249 310 379
#     4  10  23  42  63  89 120 160 204 256 322 380
#     4   9  18  35  59  85 118 159 199 250 314 369
#     4  10  19  34  60  93 120 158 214 259 301 380
#     4  10  21  40  59  84 125 160 199 258 313 378
#     4   8  16  32  57  83 116 161 201 246 303 364
#     4  10  20  38  57  86 123 158 203 254 321 370
#     4  11  22  43  62  91 124 155 206 256 310 382
#
# _framework density 20.095513
#
# number of rings (size 3 to 8) (size 9 to 14) (size 15 to 20)
#    0.000    2.400    1.333    2.600    0.000    3.733 
#    9.600    0.000    0.000    0.000    0.000    0.000 
#    0.000    0.000    0.000    0.000    0.000    0.000 
#
# Total GULP energy -668300.376355 kJ/mol
# GULP energy per Si atom -5569.169803 kJ/mol
# Density = 2.004977 g / cm^3
# Si number density = 20.095513 Si / 1000 Ang^3
#
#
#
# Elastic Constant Matrix: (Units=GPa)
#
#
# Indices 1 2 3 4 5 6 
#
# 1 76.8318 -0.5247 33.1713 0.0000 0.0000 0.0000
# 2 -0.5247 76.8325 33.1705 0.0000 0.0000 0.0000
# 3 33.1713 33.1705 128.1035 0.0000 0.0000 0.0000
# 4 0.0000 0.0000 0.0000 -5.2623 0.0000 0.0000
# 5 0.0000 0.0000 0.0000 0.0000 -5.2599 0.0000
# 6 0.0000 0.0000 0.0000 0.0000 0.0000 24.3344
#
#
#
# Elastic Compliance Matrix: (Units=1/GPa)
#
#
# Indices 1 2 3 4 5 6 
#
# 1 0.014920 0.001993 -0.004379 0.000000 0.000000 0.000000
# 2 0.001993 0.014920 -0.004379 0.000000 0.000000 0.000000
# 3 -0.004379 -0.004379 0.010074 0.000000 0.000000 0.000000
# 4 0.000000 0.000000 0.000000 -0.190031 0.000000 0.000000
# 5 0.000000 0.000000 0.000000 0.000000 -0.190118 0.000000
# 6 0.000000 0.000000 0.000000 0.000000 0.000000 0.041094
#
#
# Mechanical properties :
#
#
# Convention : Reuss Voigt Hill
#
# Bulk Modulus (GPa) = 37.90522 45.93356 41.91939
# Shear Modulus (GPa) = -18.06254 17.15915 -0.45170
#
# Velocity S-wave (km/s) = -3.00131 2.92529 -0.47462
# Velocity P-wave (km/s) = 2.62545 5.85807 4.53927
#
# Compressibility (1/GPa) = 0.02638159
#
# Stress axis : x y z
#
# Youngs Moduli (GPa) = 67.02522 67.02623 99.26458
#
# Poissons Ratio (x) = -0.13355 0.43471
# Poissons Ratio (y) = -0.13355 0.43469
# Poissons Ratio (z) = 0.29352 0.29352
#
# Static dielectric constant tensor:
#      x y z
#    x 1.725380 0.000000 0.000000 
#    y 0.000000 1.725380 0.000000 
#    z 0.000000 0.000000 1.770550 
# 
# From -- ./inp_files/6897.got.cif
#   From: 2010.05.17/outbox.cif.g08.bks.cpg/sg135_4_cif.got.tgz:6897.got - 2010.05.20 12:50:20.
