data_PCOD9568489
_publ_section_title
;
Structure prediction by ZEFSAII (Michael W. Deem and Ramdas Pophale) SiO2 
 PCOD9568489
Probable space group: P 42/N N M
;
_chemical_formula_sum "Si O2"
_cell_formula_units_Z 128
_cell_length_a 18.476011
_cell_length_b 18.476011
_cell_length_c 22.926406
_cell_angle_alpha 90.000000
_cell_angle_beta 90.000000
_cell_angle_gamma 90.000000
_cell_volume 7826.226330
_symmetry_space_group_name_H-M "P 42/N N M"
_symmetry_group_IT_number 134
_space_group.IT_coordinate_system_code '2'
_symmetry_cell_setting 'tetragonal'
loop_
_space_group_symop_operation_xyz
x,y,z
1/2-y,x,1/2+z
1/2-x,1/2-y,z
y,1/2-x,1/2+z
x,1/2-y,1/2-z
1/2-x,y,1/2-z
y,x,-z
1/2-y,1/2-x,-z
-x,-y,-z
1/2+y,-x,1/2-z
1/2+x,1/2+y,-z
-y,1/2+x,1/2-z
-x,1/2+y,1/2+z
1/2+x,-y,1/2+z
-y,-x,z
1/2+y,1/2+x,z
loop_
_atom_site_type_symbol
_atom_site_label
_atom_site_fract_x
_atom_site_fract_y
_atom_site_fract_z
Si Si1 0.549617 0.829831 0.268278
Si Si2 0.379965 0.998775 0.854728
Si Si3 0.809628 0.690372 0.429158
Si Si4 0.878166 0.499193 0.500000
Si Si5 0.620035 0.498776 0.645273
Si Si6 0.950383 0.829831 0.768278
Si Si7 0.027355 0.219974 0.891714
Si Si8 0.780026 0.972645 0.108286
O O1 0.576323 0.750000 0.250000
O O2 0.503077 0.859970 0.214229
O O3 0.615303 0.884697 0.276652
O O4 0.510459 0.817599 0.329735
O O5 0.431525 0.068476 0.866572
O O6 0.359971 0.003077 0.785771
O O7 0.303879 0.004432 0.888328
O O8 0.428174 0.928174 0.867082
O O9 0.750000 0.750000 0.415201
O O10 0.814540 0.685461 0.500000
O O11 0.886241 0.714520 0.402631
O O12 0.785480 0.613759 0.402632
O O13 0.934961 0.434961 0.500000
O O14 0.826971 0.495715 0.556079
O O15 0.826970 0.495714 0.443921
O O16 0.926935 0.573066 0.500000
O O17 0.571827 0.428174 0.632919
O O18 0.696121 0.504432 0.611672
O O19 0.923677 0.750000 0.750000
O O20 0.989541 0.817599 0.829735
#
# Coordination Sequence:
#
# PCOD9568489 Si02
#       8
#    16  16  16  16  16  16  16  16
#     4   9  17  28  46  71 102 134 168 209 259 310
#     4   9  19  34  52  76 106 141 178 214 257 317
#     4  11  20  30  50  78 110 148 176 209 260 323
#     4  11  22  36  55  80 107 135 172 224 272 318
#     4   9  19  34  52  76 106 141 178 214 257 317
#     4   9  17  28  46  71 102 134 168 209 259 310
#     4  11  18  35  52  76 108 138 177 220 264 319
#     4  11  18  35  52  76 108 138 177 220 264 319
#
# _framework density 16.355263999999998
#
# number of rings (size 3 to 8) (size 9 to 14) (size 15 to 20)
#    0.000    2.000    3.750    0.750    0.000    2.250 
#    0.000    3.125    0.000    3.000    0.000    0.000 
#    0.000    0.000    0.000    0.000    0.000    0.000 
#
# Total GULP energy -713468.783974 kJ/mol
# GULP energy per Si atom -5573.974875 kJ/mol
# Density = 1.631804 g / cm^3
# Si number density = 16.355264 Si / 1000 Ang^3
#
#
#
# Elastic Constant Matrix: (Units=GPa)
#
#
# Indices 1 2 3 4 5 6 
#
# 1 100.5060 60.8378 40.1902 0.0000 0.0000 0.0000
# 2 60.8378 100.5053 40.1899 0.0000 0.0000 0.0000
# 3 40.1902 40.1899 87.7819 0.0000 0.0000 0.0000
# 4 0.0000 0.0000 0.0000 3.3946 0.0000 0.0000
# 5 0.0000 0.0000 0.0000 0.0000 3.3927 0.0000
# 6 0.0000 0.0000 0.0000 0.0000 0.0000 28.5938
#
#
#
# Elastic Compliance Matrix: (Units=1/GPa)
#
#
# Indices 1 2 3 4 5 6 
#
# 1 0.016619 -0.008590 -0.003676 0.000000 0.000000 0.000000
# 2 -0.008590 0.016619 -0.003676 0.000000 0.000000 0.000000
# 3 -0.003676 -0.003676 0.014758 0.000000 0.000000 0.000000
# 4 0.000000 0.000000 0.000000 0.294589 0.000000 0.000000
# 5 0.000000 0.000000 0.000000 0.000000 0.294751 0.000000
# 6 0.000000 0.000000 0.000000 0.000000 0.000000 0.034973
#
#
# Mechanical properties :
#
#
# Convention : Reuss Voigt Hill
#
# Bulk Modulus (GPa) = 62.06494 63.46990 62.76742
# Shear Modulus (GPa) = 7.04657 16.91456 11.98057
#
# Velocity S-wave (km/s) = 2.07793 3.21938 2.70945
# Velocity P-wave (km/s) = 6.61721 7.26020 6.94615
#
# Compressibility (1/GPa) = 0.01611216
#
# Stress axis : x y z
#
# Youngs Moduli (GPa) = 60.17086 60.17051 67.75949
#
# Poissons Ratio (x) = 0.51686 0.24910
# Poissons Ratio (y) = 0.51687 0.24910
# Poissons Ratio (z) = 0.22120 0.22120
#
# Static dielectric constant tensor:
#      x y z
#    x 1.529830 0.000000 0.000000 
#    y 0.000000 1.529830 0.000000 
#    z 0.000000 0.000000 1.583690 
# 
# From -- ./inp_files/10313.got.cif
#   From: 2010.05.17/outbox.cif.g08.bks.cpg/sg134_6_cif.got.tgz:10313.got - 2010.05.20 12:42:49.
