data_PCOD9568543
_publ_section_title
;
Structure prediction by ZEFSAII (Michael W. Deem and Ramdas Pophale) SiO2 
 PCOD9568543
Probable space group: P 42/N N M
;
_chemical_formula_sum "Si O2"
_cell_formula_units_Z 56
_cell_length_a 12.969989
_cell_length_b 12.969989
_cell_length_c 17.274840
_cell_angle_alpha 90.000000
_cell_angle_beta 90.000000
_cell_angle_gamma 90.000000
_cell_volume 2905.984203
_symmetry_space_group_name_H-M "P 42/N N M"
_symmetry_group_IT_number 134
_space_group.IT_coordinate_system_code '2'
_symmetry_cell_setting 'tetragonal'
loop_
_space_group_symop_operation_xyz
x,y,z
1/2-y,x,1/2+z
1/2-x,1/2-y,z
y,1/2-x,1/2+z
x,1/2-y,1/2-z
1/2-x,y,1/2-z
y,x,-z
1/2-y,1/2-x,-z
-x,-y,-z
1/2+y,-x,1/2-z
1/2+x,1/2+y,-z
-y,1/2+x,1/2-z
-x,1/2+y,1/2+z
1/2+x,-y,1/2+z
-y,-x,z
1/2+y,1/2+x,z
loop_
_atom_site_type_symbol
_atom_site_label
_atom_site_fract_x
_atom_site_fract_y
_atom_site_fract_z
Si Si1 0.001462 0.164876 0.532432
Si Si2 0.577962 0.250000 0.250000
Si Si3 0.010760 0.163353 0.098901
Si Si4 0.129346 0.268584 0.658040
O O1 0.889216 0.110785 0.534387
O O2 0.009600 0.263605 0.475904
O O3 0.048348 0.195673 0.615047
O O4 0.080017 0.080017 0.500000
O O5 0.651496 0.348505 0.258373
O O6 0.513186 0.264306 0.172883
O O7 0.921499 0.078502 0.091097
O O8 0.117393 0.110245 0.123688
O O9 0.250000 0.250000 0.636514
O O10 0.121686 0.250000 0.750000
#
# Coordination Sequence:
#
# PCOD9568543 Si02
#       4
#    16   8  16  16
#     4  11  24  41  64  90 125 171 215 258 319 384
#     4   9  18  34  57  90 132 166 199 254 317 374
#     4  11  23  39  64  96 128 166 214 265 319 375
#     4  11  23  41  63  92 128 167 209 263 319 382
#
# _framework density 19.270581
#
# number of rings (size 3 to 8) (size 9 to 14) (size 15 to 20)
#    0.000    1.286    2.857    3.429    0.000    5.143 
#    0.000    0.000    0.000    0.000    0.000    2.000 
#    0.000    0.000    0.000    0.000    0.000    0.000 
#
# Total GULP energy -312629.510889 kJ/mol
# GULP energy per Si atom -5582.669837 kJ/mol
# Density = 1.922672 g / cm^3
# Si number density = 19.270581 Si / 1000 Ang^3
#
#
#
# Elastic Constant Matrix: (Units=GPa)
#
#
# Indices 1 2 3 4 5 6 
#
# 1 70.4955 23.5110 43.5795 0.0000 0.0000 0.0000
# 2 23.5110 70.4955 43.5795 0.0000 0.0000 0.0000
# 3 43.5795 43.5795 112.4263 0.0000 0.0000 0.0000
# 4 0.0000 0.0000 0.0000 12.5727 0.0000 0.0000
# 5 0.0000 0.0000 0.0000 0.0000 12.5727 0.0000
# 6 0.0000 0.0000 0.0000 0.0000 0.0000 86.9846
#
#
#
# Elastic Compliance Matrix: (Units=1/GPa)
#
#
# Indices 1 2 3 4 5 6 
#
# 1 0.018945 -0.002339 -0.006437 0.000000 0.000000 0.000000
# 2 -0.002339 0.018945 -0.006437 0.000000 0.000000 0.000000
# 3 -0.006437 -0.006437 0.013885 0.000000 0.000000 0.000000
# 4 0.000000 0.000000 0.000000 0.079537 0.000000 0.000000
# 5 0.000000 0.000000 0.000000 0.000000 0.079537 0.000000
# 6 0.000000 0.000000 0.000000 0.000000 0.000000 0.011496
#
#
# Mechanical properties :
#
#
# Convention : Reuss Voigt Hill
#
# Bulk Modulus (GPa) = 46.84106 52.75082 49.79594
# Shear Modulus (GPa) = 19.23923 31.94251 25.59087
#
# Velocity S-wave (km/s) = 3.16313 4.07575 3.64809
# Velocity P-wave (km/s) = 6.14006 7.04146 6.60615
#
# Compressibility (1/GPa) = 0.02134879
#
# Stress axis : x y z
#
# Youngs Moduli (GPa) = 52.78575 52.78575 72.02115
#
# Poissons Ratio (x) = 0.12347 0.46358
# Poissons Ratio (y) = 0.12347 0.46358
# Poissons Ratio (z) = 0.33977 0.33977
#
# Static dielectric constant tensor:
#      x y z
#    x 1.690960 0.000000 0.000000 
#    y 0.000000 1.690960 0.000000 
#    z 0.000000 0.000000 1.665420 
# 
# From -- ./inp_files/8587.got.cif
#   From: 2010.05.17/outbox.cif.g08.bks.cpg/sg134_5_cif.got.tgz:8587.got - 2010.05.20 12:42:49.
