data_PCOD9568785
_publ_section_title
;
Structure prediction by ZEFSAII (Michael W. Deem and Ramdas Pophale) SiO2 
 PCOD9568785
Probable space group: P 42/M B C
;
_chemical_formula_sum "Si O2"
_cell_formula_units_Z 88
_cell_length_a 14.262858
_cell_length_b 14.262858
_cell_length_c 23.705054
_cell_angle_alpha 90.000000
_cell_angle_beta 90.000000
_cell_angle_gamma 90.000000
_cell_volume 4822.298235
_symmetry_space_group_name_H-M "P 42/M B C"
_symmetry_group_IT_number 135
_symmetry_cell_setting 'tetragonal'
loop_
_space_group_symop_operation_xyz
x,y,z
-y,x,1/2+z
-x,-y,z
y,-x,1/2+z
1/2+x,1/2-y,-z
1/2-x,1/2+y,-z
1/2+y,1/2+x,1/2-z
1/2-y,1/2-x,1/2-z
-x,-y,-z
y,-x,1/2-z
x,y,-z
-y,x,1/2-z
1/2-x,1/2+y,z
1/2+x,1/2-y,z
1/2-y,1/2-x,1/2+z
1/2+y,1/2+x,1/2+z
loop_
_atom_site_type_symbol
_atom_site_label
_atom_site_fract_x
_atom_site_fract_y
_atom_site_fract_z
Si Si1 0.548502 0.673733 0.500000
Si Si2 0.189244 0.274479 0.000000
Si Si3 0.628412 0.145320 0.878935
Si Si4 0.805781 0.440113 0.895469
Si Si5 0.225552 0.727089 0.683429
Si Si6 0.652212 0.405003 0.500000
Si Si7 0.066129 0.725438 0.103031
O O1 0.663080 0.662911 0.500000
O O2 0.531640 0.732451 0.443059
O O3 0.460753 0.601036 0.500000
O O4 0.151123 0.321590 0.943032
O O5 0.299884 0.301831 0.000000
O O6 0.693577 0.203730 0.837082
O O7 0.523831 0.179513 0.869520
O O8 0.644489 0.034314 0.874667
O O9 0.760683 0.377237 0.845558
O O10 0.877239 0.363988 0.922524
O O11 0.219355 0.719355 0.750000
O O12 0.262729 0.633521 0.652184
O O13 0.696458 0.451479 0.444115
#
# Coordination Sequence:
#
# PCOD9568785 Si02
#       7
#     8   8  16  16  16   8  16
#     4  12  18  34  64  82 122 168 185 241 305 356
#     4  12  19  34  57  93 114 153 198 228 301 375
#     4  12  21  38  65  88 118 159 193 243 315 365
#     4  10  20  36  61  89 121 146 199 247 305 356
#     4  10  23  40  58  83 119 156 200 251 295 357
#     4  12  19  38  59  89 128 157 187 251 300 366
#     4  10  22  38  58  91 121 147 199 248 300 359
#
# _framework density 18.248560000000001
#
# number of rings (size 3 to 8) (size 9 to 14) (size 15 to 20)
#    1.091    0.000    7.273    1.091    0.000    1.455 
#    0.000    5.455    0.000    0.000    0.000    2.545 
#    0.000    0.000    0.000    0.000    0.000    0.000 
#
# Total GULP energy -490087.123616 kJ/mol
# GULP energy per Si atom -5569.171859 kJ/mol
# Density = 1.820703 g / cm^3
# Si number density = 18.248560 Si / 1000 Ang^3
#
#
#
# Elastic Constant Matrix: (Units=GPa)
#
#
# Indices 1 2 3 4 5 6 
#
# 1 41.5427 34.5789 9.2800 0.0000 0.0000 0.0000
# 2 34.5789 41.5427 9.2800 0.0000 0.0000 0.0000
# 3 9.2800 9.2800 102.7503 0.0000 0.0000 0.0000
# 4 0.0000 0.0000 0.0000 -5.3781 0.0000 0.0000
# 5 0.0000 0.0000 0.0000 0.0000 -5.3781 0.0000
# 6 0.0000 0.0000 0.0000 0.0000 0.0000 1.1722
#
#
#
# Elastic Compliance Matrix: (Units=1/GPa)
#
#
# Indices 1 2 3 4 5 6 
#
# 1 0.078516 -0.065084 -0.001213 0.000000 0.000000 0.000000
# 2 -0.065084 0.078516 -0.001213 0.000000 0.000000 0.000000
# 3 -0.001213 -0.001213 0.009951 0.000000 0.000000 0.000000
# 4 0.000000 0.000000 0.000000 -0.185940 0.000000 0.000000
# 5 0.000000 0.000000 0.000000 0.000000 -0.185940 0.000000
# 6 0.000000 0.000000 0.000000 0.000000 0.000000 0.853070
#
#
# Mechanical properties :
#
#
# Convention : Reuss Voigt Hill
#
# Bulk Modulus (GPa) = 31.28513 32.45706 31.87110
# Shear Modulus (GPa) = 6.29843 6.92968 6.61405
#
# Velocity S-wave (km/s) = 1.85983 1.95080 1.90586
# Velocity P-wave (km/s) = 4.66830 4.78528 4.72715
#
# Compressibility (1/GPa) = 0.03196406
#
# Stress axis : x y z
#
# Youngs Moduli (GPa) = 12.73622 12.73622 100.48770
#
# Poissons Ratio (x) = 0.82892 0.12191
# Poissons Ratio (y) = 0.82892 0.12191
# Poissons Ratio (z) = 0.01545 0.01545
#
# Static dielectric constant tensor:
#      x y z
#    x 1.658700 0.000000 0.000000 
#    y 0.000000 1.658700 0.000000 
#    z 0.000000 0.000000 1.650870 
# 
# From -- ./inp_files/6039.got.cif
#   From: 2010.05.17/outbox.cif.g08.bks.cpg/sg135_4_cif.got.tgz:6039.got - 2010.05.20 12:50:20.
