data_PCOD9568213
_publ_section_title
;
Structure prediction by ZEFSAII (Michael W. Deem and Ramdas Pophale) SiO2 
 PCOD9568213
Probable space group: P 42/N N M
;
_chemical_formula_sum "Si O2"
_cell_formula_units_Z 80
_cell_length_a 18.125340
_cell_length_b 18.125340
_cell_length_c 12.379053
_cell_angle_alpha 90.000000
_cell_angle_beta 90.000000
_cell_angle_gamma 90.000000
_cell_volume 4066.864906
_symmetry_space_group_name_H-M "P 42/N N M"
_symmetry_group_IT_number 134
_space_group.IT_coordinate_system_code '2'
_symmetry_cell_setting 'tetragonal'
loop_
_space_group_symop_operation_xyz
x,y,z
1/2-y,x,1/2+z
1/2-x,1/2-y,z
y,1/2-x,1/2+z
x,1/2-y,1/2-z
1/2-x,y,1/2-z
y,x,-z
1/2-y,1/2-x,-z
-x,-y,-z
1/2+y,-x,1/2-z
1/2+x,1/2+y,-z
-y,1/2+x,1/2-z
-x,1/2+y,1/2+z
1/2+x,-y,1/2+z
-y,-x,z
1/2+y,1/2+x,z
loop_
_atom_site_type_symbol
_atom_site_label
_atom_site_fract_x
_atom_site_fract_y
_atom_site_fract_z
Si Si1 0.681841 0.647461 0.168176
Si Si2 0.533194 0.347891 0.488855
Si Si3 0.398383 0.015063 0.753708
Si Si4 0.599583 0.286366 0.140297
Si Si5 0.109059 0.227517 0.538295
O O1 0.750000 0.653537 0.250000
O O2 0.617644 0.597730 0.219215
O O3 0.647709 0.724465 0.130378
O O4 0.715849 0.605419 0.063240
O O5 0.589719 0.410282 0.531585
O O6 0.495099 0.382149 0.380957
O O7 0.576840 0.277858 0.440441
O O8 0.468051 0.313165 0.560420
O O9 0.476785 0.976785 0.730867
O O10 0.337173 0.966734 0.688068
O O11 0.629731 0.250000 0.250000
O O12 0.659294 0.340707 0.090809
O O13 0.166207 0.166207 0.500000
#
# Coordination Sequence:
#
# PCOD9568213 Si02
#       5
#    16  16  16  16  16
#     4  11  19  37  57  78 117 146 189 244 286 341
#     4  10  19  34  52  74 111 151 187 236 287 345
#     4   9  16  30  54  78 108 154 193 228 285 342
#     4   9  15  25  44  74 107 144 193 234 272 332
#     4  11  24  36  52  83 107 143 197 238 295 347
#
# _framework density 19.671171999999999
#
# number of rings (size 3 to 8) (size 9 to 14) (size 15 to 20)
#    0.000    2.000    4.000    3.600    0.000    3.400 
#    0.000    3.000    0.000    0.000    0.000    0.000 
#    0.000    0.000    0.000    0.800    0.000    1.600 
#
# Total GULP energy -446624.428991 kJ/mol
# GULP energy per Si atom -5582.805362 kJ/mol
# Density = 1.962640 g / cm^3
# Si number density = 19.671172 Si / 1000 Ang^3
#
#
#
# Elastic Constant Matrix: (Units=GPa)
#
#
# Indices 1 2 3 4 5 6 
#
# 1 90.7530 68.1449 19.7592 0.0000 0.0000 0.0000
# 2 68.1449 90.7530 19.7592 0.0000 0.0000 0.0000
# 3 19.7592 19.7592 44.2530 0.0000 0.0000 0.0000
# 4 0.0000 0.0000 0.0000 16.9925 0.0000 0.0000
# 5 0.0000 0.0000 0.0000 0.0000 16.9925 0.0000
# 6 0.0000 0.0000 0.0000 0.0000 0.0000 38.3816
#
#
#
# Elastic Compliance Matrix: (Units=1/GPa)
#
#
# Indices 1 2 3 4 5 6 
#
# 1 0.025656 -0.018576 -0.003161 0.000000 0.000000 0.000000
# 2 -0.018576 0.025656 -0.003161 0.000000 0.000000 0.000000
# 3 -0.003161 -0.003161 0.025420 0.000000 0.000000 0.000000
# 4 0.000000 0.000000 0.000000 0.058849 0.000000 0.000000
# 5 0.000000 0.000000 0.000000 0.000000 0.058849 0.000000
# 6 0.000000 0.000000 0.000000 0.000000 0.000000 0.026054
#
#
# Mechanical properties :
#
#
# Convention : Reuss Voigt Hill
#
# Bulk Modulus (GPa) = 37.12636 49.00952 43.06794
# Shear Modulus (GPa) = 17.90450 22.34637 20.12543
#
# Velocity S-wave (km/s) = 3.02021 3.37411 3.20205
# Velocity P-wave (km/s) = 5.57465 6.33624 5.96761
#
# Compressibility (1/GPa) = 0.02693504
#
# Stress axis : x y z
#
# Youngs Moduli (GPa) = 38.97777 38.97777 39.33880
#
# Poissons Ratio (x) = 0.72406 0.12435
# Poissons Ratio (y) = 0.72406 0.12435
# Poissons Ratio (z) = 0.12321 0.12321
#
# Static dielectric constant tensor:
#      x y z
#    x 1.718240 0.000000 0.000000 
#    y 0.000000 1.718240 0.000000 
#    z 0.000000 0.000000 1.716110 
# 
# From -- ./inp_files/6323.got.cif
#   From: 2010.05.17/outbox.cif.g08.bks.cpg/sg134_4_cif.got.tgz:6323.got - 2010.05.20 12:42:49.
