data_PCOD9568166
_publ_section_title
;
Structure prediction by ZEFSAII (Michael W. Deem and Ramdas Pophale) SiO2 
 PCOD9568166
Probable space group: P 42/N N M
;
_chemical_formula_sum "Si O2"
_cell_formula_units_Z 96
_cell_length_a 14.269479
_cell_length_b 14.269479
_cell_length_c 26.231055
_cell_angle_alpha 90.000000
_cell_angle_beta 90.000000
_cell_angle_gamma 90.000000
_cell_volume 5341.115768
_symmetry_space_group_name_H-M "P 42/N N M"
_symmetry_group_IT_number 134
_space_group.IT_coordinate_system_code '2'
_symmetry_cell_setting 'tetragonal'
loop_
_space_group_symop_operation_xyz
x,y,z
1/2-y,x,1/2+z
1/2-x,1/2-y,z
y,1/2-x,1/2+z
x,1/2-y,1/2-z
1/2-x,y,1/2-z
y,x,-z
1/2-y,1/2-x,-z
-x,-y,-z
1/2+y,-x,1/2-z
1/2+x,1/2+y,-z
-y,1/2+x,1/2-z
-x,1/2+y,1/2+z
1/2+x,-y,1/2+z
-y,-x,z
1/2+y,1/2+x,z
loop_
_atom_site_type_symbol
_atom_site_label
_atom_site_fract_x
_atom_site_fract_y
_atom_site_fract_z
Si Si1 0.962247 0.619184 0.549672
Si Si2 0.637557 0.511909 0.751144
Si Si3 0.639930 0.857956 0.842305
Si Si4 0.455530 0.113508 0.947614
Si Si5 0.096132 0.748776 0.491829
Si Si6 0.648215 0.865697 0.342523
O O1 0.897510 0.602491 0.500000
O O2 0.904849 0.630211 0.601193
O O3 0.027644 0.527644 0.554516
O O4 0.032428 0.704878 0.536423
O O5 0.750000 0.503618 0.750000
O O6 0.587187 0.412814 0.752439
O O7 0.609791 0.568051 0.700184
O O8 0.606497 0.572904 0.800048
O O9 0.613141 0.890028 0.898756
O O10 0.605776 0.754146 0.828621
O O11 0.752976 0.854738 0.842604
O O12 0.525178 0.025178 0.944466
O O13 0.397852 0.102148 0.000000
O O14 0.523312 0.204650 0.952163
O O15 0.167223 0.832778 0.507321
O O16 0.163311 0.663311 0.473069
#
# Coordination Sequence:
#
# PCOD9568166 Si02
#       6
#    16  16  16  16  16  16
#     4  10  19  31  50  76 105 137 176 221 267 318
#     4  10  21  38  58  79 105 136 173 217 265 321
#     4  10  20  34  53  75 102 135 172 215 263 314
#     4  10  19  31  49  74 104 136 173 218 265 316
#     4   9  18  32  48  69 104 147 182 215 266 332
#     4  10  20  34  53  76 102 135 173 215 263 313
#
# _framework density 17.973773000000001
#
# number of rings (size 3 to 8) (size 9 to 14) (size 15 to 20)
#    0.000    2.167    0.000    3.500    0.000    2.167 
#    0.000    5.833    0.000    4.000    0.000    0.000 
#    0.000    4.000    0.000    0.000    0.000    0.000 
#
# Total GULP energy -535373.610226 kJ/mol
# GULP energy per Si atom -5576.808440 kJ/mol
# Density = 1.793286 g / cm^3
# Si number density = 17.973773 Si / 1000 Ang^3
#
#
#
# Elastic Constant Matrix: (Units=GPa)
#
#
# Indices 1 2 3 4 5 6 
#
# 1 52.0280 39.7044 29.5091 0.0000 0.0000 0.0000
# 2 39.7044 52.0284 29.5091 0.0000 0.0000 0.0000
# 3 29.5091 29.5091 93.8154 0.0000 0.0000 0.0000
# 4 0.0000 0.0000 0.0000 20.0379 0.0000 0.0000
# 5 0.0000 0.0000 0.0000 0.0000 20.0382 0.0000
# 6 0.0000 0.0000 0.0000 0.0000 0.0000 19.1172
#
#
#
# Elastic Compliance Matrix: (Units=1/GPa)
#
#
# Indices 1 2 3 4 5 6 
#
# 1 0.047405 -0.033738 -0.004299 0.000000 0.000000 0.000000
# 2 -0.033738 0.047405 -0.004299 0.000000 0.000000 0.000000
# 3 -0.004299 -0.004299 0.013364 0.000000 0.000000 0.000000
# 4 0.000000 0.000000 0.000000 0.049905 0.000000 0.000000
# 5 0.000000 0.000000 0.000000 0.000000 0.049905 0.000000
# 6 0.000000 0.000000 0.000000 0.000000 0.000000 0.052309
#
#
# Mechanical properties :
#
#
# Convention : Reuss Voigt Hill
#
# Bulk Modulus (GPa) = 42.54933 43.92412 43.23673
# Shear Modulus (GPa) = 14.17237 18.44861 16.31049
#
# Velocity S-wave (km/s) = 2.81108 3.20725 3.01568
# Velocity P-wave (km/s) = 5.85326 6.18112 6.01942
#
# Compressibility (1/GPa) = 0.02350213
#
# Stress axis : x y z
#
# Youngs Moduli (GPa) = 21.09463 21.09481 74.83006
#
# Poissons Ratio (x) = 0.71170 0.32169
# Poissons Ratio (y) = 0.71169 0.32168
# Poissons Ratio (z) = 0.09069 0.09068
#
# Static dielectric constant tensor:
#      x y z
#    x 1.630350 0.000000 0.000000 
#    y 0.000000 1.630350 0.000000 
#    z 0.000000 0.000000 1.590580 
# 
# From -- ./inp_files/9144.got.cif
#   From: 2010.05.17/outbox.cif.g08.bks.cpg/sg134_5_cif.got.tgz:9144.got - 2010.05.20 12:42:49.
