data_PCOD9568800
_publ_section_title
;
Structure prediction by ZEFSAII (Michael W. Deem and Ramdas Pophale) SiO2 
 PCOD9568800
Probable space group: P 42/M B C
;
_chemical_formula_sum "Si O2"
_cell_formula_units_Z 112
_cell_length_a 14.586177
_cell_length_b 14.586177
_cell_length_c 23.876535
_cell_angle_alpha 90.000000
_cell_angle_beta 90.000000
_cell_angle_gamma 90.000000
_cell_volume 5079.889439
_symmetry_space_group_name_H-M "P 42/M B C"
_symmetry_group_IT_number 135
_symmetry_cell_setting 'tetragonal'
loop_
_space_group_symop_operation_xyz
x,y,z
-y,x,1/2+z
-x,-y,z
y,-x,1/2+z
1/2+x,1/2-y,-z
1/2-x,1/2+y,-z
1/2+y,1/2+x,1/2-z
1/2-y,1/2-x,1/2-z
-x,-y,-z
y,-x,1/2-z
x,y,-z
-y,x,1/2-z
1/2-x,1/2+y,z
1/2+x,1/2-y,z
1/2-y,1/2-x,1/2+z
1/2+y,1/2+x,1/2+z
loop_
_atom_site_type_symbol
_atom_site_label
_atom_site_fract_x
_atom_site_fract_y
_atom_site_fract_z
Si Si1 0.801996 0.142501 0.645519
Si Si2 0.397652 0.032775 0.834029
Si Si3 0.744970 0.396046 0.241786
Si Si4 0.300819 0.264524 0.935778
Si Si5 0.969475 0.722746 0.437222
Si Si6 0.417308 0.570388 0.061045
Si Si7 0.262876 0.036070 0.357312
O O1 0.862766 0.168683 0.698301
O O2 0.786343 0.231856 0.607410
O O3 0.858289 0.068179 0.609622
O O4 0.716679 0.073767 0.651412
O O5 0.318301 0.033645 0.786290
O O6 0.415690 0.138503 0.848343
O O7 0.500000 0.000000 0.818996
O O8 0.350988 0.989199 0.889299
O O9 0.803100 0.303100 0.250000
O O10 0.708993 0.433038 0.300813
O O11 0.256589 0.365160 0.937072
O O12 0.403776 0.268885 0.911274
O O13 0.300199 0.228564 0.000000
O O14 0.991210 0.687621 0.500000
O O15 0.024670 0.818202 0.429041
O O16 0.500000 0.500000 0.060701
O O17 0.413950 0.615887 0.000000
#
# Coordination Sequence:
#
# PCOD9568800 Si02
#       7
#    16  16  16  16  16  16  16
#     4  12  22  43  68  93 131 179 220 281 338 402
#     4  11  22  42  65  94 131 173 223 278 333 408
#     4  10  22  45  63  92 132 172 225 281 334 411
#     4  11  23  41  67 100 135 174 224 279 339 417
#     4  10  21  38  62  94 134 175 218 271 335 400
#     4  10  20  37  62  92 128 173 216 263 326 395
#     4  11  25  42  66 100 133 172 228 282 344 403
#
# _framework density 22.047723999999999
#
# number of rings (size 3 to 8) (size 9 to 14) (size 15 to 20)
#    0.000    1.286    4.286    2.143    0.000    8.000 
#    5.143    0.000    0.000    0.000    0.000    0.000 
#    0.000    0.000    0.000    0.000    0.000    0.000 
#
# Total GULP energy -624091.827498 kJ/mol
# GULP energy per Si atom -5572.248460 kJ/mol
# Density = 2.199754 g / cm^3
# Si number density = 22.047724 Si / 1000 Ang^3
#
#
#
# Elastic Constant Matrix: (Units=GPa)
#
#
# Indices 1 2 3 4 5 6 
#
# 1 45.4219 14.4406 9.8314 0.0000 0.0000 0.0000
# 2 14.4406 45.4219 9.8314 0.0000 0.0000 0.0000
# 3 9.8314 9.8314 72.6299 0.0000 0.0000 0.0000
# 4 0.0000 0.0000 0.0000 53.6706 0.0000 0.0000
# 5 0.0000 0.0000 0.0000 0.0000 53.6706 0.0000
# 6 0.0000 0.0000 0.0000 0.0000 0.0000 30.0987
#
#
#
# Elastic Compliance Matrix: (Units=1/GPa)
#
#
# Indices 1 2 3 4 5 6 
#
# 1 0.024880 -0.007398 -0.002366 0.000000 0.000000 0.000000
# 2 -0.007398 0.024880 -0.002366 0.000000 0.000000 0.000000
# 3 -0.002366 -0.002366 0.014409 0.000000 0.000000 0.000000
# 4 0.000000 0.000000 0.000000 0.018632 0.000000 0.000000
# 5 0.000000 0.000000 0.000000 0.000000 0.018632 0.000000
# 6 0.000000 0.000000 0.000000 0.000000 0.000000 0.033224
#
#
# Mechanical properties :
#
#
# Convention : Reuss Voigt Hill
#
# Bulk Modulus (GPa) = 25.05776 25.74227 25.40002
# Shear Modulus (GPa) = 29.03248 36.11268 32.57258
#
# Velocity S-wave (km/s) = 3.63271 4.05153 3.84782
# Velocity P-wave (km/s) = 5.38381 5.79548 5.59343
#
# Compressibility (1/GPa) = 0.03990780
#
# Stress axis : x y z
#
# Youngs Moduli (GPa) = 40.19310 40.19310 69.40059
#
# Poissons Ratio (x) = 0.29733 0.16423
# Poissons Ratio (y) = 0.29733 0.16423
# Poissons Ratio (z) = 0.09512 0.09512
#
# Static dielectric constant tensor:
#      x y z
#    x 1.055940 0.000000 0.000000 
#    y 0.000000 1.055940 0.000000 
#    z 0.000000 0.000000 1.931470 
# 
# From -- ./inp_files/6121.got.cif
#   From: 2010.05.17/outbox.cif.g08.bks.cpg/sg135_4_cif.got.tgz:6121.got - 2010.05.20 12:50:20.
