data_PCOD9568021
_publ_section_title
;
Structure prediction by ZEFSAII (Michael W. Deem and Ramdas Pophale) SiO2 
 PCOD9568021
Probable space group: P 42/N B C
;
_chemical_formula_sum "Si O2"
_cell_formula_units_Z 48
_cell_length_a 13.295519
_cell_length_b 13.295519
_cell_length_c 14.076691
_cell_angle_alpha 90.000000
_cell_angle_beta 90.000000
_cell_angle_gamma 90.000000
_cell_volume 2488.348288
_symmetry_space_group_name_H-M "P 42/N B C"
_symmetry_group_IT_number 133
_space_group.IT_coordinate_system_code '2'
_symmetry_cell_setting 'tetragonal'
loop_
_space_group_symop_operation_xyz
x,y,z
1/2-y,x,1/2+z
1/2-x,1/2-y,z
y,1/2-x,1/2+z
x,1/2-y,-z
1/2-x,y,-z
y,x,1/2-z
1/2-y,1/2-x,1/2-z
-x,-y,-z
1/2+y,-x,1/2-z
1/2+x,1/2+y,-z
-y,1/2+x,1/2-z
-x,1/2+y,z
1/2+x,-y,z
-y,-x,1/2+z
1/2+y,1/2+x,1/2+z
loop_
_atom_site_type_symbol
_atom_site_label
_atom_site_fract_x
_atom_site_fract_y
_atom_site_fract_z
Si Si1 0.334002 0.615209 0.916108
Si Si2 0.508844 0.750000 0.000000
Si Si3 0.322950 0.382330 0.909620
Si Si4 0.250000 0.750000 0.750000
Si Si5 0.750000 0.750000 0.750000
O O1 0.354119 0.497679 0.901672
O O2 0.290878 0.664426 0.820556
O O3 0.250000 0.626125 0.000000
O O4 0.434619 0.672850 0.947275
O O5 0.581629 0.689207 0.071352
O O6 0.259925 0.344746 0.819440
O O7 0.250000 0.372822 0.000000
#
# Coordination Sequence:
#
# PCOD9568021 Si02
#       5
#    16   8  16   4   4
#     4  11  25  43  67  93 136 178 218 274 340 402
#     4  12  20  48  64 100 132 180 222 278 340 408
#     4  11  25  43  66  95 134 177 219 277 339 397
#     4  12  22  44  64  98 128 176 230 280 328 398
#     4  12  22  44  64  98 128 176 228 286 324 394
#
# _framework density 19.289902999999999
#
# number of rings (size 3 to 8) (size 9 to 14) (size 15 to 20)
#    0.000    0.667    6.667    1.000    4.667    0.000 
#    0.000    1.667    0.000    0.000    0.000    0.000 
#    0.000    0.000    0.000    0.000    0.000    0.000 
#
# Total GULP energy -268300.639360 kJ/mol
# GULP energy per Si atom -5589.596653 kJ/mol
# Density = 1.924600 g / cm^3
# Si number density = 19.289903 Si / 1000 Ang^3
#
#
#
# Elastic Constant Matrix: (Units=GPa)
#
#
# Indices 1 2 3 4 5 6 
#
# 1 153.0303 78.8618 54.6653 0.0000 0.0000 0.0000
# 2 78.8618 153.0303 54.6653 0.0000 0.0000 0.0000
# 3 54.6653 54.6653 131.4321 0.0000 0.0000 0.0000
# 4 0.0000 0.0000 0.0000 2.1170 0.0000 0.0000
# 5 0.0000 0.0000 0.0000 0.0000 2.1170 0.0000
# 6 0.0000 0.0000 0.0000 0.0000 0.0000 27.9363
#
#
#
# Elastic Compliance Matrix: (Units=1/GPa)
#
#
# Indices 1 2 3 4 5 6 
#
# 1 0.009424 -0.004059 -0.002231 0.000000 0.000000 0.000000
# 2 -0.004059 0.009424 -0.002231 0.000000 0.000000 0.000000
# 3 -0.002231 -0.002231 0.009464 0.000000 0.000000 0.000000
# 4 0.000000 0.000000 0.000000 0.472361 0.000000 0.000000
# 5 0.000000 0.000000 0.000000 0.000000 0.472361 0.000000
# 6 0.000000 0.000000 0.000000 0.000000 0.000000 0.035796
#
#
# Mechanical properties :
#
#
# Convention : Reuss Voigt Hill
#
# Bulk Modulus (GPa) = 88.74288 90.43083 89.58686
# Shear Modulus (GPa) = 4.85612 23.05408 13.95510
#
# Velocity S-wave (km/s) = 1.58837 3.46083 2.69260
# Velocity P-wave (km/s) = 7.03339 7.93419 7.49733
#
# Compressibility (1/GPa) = 0.01126851
#
# Stress axis : x y z
#
# Youngs Moduli (GPa) = 106.11728 106.11728 105.65892
#
# Poissons Ratio (x) = 0.43076 0.23574
# Poissons Ratio (y) = 0.43076 0.23574
# Poissons Ratio (z) = 0.23676 0.23676
#
# Static dielectric constant tensor:
#      x y z
#    x 1.666120 0.000000 0.000000 
#    y 0.000000 1.666120 0.000000 
#    z 0.000000 0.000000 1.664510 
# 
# From -- ./inp_files/2593.got.cif
#   From: 2010.05.17/outbox.cif.g08.bks.cpg/sg133_2_cif.got.tgz:2593.got - 2010.05.20 12:37:36.
