data_PCOD9568723
_publ_section_title
;
Structure prediction by ZEFSAII (Michael W. Deem and Ramdas Pophale) SiO2 
 PCOD9568723
Probable space group: P 42/M B C
;
_chemical_formula_sum "Si O2"
_cell_formula_units_Z 96
_cell_length_a 25.540305
_cell_length_b 25.540305
_cell_length_c 8.808950
_cell_angle_alpha 90.000000
_cell_angle_beta 90.000000
_cell_angle_gamma 90.000000
_cell_volume 5746.141329
_symmetry_space_group_name_H-M "P 42/M B C"
_symmetry_group_IT_number 135
_symmetry_cell_setting 'tetragonal'
loop_
_space_group_symop_operation_xyz
x,y,z
-y,x,1/2+z
-x,-y,z
y,-x,1/2+z
1/2+x,1/2-y,-z
1/2-x,1/2+y,-z
1/2+y,1/2+x,1/2-z
1/2-y,1/2-x,1/2-z
-x,-y,-z
y,-x,1/2-z
x,y,-z
-y,x,1/2-z
1/2-x,1/2+y,z
1/2+x,1/2-y,z
1/2-y,1/2-x,1/2+z
1/2+y,1/2+x,1/2+z
loop_
_atom_site_type_symbol
_atom_site_label
_atom_site_fract_x
_atom_site_fract_y
_atom_site_fract_z
Si Si1 0.438346 0.622234 0.167996
Si Si2 0.249251 0.666805 0.183388
Si Si3 0.863279 0.947852 0.671942
Si Si4 0.438957 0.748147 0.173317
Si Si5 0.827351 0.755058 0.318618
Si Si6 0.452119 0.253780 0.321947
O O1 0.400710 0.600007 0.293968
O O2 0.498218 0.604793 0.187551
O O3 0.441274 0.684856 0.170452
O O4 0.419552 0.606051 0.000000
O O5 0.204598 0.704598 0.250000
O O6 0.303826 0.690700 0.248562
O O7 0.237189 0.606588 0.226662
O O8 0.251359 0.670068 0.000000
O O9 0.841950 0.946287 0.500000
O O10 0.815824 0.949627 0.788887
O O11 0.386587 0.758165 0.269576
O O12 0.495299 0.766079 0.238408
O O13 0.432209 0.766437 0.000000
O O14 0.789405 0.710596 0.250000
O O15 0.822684 0.757304 0.500000
O O16 0.457808 0.243387 0.500000
#
# Coordination Sequence:
#
# PCOD9568723 Si02
#       6
#    16  16  16  16  16  16
#     4   9  19  32  43  58  81 109 144 188 233 277
#     4  10  20  33  50  73 101 131 165 204 246 294
#     4  10  20  31  44  61  80 109 148 189 234 280
#     4  10  20  34  50  69  94 123 157 195 236 285
#     4  11  21  33  51  74 101 132 166 203 246 293
#     4  10  20  33  49  69  93 122 155 193 236 283
#
# _framework density 16.706862999999998
#
# number of rings (size 3 to 8) (size 9 to 14) (size 15 to 20)
#    0.000    2.000    0.000    6.500    0.000   11.000 
#    0.000    1.667    0.000    0.000    0.000    0.000 
#    0.000    0.667    0.000    7.000    0.000    3.833 
#
# Total GULP energy -535075.982058 kJ/mol
# GULP energy per Si atom -5573.708146 kJ/mol
# Density = 1.666884 g / cm^3
# Si number density = 16.706863 Si / 1000 Ang^3
#
#
#
# Elastic Constant Matrix: (Units=GPa)
#
#
# Indices 1 2 3 4 5 6 
#
# 1 70.8106 15.8586 28.7611 0.0000 0.0000 0.0000
# 2 15.8586 70.8100 28.7607 0.0000 0.0000 0.0000
# 3 28.7611 28.7607 74.5364 0.0000 0.0000 0.0000
# 4 0.0000 0.0000 0.0000 19.8152 0.0000 0.0000
# 5 0.0000 0.0000 0.0000 0.0000 19.8147 0.0000
# 6 0.0000 0.0000 0.0000 0.0000 0.0000 15.7551
#
#
#
# Elastic Compliance Matrix: (Units=1/GPa)
#
#
# Indices 1 2 3 4 5 6 
#
# 1 0.016854 -0.001344 -0.005985 0.000000 0.000000 0.000000
# 2 -0.001344 0.016854 -0.005985 0.000000 0.000000 0.000000
# 3 -0.005985 -0.005985 0.018035 0.000000 0.000000 0.000000
# 4 0.000000 0.000000 0.000000 0.050466 0.000000 0.000000
# 5 0.000000 0.000000 0.000000 0.000000 0.050468 0.000000
# 6 0.000000 0.000000 0.000000 0.000000 0.000000 0.063471
#
#
# Mechanical properties :
#
#
# Convention : Reuss Voigt Hill
#
# Bulk Modulus (GPa) = 39.81509 40.32418 40.06964
# Shear Modulus (GPa) = 19.90866 20.59547 20.25206
#
# Velocity S-wave (km/s) = 3.45577 3.51487 3.48544
# Velocity P-wave (km/s) = 6.30923 6.37661 6.34301
#
# Compressibility (1/GPa) = 0.02511610
#
# Stress axis : x y z
#
# Youngs Moduli (GPa) = 59.33309 59.33283 55.44799
#
# Poissons Ratio (x) = 0.07973 0.33185
# Poissons Ratio (y) = 0.07973 0.33185
# Poissons Ratio (z) = 0.35510 0.35510
#
# Static dielectric constant tensor:
#      x y z
#    x 1.583540 0.000000 0.000000 
#    y 0.000000 1.583540 0.000000 
#    z 0.000000 0.000000 1.597290 
# 
# From -- ./inp_files/1205.got.cif
#   From: 2010.05.17/outbox.cif.g08.bks.cpg/sg135_1_cif.got.tgz:1205.got - 2010.05.20 12:50:20.
