data_PCOD9568662
_publ_section_title
;
Structure prediction by ZEFSAII (Michael W. Deem and Ramdas Pophale) SiO2 
 PCOD9568662
Probable space group: P 42/M B C
;
_chemical_formula_sum "Si O2"
_cell_formula_units_Z 96
_cell_length_a 18.837223
_cell_length_b 18.837223
_cell_length_c 16.250337
_cell_angle_alpha 90.000000
_cell_angle_beta 90.000000
_cell_angle_gamma 90.000000
_cell_volume 5766.285350
_symmetry_space_group_name_H-M "P 42/M B C"
_symmetry_group_IT_number 135
_symmetry_cell_setting 'tetragonal'
loop_
_space_group_symop_operation_xyz
x,y,z
-y,x,1/2+z
-x,-y,z
y,-x,1/2+z
1/2+x,1/2-y,-z
1/2-x,1/2+y,-z
1/2+y,1/2+x,1/2-z
1/2-y,1/2-x,1/2-z
-x,-y,-z
y,-x,1/2-z
x,y,-z
-y,x,1/2-z
1/2-x,1/2+y,z
1/2+x,1/2-y,z
1/2-y,1/2-x,1/2+z
1/2+y,1/2+x,1/2+z
loop_
_atom_site_type_symbol
_atom_site_label
_atom_site_fract_x
_atom_site_fract_y
_atom_site_fract_z
Si Si1 0.616765 0.499148 0.500000
Si Si2 0.329523 0.059879 0.216199
Si Si3 0.415219 0.829327 0.182460
Si Si4 0.621660 0.504929 0.000000
Si Si5 0.669592 0.558136 0.331816
Si Si6 0.924404 0.526330 0.095907
Si Si7 0.827105 0.955588 0.173446
O O1 0.556156 0.560631 0.500000
O O2 0.577771 0.423181 0.500000
O O3 0.659271 0.512189 0.415302
O O4 0.374831 0.125170 0.250000
O O5 0.250060 0.077549 0.189404
O O6 0.329983 0.995706 0.282342
O O7 0.366899 0.022310 0.139338
O O8 0.360119 0.860119 0.250000
O O9 0.404204 0.746707 0.162868
O O10 0.413223 0.890373 0.113610
O O11 0.665433 0.494301 0.915430
O O12 0.605779 0.614196 0.326342
O O13 0.663765 0.510188 0.249532
O O14 0.000000 0.500000 0.131162
O O15 0.923742 0.513318 0.000000
#
# Coordination Sequence:
#
# PCOD9568662 Si02
#       7
#     8  16  16   8  16  16  16
#     4   9  18  32  56  76 107 140 184 240 274 325
#     4  10  19  34  52  77 105 139 179 225 276 331
#     4   9  19  33  52  76 107 138 178 223 273 336
#     4   9  18  34  52  80 103 142 190 230 276 329
#     4  10  20  35  53  83 108 147 188 232 286 335
#     4  10  19  31  54  79 100 134 172 220 269 325
#     4  10  21  34  56  78 111 147 187 233 282 341
#
# _framework density 16.648501
#
# number of rings (size 3 to 8) (size 9 to 14) (size 15 to 20)
#    0.000    2.333    1.667    1.000    2.333    2.333 
#    0.000    0.000    0.000    0.000    0.000    0.000 
#    0.000    0.000    0.000    0.000    0.000    0.000 
#
# Total GULP energy -534637.708623 kJ/mol
# GULP energy per Si atom -5569.142798 kJ/mol
# Density = 1.661061 g / cm^3
# Si number density = 16.648501 Si / 1000 Ang^3
#
#
#
# Elastic Constant Matrix: (Units=GPa)
#
#
# Indices 1 2 3 4 5 6 
#
# 1 88.2888 33.8084 34.9991 0.0000 0.0000 0.0000
# 2 33.8084 88.2896 34.9998 0.0000 0.0000 0.0000
# 3 34.9991 34.9998 100.4480 0.0000 0.0000 0.0000
# 4 0.0000 0.0000 0.0000 8.3295 0.0000 0.0000
# 5 0.0000 0.0000 0.0000 0.0000 8.3233 0.0000
# 6 0.0000 0.0000 0.0000 0.0000 0.0000 8.5407
#
#
#
# Elastic Compliance Matrix: (Units=1/GPa)
#
#
# Indices 1 2 3 4 5 6 
#
# 1 0.014295 -0.004060 -0.003566 0.000000 0.000000 0.000000
# 2 -0.004060 0.014295 -0.003566 0.000000 0.000000 0.000000
# 3 -0.003566 -0.003566 0.012440 0.000000 0.000000 0.000000
# 4 0.000000 0.000000 0.000000 0.120055 0.000000 0.000000
# 5 0.000000 0.000000 0.000000 0.000000 0.120144 0.000000
# 6 0.000000 0.000000 0.000000 0.000000 0.000000 0.117087
#
#
# Mechanical properties :
#
#
# Convention : Reuss Voigt Hill
#
# Bulk Modulus (GPa) = 53.63258 53.84900 53.74079
# Shear Modulus (GPa) = 11.71190 16.58664 14.14927
#
# Velocity S-wave (km/s) = 2.65520 3.15982 2.91844
# Velocity P-wave (km/s) = 6.45637 6.76221 6.61106
#
# Compressibility (1/GPa) = 0.01864538
#
# Stress axis : x y z
#
# Youngs Moduli (GPa) = 69.95510 69.95536 80.38264
#
# Poissons Ratio (x) = 0.28403 0.28665
# Poissons Ratio (y) = 0.28403 0.28666
# Poissons Ratio (z) = 0.24946 0.24947
#
# Static dielectric constant tensor:
#      x y z
#    x 1.567750 0.000000 0.000000 
#    y 0.000000 1.567750 0.000000 
#    z 0.000000 0.000000 1.564590 
# 
# From -- ./inp_files/4529.got.cif
#   From: 2010.05.17/outbox.cif.g08.bks.cpg/sg135_3_cif.got.tgz:4529.got - 2010.05.20 12:50:20.
