data_PCOD9568653
_publ_section_title
;
Structure prediction by ZEFSAII (Michael W. Deem and Ramdas Pophale) SiO2 
 PCOD9568653
Probable space group: P 42/M B C
;
_chemical_formula_sum "Si O2"
_cell_formula_units_Z 116
_cell_length_a 27.047484
_cell_length_b 27.047484
_cell_length_c 8.089315
_cell_angle_alpha 90.000000
_cell_angle_beta 90.000000
_cell_angle_gamma 90.000000
_cell_volume 5917.870978
_symmetry_space_group_name_H-M "P 42/M B C"
_symmetry_group_IT_number 135
_symmetry_cell_setting 'tetragonal'
loop_
_space_group_symop_operation_xyz
x,y,z
-y,x,1/2+z
-x,-y,z
y,-x,1/2+z
1/2+x,1/2-y,-z
1/2-x,1/2+y,-z
1/2+y,1/2+x,1/2-z
1/2-y,1/2-x,1/2-z
-x,-y,-z
y,-x,1/2-z
x,y,-z
-y,x,1/2-z
1/2-x,1/2+y,z
1/2+x,1/2-y,z
1/2-y,1/2-x,1/2+z
1/2+y,1/2+x,1/2+z
loop_
_atom_site_type_symbol
_atom_site_label
_atom_site_fract_x
_atom_site_fract_y
_atom_site_fract_z
Si Si1 0.235480 0.486563 0.187656
Si Si2 0.393779 0.514835 0.697454
Si Si3 0.000000 0.000000 0.750000
Si Si4 0.222521 0.832064 0.689160
Si Si5 0.925129 0.202756 0.806988
Si Si6 0.077978 0.164614 0.688057
Si Si7 0.106586 0.317589 0.301408
Si Si8 0.330395 0.244002 0.813809
O O1 0.255915 0.532144 0.290773
O O2 0.283134 0.450604 0.177935
O O3 0.192915 0.449965 0.252148
O O4 0.224063 0.502932 0.000000
O O5 0.404965 0.522270 0.500000
O O6 0.444365 0.517139 0.801859
O O7 0.349902 0.552404 0.753749
O O8 0.371050 0.460185 0.721872
O O9 0.222014 0.815666 0.500000
O O10 0.178701 0.871620 0.722076
O O11 0.274051 0.859105 0.727618
O O12 0.211764 0.785958 0.805375
O O13 0.876896 0.228438 0.728890
O O14 0.915236 0.192749 0.000000
O O15 0.087310 0.147562 0.500000
O O16 0.130997 0.369004 0.250000
O O17 0.107383 0.312563 0.500000
O O18 0.306037 0.193964 0.750000
O O19 0.345768 0.233971 0.000000
#
# Coordination Sequence:
#
# PCOD9568653 Si02
#       8
#    16  16   4  16  16  16  16  16
#     4   8  16  31  51  75 101 131 170 211 254 307
#     4  10  22  40  56  77 104 139 185 235 289 339
#     4  12  26  36  56  82 110 144 188 250 298 332
#     4  11  21  33  51  76 104 138 174 215 266 329
#     4   9  20  38  59  76  99 136 177 221 273 328
#     4   9  18  34  55  76  99 132 174 221 272 327
#     4  10  19  31  48  75 109 144 175 211 255 305
#     4  11  23  38  55  78 105 135 172 221 274 331
#
# _framework density 19.601642999999999
#
# number of rings (size 3 to 8) (size 9 to 14) (size 15 to 20)
#    0.000    2.207    0.000    3.931    1.931    6.069 
#    0.000    0.000    0.000    0.000    0.000    0.000 
#    0.000    0.552    0.000    6.069    0.000    4.414 
#
# Total GULP energy -646324.462939 kJ/mol
# GULP energy per Si atom -5571.762612 kJ/mol
# Density = 1.955703 g / cm^3
# Si number density = 19.601643 Si / 1000 Ang^3
#
#
#
# Elastic Constant Matrix: (Units=GPa)
#
#
# Indices 1 2 3 4 5 6 
#
# 1 78.9594 56.8704 6.5773 0.0000 0.0000 0.0000
# 2 56.8704 78.9597 6.5767 0.0000 0.0000 0.0000
# 3 6.5773 6.5767 44.5822 0.0000 0.0000 0.0000
# 4 0.0000 0.0000 0.0000 -109.5013 0.0000 0.0000
# 5 0.0000 0.0000 0.0000 0.0000 -109.2926 0.0000
# 6 0.0000 0.0000 0.0000 0.0000 0.0000 30.9133
#
#
#
# Elastic Compliance Matrix: (Units=1/GPa)
#
#
# Indices 1 2 3 4 5 6 
#
# 1 0.026370 -0.018901 -0.001102 0.000000 0.000000 0.000000
# 2 -0.018901 0.026370 -0.001102 0.000000 0.000000 0.000000
# 3 -0.001102 -0.001102 0.022756 0.000000 0.000000 0.000000
# 4 0.000000 0.000000 0.000000 -0.009132 0.000000 0.000000
# 5 0.000000 0.000000 0.000000 0.000000 -0.009150 0.000000
# 6 0.000000 0.000000 0.000000 0.000000 0.000000 0.032349
#
#
# Mechanical properties :
#
#
# Convention : Reuss Voigt Hill
#
# Bulk Modulus (GPa) = 30.04274 38.06112 34.05193
# Shear Modulus (GPa) = 34.99765 -28.74431 3.12667
#
# Velocity S-wave (km/s) = 4.23004 -3.83355 1.26434
# Velocity P-wave (km/s) = 6.26239 0.36783 4.42053
#
# Compressibility (1/GPa) = 0.03328591
#
# Stress axis : x y z
#
# Youngs Moduli (GPa) = 37.92184 37.92211 43.94526
#
# Poissons Ratio (x) = 0.71677 0.04844
# Poissons Ratio (y) = 0.71676 0.04841
# Poissons Ratio (z) = 0.04180 0.04177
#
# Static dielectric constant tensor:
#      x y z
#    x 1.730120 0.000000 0.000000 
#    y 0.000000 1.730120 0.000000 
#    z 0.000000 0.000000 1.733880 
# 
# From -- ./inp_files/1508.got.cif
#   From: 2010.05.17/outbox.cif.g08.bks.cpg/sg135_1_cif.got.tgz:1508.got - 2010.05.20 12:50:20.
