data_PCOD9568918
_publ_section_title
;
Structure prediction by ZEFSAII (Michael W. Deem and Ramdas Pophale) SiO2 
 PCOD9568918
Probable space group: P 42/M B C
;
_chemical_formula_sum "Si O2"
_cell_formula_units_Z 96
_cell_length_a 13.986853
_cell_length_b 13.986853
_cell_length_c 21.832790
_cell_angle_alpha 90.000000
_cell_angle_beta 90.000000
_cell_angle_gamma 90.000000
_cell_volume 4271.193614
_symmetry_space_group_name_H-M "P 42/M B C"
_symmetry_group_IT_number 135
_symmetry_cell_setting 'tetragonal'
loop_
_space_group_symop_operation_xyz
x,y,z
-y,x,1/2+z
-x,-y,z
y,-x,1/2+z
1/2+x,1/2-y,-z
1/2-x,1/2+y,-z
1/2+y,1/2+x,1/2-z
1/2-y,1/2-x,1/2-z
-x,-y,-z
y,-x,1/2-z
x,y,-z
-y,x,1/2-z
1/2-x,1/2+y,z
1/2+x,1/2-y,z
1/2-y,1/2-x,1/2+z
1/2+y,1/2+x,1/2+z
loop_
_atom_site_type_symbol
_atom_site_label
_atom_site_fract_x
_atom_site_fract_y
_atom_site_fract_z
Si Si1 0.664774 0.628431 0.120789
Si Si2 0.414552 0.308476 0.628060
Si Si3 0.837321 0.712169 0.184591
Si Si4 0.351967 0.553142 0.742606
Si Si5 0.327046 0.132671 0.433171
Si Si6 0.891443 0.466740 0.309292
O O1 0.642093 0.516036 0.108702
O O2 0.773859 0.638411 0.144882
O O3 0.599218 0.665918 0.177263
O O4 0.652057 0.712618 0.071569
O O5 0.306709 0.347180 0.642288
O O6 0.440951 0.282988 0.699020
O O7 0.389707 0.227995 0.578782
O O8 0.780266 0.719735 0.250000
O O9 0.940501 0.673195 0.202796
O O10 0.445869 0.611785 0.764245
O O11 0.348240 0.091640 0.500000
O O12 0.356473 0.073701 0.373570
O O13 0.898235 0.398235 0.250000
O O14 0.000000 0.500000 0.317802
#
# Coordination Sequence:
#
# PCOD9568918 Si02
#       6
#    16  16  16  16  16  16
#     4  10  22  39  64  91 134 174 219 282 349 417
#     4  10  22  38  65  93 130 175 220 284 344 415
#     4  11  20  37  61 102 136 165 224 282 354 421
#     4   9  18  31  57  99 130 157 201 266 341 408
#     4  11  27  44  63  93 133 184 237 286 349 431
#     4  11  24  41  71 104 139 177 223 293 365 432
#
# _framework density 22.476151999999999
#
# number of rings (size 3 to 8) (size 9 to 14) (size 15 to 20)
#    0.000    1.667    3.333    1.000    4.667    1.000 
#    0.000    3.333    0.000    1.000    0.000    0.000 
#    0.000    0.000    0.000    0.000    0.000    0.000 
#
# Total GULP energy -534456.117825 kJ/mol
# GULP energy per Si atom -5567.251227 kJ/mol
# Density = 2.242499 g / cm^3
# Si number density = 22.476152 Si / 1000 Ang^3
#
#
#
# Elastic Constant Matrix: (Units=GPa)
#
#
# Indices 1 2 3 4 5 6 
#
# 1 85.2930 12.3982 39.3093 0.0000 0.0000 0.0000
# 2 12.3982 85.2931 39.3093 0.0000 0.0000 0.0000
# 3 39.3093 39.3093 126.0443 0.0000 0.0000 0.0000
# 4 0.0000 0.0000 0.0000 -9.7965 0.0000 0.0000
# 5 0.0000 0.0000 0.0000 0.0000 -9.7970 0.0000
# 6 0.0000 0.0000 0.0000 0.0000 0.0000 24.6952
#
#
#
# Elastic Compliance Matrix: (Units=1/GPa)
#
#
# Indices 1 2 3 4 5 6 
#
# 1 0.013692 -0.000026 -0.004262 0.000000 0.000000 0.000000
# 2 -0.000026 0.013692 -0.004262 0.000000 0.000000 0.000000
# 3 -0.004262 -0.004262 0.010592 0.000000 0.000000 0.000000
# 4 0.000000 0.000000 0.000000 -0.102077 0.000000 0.000000
# 5 0.000000 0.000000 0.000000 0.000000 -0.102072 0.000000
# 6 0.000000 0.000000 0.000000 0.000000 0.000000 0.040494
#
#
# Mechanical properties :
#
#
# Convention : Reuss Voigt Hill
#
# Bulk Modulus (GPa) = 47.90096 53.18486 50.54291
# Shear Modulus (GPa) = -49.20335 14.72791 -17.23772
#
# Velocity S-wave (km/s) = -4.68390 2.56260 -2.77236
# Velocity P-wave (km/s) = 2.80957 5.69825 3.50545
#
# Compressibility (1/GPa) = 0.02087641
#
# Stress axis : x y z
#
# Youngs Moduli (GPa) = 73.03339 73.03346 94.40948
#
# Poissons Ratio (x) = 0.00190 0.40238
# Poissons Ratio (y) = 0.00190 0.40238
# Poissons Ratio (z) = 0.31128 0.31128
#
# Static dielectric constant tensor:
#      x y z
#    x 1.921910 0.000000 0.000000 
#    y 0.000000 1.921910 0.000000 
#    z 0.000000 0.000000 1.844490 
# 
# From -- ./inp_files/5429.got.cif
#   From: 2010.05.17/outbox.cif.g08.bks.cpg/sg135_3_cif.got.tgz:5429.got - 2010.05.20 12:50:20.
