data_PCOD9568476
_publ_section_title
;
Structure prediction by ZEFSAII (Michael W. Deem and Ramdas Pophale) SiO2 
 PCOD9568476
Probable space group: P 42/N N M
;
_chemical_formula_sum "Si O2"
_cell_formula_units_Z 80
_cell_length_a 28.144652
_cell_length_b 28.144652
_cell_length_c 5.090942
_cell_angle_alpha 90.000000
_cell_angle_beta 90.000000
_cell_angle_gamma 90.000000
_cell_volume 4032.644289
_symmetry_space_group_name_H-M "P 42/N N M"
_symmetry_group_IT_number 134
_space_group.IT_coordinate_system_code '2'
_symmetry_cell_setting 'tetragonal'
loop_
_space_group_symop_operation_xyz
x,y,z
1/2-y,x,1/2+z
1/2-x,1/2-y,z
y,1/2-x,1/2+z
x,1/2-y,1/2-z
1/2-x,y,1/2-z
y,x,-z
1/2-y,1/2-x,-z
-x,-y,-z
1/2+y,-x,1/2-z
1/2+x,1/2+y,-z
-y,1/2+x,1/2-z
-x,1/2+y,1/2+z
1/2+x,-y,1/2+z
-y,-x,z
1/2+y,1/2+x,z
loop_
_atom_site_type_symbol
_atom_site_label
_atom_site_fract_x
_atom_site_fract_y
_atom_site_fract_z
Si Si1 0.152995 0.195880 0.766515
Si Si2 0.093213 0.520013 0.475206
Si Si3 0.432249 0.131783 0.812304
Si Si4 0.502565 0.717339 0.507536
Si Si5 0.360480 0.934073 0.974640
O O1 0.137662 0.250000 0.750000
O O2 0.176120 0.176120 0.500000
O O3 0.107534 0.163530 0.826958
O O4 0.190224 0.190224 0.000000
O O5 0.039972 0.539972 0.440600
O O6 0.104736 0.467042 0.386825
O O7 0.110071 0.533682 0.765913
O O8 0.124727 0.550592 0.268562
O O9 0.405616 0.094385 0.000000
O O10 0.462814 0.172071 0.966439
O O11 0.517259 0.750000 0.750000
O O12 0.450759 0.693549 0.559215
O O13 0.502237 0.750000 0.250000
O O14 0.381000 0.881000 0.932220
#
# Coordination Sequence:
#
# PCOD9568476 Si02
#       5
#    16  16  16  16  16
#     4  11  25  42  61  81 103 134 176 230 289 344
#     4   9  18  34  55  79 109 147 187 222 262 318
#     4  10  23  38  56  81 113 148 186 230 279 329
#     4  11  22  37  58  83 112 148 189 231 277 333
#     4   9  18  34  55  80 111 145 182 227 274 324
#
# _framework density 19.838100000000001
#
# number of rings (size 3 to 8) (size 9 to 14) (size 15 to 20)
#    0.000    2.000    0.000    3.600    0.000   14.400 
#    0.000    0.000    0.000   11.400    0.000    0.000 
#    0.000    2.400    0.000    0.000    0.000    0.000 
#
# Total GULP energy -446582.227836 kJ/mol
# GULP energy per Si atom -5582.277848 kJ/mol
# Density = 1.979295 g / cm^3
# Si number density = 19.838100 Si / 1000 Ang^3
#
#
#
# Elastic Constant Matrix: (Units=GPa)
#
#
# Indices 1 2 3 4 5 6 
#
# 1 65.5010 85.0705 30.2422 0.0000 0.0000 0.0000
# 2 85.0705 65.5040 30.2403 0.0000 0.0000 0.0000
# 3 30.2422 30.2403 69.4401 0.0000 0.0000 0.0000
# 4 0.0000 0.0000 0.0000 40.4680 0.0000 0.0000
# 5 0.0000 0.0000 0.0000 0.0000 40.4674 0.0000
# 6 0.0000 0.0000 0.0000 0.0000 0.0000 25.0104
#
#
#
# Elastic Compliance Matrix: (Units=1/GPa)
#
#
# Indices 1 2 3 4 5 6 
#
# 1 -0.021528 0.029577 -0.003504 0.000000 0.000000 0.000000
# 2 0.029577 -0.021526 -0.003507 0.000000 0.000000 0.000000
# 3 -0.003504 -0.003507 0.017454 0.000000 0.000000 0.000000
# 4 0.000000 0.000000 0.000000 0.024711 0.000000 0.000000
# 5 0.000000 0.000000 0.000000 0.000000 0.024711 0.000000
# 6 0.000000 0.000000 0.000000 0.000000 0.000000 0.039983
#
#
# Mechanical properties :
#
#
# Convention : Reuss Voigt Hill
#
# Bulk Modulus (GPa) = 51.20085 54.61679 52.90882
# Shear Modulus (GPa) = 198.53520 24.84865 111.69193
#
# Velocity S-wave (km/s) = 10.01474 3.54301 7.51159
# Velocity P-wave (km/s) = 12.63297 6.65795 10.09753
#
# Compressibility (1/GPa) = 0.01953093
#
# Stress axis : x y z
#
# Youngs Moduli (GPa) = -46.45083 -46.45494 57.29277
#
# Poissons Ratio (x) = 1.37398 0.20078
# Poissons Ratio (y) = 1.37386 0.20090
# Poissons Ratio (z) = -0.16278 -0.16290
#
# Static dielectric constant tensor:
#      x y z
#    x 1.675250 0.000000 0.000000 
#    y 0.000000 1.675250 0.000000 
#    z 0.000000 0.000000 1.675580 
# 
# From -- ./inp_files/1131.got.cif
#   From: 2010.05.17/outbox.cif.g08.bks.cpg/sg134_1_cif.got.tgz:1131.got - 2010.05.20 12:42:49.
