data_PCOD9568556
_publ_section_title
;
Structure prediction by ZEFSAII (Michael W. Deem and Ramdas Pophale) SiO2 
 PCOD9568556
Probable space group: P 42/N N M
;
_chemical_formula_sum "Si O2"
_cell_formula_units_Z 36
_cell_length_a 10.201850
_cell_length_b 10.201850
_cell_length_c 15.550647
_cell_angle_alpha 90.000000
_cell_angle_beta 90.000000
_cell_angle_gamma 90.000000
_cell_volume 1618.476249
_symmetry_space_group_name_H-M "P 42/N N M"
_symmetry_group_IT_number 134
_space_group.IT_coordinate_system_code '2'
_symmetry_cell_setting 'tetragonal'
loop_
_space_group_symop_operation_xyz
x,y,z
1/2-y,x,1/2+z
1/2-x,1/2-y,z
y,1/2-x,1/2+z
x,1/2-y,1/2-z
1/2-x,y,1/2-z
y,x,-z
1/2-y,1/2-x,-z
-x,-y,-z
1/2+y,-x,1/2-z
1/2+x,1/2+y,-z
-y,1/2+x,1/2-z
-x,1/2+y,1/2+z
1/2+x,-y,1/2+z
-y,-x,z
1/2+y,1/2+x,z
loop_
_atom_site_type_symbol
_atom_site_label
_atom_site_fract_x
_atom_site_fract_y
_atom_site_fract_z
Si Si1 0.539537 0.460464 0.787250
Si Si2 0.750000 0.250000 0.750000
Si Si3 0.250000 0.750000 0.750000
Si Si4 0.575022 0.424979 0.374098
Si Si5 0.393803 0.307539 0.087862
O O1 0.650602 0.349399 0.799394
O O2 0.516459 0.483542 0.685640
O O3 0.402400 0.424166 0.832636
O O4 0.159811 0.659811 0.807719
O O5 0.490610 0.315957 0.422745
O O6 0.250000 0.250000 0.101235
O O7 0.389586 0.389586 0.000000
#
# Coordination Sequence:
#
# PCOD9568556 Si02
#       5
#     8   2   2   8  16
#     4  12  23  43  64  97 131 179 235 292 352 436
#     4  12  28  36  62  92 136 172 214 300 368 416
#     4  12  20  40  70 100 116 180 232 302 332 412
#     4  12  22  43  71  98 133 181 250 287 348 440
#     4  11  25  42  67  99 138 181 227 297 368 430
#
# _framework density 22.243143
#
# number of rings (size 3 to 8) (size 9 to 14) (size 15 to 20)
#    0.000    0.444    4.444    3.333    0.000    7.111 
#    0.000    0.000    0.000    0.000    0.000    0.000 
#    0.000    0.000    0.000    0.000    0.000    0.000 
#
# Total GULP energy -201385.216519 kJ/mol
# GULP energy per Si atom -5594.033792 kJ/mol
# Density = 2.219252 g / cm^3
# Si number density = 22.243143 Si / 1000 Ang^3
#
#
#
# Elastic Constant Matrix: (Units=GPa)
#
#
# Indices 1 2 3 4 5 6 
#
# 1 112.1152 91.4261 25.6970 0.0000 0.0000 0.0000
# 2 91.4261 112.1152 25.6970 0.0000 0.0000 0.0000
# 3 25.6970 25.6970 69.3218 0.0000 0.0000 0.0000
# 4 0.0000 0.0000 0.0000 -61.7803 0.0000 0.0000
# 5 0.0000 0.0000 0.0000 0.0000 -61.7803 0.0000
# 6 0.0000 0.0000 0.0000 0.0000 0.0000 85.1379
#
#
#
# Elastic Compliance Matrix: (Units=1/GPa)
#
#
# Indices 1 2 3 4 5 6 
#
# 1 0.026878 -0.021457 -0.002009 0.000000 0.000000 0.000000
# 2 -0.021457 0.026878 -0.002009 0.000000 0.000000 0.000000
# 3 -0.002009 -0.002009 0.015915 0.000000 0.000000 0.000000
# 4 0.000000 0.000000 0.000000 -0.016186 0.000000 0.000000
# 5 0.000000 0.000000 0.000000 0.000000 -0.016186 0.000000
# 6 0.000000 0.000000 0.000000 0.000000 0.000000 0.011746
#
#
# Mechanical properties :
#
#
# Convention : Reuss Voigt Hill
#
# Bulk Modulus (GPa) = 53.42247 64.35470 58.88859
# Shear Modulus (GPa) = 47.06586 2.36426 24.71506
#
# Velocity S-wave (km/s) = 4.60496 1.03210 3.33698
# Velocity P-wave (km/s) = 7.23490 5.51502 6.43270
#
# Compressibility (1/GPa) = 0.01871871
#
# Stress axis : x y z
#
# Youngs Moduli (GPa) = 37.20579 37.20579 62.83329
#
# Poissons Ratio (x) = 0.79833 0.12625
# Poissons Ratio (y) = 0.79833 0.12625
# Poissons Ratio (z) = 0.07476 0.07476
#
# Static dielectric constant tensor:
#      x y z
#    x 1.828000 0.000000 0.000000 
#    y 0.000000 1.828000 0.000000 
#    z 0.000000 0.000000 1.848710 
# 
# From -- ./inp_files/5674.got.cif
#   From: 2010.05.17/outbox.cif.g08.bks.cpg/sg134_3_cif.got.tgz:5674.got - 2010.05.20 12:42:49.
