data_PCOD9568890
_publ_section_title
;
Structure prediction by ZEFSAII (Michael W. Deem and Ramdas Pophale) SiO2 
 PCOD9568890
Probable space group: P 42/M B C
;
_chemical_formula_sum "Si O2"
_cell_formula_units_Z 40
_cell_length_a 10.470236
_cell_length_b 10.470236
_cell_length_c 17.792203
_cell_angle_alpha 90.000000
_cell_angle_beta 90.000000
_cell_angle_gamma 90.000000
_cell_volume 1950.485233
_symmetry_space_group_name_H-M "P 42/M B C"
_symmetry_group_IT_number 135
_symmetry_cell_setting 'tetragonal'
loop_
_space_group_symop_operation_xyz
x,y,z
-y,x,1/2+z
-x,-y,z
y,-x,1/2+z
1/2+x,1/2-y,-z
1/2-x,1/2+y,-z
1/2+y,1/2+x,1/2-z
1/2-y,1/2-x,1/2-z
-x,-y,-z
y,-x,1/2-z
x,y,-z
-y,x,1/2-z
1/2-x,1/2+y,z
1/2+x,1/2-y,z
1/2-y,1/2-x,1/2+z
1/2+y,1/2+x,1/2+z
loop_
_atom_site_type_symbol
_atom_site_label
_atom_site_fract_x
_atom_site_fract_y
_atom_site_fract_z
Si Si1 0.500000 0.500000 0.651922
Si Si2 0.253023 0.631434 0.822835
Si Si3 0.744046 0.610435 0.913018
O O1 0.589163 0.601564 0.694882
O O2 0.584353 0.407079 0.599899
O O3 0.176345 0.676345 0.750000
O O4 0.196320 0.507183 0.865158
O O5 0.267824 0.751665 0.877951
O O6 0.778366 0.603489 0.000000
#
# Coordination Sequence:
#
# PCOD9568890 Si02
#       3
#     8  16  16
#     4   8  23  39  68  96 146 176 236 294 370 402
#     4  10  23  38  71 102 138 187 237 296 360 424
#     4  10  21  40  67  99 140 188 239 294 362 428
#
# _framework density 20.507718000000001
#
# number of rings (size 3 to 8) (size 9 to 14) (size 15 to 20)
#    2.400    0.000    0.000    1.800    5.600    1.600 
#    0.000    2.000    0.000    4.800    0.000    0.000 
#    0.000    0.000    0.000    0.000    0.000    0.000 
#
# Total GULP energy -222690.082326 kJ/mol
# GULP energy per Si atom -5567.252058 kJ/mol
# Density = 2.046104 g / cm^3
# Si number density = 20.507718 Si / 1000 Ang^3
#
#
#
# Elastic Constant Matrix: (Units=GPa)
#
#
# Indices 1 2 3 4 5 6 
#
# 1 140.2445 103.0696 149.8699 0.0000 0.0000 0.0000
# 2 103.0696 140.2445 149.8699 0.0000 0.0000 0.0000
# 3 149.8699 149.8699 341.7984 0.0000 0.0000 0.0000
# 4 0.0000 0.0000 0.0000 -6.5304 0.0000 0.0000
# 5 0.0000 0.0000 0.0000 0.0000 -6.5304 0.0000
# 6 0.0000 0.0000 0.0000 0.0000 0.0000 42.0664
#
#
#
# Elastic Compliance Matrix: (Units=1/GPa)
#
#
# Indices 1 2 3 4 5 6 
#
# 1 0.017919 -0.008981 -0.003919 0.000000 0.000000 0.000000
# 2 -0.008981 0.017919 -0.003919 0.000000 0.000000 0.000000
# 3 -0.003919 -0.003919 0.006362 0.000000 0.000000 0.000000
# 4 0.000000 0.000000 0.000000 -0.153131 0.000000 0.000000
# 5 0.000000 0.000000 0.000000 0.000000 -0.153131 0.000000
# 6 0.000000 0.000000 0.000000 0.000000 0.000000 0.023772
#
#
# Mechanical properties :
#
#
# Convention : Reuss Voigt Hill
#
# Bulk Modulus (GPa) = 116.79517 158.65625 137.72571
# Shear Modulus (GPa) = -24.53407 20.43299 -2.05054
#
# Velocity S-wave (km/s) = -3.46256 3.15994 -1.00103
# Velocity P-wave (km/s) = 6.41013 9.53130 8.12205
#
# Compressibility (1/GPa) = 0.00856200
#
# Stress axis : x y z
#
# Youngs Moduli (GPa) = 55.80731 55.80731 157.17293
#
# Poissons Ratio (x) = 0.50121 0.61595
# Poissons Ratio (y) = 0.50121 0.61595
# Poissons Ratio (z) = 0.21871 0.21871
#
# Static dielectric constant tensor:
#      x y z
#    x 1.754230 0.000000 0.000000 
#    y 0.000000 1.754230 0.000000 
#    z 0.000000 0.000000 1.763580 
# 
# From -- ./inp_files/4862.got.cif
#   From: 2010.05.17/outbox.cif.g08.bks.cpg/sg135_3_cif.got.tgz:4862.got - 2010.05.20 12:50:20.
