data_PCOD9568214
_publ_section_title
;
Structure prediction by ZEFSAII (Michael W. Deem and Ramdas Pophale) SiO2 
 PCOD9568214
Probable space group: P 42/N N M
;
_chemical_formula_sum "Si O2"
_cell_formula_units_Z 96
_cell_length_a 19.174297
_cell_length_b 19.174297
_cell_length_c 15.819866
_cell_angle_alpha 90.000000
_cell_angle_beta 90.000000
_cell_angle_gamma 90.000000
_cell_volume 5816.231722
_symmetry_space_group_name_H-M "P 42/N N M"
_symmetry_group_IT_number 134
_space_group.IT_coordinate_system_code '2'
_symmetry_cell_setting 'tetragonal'
loop_
_space_group_symop_operation_xyz
x,y,z
1/2-y,x,1/2+z
1/2-x,1/2-y,z
y,1/2-x,1/2+z
x,1/2-y,1/2-z
1/2-x,y,1/2-z
y,x,-z
1/2-y,1/2-x,-z
-x,-y,-z
1/2+y,-x,1/2-z
1/2+x,1/2+y,-z
-y,1/2+x,1/2-z
-x,1/2+y,1/2+z
1/2+x,-y,1/2+z
-y,-x,z
1/2+y,1/2+x,z
loop_
_atom_site_type_symbol
_atom_site_label
_atom_site_fract_x
_atom_site_fract_y
_atom_site_fract_z
Si Si1 0.917984 0.696859 0.494779
Si Si2 0.195037 0.922068 0.992625
Si Si3 0.701926 0.416954 0.333248
Si Si4 0.576926 0.792143 0.837928
Si Si5 0.332267 0.272212 0.653093
Si Si6 0.245712 0.634486 0.161421
O O1 0.870225 0.629776 0.500000
O O2 0.915605 0.741975 0.580888
O O3 0.884472 0.739189 0.415777
O O4 0.998226 0.674487 0.493106
O O5 0.129840 0.870161 0.984703
O O6 0.246191 0.910581 0.913177
O O7 0.237256 0.904507 0.076994
O O8 0.750000 0.406959 0.250000
O O9 0.639329 0.360672 0.335345
O O10 0.677592 0.498358 0.334841
O O11 0.585996 0.750000 0.750000
O O12 0.644178 0.840513 0.847478
O O13 0.250000 0.250000 0.634404
O O14 0.345118 0.250000 0.750000
O O15 0.250000 0.594210 0.250000
O O16 0.303981 0.696020 0.169008
O O17 0.171845 0.671845 0.153313
#
# Coordination Sequence:
#
# PCOD9568214 Si02
#       6
#    16  16  16  16  16  16
#     4  11  21  32  52  77 103 136 176 219 270 323
#     4  10  21  34  49  73 105 140 178 222 268 316
#     4  10  21  35  55  81 109 144 186 228 272 321
#     4  10  19  34  53  81 112 135 173 229 277 320
#     4  11  19  33  58  83 104 133 174 223 270 322
#     4   8  14  27  48  69  89 120 163 207 249 294
#
# _framework density 16.505531000000001
#
# number of rings (size 3 to 8) (size 9 to 14) (size 15 to 20)
#    0.000    2.000    3.333    2.000    0.000    2.833 
#    0.000    0.000    0.000   12.000    0.000    0.000 
#    0.000    0.000    0.000    0.000    0.000    0.000 
#
# Total GULP energy -534449.417732 kJ/mol
# GULP energy per Si atom -5567.181435 kJ/mol
# Density = 1.646796 g / cm^3
# Si number density = 16.505531 Si / 1000 Ang^3
#
#
#
# Elastic Constant Matrix: (Units=GPa)
#
#
# Indices 1 2 3 4 5 6 
#
# 1 104.6226 69.3126 51.2262 0.0000 0.0000 0.0000
# 2 69.3126 104.6227 51.2252 0.0000 0.0000 0.0000
# 3 51.2262 51.2252 136.6697 0.0000 0.0000 0.0000
# 4 0.0000 0.0000 0.0000 18.1458 0.0000 0.0000
# 5 0.0000 0.0000 0.0000 0.0000 18.1440 0.0000
# 6 0.0000 0.0000 0.0000 0.0000 0.0000 15.3227
#
#
#
# Elastic Compliance Matrix: (Units=1/GPa)
#
#
# Indices 1 2 3 4 5 6 
#
# 1 0.017849 -0.010471 -0.002766 0.000000 0.000000 0.000000
# 2 -0.010471 0.017849 -0.002765 0.000000 0.000000 0.000000
# 3 -0.002766 -0.002765 0.009390 0.000000 0.000000 0.000000
# 4 0.000000 0.000000 0.000000 0.055109 0.000000 0.000000
# 5 0.000000 0.000000 0.000000 0.000000 0.055115 0.000000
# 6 0.000000 0.000000 0.000000 0.000000 0.000000 0.065263
#
#
# Mechanical properties :
#
#
# Convention : Reuss Voigt Hill
#
# Bulk Modulus (GPa) = 76.42610 76.60478 76.51544
# Shear Modulus (GPa) = 19.45973 21.93256 20.69614
#
# Velocity S-wave (km/s) = 3.43736 3.64923 3.54487
# Velocity P-wave (km/s) = 7.88402 8.01674 7.95066
#
# Compressibility (1/GPa) = 0.01308454
#
# Stress axis : x y z
#
# Youngs Moduli (GPa) = 56.02417 56.02474 106.49665
#
# Poissons Ratio (x) = 0.58665 0.29453
# Poissons Ratio (y) = 0.58664 0.29450
# Poissons Ratio (z) = 0.15494 0.15493
#
# Static dielectric constant tensor:
#      x y z
#    x 1.541620 0.000000 0.000000 
#    y 0.000000 1.541630 0.000000 
#    z 0.000000 0.000000 1.597400 
# 
# From -- ./inp_files/7929.got.cif
#   From: 2010.05.17/outbox.cif.g08.bks.cpg/sg134_4_cif.got.tgz:7929.got - 2010.05.20 12:42:49.
