data_PCOD9568834
_publ_section_title
;
Structure prediction by ZEFSAII (Michael W. Deem and Ramdas Pophale) SiO2 
 PCOD9568834
Probable space group: P 42/M B C
;
_chemical_formula_sum "Si O2"
_cell_formula_units_Z 112
_cell_length_a 14.794269
_cell_length_b 14.794269
_cell_length_c 22.976251
_cell_angle_alpha 90.000000
_cell_angle_beta 90.000000
_cell_angle_gamma 90.000000
_cell_volume 5028.821138
_symmetry_space_group_name_H-M "P 42/M B C"
_symmetry_group_IT_number 135
_symmetry_cell_setting 'tetragonal'
loop_
_space_group_symop_operation_xyz
x,y,z
-y,x,1/2+z
-x,-y,z
y,-x,1/2+z
1/2+x,1/2-y,-z
1/2-x,1/2+y,-z
1/2+y,1/2+x,1/2-z
1/2-y,1/2-x,1/2-z
-x,-y,-z
y,-x,1/2-z
x,y,-z
-y,x,1/2-z
1/2-x,1/2+y,z
1/2+x,1/2-y,z
1/2-y,1/2-x,1/2+z
1/2+y,1/2+x,1/2+z
loop_
_atom_site_type_symbol
_atom_site_label
_atom_site_fract_x
_atom_site_fract_y
_atom_site_fract_z
Si Si1 0.180815 0.311927 0.639067
Si Si2 0.265188 0.463618 0.564650
Si Si3 0.365224 0.633069 0.598275
Si Si4 0.093888 0.487698 0.810203
Si Si5 0.570597 0.620843 0.769111
Si Si6 0.162420 0.062896 0.063561
Si Si7 0.762933 0.369185 0.821283
O O1 0.211989 0.407388 0.612923
O O2 0.162592 0.236875 0.590146
O O3 0.085231 0.332318 0.668970
O O4 0.263129 0.264487 0.674512
O O5 0.226174 0.452282 0.500000
O O6 0.286104 0.567398 0.577658
O O7 0.364047 0.417320 0.565286
O O8 0.380147 0.611368 0.666778
O O9 0.462812 0.622522 0.569713
O O10 0.059201 0.440800 0.750000
O O11 0.138752 0.587118 0.812129
O O12 0.000000 0.500000 0.845165
O O13 0.607975 0.537172 0.730954
O O14 0.593711 0.709550 0.734164
O O15 0.225101 0.087808 0.118411
O O16 0.207590 0.071379 0.000000
#
# Coordination Sequence:
#
# PCOD9568834 Si02
#       7
#    16  16  16  16  16  16  16
#     4  11  26  43  71  97 139 184 243 290 353 434
#     4  10  24  42  65  98 136 177 231 298 358 420
#     4  12  23  38  65 100 128 182 231 288 357 428
#     4  11  27  48  70 102 148 192 234 294 361 436
#     4  11  22  35  62 100 139 166 218 289 355 421
#     4  10  20  41  67  95 133 173 224 291 355 416
#     4  11  24  45  65 102 135 184 236 290 348 425
#
# _framework density 22.271621
#
# number of rings (size 3 to 8) (size 9 to 14) (size 15 to 20)
#    0.000    1.143    2.857    2.571   10.000    3.429 
#    0.000    0.000    0.000    0.857    0.000    0.000 
#    0.000    0.000    0.000    0.000    0.000    0.000 
#
# Total GULP energy -625217.541093 kJ/mol
# GULP energy per Si atom -5582.299474 kJ/mol
# Density = 2.222093 g / cm^3
# Si number density = 22.271621 Si / 1000 Ang^3
#
#
#
# Elastic Constant Matrix: (Units=GPa)
#
#
# Indices 1 2 3 4 5 6 
#
# 1 77.5644 9.7321 2.6361 0.0000 0.0000 0.0000
# 2 9.7321 77.5647 2.6362 0.0000 0.0000 0.0000
# 3 2.6361 2.6362 76.3906 0.0000 0.0000 0.0000
# 4 0.0000 0.0000 0.0000 3.5702 0.0000 0.0000
# 5 0.0000 0.0000 0.0000 0.0000 3.5703 0.0000
# 6 0.0000 0.0000 0.0000 0.0000 0.0000 25.3139
#
#
#
# Elastic Compliance Matrix: (Units=1/GPa)
#
#
# Indices 1 2 3 4 5 6 
#
# 1 0.013111 -0.001632 -0.000396 0.000000 0.000000 0.000000
# 2 -0.001632 0.013111 -0.000396 0.000000 0.000000 0.000000
# 3 -0.000396 -0.000396 0.013118 0.000000 0.000000 0.000000
# 4 0.000000 0.000000 0.000000 0.280094 0.000000 0.000000
# 5 0.000000 0.000000 0.000000 0.000000 0.280089 0.000000
# 6 0.000000 0.000000 0.000000 0.000000 0.000000 0.039504
#
#
# Mechanical properties :
#
#
# Convention : Reuss Voigt Hill
#
# Bulk Modulus (GPa) = 28.99252 29.05873 29.02563
# Shear Modulus (GPa) = 7.62927 20.92523 14.27725
#
# Velocity S-wave (km/s) = 1.85283 3.06853 2.53465
# Velocity P-wave (km/s) = 4.19801 5.06263 4.65046
#
# Compressibility (1/GPa) = 0.03449166
#
# Stress axis : x y z
#
# Youngs Moduli (GPa) = 76.27360 76.27393 76.23143
#
# Poissons Ratio (x) = 0.12444 0.03020
# Poissons Ratio (y) = 0.12444 0.03020
# Poissons Ratio (z) = 0.03021 0.03022
#
# Static dielectric constant tensor:
#      x y z
#    x 1.866410 0.000000 0.000000 
#    y 0.000000 1.866410 0.000000 
#    z 0.000000 0.000000 1.852650 
# 
# From -- ./inp_files/6132.got.cif
#   From: 2010.05.17/outbox.cif.g08.bks.cpg/sg135_4_cif.got.tgz:6132.got - 2010.05.20 12:50:20.
