data_PCOD9568713
_publ_section_title
;
Structure prediction by ZEFSAII (Michael W. Deem and Ramdas Pophale) SiO2 
 PCOD9568713
Probable space group: P 42/M B C
;
_chemical_formula_sum "Si O2"
_cell_formula_units_Z 112
_cell_length_a 12.039536
_cell_length_b 12.039536
_cell_length_c 27.886246
_cell_angle_alpha 90.000000
_cell_angle_beta 90.000000
_cell_angle_gamma 90.000000
_cell_volume 4042.123268
_symmetry_space_group_name_H-M "P 42/M B C"
_symmetry_group_IT_number 135
_symmetry_cell_setting 'tetragonal'
loop_
_space_group_symop_operation_xyz
x,y,z
-y,x,1/2+z
-x,-y,z
y,-x,1/2+z
1/2+x,1/2-y,-z
1/2-x,1/2+y,-z
1/2+y,1/2+x,1/2-z
1/2-y,1/2-x,1/2-z
-x,-y,-z
y,-x,1/2-z
x,y,-z
-y,x,1/2-z
1/2-x,1/2+y,z
1/2+x,1/2-y,z
1/2-y,1/2-x,1/2+z
1/2+y,1/2+x,1/2+z
loop_
_atom_site_type_symbol
_atom_site_label
_atom_site_fract_x
_atom_site_fract_y
_atom_site_fract_z
Si Si1 0.153402 0.506241 0.788111
Si Si2 0.100922 0.921051 0.808522
Si Si3 0.259327 0.665331 0.858890
Si Si4 0.282828 0.956342 0.670484
Si Si5 0.124155 0.159741 0.409484
Si Si6 0.797396 0.499824 0.555179
Si Si7 0.559732 0.782010 0.448554
O O1 0.091532 0.591532 0.750000
O O2 0.280181 0.453336 0.783992
O O3 0.171078 0.582977 0.835171
O O4 0.102697 0.418891 0.696455
O O5 0.057317 0.792530 0.808440
O O6 0.114632 0.947380 0.865365
O O7 0.000000 0.000000 0.794452
O O8 0.353968 0.697347 0.822532
O O9 0.209605 0.778536 0.877539
O O10 0.294677 0.617189 0.909789
O O11 0.301157 0.959277 0.611971
O O12 0.180357 0.068106 0.442759
O O13 0.068353 0.259326 0.438656
O O14 0.805039 0.549323 0.500000
O O15 0.896073 0.406505 0.555731
O O16 0.591751 0.740694 0.500000
#
# Coordination Sequence:
#
# PCOD9568713 Si02
#       7
#    16  16  16  16  16  16  16
#     4  12  27  52  90 134 175 237 319 397 479 578
#     4  11  21  45  89 132 178 236 297 382 481 572
#     4  11  21  44  77 118 176 231 296 376 467 548
#     4  11  23  46  89 128 182 246 296 384 482 563
#     4  10  19  38  74 110 172 234 294 359 451 551
#     4   9  21  38  68 120 173 229 302 363 441 555
#     4  10  19  36  69 117 172 231 297 361 441 553
#
# _framework density 27.708209
#
# number of rings (size 3 to 8) (size 9 to 14) (size 15 to 20)
#    0.000    1.429    4.286    0.429    0.000    1.143 
#    0.000   15.000    3.143   27.000    0.000    0.000 
#    0.000    0.000    0.000    0.000    0.000    0.714 
#
# Total GULP energy -624212.505480 kJ/mol
# GULP energy per Si atom -5573.325942 kJ/mol
# Density = 2.764514 g / cm^3
# Si number density = 27.708209 Si / 1000 Ang^3
#
#
#
# Elastic Constant Matrix: (Units=GPa)
#
#
# Indices 1 2 3 4 5 6 
#
# 1 136.5315 79.3991 77.2160 0.0000 0.0000 0.0000
# 2 79.3991 136.5315 77.2160 0.0000 0.0000 0.0000
# 3 77.2160 77.2160 193.5846 0.0000 0.0000 0.0000
# 4 0.0000 0.0000 0.0000 28.0865 0.0000 0.0000
# 5 0.0000 0.0000 0.0000 0.0000 28.0865 0.0000
# 6 0.0000 0.0000 0.0000 0.0000 0.0000 48.8866
#
#
#
# Elastic Compliance Matrix: (Units=1/GPa)
#
#
# Indices 1 2 3 4 5 6 
#
# 1 0.011991 -0.005512 -0.002585 0.000000 0.000000 0.000000
# 2 -0.005512 0.011991 -0.002585 0.000000 0.000000 0.000000
# 3 -0.002585 -0.002585 0.007228 0.000000 0.000000 0.000000
# 4 0.000000 0.000000 0.000000 0.035604 0.000000 0.000000
# 5 0.000000 0.000000 0.000000 0.000000 0.035604 0.000000
# 6 0.000000 0.000000 0.000000 0.000000 0.000000 0.020455
#
#
# Mechanical properties :
#
#
# Convention : Reuss Voigt Hill
#
# Bulk Modulus (GPa) = 101.53835 103.81219 102.67527
# Shear Modulus (GPa) = 33.89392 36.53300 35.21346
#
# Velocity S-wave (km/s) = 3.50129 3.63504 3.56879
# Velocity P-wave (km/s) = 7.28495 7.42735 7.35650
#
# Compressibility (1/GPa) = 0.00984850
#
# Stress axis : x y z
#
# Youngs Moduli (GPa) = 83.39314 83.39314 138.36025
#
# Poissons Ratio (x) = 0.45965 0.35760
# Poissons Ratio (y) = 0.45965 0.35760
# Poissons Ratio (z) = 0.21553 0.21553
#
# Static dielectric constant tensor:
#      x y z
#    x 2.378100 0.000000 0.000000 
#    y 0.000000 2.378100 0.000000 
#    z 0.000000 0.000000 2.226920 
# 
# From -- ./inp_files/6496.got.cif
#   From: 2010.05.17/outbox.cif.g08.bks.cpg/sg135_4_cif.got.tgz:6496.got - 2010.05.20 12:50:20.
