data_PCOD9568686
_publ_section_title
;
Structure prediction by ZEFSAII (Michael W. Deem and Ramdas Pophale) SiO2 
 PCOD9568686
Probable space group: P 42/M B C
;
_chemical_formula_sum "Si O2"
_cell_formula_units_Z 72
_cell_length_a 21.168602
_cell_length_b 21.168602
_cell_length_c 8.962375
_cell_angle_alpha 90.000000
_cell_angle_beta 90.000000
_cell_angle_gamma 90.000000
_cell_volume 4016.127268
_symmetry_space_group_name_H-M "P 42/M B C"
_symmetry_group_IT_number 135
_symmetry_cell_setting 'tetragonal'
loop_
_space_group_symop_operation_xyz
x,y,z
-y,x,1/2+z
-x,-y,z
y,-x,1/2+z
1/2+x,1/2-y,-z
1/2-x,1/2+y,-z
1/2+y,1/2+x,1/2-z
1/2-y,1/2-x,1/2-z
-x,-y,-z
y,-x,1/2-z
x,y,-z
-y,x,1/2-z
1/2-x,1/2+y,z
1/2+x,1/2-y,z
1/2-y,1/2-x,1/2+z
1/2+y,1/2+x,1/2+z
loop_
_atom_site_type_symbol
_atom_site_label
_atom_site_fract_x
_atom_site_fract_y
_atom_site_fract_z
Si Si1 0.741941 0.045101 0.819827
Si Si2 0.741142 0.404731 0.170829
Si Si3 0.677141 0.276332 0.818481
Si Si4 0.976252 0.610529 0.833539
Si Si5 0.384089 0.115912 0.750000
O O1 0.771846 0.105826 0.741508
O O2 0.669245 0.044554 0.767802
O O3 0.767363 0.975847 0.767761
O O4 0.746199 0.048918 0.000000
O O5 0.706194 0.343592 0.234849
O O6 0.815948 0.389211 0.173626
O O7 0.720082 0.408786 0.000000
O O8 0.720220 0.220220 0.750000
O O9 0.679226 0.272437 0.000000
O O10 0.950397 0.549604 0.750000
O O11 0.051788 0.611979 0.843622
O O12 0.949545 0.615567 0.000000
#
# Coordination Sequence:
#
# PCOD9568686 Si02
#       5
#    16  16  16  16   8
#     4  10  21  38  56  78 109 144 182 228 278 328
#     4   9  19  35  55  78 108 141 176 224 276 325
#     4  11  21  36  58  85 112 143 183 228 277 331
#     4  11  22  34  51  74 106 147 188 225 268 321
#     4  10  19  34  52  76 106 140 180 225 270 322
#
# _framework density 17.927717999999999
#
# number of rings (size 3 to 8) (size 9 to 14) (size 15 to 20)
#    0.000    1.778    1.111    3.667    0.000    3.556 
#    0.000    3.333    0.000    0.667    0.000    4.667 
#    0.000    0.000    0.000    0.000    0.000    0.000 
#
# Total GULP energy -401162.783567 kJ/mol
# GULP energy per Si atom -5571.705327 kJ/mol
# Density = 1.788691 g / cm^3
# Si number density = 17.927718 Si / 1000 Ang^3
#
#
#
# Elastic Constant Matrix: (Units=GPa)
#
#
# Indices 1 2 3 4 5 6 
#
# 1 114.8883 67.9774 24.4763 0.0000 0.0000 0.0000
# 2 67.9774 114.8893 24.4772 0.0000 0.0000 0.0000
# 3 24.4763 24.4772 74.5215 0.0000 0.0000 0.0000
# 4 0.0000 0.0000 0.0000 -14.0369 0.0000 0.0000
# 5 0.0000 0.0000 0.0000 0.0000 -13.9872 0.0000
# 6 0.0000 0.0000 0.0000 0.0000 0.0000 35.2110
#
#
#
# Elastic Compliance Matrix: (Units=1/GPa)
#
#
# Indices 1 2 3 4 5 6 
#
# 1 0.013656 -0.007661 -0.001969 0.000000 0.000000 0.000000
# 2 -0.007661 0.013656 -0.001969 0.000000 0.000000 0.000000
# 3 -0.001969 -0.001969 0.014713 0.000000 0.000000 0.000000
# 4 0.000000 0.000000 0.000000 -0.071241 0.000000 0.000000
# 5 0.000000 0.000000 0.000000 0.000000 -0.071494 0.000000
# 6 0.000000 0.000000 0.000000 0.000000 0.000000 0.028400
#
#
# Mechanical properties :
#
#
# Convention : Reuss Voigt Hill
#
# Bulk Modulus (GPa) = 53.11594 59.79568 56.45581
# Shear Modulus (GPa) = -116.72512 13.92860 -51.39826
#
# Velocity S-wave (km/s) = -8.07775 2.79037 -5.36022
# Velocity P-wave (km/s) = 7.57020 6.61874 2.59810
#
# Compressibility (1/GPa) = 0.01882674
#
# Stress axis : x y z
#
# Youngs Moduli (GPa) = 73.22653 73.22676 67.96906
#
# Poissons Ratio (x) = 0.56096 0.13384
# Poissons Ratio (y) = 0.56096 0.13386
# Poissons Ratio (z) = 0.14420 0.14421
#
# Static dielectric constant tensor:
#      x y z
#    x 1.627190 0.000000 0.000000 
#    y 0.000000 1.627190 0.000000 
#    z 0.000000 0.000000 1.621770 
# 
# From -- ./inp_files/1019.got.cif
#   From: 2010.05.17/outbox.cif.g08.bks.cpg/sg135_1_cif.got.tgz:1019.got - 2010.05.20 12:50:20.
