data_PCOD9568190
_publ_section_title
;
Structure prediction by ZEFSAII (Michael W. Deem and Ramdas Pophale) SiO2 
 PCOD9568190
Probable space group: P 42/N N M
;
_chemical_formula_sum "Si O2"
_cell_formula_units_Z 64
_cell_length_a 15.715360
_cell_length_b 15.715360
_cell_length_c 12.903789
_cell_angle_alpha 90.000000
_cell_angle_beta 90.000000
_cell_angle_gamma 90.000000
_cell_volume 3186.881544
_symmetry_space_group_name_H-M "P 42/N N M"
_symmetry_group_IT_number 134
_space_group.IT_coordinate_system_code '2'
_symmetry_cell_setting 'tetragonal'
loop_
_space_group_symop_operation_xyz
x,y,z
1/2-y,x,1/2+z
1/2-x,1/2-y,z
y,1/2-x,1/2+z
x,1/2-y,1/2-z
1/2-x,y,1/2-z
y,x,-z
1/2-y,1/2-x,-z
-x,-y,-z
1/2+y,-x,1/2-z
1/2+x,1/2+y,-z
-y,1/2+x,1/2-z
-x,1/2+y,1/2+z
1/2+x,-y,1/2+z
-y,-x,z
1/2+y,1/2+x,z
loop_
_atom_site_type_symbol
_atom_site_label
_atom_site_fract_x
_atom_site_fract_y
_atom_site_fract_z
Si Si1 0.959512 0.824125 0.009621
Si Si2 0.345859 0.517071 0.785865
Si Si3 0.004126 0.632579 0.038662
Si Si4 0.153301 0.440708 0.260242
O O1 0.971156 0.723352 0.001280
O O2 0.984093 0.851316 0.126428
O O3 0.864618 0.864618 0.000000
O O4 0.011532 0.855407 0.910600
O O5 0.250000 0.536305 0.750000
O O6 0.414243 0.585758 0.746584
O O7 0.371826 0.421734 0.751299
O O8 0.001802 0.639395 0.163171
O O9 0.096105 0.596105 0.006239
O O10 0.936084 0.563917 0.000000
O O11 0.250000 0.405710 0.250000
#
# Coordination Sequence:
#
# PCOD9568190 Si02
#       4
#    16  16  16  16
#     4   9  20  36  54  80 111 147 191 237 291 351
#     4  11  23  38  57  82 115 155 197 239 285 342
#     4  10  19  32  54  83 114 148 188 237 293 353
#     4   9  19  36  58  85 113 144 185 239 301 357
#
# _framework density 20.082328
#
# number of rings (size 3 to 8) (size 9 to 14) (size 15 to 20)
#    0.000    2.250    0.000    2.250    0.000    9.750 
#    0.000    7.500    0.000    0.000    0.000    0.000 
#    0.000    6.500    0.000    0.000    0.000    0.000 
#
# Total GULP energy -356376.086477 kJ/mol
# GULP energy per Si atom -5568.376351 kJ/mol
# Density = 2.003662 g / cm^3
# Si number density = 20.082328 Si / 1000 Ang^3
#
#
#
# Elastic Constant Matrix: (Units=GPa)
#
#
# Indices 1 2 3 4 5 6 
#
# 1 116.3328 101.6761 17.5230 0.0000 0.0000 0.0000
# 2 101.6761 116.3393 17.5393 0.0000 0.0000 0.0000
# 3 17.5230 17.5393 106.8521 0.0000 0.0000 0.0000
# 4 0.0000 0.0000 0.0000 9.5881 0.0000 0.0000
# 5 0.0000 0.0000 0.0000 0.0000 9.5880 0.0000
# 6 0.0000 0.0000 0.0000 0.0000 0.0000 17.4096
#
#
#
# Elastic Compliance Matrix: (Units=1/GPa)
#
#
# Indices 1 2 3 4 5 6 
#
# 1 0.036462 -0.031751 -0.000768 0.000000 0.000000 0.000000
# 2 -0.031751 0.036462 -0.000778 0.000000 0.000000 0.000000
# 3 -0.000768 -0.000778 0.009612 0.000000 0.000000 0.000000
# 4 0.000000 0.000000 0.000000 0.104295 0.000000 0.000000
# 5 0.000000 0.000000 0.000000 0.000000 0.104297 0.000000
# 6 0.000000 0.000000 0.000000 0.000000 0.000000 0.057440
#
#
# Mechanical properties :
#
#
# Convention : Reuss Voigt Hill
#
# Bulk Modulus (GPa) = 62.72372 68.11124 65.41748
# Shear Modulus (GPa) = 11.89127 20.83620 16.36374
#
# Velocity S-wave (km/s) = 2.43600 3.22458 2.85762
# Velocity P-wave (km/s) = 6.26205 6.91762 6.59798
#
# Compressibility (1/GPa) = 0.01594293
#
# Stress axis : x y z
#
# Youngs Moduli (GPa) = 27.42561 27.42589 104.03263
#
# Poissons Ratio (x) = 0.87080 0.07988
# Poissons Ratio (y) = 0.87079 0.08095
# Poissons Ratio (z) = 0.02106 0.02134
#
# Static dielectric constant tensor:
#      x y z
#    x 1.697320 0.000000 0.000000 
#    y 0.000000 1.697320 0.000000 
#    z 0.000000 0.000000 1.796330 
# 
# From -- ./inp_files/6099.got.cif
#   From: 2010.05.17/outbox.cif.g08.bks.cpg/sg134_4_cif.got.tgz:6099.got - 2010.05.20 12:42:49.
