data_PCOD9568299
_publ_section_title
;
Structure prediction by ZEFSAII (Michael W. Deem and Ramdas Pophale) SiO2 
 PCOD9568299
Probable space group: P 42/N N M
;
_chemical_formula_sum "Si O2"
_cell_formula_units_Z 64
_cell_length_a 11.527752
_cell_length_b 11.527752
_cell_length_c 21.295271
_cell_angle_alpha 90.000000
_cell_angle_beta 90.000000
_cell_angle_gamma 90.000000
_cell_volume 2829.908677
_symmetry_space_group_name_H-M "P 42/N N M"
_symmetry_group_IT_number 134
_space_group.IT_coordinate_system_code '2'
_symmetry_cell_setting 'tetragonal'
loop_
_space_group_symop_operation_xyz
x,y,z
1/2-y,x,1/2+z
1/2-x,1/2-y,z
y,1/2-x,1/2+z
x,1/2-y,1/2-z
1/2-x,y,1/2-z
y,x,-z
1/2-y,1/2-x,-z
-x,-y,-z
1/2+y,-x,1/2-z
1/2+x,1/2+y,-z
-y,1/2+x,1/2-z
-x,1/2+y,1/2+z
1/2+x,-y,1/2+z
-y,-x,z
1/2+y,1/2+x,z
loop_
_atom_site_type_symbol
_atom_site_label
_atom_site_fract_x
_atom_site_fract_y
_atom_site_fract_z
Si Si1 0.850264 0.531079 0.864063
Si Si2 0.600958 0.583565 0.909751
Si Si3 0.012608 0.329124 0.046105
Si Si4 0.933277 0.884782 0.760384
O O1 0.737900 0.557375 0.906080
O O2 0.945373 0.624020 0.886430
O O3 0.847364 0.552059 0.789452
O O4 0.904397 0.404397 0.876004
O O5 0.528839 0.471162 0.929017
O O6 0.550503 0.694035 0.948658
O O7 0.582720 0.599467 0.834738
O O8 0.881728 0.381728 0.036189
O O9 0.094761 0.405240 0.000000
O O10 0.923548 0.750000 0.750000
O O11 0.057380 0.942621 0.746088
#
# Coordination Sequence:
#
# PCOD9568299 Si02
#       4
#    16  16  16  16
#     4  10  21  38  59  86 125 169 210 252 308 380
#     4  11  23  37  61  94 124 161 210 265 322 382
#     4  10  22  41  63  87 118 159 205 258 323 388
#     4  10  20  34  56  91 129 166 206 256 321 387
#
# _framework density 22.615570999999999
#
# number of rings (size 3 to 8) (size 9 to 14) (size 15 to 20)
#    0.000    1.750    2.500    1.500    0.000    4.250 
#    0.000    5.000    0.000    9.000    0.000    0.000 
#    0.000    0.000    0.000    0.000    0.000    0.000 
#
# Total GULP energy -356312.573730 kJ/mol
# GULP energy per Si atom -5567.383965 kJ/mol
# Density = 2.256410 g / cm^3
# Si number density = 22.615571 Si / 1000 Ang^3
#
#
#
# Elastic Constant Matrix: (Units=GPa)
#
#
# Indices 1 2 3 4 5 6 
#
# 1 176.7495 24.4692 12.9961 0.0000 0.0000 0.0000
# 2 24.4692 176.7500 12.9979 0.0000 0.0000 0.0000
# 3 12.9961 12.9979 94.7662 0.0000 0.0000 0.0000
# 4 0.0000 0.0000 0.0000 23.2221 0.0000 0.0000
# 5 0.0000 0.0000 0.0000 0.0000 23.2219 0.0000
# 6 0.0000 0.0000 0.0000 0.0000 0.0000 15.1425
#
#
#
# Elastic Compliance Matrix: (Units=1/GPa)
#
#
# Indices 1 2 3 4 5 6 
#
# 1 0.005813 -0.000754 -0.000694 0.000000 0.000000 0.000000
# 2 -0.000754 0.005813 -0.000694 0.000000 0.000000 0.000000
# 3 -0.000694 -0.000694 0.010743 0.000000 0.000000 0.000000
# 4 0.000000 0.000000 0.000000 0.043062 0.000000 0.000000
# 5 0.000000 0.000000 0.000000 0.000000 0.043063 0.000000
# 6 0.000000 0.000000 0.000000 0.000000 0.000000 0.066039
#
#
# Mechanical properties :
#
#
# Convention : Reuss Voigt Hill
#
# Bulk Modulus (GPa) = 55.29199 61.02132 58.15666
# Shear Modulus (GPa) = 27.04972 38.83747 32.94359
#
# Velocity S-wave (km/s) = 3.46217 4.14851 3.82079
# Velocity P-wave (km/s) = 6.36269 7.07018 6.72575
#
# Compressibility (1/GPa) = 0.01808580
#
# Stress axis : x y z
#
# Youngs Moduli (GPa) = 172.02561 172.02562 93.08717
#
# Poissons Ratio (x) = 0.12966 0.06459
# Poissons Ratio (y) = 0.12966 0.06460
# Poissons Ratio (z) = 0.11935 0.11938
#
# Static dielectric constant tensor:
#      x y z
#    x 1.869410 0.000000 0.000000 
#    y 0.000000 1.869410 0.000000 
#    z 0.000000 0.000000 1.972000 
# 
# From -- ./inp_files/8695.got.cif
#   From: 2010.05.17/outbox.cif.g08.bks.cpg/sg134_5_cif.got.tgz:8695.got - 2010.05.20 12:42:49.
