data_PCOD9568549
_publ_section_title
;
Structure prediction by ZEFSAII (Michael W. Deem and Ramdas Pophale) SiO2 
 PCOD9568549
Probable space group: P 42/N N M
;
_chemical_formula_sum "Si O2"
_cell_formula_units_Z 34
_cell_length_a 13.656586
_cell_length_b 13.656586
_cell_length_c 8.169291
_cell_angle_alpha 90.000000
_cell_angle_beta 90.000000
_cell_angle_gamma 90.000000
_cell_volume 1523.591897
_symmetry_space_group_name_H-M "P 42/N N M"
_symmetry_group_IT_number 134
_space_group.IT_coordinate_system_code '2'
_symmetry_cell_setting 'tetragonal'
loop_
_space_group_symop_operation_xyz
x,y,z
1/2-y,x,1/2+z
1/2-x,1/2-y,z
y,1/2-x,1/2+z
x,1/2-y,1/2-z
1/2-x,y,1/2-z
y,x,-z
1/2-y,1/2-x,-z
-x,-y,-z
1/2+y,-x,1/2-z
1/2+x,1/2+y,-z
-y,1/2+x,1/2-z
-x,1/2+y,1/2+z
1/2+x,-y,1/2+z
-y,-x,z
1/2+y,1/2+x,z
loop_
_atom_site_type_symbol
_atom_site_label
_atom_site_fract_x
_atom_site_fract_y
_atom_site_fract_z
Si Si1 0.250000 0.750000 0.750000
Si Si2 0.250000 0.032828 0.250000
Si Si3 0.419486 0.919486 0.053394
Si Si4 0.391165 0.391165 0.000000
Si Si5 0.100621 0.600621 0.675788
O O1 0.181589 0.681589 0.631669
O O2 0.198410 0.101481 0.119661
O O3 0.333158 0.967581 0.160909
O O4 0.389359 0.889359 0.871119
O O5 0.500000 0.000000 0.000000
O O6 0.491584 0.382359 0.106459
#
# Coordination Sequence:
#
# PCOD9568549 Si02
#       5
#     2   8   8   8   8
#     4  12  24  40  80 106 140 192 248 326 396 456
#     4  12  26  47  83 110 160 210 268 330 410 474
#     4  12  24  50  78 115 156 206 261 348 389 489
#     4  11  24  46  75 110 156 210 262 328 398 497
#     4  11  23  46  75 113 154 192 257 337 406 462
#
# _framework density 22.315688000000002
#
# number of rings (size 3 to 8) (size 9 to 14) (size 15 to 20)
#    0.000    0.471    4.706    4.235    0.000    2.353 
#    0.000    3.529    0.000    0.000    0.000    0.000 
#    0.000    0.000    0.000    0.000    0.000    0.000 
#
# Total GULP energy -189996.329851 kJ/mol
# GULP energy per Si atom -5588.127349 kJ/mol
# Density = 2.226490 g / cm^3
# Si number density = 22.315688 Si / 1000 Ang^3
#
#
#
# Elastic Constant Matrix: (Units=GPa)
#
#
# Indices 1 2 3 4 5 6 
#
# 1 142.9329 97.3347 73.1723 0.0000 0.0000 0.0000
# 2 97.3347 142.9329 73.1723 0.0000 0.0000 0.0000
# 3 73.1723 73.1723 160.7033 0.0000 0.0000 0.0000
# 4 0.0000 0.0000 0.0000 46.7943 0.0000 0.0000
# 5 0.0000 0.0000 0.0000 0.0000 46.7943 0.0000
# 6 0.0000 0.0000 0.0000 0.0000 0.0000 58.6791
#
#
#
# Elastic Compliance Matrix: (Units=1/GPa)
#
#
# Indices 1 2 3 4 5 6 
#
# 1 0.013845 -0.008086 -0.002622 0.000000 0.000000 0.000000
# 2 -0.008086 0.013845 -0.002622 0.000000 0.000000 0.000000
# 3 -0.002622 -0.002622 0.008611 0.000000 0.000000 0.000000
# 4 0.000000 0.000000 0.000000 0.021370 0.000000 0.000000
# 5 0.000000 0.000000 0.000000 0.000000 0.021370 0.000000
# 6 0.000000 0.000000 0.000000 0.000000 0.000000 0.017042
#
#
# Mechanical properties :
#
#
# Convention : Reuss Voigt Hill
#
# Bulk Modulus (GPa) = 103.73603 103.76978 103.75291
# Shear Modulus (GPa) = 39.69615 43.97954 41.83784
#
# Velocity S-wave (km/s) = 4.22221 4.44417 4.33461
# Velocity P-wave (km/s) = 8.38785 8.54026 8.46440
#
# Compressibility (1/GPa) = 0.00963985
#
# Stress axis : x y z
#
# Youngs Moduli (GPa) = 72.22833 72.22833 116.13476
#
# Poissons Ratio (x) = 0.58402 0.30455
# Poissons Ratio (y) = 0.58402 0.30455
# Poissons Ratio (z) = 0.18941 0.18941
#
# Static dielectric constant tensor:
#      x y z
#    x 1.969140 0.000000 0.000000 
#    y 0.000000 1.969140 0.000000 
#    z 0.000000 0.000000 1.889650 
# 
# From -- ./inp_files/1689.got.cif
#   From: 2010.05.17/outbox.cif.g08.bks.cpg/sg134_1_cif.got.tgz:1689.got - 2010.05.20 12:42:49.
