data_PCOD9568624
_publ_section_title
;
Structure prediction by ZEFSAII (Michael W. Deem and Ramdas Pophale) SiO2 
 PCOD9568624
Probable space group: P 42/M B C
;
_chemical_formula_sum "Si O2"
_cell_formula_units_Z 128
_cell_length_a 22.080275
_cell_length_b 22.080275
_cell_length_c 17.048227
_cell_angle_alpha 90.000000
_cell_angle_beta 90.000000
_cell_angle_gamma 90.000000
_cell_volume 8311.667771
_symmetry_space_group_name_H-M "P 42/M B C"
_symmetry_group_IT_number 135
_symmetry_cell_setting 'tetragonal'
loop_
_space_group_symop_operation_xyz
x,y,z
-y,x,1/2+z
-x,-y,z
y,-x,1/2+z
1/2+x,1/2-y,-z
1/2-x,1/2+y,-z
1/2+y,1/2+x,1/2-z
1/2-y,1/2-x,1/2-z
-x,-y,-z
y,-x,1/2-z
x,y,-z
-y,x,1/2-z
1/2-x,1/2+y,z
1/2+x,1/2-y,z
1/2-y,1/2-x,1/2+z
1/2+y,1/2+x,1/2+z
loop_
_atom_site_type_symbol
_atom_site_label
_atom_site_fract_x
_atom_site_fract_y
_atom_site_fract_z
Si Si1 0.856497 0.257292 0.225103
Si Si2 0.767317 0.574578 0.913454
Si Si3 0.922458 0.586950 0.589954
Si Si4 0.947487 0.700278 0.825488
Si Si5 0.212837 0.533431 0.175984
Si Si6 0.742252 0.656162 0.235498
Si Si7 0.946348 0.423978 0.658005
Si Si8 0.186138 0.561933 0.590701
O O1 0.810767 0.310767 0.250000
O O2 0.911363 0.252110 0.286222
O O3 0.818202 0.195845 0.228591
O O4 0.888209 0.280855 0.145044
O O5 0.840432 0.572499 0.915029
O O6 0.751463 0.506439 0.886664
O O7 0.749055 0.621431 0.846777
O O8 0.745029 0.589856 0.000000
O O9 0.912953 0.564739 0.500000
O O10 0.865185 0.576468 0.646662
O O11 0.986370 0.562815 0.624210
O O12 0.894108 0.746899 0.803658
O O13 0.986617 0.694915 0.745766
O O14 0.997309 0.717511 0.890372
O O15 0.148655 0.558670 0.147552
O O16 0.796592 0.703409 0.250000
O O17 0.941271 0.441271 0.750000
O O18 0.884803 0.446998 0.616480
O O19 0.188493 0.577446 0.500000
#
# Coordination Sequence:
#
# PCOD9568624 Si02
#       8
#    16  16  16  16  16  16  16  16
#     4  10  18  34  50  70  93 124 166 206 238 287
#     4   9  18  30  48  70  94 124 157 200 244 280
#     4  10  20  31  44  65  95 127 169 212 240 276
#     4  10  19  33  48  66  91 129 165 202 245 282
#     4   9  17  32  49  65  92 124 162 203 240 277
#     4  10  19  31  53  70  92 125 165 204 243 285
#     4  11  18  32  44  64  93 130 174 207 236 272
#     4  11  21  33  49  68  97 131 161 203 248 281
#
# _framework density 15.400038
#
# number of rings (size 3 to 8) (size 9 to 14) (size 15 to 20)
#    0.000    2.000    5.000    0.750    0.000    1.500 
#    2.250    1.250    0.000    1.500    0.000    0.000 
#    0.000   40.500    0.000   20.250    0.000    0.000 
#
# Total GULP energy -712896.555028 kJ/mol
# GULP energy per Si atom -5569.504336 kJ/mol
# Density = 1.536499 g / cm^3
# Si number density = 15.400038 Si / 1000 Ang^3
#
#
#
# Elastic Constant Matrix: (Units=GPa)
#
#
# Indices 1 2 3 4 5 6 
#
# 1 74.6503 48.7050 43.8047 0.0000 0.0000 0.0000
# 2 48.7050 74.6507 43.8044 0.0000 0.0000 0.0000
# 3 43.8047 43.8044 85.5320 0.0000 0.0000 0.0000
# 4 0.0000 0.0000 0.0000 8.9710 0.0000 0.0000
# 5 0.0000 0.0000 0.0000 0.0000 8.9711 0.0000
# 6 0.0000 0.0000 0.0000 0.0000 0.0000 25.9154
#
#
#
# Elastic Compliance Matrix: (Units=1/GPa)
#
#
# Indices 1 2 3 4 5 6 
#
# 1 0.025642 -0.012901 -0.006525 0.000000 0.000000 0.000000
# 2 -0.012901 0.025641 -0.006525 0.000000 0.000000 0.000000
# 3 -0.006525 -0.006525 0.018375 0.000000 0.000000 0.000000
# 4 0.000000 0.000000 0.000000 0.111471 0.000000 0.000000
# 5 0.000000 0.000000 0.000000 0.000000 0.111469 0.000000
# 6 0.000000 0.000000 0.000000 0.000000 0.000000 0.038587
#
#
# Mechanical properties :
#
#
# Convention : Reuss Voigt Hill
#
# Bulk Modulus (GPa) = 56.31787 56.38456 56.35121
# Shear Modulus (GPa) = 12.85328 15.33943 14.09635
#
# Velocity S-wave (km/s) = 2.89212 3.15947 3.02875
# Velocity P-wave (km/s) = 6.91389 7.07124 6.99301
#
# Compressibility (1/GPa) = 0.01775635
#
# Stress axis : x y z
#
# Youngs Moduli (GPa) = 38.99889 38.99939 54.42136
#
# Poissons Ratio (x) = 0.50312 0.35512
# Poissons Ratio (y) = 0.50311 0.35510
# Poissons Ratio (z) = 0.25448 0.25447
#
# Static dielectric constant tensor:
#      x y z
#    x 1.517830 0.000000 0.000000 
#    y 0.000000 1.517830 0.000000 
#    z 0.000000 0.000000 1.554750 
# 
# From -- ./inp_files/4761.got.cif
#   From: 2010.05.17/outbox.cif.g08.bks.cpg/sg135_3_cif.got.tgz:4761.got - 2010.05.20 12:50:20.
