data_PCOD9568880
_publ_section_title
;
Structure prediction by ZEFSAII (Michael W. Deem and Ramdas Pophale) SiO2 
 PCOD9568880
Probable space group: P 42/M B C
;
_chemical_formula_sum "Si O2"
_cell_formula_units_Z 112
_cell_length_a 14.120200
_cell_length_b 14.120200
_cell_length_c 25.660816
_cell_angle_alpha 90.000000
_cell_angle_beta 90.000000
_cell_angle_gamma 90.000000
_cell_volume 5116.254727
_symmetry_space_group_name_H-M "P 42/M B C"
_symmetry_group_IT_number 135
_symmetry_cell_setting 'tetragonal'
loop_
_space_group_symop_operation_xyz
x,y,z
-y,x,1/2+z
-x,-y,z
y,-x,1/2+z
1/2+x,1/2-y,-z
1/2-x,1/2+y,-z
1/2+y,1/2+x,1/2-z
1/2-y,1/2-x,1/2-z
-x,-y,-z
y,-x,1/2-z
x,y,-z
-y,x,1/2-z
1/2-x,1/2+y,z
1/2+x,1/2-y,z
1/2-y,1/2-x,1/2+z
1/2+y,1/2+x,1/2+z
loop_
_atom_site_type_symbol
_atom_site_label
_atom_site_fract_x
_atom_site_fract_y
_atom_site_fract_z
Si Si1 0.867555 0.615807 0.190297
Si Si2 0.833585 0.454890 0.381429
Si Si3 0.503250 0.831634 0.403105
Si Si4 0.461340 0.352421 0.938817
Si Si5 0.370700 0.340293 0.392077
Si Si6 0.227553 0.709762 0.190724
Si Si7 0.745952 0.179185 0.940477
O O1 0.896936 0.603065 0.250000
O O2 0.836275 0.523759 0.158379
O O3 0.778665 0.687567 0.188994
O O4 0.957317 0.653821 0.157448
O O5 0.927640 0.419016 0.409749
O O6 0.757761 0.476709 0.425552
O O7 0.801177 0.363742 0.346574
O O8 0.555921 0.734180 0.415654
O O9 0.405730 0.827641 0.433448
O O10 0.551802 0.394735 0.907214
O O11 0.349992 0.360558 0.922570
O O12 0.470801 0.375760 0.000000
O O13 0.359230 0.310998 0.331222
O O14 0.270026 0.301757 0.414004
O O15 0.195681 0.695681 0.250000
O O16 0.762021 0.205338 0.000000
#
# Coordination Sequence:
#
# PCOD9568880 Si02
#       7
#    16  16  16  16  16  16  16
#     4  11  23  39  63  98 134 167 217 267 321 396
#     4  11  22  39  66  97 134 163 218 268 330 391
#     4  11  23  40  62  93 129 164 208 269 329 382
#     4  11  22  40  66  93 127 176 219 268 328 392
#     4  11  22  41  62  92 131 167 218 270 328 391
#     4  10  21  39  64  92 131 176 212 265 330 389
#     4  11  23  42  64  91 129 169 219 273 326 395
#
# _framework density 21.891013000000001
#
# number of rings (size 3 to 8) (size 9 to 14) (size 15 to 20)
#    0.000    1.143    5.714    0.857    4.000    2.857 
#    0.000    1.429    0.000    3.429    0.000    0.000 
#    0.000    0.000    0.000    0.000    0.000    0.000 
#
# Total GULP energy -624472.088109 kJ/mol
# GULP energy per Si atom -5575.643644 kJ/mol
# Density = 2.184119 g / cm^3
# Si number density = 21.891013 Si / 1000 Ang^3
#
#
#
# Elastic Constant Matrix: (Units=GPa)
#
#
# Indices 1 2 3 4 5 6 
#
# 1 86.5686 11.8809 0.1509 0.0000 0.0000 0.0000
# 2 11.8809 86.5689 0.1509 0.0000 0.0000 0.0000
# 3 0.1509 0.1509 46.8436 0.0000 0.0000 0.0000
# 4 0.0000 0.0000 0.0000 -10.0202 0.0000 0.0000
# 5 0.0000 0.0000 0.0000 0.0000 -10.0199 0.0000
# 6 0.0000 0.0000 0.0000 0.0000 0.0000 38.7784
#
#
#
# Elastic Compliance Matrix: (Units=1/GPa)
#
#
# Indices 1 2 3 4 5 6 
#
# 1 0.011773 -0.001616 -0.000033 0.000000 0.000000 0.000000
# 2 -0.001616 0.011773 -0.000033 0.000000 0.000000 0.000000
# 3 -0.000033 -0.000033 0.021348 0.000000 0.000000 0.000000
# 4 0.000000 0.000000 0.000000 -0.099798 0.000000 0.000000
# 5 0.000000 0.000000 0.000000 0.000000 -0.099801 0.000000
# 6 0.000000 0.000000 0.000000 0.000000 0.000000 0.025788
#
#
# Mechanical properties :
#
#
# Convention : Reuss Voigt Hill
#
# Bulk Modulus (GPa) = 24.07776 27.14962 25.61369
# Shear Modulus (GPa) = -44.75836 17.60088 -13.57874
#
# Velocity S-wave (km/s) = -4.52663 2.83861 -2.49326
# Velocity P-wave (km/s) = 4.03704 4.81380 1.85405
#
# Compressibility (1/GPa) = 0.04153210
#
# Stress axis : x y z
#
# Youngs Moduli (GPa) = 84.93772 84.93797 46.84315
#
# Poissons Ratio (x) = 0.13724 0.00153
# Poissons Ratio (y) = 0.13724 0.00153
# Poissons Ratio (z) = 0.00278 0.00278
#
# Static dielectric constant tensor:
#      x y z
#    x 1.849430 0.000000 0.000000 
#    y 0.000000 1.849430 0.000000 
#    z 0.000000 0.000000 1.839750 
# 
# From -- ./inp_files/6528.got.cif
#   From: 2010.05.17/outbox.cif.g08.bks.cpg/sg135_4_cif.got.tgz:6528.got - 2010.05.20 12:50:20.
