data_PCOD9568664
_publ_section_title
;
Structure prediction by ZEFSAII (Michael W. Deem and Ramdas Pophale) SiO2 
 PCOD9568664
Probable space group: P 42/M B C
;
_chemical_formula_sum "Si O2"
_cell_formula_units_Z 96
_cell_length_a 18.155348
_cell_length_b 18.155348
_cell_length_c 11.359806
_cell_angle_alpha 90.000000
_cell_angle_beta 90.000000
_cell_angle_gamma 90.000000
_cell_volume 3744.381323
_symmetry_space_group_name_H-M "P 42/M B C"
_symmetry_group_IT_number 135
_symmetry_cell_setting 'tetragonal'
loop_
_space_group_symop_operation_xyz
x,y,z
-y,x,1/2+z
-x,-y,z
y,-x,1/2+z
1/2+x,1/2-y,-z
1/2-x,1/2+y,-z
1/2+y,1/2+x,1/2-z
1/2-y,1/2-x,1/2-z
-x,-y,-z
y,-x,1/2-z
x,y,-z
-y,x,1/2-z
1/2-x,1/2+y,z
1/2+x,1/2-y,z
1/2-y,1/2-x,1/2+z
1/2+y,1/2+x,1/2+z
loop_
_atom_site_type_symbol
_atom_site_label
_atom_site_fract_x
_atom_site_fract_y
_atom_site_fract_z
Si Si1 0.731421 0.063370 0.368802
Si Si2 0.021631 0.914039 0.622655
Si Si3 0.709145 0.830719 0.867749
Si Si4 0.307872 0.580005 0.288961
Si Si5 0.889713 0.794367 0.374978
Si Si6 0.547079 0.899839 0.129500
O O1 0.739880 0.097034 0.500000
O O2 0.784971 0.992054 0.358418
O O3 0.651396 0.024750 0.362564
O O4 0.749683 0.106586 0.247875
O O5 0.064703 0.907950 0.500000
O O6 0.070136 0.887486 0.729316
O O7 0.959987 0.849706 0.618008
O O8 0.000000 0.000000 0.627516
O O9 0.718682 0.781319 0.750000
O O10 0.753480 0.902887 0.820589
O O11 0.621884 0.849624 0.872668
O O12 0.733203 0.811707 0.000000
O O13 0.320906 0.649624 0.371727
O O14 0.888561 0.751924 0.500000
O O15 0.555489 0.944512 0.250000
O O16 0.548347 0.936390 0.000000
#
# Coordination Sequence:
#
# PCOD9568664 Si02
#       6
#    16  16  16  16  16  16
#     4  10  20  34  51  68  92 124 163 210 266 323
#     4   9  20  34  46  62  87 124 171 220 265 307
#     4  10  19  32  51  76  98 120 155 210 279 343
#     4  11  20  32  51  70  94 125 169 223 277 325
#     4  10  23  35  47  64  89 126 167 211 261 309
#     4   9  16  29  48  72  93 116 145 197 265 326
#
# _framework density 25.638414999999998
#
# number of rings (size 3 to 8) (size 9 to 14) (size 15 to 20)
#    0.000    2.167    3.333    1.000    4.667    3.333 
#    0.000    0.000    0.000    2.000    0.000    0.000 
#    0.000    0.000    0.000    0.000    0.000    0.833 
#
# Total GULP energy -535076.217632 kJ/mol
# GULP energy per Si atom -5573.710600 kJ/mol
# Density = 2.558006 g / cm^3
# Si number density = 25.638415 Si / 1000 Ang^3
#
#
#
# Elastic Constant Matrix: (Units=GPa)
#
#
# Indices 1 2 3 4 5 6 
#
# 1 33.1894 28.2235 29.5912 0.0000 0.0000 0.0000
# 2 28.2235 33.1903 29.5913 0.0000 0.0000 0.0000
# 3 29.5912 29.5913 289.3735 0.0000 0.0000 0.0000
# 4 0.0000 0.0000 0.0000 19.0797 0.0000 0.0000
# 5 0.0000 0.0000 0.0000 0.0000 19.0802 0.0000
# 6 0.0000 0.0000 0.0000 0.0000 0.0000 37.8939
#
#
#
# Elastic Compliance Matrix: (Units=1/GPa)
#
#
# Indices 1 2 3 4 5 6 
#
# 1 0.109711 -0.091646 -0.001847 0.000000 0.000000 0.000000
# 2 -0.091646 0.109708 -0.001847 0.000000 0.000000 0.000000
# 3 -0.001847 -0.001847 0.003834 0.000000 0.000000 0.000000
# 4 0.000000 0.000000 0.000000 0.052412 0.000000 0.000000
# 5 0.000000 0.000000 0.000000 0.000000 0.052410 0.000000
# 6 0.000000 0.000000 0.000000 0.000000 0.000000 0.026389
#
#
# Mechanical properties :
#
#
# Convention : Reuss Voigt Hill
#
# Bulk Modulus (GPa) = 30.70193 58.95171 44.82682
# Shear Modulus (GPa) = 8.99277 33.10057 21.04667
#
# Velocity S-wave (km/s) = 1.87487 3.59702 2.86825
# Velocity P-wave (km/s) = 4.08508 6.34782 5.33773
#
# Compressibility (1/GPa) = 0.03257124
#
# Stress axis : x y z
#
# Youngs Moduli (GPa) = 9.11486 9.11512 260.85711
#
# Poissons Ratio (x) = 0.83537 0.48187
# Poissons Ratio (y) = 0.83534 0.48181
# Poissons Ratio (z) = 0.01684 0.01684
#
# Static dielectric constant tensor:
#      x y z
#    x 2.088080 0.000000 0.000000 
#    y 0.000000 2.088080 0.000000 
#    z 0.000000 0.000000 2.083030 
# 
# From -- ./inp_files/2555.got.cif
#   From: 2010.05.17/outbox.cif.g08.bks.cpg/sg135_2_cif.got.tgz:2555.got - 2010.05.20 12:50:20.
