data_PCOD9568984
_publ_section_title
;
Structure prediction by ZEFSAII (Michael W. Deem and Ramdas Pophale) SiO2 
 PCOD9568984
Probable space group: P 42/M B C
;
_chemical_formula_sum "Si O2"
_cell_formula_units_Z 60
_cell_length_a 14.050861
_cell_length_b 14.050861
_cell_length_c 13.278733
_cell_angle_alpha 90.000000
_cell_angle_beta 90.000000
_cell_angle_gamma 90.000000
_cell_volume 2621.576368
_symmetry_space_group_name_H-M "P 42/M B C"
_symmetry_group_IT_number 135
_symmetry_cell_setting 'tetragonal'
loop_
_space_group_symop_operation_xyz
x,y,z
-y,x,1/2+z
-x,-y,z
y,-x,1/2+z
1/2+x,1/2-y,-z
1/2-x,1/2+y,-z
1/2+y,1/2+x,1/2-z
1/2-y,1/2-x,1/2-z
-x,-y,-z
y,-x,1/2-z
x,y,-z
-y,x,1/2-z
1/2-x,1/2+y,z
1/2+x,1/2-y,z
1/2-y,1/2-x,1/2+z
1/2+y,1/2+x,1/2+z
loop_
_atom_site_type_symbol
_atom_site_label
_atom_site_fract_x
_atom_site_fract_y
_atom_site_fract_z
Si Si1 0.627525 0.104207 0.381351
Si Si2 0.255842 0.755842 0.750000
Si Si3 0.500000 0.000000 0.750000
Si Si4 0.048758 0.103350 0.610293
Si Si5 0.043261 0.774838 0.213261
O O1 0.620926 0.104281 0.500000
O O2 0.682344 0.197968 0.341044
O O3 0.524338 0.085103 0.329788
O O4 0.690805 0.016190 0.338578
O O5 0.143636 0.762257 0.730580
O O6 0.026524 0.144810 0.500000
O O7 0.158201 0.076158 0.621899
O O8 0.019488 0.167869 0.705044
O O9 0.000000 0.000000 0.618705
#
# Coordination Sequence:
#
# PCOD9568984 Si02
#       5
#    16   8   4  16  16
#     4  11  24  44  69  96 133 177 222 277 333 391
#     4  11  25  41  66  95 133 169 222 272 324 403
#     4  10  24  48  64  94 134 178 226 272 324 400
#     4  11  21  37  64  94 128 167 205 261 333 388
#     4  12  21  43  63  96 130 167 218 274 323 400
#
# _framework density 22.886993
#
# number of rings (size 3 to 8) (size 9 to 14) (size 15 to 20)
#    0.000    0.800    5.333    2.000    0.000    5.333 
#    0.000    4.000    0.000    0.000    0.000    0.000 
#    0.000    0.000    0.000    0.000    0.000    0.000 
#
# Total GULP energy -334372.374435 kJ/mol
# GULP energy per Si atom -5572.872907 kJ/mol
# Density = 2.283490 g / cm^3
# Si number density = 22.886993 Si / 1000 Ang^3
#
#
#
# Elastic Constant Matrix: (Units=GPa)
#
#
# Indices 1 2 3 4 5 6 
#
# 1 80.3491 37.3560 22.6513 0.0000 0.0000 0.0000
# 2 37.3560 80.3491 22.6513 0.0000 0.0000 0.0000
# 3 22.6513 22.6513 201.4916 0.0000 0.0000 0.0000
# 4 0.0000 0.0000 0.0000 23.3131 0.0000 0.0000
# 5 0.0000 0.0000 0.0000 0.0000 23.3131 0.0000
# 6 0.0000 0.0000 0.0000 0.0000 0.0000 33.0257
#
#
#
# Elastic Compliance Matrix: (Units=1/GPa)
#
#
# Indices 1 2 3 4 5 6 
#
# 1 0.016070 -0.007190 -0.000998 0.000000 0.000000 0.000000
# 2 -0.007190 0.016070 -0.000998 0.000000 0.000000 0.000000
# 3 -0.000998 -0.000998 0.005187 0.000000 0.000000 0.000000
# 4 0.000000 0.000000 0.000000 0.042894 0.000000 0.000000
# 5 0.000000 0.000000 0.000000 0.000000 0.042894 0.000000
# 6 0.000000 0.000000 0.000000 0.000000 0.000000 0.030279
#
#
# Mechanical properties :
#
#
# Convention : Reuss Voigt Hill
#
# Bulk Modulus (GPa) = 52.75822 58.61187 55.68505
# Shear Modulus (GPa) = 28.07634 34.56580 31.32107
#
# Velocity S-wave (km/s) = 3.50628 3.89045 3.70335
# Velocity P-wave (km/s) = 6.28440 6.77094 6.53220
#
# Compressibility (1/GPa) = 0.01895439
#
# Stress axis : x y z
#
# Youngs Moduli (GPa) = 62.22863 62.22863 192.77353
#
# Poissons Ratio (x) = 0.44741 0.19244
# Poissons Ratio (y) = 0.44741 0.19244
# Poissons Ratio (z) = 0.06212 0.06212
#
# Static dielectric constant tensor:
#      x y z
#    x 1.965820 0.000000 0.000000 
#    y 0.000000 1.965820 0.000000 
#    z 0.000000 0.000000 1.810130 
# 
# From -- ./inp_files/3226.got.cif
#   From: 2010.05.17/outbox.cif.g08.bks.cpg/sg135_2_cif.got.tgz:3226.got - 2010.05.20 12:50:20.
