data_PCOD9568986
_publ_section_title
;
Structure prediction by ZEFSAII (Michael W. Deem and Ramdas Pophale) SiO2 
 PCOD9568986
Probable space group: P 42/M B C
;
_chemical_formula_sum "Si O2"
_cell_formula_units_Z 36
_cell_length_a 9.883806
_cell_length_b 9.883806
_cell_length_c 18.124463
_cell_angle_alpha 90.000000
_cell_angle_beta 90.000000
_cell_angle_gamma 90.000000
_cell_volume 1770.571922
_symmetry_space_group_name_H-M "P 42/M B C"
_symmetry_group_IT_number 135
_symmetry_cell_setting 'tetragonal'
loop_
_space_group_symop_operation_xyz
x,y,z
-y,x,1/2+z
-x,-y,z
y,-x,1/2+z
1/2+x,1/2-y,-z
1/2-x,1/2+y,-z
1/2+y,1/2+x,1/2-z
1/2-y,1/2-x,1/2-z
-x,-y,-z
y,-x,1/2-z
x,y,-z
-y,x,1/2-z
1/2-x,1/2+y,z
1/2+x,1/2-y,z
1/2-y,1/2-x,1/2+z
1/2+y,1/2+x,1/2+z
loop_
_atom_site_type_symbol
_atom_site_label
_atom_site_fract_x
_atom_site_fract_y
_atom_site_fract_z
Si Si1 0.827366 0.688505 0.829510
Si Si2 0.500000 0.000000 0.250000
Si Si3 0.158177 0.036329 0.085122
O O1 0.768228 0.731773 0.750000
O O2 0.974100 0.627295 0.804513
O O3 0.743510 0.566351 0.864893
O O4 0.829543 0.812587 0.884234
O O5 0.202714 0.027229 0.000000
O O6 0.000000 0.000000 0.088971
#
# Coordination Sequence:
#
# PCOD9568986 Si02
#       3
#    16   4  16
#     4  10  25  41  71 100 133 185 230 293 345 429
#     4   8  24  40  66 100 126 174 242 284 348 416
#     4  11  26  45  68 101 141 183 233 294 361 427
#
# _framework density 20.332412000000001
#
# number of rings (size 3 to 8) (size 9 to 14) (size 15 to 20)
#    1.333    0.444    0.000    1.333   15.556    0.000 
#    0.000    2.222    0.000    0.000    0.000    0.000 
#    0.000    0.000    0.000    0.000    0.000    0.000 
#
# Total GULP energy -200674.995231 kJ/mol
# GULP energy per Si atom -5574.305423 kJ/mol
# Density = 2.028613 g / cm^3
# Si number density = 20.332412 Si / 1000 Ang^3
#
#
#
# Elastic Constant Matrix: (Units=GPa)
#
#
# Indices 1 2 3 4 5 6 
#
# 1 99.8705 48.6316 54.7318 0.0000 0.0000 0.0000
# 2 48.6316 99.8702 54.7315 0.0000 0.0000 0.0000
# 3 54.7318 54.7315 150.2409 0.0000 0.0000 0.0000
# 4 0.0000 0.0000 0.0000 37.3717 0.0000 0.0000
# 5 0.0000 0.0000 0.0000 0.0000 37.3721 0.0000
# 6 0.0000 0.0000 0.0000 0.0000 0.0000 41.9339
#
#
#
# Elastic Compliance Matrix: (Units=1/GPa)
#
#
# Indices 1 2 3 4 5 6 
#
# 1 0.014361 -0.005155 -0.003354 0.000000 0.000000 0.000000
# 2 -0.005155 0.014361 -0.003354 0.000000 0.000000 0.000000
# 3 -0.003354 -0.003354 0.009099 0.000000 0.000000 0.000000
# 4 0.000000 0.000000 0.000000 0.026758 0.000000 0.000000
# 5 0.000000 0.000000 0.000000 0.000000 0.026758 0.000000
# 6 0.000000 0.000000 0.000000 0.000000 0.000000 0.023847
#
#
# Mechanical properties :
#
#
# Convention : Reuss Voigt Hill
#
# Bulk Modulus (GPa) = 70.93872 74.01904 72.47888
# Shear Modulus (GPa) = 34.81673 36.12798 35.47236
#
# Velocity S-wave (km/s) = 4.14258 4.21986 4.18140
# Velocity P-wave (km/s) = 7.60569 7.76057 7.68352
#
# Compressibility (1/GPa) = 0.01409667
#
# Stress axis : x y z
#
# Youngs Moduli (GPa) = 69.63203 69.63192 109.89728
#
# Poissons Ratio (x) = 0.35897 0.36856
# Poissons Ratio (y) = 0.35897 0.36856
# Poissons Ratio (z) = 0.23352 0.23352
#
# Static dielectric constant tensor:
#      x y z
#    x 1.731890 0.000000 0.000000 
#    y 0.000000 1.731890 0.000000 
#    z 0.000000 0.000000 1.725700 
# 
# From -- ./inp_files/3869.got.cif
#   From: 2010.05.17/outbox.cif.g08.bks.cpg/sg135_2_cif.got.tgz:3869.got - 2010.05.20 12:50:20.
