data_PCOD9568321
_publ_section_title
;
Structure prediction by ZEFSAII (Michael W. Deem and Ramdas Pophale) SiO2 
 PCOD9568321
Probable space group: P 42/N N M
;
_chemical_formula_sum "Si O2"
_cell_formula_units_Z 96
_cell_length_a 22.508201
_cell_length_b 22.508201
_cell_length_c 11.754270
_cell_angle_alpha 90.000000
_cell_angle_beta 90.000000
_cell_angle_gamma 90.000000
_cell_volume 5954.937833
_symmetry_space_group_name_H-M "P 42/N N M"
_symmetry_group_IT_number 134
_space_group.IT_coordinate_system_code '2'
_symmetry_cell_setting 'tetragonal'
loop_
_space_group_symop_operation_xyz
x,y,z
1/2-y,x,1/2+z
1/2-x,1/2-y,z
y,1/2-x,1/2+z
x,1/2-y,1/2-z
1/2-x,y,1/2-z
y,x,-z
1/2-y,1/2-x,-z
-x,-y,-z
1/2+y,-x,1/2-z
1/2+x,1/2+y,-z
-y,1/2+x,1/2-z
-x,1/2+y,1/2+z
1/2+x,-y,1/2+z
-y,-x,z
1/2+y,1/2+x,z
loop_
_atom_site_type_symbol
_atom_site_label
_atom_site_fract_x
_atom_site_fract_y
_atom_site_fract_z
Si Si1 0.750000 0.987609 0.250000
Si Si2 0.403684 0.425329 0.259192
Si Si3 0.195332 0.339707 0.334899
Si Si4 0.505243 0.595096 0.049192
Si Si5 0.387689 0.250902 0.061895
Si Si6 0.613431 0.613431 0.500000
Si Si7 0.470479 0.627961 0.810590
O O1 0.738022 0.943606 0.356521
O O2 0.690400 0.026547 0.245749
O O3 0.360882 0.371032 0.223573
O O4 0.383932 0.478597 0.175584
O O5 0.397238 0.430254 0.394225
O O6 0.471902 0.409196 0.231612
O O7 0.250000 0.335826 0.250000
O O8 0.215096 0.381200 0.441531
O O9 0.171489 0.275880 0.376583
O O10 0.458396 0.541605 0.060166
O O11 0.566395 0.566395 0.000000
O O12 0.480220 0.635489 0.947537
O O13 0.390764 0.181282 0.040191
O O14 0.412320 0.587681 0.793712
#
# Coordination Sequence:
#
# PCOD9568321 Si02
#       7
#     8  16  16  16  16   8  16
#     4  12  20  38  59  75 112 136 174 218 276 324
#     4  11  19  34  49  71 101 135 176 226 265 310
#     4  11  22  36  50  66  97 142 193 229 263 292
#     4   8  16  31  53  75  93 122 170 218 256 302
#     4  11  23  36  47  70  98 143 184 226 261 309
#     4  12  22  35  43  66 106 140 180 214 265 319
#     4  10  20  35  59  82  99 130 174 220 268 321
#
# _framework density 16.121075000000001
#
# number of rings (size 3 to 8) (size 9 to 14) (size 15 to 20)
#    0.000    1.500    5.000    2.500    4.667    1.333 
#    3.000    1.667    0.000    0.250    0.000    0.000 
#    0.000    0.000    0.000    0.000    0.000    0.500 
#
# Total GULP energy -535121.755927 kJ/mol
# GULP energy per Si atom -5574.184958 kJ/mol
# Density = 1.608438 g / cm^3
# Si number density = 16.121075 Si / 1000 Ang^3
#
#
#
# Elastic Constant Matrix: (Units=GPa)
#
#
# Indices 1 2 3 4 5 6 
#
# 1 55.1217 35.8662 31.0445 0.0000 0.0000 0.0000
# 2 35.8662 55.1217 31.0445 0.0000 0.0000 0.0000
# 3 31.0445 31.0445 114.6079 0.0000 0.0000 0.0000
# 4 0.0000 0.0000 0.0000 17.5141 0.0000 0.0000
# 5 0.0000 0.0000 0.0000 0.0000 17.5141 0.0000
# 6 0.0000 0.0000 0.0000 0.0000 0.0000 16.8852
#
#
#
# Elastic Compliance Matrix: (Units=1/GPa)
#
#
# Indices 1 2 3 4 5 6 
#
# 1 0.032708 -0.019225 -0.003652 0.000000 0.000000 0.000000
# 2 -0.019225 0.032708 -0.003652 0.000000 0.000000 0.000000
# 3 -0.003652 -0.003652 0.010704 0.000000 0.000000 0.000000
# 4 0.000000 0.000000 0.000000 0.057097 0.000000 0.000000
# 5 0.000000 0.000000 0.000000 0.000000 0.057097 0.000000
# 6 0.000000 0.000000 0.000000 0.000000 0.000000 0.059224
#
#
# Mechanical properties :
#
#
# Convention : Reuss Voigt Hill
#
# Bulk Modulus (GPa) = 43.36375 46.75129 45.05752
# Shear Modulus (GPa) = 16.11431 18.84241 17.47836
#
# Velocity S-wave (km/s) = 3.16504 3.42249 3.29628
# Velocity P-wave (km/s) = 6.34932 6.68438 6.51900
#
# Compressibility (1/GPa) = 0.02306074
#
# Stress axis : x y z
#
# Youngs Moduli (GPa) = 30.57354 30.57354 93.42349
#
# Poissons Ratio (x) = 0.58779 0.34119
# Poissons Ratio (y) = 0.58779 0.34119
# Poissons Ratio (z) = 0.11166 0.11166
#
# Static dielectric constant tensor:
#      x y z
#    x 1.545790 0.000000 0.000000 
#    y 0.000000 1.545790 0.000000 
#    z 0.000000 0.000000 1.644740 
# 
# From -- ./inp_files/5096.got.cif
#   From: 2010.05.17/outbox.cif.g08.bks.cpg/sg134_3_cif.got.tgz:5096.got - 2010.05.20 12:42:49.
