data_PCOD9568887
_publ_section_title
;
Structure prediction by ZEFSAII (Michael W. Deem and Ramdas Pophale) SiO2 
 PCOD9568887
Probable space group: P 42/M B C
;
_chemical_formula_sum "Si O2"
_cell_formula_units_Z 52
_cell_length_a 14.515667
_cell_length_b 14.515667
_cell_length_c 11.618455
_cell_angle_alpha 90.000000
_cell_angle_beta 90.000000
_cell_angle_gamma 90.000000
_cell_volume 2448.061779
_symmetry_space_group_name_H-M "P 42/M B C"
_symmetry_group_IT_number 135
_symmetry_cell_setting 'tetragonal'
loop_
_space_group_symop_operation_xyz
x,y,z
-y,x,1/2+z
-x,-y,z
y,-x,1/2+z
1/2+x,1/2-y,-z
1/2-x,1/2+y,-z
1/2+y,1/2+x,1/2-z
1/2-y,1/2-x,1/2-z
-x,-y,-z
y,-x,1/2-z
x,y,-z
-y,x,1/2-z
1/2-x,1/2+y,z
1/2+x,1/2-y,z
1/2-y,1/2-x,1/2+z
1/2+y,1/2+x,1/2+z
loop_
_atom_site_type_symbol
_atom_site_label
_atom_site_fract_x
_atom_site_fract_y
_atom_site_fract_z
Si Si1 0.459462 0.363482 0.271602
Si Si2 0.691524 0.029492 0.370119
Si Si3 0.000000 0.500000 0.750000
Si Si4 0.785687 0.220015 0.627959
O O1 0.409406 0.442777 0.194858
O O2 0.485248 0.271518 0.205167
O O3 0.383736 0.333430 0.364301
O O4 0.703160 0.998492 0.500000
O O5 0.591816 0.002854 0.325387
O O6 0.708512 0.139744 0.368234
O O7 0.774295 0.274295 0.750000
O O8 0.779514 0.264918 0.500000
#
# Coordination Sequence:
#
# PCOD9568887 Si02
#       4
#    16  16   4  16
#     4   9  20  40  65  94 129 169 219 280 338 394
#     4  10  22  40  63  89 129 173 220 272 327 392
#     4  12  22  40  60  90 132 172 224 258 338 392
#     4  10  21  40  62  94 133 175 218 268 330 395
#
# _framework density 21.241295000000001
#
# number of rings (size 3 to 8) (size 9 to 14) (size 15 to 20)
#    0.000    2.154    1.538    0.462    2.154    2.462 
#    0.000   12.308    0.000    0.000    0.000    0.000 
#    0.000    0.000    0.000    0.000    0.000    0.000 
#
# Total GULP energy -289773.619061 kJ/mol
# GULP energy per Si atom -5572.569597 kJ/mol
# Density = 2.119295 g / cm^3
# Si number density = 21.241295 Si / 1000 Ang^3
#
#
#
# Elastic Constant Matrix: (Units=GPa)
#
#
# Indices 1 2 3 4 5 6 
#
# 1 97.7238 2.3634 18.1935 0.0000 0.0000 0.0000
# 2 2.3634 97.7238 18.1935 0.0000 0.0000 0.0000
# 3 18.1935 18.1935 96.9152 0.0000 0.0000 0.0000
# 4 0.0000 0.0000 0.0000 3.3972 0.0000 0.0000
# 5 0.0000 0.0000 0.0000 0.0000 3.3972 0.0000
# 6 0.0000 0.0000 0.0000 0.0000 0.0000 22.6143
#
#
#
# Elastic Compliance Matrix: (Units=1/GPa)
#
#
# Indices 1 2 3 4 5 6 
#
# 1 0.010605 0.000118 -0.002013 0.000000 0.000000 0.000000
# 2 0.000118 0.010605 -0.002013 0.000000 0.000000 0.000000
# 3 -0.002013 -0.002013 0.011074 0.000000 0.000000 0.000000
# 4 0.000000 0.000000 0.000000 0.294358 0.000000 0.000000
# 5 0.000000 0.000000 0.000000 0.000000 0.294358 0.000000
# 6 0.000000 0.000000 0.000000 0.000000 0.000000 0.044220
#
#
# Mechanical properties :
#
#
# Convention : Reuss Voigt Hill
#
# Bulk Modulus (GPa) = 40.86919 41.09593 40.98256
# Shear Modulus (GPa) = 7.34009 22.78924 15.06467
#
# Velocity S-wave (km/s) = 1.86093 3.27903 2.66600
# Velocity P-wave (km/s) = 4.88873 5.80734 5.36772
#
# Compressibility (1/GPa) = 0.02446831
#
# Stress axis : x y z
#
# Youngs Moduli (GPa) = 94.29665 94.29665 90.30095
#
# Poissons Ratio (x) = -0.01115 0.18178
# Poissons Ratio (y) = -0.01115 0.18178
# Poissons Ratio (z) = 0.18982 0.18982
#
# Static dielectric constant tensor:
#      x y z
#    x 1.796340 0.000000 0.000000 
#    y 0.000000 1.796340 0.000000 
#    z 0.000000 0.000000 1.759810 
# 
# From -- ./inp_files/2079.got.cif
#   From: 2010.05.17/outbox.cif.g08.bks.cpg/sg135_2_cif.got.tgz:2079.got - 2010.05.20 12:50:20.
