data_PCOD9568851
_publ_section_title
;
Structure prediction by ZEFSAII (Michael W. Deem and Ramdas Pophale) SiO2 
 PCOD9568851
Probable space group: P 42/M B C
;
_chemical_formula_sum "Si O2"
_cell_formula_units_Z 96
_cell_length_a 17.284559
_cell_length_b 17.284559
_cell_length_c 17.530412
_cell_angle_alpha 90.000000
_cell_angle_beta 90.000000
_cell_angle_gamma 90.000000
_cell_volume 5237.315414
_symmetry_space_group_name_H-M "P 42/M B C"
_symmetry_group_IT_number 135
_symmetry_cell_setting 'tetragonal'
loop_
_space_group_symop_operation_xyz
x,y,z
-y,x,1/2+z
-x,-y,z
y,-x,1/2+z
1/2+x,1/2-y,-z
1/2-x,1/2+y,-z
1/2+y,1/2+x,1/2-z
1/2-y,1/2-x,1/2-z
-x,-y,-z
y,-x,1/2-z
x,y,-z
-y,x,1/2-z
1/2-x,1/2+y,z
1/2+x,1/2-y,z
1/2-y,1/2-x,1/2+z
1/2+y,1/2+x,1/2+z
loop_
_atom_site_type_symbol
_atom_site_label
_atom_site_fract_x
_atom_site_fract_y
_atom_site_fract_z
Si Si1 0.682657 0.163591 0.410950
Si Si2 0.598085 0.423198 0.269648
Si Si3 0.577494 0.044437 0.838827
Si Si4 0.416633 0.679293 0.585854
Si Si5 0.557508 0.791168 0.589051
Si Si6 0.183063 0.779051 0.687436
O O1 0.702784 0.155795 0.500000
O O2 0.620990 0.098900 0.386090
O O3 0.639258 0.246641 0.400880
O O4 0.755111 0.166488 0.354940
O O5 0.515827 0.399108 0.232290
O O6 0.596391 0.387207 0.353711
O O7 0.668895 0.382323 0.227055
O O8 0.567794 0.067794 0.750000
O O9 0.500000 0.000000 0.862353
O O10 0.646583 0.984928 0.857308
O O11 0.403827 0.652021 0.500000
O O12 0.502692 0.715298 0.591435
O O13 0.558965 0.816088 0.500000
O O14 0.640852 0.772308 0.623262
O O15 0.227246 0.727246 0.750000
#
# Coordination Sequence:
#
# PCOD9568851 Si02
#       6
#    16  16  16  16  16  16
#     4  10  21  37  59  87 121 161 203 249 306 364
#     4  11  23  41  62  88 118 157 200 249 301 363
#     4  10  22  38  63  91 127 165 204 251 300 374
#     4   9  18  38  61  82 113 156 198 242 301 364
#     4  10  22  40  62  88 123 164 206 247 309 374
#     4  12  23  37  64  90 122 157 205 261 306 362
#
# _framework density 18.330002
#
# number of rings (size 3 to 8) (size 9 to 14) (size 15 to 20)
#    0.000    1.667    3.333    2.500    4.667    1.333 
#    0.000    3.333    0.000    0.000    0.000    0.000 
#    0.000    0.000    0.000    0.000    0.000    0.000 
#
# Total GULP energy -535726.893280 kJ/mol
# GULP energy per Si atom -5580.488472 kJ/mol
# Density = 1.828828 g / cm^3
# Si number density = 18.330002 Si / 1000 Ang^3
#
#
#
# Elastic Constant Matrix: (Units=GPa)
#
#
# Indices 1 2 3 4 5 6 
#
# 1 49.0001 13.8606 27.6147 0.0000 0.0000 0.0000
# 2 13.8606 49.0001 27.6147 0.0000 0.0000 0.0000
# 3 27.6147 27.6147 99.6045 0.0000 0.0000 0.0000
# 4 0.0000 0.0000 0.0000 24.2984 0.0000 0.0000
# 5 0.0000 0.0000 0.0000 0.0000 24.2984 0.0000
# 6 0.0000 0.0000 0.0000 0.0000 0.0000 24.5605
#
#
#
# Elastic Compliance Matrix: (Units=1/GPa)
#
#
# Indices 1 2 3 4 5 6 
#
# 1 0.024745 -0.003713 -0.005831 0.000000 0.000000 0.000000
# 2 -0.003713 0.024745 -0.005831 0.000000 0.000000 0.000000
# 3 -0.005831 -0.005831 0.013273 0.000000 0.000000 0.000000
# 4 0.000000 0.000000 0.000000 0.041155 0.000000 0.000000
# 5 0.000000 0.000000 0.000000 0.000000 0.041155 0.000000
# 6 0.000000 0.000000 0.000000 0.000000 0.000000 0.040716
#
#
# Mechanical properties :
#
#
# Convention : Reuss Voigt Hill
#
# Bulk Modulus (GPa) = 31.23826 37.30939 34.27383
# Shear Modulus (GPa) = 22.00626 23.19910 22.60268
#
# Velocity S-wave (km/s) = 3.46867 3.56144 3.51536
# Velocity P-wave (km/s) = 5.75512 6.10821 5.93429
#
# Compressibility (1/GPa) = 0.03201202
#
# Stress axis : x y z
#
# Youngs Moduli (GPa) = 40.41296 40.41296 75.34217
#
# Poissons Ratio (x) = 0.15007 0.43930
# Poissons Ratio (y) = 0.15007 0.43930
# Poissons Ratio (z) = 0.23564 0.23564
#
# Static dielectric constant tensor:
#      x y z
#    x 1.630950 0.000000 0.000000 
#    y 0.000000 1.630950 0.000000 
#    z 0.000000 0.000000 1.621550 
# 
# From -- ./inp_files/4460.got.cif
#   From: 2010.05.17/outbox.cif.g08.bks.cpg/sg135_3_cif.got.tgz:4460.got - 2010.05.20 12:50:20.
