data_PCOD9568113
_publ_section_title
;
Structure prediction by ZEFSAII (Michael W. Deem and Ramdas Pophale) SiO2 
 PCOD9568113
Probable space group: P 42/N N M
;
_chemical_formula_sum "Si O2"
_cell_formula_units_Z 128
_cell_length_a 23.473407
_cell_length_b 23.473407
_cell_length_c 12.777553
_cell_angle_alpha 90.000000
_cell_angle_beta 90.000000
_cell_angle_gamma 90.000000
_cell_volume 7040.442387
_symmetry_space_group_name_H-M "P 42/N N M"
_symmetry_group_IT_number 134
_space_group.IT_coordinate_system_code '2'
_symmetry_cell_setting 'tetragonal'
loop_
_space_group_symop_operation_xyz
x,y,z
1/2-y,x,1/2+z
1/2-x,1/2-y,z
y,1/2-x,1/2+z
x,1/2-y,1/2-z
1/2-x,y,1/2-z
y,x,-z
1/2-y,1/2-x,-z
-x,-y,-z
1/2+y,-x,1/2-z
1/2+x,1/2+y,-z
-y,1/2+x,1/2-z
-x,1/2+y,1/2+z
1/2+x,-y,1/2+z
-y,-x,z
1/2+y,1/2+x,z
loop_
_atom_site_type_symbol
_atom_site_label
_atom_site_fract_x
_atom_site_fract_y
_atom_site_fract_z
Si Si1 0.833212 0.921263 0.975463
Si Si2 0.189598 0.379275 0.260261
Si Si3 0.543937 0.363571 0.260172
Si Si4 0.693915 0.101776 0.438316
Si Si5 0.928074 0.687312 0.704418
Si Si6 0.323397 0.918262 0.989708
Si Si7 0.501973 0.188828 0.807200
Si Si8 0.970645 0.120147 0.895871
O O1 0.799645 0.912600 0.869998
O O2 0.880724 0.966901 0.944921
O O3 0.861539 0.861539 0.000000
O O4 0.803157 0.938292 0.080726
O O5 0.250000 0.347371 0.250000
O O6 0.133738 0.340237 0.269802
O O7 0.179914 0.433279 0.183443
O O8 0.575606 0.424394 0.242719
O O9 0.573078 0.321589 0.173826
O O10 0.476799 0.356773 0.240354
O O11 0.555749 0.345426 0.379599
O O12 0.662597 0.162597 0.438905
O O13 0.760272 0.104407 0.463172
O O14 0.663558 0.064333 0.529395
O O15 0.934017 0.750000 0.750000
O O16 0.367708 0.867708 0.018455
O O17 0.317374 0.963969 0.084151
O O18 0.511878 0.250000 0.750000
O O19 0.524766 0.143568 0.721699
O O20 0.939137 0.060864 0.899206
#
# Coordination Sequence:
#
# PCOD9568113 Si02
#       8
#    16  16  16  16  16  16  16  16
#     4   9  19  35  54  82 110 137 177 231 283 329
#     4   9  21  38  58  84 114 146 185 230 281 334
#     4  10  22  37  56  84 114 147 188 234 281 335
#     4  10  19  33  54  79 108 139 185 241 288 335
#     4  11  21  36  61  87 114 150 188 230 284 340
#     4  11  22  36  54  78 111 152 193 232 282 346
#     4  10  19  36  56  74 106 145 190 230 274 337
#     4  10  18  30  53  80 104 137 178 229 285 330
#
# _framework density 18.180675999999998
#
# number of rings (size 3 to 8) (size 9 to 14) (size 15 to 20)
#    0.000    2.000    2.500    1.500    0.000    0.750 
#    0.000    8.125    0.000    6.000    0.000    0.000 
#    0.000    0.000    0.000    0.000    0.000    0.000 
#
# Total GULP energy -712650.079352 kJ/mol
# GULP energy per Si atom -5567.578745 kJ/mol
# Density = 1.813930 g / cm^3
# Si number density = 18.180676 Si / 1000 Ang^3
#
#
#
# Elastic Constant Matrix: (Units=GPa)
#
#
# Indices 1 2 3 4 5 6 
#
# 1 70.9611 24.1127 23.1481 0.0000 0.0000 0.0000
# 2 24.1127 70.9611 23.1481 0.0000 0.0000 0.0000
# 3 23.1481 23.1481 79.8762 0.0000 0.0000 0.0000
# 4 0.0000 0.0000 0.0000 19.9293 0.0000 0.0000
# 5 0.0000 0.0000 0.0000 0.0000 19.9293 0.0000
# 6 0.0000 0.0000 0.0000 0.0000 0.0000 13.3651
#
#
#
# Elastic Compliance Matrix: (Units=1/GPa)
#
#
# Indices 1 2 3 4 5 6 
#
# 1 0.016796 -0.004550 -0.003549 0.000000 0.000000 0.000000
# 2 -0.004550 0.016796 -0.003549 0.000000 0.000000 0.000000
# 3 -0.003549 -0.003549 0.014576 0.000000 0.000000 0.000000
# 4 0.000000 0.000000 0.000000 0.050177 0.000000 0.000000
# 5 0.000000 0.000000 0.000000 0.000000 0.050177 0.000000
# 6 0.000000 0.000000 0.000000 0.000000 0.000000 0.074822
#
#
# Mechanical properties :
#
#
# Convention : Reuss Voigt Hill
#
# Bulk Modulus (GPa) = 40.20413 40.29071 40.24742
# Shear Modulus (GPa) = 19.61314 20.73735 20.17524
#
# Velocity S-wave (km/s) = 3.28806 3.38098 3.33484
# Velocity P-wave (km/s) = 6.04787 6.11970 6.08389
#
# Compressibility (1/GPa) = 0.02487307
#
# Stress axis : x y z
#
# Youngs Moduli (GPa) = 59.53839 59.53839 68.60419
#
# Poissons Ratio (x) = 0.27087 0.24348
# Poissons Ratio (y) = 0.27087 0.24348
# Poissons Ratio (z) = 0.21130 0.21130
#
# Static dielectric constant tensor:
#      x y z
#    x 1.637590 0.000000 0.000000 
#    y 0.000000 1.637590 0.000000 
#    z 0.000000 0.000000 1.668140 
# 
# From -- ./inp_files/5296.got.cif
#   From: 2010.05.17/outbox.cif.g08.bks.cpg/sg134_3_cif.got.tgz:5296.got - 2010.05.20 12:42:49.
