data_PCOD9568042
_publ_section_title
;
Structure prediction by ZEFSAII (Michael W. Deem and Ramdas Pophale) SiO2 
 PCOD9568042
Probable space group: P 42/N B C
;
_chemical_formula_sum "Si O2"
_cell_formula_units_Z 96
_cell_length_a 23.015481
_cell_length_b 23.015481
_cell_length_c 9.831720
_cell_angle_alpha 90.000000
_cell_angle_beta 90.000000
_cell_angle_gamma 90.000000
_cell_volume 5207.983660
_symmetry_space_group_name_H-M "P 42/N B C"
_symmetry_group_IT_number 133
_space_group.IT_coordinate_system_code '2'
_symmetry_cell_setting 'tetragonal'
loop_
_space_group_symop_operation_xyz
x,y,z
1/2-y,x,1/2+z
1/2-x,1/2-y,z
y,1/2-x,1/2+z
x,1/2-y,-z
1/2-x,y,-z
y,x,1/2-z
1/2-y,1/2-x,1/2-z
-x,-y,-z
1/2+y,-x,1/2-z
1/2+x,1/2+y,-z
-y,1/2+x,1/2-z
-x,1/2+y,z
1/2+x,-y,z
-y,-x,1/2+z
1/2+y,1/2+x,1/2+z
loop_
_atom_site_type_symbol
_atom_site_label
_atom_site_fract_x
_atom_site_fract_y
_atom_site_fract_z
Si Si1 0.601838 0.750000 0.500000
Si Si2 0.250000 0.050242 0.500000
Si Si3 0.623259 0.050481 0.187883
Si Si4 0.498216 0.747337 0.287775
Si Si5 0.426288 0.073713 0.250000
Si Si6 0.430466 0.430466 0.250000
Si Si7 0.122757 0.546540 0.132993
Si Si8 0.138417 0.121735 0.493626
O O1 0.558695 0.753266 0.370566
O O2 0.638207 0.690894 0.490652
O O3 0.198395 0.092392 0.454243
O O4 0.265253 0.011637 0.369765
O O5 0.691505 0.035391 0.200932
O O6 0.601315 0.105127 0.274613
O O7 0.586711 0.997500 0.255232
O O8 0.609023 0.054427 0.027035
O O9 0.467098 0.691261 0.351890
O O10 0.490326 0.088187 0.306761
O O11 0.409650 0.117281 0.129635
O O12 0.407602 0.395659 0.379646
#
# Coordination Sequence:
#
# PCOD9568042 Si02
#       8
#     8   8  16  16   8   8  16  16
#     4  12  20  43  64  80 126 187 218 258 328 372
#     4  12  24  35  64  96 122 171 230 272 300 370
#     4  12  26  41  65  96 127 165 210 262 325 392
#     4  12  22  44  64  86 132 174 207 256 331 391
#     4  12  21  40  60  89 130 164 206 273 328 382
#     4  12  21  40  60  89 130 164 206 273 328 382
#     4  12  26  41  65  96 127 165 210 262 325 392
#     4  12  22  37  63  92 122 174 228 266 309 371
#
# _framework density 18.433237999999999
#
# number of rings (size 3 to 8) (size 9 to 14) (size 15 to 20)
#    0.000    0.000   10.000    0.500    4.667    1.667 
#    0.000    0.000    0.000    4.500    0.000    2.333 
#    0.000    0.000    0.000    0.000    0.000    0.000 
#
# Total GULP energy -536450.706015 kJ/mol
# GULP energy per Si atom -5588.028188 kJ/mol
# Density = 1.839128 g / cm^3
# Si number density = 18.433238 Si / 1000 Ang^3
#
#
#
# Elastic Constant Matrix: (Units=GPa)
#
#
# Indices 1 2 3 4 5 6 
#
# 1 54.4314 36.5247 3.5823 0.0000 0.0000 0.0000
# 2 36.5247 54.4307 3.5824 0.0000 0.0000 0.0000
# 3 3.5823 3.5824 92.2618 0.0000 0.0000 0.0000
# 4 0.0000 0.0000 0.0000 25.3643 0.0000 0.0000
# 5 0.0000 0.0000 0.0000 0.0000 25.3645 0.0000
# 6 0.0000 0.0000 0.0000 0.0000 0.0000 26.5972
#
#
#
# Elastic Compliance Matrix: (Units=1/GPa)
#
#
# Indices 1 2 3 4 5 6 
#
# 1 0.033437 -0.022409 -0.000428 0.000000 0.000000 0.000000
# 2 -0.022409 0.033437 -0.000428 0.000000 0.000000 0.000000
# 3 -0.000428 -0.000428 0.010872 0.000000 0.000000 0.000000
# 4 0.000000 0.000000 0.000000 0.039425 0.000000 0.000000
# 5 0.000000 0.000000 0.000000 0.000000 0.039425 0.000000
# 6 0.000000 0.000000 0.000000 0.000000 0.000000 0.037598
#
#
# Mechanical properties :
#
#
# Convention : Reuss Voigt Hill
#
# Bulk Modulus (GPa) = 32.03552 32.05585 32.04569
# Shear Modulus (GPa) = 19.90999 25.96084 22.93541
#
# Velocity S-wave (km/s) = 3.29007 3.75690 3.53121
# Velocity P-wave (km/s) = 5.64356 6.02055 5.83510
#
# Compressibility (1/GPa) = 0.03121535
#
# Stress axis : x y z
#
# Youngs Moduli (GPa) = 29.90720 29.90681 91.97965
#
# Poissons Ratio (x) = 0.67018 0.03938
# Poissons Ratio (y) = 0.67019 0.03939
# Poissons Ratio (z) = 0.01281 0.01281
#
# Static dielectric constant tensor:
#      x y z
#    x 1.674380 0.000000 0.000000 
#    y 0.000000 1.674380 0.000000 
#    z 0.000000 0.000000 1.653750 
# 
# From -- ./inp_files/1979.got.cif
#   From: 2010.05.17/outbox.cif.g08.bks.cpg/sg133_1_cif.got.tgz:1979.got - 2010.05.20 12:37:36.
