data_PCOD9568927
_publ_section_title
;
Structure prediction by ZEFSAII (Michael W. Deem and Ramdas Pophale) SiO2 
 PCOD9568927
Probable space group: P 42/M B C
;
_chemical_formula_sum "Si O2"
_cell_formula_units_Z 64
_cell_length_a 14.120144
_cell_length_b 14.120144
_cell_length_c 17.487372
_cell_angle_alpha 90.000000
_cell_angle_beta 90.000000
_cell_angle_gamma 90.000000
_cell_volume 3486.605414
_symmetry_space_group_name_H-M "P 42/M B C"
_symmetry_group_IT_number 135
_symmetry_cell_setting 'tetragonal'
loop_
_space_group_symop_operation_xyz
x,y,z
-y,x,1/2+z
-x,-y,z
y,-x,1/2+z
1/2+x,1/2-y,-z
1/2-x,1/2+y,-z
1/2+y,1/2+x,1/2-z
1/2-y,1/2-x,1/2-z
-x,-y,-z
y,-x,1/2-z
x,y,-z
-y,x,1/2-z
1/2-x,1/2+y,z
1/2+x,1/2-y,z
1/2-y,1/2-x,1/2+z
1/2+y,1/2+x,1/2+z
loop_
_atom_site_type_symbol
_atom_site_label
_atom_site_fract_x
_atom_site_fract_y
_atom_site_fract_z
Si Si1 0.061564 0.731370 0.410079
Si Si2 0.577886 0.830957 0.820121
Si Si3 0.087203 0.424372 0.413664
Si Si4 0.358188 0.561961 0.767951
O O1 0.067848 0.750708 0.500000
O O2 0.140920 0.655064 0.383934
O O3 0.068890 0.820729 0.354750
O O4 0.962312 0.675214 0.395033
O O5 0.596010 0.903991 0.750000
O O6 0.472828 0.842396 0.854220
O O7 0.594810 0.728456 0.785017
O O8 0.126054 0.420054 0.500000
O O9 0.000000 0.500000 0.415136
O O10 0.453118 0.619353 0.752083
#
# Coordination Sequence:
#
# PCOD9568927 Si02
#       4
#    16  16  16  16
#     4   9  18  36  58  83 113 138 175 234 286 322
#     4   9  17  31  54  82 107 139 178 229 274 321
#     4   8  14  27  50  80 110 135 162 211 279 332
#     4  10  22  40  55  73 109 157 194 217 259 329
#
# _framework density 18.355964
#
# number of rings (size 3 to 8) (size 9 to 14) (size 15 to 20)
#    0.000    3.000    0.000    2.250    0.000   11.500 
#   13.500    7.500    0.000    0.000    0.000    0.000 
#    0.000    0.000    0.000    0.000    0.000    0.000 
#
# Total GULP energy -356561.960324 kJ/mol
# GULP energy per Si atom -5571.280630 kJ/mol
# Density = 1.831418 g / cm^3
# Si number density = 18.355964 Si / 1000 Ang^3
#
#
#
# Elastic Constant Matrix: (Units=GPa)
#
#
# Indices 1 2 3 4 5 6 
#
# 1 57.6925 11.9490 38.0712 0.0000 0.0000 0.0000
# 2 11.9490 57.6919 38.0716 0.0000 0.0000 0.0000
# 3 38.0712 38.0716 103.4265 0.0000 0.0000 0.0000
# 4 0.0000 0.0000 0.0000 6.5698 0.0000 0.0000
# 5 0.0000 0.0000 0.0000 0.0000 6.5692 0.0000
# 6 0.0000 0.0000 0.0000 0.0000 0.0000 8.2669
#
#
#
# Elastic Compliance Matrix: (Units=1/GPa)
#
#
# Indices 1 2 3 4 5 6 
#
# 1 0.022946 0.001085 -0.008846 0.000000 0.000000 0.000000
# 2 0.001085 0.022946 -0.008846 0.000000 0.000000 0.000000
# 3 -0.008846 -0.008846 0.016181 0.000000 0.000000 0.000000
# 4 0.000000 0.000000 0.000000 0.152212 0.000000 0.000000
# 5 0.000000 0.000000 0.000000 0.000000 0.152225 0.000000
# 6 0.000000 0.000000 0.000000 0.000000 0.000000 0.120965
#
#
# Mechanical properties :
#
#
# Convention : Reuss Voigt Hill
#
# Bulk Modulus (GPa) = 34.65043 43.88827 39.26935
# Shear Modulus (GPa) = 9.42849 12.99578 11.21213
#
# Velocity S-wave (km/s) = 2.26884 2.66369 2.47415
# Velocity P-wave (km/s) = 5.07754 5.78116 5.44073
#
# Compressibility (1/GPa) = 0.02885967
#
# Stress axis : x y z
#
# Youngs Moduli (GPa) = 43.58090 43.57991 61.80073
#
# Poissons Ratio (x) = -0.04728 0.54667
# Poissons Ratio (y) = -0.04728 0.54669
# Poissons Ratio (z) = 0.38550 0.38551
#
# Static dielectric constant tensor:
#      x y z
#    x 1.645280 0.000000 0.000000 
#    y 0.000000 1.645280 0.000000 
#    z 0.000000 0.000000 1.650860 
# 
# From -- ./inp_files/3154.got.cif
#   From: 2010.05.17/outbox.cif.g08.bks.cpg/sg135_2_cif.got.tgz:3154.got - 2010.05.20 12:50:20.
