data_PCOD9568356
_publ_section_title
;
Structure prediction by ZEFSAII (Michael W. Deem and Ramdas Pophale) SiO2 
 PCOD9568356
Probable space group: P 42/N N M
;
_chemical_formula_sum "Si O2"
_cell_formula_units_Z 96
_cell_length_a 16.879793
_cell_length_b 16.879793
_cell_length_c 13.317597
_cell_angle_alpha 90.000000
_cell_angle_beta 90.000000
_cell_angle_gamma 90.000000
_cell_volume 3794.548444
_symmetry_space_group_name_H-M "P 42/N N M"
_symmetry_group_IT_number 134
_space_group.IT_coordinate_system_code '2'
_symmetry_cell_setting 'tetragonal'
loop_
_space_group_symop_operation_xyz
x,y,z
1/2-y,x,1/2+z
1/2-x,1/2-y,z
y,1/2-x,1/2+z
x,1/2-y,1/2-z
1/2-x,y,1/2-z
y,x,-z
1/2-y,1/2-x,-z
-x,-y,-z
1/2+y,-x,1/2-z
1/2+x,1/2+y,-z
-y,1/2+x,1/2-z
-x,1/2+y,1/2+z
1/2+x,-y,1/2+z
-y,-x,z
1/2+y,1/2+x,z
loop_
_atom_site_type_symbol
_atom_site_label
_atom_site_fract_x
_atom_site_fract_y
_atom_site_fract_z
Si Si1 0.437297 0.309634 0.390079
Si Si2 0.960025 0.460025 0.367073
Si Si3 0.933997 0.066004 0.337979
Si Si4 0.889153 0.389153 0.568390
Si Si5 0.944600 0.260249 0.856038
Si Si6 0.566792 0.066792 0.803695
Si Si7 0.723065 0.615248 0.619387
Si Si8 0.858405 0.609466 0.382288
O O1 0.517541 0.360737 0.385708
O O2 0.362082 0.356298 0.339616
O O3 0.407599 0.295169 0.504329
O O4 0.442377 0.218985 0.355222
O O5 0.914237 0.414237 0.277855
O O6 0.930799 0.551213 0.351085
O O7 0.066173 0.566173 0.520977
O O8 0.001783 0.998218 0.327184
O O9 0.905961 0.295519 0.562706
O O10 0.912836 0.412836 0.685299
O O11 0.900240 0.250000 0.750000
O O12 0.955996 0.353050 0.861816
O O13 0.034766 0.231873 0.845469
O O14 0.799030 0.670169 0.637943
O O15 0.879268 0.620733 0.500000
#
# Coordination Sequence:
#
# PCOD9568356 Si02
#       8
#    16   8   8   8  16   8  16  16
#     4  10  22  41  62  97 138 181 230 280 344 417
#     4  12  27  42  69  97 136 183 238 280 336 406
#     4  12  26  41  65  97 141 189 226 280 337 413
#     4  10  22  40  63  93 129 177 231 286 340 415
#     4  10  21  37  62  96 132 168 217 284 354 411
#     4  10  22  39  62  95 133 168 220 285 357 417
#     4  10  20  37  65  95 136 178 219 276 351 420
#     4  10  22  39  66  98 130 173 229 288 339 401
#
# _framework density 25.299451000000001
#
# number of rings (size 3 to 8) (size 9 to 14) (size 15 to 20)
#    0.000    1.667    1.667    2.750    7.000    5.000 
#    0.000    1.667    0.000    4.500    0.000    2.333 
#    0.000    0.000    0.000    0.000    0.000    0.000 
#
# Total GULP energy -534561.604053 kJ/mol
# GULP energy per Si atom -5568.350042 kJ/mol
# Density = 2.524187 g / cm^3
# Si number density = 25.299451 Si / 1000 Ang^3
#
#
#
# Elastic Constant Matrix: (Units=GPa)
#
#
# Indices 1 2 3 4 5 6 
#
# 1 142.9598 55.9054 15.1508 0.0000 0.0000 0.0000
# 2 55.9054 142.9598 15.1509 0.0000 0.0000 0.0000
# 3 15.1508 15.1509 81.6827 0.0000 0.0000 0.0000
# 4 0.0000 0.0000 0.0000 28.7166 0.0000 0.0000
# 5 0.0000 0.0000 0.0000 0.0000 28.7166 0.0000
# 6 0.0000 0.0000 0.0000 0.0000 0.0000 43.9472
#
#
#
# Elastic Compliance Matrix: (Units=1/GPa)
#
#
# Indices 1 2 3 4 5 6 
#
# 1 0.008331 -0.003156 -0.000960 0.000000 0.000000 0.000000
# 2 -0.003156 0.008331 -0.000960 0.000000 0.000000 0.000000
# 3 -0.000960 -0.000960 0.012599 0.000000 0.000000 0.000000
# 4 0.000000 0.000000 0.000000 0.034823 0.000000 0.000000
# 5 0.000000 0.000000 0.000000 0.000000 0.034823 0.000000
# 6 0.000000 0.000000 0.000000 0.000000 0.000000 0.022755
#
#
# Mechanical properties :
#
#
# Convention : Reuss Voigt Hill
#
# Bulk Modulus (GPa) = 52.33199 60.00183 56.16691
# Shear Modulus (GPa) = 36.18408 39.03576 37.60992
#
# Velocity S-wave (km/s) = 3.78594 3.93230 3.85982
# Velocity P-wave (km/s) = 6.31198 6.66224 6.48947
#
# Compressibility (1/GPa) = 0.01910877
#
# Stress axis : x y z
#
# Youngs Moduli (GPa) = 120.03464 120.03461 79.37412
#
# Poissons Ratio (x) = 0.37885 0.07619
# Poissons Ratio (y) = 0.37885 0.07619
# Poissons Ratio (z) = 0.11521 0.11521
#
# Static dielectric constant tensor:
#      x y z
#    x 2.467550 0.000000 0.000000 
#    y 0.000000 2.467530 0.000000 
#    z 0.000000 0.000000 2.290350 
# 
# From -- ./inp_files/7968.got.cif
#   From: 2010.05.17/outbox.cif.g08.bks.cpg/sg134_4_cif.got.tgz:7968.got - 2010.05.20 12:42:49.
