data_PCOD9568263
_publ_section_title
;
Structure prediction by ZEFSAII (Michael W. Deem and Ramdas Pophale) SiO2 
 PCOD9568263
Probable space group: P 42/N N M
;
_chemical_formula_sum "Si O2"
_cell_formula_units_Z 84
_cell_length_a 14.746914
_cell_length_b 14.746914
_cell_length_c 21.234699
_cell_angle_alpha 90.000000
_cell_angle_beta 90.000000
_cell_angle_gamma 90.000000
_cell_volume 4617.941260
_symmetry_space_group_name_H-M "P 42/N N M"
_symmetry_group_IT_number 134
_space_group.IT_coordinate_system_code '2'
_symmetry_cell_setting 'tetragonal'
loop_
_space_group_symop_operation_xyz
x,y,z
1/2-y,x,1/2+z
1/2-x,1/2-y,z
y,1/2-x,1/2+z
x,1/2-y,1/2-z
1/2-x,y,1/2-z
y,x,-z
1/2-y,1/2-x,-z
-x,-y,-z
1/2+y,-x,1/2-z
1/2+x,1/2+y,-z
-y,1/2+x,1/2-z
-x,1/2+y,1/2+z
1/2+x,-y,1/2+z
-y,-x,z
1/2+y,1/2+x,z
loop_
_atom_site_type_symbol
_atom_site_label
_atom_site_fract_x
_atom_site_fract_y
_atom_site_fract_z
Si Si1 0.034422 0.686291 0.310617
Si Si2 0.916306 0.812400 0.672739
Si Si3 0.468708 0.389883 0.204291
Si Si4 0.137547 0.490482 0.958769
Si Si5 0.097585 0.752112 0.055663
Si Si6 0.250000 0.250000 0.250000
O O1 0.024468 0.750000 0.250000
O O2 0.123493 0.623493 0.301214
O O3 0.048432 0.737196 0.376891
O O4 0.950282 0.617420 0.314965
O O5 0.967064 0.880344 0.719964
O O6 0.957097 0.711619 0.680363
O O7 0.930666 0.837364 0.601292
O O8 0.815995 0.805899 0.703601
O O9 0.558178 0.441823 0.182946
O O10 0.078354 0.578354 0.938745
O O11 0.072061 0.427939 0.000000
O O12 0.220723 0.528727 0.000875
O O13 0.155803 0.844198 0.043221
O O14 0.171443 0.671443 0.061121
#
# Coordination Sequence:
#
# PCOD9568263 Si02
#       6
#    16  16  16  16  16   4
#     4  10  20  32  54  83 112 147 186 229 285 341
#     4  10  21  37  57  77 109 146 179 229 275 336
#     4   9  20  35  55  81 106 139 182 230 279 327
#     4  10  22  37  57  83 110 144 188 233 283 340
#     4   9  19  36  55  80 114 148 185 233 286 343
#     4   8  20  36  54  80 104 142 176 224 272 316
#
# _framework density 18.189923
#
# number of rings (size 3 to 8) (size 9 to 14) (size 15 to 20)
#    0.000    2.667    0.000    1.143    8.000    1.714 
#    0.000    3.333    0.000   12.571    0.000    0.000 
#    0.000    0.000    0.000    0.000    0.000    0.000 
#
# Total GULP energy -468223.689851 kJ/mol
# GULP energy per Si atom -5574.091546 kJ/mol
# Density = 1.814852 g / cm^3
# Si number density = 18.189923 Si / 1000 Ang^3
#
#
#
# Elastic Constant Matrix: (Units=GPa)
#
#
# Indices 1 2 3 4 5 6 
#
# 1 59.4610 31.2365 38.3960 0.0000 0.0000 0.0000
# 2 31.2365 59.4618 38.3958 0.0000 0.0000 0.0000
# 3 38.3960 38.3958 122.5969 0.0000 0.0000 0.0000
# 4 0.0000 0.0000 0.0000 17.2761 0.0000 0.0000
# 5 0.0000 0.0000 0.0000 0.0000 17.2764 0.0000
# 6 0.0000 0.0000 0.0000 0.0000 0.0000 15.7824
#
#
#
# Elastic Compliance Matrix: (Units=1/GPa)
#
#
# Indices 1 2 3 4 5 6 
#
# 1 0.025217 -0.010213 -0.004699 0.000000 0.000000 0.000000
# 2 -0.010213 0.025217 -0.004699 0.000000 0.000000 0.000000
# 3 -0.004699 -0.004699 0.011100 0.000000 0.000000 0.000000
# 4 0.000000 0.000000 0.000000 0.057883 0.000000 0.000000
# 5 0.000000 0.000000 0.000000 0.000000 0.057883 0.000000
# 6 0.000000 0.000000 0.000000 0.000000 0.000000 0.063362
#
#
# Mechanical properties :
#
#
# Convention : Reuss Voigt Hill
#
# Bulk Modulus (GPa) = 44.81858 50.84182 47.83020
# Shear Modulus (GPa) = 17.40213 18.96641 18.18427
#
# Velocity S-wave (km/s) = 3.09640 3.23257 3.16522
# Velocity P-wave (km/s) = 6.12179 6.47641 6.30159
#
# Compressibility (1/GPa) = 0.02231217
#
# Stress axis : x y z
#
# Youngs Moduli (GPa) = 39.65540 39.65619 90.08796
#
# Poissons Ratio (x) = 0.40500 0.42335
# Poissons Ratio (y) = 0.40499 0.42333
# Poissons Ratio (z) = 0.18635 0.18635
#
# Static dielectric constant tensor:
#      x y z
#    x 1.639970 0.000000 0.000000 
#    y 0.000000 1.639970 0.000000 
#    z 0.000000 0.000000 1.610540 
# 
# From -- ./inp_files/9042.got.cif
#   From: 2010.05.17/outbox.cif.g08.bks.cpg/sg134_5_cif.got.tgz:9042.got - 2010.05.20 12:42:49.
