data_PCOD9568758
_publ_section_title
;
Structure prediction by ZEFSAII (Michael W. Deem and Ramdas Pophale) SiO2 
 PCOD9568758
Probable space group: P 42/M B C
;
_chemical_formula_sum "Si O2"
_cell_formula_units_Z 96
_cell_length_a 24.464217
_cell_length_b 24.464217
_cell_length_c 8.621977
_cell_angle_alpha 90.000000
_cell_angle_beta 90.000000
_cell_angle_gamma 90.000000
_cell_volume 5160.235244
_symmetry_space_group_name_H-M "P 42/M B C"
_symmetry_group_IT_number 135
_symmetry_cell_setting 'tetragonal'
loop_
_space_group_symop_operation_xyz
x,y,z
-y,x,1/2+z
-x,-y,z
y,-x,1/2+z
1/2+x,1/2-y,-z
1/2-x,1/2+y,-z
1/2+y,1/2+x,1/2-z
1/2-y,1/2-x,1/2-z
-x,-y,-z
y,-x,1/2-z
x,y,-z
-y,x,1/2-z
1/2-x,1/2+y,z
1/2+x,1/2-y,z
1/2-y,1/2-x,1/2+z
1/2+y,1/2+x,1/2+z
loop_
_atom_site_type_symbol
_atom_site_label
_atom_site_fract_x
_atom_site_fract_y
_atom_site_fract_z
Si Si1 0.485622 0.789734 0.186984
Si Si2 0.693472 0.723953 0.813290
Si Si3 0.500419 0.085167 0.186515
Si Si4 0.570500 0.695880 0.188188
Si Si5 0.365616 0.782854 0.685520
Si Si6 0.469529 0.420165 0.314465
O O1 0.500564 0.851586 0.234789
O O2 0.529368 0.744274 0.234918
O O3 0.426132 0.775913 0.251589
O O4 0.483342 0.789491 0.000000
O O5 0.720956 0.779045 0.750000
O O6 0.631855 0.711982 0.763602
O O7 0.733232 0.674133 0.764986
O O8 0.694201 0.726503 0.000000
O O9 0.553982 0.053982 0.250000
O O10 0.449099 0.050902 0.250000
O O11 0.500816 0.082011 0.000000
O O12 0.551939 0.638221 0.257751
O O13 0.569653 0.691413 0.000000
O O14 0.337808 0.837808 0.750000
O O15 0.366225 0.785049 0.500000
O O16 0.432383 0.469485 0.248421
O O17 0.469925 0.423028 0.500000
#
# Coordination Sequence:
#
# PCOD9568758 Si02
#       6
#    16  16  16  16  16  16
#     4  10  22  37  55  82 116 151 187 233 288 340
#     4   9  20  38  59  82 113 151 192 238 286 339
#     4  10  20  35  55  80 109 147 190 235 286 342
#     4  10  22  40  59  86 122 158 194 242 294 346
#     4  10  20  35  57  84 111 146 190 238 288 338
#     4  11  23  41  64  90 118 154 196 243 296 353
#
# _framework density 18.603802999999999
#
# number of rings (size 3 to 8) (size 9 to 14) (size 15 to 20)
#    0.000    2.000    0.000    4.000    2.333    5.333 
#    0.000    0.000    0.000    0.000    0.000    0.000 
#    0.000    0.000    0.000    0.000    0.000    0.000 
#
# Total GULP energy -536292.154494 kJ/mol
# GULP energy per Si atom -5586.376609 kJ/mol
# Density = 1.856146 g / cm^3
# Si number density = 18.603803 Si / 1000 Ang^3
#
#
#
# Elastic Constant Matrix: (Units=GPa)
#
#
# Indices 1 2 3 4 5 6 
#
# 1 17.0417 266.0707 44.3086 0.0000 0.0000 0.0000
# 2 266.0707 17.1739 44.2816 0.0000 0.0000 0.0000
# 3 44.3086 44.2816 43.4449 0.0000 0.0000 0.0000
# 4 0.0000 0.0000 0.0000 23.8881 0.0000 0.0000
# 5 0.0000 0.0000 0.0000 0.0000 23.8886 0.0000
# 6 0.0000 0.0000 0.0000 0.0000 0.0000 18.1005
#
#
#
# Elastic Compliance Matrix: (Units=1/GPa)
#
#
# Indices 1 2 3 4 5 6 
#
# 1 0.000582 0.004601 -0.005283 0.000000 0.000000 0.000000
# 2 0.004601 0.000586 -0.005290 0.000000 0.000000 0.000000
# 3 -0.005283 -0.005290 0.033798 0.000000 0.000000 0.000000
# 4 0.000000 0.000000 0.000000 0.041862 0.000000 0.000000
# 5 0.000000 0.000000 0.000000 0.000000 0.041861 0.000000
# 6 0.000000 0.000000 0.000000 0.000000 0.000000 0.055247
#
#
# Mechanical properties :
#
#
# Convention : Reuss Voigt Hill
#
# Bulk Modulus (GPa) = 43.43744 87.44249 65.43996
# Shear Modulus (GPa) = 25.83243 -5.29123 10.27060
#
# Velocity S-wave (km/s) = 3.73038 -1.68830 2.35217
# Velocity P-wave (km/s) = 6.47716 6.58058 6.52908
#
# Compressibility (1/GPa) = 0.02302161
#
# Stress axis : x y z
#
# Youngs Moduli (GPa) = 1717.19572 1705.77320 29.58755
#
# Poissons Ratio (x) = -7.84819 0.15633
# Poissons Ratio (y) = -7.90074 0.15652
# Poissons Ratio (z) = 9.07278 9.02347
#
# Static dielectric constant tensor:
#      x y z
#    x 1.622490 0.000000 0.000000 
#    y 0.000000 1.622500 0.000000 
#    z 0.000000 0.000000 1.628850 
# 
# From -- ./inp_files/1269.got.cif
#   From: 2010.05.17/outbox.cif.g08.bks.cpg/sg135_1_cif.got.tgz:1269.got - 2010.05.20 12:50:20.
