data_PCOD9568173
_publ_section_title
;
Structure prediction by ZEFSAII (Michael W. Deem and Ramdas Pophale) SiO2 
 PCOD9568173
Probable space group: P 42/N N M
;
_chemical_formula_sum "Si O2"
_cell_formula_units_Z 88
_cell_length_a 12.559797
_cell_length_b 12.559797
_cell_length_c 27.534930
_cell_angle_alpha 90.000000
_cell_angle_beta 90.000000
_cell_angle_gamma 90.000000
_cell_volume 4343.593924
_symmetry_space_group_name_H-M "P 42/N N M"
_symmetry_group_IT_number 134
_space_group.IT_coordinate_system_code '2'
_symmetry_cell_setting 'tetragonal'
loop_
_space_group_symop_operation_xyz
x,y,z
1/2-y,x,1/2+z
1/2-x,1/2-y,z
y,1/2-x,1/2+z
x,1/2-y,1/2-z
1/2-x,y,1/2-z
y,x,-z
1/2-y,1/2-x,-z
-x,-y,-z
1/2+y,-x,1/2-z
1/2+x,1/2+y,-z
-y,1/2+x,1/2-z
-x,1/2+y,1/2+z
1/2+x,-y,1/2+z
-y,-x,z
1/2+y,1/2+x,z
loop_
_atom_site_type_symbol
_atom_site_label
_atom_site_fract_x
_atom_site_fract_y
_atom_site_fract_z
Si Si1 0.749686 0.074413 0.841201
Si Si2 0.841559 0.519479 0.934362
Si Si3 0.931059 0.750000 0.250000
Si Si4 0.495432 0.829763 0.514099
Si Si5 0.843821 0.523478 0.215039
Si Si6 0.688086 0.010135 0.101883
O O1 0.838076 0.161925 0.851837
O O2 0.639377 0.139377 0.831286
O O3 0.731935 0.000989 0.887666
O O4 0.781288 0.006128 0.794880
O O5 0.918100 0.418100 0.938853
O O6 0.916630 0.617647 0.921943
O O7 0.772463 0.523554 0.982298
O O8 0.869175 0.645113 0.231143
O O9 0.382540 0.882540 0.500158
O O10 0.488733 0.795253 0.570374
O O11 0.583963 0.916038 0.500000
O O12 0.750000 0.483302 0.250000
O O13 0.805648 0.515433 0.159076
O O14 0.949190 0.449190 0.218928
O O15 0.619461 0.119461 0.096499
#
# Coordination Sequence:
#
# PCOD9568173 Si02
#       6
#    16  16   8  16  16  16
#     4  10  19  31  55  91 129 168 207 254 320 392
#     4  10  20  38  62  91 123 159 207 259 314 379
#     4  12  21  39  62  92 132 169 214 270 333 396
#     4  11  25  42  61  91 129 164 208 266 324 383
#     4  11  25  45  68  97 133 177 229 278 327 391
#     4  10  22  43  68  92 124 170 219 263 318 389
#
# _framework density 20.259722
#
# number of rings (size 3 to 8) (size 9 to 14) (size 15 to 20)
#    0.000    1.455    1.818    3.545    0.000    8.182 
#    3.273    3.636    0.000    0.000    0.000    0.000 
#    0.000    0.000    0.000    0.000    0.000    0.000 
#
# Total GULP energy -491560.804870 kJ/mol
# GULP energy per Si atom -5585.918237 kJ/mol
# Density = 2.021361 g / cm^3
# Si number density = 20.259722 Si / 1000 Ang^3
#
#
#
# Elastic Constant Matrix: (Units=GPa)
#
#
# Indices 1 2 3 4 5 6 
#
# 1 42.2827 33.7385 43.5377 0.0000 0.0000 0.0000
# 2 33.7385 42.2767 43.5344 0.0000 0.0000 0.0000
# 3 43.5377 43.5344 139.7856 0.0000 0.0000 0.0000
# 4 0.0000 0.0000 0.0000 31.6038 0.0000 0.0000
# 5 0.0000 0.0000 0.0000 0.0000 31.6049 0.0000
# 6 0.0000 0.0000 0.0000 0.0000 0.0000 -14.1455
#
#
#
# Elastic Compliance Matrix: (Units=1/GPa)
#
#
# Indices 1 2 3 4 5 6 
#
# 1 0.068760 -0.048315 -0.006369 0.000000 0.000000 0.000000
# 2 -0.048315 0.068769 -0.006369 0.000000 0.000000 0.000000
# 3 -0.006369 -0.006369 0.011121 0.000000 0.000000 0.000000
# 4 0.000000 0.000000 0.000000 0.031642 0.000000 0.000000
# 5 0.000000 0.000000 0.000000 0.000000 0.031641 0.000000
# 6 0.000000 0.000000 0.000000 0.000000 0.000000 -0.070694
#
#
# Mechanical properties :
#
#
# Convention : Reuss Voigt Hill
#
# Bulk Modulus (GPa) = 37.67241 51.77404 44.72322
# Shear Modulus (GPa) = 18.36929 16.71494 17.54211
#
# Velocity S-wave (km/s) = 3.01440 2.87545 2.94574
# Velocity P-wave (km/s) = 5.54532 6.05268 5.80455
#
# Compressibility (1/GPa) = 0.02654463
#
# Stress axis : x y z
#
# Youngs Moduli (GPa) = 14.54331 14.54135 89.91891
#
# Poissons Ratio (x) = 0.70256 0.57270
# Poissons Ratio (y) = 0.70266 0.57271
# Poissons Ratio (z) = 0.09263 0.09262
#
# Static dielectric constant tensor:
#      x y z
#    x 1.724860 0.000000 0.000000 
#    y 0.000000 1.724860 0.000000 
#    z 0.000000 0.000000 1.733260 
# 
# From -- ./inp_files/11445.got.cif
#   From: 2010.05.17/outbox.cif.g08.bks.cpg/sg134_6_cif.got.tgz:11445.got - 2010.05.20 12:42:49.
