data_PCOD9568878
_publ_section_title
;
Structure prediction by ZEFSAII (Michael W. Deem and Ramdas Pophale) SiO2 
 PCOD9568878
Probable space group: P 42/M B C
;
_chemical_formula_sum "Si O2"
_cell_formula_units_Z 116
_cell_length_a 18.441825
_cell_length_b 18.441825
_cell_length_c 16.172048
_cell_angle_alpha 90.000000
_cell_angle_beta 90.000000
_cell_angle_gamma 90.000000
_cell_volume 5500.128231
_symmetry_space_group_name_H-M "P 42/M B C"
_symmetry_group_IT_number 135
_symmetry_cell_setting 'tetragonal'
loop_
_space_group_symop_operation_xyz
x,y,z
-y,x,1/2+z
-x,-y,z
y,-x,1/2+z
1/2+x,1/2-y,-z
1/2-x,1/2+y,-z
1/2+y,1/2+x,1/2-z
1/2-y,1/2-x,1/2-z
-x,-y,-z
y,-x,1/2-z
x,y,-z
-y,x,1/2-z
1/2-x,1/2+y,z
1/2+x,1/2-y,z
1/2-y,1/2-x,1/2+z
1/2+y,1/2+x,1/2+z
loop_
_atom_site_type_symbol
_atom_site_label
_atom_site_fract_x
_atom_site_fract_y
_atom_site_fract_z
Si Si1 0.447395 0.354418 0.313308
Si Si2 0.885323 0.002052 0.635492
Si Si3 0.276240 0.977653 0.097659
Si Si4 0.309962 0.262725 0.671730
Si Si5 0.134810 0.612283 0.095565
Si Si6 0.993139 0.286706 0.901442
Si Si7 0.000000 0.000000 0.500000
Si Si8 0.151279 0.331063 0.152016
O O1 0.411909 0.414560 0.372805
O O2 0.478246 0.390500 0.230702
O O3 0.503845 0.298085 0.354071
O O4 0.376700 0.307718 0.292292
O O5 0.799364 0.991776 0.618889
O O6 0.942848 0.967776 0.572422
O O7 0.305524 0.896957 0.110620
O O8 0.338811 0.034039 0.128864
O O9 0.264373 0.991420 0.000000
O O10 0.279156 0.220845 0.750000
O O11 0.340363 0.207357 0.604564
O O12 0.246055 0.311157 0.635296
O O13 0.071247 0.661925 0.133379
O O14 0.115691 0.599308 0.000000
O O15 0.068588 0.322160 0.874444
O O16 0.987815 0.289107 0.000000
O O17 0.155906 0.344095 0.250000
#
# Coordination Sequence:
#
# PCOD9568878 Si02
#       8
#    16  16  16  16  16  16   4  16
#     4  11  24  43  70  93 136 182 221 287 349 412
#     4  12  24  45  65  99 133 183 230 281 351 413
#     4  10  23  43  67 101 137 179 236 290 353 418
#     4  10  21  39  63  93 125 170 227 277 343 411
#     4   9  21  41  64  94 131 173 222 286 351 414
#     4  11  22  41  68  96 134 177 228 286 351 416
#     4  12  28  46  64 100 142 178 244 278 346 430
#     4  11  23  41  64  99 135 180 233 288 347 423
#
# _framework density 21.090416999999999
#
# number of rings (size 3 to 8) (size 9 to 14) (size 15 to 20)
#    0.000    1.379    2.069    2.897    2.897    2.759 
#    2.483    2.759    0.000    0.000    0.000    0.000 
#    0.000    0.000    0.000    0.000    0.000    0.000 
#
# Total GULP energy -646098.365930 kJ/mol
# GULP energy per Si atom -5569.813499 kJ/mol
# Density = 2.104241 g / cm^3
# Si number density = 21.090417 Si / 1000 Ang^3
#
#
#
# Elastic Constant Matrix: (Units=GPa)
#
#
# Indices 1 2 3 4 5 6 
#
# 1 96.1466 43.8152 22.4268 0.0000 0.0000 0.0000
# 2 43.8152 96.1455 22.4270 0.0000 0.0000 0.0000
# 3 22.4268 22.4270 43.3160 0.0000 0.0000 0.0000
# 4 0.0000 0.0000 0.0000 27.0241 0.0000 0.0000
# 5 0.0000 0.0000 0.0000 0.0000 27.0224 0.0000
# 6 0.0000 0.0000 0.0000 0.0000 0.0000 27.8603
#
#
#
# Elastic Compliance Matrix: (Units=1/GPa)
#
#
# Indices 1 2 3 4 5 6 
#
# 1 0.013838 -0.005272 -0.004435 0.000000 0.000000 0.000000
# 2 -0.005272 0.013838 -0.004435 0.000000 0.000000 0.000000
# 3 -0.004435 -0.004435 0.027679 0.000000 0.000000 0.000000
# 4 0.000000 0.000000 0.000000 0.037004 0.000000 0.000000
# 5 0.000000 0.000000 0.000000 0.000000 0.037006 0.000000
# 6 0.000000 0.000000 0.000000 0.000000 0.000000 0.035893
#
#
# Mechanical properties :
#
#
# Convention : Reuss Voigt Hill
#
# Bulk Modulus (GPa) = 36.94054 45.88290 41.41172
# Shear Modulus (GPa) = 24.68344 26.17730 25.43037
#
# Velocity S-wave (km/s) = 3.42477 3.52688 3.47620
# Velocity P-wave (km/s) = 5.76126 6.19578 5.98247
#
# Compressibility (1/GPa) = 0.02707053
#
# Stress axis : x y z
#
# Youngs Moduli (GPa) = 72.26699 72.26588 36.12882
#
# Poissons Ratio (x) = 0.38095 0.16023
# Poissons Ratio (y) = 0.38096 0.16024
# Poissons Ratio (z) = 0.32051 0.32052
#
# Static dielectric constant tensor:
#      x y z
#    x 1.786090 0.000000 0.000000 
#    y 0.000000 1.786080 0.000000 
#    z 0.000000 0.000000 1.790420 
# 
# From -- ./inp_files/4612.got.cif
#   From: 2010.05.17/outbox.cif.g08.bks.cpg/sg135_3_cif.got.tgz:4612.got - 2010.05.20 12:50:20.
