data_PCOD9568355
_publ_section_title
;
Structure prediction by ZEFSAII (Michael W. Deem and Ramdas Pophale) SiO2 
 PCOD9568355
Probable space group: P 42/N N M
;
_chemical_formula_sum "Si O2"
_cell_formula_units_Z 80
_cell_length_a 11.960775
_cell_length_b 11.960775
_cell_length_c 28.798737
_cell_angle_alpha 90.000000
_cell_angle_beta 90.000000
_cell_angle_gamma 90.000000
_cell_volume 4119.951307
_symmetry_space_group_name_H-M "P 42/N N M"
_symmetry_group_IT_number 134
_space_group.IT_coordinate_system_code '2'
_symmetry_cell_setting 'tetragonal'
loop_
_space_group_symop_operation_xyz
x,y,z
1/2-y,x,1/2+z
1/2-x,1/2-y,z
y,1/2-x,1/2+z
x,1/2-y,1/2-z
1/2-x,y,1/2-z
y,x,-z
1/2-y,1/2-x,-z
-x,-y,-z
1/2+y,-x,1/2-z
1/2+x,1/2+y,-z
-y,1/2+x,1/2-z
-x,1/2+y,1/2+z
1/2+x,-y,1/2+z
-y,-x,z
1/2+y,1/2+x,z
loop_
_atom_site_type_symbol
_atom_site_label
_atom_site_fract_x
_atom_site_fract_y
_atom_site_fract_z
Si Si1 0.626308 0.711905 0.376147
Si Si2 0.415717 0.405119 0.054387
Si Si3 0.025651 0.790068 0.608775
Si Si4 0.328037 0.005170 0.708062
Si Si5 0.982795 0.305097 0.699618
O O1 0.750000 0.750000 0.357262
O O2 0.603464 0.803342 0.415754
O O3 0.635942 0.586642 0.394400
O O4 0.530689 0.718977 0.337609
O O5 0.476938 0.523063 0.062032
O O6 0.501095 0.310567 0.073212
O O7 0.392109 0.392109 0.000000
O O8 0.135942 0.864059 0.601770
O O9 0.021521 0.737563 0.660670
O O10 0.250000 0.042669 0.750000
O O11 0.393981 0.893981 0.722959
O O12 0.421305 0.099279 0.699526
O O13 0.973520 0.250000 0.750000
O O14 0.867852 0.367852 0.687481
#
# Coordination Sequence:
#
# PCOD9568355 Si02
#       5
#    16  16  16  16  16
#     4  10  20  37  61  84 118 159 200 243 298 362
#     4  10  21  40  66  93 120 159 206 248 299 364
#     4  11  23  38  61  94 125 155 196 254 313 362
#     4  11  22  35  54  84 122 163 203 247 304 366
#     4  11  23  37  57  83 117 162 212 252 293 351
#
# _framework density 19.417704000000001
#
# number of rings (size 3 to 8) (size 9 to 14) (size 15 to 20)
#    0.000    1.400    4.000    3.000    0.000    8.800 
#    0.000    2.000    0.000    3.000    0.000    0.000 
#    0.000    0.000    0.000    0.000    0.000    0.000 
#
# Total GULP energy -446843.743266 kJ/mol
# GULP energy per Si atom -5585.546791 kJ/mol
# Density = 1.937351 g / cm^3
# Si number density = 19.417704 Si / 1000 Ang^3
#
#
#
# Elastic Constant Matrix: (Units=GPa)
#
#
# Indices 1 2 3 4 5 6 
#
# 1 -125.1229 166.5216 12.1285 0.0000 0.0000 0.0000
# 2 166.5216 -125.1229 12.1285 0.0000 0.0000 0.0000
# 3 12.1285 12.1285 71.6274 0.0000 0.0000 0.0000
# 4 0.0000 0.0000 0.0000 14.7724 0.0000 0.0000
# 5 0.0000 0.0000 0.0000 0.0000 14.7724 0.0000
# 6 0.0000 0.0000 0.0000 0.0000 0.0000 31.6042
#
#
#
# Elastic Compliance Matrix: (Units=1/GPa)
#
#
# Indices 1 2 3 4 5 6 
#
# 1 0.011694 0.015122 -0.004541 0.000000 0.000000 0.000000
# 2 0.015122 0.011694 -0.004541 0.000000 0.000000 0.000000
# 3 -0.004541 -0.004541 0.015499 0.000000 0.000000 0.000000
# 4 0.000000 0.000000 0.000000 0.067694 0.000000 0.000000
# 5 0.000000 0.000000 0.000000 0.000000 0.067694 0.000000
# 6 0.000000 0.000000 0.000000 0.000000 0.000000 0.031641
#
#
# Mechanical properties :
#
#
# Convention : Reuss Voigt Hill
#
# Bulk Modulus (GPa) = 19.62017 22.54875 21.08446
# Shear Modulus (GPa) = 23.71662 -12.39669 5.65997
#
# Velocity S-wave (km/s) = 3.49863 -2.52944 1.70915
# Velocity P-wave (km/s) = 5.14264 1.76264 3.84407
#
# Compressibility (1/GPa) = 0.05096796
#
# Stress axis : x y z
#
# Youngs Moduli (GPa) = 85.51737 85.51737 64.52085
#
# Poissons Ratio (x) = -1.29322 0.29297
# Poissons Ratio (y) = -1.29322 0.29297
# Poissons Ratio (z) = 0.38831 0.38831
#
# Static dielectric constant tensor:
#      x y z
#    x 1.694120 0.000000 0.000000 
#    y 0.000000 1.694120 0.000000 
#    z 0.000000 0.000000 1.657020 
# 
# From -- ./inp_files/11281.got.cif
#   From: 2010.05.17/outbox.cif.g08.bks.cpg/sg134_6_cif.got.tgz:11281.got - 2010.05.20 12:42:49.
