data_PCOD9568982
_publ_section_title
;
Structure prediction by ZEFSAII (Michael W. Deem and Ramdas Pophale) SiO2 
 PCOD9568982
Probable space group: P 42/M B C
;
_chemical_formula_sum "Si O2"
_cell_formula_units_Z 56
_cell_length_a 12.743341
_cell_length_b 12.743341
_cell_length_c 14.473468
_cell_angle_alpha 90.000000
_cell_angle_beta 90.000000
_cell_angle_gamma 90.000000
_cell_volume 2350.386124
_symmetry_space_group_name_H-M "P 42/M B C"
_symmetry_group_IT_number 135
_symmetry_cell_setting 'tetragonal'
loop_
_space_group_symop_operation_xyz
x,y,z
-y,x,1/2+z
-x,-y,z
y,-x,1/2+z
1/2+x,1/2-y,-z
1/2-x,1/2+y,-z
1/2+y,1/2+x,1/2-z
1/2-y,1/2-x,1/2-z
-x,-y,-z
y,-x,1/2-z
x,y,-z
-y,x,1/2-z
1/2-x,1/2+y,z
1/2+x,1/2-y,z
1/2-y,1/2-x,1/2+z
1/2+y,1/2+x,1/2+z
loop_
_atom_site_type_symbol
_atom_site_label
_atom_site_fract_x
_atom_site_fract_y
_atom_site_fract_z
Si Si1 0.498763 0.280950 0.646987
Si Si2 0.342310 0.377991 0.500000
Si Si3 0.425008 0.208883 0.000000
Si Si4 0.722657 0.353821 0.311371
Si Si5 0.901223 0.632047 0.500000
O O1 0.411367 0.343041 0.587579
O O2 0.450649 0.250517 0.745123
O O3 0.288167 0.137896 0.594711
O O4 0.541610 0.183299 0.587425
O O5 0.313765 0.501517 0.500000
O O6 0.222655 0.333103 0.500000
O O7 0.351603 0.399165 0.835519
O O8 0.507564 0.114106 0.000000
O O9 0.753224 0.253224 0.250000
#
# Coordination Sequence:
#
# PCOD9568982 Si02
#       5
#    16   8   8  16   8
#     4  11  23  42  71 107 144 182 233 305 359 427
#     4   9  20  42  73 102 136 183 237 293 365 416
#     4  10  24  46  68 104 141 186 245 292 354 432
#     4  12  27  43  70 104 145 189 241 291 367 427
#     4   9  22  44  74  96 145 184 230 302 359 415
#
# _framework density 23.825870999999999
#
# number of rings (size 3 to 8) (size 9 to 14) (size 15 to 20)
#    0.857    0.571    0.000    5.143    4.000    7.429 
#    0.000    4.286    0.000    0.000    0.000    0.000 
#    0.000    0.000    0.000    0.000    0.000    0.000 
#
# Total GULP energy -313424.436409 kJ/mol
# GULP energy per Si atom -5596.864936 kJ/mol
# Density = 2.377164 g / cm^3
# Si number density = 23.825871 Si / 1000 Ang^3
#
#
#
# Elastic Constant Matrix: (Units=GPa)
#
#
# Indices 1 2 3 4 5 6 
#
# 1 111.7734 18.9925 42.8022 0.0000 0.0000 0.0000
# 2 18.9925 111.7734 42.8022 0.0000 0.0000 0.0000
# 3 42.8022 42.8022 162.8169 0.0000 0.0000 0.0000
# 4 0.0000 0.0000 0.0000 20.8238 0.0000 0.0000
# 5 0.0000 0.0000 0.0000 0.0000 20.8238 0.0000
# 6 0.0000 0.0000 0.0000 0.0000 0.0000 44.6261
#
#
#
# Elastic Compliance Matrix: (Units=1/GPa)
#
#
# Indices 1 2 3 4 5 6 
#
# 1 0.010007 -0.000771 -0.002428 0.000000 0.000000 0.000000
# 2 -0.000771 0.010007 -0.002428 0.000000 0.000000 0.000000
# 3 -0.002428 -0.002428 0.007419 0.000000 0.000000 0.000000
# 4 0.000000 0.000000 0.000000 0.048022 0.000000 0.000000
# 5 0.000000 0.000000 0.000000 0.000000 0.048022 0.000000
# 6 0.000000 0.000000 0.000000 0.000000 0.000000 0.022408
#
#
# Mechanical properties :
#
#
# Convention : Reuss Voigt Hill
#
# Bulk Modulus (GPa) = 61.80716 66.17306 63.99011
# Shear Modulus (GPa) = 30.76296 36.03920 33.40108
#
# Velocity S-wave (km/s) = 3.59717 3.89345 3.74823
# Velocity P-wave (km/s) = 6.57650 6.93151 6.75633
#
# Compressibility (1/GPa) = 0.01617935
#
# Stress axis : x y z
#
# Youngs Moduli (GPa) = 99.92523 99.92523 134.79693
#
# Poissons Ratio (x) = 0.07700 0.32732
# Poissons Ratio (y) = 0.07700 0.32732
# Poissons Ratio (z) = 0.24264 0.24264
#
# Static dielectric constant tensor:
#      x y z
#    x 1.924790 0.000000 0.000000 
#    y 0.000000 1.924790 0.000000 
#    z 0.000000 0.000000 1.875330 
# 
# From -- ./inp_files/4120.got.cif
#   From: 2010.05.17/outbox.cif.g08.bks.cpg/sg135_3_cif.got.tgz:4120.got - 2010.05.20 12:50:20.
