data_PCOD9568589
_publ_section_title
;
Structure prediction by ZEFSAII (Michael W. Deem and Ramdas Pophale) SiO2 
 PCOD9568589
Probable space group: P 42/M B C
;
_chemical_formula_sum "Si O2"
_cell_formula_units_Z 48
_cell_length_a 16.717090
_cell_length_b 16.717090
_cell_length_c 8.476989
_cell_angle_alpha 90.000000
_cell_angle_beta 90.000000
_cell_angle_gamma 90.000000
_cell_volume 2368.988654
_symmetry_space_group_name_H-M "P 42/M B C"
_symmetry_group_IT_number 135
_symmetry_cell_setting 'tetragonal'
loop_
_space_group_symop_operation_xyz
x,y,z
-y,x,1/2+z
-x,-y,z
y,-x,1/2+z
1/2+x,1/2-y,-z
1/2-x,1/2+y,-z
1/2+y,1/2+x,1/2-z
1/2-y,1/2-x,1/2-z
-x,-y,-z
y,-x,1/2-z
x,y,-z
-y,x,1/2-z
1/2-x,1/2+y,z
1/2+x,1/2-y,z
1/2-y,1/2-x,1/2+z
1/2+y,1/2+x,1/2+z
loop_
_atom_site_type_symbol
_atom_site_label
_atom_site_fract_x
_atom_site_fract_y
_atom_site_fract_z
Si Si1 0.493950 0.876018 0.188731
Si Si2 0.416995 0.410773 0.183512
Si Si3 0.115068 0.743267 0.311827
O O1 0.558466 0.941535 0.250000
O O2 0.529931 0.794053 0.255859
O O3 0.408959 0.908959 0.250000
O O4 0.494694 0.874799 0.000000
O O5 0.396783 0.488422 0.286421
O O6 0.374066 0.330667 0.239424
O O7 0.402280 0.427931 0.000000
O O8 0.183329 0.683329 0.250000
O O9 0.116362 0.745782 0.500000
#
# Coordination Sequence:
#
# PCOD9568589 Si02
#       3
#    16  16  16
#     4  10  17  28  46  72 105 145 186 227 272 330
#     4  11  22  40  63  88 114 149 191 235 280 333
#     4  11  21  36  57  85 117 152 189 235 287 340
#
# _framework density 20.261811000000002
#
# number of rings (size 3 to 8) (size 9 to 14) (size 15 to 20)
#    0.000    1.333    0.000   13.000    0.000    0.000 
#    0.000    1.667    0.000    0.000    0.000    0.000 
#    0.000    0.000    0.000    0.000    0.000    0.000 
#
# Total GULP energy -268186.685257 kJ/mol
# GULP energy per Si atom -5587.222610 kJ/mol
# Density = 2.021569 g / cm^3
# Si number density = 20.261811 Si / 1000 Ang^3
#
#
#
# Elastic Constant Matrix: (Units=GPa)
#
#
# Indices 1 2 3 4 5 6 
#
# 1 45.8630 4.4575 -13.0193 0.0000 0.0000 0.0000
# 2 4.4575 45.8624 -13.0121 0.0000 0.0000 0.0000
# 3 -13.0193 -13.0121 125.5768 0.0000 0.0000 0.0000
# 4 0.0000 0.0000 0.0000 28.2708 0.0000 0.0000
# 5 0.0000 0.0000 0.0000 0.0000 28.2708 0.0000
# 6 0.0000 0.0000 0.0000 0.0000 0.0000 9.2566
#
#
#
# Elastic Compliance Matrix: (Units=1/GPa)
#
#
# Indices 1 2 3 4 5 6 
#
# 1 0.022575 -0.001576 0.002177 0.000000 0.000000 0.000000
# 2 -0.001576 0.022575 0.002176 0.000000 0.000000 0.000000
# 3 0.002177 0.002176 0.008414 0.000000 0.000000 0.000000
# 4 0.000000 0.000000 0.000000 0.035372 0.000000 0.000000
# 5 0.000000 0.000000 0.000000 0.000000 0.035372 0.000000
# 6 0.000000 0.000000 0.000000 0.000000 0.000000 0.108031
#
#
# Mechanical properties :
#
#
# Convention : Reuss Voigt Hill
#
# Bulk Modulus (GPa) = 16.91549 19.35052 18.13300
# Shear Modulus (GPa) = 20.28460 29.08474 24.68467
#
# Velocity S-wave (km/s) = 3.16749 3.79284 3.49418
# Velocity P-wave (km/s) = 4.66303 5.36207 5.02472
#
# Compressibility (1/GPa) = 0.05911743
#
# Stress axis : x y z
#
# Youngs Moduli (GPa) = 44.29616 44.29706 118.84363
#
# Poissons Ratio (x) = 0.06983 -0.25874
# Poissons Ratio (y) = 0.06983 -0.25857
# Poissons Ratio (z) = -0.09644 -0.09638
#
# Static dielectric constant tensor:
#      x y z
#    x 1.519730 0.000000 0.000000 
#    y 0.000000 1.519870 0.000000 
#    z 0.000000 0.000000 1.665010 
# 
# From -- ./inp_files/576.got.cif
#   From: 2010.05.17/outbox.cif.g08.bks.cpg/sg135_1_cif.got.tgz:576.got - 2010.05.20 12:50:20.
