data_PCOD9568750
_publ_section_title
;
Structure prediction by ZEFSAII (Michael W. Deem and Ramdas Pophale) SiO2 
 PCOD9568750
Probable space group: P 42/M B C
;
_chemical_formula_sum "Si O2"
_cell_formula_units_Z 96
_cell_length_a 14.560859
_cell_length_b 14.560859
_cell_length_c 23.781639
_cell_angle_alpha 90.000000
_cell_angle_beta 90.000000
_cell_angle_gamma 90.000000
_cell_volume 5042.150159
_symmetry_space_group_name_H-M "P 42/M B C"
_symmetry_group_IT_number 135
_symmetry_cell_setting 'tetragonal'
loop_
_space_group_symop_operation_xyz
x,y,z
-y,x,1/2+z
-x,-y,z
y,-x,1/2+z
1/2+x,1/2-y,-z
1/2-x,1/2+y,-z
1/2+y,1/2+x,1/2-z
1/2-y,1/2-x,1/2-z
-x,-y,-z
y,-x,1/2-z
x,y,-z
-y,x,1/2-z
1/2-x,1/2+y,z
1/2+x,1/2-y,z
1/2-y,1/2-x,1/2+z
1/2+y,1/2+x,1/2+z
loop_
_atom_site_type_symbol
_atom_site_label
_atom_site_fract_x
_atom_site_fract_y
_atom_site_fract_z
Si Si1 0.193113 0.812363 0.883310
Si Si2 0.772185 0.553479 0.207458
Si Si3 0.850523 0.540145 0.678715
Si Si4 0.360271 0.171596 0.689900
Si Si5 0.396003 0.507159 0.433080
Si Si6 0.775047 0.611527 0.565241
O O1 0.212791 0.878220 0.829751
O O2 0.184920 0.710193 0.859657
O O3 0.098350 0.845971 0.910165
O O4 0.283705 0.806602 0.922572
O O5 0.767901 0.555977 0.275526
O O6 0.877268 0.581364 0.192990
O O7 0.764762 0.448918 0.187661
O O8 0.883777 0.437262 0.689851
O O9 0.824505 0.552617 0.613806
O O10 0.312042 0.187959 0.750000
O O11 0.500000 0.500000 0.410411
O O12 0.402724 0.519488 0.500000
O O13 0.331855 0.417073 0.424810
O O14 0.795417 0.588819 0.500000
#
# Coordination Sequence:
#
# PCOD9568750 Si02
#       6
#    16  16  16  16  16  16
#     4  11  22  36  61  86 120 155 196 249 300 354
#     4   9  20  33  57  86 116 149 190 237 294 359
#     4   9  17  37  58  81 113 149 190 243 294 351
#     4  10  20  34  57  87 114 152 196 235 298 358
#     4  10  22  41  62  84 118 162 204 244 299 361
#     4  10  21  37  59  83 112 153 200 244 288 343
#
# _framework density 19.039497000000001
#
# number of rings (size 3 to 8) (size 9 to 14) (size 15 to 20)
#    0.000    2.167    1.667    1.000    7.000    2.000 
#    0.000    0.000    0.000   10.000    0.000    0.000 
#    0.000    0.000    0.000    0.000    0.000    0.000 
#
# Total GULP energy -534473.883637 kJ/mol
# GULP energy per Si atom -5567.436288 kJ/mol
# Density = 1.899616 g / cm^3
# Si number density = 19.039497 Si / 1000 Ang^3
#
#
#
# Elastic Constant Matrix: (Units=GPa)
#
#
# Indices 1 2 3 4 5 6 
#
# 1 53.4952 13.0338 20.3368 0.0000 0.0000 0.0000
# 2 13.0338 53.4956 20.3370 0.0000 0.0000 0.0000
# 3 20.3368 20.3370 86.5304 0.0000 0.0000 0.0000
# 4 0.0000 0.0000 0.0000 16.8844 0.0000 0.0000
# 5 0.0000 0.0000 0.0000 0.0000 16.8845 0.0000
# 6 0.0000 0.0000 0.0000 0.0000 0.0000 15.3886
#
#
#
# Elastic Compliance Matrix: (Units=1/GPa)
#
#
# Indices 1 2 3 4 5 6 
#
# 1 0.021134 -0.003581 -0.004125 0.000000 0.000000 0.000000
# 2 -0.003581 0.021134 -0.004125 0.000000 0.000000 0.000000
# 3 -0.004125 -0.004125 0.013496 0.000000 0.000000 0.000000
# 4 0.000000 0.000000 0.000000 0.059226 0.000000 0.000000
# 5 0.000000 0.000000 0.000000 0.000000 0.059226 0.000000
# 6 0.000000 0.000000 0.000000 0.000000 0.000000 0.064983
#
#
# Mechanical properties :
#
#
# Convention : Reuss Voigt Hill
#
# Bulk Modulus (GPa) = 31.15232 33.43737 32.29485
# Shear Modulus (GPa) = 18.27733 19.15239 18.71486
#
# Velocity S-wave (km/s) = 3.10170 3.17508 3.13860
# Velocity P-wave (km/s) = 5.40600 5.57151 5.48938
#
# Compressibility (1/GPa) = 0.03210033
#
# Stress axis : x y z
#
# Youngs Moduli (GPa) = 47.31696 47.31727 74.09707
#
# Poissons Ratio (x) = 0.16944 0.30568
# Poissons Ratio (y) = 0.16943 0.30568
# Poissons Ratio (z) = 0.19520 0.19521
#
# Static dielectric constant tensor:
#      x y z
#    x 1.679250 0.000000 0.000000 
#    y 0.000000 1.679250 0.000000 
#    z 0.000000 0.000000 1.673690 
# 
# From -- ./inp_files/5477.got.cif
#   From: 2010.05.17/outbox.cif.g08.bks.cpg/sg135_3_cif.got.tgz:5477.got - 2010.05.20 12:50:20.
