data_PCOD9568343
_publ_section_title
;
Structure prediction by ZEFSAII (Michael W. Deem and Ramdas Pophale) SiO2 
 PCOD9568343
Probable space group: P 42/N N M
;
_chemical_formula_sum "Si O2"
_cell_formula_units_Z 112
_cell_length_a 14.839454
_cell_length_b 14.839454
_cell_length_c 22.524395
_cell_angle_alpha 90.000000
_cell_angle_beta 90.000000
_cell_angle_gamma 90.000000
_cell_volume 4960.083396
_symmetry_space_group_name_H-M "P 42/N N M"
_symmetry_group_IT_number 134
_space_group.IT_coordinate_system_code '2'
_symmetry_cell_setting 'tetragonal'
loop_
_space_group_symop_operation_xyz
x,y,z
1/2-y,x,1/2+z
1/2-x,1/2-y,z
y,1/2-x,1/2+z
x,1/2-y,1/2-z
1/2-x,y,1/2-z
y,x,-z
1/2-y,1/2-x,-z
-x,-y,-z
1/2+y,-x,1/2-z
1/2+x,1/2+y,-z
-y,1/2+x,1/2-z
-x,1/2+y,1/2+z
1/2+x,-y,1/2+z
-y,-x,z
1/2+y,1/2+x,z
loop_
_atom_site_type_symbol
_atom_site_label
_atom_site_fract_x
_atom_site_fract_y
_atom_site_fract_z
Si Si1 0.493203 0.650318 0.863615
Si Si2 0.070678 0.071343 0.571331
Si Si3 0.665986 0.027571 0.710322
Si Si4 0.718949 0.429578 0.597295
Si Si5 0.746146 0.103218 0.034284
Si Si6 0.269539 0.355930 0.644919
Si Si7 0.526343 0.884012 0.760155
O O1 0.445314 0.554687 0.878036
O O2 0.448580 0.723252 0.907288
O O3 0.598381 0.673064 0.869158
O O4 0.476190 0.667365 0.793756
O O5 0.072102 0.072102 0.500000
O O6 0.165430 0.112893 0.591701
O O7 0.001811 0.139725 0.603292
O O8 0.025961 0.974040 0.585962
O O9 0.750000 0.002361 0.750000
O O10 0.619530 0.119530 0.732700
O O11 0.703938 0.049086 0.644832
O O12 0.592033 0.951510 0.723096
O O13 0.668803 0.331198 0.602265
O O14 0.750828 0.443965 0.529472
O O15 0.817106 0.182895 0.029230
O O16 0.648860 0.148860 0.038856
O O17 0.250000 0.250000 0.654734
O O18 0.322795 0.409034 0.698662
O O19 0.450255 0.950255 0.788284
#
# Coordination Sequence:
#
# PCOD9568343 Si02
#       7
#    16  16  16  16  16  16  16
#     4  10  23  43  64  93 128 166 213 271 340 403
#     4  10  22  42  67  98 139 184 226 273 340 415
#     4  11  23  37  59  88 127 173 214 267 326 395
#     4  10  20  36  62  94 131 173 218 274 335 401
#     4   9  18  36  65  98 132 172 222 279 339 407
#     4  12  26  42  71 103 131 177 228 289 340 405
#     4  10  24  45  64  88 129 175 222 272 335 410
#
# _framework density 22.580266000000002
#
# number of rings (size 3 to 8) (size 9 to 14) (size 15 to 20)
#    0.000    1.714    0.000    3.429    4.000    7.000 
#    0.000    1.429    0.000    4.286    0.000    0.000 
#    0.000    0.000    0.000    0.000    0.000    0.000 
#
# Total GULP energy -623567.558961 kJ/mol
# GULP energy per Si atom -5567.567491 kJ/mol
# Density = 2.252887 g / cm^3
# Si number density = 22.580266 Si / 1000 Ang^3
#
#
#
# Elastic Constant Matrix: (Units=GPa)
#
#
# Indices 1 2 3 4 5 6 
#
# 1 78.7544 57.2008 31.7244 0.0000 0.0000 0.0000
# 2 57.2008 78.7544 31.7244 0.0000 0.0000 0.0000
# 3 31.7244 31.7244 125.9001 0.0000 0.0000 0.0000
# 4 0.0000 0.0000 0.0000 30.6561 0.0000 0.0000
# 5 0.0000 0.0000 0.0000 0.0000 30.6561 0.0000
# 6 0.0000 0.0000 0.0000 0.0000 0.0000 35.0298
#
#
#
# Elastic Compliance Matrix: (Units=1/GPa)
#
#
# Indices 1 2 3 4 5 6 
#
# 1 0.027366 -0.019030 -0.002100 0.000000 0.000000 0.000000
# 2 -0.019030 0.027366 -0.002100 0.000000 0.000000 0.000000
# 3 -0.002100 -0.002100 0.009001 0.000000 0.000000 0.000000
# 4 0.000000 0.000000 0.000000 0.032620 0.000000 0.000000
# 5 0.000000 0.000000 0.000000 0.000000 0.032620 0.000000
# 6 0.000000 0.000000 0.000000 0.000000 0.000000 0.028547
#
#
# Mechanical properties :
#
#
# Convention : Reuss Voigt Hill
#
# Bulk Modulus (GPa) = 57.90089 58.30090 58.10089
# Shear Modulus (GPa) = 23.83915 30.11903 26.97909
#
# Velocity S-wave (km/s) = 3.25276 3.65617 3.46035
# Velocity P-wave (km/s) = 6.30913 6.61052 6.46158
#
# Compressibility (1/GPa) = 0.01727089
#
# Stress axis : x y z
#
# Youngs Moduli (GPa) = 36.54192 36.54192 111.09462
#
# Poissons Ratio (x) = 0.69540 0.23334
# Poissons Ratio (y) = 0.69540 0.23334
# Poissons Ratio (z) = 0.07675 0.07675
#
# Static dielectric constant tensor:
#      x y z
#    x 1.901910 0.000000 0.000000 
#    y 0.000000 1.901910 0.000000 
#    z 0.000000 0.000000 1.873090 
# 
# From -- ./inp_files/10141.got.cif
#   From: 2010.05.17/outbox.cif.g08.bks.cpg/sg134_6_cif.got.tgz:10141.got - 2010.05.20 12:42:49.
