data_PCOD9568702
_publ_section_title
;
Structure prediction by ZEFSAII (Michael W. Deem and Ramdas Pophale) SiO2 
 PCOD9568702
Probable space group: P 42/M B C
;
_chemical_formula_sum "Si O2"
_cell_formula_units_Z 104
_cell_length_a 17.547674
_cell_length_b 17.547674
_cell_length_c 16.474890
_cell_angle_alpha 90.000000
_cell_angle_beta 90.000000
_cell_angle_gamma 90.000000
_cell_volume 5072.962344
_symmetry_space_group_name_H-M "P 42/M B C"
_symmetry_group_IT_number 135
_symmetry_cell_setting 'tetragonal'
loop_
_space_group_symop_operation_xyz
x,y,z
-y,x,1/2+z
-x,-y,z
y,-x,1/2+z
1/2+x,1/2-y,-z
1/2-x,1/2+y,-z
1/2+y,1/2+x,1/2-z
1/2-y,1/2-x,1/2-z
-x,-y,-z
y,-x,1/2-z
x,y,-z
-y,x,1/2-z
1/2-x,1/2+y,z
1/2+x,1/2-y,z
1/2-y,1/2-x,1/2+z
1/2+y,1/2+x,1/2+z
loop_
_atom_site_type_symbol
_atom_site_label
_atom_site_fract_x
_atom_site_fract_y
_atom_site_fract_z
Si Si1 0.218515 0.672669 0.912604
Si Si2 0.696178 0.196178 0.750000
Si Si3 0.155496 0.158468 0.590199
Si Si4 0.906256 0.681802 0.597389
Si Si5 0.694319 0.473299 0.713031
Si Si6 0.149181 0.857307 0.321378
Si Si7 0.649200 0.951210 0.203471
O O1 0.199811 0.761769 0.908911
O O2 0.308872 0.662284 0.902040
O O3 0.178402 0.625259 0.841874
O O4 0.192659 0.643406 0.000000
O O5 0.663404 0.156691 0.832153
O O6 0.786177 0.180847 0.738066
O O7 0.142453 0.128775 0.500000
O O8 0.094126 0.225534 0.603922
O O9 0.164737 0.088109 0.648859
O O10 0.893600 0.664903 0.500000
O O11 0.983266 0.647055 0.635085
O O12 0.667585 0.554907 0.684344
O O13 0.658012 0.437282 0.794191
O O14 0.784666 0.473745 0.732089
O O15 0.572490 0.927511 0.250000
#
# Coordination Sequence:
#
# PCOD9568702 Si02
#       7
#    16   8  16  16  16  16  16
#     4  10  20  35  58  89 121 157 208 267 315 377
#     4  12  20  40  63  92 118 169 222 274 320 396
#     4  10  19  34  59  89 125 164 211 265 319 382
#     4  11  23  40  65  94 126 169 217 266 326 399
#     4  11  20  37  55  93 120 170 205 265 320 387
#     4  11  22  34  62  84 128 163 215 260 324 387
#     4  11  21  36  62  89 122 163 210 265 324 382
#
# _framework density 20.500841999999999
#
# number of rings (size 3 to 8) (size 9 to 14) (size 15 to 20)
#    0.000    1.231    6.154    0.462    2.154    0.923 
#    0.000    0.385    0.000    2.769    0.000    8.615 
#    0.000    0.000    0.000    0.000    0.000    0.000 
#
# Total GULP energy -579598.928659 kJ/mol
# GULP energy per Si atom -5573.066622 kJ/mol
# Density = 2.045418 g / cm^3
# Si number density = 20.500842 Si / 1000 Ang^3
#
#
#
# Elastic Constant Matrix: (Units=GPa)
#
#
# Indices 1 2 3 4 5 6 
#
# 1 65.6329 7.9766 14.0851 0.0000 0.0000 0.0000
# 2 7.9766 65.6314 14.0848 0.0000 0.0000 0.0000
# 3 14.0851 14.0848 102.5627 0.0000 0.0000 0.0000
# 4 0.0000 0.0000 0.0000 25.2660 0.0000 0.0000
# 5 0.0000 0.0000 0.0000 0.0000 25.2660 0.0000
# 6 0.0000 0.0000 0.0000 0.0000 0.0000 15.6323
#
#
#
# Elastic Compliance Matrix: (Units=1/GPa)
#
#
# Indices 1 2 3 4 5 6 
#
# 1 0.015841 -0.001503 -0.001969 0.000000 0.000000 0.000000
# 2 -0.001503 0.015842 -0.001969 0.000000 0.000000 0.000000
# 3 -0.001969 -0.001969 0.010291 0.000000 0.000000 0.000000
# 4 0.000000 0.000000 0.000000 0.039579 0.000000 0.000000
# 5 0.000000 0.000000 0.000000 0.000000 0.039579 0.000000
# 6 0.000000 0.000000 0.000000 0.000000 0.000000 0.063970
#
#
# Mechanical properties :
#
#
# Convention : Reuss Voigt Hill
#
# Bulk Modulus (GPa) = 32.16242 34.01334 33.08788
# Shear Modulus (GPa) = 24.23088 26.41155 25.32121
#
# Velocity S-wave (km/s) = 3.44167 3.59321 3.51826
# Velocity P-wave (km/s) = 5.61390 5.81739 5.71655
#
# Compressibility (1/GPa) = 0.03109219
#
# Stress axis : x y z
#
# Youngs Moduli (GPa) = 63.12539 63.12395 97.17236
#
# Poissons Ratio (x) = 0.09486 0.19135
# Poissons Ratio (y) = 0.09486 0.19135
# Poissons Ratio (z) = 0.12430 0.12430
#
# Static dielectric constant tensor:
#      x y z
#    x 1.740570 0.000000 0.000000 
#    y 0.000000 1.740570 0.000000 
#    z 0.000000 0.000000 1.848870 
# 
# From -- ./inp_files/4548.got.cif
#   From: 2010.05.17/outbox.cif.g08.bks.cpg/sg135_3_cif.got.tgz:4548.got - 2010.05.20 12:50:20.
