data_PCOD9568217
_publ_section_title
;
Structure prediction by ZEFSAII (Michael W. Deem and Ramdas Pophale) SiO2 
 PCOD9568217
Probable space group: P 42/N N M
;
_chemical_formula_sum "Si O2"
_cell_formula_units_Z 72
_cell_length_a 20.434954
_cell_length_b 20.434954
_cell_length_c 9.581046
_cell_angle_alpha 90.000000
_cell_angle_beta 90.000000
_cell_angle_gamma 90.000000
_cell_volume 4000.923561
_symmetry_space_group_name_H-M "P 42/N N M"
_symmetry_group_IT_number 134
_space_group.IT_coordinate_system_code '2'
_symmetry_cell_setting 'tetragonal'
loop_
_space_group_symop_operation_xyz
x,y,z
1/2-y,x,1/2+z
1/2-x,1/2-y,z
y,1/2-x,1/2+z
x,1/2-y,1/2-z
1/2-x,y,1/2-z
y,x,-z
1/2-y,1/2-x,-z
-x,-y,-z
1/2+y,-x,1/2-z
1/2+x,1/2+y,-z
-y,1/2+x,1/2-z
-x,1/2+y,1/2+z
1/2+x,-y,1/2+z
-y,-x,z
1/2+y,1/2+x,z
loop_
_atom_site_type_symbol
_atom_site_label
_atom_site_fract_x
_atom_site_fract_y
_atom_site_fract_z
Si Si1 0.412672 0.478153 0.302920
Si Si2 0.463872 0.712541 0.444580
Si Si3 0.516211 0.374586 0.304438
Si Si4 0.149196 0.750000 0.250000
Si Si5 0.365161 0.972286 0.474290
O O1 0.461658 0.538343 0.341196
O O2 0.341904 0.491390 0.368906
O O3 0.449157 0.411762 0.344542
O O4 0.404186 0.482482 0.134916
O O5 0.467382 0.688949 0.604651
O O6 0.395060 0.712370 0.362600
O O7 0.479052 0.789268 0.433303
O O8 0.574099 0.425902 0.334575
O O9 0.513561 0.366878 0.138220
O O10 0.196719 0.803282 0.180624
O O11 0.401384 0.901384 0.456513
#
# Coordination Sequence:
#
# PCOD9568217 Si02
#       5
#    16  16  16   8  16
#     4  10  19  34  54  76 104 139 178 222 272 322
#     4  12  20  33  52  77 106 137 183 220 264 310
#     4  10  21  34  52  77 107 139 175 226 280 321
#     4  11  22  34  50  72 104 150 193 222 252 308
#     4  10  20  35  53  76 109 144 174 213 269 325
#
# _framework density 17.995846
#
# number of rings (size 3 to 8) (size 9 to 14) (size 15 to 20)
#    0.000    1.444    2.222    4.667    0.000    4.444 
#    0.000    0.000    0.000    0.000    0.000   15.556 
#    0.000   62.222    0.000    0.000    0.000    0.000 
#
# Total GULP energy -401102.565478 kJ/mol
# GULP energy per Si atom -5570.868965 kJ/mol
# Density = 1.795489 g / cm^3
# Si number density = 17.995846 Si / 1000 Ang^3
#
#
#
# Elastic Constant Matrix: (Units=GPa)
#
#
# Indices 1 2 3 4 5 6 
#
# 1 65.6139 45.6575 13.4619 0.0000 0.0000 0.0000
# 2 45.6575 65.6139 13.4619 0.0000 0.0000 0.0000
# 3 13.4619 13.4619 90.0724 0.0000 0.0000 0.0000
# 4 0.0000 0.0000 0.0000 22.9324 0.0000 0.0000
# 5 0.0000 0.0000 0.0000 0.0000 22.9324 0.0000
# 6 0.0000 0.0000 0.0000 0.0000 0.0000 29.0663
#
#
#
# Elastic Compliance Matrix: (Units=1/GPa)
#
#
# Indices 1 2 3 4 5 6 
#
# 1 0.029717 -0.020393 -0.001394 0.000000 0.000000 0.000000
# 2 -0.020393 0.029717 -0.001394 0.000000 0.000000 0.000000
# 3 -0.001394 -0.001394 0.011519 0.000000 0.000000 0.000000
# 4 0.000000 0.000000 0.000000 0.043606 0.000000 0.000000
# 5 0.000000 0.000000 0.000000 0.000000 0.043606 0.000000
# 6 0.000000 0.000000 0.000000 0.000000 0.000000 0.034404
#
#
# Mechanical properties :
#
#
# Convention : Reuss Voigt Hill
#
# Bulk Modulus (GPa) = 40.66206 40.71806 40.69006
# Shear Modulus (GPa) = 20.23258 24.90082 22.56670
#
# Velocity S-wave (km/s) = 3.35668 3.72385 3.54502
# Velocity P-wave (km/s) = 6.13738 6.41598 6.27823
#
# Compressibility (1/GPa) = 0.02459295
#
# Stress axis : x y z
#
# Youngs Moduli (GPa) = 33.65104 33.65104 86.81509
#
# Poissons Ratio (x) = 0.68623 0.12098
# Poissons Ratio (y) = 0.68623 0.12098
# Poissons Ratio (z) = 0.04689 0.04689
#
# Static dielectric constant tensor:
#      x y z
#    x 1.615120 0.000000 0.000000 
#    y 0.000000 1.615120 0.000000 
#    z 0.000000 0.000000 1.706850 
# 
# From -- ./inp_files/2912.got.cif
#   From: 2010.05.17/outbox.cif.g08.bks.cpg/sg134_2_cif.got.tgz:2912.got - 2010.05.20 12:42:49.
