data_PCOD9568251
_publ_section_title
;
Structure prediction by ZEFSAII (Michael W. Deem and Ramdas Pophale) SiO2 
 PCOD9568251
Probable space group: P 42/N N M
;
_chemical_formula_sum "Si O2"
_cell_formula_units_Z 112
_cell_length_a 23.028688
_cell_length_b 23.028688
_cell_length_c 12.994798
_cell_angle_alpha 90.000000
_cell_angle_beta 90.000000
_cell_angle_gamma 90.000000
_cell_volume 6891.407396
_symmetry_space_group_name_H-M "P 42/N N M"
_symmetry_group_IT_number 134
_space_group.IT_coordinate_system_code '2'
_symmetry_cell_setting 'tetragonal'
loop_
_space_group_symop_operation_xyz
x,y,z
1/2-y,x,1/2+z
1/2-x,1/2-y,z
y,1/2-x,1/2+z
x,1/2-y,1/2-z
1/2-x,y,1/2-z
y,x,-z
1/2-y,1/2-x,-z
-x,-y,-z
1/2+y,-x,1/2-z
1/2+x,1/2+y,-z
-y,1/2+x,1/2-z
-x,1/2+y,1/2+z
1/2+x,-y,1/2+z
-y,-x,z
1/2+y,1/2+x,z
loop_
_atom_site_type_symbol
_atom_site_label
_atom_site_fract_x
_atom_site_fract_y
_atom_site_fract_z
Si Si1 0.030844 0.869208 0.545507
Si Si2 0.841940 0.252965 0.938092
Si Si3 0.523894 0.924072 0.765240
Si Si4 0.516162 0.383954 0.686380
Si Si5 0.595616 0.995747 0.460279
Si Si6 0.286799 0.618235 0.650735
Si Si7 0.332868 0.933457 0.380317
O O1 0.079473 0.920528 0.541616
O O2 0.008636 0.862332 0.429820
O O3 0.063901 0.814061 0.591488
O O4 0.984356 0.888834 0.629950
O O5 0.792546 0.207455 0.905661
O O6 0.817251 0.317251 0.911019
O O7 0.901972 0.228608 0.895762
O O8 0.848006 0.251895 0.061811
O O9 0.514969 0.889283 0.659313
O O10 0.472900 0.972900 0.764636
O O11 0.583507 0.959531 0.770226
O O12 0.566256 0.433745 0.683509
O O13 0.537327 0.337940 0.769465
O O14 0.546323 0.046323 0.463263
O O15 0.646890 0.020454 0.532339
O O16 0.561770 0.938231 0.500000
O O17 0.250000 0.603432 0.750000
O O18 0.339781 0.660220 0.683311
O O19 0.381919 0.881919 0.385506
#
# Coordination Sequence:
#
# PCOD9568251 Si02
#       7
#    16  16  16  16  16  16  16
#     4   9  18  28  40  58  78 102 130 159 202 266
#     4   9  18  31  45  59  73  97 143 196 241 279
#     4   9  15  23  38  60  85 107 122 145 189 258
#     4   9  15  26  41  59  83 105 123 148 198 269
#     4   9  14  21  34  58  87 106 122 147 195 266
#     4  10  20  32  44  57  73  98 136 187 238 275
#     4   9  16  25  41  60  80 105 128 165 219 272
#
# _framework density 16.252123000000001
#
# number of rings (size 3 to 8) (size 9 to 14) (size 15 to 20)
#    0.000    2.857    1.429    0.857    2.000    2.429 
#    0.000    0.714    0.000    3.429    0.000   12.000 
#    0.000    0.000    0.000    0.000    0.000    0.000 
#
# Total GULP energy -623809.880565 kJ/mol
# GULP energy per Si atom -5569.731076 kJ/mol
# Density = 1.621513 g / cm^3
# Si number density = 16.252123 Si / 1000 Ang^3
#
#
#
# Elastic Constant Matrix: (Units=GPa)
#
#
# Indices 1 2 3 4 5 6 
#
# 1 34.3078 32.9705 36.0866 0.0000 0.0000 0.0000
# 2 32.9705 34.3081 36.0869 0.0000 0.0000 0.0000
# 3 36.0866 36.0869 131.5829 0.0000 0.0000 0.0000
# 4 0.0000 0.0000 0.0000 11.4380 0.0000 0.0000
# 5 0.0000 0.0000 0.0000 0.0000 11.4380 0.0000
# 6 0.0000 0.0000 0.0000 0.0000 0.0000 27.0406
#
#
#
# Elastic Compliance Matrix: (Units=1/GPa)
#
#
# Indices 1 2 3 4 5 6 
#
# 1 0.384393 -0.363333 -0.005775 0.000000 0.000000 0.000000
# 2 -0.363333 0.384391 -0.005776 0.000000 0.000000 0.000000
# 3 -0.005775 -0.005776 0.010768 0.000000 0.000000 0.000000
# 4 0.000000 0.000000 0.000000 0.087428 0.000000 0.000000
# 5 0.000000 0.000000 0.000000 0.000000 0.087428 0.000000
# 6 0.000000 0.000000 0.000000 0.000000 0.000000 0.036981
#
#
# Mechanical properties :
#
#
# Convention : Reuss Voigt Hill
#
# Bulk Modulus (GPa) = 33.57485 45.60966 39.59226
# Shear Modulus (GPa) = 2.85537 16.32029 9.58783
#
# Velocity S-wave (km/s) = 1.32693 3.17234 2.43151
# Velocity P-wave (km/s) = 4.80117 6.44539 5.68306
#
# Compressibility (1/GPa) = 0.02978420
#
# Stress axis : x y z
#
# Youngs Moduli (GPa) = 2.60150 2.60152 92.87054
#
# Poissons Ratio (x) = 0.94522 0.53635
# Poissons Ratio (y) = 0.94521 0.53641
# Poissons Ratio (z) = 0.01502 0.01503
#
# Static dielectric constant tensor:
#      x y z
#    x 1.555910 0.000000 0.000000 
#    y 0.000000 1.555910 0.000000 
#    z 0.000000 0.000000 1.582200 
# 
# From -- ./inp_files/5249.got.cif
#   From: 2010.05.17/outbox.cif.g08.bks.cpg/sg134_3_cif.got.tgz:5249.got - 2010.05.20 12:42:49.
