data_PCOD9568779
_publ_section_title
;
Structure prediction by ZEFSAII (Michael W. Deem and Ramdas Pophale) SiO2 
 PCOD9568779
Probable space group: P 42/M B C
;
_chemical_formula_sum "Si O2"
_cell_formula_units_Z 72
_cell_length_a 20.640305
_cell_length_b 20.640305
_cell_length_c 9.619715
_cell_angle_alpha 90.000000
_cell_angle_beta 90.000000
_cell_angle_gamma 90.000000
_cell_volume 4098.212056
_symmetry_space_group_name_H-M "P 42/M B C"
_symmetry_group_IT_number 135
_symmetry_cell_setting 'tetragonal'
loop_
_space_group_symop_operation_xyz
x,y,z
-y,x,1/2+z
-x,-y,z
y,-x,1/2+z
1/2+x,1/2-y,-z
1/2-x,1/2+y,-z
1/2+y,1/2+x,1/2-z
1/2-y,1/2-x,1/2-z
-x,-y,-z
y,-x,1/2-z
x,y,-z
-y,x,1/2-z
1/2-x,1/2+y,z
1/2+x,1/2-y,z
1/2-y,1/2-x,1/2+z
1/2+y,1/2+x,1/2+z
loop_
_atom_site_type_symbol
_atom_site_label
_atom_site_fract_x
_atom_site_fract_y
_atom_site_fract_z
Si Si1 0.760974 0.904326 0.842249
Si Si2 0.891738 0.525068 0.343849
Si Si3 0.950298 0.731780 0.661344
Si Si4 0.883396 0.383396 0.250000
Si Si5 0.307775 0.712600 0.664061
O O1 0.684146 0.888651 0.830658
O O2 0.793923 0.857252 0.731500
O O3 0.768137 0.981234 0.814148
O O4 0.782655 0.890732 0.000000
O O5 0.950019 0.549982 0.250000
O O6 0.897570 0.549438 0.500000
O O7 0.827839 0.551011 0.267023
O O8 0.886908 0.447564 0.343019
O O9 0.953946 0.709005 0.500000
O O10 0.883881 0.770891 0.676352
O O11 0.264488 0.764488 0.750000
O O12 0.290374 0.714430 0.500000
#
# Coordination Sequence:
#
# PCOD9568779 Si02
#       5
#    16  16  16   8  16
#     4  10  20  36  57  80 109 141 179 228 279 326
#     4  11  22  34  51  75 106 147 189 226 268 322
#     4   9  21  39  56  78 110 144 181 230 280 329
#     4  10  21  34  52  76 108 140 182 223 270 322
#     4  11  22  36  57  84 113 145 184 227 276 332
#
# _framework density 17.568636999999999
#
# number of rings (size 3 to 8) (size 9 to 14) (size 15 to 20)
#    0.000    1.778    1.111    3.000    0.000   10.667 
#    0.000    0.000    0.000    0.667    0.000    4.667 
#    0.000    0.000    0.000    0.000    0.000    0.000 
#
# Total GULP energy -401818.814878 kJ/mol
# GULP energy per Si atom -5580.816873 kJ/mol
# Density = 1.752865 g / cm^3
# Si number density = 17.568637 Si / 1000 Ang^3
#
#
#
# Elastic Constant Matrix: (Units=GPa)
#
#
# Indices 1 2 3 4 5 6 
#
# 1 89.0944 51.0004 63.7325 0.0000 0.0000 0.0000
# 2 51.0004 89.0965 63.7335 0.0000 0.0000 0.0000
# 3 63.7325 63.7335 148.3640 0.0000 0.0000 0.0000
# 4 0.0000 0.0000 0.0000 -16.2036 0.0000 0.0000
# 5 0.0000 0.0000 0.0000 0.0000 -16.1771 0.0000
# 6 0.0000 0.0000 0.0000 0.0000 0.0000 26.7087
#
#
#
# Elastic Compliance Matrix: (Units=1/GPa)
#
#
# Indices 1 2 3 4 5 6 
#
# 1 0.018984 -0.007266 -0.005034 0.000000 0.000000 0.000000
# 2 -0.007266 0.018984 -0.005034 0.000000 0.000000 0.000000
# 3 -0.005034 -0.005034 0.011065 0.000000 0.000000 0.000000
# 4 0.000000 0.000000 0.000000 -0.061715 0.000000 0.000000
# 5 0.000000 0.000000 0.000000 0.000000 -0.061816 0.000000
# 6 0.000000 0.000000 0.000000 0.000000 0.000000 0.037441
#
#
# Mechanical properties :
#
#
# Convention : Reuss Voigt Hill
#
# Bulk Modulus (GPa) = 69.60944 75.94307 72.77625
# Shear Modulus (GPa) = 2084.33049 8.73816 1046.53433
#
# Velocity S-wave (km/s) = 34.48142 2.23261 24.43310
# Velocity P-wave (km/s) = 40.31127 7.06869 28.93929
#
# Compressibility (1/GPa) = 0.01436587
#
# Stress axis : x y z
#
# Youngs Moduli (GPa) = 52.67544 52.67654 90.37672
#
# Poissons Ratio (x) = 0.38276 0.45492
# Poissons Ratio (y) = 0.38275 0.45492
# Poissons Ratio (z) = 0.26515 0.26516
#
# Static dielectric constant tensor:
#      x y z
#    x 1.603330 0.000000 0.000000 
#    y 0.000000 1.603330 0.000000 
#    z 0.000000 0.000000 1.607360 
# 
# From -- ./inp_files/1037.got.cif
#   From: 2010.05.17/outbox.cif.g08.bks.cpg/sg135_1_cif.got.tgz:1037.got - 2010.05.20 12:50:20.
