data_PCOD9568470
_publ_section_title
;
Structure prediction by ZEFSAII (Michael W. Deem and Ramdas Pophale) SiO2 
 PCOD9568470
Probable space group: P 42/N N M
;
_chemical_formula_sum "Si O2"
_cell_formula_units_Z 112
_cell_length_a 14.533463
_cell_length_b 14.533463
_cell_length_c 30.835811
_cell_angle_alpha 90.000000
_cell_angle_beta 90.000000
_cell_angle_gamma 90.000000
_cell_volume 6513.187695
_symmetry_space_group_name_H-M "P 42/N N M"
_symmetry_group_IT_number 134
_space_group.IT_coordinate_system_code '2'
_symmetry_cell_setting 'tetragonal'
loop_
_space_group_symop_operation_xyz
x,y,z
1/2-y,x,1/2+z
1/2-x,1/2-y,z
y,1/2-x,1/2+z
x,1/2-y,1/2-z
1/2-x,y,1/2-z
y,x,-z
1/2-y,1/2-x,-z
-x,-y,-z
1/2+y,-x,1/2-z
1/2+x,1/2+y,-z
-y,1/2+x,1/2-z
-x,1/2+y,1/2+z
1/2+x,-y,1/2+z
-y,-x,z
1/2+y,1/2+x,z
loop_
_atom_site_type_symbol
_atom_site_label
_atom_site_fract_x
_atom_site_fract_y
_atom_site_fract_z
Si Si1 0.745438 0.995063 0.422869
Si Si2 0.508642 0.755094 0.398712
Si Si3 0.176098 0.676098 0.545484
Si Si4 0.567232 0.587017 0.637880
Si Si5 0.141441 0.253216 0.198182
Si Si6 0.433188 0.090065 0.357853
Si Si7 0.397082 0.254726 0.510150
Si Si8 0.672902 0.172902 0.553253
O O1 0.838612 0.961893 0.399428
O O2 0.657222 0.950985 0.398998
O O3 0.744923 0.973027 0.473690
O O4 0.725305 0.102085 0.424012
O O5 0.526228 0.656031 0.376527
O O6 0.536046 0.838688 0.367212
O O7 0.574804 0.753367 0.440542
O O8 0.411502 0.782640 0.420041
O O9 0.250000 0.750000 0.533655
O O10 0.144167 0.644167 0.496477
O O11 0.482170 0.517831 0.646402
O O12 0.597702 0.654424 0.677304
O O13 0.250000 0.250000 0.184701
O O14 0.137736 0.250000 0.250000
O O15 0.087500 0.163960 0.179901
O O16 0.517798 0.017798 0.352259
O O17 0.352209 0.352209 0.500000
O O18 0.322015 0.177985 0.500000
O O19 0.750000 0.250000 0.552009
#
# Coordination Sequence:
#
# PCOD9568470 Si02
#       8
#    16  16   8  16  16  16  16   8
#     4  11  21  36  54  82 113 152 208 254 294 339
#     4  12  21  36  55  83 116 154 206 246 288 344
#     4  11  22  35  49  71 113 166 207 251 299 339
#     4  11  24  40  61  87 119 157 195 240 295 357
#     4  10  22  42  69  95 116 142 183 236 296 360
#     4  11  22  36  61  90 117 149 187 244 300 348
#     4  11  21  31  51  79 114 153 199 258 302 334
#     4  11  24  35  49  73 117 170 207 243 287 337
#
# _framework density 17.195879999999999
#
# number of rings (size 3 to 8) (size 9 to 14) (size 15 to 20)
#    0.000    1.000    7.143    0.857    0.000    0.571 
#    0.000    2.857    0.000    0.000    0.000    2.000 
#    0.000    2.286    0.000    0.000    0.000    0.000 
#
# Total GULP energy -623743.264502 kJ/mol
# GULP energy per Si atom -5569.136290 kJ/mol
# Density = 1.715674 g / cm^3
# Si number density = 17.195880 Si / 1000 Ang^3
#
#
#
# Elastic Constant Matrix: (Units=GPa)
#
#
# Indices 1 2 3 4 5 6 
#
# 1 42.9562 102.6275 19.5113 0.0000 0.0000 0.0000
# 2 102.6275 42.9568 19.5115 0.0000 0.0000 0.0000
# 3 19.5113 19.5115 56.4825 0.0000 0.0000 0.0000
# 4 0.0000 0.0000 0.0000 23.0416 0.0000 0.0000
# 5 0.0000 0.0000 0.0000 0.0000 23.0415 0.0000
# 6 0.0000 0.0000 0.0000 0.0000 0.0000 37.6479
#
#
#
# Elastic Compliance Matrix: (Units=1/GPa)
#
#
# Indices 1 2 3 4 5 6 
#
# 1 -0.004594 0.012164 -0.002615 0.000000 0.000000 0.000000
# 2 0.012164 -0.004594 -0.002615 0.000000 0.000000 0.000000
# 3 -0.002615 -0.002615 0.019511 0.000000 0.000000 0.000000
# 4 0.000000 0.000000 0.000000 0.043400 0.000000 0.000000
# 5 0.000000 0.000000 0.000000 0.000000 0.043400 0.000000
# 6 0.000000 0.000000 0.000000 0.000000 0.000000 0.026562
#
#
# Mechanical properties :
#
#
# Convention : Reuss Voigt Hill
#
# Bulk Modulus (GPa) = 41.33750 47.29956 44.31853
# Shear Modulus (GPa) = 42.41640 16.79590 29.60615
#
# Velocity S-wave (km/s) = 4.97194 3.12867 4.15384
# Velocity P-wave (km/s) = 7.55325 6.37319 6.98817
#
# Compressibility (1/GPa) = 0.02419111
#
# Stress axis : x y z
#
# Youngs Moduli (GPa) = -217.65612 -217.65860 51.25260
#
# Poissons Ratio (x) = 2.64764 0.13402
# Poissons Ratio (y) = 2.64761 0.13402
# Poissons Ratio (z) = -0.56916 -0.56916
#
# Static dielectric constant tensor:
#      x y z
#    x 1.610990 0.000000 0.000000 
#    y 0.000000 1.610990 0.000000 
#    z 0.000000 0.000000 1.571640 
# 
# From -- ./inp_files/10891.got.cif
#   From: 2010.05.17/outbox.cif.g08.bks.cpg/sg134_6_cif.got.tgz:10891.got - 2010.05.20 12:42:49.
