data_PCOD9568102
_publ_section_title
;
Structure prediction by ZEFSAII (Michael W. Deem and Ramdas Pophale) SiO2 
 PCOD9568102
Probable space group: P 42/N N M
;
_chemical_formula_sum "Si O2"
_cell_formula_units_Z 72
_cell_length_a 24.465172
_cell_length_b 24.465172
_cell_length_c 7.537486
_cell_angle_alpha 90.000000
_cell_angle_beta 90.000000
_cell_angle_gamma 90.000000
_cell_volume 4511.521852
_symmetry_space_group_name_H-M "P 42/N N M"
_symmetry_group_IT_number 134
_space_group.IT_coordinate_system_code '2'
_symmetry_cell_setting 'tetragonal'
loop_
_space_group_symop_operation_xyz
x,y,z
1/2-y,x,1/2+z
1/2-x,1/2-y,z
y,1/2-x,1/2+z
x,1/2-y,1/2-z
1/2-x,y,1/2-z
y,x,-z
1/2-y,1/2-x,-z
-x,-y,-z
1/2+y,-x,1/2-z
1/2+x,1/2+y,-z
-y,1/2+x,1/2-z
-x,1/2+y,1/2+z
1/2+x,-y,1/2+z
-y,-x,z
1/2+y,1/2+x,z
loop_
_atom_site_type_symbol
_atom_site_label
_atom_site_fract_x
_atom_site_fract_y
_atom_site_fract_z
Si Si1 0.385468 0.521346 0.518853
Si Si2 0.138419 0.547781 0.354646
Si Si3 0.984300 0.575660 0.641788
Si Si4 0.750000 0.097381 0.750000
Si Si5 0.701150 0.387750 0.388685
O O1 0.435079 0.564922 0.528607
O O2 0.378518 0.509103 0.311100
O O3 0.400773 0.475482 0.662085
O O4 0.332087 0.555958 0.577690
O O5 0.103696 0.603696 0.328673
O O6 0.118639 0.523016 0.538708
O O7 0.201620 0.561411 0.335738
O O8 0.937310 0.562691 0.500000
O O9 0.019289 0.519289 0.661655
O O10 0.775704 0.128537 0.582909
O O11 0.750000 0.393341 0.250000
O O12 0.657380 0.342621 0.327337
#
# Coordination Sequence:
#
# PCOD9568102 Si02
#       5
#    16  16  16   8  16
#     4   8  15  27  39  52  71  93 118 149 187 230
#     4   9  17  28  41  56  74  97 126 161 196 229
#     4   9  16  25  39  58  77  96 117 147 189 232
#     4  10  18  30  46  57  70  98 132 164 197 236
#     4  10  20  31  42  55  72  97 129 168 210 244
#
# _framework density 15.959137999999999
#
# number of rings (size 3 to 8) (size 9 to 14) (size 15 to 20)
#    0.000    2.889    0.000    3.333    0.000    4.667 
#    0.000    4.444    0.000    3.000    0.000    0.000 
#    0.000    0.000    0.000    0.000    0.000    0.000 
#
# Total GULP energy -400832.225446 kJ/mol
# GULP energy per Si atom -5567.114242 kJ/mol
# Density = 1.592281 g / cm^3
# Si number density = 15.959138 Si / 1000 Ang^3
#
#
#
# Elastic Constant Matrix: (Units=GPa)
#
#
# Indices 1 2 3 4 5 6 
#
# 1 10.2468 11.0622 0.0524 0.0000 0.0000 0.0000
# 2 11.0622 10.2448 0.0512 0.0000 0.0000 0.0000
# 3 0.0524 0.0512 67.0935 0.0000 0.0000 0.0000
# 4 0.0000 0.0000 0.0000 13.9491 0.0000 0.0000
# 5 0.0000 0.0000 0.0000 0.0000 13.9482 0.0000
# 6 0.0000 0.0000 0.0000 0.0000 0.0000 3.8485
#
#
#
# Elastic Compliance Matrix: (Units=1/GPa)
#
#
# Indices 1 2 3 4 5 6 
#
# 1 -0.588979 0.635967 -0.000026 0.000000 0.000000 0.000000
# 2 0.635967 -0.589094 -0.000047 0.000000 0.000000 0.000000
# 3 -0.000026 -0.000047 0.014905 0.000000 0.000000 0.000000
# 4 0.000000 0.000000 0.000000 0.071689 0.000000 0.000000
# 5 0.000000 0.000000 0.000000 0.000000 0.071694 0.000000
# 6 0.000000 0.000000 0.000000 0.000000 0.000000 0.259844
#
#
# Mechanical properties :
#
#
# Convention : Reuss Voigt Hill
#
# Bulk Modulus (GPa) = 9.20627 12.21296 10.70961
# Shear Modulus (GPa) = -2.50561 11.44379 4.46909
#
# Velocity S-wave (km/s) = -1.25436 2.68072 1.67524
# Velocity P-wave (km/s) = 1.91919 4.15342 3.23529
#
# Compressibility (1/GPa) = 0.10862162
#
# Stress axis : x y z
#
# Youngs Moduli (GPa) = -1.69785 -1.69752 67.09328
#
# Poissons Ratio (x) = 1.07957 0.00173
# Poissons Ratio (y) = 1.07978 0.00313
# Poissons Ratio (z) = -0.00004 -0.00008
#
# Static dielectric constant tensor:
#      x y z
#    x 1.538050 0.000000 0.000000 
#    y 0.000000 1.538050 0.000000 
#    z 0.000000 0.000000 1.615630 
# 
# From -- ./inp_files/3051.got.cif
#   From: 2010.05.17/outbox.cif.g08.bks.cpg/sg134_2_cif.got.tgz:3051.got - 2010.05.20 12:42:49.
