data_PCOD9568454
_publ_section_title
;
Structure prediction by ZEFSAII (Michael W. Deem and Ramdas Pophale) SiO2 
 PCOD9568454
Probable space group: P 42/N N M
;
_chemical_formula_sum "Si O2"
_cell_formula_units_Z 64
_cell_length_a 10.475498
_cell_length_b 10.475498
_cell_length_c 23.965374
_cell_angle_alpha 90.000000
_cell_angle_beta 90.000000
_cell_angle_gamma 90.000000
_cell_volume 2629.865680
_symmetry_space_group_name_H-M "P 42/N N M"
_symmetry_group_IT_number 134
_space_group.IT_coordinate_system_code '2'
_symmetry_cell_setting 'tetragonal'
loop_
_space_group_symop_operation_xyz
x,y,z
1/2-y,x,1/2+z
1/2-x,1/2-y,z
y,1/2-x,1/2+z
x,1/2-y,1/2-z
1/2-x,y,1/2-z
y,x,-z
1/2-y,1/2-x,-z
-x,-y,-z
1/2+y,-x,1/2-z
1/2+x,1/2+y,-z
-y,1/2+x,1/2-z
-x,1/2+y,1/2+z
1/2+x,-y,1/2+z
-y,-x,z
1/2+y,1/2+x,z
loop_
_atom_site_type_symbol
_atom_site_label
_atom_site_fract_x
_atom_site_fract_y
_atom_site_fract_z
Si Si1 0.539862 0.660206 0.106197
Si Si2 0.484907 0.721965 0.627387
Si Si3 0.540251 0.244588 0.005150
Si Si4 0.645103 0.939997 0.795446
O O1 0.401060 0.598941 0.108234
O O2 0.638602 0.551471 0.126111
O O3 0.541880 0.777864 0.147364
O O4 0.553397 0.705487 0.042505
O O5 0.342332 0.657669 0.628997
O O6 0.518877 0.690339 0.562307
O O7 0.545537 0.664798 0.683629
O O8 0.635044 0.364957 0.021373
O O9 0.634866 0.134866 0.982277
O O10 0.750000 0.905318 0.750000
O O11 0.565149 0.065149 0.778214
#
# Coordination Sequence:
#
# PCOD9568454 Si02
#       4
#    16  16  16  16
#     4  11  22  37  63  97 132 172 219 269 325 394
#     4  10  22  39  61  91 129 172 213 259 321 393
#     4   9  18  35  61  96 138 179 221 272 331 397
#     4  11  25  45  67  90 120 161 215 280 344 404
#
# _framework density 24.335843000000001
#
# number of rings (size 3 to 8) (size 9 to 14) (size 15 to 20)
#    0.000    1.750    0.000    3.750    0.000    9.250 
#    0.000    6.250    0.000    1.500    0.000    7.000 
#    0.000    0.000    0.000    0.000    0.000    0.000 
#
# Total GULP energy -356311.469537 kJ/mol
# GULP energy per Si atom -5567.366712 kJ/mol
# Density = 2.428045 g / cm^3
# Si number density = 24.335843 Si / 1000 Ang^3
#
#
#
# Elastic Constant Matrix: (Units=GPa)
#
#
# Indices 1 2 3 4 5 6 
#
# 1 108.8386 -5.7099 30.7145 0.0000 0.0000 0.0000
# 2 -5.7099 108.8386 30.7145 0.0000 0.0000 0.0000
# 3 30.7145 30.7145 123.6336 0.0000 0.0000 0.0000
# 4 0.0000 0.0000 0.0000 42.0033 0.0000 0.0000
# 5 0.0000 0.0000 0.0000 0.0000 42.0033 0.0000
# 6 0.0000 0.0000 0.0000 0.0000 0.0000 14.1158
#
#
#
# Elastic Compliance Matrix: (Units=1/GPa)
#
#
# Indices 1 2 3 4 5 6 
#
# 1 0.010055 0.001325 -0.002827 0.000000 0.000000 0.000000
# 2 0.001325 0.010055 -0.002827 0.000000 0.000000 0.000000
# 3 -0.002827 -0.002827 0.009493 0.000000 0.000000 0.000000
# 4 0.000000 0.000000 0.000000 0.023808 0.000000 0.000000
# 5 0.000000 0.000000 0.000000 0.000000 0.023808 0.000000
# 6 0.000000 0.000000 0.000000 0.000000 0.000000 0.070842
#
#
# Mechanical properties :
#
#
# Convention : Reuss Voigt Hill
#
# Bulk Modulus (GPa) = 47.74330 50.30543 49.02437
# Shear Modulus (GPa) = 30.54333 38.66395 34.60364
#
# Velocity S-wave (km/s) = 3.54655 3.99026 3.77493
# Velocity P-wave (km/s) = 6.03587 6.47655 6.26009
#
# Compressibility (1/GPa) = 0.02094535
#
# Stress axis : x y z
#
# Youngs Moduli (GPa) = 99.44979 99.44979 105.33842
#
# Poissons Ratio (x) = -0.13181 0.29783
# Poissons Ratio (y) = -0.13181 0.29783
# Poissons Ratio (z) = 0.28118 0.28118
#
# Static dielectric constant tensor:
#      x y z
#    x 1.999260 0.000000 0.000000 
#    y 0.000000 1.999260 0.000000 
#    z 0.000000 0.000000 1.895250 
# 
# From -- ./inp_files/9790.got.cif
#   From: 2010.05.17/outbox.cif.g08.bks.cpg/sg134_5_cif.got.tgz:9790.got - 2010.05.20 12:42:49.
