data_PCOD9568286
_publ_section_title
;
Structure prediction by ZEFSAII (Michael W. Deem and Ramdas Pophale) SiO2 
 PCOD9568286
Probable space group: P 42/N N M
;
_chemical_formula_sum "Si O2"
_cell_formula_units_Z 80
_cell_length_a 17.890529
_cell_length_b 17.890529
_cell_length_c 12.853279
_cell_angle_alpha 90.000000
_cell_angle_beta 90.000000
_cell_angle_gamma 90.000000
_cell_volume 4113.962221
_symmetry_space_group_name_H-M "P 42/N N M"
_symmetry_group_IT_number 134
_space_group.IT_coordinate_system_code '2'
_symmetry_cell_setting 'tetragonal'
loop_
_space_group_symop_operation_xyz
x,y,z
1/2-y,x,1/2+z
1/2-x,1/2-y,z
y,1/2-x,1/2+z
x,1/2-y,1/2-z
1/2-x,y,1/2-z
y,x,-z
1/2-y,1/2-x,-z
-x,-y,-z
1/2+y,-x,1/2-z
1/2+x,1/2+y,-z
-y,1/2+x,1/2-z
-x,1/2+y,1/2+z
1/2+x,-y,1/2+z
-y,-x,z
1/2+y,1/2+x,z
loop_
_atom_site_type_symbol
_atom_site_label
_atom_site_fract_x
_atom_site_fract_y
_atom_site_fract_z
Si Si1 0.093842 0.714996 0.364356
Si Si2 0.651350 0.823549 0.676589
Si Si3 0.884032 0.764139 0.479256
Si Si4 0.971003 0.144103 0.546217
Si Si5 0.401117 0.018952 0.278773
O O1 0.107071 0.750000 0.250000
O O2 0.162011 0.662011 0.392011
O O3 0.081382 0.783349 0.441514
O O4 0.020447 0.661851 0.352282
O O5 0.660952 0.750000 0.750000
O O6 0.610920 0.795703 0.571367
O O7 0.725937 0.865711 0.632182
O O8 0.604053 0.891956 0.722901
O O9 0.809610 0.809610 0.500000
O O10 0.951755 0.821832 0.493374
O O11 0.925267 0.074734 0.497459
O O12 0.991406 0.120150 0.663689
O O13 0.480084 0.980084 0.305871
#
# Coordination Sequence:
#
# PCOD9568286 Si02
#       5
#    16  16  16  16  16
#     4   9  16  28  48  76 109 142 176 219 271 332
#     4  11  22  38  59  80 109 146 185 234 280 331
#     4  11  24  37  52  83 111 142 191 226 282 336
#     4  10  20  34  53  78 110 144 180 226 272 334
#     4   9  18  33  55  80 109 146 181 222 279 332
#
# _framework density 19.445972000000001
#
# number of rings (size 3 to 8) (size 9 to 14) (size 15 to 20)
#    0.000    2.000    2.000    4.200    0.000    6.600 
#    0.000    4.000    0.000    0.000    0.000    0.000 
#    0.000    2.000    0.000    0.000    0.000    0.000 
#
# Total GULP energy -445765.131166 kJ/mol
# GULP energy per Si atom -5572.064140 kJ/mol
# Density = 1.940171 g / cm^3
# Si number density = 19.445972 Si / 1000 Ang^3
#
#
#
# Elastic Constant Matrix: (Units=GPa)
#
#
# Indices 1 2 3 4 5 6 
#
# 1 115.2460 66.2770 16.1430 0.0000 0.0000 0.0000
# 2 66.2770 115.2460 16.1430 0.0000 0.0000 0.0000
# 3 16.1430 16.1430 36.3453 0.0000 0.0000 0.0000
# 4 0.0000 0.0000 0.0000 10.7008 0.0000 0.0000
# 5 0.0000 0.0000 0.0000 0.0000 10.7008 0.0000
# 6 0.0000 0.0000 0.0000 0.0000 0.0000 30.4907
#
#
#
# Elastic Compliance Matrix: (Units=1/GPa)
#
#
# Indices 1 2 3 4 5 6 
#
# 1 0.013201 -0.007220 -0.002657 0.000000 0.000000 0.000000
# 2 -0.007220 0.013201 -0.002657 0.000000 0.000000 0.000000
# 3 -0.002657 -0.002657 0.029874 0.000000 0.000000 0.000000
# 4 0.000000 0.000000 0.000000 0.093451 0.000000 0.000000
# 5 0.000000 0.000000 0.000000 0.000000 0.093451 0.000000
# 6 0.000000 0.000000 0.000000 0.000000 0.000000 0.032797
#
#
# Mechanical properties :
#
#
# Convention : Reuss Voigt Hill
#
# Bulk Modulus (GPa) = 32.04102 51.55147 41.79625
# Shear Modulus (GPa) = 16.05424 21.59677 18.82551
#
# Velocity S-wave (km/s) = 2.87641 3.33619 3.11479
# Velocity P-wave (km/s) = 5.24827 6.43489 5.87164
#
# Compressibility (1/GPa) = 0.03121000
#
# Stress axis : x y z
#
# Youngs Moduli (GPa) = 75.75034 75.75034 33.47403
#
# Poissons Ratio (x) = 0.54690 0.08893
# Poissons Ratio (y) = 0.54690 0.08893
# Poissons Ratio (z) = 0.20125 0.20125
#
# Static dielectric constant tensor:
#      x y z
#    x 1.735150 0.000000 0.000000 
#    y 0.000000 1.735150 0.000000 
#    z 0.000000 0.000000 1.753290 
# 
# From -- ./inp_files/6379.got.cif
#   From: 2010.05.17/outbox.cif.g08.bks.cpg/sg134_4_cif.got.tgz:6379.got - 2010.05.20 12:42:49.
