data_PCOD9568283
_publ_section_title
;
Structure prediction by ZEFSAII (Michael W. Deem and Ramdas Pophale) SiO2 
 PCOD9568283
Probable space group: P 42/N N M
;
_chemical_formula_sum "Si O2"
_cell_formula_units_Z 116
_cell_length_a 17.912696
_cell_length_b 17.912696
_cell_length_c 17.896022
_cell_angle_alpha 90.000000
_cell_angle_beta 90.000000
_cell_angle_gamma 90.000000
_cell_volume 5742.201336
_symmetry_space_group_name_H-M "P 42/N N M"
_symmetry_group_IT_number 134
_space_group.IT_coordinate_system_code '2'
_symmetry_cell_setting 'tetragonal'
loop_
_space_group_symop_operation_xyz
x,y,z
1/2-y,x,1/2+z
1/2-x,1/2-y,z
y,1/2-x,1/2+z
x,1/2-y,1/2-z
1/2-x,y,1/2-z
y,x,-z
1/2-y,1/2-x,-z
-x,-y,-z
1/2+y,-x,1/2-z
1/2+x,1/2+y,-z
-y,1/2+x,1/2-z
-x,1/2+y,1/2+z
1/2+x,-y,1/2+z
-y,-x,z
1/2+y,1/2+x,z
loop_
_atom_site_type_symbol
_atom_site_label
_atom_site_fract_x
_atom_site_fract_y
_atom_site_fract_z
Si Si1 0.692775 0.421627 0.643645
Si Si2 0.766902 0.891896 0.019174
Si Si3 0.529567 0.147981 0.688885
Si Si4 0.053360 0.373495 0.936569
Si Si5 0.389746 0.322634 0.325859
Si Si6 0.907521 0.967397 0.205181
Si Si7 0.250000 0.250000 0.750000
Si Si8 0.503912 0.385859 0.033847
O O1 0.663647 0.336354 0.638019
O O2 0.665371 0.450109 0.725079
O O3 0.779056 0.444612 0.644598
O O4 0.650933 0.470678 0.581939
O O5 0.735205 0.896763 0.104275
O O6 0.810773 0.968614 0.005071
O O7 0.821716 0.821716 0.000000
O O8 0.697825 0.898294 0.963727
O O9 0.579975 0.079975 0.661392
O O10 0.446981 0.113441 0.689225
O O11 0.095614 0.397399 0.862319
O O12 0.065082 0.434919 0.000000
O O13 0.448442 0.336166 0.257715
O O14 0.307863 0.302669 0.294521
O O15 0.884667 0.995808 0.123369
O O16 0.971458 0.028543 0.232262
O O17 0.586384 0.413617 0.015061
O O18 0.447478 0.447478 0.000000
#
# Coordination Sequence:
#
# PCOD9568283 Si02
#       8
#    16  16  16  16  16  16   4  16
#     4  10  20  34  52  76 104 138 182 226 270 326
#     4  10  21  37  53  75 112 152 185 232 279 345
#     4   9  19  33  54  79 105 136 174 226 283 327
#     4  10  22  35  51  71 104 151 185 222 274 329
#     4  11  22  35  52  79 113 149 190 229 285 341
#     4  10  20  35  57  82 108 146 191 238 281 338
#     4  12  24  28  50  84 108 144 174 232 284 348
#     4   9  19  34  54  79 107 141 182 231 288 340
#
# _framework density 20.201312000000001
#
# number of rings (size 3 to 8) (size 9 to 14) (size 15 to 20)
#    0.000    2.069    1.379    1.655    5.793    2.483 
#    0.000    3.448    0.000    0.000    0.000    0.000 
#    0.000    1.655    0.000    6.759    0.000    0.000 
#
# Total GULP energy -645792.767137 kJ/mol
# GULP energy per Si atom -5567.179027 kJ/mol
# Density = 2.015533 g / cm^3
# Si number density = 20.201312 Si / 1000 Ang^3
#
#
#
# Elastic Constant Matrix: (Units=GPa)
#
#
# Indices 1 2 3 4 5 6 
#
# 1 65.8358 29.0099 15.9282 0.0000 0.0000 0.0000
# 2 29.0099 65.8355 15.9284 0.0000 0.0000 0.0000
# 3 15.9282 15.9284 87.3090 0.0000 0.0000 0.0000
# 4 0.0000 0.0000 0.0000 158.4554 0.0000 0.0000
# 5 0.0000 0.0000 0.0000 0.0000 158.4573 0.0000
# 6 0.0000 0.0000 0.0000 0.0000 0.0000 32.2578
#
#
#
# Elastic Compliance Matrix: (Units=1/GPa)
#
#
# Indices 1 2 3 4 5 6 
#
# 1 0.019193 -0.007962 -0.002049 0.000000 0.000000 0.000000
# 2 -0.007962 0.019193 -0.002049 0.000000 0.000000 0.000000
# 3 -0.002049 -0.002049 0.012201 0.000000 0.000000 0.000000
# 4 0.000000 0.000000 0.000000 0.006311 0.000000 0.000000
# 5 0.000000 0.000000 0.000000 0.000000 0.006311 0.000000
# 6 0.000000 0.000000 0.000000 0.000000 0.000000 0.031000
#
#
# Mechanical properties :
#
#
# Convention : Reuss Voigt Hill
#
# Bulk Modulus (GPa) = 37.78096 37.85702 37.81899
# Shear Modulus (GPa) = 39.32298 80.37502 59.84900
#
# Velocity S-wave (km/s) = 4.41677 6.31454 5.44891
# Velocity P-wave (km/s) = 6.68979 8.48205 7.63866
#
# Compressibility (1/GPa) = 0.02646836
#
# Stress axis : x y z
#
# Youngs Moduli (GPa) = 52.10168 52.10137 81.95905
#
# Poissons Ratio (x) = 0.41481 0.16794
# Poissons Ratio (y) = 0.41481 0.16794
# Poissons Ratio (z) = 0.10676 0.10676
#
# Static dielectric constant tensor:
#      x y z
#    x 1.766500 0.000000 0.000000 
#    y 0.000000 1.766500 0.000000 
#    z 0.000000 0.000000 1.791900 
# 
# From -- ./inp_files/8050.got.cif
#   From: 2010.05.17/outbox.cif.g08.bks.cpg/sg134_5_cif.got.tgz:8050.got - 2010.05.20 12:42:49.
