data_PCOD9568222
_publ_section_title
;
Structure prediction by ZEFSAII (Michael W. Deem and Ramdas Pophale) SiO2 
 PCOD9568222
Probable space group: P 42/N N M
;
_chemical_formula_sum "Si O2"
_cell_formula_units_Z 48
_cell_length_a 14.879560
_cell_length_b 14.879560
_cell_length_c 9.450413
_cell_angle_alpha 90.000000
_cell_angle_beta 90.000000
_cell_angle_gamma 90.000000
_cell_volume 2092.333778
_symmetry_space_group_name_H-M "P 42/N N M"
_symmetry_group_IT_number 134
_space_group.IT_coordinate_system_code '2'
_symmetry_cell_setting 'tetragonal'
loop_
_space_group_symop_operation_xyz
x,y,z
1/2-y,x,1/2+z
1/2-x,1/2-y,z
y,1/2-x,1/2+z
x,1/2-y,1/2-z
1/2-x,y,1/2-z
y,x,-z
1/2-y,1/2-x,-z
-x,-y,-z
1/2+y,-x,1/2-z
1/2+x,1/2+y,-z
-y,1/2+x,1/2-z
-x,1/2+y,1/2+z
1/2+x,-y,1/2+z
-y,-x,z
1/2+y,1/2+x,z
loop_
_atom_site_type_symbol
_atom_site_label
_atom_site_fract_x
_atom_site_fract_y
_atom_site_fract_z
Si Si1 0.836653 0.485686 0.898522
Si Si2 0.564497 0.654069 0.714822
Si Si3 0.141417 0.498153 0.490912
O O1 0.897895 0.397895 0.876823
O O2 0.871706 0.566929 0.798288
O O3 0.729251 0.476009 0.903848
O O4 0.849162 0.518793 0.061421
O O5 0.612070 0.750000 0.750000
O O6 0.490769 0.847198 0.660511
O O7 0.105272 0.394728 0.500000
O O8 0.060664 0.560664 0.441186
#
# Coordination Sequence:
#
# PCOD9568222 Si02
#       3
#    16  16  16
#     4  10  19  34  59  85 110 145 189 241 297 351
#     4   9  18  35  57  81 110 143 183 232 291 354
#     4  10  21  36  53  77 113 154 192 235 291 352
#
# _framework density 22.94089
#
# number of rings (size 3 to 8) (size 9 to 14) (size 15 to 20)
#    0.000    2.333    0.000    4.000    0.000    2.000 
#    0.000   18.333    0.000    6.000    0.000    4.667 
#    0.000    0.000    0.000    0.000    0.000    0.000 
#
# Total GULP energy -267353.739487 kJ/mol
# GULP energy per Si atom -5569.869573 kJ/mol
# Density = 2.288868 g / cm^3
# Si number density = 22.940890 Si / 1000 Ang^3
#
#
#
# Elastic Constant Matrix: (Units=GPa)
#
#
# Indices 1 2 3 4 5 6 
#
# 1 145.4592 124.7283 32.2399 0.0000 0.0000 0.0000
# 2 124.7283 145.4571 32.2385 0.0000 0.0000 0.0000
# 3 32.2399 32.2385 110.1387 0.0000 0.0000 0.0000
# 4 0.0000 0.0000 0.0000 25.8000 0.0000 0.0000
# 5 0.0000 0.0000 0.0000 0.0000 25.7996 0.0000
# 6 0.0000 0.0000 0.0000 0.0000 0.0000 9.9639
#
#
#
# Elastic Compliance Matrix: (Units=1/GPa)
#
#
# Indices 1 2 3 4 5 6 
#
# 1 0.026109 -0.022130 -0.001165 0.000000 0.000000 0.000000
# 2 -0.022130 0.026110 -0.001164 0.000000 0.000000 0.000000
# 3 -0.001165 -0.001164 0.009761 0.000000 0.000000 0.000000
# 4 0.000000 0.000000 0.000000 0.038760 0.000000 0.000000
# 5 0.000000 0.000000 0.000000 0.000000 0.038760 0.000000
# 6 0.000000 0.000000 0.000000 0.000000 0.000000 0.100362
#
#
# Mechanical properties :
#
#
# Convention : Reuss Voigt Hill
#
# Bulk Modulus (GPa) = 76.56628 86.60760 81.58694
# Shear Modulus (GPa) = 17.05699 26.43594 21.74646
#
# Velocity S-wave (km/s) = 2.72971 3.39831 3.08219
# Velocity P-wave (km/s) = 6.58658 7.29606 6.95038
#
# Compressibility (1/GPa) = 0.01306058
#
# Stress axis : x y z
#
# Youngs Moduli (GPa) = 38.30057 38.30022 102.44502
#
# Poissons Ratio (x) = 0.84759 0.11935
# Poissons Ratio (y) = 0.84760 0.11929
# Poissons Ratio (z) = 0.04462 0.04460
#
# Static dielectric constant tensor:
#      x y z
#    x 1.934190 0.000000 0.000000 
#    y 0.000000 1.934190 0.000000 
#    z 0.000000 0.000000 2.093440 
# 
# From -- ./inp_files/4031.got.cif
#   From: 2010.05.17/outbox.cif.g08.bks.cpg/sg134_3_cif.got.tgz:4031.got - 2010.05.20 12:42:49.
