data_PCOD9568293
_publ_section_title
;
Structure prediction by ZEFSAII (Michael W. Deem and Ramdas Pophale) SiO2 
 PCOD9568293
Probable space group: P 42/N N M
;
_chemical_formula_sum "Si O2"
_cell_formula_units_Z 112
_cell_length_a 14.426986
_cell_length_b 14.426986
_cell_length_c 29.700651
_cell_angle_alpha 90.000000
_cell_angle_beta 90.000000
_cell_angle_gamma 90.000000
_cell_volume 6181.831872
_symmetry_space_group_name_H-M "P 42/N N M"
_symmetry_group_IT_number 134
_space_group.IT_coordinate_system_code '2'
_symmetry_cell_setting 'tetragonal'
loop_
_space_group_symop_operation_xyz
x,y,z
1/2-y,x,1/2+z
1/2-x,1/2-y,z
y,1/2-x,1/2+z
x,1/2-y,1/2-z
1/2-x,y,1/2-z
y,x,-z
1/2-y,1/2-x,-z
-x,-y,-z
1/2+y,-x,1/2-z
1/2+x,1/2+y,-z
-y,1/2+x,1/2-z
-x,1/2+y,1/2+z
1/2+x,-y,1/2+z
-y,-x,z
1/2+y,1/2+x,z
loop_
_atom_site_type_symbol
_atom_site_label
_atom_site_fract_x
_atom_site_fract_y
_atom_site_fract_z
Si Si1 0.323081 0.966244 0.475726
Si Si2 0.694634 0.662523 0.397547
Si Si3 0.433396 0.365612 0.066802
Si Si4 0.360943 0.146084 0.743460
Si Si5 0.645703 0.996051 0.330329
Si Si6 0.354758 0.490681 0.677413
Si Si7 0.475900 0.375444 0.541867
O O1 0.369195 0.869195 0.464174
O O2 0.352708 0.996086 0.526038
O O3 0.372047 0.044274 0.444144
O O4 0.212970 0.965755 0.473600
O O5 0.750000 0.750000 0.376001
O O6 0.772844 0.628535 0.432551
O O7 0.667685 0.584473 0.361448
O O8 0.599467 0.669697 0.424702
O O9 0.479138 0.364994 0.116147
O O10 0.398683 0.250000 0.750000
O O11 0.250000 0.152142 0.750000
O O12 0.376120 0.100467 0.694892
O O13 0.390587 0.070393 0.780598
O O14 0.749366 0.026895 0.315583
O O15 0.572974 0.072974 0.315979
O O16 0.428185 0.571816 0.666750
O O17 0.421519 0.421519 0.500000
O O18 0.543776 0.456225 0.560566
#
# Coordination Sequence:
#
# PCOD9568293 Si02
#       7
#    16  16  16  16  16  16  16
#     4  11  21  35  55  81 113 146 186 240 292 338
#     4  11  21  35  61  83 107 147 199 235 286 342
#     4  10  20  34  56  82 109 143 190 242 287 334
#     4   9  19  33  55  79 110 145 186 233 276 320
#     4  10  20  35  55  80 112 151 191 228 278 349
#     4  10  22  36  54  84 119 149 183 233 290 342
#     4  11  23  38  55  79 112 148 190 239 288 344
#
# _framework density 18.117605999999999
#
# number of rings (size 3 to 8) (size 9 to 14) (size 15 to 20)
#    0.000    1.714    2.857    2.571    6.000    0.857 
#    0.000    0.000    0.000    4.286    0.000    0.000 
#    0.000    4.571    0.000    0.000    0.000    0.286 
#
# Total GULP energy -623841.414586 kJ/mol
# GULP energy per Si atom -5570.012630 kJ/mol
# Density = 1.807637 g / cm^3
# Si number density = 18.117606 Si / 1000 Ang^3
#
#
#
# Elastic Constant Matrix: (Units=GPa)
#
#
# Indices 1 2 3 4 5 6 
#
# 1 71.8425 92.6171 24.3029 0.0000 0.0000 0.0000
# 2 92.6171 71.8425 24.3029 0.0000 0.0000 0.0000
# 3 24.3029 24.3029 59.0796 0.0000 0.0000 0.0000
# 4 0.0000 0.0000 0.0000 10.1656 0.0000 0.0000
# 5 0.0000 0.0000 0.0000 0.0000 10.1656 0.0000
# 6 0.0000 0.0000 0.0000 0.0000 0.0000 31.8723
#
#
#
# Elastic Compliance Matrix: (Units=1/GPa)
#
#
# Indices 1 2 3 4 5 6 
#
# 1 -0.020607 0.027529 -0.002847 0.000000 0.000000 0.000000
# 2 0.027529 -0.020607 -0.002847 0.000000 0.000000 0.000000
# 3 -0.002847 -0.002847 0.019269 0.000000 0.000000 0.000000
# 4 0.000000 0.000000 0.000000 0.098371 0.000000 0.000000
# 5 0.000000 0.000000 0.000000 0.000000 0.098371 0.000000
# 6 0.000000 0.000000 0.000000 0.000000 0.000000 0.031375
#
#
# Mechanical properties :
#
#
# Convention : Reuss Voigt Hill
#
# Bulk Modulus (GPa) = 46.03354 53.91228 49.97291
# Shear Modulus (GPa) = 29.45581 14.54348 21.99964
#
# Velocity S-wave (km/s) = 4.03651 2.83632 3.48842
# Velocity P-wave (km/s) = 6.86934 6.36771 6.62328
#
# Compressibility (1/GPa) = 0.02172329
#
# Stress axis : x y z
#
# Youngs Moduli (GPa) = -48.52745 -48.52745 51.89690
#
# Poissons Ratio (x) = 1.33591 0.14777
# Poissons Ratio (y) = 1.33591 0.14777
# Poissons Ratio (z) = -0.13818 -0.13818
#
# Static dielectric constant tensor:
#      x y z
#    x 1.658620 0.000000 0.000000 
#    y 0.000000 1.658620 0.000000 
#    z 0.000000 0.000000 1.662810 
# 
# From -- ./inp_files/11687.got.cif
#   From: 2010.05.17/outbox.cif.g08.bks.cpg/sg134_6_cif.got.tgz:11687.got - 2010.05.20 12:42:49.
