data_PCOD9568390
_publ_section_title
;
Structure prediction by ZEFSAII (Michael W. Deem and Ramdas Pophale) SiO2 
 PCOD9568390
Probable space group: P 42/N N M
;
_chemical_formula_sum "Si O2"
_cell_formula_units_Z 96
_cell_length_a 15.233422
_cell_length_b 15.233422
_cell_length_c 22.033855
_cell_angle_alpha 90.000000
_cell_angle_beta 90.000000
_cell_angle_gamma 90.000000
_cell_volume 5113.113503
_symmetry_space_group_name_H-M "P 42/N N M"
_symmetry_group_IT_number 134
_space_group.IT_coordinate_system_code '2'
_symmetry_cell_setting 'tetragonal'
loop_
_space_group_symop_operation_xyz
x,y,z
1/2-y,x,1/2+z
1/2-x,1/2-y,z
y,1/2-x,1/2+z
x,1/2-y,1/2-z
1/2-x,y,1/2-z
y,x,-z
1/2-y,1/2-x,-z
-x,-y,-z
1/2+y,-x,1/2-z
1/2+x,1/2+y,-z
-y,1/2+x,1/2-z
-x,1/2+y,1/2+z
1/2+x,-y,1/2+z
-y,-x,z
1/2+y,1/2+x,z
loop_
_atom_site_type_symbol
_atom_site_label
_atom_site_fract_x
_atom_site_fract_y
_atom_site_fract_z
Si Si1 0.320860 0.679141 0.957907
Si Si2 0.500433 0.851096 0.249758
Si Si3 0.928476 0.924695 0.376162
Si Si4 0.773188 0.895964 0.535986
Si Si5 0.240571 0.001169 0.915042
Si Si6 0.125951 0.095089 0.125836
Si Si7 0.439864 0.560137 0.044649
O O1 0.250000 0.750000 0.980514
O O2 0.270866 0.603098 0.920191
O O3 0.375339 0.624662 0.008613
O O4 0.468910 0.750000 0.250000
O O5 0.550681 0.878264 0.187972
O O6 0.568053 0.857124 0.305631
O O7 0.420570 0.920570 0.257512
O O8 0.942787 0.852088 0.428123
O O9 0.830639 0.963516 0.385536
O O10 0.996408 0.003593 0.383308
O O11 0.816860 0.816860 0.500000
O O12 0.705851 0.863998 0.587363
O O13 0.735601 0.958804 0.483511
O O14 0.158367 0.042995 0.880181
O O15 0.110657 0.006055 0.088480
O O16 0.500000 0.500000 0.000000
#
# Coordination Sequence:
#
# PCOD9568390 Si02
#       7
#     8  16  16  16  16  16   8
#     4  12  24  38  62  98 136 168 214 268 330 400
#     4  11  24  44  68  94 127 174 217 264 320 389
#     4  10  23  42  60  89 133 173 214 264 328 398
#     4  10  21  36  60  93 127 165 206 264 328 386
#     4  11  23  38  63  92 126 171 213 270 330 390
#     4  12  21  39  66  94 128 167 220 266 326 391
#     4  12  20  40  64  98 130 166 215 268 325 392
#
# _framework density 18.775251999999998
#
# number of rings (size 3 to 8) (size 9 to 14) (size 15 to 20)
#    0.000    1.000    5.833    1.000    0.000    9.167 
#    0.000    1.667    0.000    0.000    0.000    0.000 
#    0.000    0.000    0.000    0.000    0.000    0.000 
#
# Total GULP energy -535947.627201 kJ/mol
# GULP energy per Si atom -5582.787783 kJ/mol
# Density = 1.873252 g / cm^3
# Si number density = 18.775252 Si / 1000 Ang^3
#
#
#
# Elastic Constant Matrix: (Units=GPa)
#
#
# Indices 1 2 3 4 5 6 
#
# 1 77.7966 25.6566 28.1602 0.0000 0.0000 0.0000
# 2 25.6566 77.7966 28.1602 0.0000 0.0000 0.0000
# 3 28.1602 28.1602 98.9370 0.0000 0.0000 0.0000
# 4 0.0000 0.0000 0.0000 28.7553 0.0000 0.0000
# 5 0.0000 0.0000 0.0000 0.0000 28.7553 0.0000
# 6 0.0000 0.0000 0.0000 0.0000 0.0000 33.9718
#
#
#
# Elastic Compliance Matrix: (Units=1/GPa)
#
#
# Indices 1 2 3 4 5 6 
#
# 1 0.015309 -0.003870 -0.003256 0.000000 0.000000 0.000000
# 2 -0.003870 0.015309 -0.003256 0.000000 0.000000 0.000000
# 3 -0.003256 -0.003256 0.011961 0.000000 0.000000 0.000000
# 4 0.000000 0.000000 0.000000 0.034776 0.000000 0.000000
# 5 0.000000 0.000000 0.000000 0.000000 0.034776 0.000000
# 6 0.000000 0.000000 0.000000 0.000000 0.000000 0.029436
#
#
# Mechanical properties :
#
#
# Convention : Reuss Voigt Hill
#
# Bulk Modulus (GPa) = 45.83986 46.49826 46.16906
# Shear Modulus (GPa) = 29.48070 29.80001 29.64036
#
# Velocity S-wave (km/s) = 3.96686 3.98829 3.97759
# Velocity P-wave (km/s) = 6.74161 6.78440 6.76304
#
# Compressibility (1/GPa) = 0.02181507
#
# Stress axis : x y z
#
# Youngs Moduli (GPa) = 65.32146 65.32146 83.60642
#
# Poissons Ratio (x) = 0.25281 0.27220
# Poissons Ratio (y) = 0.25281 0.27220
# Poissons Ratio (z) = 0.21267 0.21267
#
# Static dielectric constant tensor:
#      x y z
#    x 1.687740 0.000000 0.000000 
#    y 0.000000 1.687740 0.000000 
#    z 0.000000 0.000000 1.641520 
# 
# From -- ./inp_files/9180.got.cif
#   From: 2010.05.17/outbox.cif.g08.bks.cpg/sg134_5_cif.got.tgz:9180.got - 2010.05.20 12:42:49.
