data_PCOD9568075
_publ_section_title
;
Structure prediction by ZEFSAII (Michael W. Deem and Ramdas Pophale) SiO2 
 PCOD9568075
Probable space group: P 42/N N M
;
_chemical_formula_sum "Si O2"
_cell_formula_units_Z 72
_cell_length_a 18.457942
_cell_length_b 18.457942
_cell_length_c 11.548088
_cell_angle_alpha 90.000000
_cell_angle_beta 90.000000
_cell_angle_gamma 90.000000
_cell_volume 3934.383034
_symmetry_space_group_name_H-M "P 42/N N M"
_symmetry_group_IT_number 134
_space_group.IT_coordinate_system_code '2'
_symmetry_cell_setting 'tetragonal'
loop_
_space_group_symop_operation_xyz
x,y,z
1/2-y,x,1/2+z
1/2-x,1/2-y,z
y,1/2-x,1/2+z
x,1/2-y,1/2-z
1/2-x,y,1/2-z
y,x,-z
1/2-y,1/2-x,-z
-x,-y,-z
1/2+y,-x,1/2-z
1/2+x,1/2+y,-z
-y,1/2+x,1/2-z
-x,1/2+y,1/2+z
1/2+x,-y,1/2+z
-y,-x,z
1/2+y,1/2+x,z
loop_
_atom_site_type_symbol
_atom_site_label
_atom_site_fract_x
_atom_site_fract_y
_atom_site_fract_z
Si Si1 0.586413 0.913588 0.000000
Si Si2 0.969817 0.030184 0.175939
Si Si3 0.478716 0.327086 0.313637
Si Si4 0.442711 0.557290 0.354140
Si Si5 0.614161 0.385840 0.000177
Si Si6 0.836673 0.336673 0.748443
Si Si7 0.733112 0.121700 0.114178
O O1 0.649823 0.917558 0.094847
O O2 0.512856 0.914900 0.075945
O O3 0.944047 0.055954 0.047244
O O4 0.000813 0.105891 0.229696
O O5 0.027251 0.972750 0.229196
O O6 0.466014 0.250000 0.250000
O O7 0.552798 0.318126 0.385624
O O8 0.381493 0.618508 0.343701
O O9 0.693170 0.401118 0.054317
O O10 0.629685 0.370316 0.867759
O O11 0.848737 0.250000 0.750000
O O12 0.750000 0.135442 0.250000
O O13 0.692021 0.192021 0.066766
#
# Coordination Sequence:
#
# PCOD9568075 Si02
#       7
#     8   8  16   8   8   8  16
#     4   9  20  32  60  80 102 153 172 237 296 297
#     4  10  17  32  52  84 101 142 192 228 289 315
#     4  10  17  28  47  80 113 135 180 231 272 338
#     4   9  21  39  55  77 114 142 198 231 265 343
#     4  12  22  31  50  71 107 160 192 229 281 308
#     4  11  29  43  48  73 115 168 202 217 260 350
#     4  11  18  26  45  76 110 144 188 235 268 317
#
# _framework density 18.3002
#
# number of rings (size 3 to 8) (size 9 to 14) (size 15 to 20)
#    0.000    1.667    6.667    1.000    6.222    0.444 
#    0.000    0.000    0.000    0.000    0.000    0.000 
#    0.000   28.444    0.000    0.000    0.000    0.000 
#
# Total GULP energy -400858.550561 kJ/mol
# GULP energy per Si atom -5567.479869 kJ/mol
# Density = 1.825855 g / cm^3
# Si number density = 18.300200 Si / 1000 Ang^3
#
#
#
# Elastic Constant Matrix: (Units=GPa)
#
#
# Indices 1 2 3 4 5 6 
#
# 1 82.4835 54.6843 33.2276 0.0000 0.0000 0.0000
# 2 54.6843 82.4832 33.2275 0.0000 0.0000 0.0000
# 3 33.2276 33.2275 90.0291 0.0000 0.0000 0.0000
# 4 0.0000 0.0000 0.0000 21.9566 0.0000 0.0000
# 5 0.0000 0.0000 0.0000 0.0000 21.9571 0.0000
# 6 0.0000 0.0000 0.0000 0.0000 0.0000 30.7286
#
#
#
# Elastic Compliance Matrix: (Units=1/GPa)
#
#
# Indices 1 2 3 4 5 6 
#
# 1 0.022425 -0.013547 -0.003277 0.000000 0.000000 0.000000
# 2 -0.013547 0.022425 -0.003277 0.000000 0.000000 0.000000
# 3 -0.003277 -0.003277 0.013526 0.000000 0.000000 0.000000
# 4 0.000000 0.000000 0.000000 0.045544 0.000000 0.000000
# 5 0.000000 0.000000 0.000000 0.000000 0.045543 0.000000
# 6 0.000000 0.000000 0.000000 0.000000 0.000000 0.032543
#
#
# Mechanical properties :
#
#
# Convention : Reuss Voigt Hill
#
# Bulk Modulus (GPa) = 55.01942 55.25273 55.13607
# Shear Modulus (GPa) = 21.90422 23.85222 22.87822
#
# Velocity S-wave (km/s) = 3.46343 3.61416 3.53960
# Velocity P-wave (km/s) = 6.79147 6.90465 6.84829
#
# Compressibility (1/GPa) = 0.01817540
#
# Stress axis : x y z
#
# Youngs Moduli (GPa) = 44.59289 44.59282 73.93101
#
# Poissons Ratio (x) = 0.60411 0.24224
# Poissons Ratio (y) = 0.60411 0.24224
# Poissons Ratio (z) = 0.14611 0.14611
#
# Static dielectric constant tensor:
#      x y z
#    x 1.631330 0.000000 0.000000 
#    y 0.000000 1.631330 0.000000 
#    z 0.000000 0.000000 1.721330 
# 
# From -- ./inp_files/4802.got.cif
#   From: 2010.05.17/outbox.cif.g08.bks.cpg/sg134_3_cif.got.tgz:4802.got - 2010.05.20 12:42:49.
