data_PCOD9568181
_publ_section_title
;
Structure prediction by ZEFSAII (Michael W. Deem and Ramdas Pophale) SiO2 
 PCOD9568181
Probable space group: P 42/N N M
;
_chemical_formula_sum "Si O2"
_cell_formula_units_Z 64
_cell_length_a 13.489724
_cell_length_b 13.489724
_cell_length_c 17.277670
_cell_angle_alpha 90.000000
_cell_angle_beta 90.000000
_cell_angle_gamma 90.000000
_cell_volume 3144.063458
_symmetry_space_group_name_H-M "P 42/N N M"
_symmetry_group_IT_number 134
_space_group.IT_coordinate_system_code '2'
_symmetry_cell_setting 'tetragonal'
loop_
_space_group_symop_operation_xyz
x,y,z
1/2-y,x,1/2+z
1/2-x,1/2-y,z
y,1/2-x,1/2+z
x,1/2-y,1/2-z
1/2-x,y,1/2-z
y,x,-z
1/2-y,1/2-x,-z
-x,-y,-z
1/2+y,-x,1/2-z
1/2+x,1/2+y,-z
-y,1/2+x,1/2-z
-x,1/2+y,1/2+z
1/2+x,-y,1/2+z
-y,-x,z
1/2+y,1/2+x,z
loop_
_atom_site_type_symbol
_atom_site_label
_atom_site_fract_x
_atom_site_fract_y
_atom_site_fract_z
Si Si1 0.543282 0.625076 0.425685
Si Si2 0.504437 0.173428 0.320436
Si Si3 0.864102 0.967872 0.744688
Si Si4 0.585474 0.251098 0.022469
O O1 0.612785 0.612785 0.500000
O O2 0.469737 0.530264 0.425609
O O3 0.584676 0.627518 0.339746
O O4 0.475954 0.719379 0.447385
O O5 0.512871 0.250000 0.250000
O O6 0.595304 0.095304 0.313794
O O7 0.405195 0.108891 0.308022
O O8 0.518162 0.225707 0.403148
O O9 0.750000 0.996874 0.750000
O O10 0.937153 0.062848 0.745207
O O11 0.655147 0.344854 0.007577
O O12 0.658556 0.158556 0.041649
#
# Coordination Sequence:
#
# PCOD9568181 Si02
#       4
#    16  16  16  16
#     4   9  17  32  54  77 102 135 176 219 261 310
#     4  10  19  32  52  79 110 141 173 215 269 324
#     4  10  22  38  56  79 107 142 184 225 265 312
#     4   9  17  29  49  79 109 136 170 214 265 318
#
# _framework density 20.355823000000001
#
# number of rings (size 3 to 8) (size 9 to 14) (size 15 to 20)
#    0.000    2.500    0.000    2.250    0.000    7.000 
#    0.000    3.750    0.000    6.000    0.000    0.000 
#    0.000    0.000    0.000    0.000    0.000    0.000 
#
# Total GULP energy -356875.449989 kJ/mol
# GULP energy per Si atom -5576.178906 kJ/mol
# Density = 2.030949 g / cm^3
# Si number density = 20.355823 Si / 1000 Ang^3
#
#
#
# Elastic Constant Matrix: (Units=GPa)
#
#
# Indices 1 2 3 4 5 6 
#
# 1 45.9180 9.8207 5.5105 0.0000 0.0000 0.0000
# 2 9.8207 45.9180 5.5105 0.0000 0.0000 0.0000
# 3 5.5105 5.5105 44.3984 0.0000 0.0000 0.0000
# 4 0.0000 0.0000 0.0000 16.9117 0.0000 0.0000
# 5 0.0000 0.0000 0.0000 0.0000 16.9117 0.0000
# 6 0.0000 0.0000 0.0000 0.0000 0.0000 10.5318
#
#
#
# Elastic Compliance Matrix: (Units=1/GPa)
#
#
# Indices 1 2 3 4 5 6 
#
# 1 0.023048 -0.004655 -0.002283 0.000000 0.000000 0.000000
# 2 -0.004655 0.023048 -0.002283 0.000000 0.000000 0.000000
# 3 -0.002283 -0.002283 0.023090 0.000000 0.000000 0.000000
# 4 0.000000 0.000000 0.000000 0.059131 0.000000 0.000000
# 5 0.000000 0.000000 0.000000 0.000000 0.059131 0.000000
# 6 0.000000 0.000000 0.000000 0.000000 0.000000 0.094951
#
#
# Mechanical properties :
#
#
# Convention : Reuss Voigt Hill
#
# Bulk Modulus (GPa) = 19.70701 19.76866 19.73784
# Shear Modulus (GPa) = 15.73548 16.56388 16.14968
#
# Velocity S-wave (km/s) = 2.78334 2.85567 2.81974
# Velocity P-wave (km/s) = 4.47567 4.53936 4.50762
#
# Compressibility (1/GPa) = 0.05074337
#
# Stress axis : x y z
#
# Youngs Moduli (GPa) = 43.38859 43.38859 43.30885
#
# Poissons Ratio (x) = 0.20199 0.09886
# Poissons Ratio (y) = 0.20199 0.09886
# Poissons Ratio (z) = 0.09905 0.09905
#
# Static dielectric constant tensor:
#      x y z
#    x 1.732200 0.000000 0.000000 
#    y 0.000000 1.732200 0.000000 
#    z 0.000000 0.000000 1.710580 
# 
# From -- ./inp_files/6103.got.cif
#   From: 2010.05.17/outbox.cif.g08.bks.cpg/sg134_4_cif.got.tgz:6103.got - 2010.05.20 12:42:49.
