data_PCOD9568764
_publ_section_title
;
Structure prediction by ZEFSAII (Michael W. Deem and Ramdas Pophale) SiO2 
 PCOD9568764
Probable space group: P 42/M B C
;
_chemical_formula_sum "Si O2"
_cell_formula_units_Z 88
_cell_length_a 12.819190
_cell_length_b 12.819190
_cell_length_c 24.150244
_cell_angle_alpha 90.000000
_cell_angle_beta 90.000000
_cell_angle_gamma 90.000000
_cell_volume 3968.649016
_symmetry_space_group_name_H-M "P 42/M B C"
_symmetry_group_IT_number 135
_symmetry_cell_setting 'tetragonal'
loop_
_space_group_symop_operation_xyz
x,y,z
-y,x,1/2+z
-x,-y,z
y,-x,1/2+z
1/2+x,1/2-y,-z
1/2-x,1/2+y,-z
1/2+y,1/2+x,1/2-z
1/2-y,1/2-x,1/2-z
-x,-y,-z
y,-x,1/2-z
x,y,-z
-y,x,1/2-z
1/2-x,1/2+y,z
1/2+x,1/2-y,z
1/2-y,1/2-x,1/2+z
1/2+y,1/2+x,1/2+z
loop_
_atom_site_type_symbol
_atom_site_label
_atom_site_fract_x
_atom_site_fract_y
_atom_site_fract_z
Si Si1 0.868699 0.685853 0.369091
Si Si2 0.088594 0.882951 0.718300
Si Si3 0.569871 0.832867 0.437400
Si Si4 0.790583 0.709418 0.750000
Si Si5 0.640901 0.606542 0.595986
Si Si6 0.382794 0.306049 0.937172
O O1 0.863984 0.687434 0.302652
O O2 0.763145 0.628428 0.389518
O O3 0.854173 0.802781 0.393385
O O4 0.976138 0.644489 0.395168
O O5 0.174701 0.797048 0.726302
O O6 0.078038 0.901323 0.653574
O O7 0.985351 0.863733 0.752626
O O8 0.536902 0.858652 0.500000
O O9 0.597611 0.708966 0.434196
O O10 0.681184 0.887782 0.425960
O O11 0.641329 0.495611 0.566421
O O12 0.340905 0.317586 0.000000
#
# Coordination Sequence:
#
# PCOD9568764 Si02
#       6
#    16  16  16   8  16  16
#     4  10  21  37  56  82 113 149 191 235 288 345
#     4  10  20  35  57  83 110 147 192 235 282 342
#     4  10  21  37  58  84 116 152 190 237 288 341
#     4  10  20  36  58  80 112 148 186 238 290 330
#     4  10  21  36  56  82 114 148 190 239 285 341
#     4  10  21  37  58  85 116 151 191 235 286 343
#
# _framework density 22.173793
#
# number of rings (size 3 to 8) (size 9 to 14) (size 15 to 20)
#    0.000    2.000    0.000    3.273    0.000    5.091 
#    0.000    3.636    0.000    7.091    0.000    0.000 
#    0.000    0.000    0.000    0.000    0.000    0.000 
#
# Total GULP energy -491770.868553 kJ/mol
# GULP energy per Si atom -5588.305324 kJ/mol
# Density = 2.212332 g / cm^3
# Si number density = 22.173793 Si / 1000 Ang^3
#
#
#
# Elastic Constant Matrix: (Units=GPa)
#
#
# Indices 1 2 3 4 5 6 
#
# 1 51.5611 -8.2782 22.4229 0.0000 0.0000 0.0000
# 2 -8.2782 51.5619 22.4228 0.0000 0.0000 0.0000
# 3 22.4229 22.4228 130.6707 0.0000 0.0000 0.0000
# 4 0.0000 0.0000 0.0000 -60.3629 0.0000 0.0000
# 5 0.0000 0.0000 0.0000 0.0000 -60.3395 0.0000
# 6 0.0000 0.0000 0.0000 0.0000 0.0000 28.3428
#
#
#
# Elastic Compliance Matrix: (Units=1/GPa)
#
#
# Indices 1 2 3 4 5 6 
#
# 1 0.022406 0.005694 -0.004822 0.000000 0.000000 0.000000
# 2 0.005694 0.022405 -0.004822 0.000000 0.000000 0.000000
# 3 -0.004822 -0.004822 0.009308 0.000000 0.000000 0.000000
# 4 0.000000 0.000000 0.000000 -0.016566 0.000000 0.000000
# 5 0.000000 0.000000 0.000000 0.000000 -0.016573 0.000000
# 6 0.000000 0.000000 0.000000 0.000000 0.000000 0.035282
#
#
# Mechanical properties :
#
#
# Convention : Reuss Voigt Hill
#
# Bulk Modulus (GPa) = 21.63599 34.10320 27.86960
# Shear Modulus (GPa) = 62.84018 -5.32350 28.75834
#
# Velocity S-wave (km/s) = 5.32929 -1.55114 3.60523
# Velocity P-wave (km/s) = 6.90269 3.49361 5.47049
#
# Compressibility (1/GPa) = 0.04621927
#
# Stress axis : x y z
#
# Youngs Moduli (GPa) = 44.63174 44.63256 107.43851
#
# Poissons Ratio (x) = -0.25414 0.51805
# Poissons Ratio (y) = -0.25414 0.51804
# Poissons Ratio (z) = 0.21521 0.21521
#
# Static dielectric constant tensor:
#      x y z
#    x 1.829290 0.000000 0.000000 
#    y 0.000000 1.829290 0.000000 
#    z 0.000000 0.000000 1.793370 
# 
# From -- ./inp_files/5300.got.cif
#   From: 2010.05.17/outbox.cif.g08.bks.cpg/sg135_3_cif.got.tgz:5300.got - 2010.05.20 12:50:20.
