data_PCOD9568896
_publ_section_title
;
Structure prediction by ZEFSAII (Michael W. Deem and Ramdas Pophale) SiO2 
 PCOD9568896
Probable space group: P 42/M B C
;
_chemical_formula_sum "Si O2"
_cell_formula_units_Z 120
_cell_length_a 19.617714
_cell_length_b 19.617714
_cell_length_c 15.124592
_cell_angle_alpha 90.000000
_cell_angle_beta 90.000000
_cell_angle_gamma 90.000000
_cell_volume 5820.770356
_symmetry_space_group_name_H-M "P 42/M B C"
_symmetry_group_IT_number 135
_symmetry_cell_setting 'tetragonal'
loop_
_space_group_symop_operation_xyz
x,y,z
-y,x,1/2+z
-x,-y,z
y,-x,1/2+z
1/2+x,1/2-y,-z
1/2-x,1/2+y,-z
1/2+y,1/2+x,1/2-z
1/2-y,1/2-x,1/2-z
-x,-y,-z
y,-x,1/2-z
x,y,-z
-y,x,1/2-z
1/2-x,1/2+y,z
1/2+x,1/2-y,z
1/2-y,1/2-x,1/2+z
1/2+y,1/2+x,1/2+z
loop_
_atom_site_type_symbol
_atom_site_label
_atom_site_fract_x
_atom_site_fract_y
_atom_site_fract_z
Si Si1 0.083202 0.789283 0.395242
Si Si2 0.015153 0.315100 0.097229
Si Si3 0.236365 0.383181 0.000000
Si Si4 0.686721 0.593314 0.646507
Si Si5 0.923154 0.977141 0.395398
Si Si6 0.406199 0.873011 0.655021
Si Si7 0.669002 0.569529 0.156203
Si Si8 0.945553 0.334469 0.273564
O O1 0.075463 0.775729 0.500000
O O2 0.148351 0.837472 0.379891
O O3 0.087974 0.720665 0.338474
O O4 0.011682 0.824035 0.364075
O O5 0.073377 0.256753 0.099301
O O6 0.052044 0.386481 0.119481
O O7 0.966108 0.300526 0.179719
O O8 0.983383 0.315667 0.000000
O O9 0.178134 0.384427 0.078598
O O10 0.294739 0.392272 0.076981
O O11 0.631428 0.534986 0.623949
O O12 0.701267 0.588343 0.750509
O O13 0.921190 0.960831 0.500000
O O14 0.909778 0.909666 0.340100
O O15 0.000000 0.000000 0.375288
O O16 0.368128 0.868128 0.750000
O O17 0.485260 0.859899 0.678404
O O18 0.896042 0.396042 0.250000
#
# Coordination Sequence:
#
# PCOD9568896 Si02
#       8
#    16  16   8  16  16  16  16  16
#     4  12  22  43  72 100 136 189 232 269 338 420
#     4  11  23  43  67  98 137 176 222 285 356 418
#     4  12  20  42  69  99 134 172 229 288 337 424
#     4  12  25  40  65  98 142 188 229 285 341 411
#     4  11  22  35  56  95 136 176 231 283 325 390
#     4  10  21  41  72  99 127 170 222 279 345 415
#     4  12  21  37  62  98 134 179 232 279 338 390
#     4  11  25  46  70 102 138 169 223 291 349 411
#
# _framework density 20.615828
#
# number of rings (size 3 to 8) (size 9 to 14) (size 15 to 20)
#    0.000    0.667    6.000    2.800    0.000    2.933 
#    0.000    4.000    0.000    0.000    0.000    0.000 
#    0.000    0.000    0.000    0.000    0.000    0.000 
#
# Total GULP energy -668566.983576 kJ/mol
# GULP energy per Si atom -5571.391530 kJ/mol
# Density = 2.056891 g / cm^3
# Si number density = 20.615828 Si / 1000 Ang^3
#
#
#
# Elastic Constant Matrix: (Units=GPa)
#
#
# Indices 1 2 3 4 5 6 
#
# 1 52.9580 43.7190 25.1784 0.0000 0.0000 0.0000
# 2 43.7190 52.9580 25.1784 0.0000 0.0000 0.0000
# 3 25.1784 25.1784 156.7857 0.0000 0.0000 0.0000
# 4 0.0000 0.0000 0.0000 10.1644 0.0000 0.0000
# 5 0.0000 0.0000 0.0000 0.0000 10.1644 0.0000
# 6 0.0000 0.0000 0.0000 0.0000 0.0000 13.4903
#
#
#
# Elastic Compliance Matrix: (Units=1/GPa)
#
#
# Indices 1 2 3 4 5 6 
#
# 1 0.059762 -0.048474 -0.001813 0.000000 0.000000 0.000000
# 2 -0.048474 0.059762 -0.001813 0.000000 0.000000 0.000000
# 3 -0.001813 -0.001813 0.006960 0.000000 0.000000 0.000000
# 4 0.000000 0.000000 0.000000 0.098383 0.000000 0.000000
# 5 0.000000 0.000000 0.000000 0.000000 0.098383 0.000000
# 6 0.000000 0.000000 0.000000 0.000000 0.000000 0.074128
#
#
# Mechanical properties :
#
#
# Convention : Reuss Voigt Hill
#
# Bulk Modulus (GPa) = 44.87270 50.09480 47.48375
# Shear Modulus (GPa) = 9.82308 18.00554 13.91431
#
# Velocity S-wave (km/s) = 2.18522 2.95851 2.60077
# Velocity P-wave (km/s) = 5.30851 6.00186 5.66580
#
# Compressibility (1/GPa) = 0.02228527
#
# Stress axis : x y z
#
# Youngs Moduli (GPa) = 16.73301 16.73301 143.67092
#
# Poissons Ratio (x) = 0.81112 0.26044
# Poissons Ratio (y) = 0.81112 0.26044
# Poissons Ratio (z) = 0.03033 0.03033
#
# Static dielectric constant tensor:
#      x y z
#    x 1.751360 0.000000 0.000000 
#    y 0.000000 1.751360 0.000000 
#    z 0.000000 0.000000 1.755660 
# 
# From -- ./inp_files/3714.got.cif
#   From: 2010.05.17/outbox.cif.g08.bks.cpg/sg135_2_cif.got.tgz:3714.got - 2010.05.20 12:50:20.
