data_PCOD9568068
_publ_section_title
;
Structure prediction by ZEFSAII (Michael W. Deem and Ramdas Pophale) SiO2 
 PCOD9568068
Probable space group: P 42/N N M
;
_chemical_formula_sum "Si O2"
_cell_formula_units_Z 46
_cell_length_a 12.798981
_cell_length_b 12.798981
_cell_length_c 16.842226
_cell_angle_alpha 90.000000
_cell_angle_beta 90.000000
_cell_angle_gamma 90.000000
_cell_volume 2758.990972
_symmetry_space_group_name_H-M "P 42/N N M"
_symmetry_group_IT_number 134
_space_group.IT_coordinate_system_code '2'
_symmetry_cell_setting 'tetragonal'
loop_
_space_group_symop_operation_xyz
x,y,z
1/2-y,x,1/2+z
1/2-x,1/2-y,z
y,1/2-x,1/2+z
x,1/2-y,1/2-z
1/2-x,y,1/2-z
y,x,-z
1/2-y,1/2-x,-z
-x,-y,-z
1/2+y,-x,1/2-z
1/2+x,1/2+y,-z
-y,1/2+x,1/2-z
-x,1/2+y,1/2+z
1/2+x,-y,1/2+z
-y,-x,z
1/2+y,1/2+x,z
loop_
_atom_site_type_symbol
_atom_site_label
_atom_site_fract_x
_atom_site_fract_y
_atom_site_fract_z
Si Si1 0.750000 0.750000 0.500000
Si Si2 0.592948 0.092948 0.661369
Si Si3 0.976090 0.476090 0.827843
Si Si4 0.523787 0.731081 0.427282
Si Si5 0.581682 0.081682 0.040849
Si Si6 0.250000 0.750000 0.250000
O O1 0.644227 0.743833 0.449246
O O2 0.535245 0.035245 0.733896
O O3 0.517081 0.161795 0.608145
O O4 0.675638 0.175638 0.698719
O O5 0.861751 0.505859 0.863047
O O6 0.058088 0.558088 0.867071
O O7 0.456570 0.691112 0.503952
O O8 0.500000 0.000000 0.000000
#
# Coordination Sequence:
#
# PCOD9568068 Si02
#       6
#     4   8   8  16   8   2
#     4  12  20  36  54  72 112 160 186 208 252 368
#     4  12  20  30  53  87 108 129 180 252 278 313
#     4  10  16  34  52  77 105 142 169 231 283 344
#     4  10  19  32  54  78 108 141 182 219 279 324
#     4   8  15  32  52  72 102 146 174 212 278 357
#     4  12  16  28  56  72 108 124 164 230 300 308
#
# _framework density 16.672761999999999
#
# number of rings (size 3 to 8) (size 9 to 14) (size 15 to 20)
#    0.000    2.087    8.696    1.043    0.000    0.696 
#    0.000    3.478    0.000    0.000    0.000    0.000 
#    0.000    0.000    0.000    0.000    0.000    0.000 
#
# Total GULP energy -256122.462736 kJ/mol
# GULP energy per Si atom -5567.879625 kJ/mol
# Density = 1.663481 g / cm^3
# Si number density = 16.672762 Si / 1000 Ang^3
#
#
#
# Elastic Constant Matrix: (Units=GPa)
#
#
# Indices 1 2 3 4 5 6 
#
# 1 69.8620 72.3197 61.3118 0.0000 0.0000 0.0000
# 2 72.3197 69.8620 61.3118 0.0000 0.0000 0.0000
# 3 61.3118 61.3118 98.3966 0.0000 0.0000 0.0000
# 4 0.0000 0.0000 0.0000 24.8713 0.0000 0.0000
# 5 0.0000 0.0000 0.0000 0.0000 24.8713 0.0000
# 6 0.0000 0.0000 0.0000 0.0000 0.0000 26.3544
#
#
#
# Elastic Compliance Matrix: (Units=1/GPa)
#
#
# Indices 1 2 3 4 5 6 
#
# 1 -0.195845 0.211048 -0.009474 0.000000 0.000000 0.000000
# 2 0.211048 -0.195845 -0.009474 0.000000 0.000000 0.000000
# 3 -0.009474 -0.009474 0.021969 0.000000 0.000000 0.000000
# 4 0.000000 0.000000 0.000000 0.040207 0.000000 0.000000
# 5 0.000000 0.000000 0.000000 0.000000 0.040207 0.000000
# 6 0.000000 0.000000 0.000000 0.000000 0.000000 0.037944
#
#
# Mechanical properties :
#
#
# Convention : Reuss Voigt Hill
#
# Bulk Modulus (GPa) = 69.05027 69.77859 69.41443
# Shear Modulus (GPa) = -7.92724 18.09789 5.08533
#
# Velocity S-wave (km/s) = -2.18287 3.29823 1.74834
# Velocity P-wave (km/s) = 5.92889 7.51313 6.76753
#
# Compressibility (1/GPa) = 0.01448220
#
# Stress axis : x y z
#
# Youngs Moduli (GPa) = -5.10609 -5.10609 45.51861
#
# Poissons Ratio (x) = 1.07763 0.43122
# Poissons Ratio (y) = 1.07763 0.43122
# Poissons Ratio (z) = -0.04837 -0.04837
#
# Static dielectric constant tensor:
#      x y z
#    x 1.575220 0.000000 0.000000 
#    y 0.000000 1.575220 0.000000 
#    z 0.000000 0.000000 1.606020 
# 
# From -- ./inp_files/7320.got.cif
#   From: 2010.05.17/outbox.cif.g08.bks.cpg/sg134_4_cif.got.tgz:7320.got - 2010.05.20 12:42:49.
