data_PCOD9568171
_publ_section_title
;
Structure prediction by ZEFSAII (Michael W. Deem and Ramdas Pophale) SiO2 
 PCOD9568171
Probable space group: P 42/N N M
;
_chemical_formula_sum "Si O2"
_cell_formula_units_Z 96
_cell_length_a 21.461527
_cell_length_b 21.461527
_cell_length_c 9.361648
_cell_angle_alpha 90.000000
_cell_angle_beta 90.000000
_cell_angle_gamma 90.000000
_cell_volume 4311.948305
_symmetry_space_group_name_H-M "P 42/N N M"
_symmetry_group_IT_number 134
_space_group.IT_coordinate_system_code '2'
_symmetry_cell_setting 'tetragonal'
loop_
_space_group_symop_operation_xyz
x,y,z
1/2-y,x,1/2+z
1/2-x,1/2-y,z
y,1/2-x,1/2+z
x,1/2-y,1/2-z
1/2-x,y,1/2-z
y,x,-z
1/2-y,1/2-x,-z
-x,-y,-z
1/2+y,-x,1/2-z
1/2+x,1/2+y,-z
-y,1/2+x,1/2-z
-x,1/2+y,1/2+z
1/2+x,-y,1/2+z
-y,-x,z
1/2+y,1/2+x,z
loop_
_atom_site_type_symbol
_atom_site_label
_atom_site_fract_x
_atom_site_fract_y
_atom_site_fract_z
Si Si1 0.084945 0.016165 0.731770
Si Si2 0.829463 0.513830 0.481233
Si Si3 0.803752 0.845665 0.133141
Si Si4 0.075472 0.676081 0.254435
Si Si5 0.098113 0.154914 0.637295
Si Si6 0.985102 0.303334 0.023620
O O1 0.028383 0.971618 0.693983
O O2 0.106192 0.005388 0.895023
O O3 0.148188 0.999439 0.646660
O O4 0.071730 0.086828 0.683181
O O5 0.815815 0.586044 0.436768
O O6 0.834985 0.484103 0.640137
O O7 0.767614 0.476048 0.427761
O O8 0.750000 0.850179 0.250000
O O9 0.862426 0.824958 0.228249
O O10 0.799573 0.799573 0.000000
O O11 0.089652 0.750000 0.250000
O O12 0.131392 0.631392 0.302804
O O13 0.062319 0.665740 0.086792
O O14 0.141745 0.141745 0.500000
O O15 0.046026 0.200501 0.579065
#
# Coordination Sequence:
#
# PCOD9568171 Si02
#       6
#    16  16  16  16  16  16
#     4  10  19  31  52  83 116 144 177 233 295 346
#     4  10  20  37  59  81 109 151 198 238 285 351
#     4  11  22  39  63  88 117 152 195 248 302 358
#     4  10  21  35  54  82 114 152 196 241 290 344
#     4   9  19  34  55  83 113 151 190 231 293 353
#     4  10  19  34  56  79 108 150 195 234 280 347
#
# _framework density 22.263718000000001
#
# number of rings (size 3 to 8) (size 9 to 14) (size 15 to 20)
#    0.000    2.000    0.000    5.500    0.000    3.833 
#    0.000    2.500    0.000   24.000    0.000    0.000 
#    0.000   14.667    0.000    0.000    0.000    0.000 
#
# Total GULP energy -535537.100712 kJ/mol
# GULP energy per Si atom -5578.511466 kJ/mol
# Density = 2.221305 g / cm^3
# Si number density = 22.263718 Si / 1000 Ang^3
#
#
#
# Elastic Constant Matrix: (Units=GPa)
#
#
# Indices 1 2 3 4 5 6 
#
# 1 57.5524 40.3100 35.0019 0.0000 0.0000 0.0000
# 2 40.3100 57.5524 35.0019 0.0000 0.0000 0.0000
# 3 35.0019 35.0019 113.3864 0.0000 0.0000 0.0000
# 4 0.0000 0.0000 0.0000 24.2729 0.0000 0.0000
# 5 0.0000 0.0000 0.0000 0.0000 24.2729 0.0000
# 6 0.0000 0.0000 0.0000 0.0000 0.0000 27.6113
#
#
#
# Elastic Compliance Matrix: (Units=1/GPa)
#
#
# Indices 1 2 3 4 5 6 
#
# 1 0.035555 -0.022441 -0.004048 0.000000 0.000000 0.000000
# 2 -0.022441 0.035555 -0.004048 0.000000 0.000000 0.000000
# 3 -0.004048 -0.004048 0.011319 0.000000 0.000000 0.000000
# 4 0.000000 0.000000 0.000000 0.041198 0.000000 0.000000
# 5 0.000000 0.000000 0.000000 0.000000 0.041198 0.000000
# 6 0.000000 0.000000 0.000000 0.000000 0.000000 0.036217
#
#
# Mechanical properties :
#
#
# Convention : Reuss Voigt Hill
#
# Bulk Modulus (GPa) = 46.82943 49.90212 48.36577
# Shear Modulus (GPa) = 18.57101 23.10990 20.84046
#
# Velocity S-wave (km/s) = 2.89128 3.22531 3.06285
# Velocity P-wave (km/s) = 5.67676 6.02768 5.85485
#
# Compressibility (1/GPa) = 0.02135409
#
# Stress axis : x y z
#
# Youngs Moduli (GPa) = 28.12510 28.12510 88.34847
#
# Poissons Ratio (x) = 0.63116 0.35766
# Poissons Ratio (y) = 0.63116 0.35766
# Poissons Ratio (z) = 0.11386 0.11386
#
# Static dielectric constant tensor:
#      x y z
#    x 1.835650 0.000000 0.000000 
#    y 0.000000 1.835650 0.000000 
#    z 0.000000 0.000000 1.911790 
# 
# From -- ./inp_files/3195.got.cif
#   From: 2010.05.17/outbox.cif.g08.bks.cpg/sg134_2_cif.got.tgz:3195.got - 2010.05.20 12:42:49.
