data_PCOD9568268
_publ_section_title
;
Structure prediction by ZEFSAII (Michael W. Deem and Ramdas Pophale) SiO2 
 PCOD9568268
Probable space group: P 42/N N M
;
_chemical_formula_sum "Si O2"
_cell_formula_units_Z 80
_cell_length_a 11.926170
_cell_length_b 11.926170
_cell_length_c 28.893250
_cell_angle_alpha 90.000000
_cell_angle_beta 90.000000
_cell_angle_gamma 90.000000
_cell_volume 4109.588966
_symmetry_space_group_name_H-M "P 42/N N M"
_symmetry_group_IT_number 134
_space_group.IT_coordinate_system_code '2'
_symmetry_cell_setting 'tetragonal'
loop_
_space_group_symop_operation_xyz
x,y,z
1/2-y,x,1/2+z
1/2-x,1/2-y,z
y,1/2-x,1/2+z
x,1/2-y,1/2-z
1/2-x,y,1/2-z
y,x,-z
1/2-y,1/2-x,-z
-x,-y,-z
1/2+y,-x,1/2-z
1/2+x,1/2+y,-z
-y,1/2+x,1/2-z
-x,1/2+y,1/2+z
1/2+x,-y,1/2+z
-y,-x,z
1/2+y,1/2+x,z
loop_
_atom_site_type_symbol
_atom_site_label
_atom_site_fract_x
_atom_site_fract_y
_atom_site_fract_z
Si Si1 0.848672 0.664433 0.856222
Si Si2 0.359684 0.457909 0.546175
Si Si3 0.430352 0.753866 0.694333
Si Si4 0.437790 0.752264 0.383412
Si Si5 0.508013 0.821658 0.484649
O O1 0.750000 0.750000 0.846749
O O2 0.889844 0.674901 0.909269
O O3 0.797542 0.538012 0.851446
O O4 0.954865 0.707506 0.826908
O O5 0.386986 0.386986 0.500000
O O6 0.467941 0.532060 0.557699
O O7 0.259898 0.531931 0.525546
O O8 0.439204 0.750000 0.750000
O O9 0.336402 0.663599 0.680332
O O10 0.376157 0.876157 0.681784
O O11 0.343770 0.656231 0.387745
O O12 0.366908 0.866908 0.371295
O O13 0.496194 0.769565 0.433577
O O14 0.628114 0.871887 0.500000
O O15 0.424136 0.924136 0.482169
#
# Coordination Sequence:
#
# PCOD9568268 Si02
#       5
#    16  16  16  16  16
#     4  12  24  36  59  89 122 159 197 251 306 366
#     4  11  22  34  51  76 109 154 206 247 286 342
#     4   9  20  42  70  96 123 155 194 249 317 381
#     4  10  20  36  56  78 111 157 203 241 285 348
#     4  10  20  33  50  73 105 147 195 248 301 349
#
# _framework density 19.466667000000001
#
# number of rings (size 3 to 8) (size 9 to 14) (size 15 to 20)
#    0.000    1.600    2.000    4.200    0.000    3.200 
#    0.000    0.000    0.000    0.000    0.000    0.000 
#    0.000    6.400    0.000    0.000    0.000    0.000 
#
# Total GULP energy -445586.690530 kJ/mol
# GULP energy per Si atom -5569.833632 kJ/mol
# Density = 1.942236 g / cm^3
# Si number density = 19.466667 Si / 1000 Ang^3
#
#
#
# Elastic Constant Matrix: (Units=GPa)
#
#
# Indices 1 2 3 4 5 6 
#
# 1 122.8124 56.4586 34.8413 0.0000 0.0000 0.0000
# 2 56.4586 122.8125 34.8416 0.0000 0.0000 0.0000
# 3 34.8413 34.8416 29.5725 0.0000 0.0000 0.0000
# 4 0.0000 0.0000 0.0000 17.6857 0.0000 0.0000
# 5 0.0000 0.0000 0.0000 0.0000 17.6856 0.0000
# 6 0.0000 0.0000 0.0000 0.0000 0.0000 19.2672
#
#
#
# Elastic Compliance Matrix: (Units=1/GPa)
#
#
# Indices 1 2 3 4 5 6 
#
# 1 0.012681 -0.002390 -0.012124 0.000000 0.000000 0.000000
# 2 -0.002390 0.012681 -0.012125 0.000000 0.000000 0.000000
# 3 -0.012124 -0.012125 0.062385 0.000000 0.000000 0.000000
# 4 0.000000 0.000000 0.000000 0.056543 0.000000 0.000000
# 5 0.000000 0.000000 0.000000 0.000000 0.056543 0.000000
# 6 0.000000 0.000000 0.000000 0.000000 0.000000 0.051902
#
#
# Mechanical properties :
#
#
# Convention : Reuss Voigt Hill
#
# Bulk Modulus (GPa) = 29.01199 58.60894 43.81046
# Shear Modulus (GPa) = 15.74798 20.86476 18.30637
#
# Velocity S-wave (km/s) = 2.84733 3.27742 3.06991
# Velocity P-wave (km/s) = 5.07400 6.67043 5.92622
#
# Compressibility (1/GPa) = 0.03446851
#
# Stress axis : x y z
#
# Youngs Moduli (GPa) = 78.85956 78.85876 16.02961
#
# Poissons Ratio (x) = 0.18846 0.19435
# Poissons Ratio (y) = 0.18847 0.19435
# Poissons Ratio (z) = 0.95612 0.95614
#
# Static dielectric constant tensor:
#      x y z
#    x 1.794280 0.000000 0.000000 
#    y 0.000000 1.794280 0.000000 
#    z 0.000000 0.000000 1.658270 
# 
# From -- ./inp_files/11293.got.cif
#   From: 2010.05.17/outbox.cif.g08.bks.cpg/sg134_6_cif.got.tgz:11293.got - 2010.05.20 12:42:49.
