data_PCOD9568513
_publ_section_title
;
Structure prediction by ZEFSAII (Michael W. Deem and Ramdas Pophale) SiO2 
 PCOD9568513
Probable space group: P 42/N N M
;
_chemical_formula_sum "Si O2"
_cell_formula_units_Z 116
_cell_length_a 18.375489
_cell_length_b 18.375489
_cell_length_c 17.405552
_cell_angle_alpha 90.000000
_cell_angle_beta 90.000000
_cell_angle_gamma 90.000000
_cell_volume 5877.134251
_symmetry_space_group_name_H-M "P 42/N N M"
_symmetry_group_IT_number 134
_space_group.IT_coordinate_system_code '2'
_symmetry_cell_setting 'tetragonal'
loop_
_space_group_symop_operation_xyz
x,y,z
1/2-y,x,1/2+z
1/2-x,1/2-y,z
y,1/2-x,1/2+z
x,1/2-y,1/2-z
1/2-x,y,1/2-z
y,x,-z
1/2-y,1/2-x,-z
-x,-y,-z
1/2+y,-x,1/2-z
1/2+x,1/2+y,-z
-y,1/2+x,1/2-z
-x,1/2+y,1/2+z
1/2+x,-y,1/2+z
-y,-x,z
1/2+y,1/2+x,z
loop_
_atom_site_type_symbol
_atom_site_label
_atom_site_fract_x
_atom_site_fract_y
_atom_site_fract_z
Si Si1 0.506787 0.615095 0.456851
Si Si2 0.621239 0.704241 0.675578
Si Si3 0.750000 0.250000 0.025117
Si Si4 0.628423 0.010979 0.368319
Si Si5 0.968798 0.142593 0.311919
Si Si6 0.650103 0.651074 0.909140
Si Si7 0.233555 0.579827 0.940097
Si Si8 0.070970 0.219232 0.672521
O O1 0.575378 0.575378 0.500000
O O2 0.449157 0.550844 0.439769
O O3 0.464344 0.674427 0.509707
O O4 0.530315 0.660852 0.381386
O O5 0.601037 0.750000 0.750000
O O6 0.547691 0.662007 0.654565
O O7 0.651769 0.763720 0.616443
O O8 0.679143 0.644571 0.699386
O O9 0.659631 0.249052 0.028320
O O10 0.556180 0.056180 0.385778
O O11 0.649310 0.029164 0.279940
O O12 0.692352 0.035496 0.425737
O O13 0.620378 0.925128 0.375330
O O14 0.937715 0.062286 0.329806
O O15 0.915800 0.198268 0.354875
O O16 0.715028 0.601179 0.878818
O O17 0.648580 0.648580 0.000000
O O18 0.033559 0.250000 0.750000
#
# Coordination Sequence:
#
# PCOD9568513 Si02
#       8
#    16  16   4  16  16  16  16  16
#     4  11  26  46  74 103 135 176 231 304 359 419
#     4  12  22  42  65  91 135 180 217 270 346 407
#     4  12  24  36  67  96 139 184 222 292 352 396
#     4  11  23  39  63  91 137 189 225 269 339 412
#     4  11  21  36  62  94 134 179 223 276 327 414
#     4  12  26  42  63  95 132 176 227 279 328 412
#     4  12  21  42  61  99 136 173 233 281 349 402
#     4  12  26  42  68 100 133 175 226 283 346 413
#
# _framework density 19.73751
#
# number of rings (size 3 to 8) (size 9 to 14) (size 15 to 20)
#    0.000    0.414    6.207    2.483    1.931    2.483 
#    0.000    2.069    1.517    0.000    0.000    0.000 
#    0.000    0.000    0.000    0.000    0.000    0.000 
#
# Total GULP energy -646827.206256 kJ/mol
# GULP energy per Si atom -5576.096606 kJ/mol
# Density = 1.969259 g / cm^3
# Si number density = 19.737510 Si / 1000 Ang^3
#
#
#
# Elastic Constant Matrix: (Units=GPa)
#
#
# Indices 1 2 3 4 5 6 
#
# 1 104.0786 39.8338 29.8512 0.0000 0.0000 0.0000
# 2 39.8338 104.0786 29.8512 0.0000 0.0000 0.0000
# 3 29.8512 29.8512 97.3067 0.0000 0.0000 0.0000
# 4 0.0000 0.0000 0.0000 17.8130 0.0000 0.0000
# 5 0.0000 0.0000 0.0000 0.0000 17.8130 0.0000
# 6 0.0000 0.0000 0.0000 0.0000 0.0000 42.3466
#
#
#
# Elastic Compliance Matrix: (Units=1/GPa)
#
#
# Indices 1 2 3 4 5 6 
#
# 1 0.011764 -0.003802 -0.002443 0.000000 0.000000 0.000000
# 2 -0.003802 0.011764 -0.002443 0.000000 0.000000 0.000000
# 3 -0.002443 -0.002443 0.011775 0.000000 0.000000 0.000000
# 4 0.000000 0.000000 0.000000 0.056139 0.000000 0.000000
# 5 0.000000 0.000000 0.000000 0.000000 0.056139 0.000000
# 6 0.000000 0.000000 0.000000 0.000000 0.000000 0.023615
#
#
# Mechanical properties :
#
#
# Convention : Reuss Voigt Hill
#
# Bulk Modulus (GPa) = 55.77492 56.05960 55.91726
# Shear Modulus (GPa) = 25.70095 29.32302 27.51199
#
# Velocity S-wave (km/s) = 3.61243 3.85859 3.73754
# Velocity P-wave (km/s) = 6.76160 6.95096 6.85693
#
# Compressibility (1/GPa) = 0.01792921
#
# Stress axis : x y z
#
# Youngs Moduli (GPa) = 85.00719 85.00719 84.92282
#
# Poissons Ratio (x) = 0.32318 0.20743
# Poissons Ratio (y) = 0.32318 0.20743
# Poissons Ratio (z) = 0.20763 0.20763
#
# Static dielectric constant tensor:
#      x y z
#    x 1.731430 0.000000 0.000000 
#    y 0.000000 1.731430 0.000000 
#    z 0.000000 0.000000 1.722810 
# 
# From -- ./inp_files/8038.got.cif
#   From: 2010.05.17/outbox.cif.g08.bks.cpg/sg134_5_cif.got.tgz:8038.got - 2010.05.20 12:42:49.
