data_PCOD9568767
_publ_section_title
;
Structure prediction by ZEFSAII (Michael W. Deem and Ramdas Pophale) SiO2 
 PCOD9568767
Probable space group: P 42/M B C
;
_chemical_formula_sum "Si O2"
_cell_formula_units_Z 104
_cell_length_a 16.825678
_cell_length_b 16.825678
_cell_length_c 20.527173
_cell_angle_alpha 90.000000
_cell_angle_beta 90.000000
_cell_angle_gamma 90.000000
_cell_volume 5811.313293
_symmetry_space_group_name_H-M "P 42/M B C"
_symmetry_group_IT_number 135
_symmetry_cell_setting 'tetragonal'
loop_
_space_group_symop_operation_xyz
x,y,z
-y,x,1/2+z
-x,-y,z
y,-x,1/2+z
1/2+x,1/2-y,-z
1/2-x,1/2+y,-z
1/2+y,1/2+x,1/2-z
1/2-y,1/2-x,1/2-z
-x,-y,-z
y,-x,1/2-z
x,y,-z
-y,x,1/2-z
1/2-x,1/2+y,z
1/2+x,1/2-y,z
1/2-y,1/2-x,1/2+z
1/2+y,1/2+x,1/2+z
loop_
_atom_site_type_symbol
_atom_site_label
_atom_site_fract_x
_atom_site_fract_y
_atom_site_fract_z
Si Si1 0.780213 0.635569 0.130107
Si Si2 0.399671 0.370710 0.500000
Si Si3 0.689334 0.580761 0.000000
Si Si4 0.961296 0.193707 0.000000
Si Si5 0.150139 0.185518 0.132407
Si Si6 0.835338 0.205283 0.768738
Si Si7 0.979068 0.257494 0.139916
Si Si8 0.073823 0.448211 0.327160
O O1 0.739216 0.601077 0.065414
O O2 0.807885 0.728174 0.123390
O O3 0.720461 0.642170 0.192142
O O4 0.859926 0.585957 0.144461
O O5 0.492439 0.348555 0.500000
O O6 0.366187 0.462196 0.500000
O O7 0.362437 0.336929 0.433551
O O8 0.615909 0.640337 0.000000
O O9 0.959991 0.248095 0.936150
O O10 0.176967 0.140009 0.197169
O O11 0.058005 0.204440 0.146005
O O12 0.780536 0.280536 0.750000
O O13 0.907270 0.227749 0.815560
O O14 0.003272 0.346150 0.158870
O O15 0.062979 0.437022 0.250000
O O16 0.000000 0.500000 0.352358
#
# Coordination Sequence:
#
# PCOD9568767 Si02
#       8
#    16   8   8   8  16  16  16  16
#     4  10  20  39  59  86 118 160 203 250 310 362
#     4  10  22  37  57  88 117 159 196 248 309 362
#     4  12  22  37  62  87 120 159 200 268 299 352
#     4  10  21  42  61  83 121 166 210 241 309 375
#     4   9  20  38  58  82 121 156 196 246 301 368
#     4  10  20  35  60  89 115 152 208 255 289 363
#     4  10  20  39  63  86 118 167 203 246 307 373
#     4  10  22  39  61  90 126 164 199 257 317 374
#
# _framework density 17.896127
#
# number of rings (size 3 to 8) (size 9 to 14) (size 15 to 20)
#    0.000    2.000    1.538    3.000    2.154    4.308 
#    2.769    1.538    0.000    0.000    0.000    0.000 
#    0.000    0.000    0.000    0.000    0.000    0.000 
#
# Total GULP energy -579705.665928 kJ/mol
# GULP energy per Si atom -5574.092942 kJ/mol
# Density = 1.785539 g / cm^3
# Si number density = 17.896127 Si / 1000 Ang^3
#
#
#
# Elastic Constant Matrix: (Units=GPa)
#
#
# Indices 1 2 3 4 5 6 
#
# 1 66.0195 57.7697 66.7263 0.0000 0.0000 0.0000
# 2 57.7697 66.0182 66.7263 0.0000 0.0000 0.0000
# 3 66.7263 66.7263 165.2875 0.0000 0.0000 0.0000
# 4 0.0000 0.0000 0.0000 14.6112 0.0000 0.0000
# 5 0.0000 0.0000 0.0000 0.0000 14.6095 0.0000
# 6 0.0000 0.0000 0.0000 0.0000 0.0000 15.4005
#
#
#
# Elastic Compliance Matrix: (Units=1/GPa)
#
#
# Indices 1 2 3 4 5 6 
#
# 1 0.067763 -0.053461 -0.005774 0.000000 0.000000 0.000000
# 2 -0.053461 0.067765 -0.005775 0.000000 0.000000 0.000000
# 3 -0.005774 -0.005775 0.010712 0.000000 0.000000 0.000000
# 4 0.000000 0.000000 0.000000 0.068441 0.000000 0.000000
# 5 0.000000 0.000000 0.000000 0.000000 0.068449 0.000000
# 6 0.000000 0.000000 0.000000 0.000000 0.000000 0.064933
#
#
# Mechanical properties :
#
#
# Convention : Reuss Voigt Hill
#
# Bulk Modulus (GPa) = 61.64517 75.52998 68.58757
# Shear Modulus (GPa) = 10.34151 15.99776 13.16963
#
# Velocity S-wave (km/s) = 2.40649 2.99310 2.71568
# Velocity P-wave (km/s) = 6.49942 7.36486 6.94563
#
# Compressibility (1/GPa) = 0.01622187
#
# Stress axis : x y z
#
# Youngs Moduli (GPa) = 14.75732 14.75682 93.35189
#
# Poissons Ratio (x) = 0.78891 0.53899
# Poissons Ratio (y) = 0.78894 0.53908
# Poissons Ratio (z) = 0.08521 0.08522
#
# Static dielectric constant tensor:
#      x y z
#    x 1.606510 0.000000 0.000000 
#    y 0.000000 1.606510 0.000000 
#    z 0.000000 0.000000 1.676040 
# 
# From -- ./inp_files/4582.got.cif
#   From: 2010.05.17/outbox.cif.g08.bks.cpg/sg135_3_cif.got.tgz:4582.got - 2010.05.20 12:50:20.
