data_PCOD9568657
_publ_section_title
;
Structure prediction by ZEFSAII (Michael W. Deem and Ramdas Pophale) SiO2 
 PCOD9568657
Probable space group: P 42/M B C
;
_chemical_formula_sum "Si O2"
_cell_formula_units_Z 96
_cell_length_a 23.119213
_cell_length_b 23.119213
_cell_length_c 7.934748
_cell_angle_alpha 90.000000
_cell_angle_beta 90.000000
_cell_angle_gamma 90.000000
_cell_volume 4241.107014
_symmetry_space_group_name_H-M "P 42/M B C"
_symmetry_group_IT_number 135
_symmetry_cell_setting 'tetragonal'
loop_
_space_group_symop_operation_xyz
x,y,z
-y,x,1/2+z
-x,-y,z
y,-x,1/2+z
1/2+x,1/2-y,-z
1/2-x,1/2+y,-z
1/2+y,1/2+x,1/2-z
1/2-y,1/2-x,1/2-z
-x,-y,-z
y,-x,1/2-z
x,y,-z
-y,x,1/2-z
1/2-x,1/2+y,z
1/2+x,1/2-y,z
1/2-y,1/2-x,1/2+z
1/2+y,1/2+x,1/2+z
loop_
_atom_site_type_symbol
_atom_site_label
_atom_site_fract_x
_atom_site_fract_y
_atom_site_fract_z
Si Si1 0.563854 0.364993 0.306034
Si Si2 0.063394 0.653312 0.301128
Si Si3 0.154018 0.239188 0.304720
Si Si4 0.439182 0.342406 0.692569
Si Si5 0.430322 0.840376 0.295931
Si Si6 0.650063 0.745131 0.190013
O O1 0.555301 0.384313 0.500000
O O2 0.606592 0.311066 0.307730
O O3 0.592921 0.415025 0.199746
O O4 0.503353 0.342472 0.241820
O O5 0.092253 0.592253 0.250000
O O6 0.057128 0.653149 0.500000
O O7 0.112623 0.701656 0.261124
O O8 0.997509 0.665082 0.235179
O O9 0.168927 0.253794 0.500000
O O10 0.117329 0.292966 0.230669
O O11 0.210654 0.205461 0.230011
O O12 0.436863 0.320019 0.500000
O O13 0.397841 0.304880 0.807135
O O14 0.402195 0.902195 0.250000
O O15 0.431225 0.833325 0.500000
O O16 0.666444 0.761499 0.000000
#
# Coordination Sequence:
#
# PCOD9568657 Si02
#       6
#    16  16  16  16  16  16
#     4   9  18  32  48  68 101 145 192 244 300 358
#     4  11  24  42  64  90 123 163 206 252 303 361
#     4   8  16  34  58  83 113 150 190 236 294 356
#     4  10  19  31  49  73 104 145 194 246 300 359
#     4  10  22  41  64  89 120 159 202 250 305 363
#     4  10  20  36  60  89 121 154 192 242 300 365
#
# _framework density 22.635601000000001
#
# number of rings (size 3 to 8) (size 9 to 14) (size 15 to 20)
#    0.000    2.333    0.000    3.500    0.000    6.667 
#    0.000    9.167    0.000    0.000    0.000    0.000 
#    0.000    0.000    0.000    0.000    0.000    0.000 
#
# Total GULP energy -534612.757566 kJ/mol
# GULP energy per Si atom -5568.882891 kJ/mol
# Density = 2.258408 g / cm^3
# Si number density = 22.635601 Si / 1000 Ang^3
#
#
#
# Elastic Constant Matrix: (Units=GPa)
#
#
# Indices 1 2 3 4 5 6 
#
# 1 127.6727 82.6567 12.2890 0.0000 0.0000 0.0000
# 2 82.6567 127.6727 12.2890 0.0000 0.0000 0.0000
# 3 12.2890 12.2890 26.5146 0.0000 0.0000 0.0000
# 4 0.0000 0.0000 0.0000 23.1852 0.0000 0.0000
# 5 0.0000 0.0000 0.0000 0.0000 23.1852 0.0000
# 6 0.0000 0.0000 0.0000 0.0000 0.0000 21.6673
#
#
#
# Elastic Compliance Matrix: (Units=1/GPa)
#
#
# Indices 1 2 3 4 5 6 
#
# 1 0.013621 -0.008594 -0.002330 0.000000 0.000000 0.000000
# 2 -0.008594 0.013621 -0.002330 0.000000 0.000000 0.000000
# 3 -0.002330 -0.002330 0.039875 0.000000 0.000000 0.000000
# 4 0.000000 0.000000 0.000000 0.043131 0.000000 0.000000
# 5 0.000000 0.000000 0.000000 0.000000 0.043131 0.000000
# 6 0.000000 0.000000 0.000000 0.000000 0.000000 0.046152
#
#
# Mechanical properties :
#
#
# Convention : Reuss Voigt Hill
#
# Bulk Modulus (GPa) = 24.62511 55.14773 39.88642
# Shear Modulus (GPa) = 20.87045 25.24923 23.05984
#
# Velocity S-wave (km/s) = 3.03977 3.34348 3.19524
# Velocity P-wave (km/s) = 4.81901 6.27067 5.59214
#
# Compressibility (1/GPa) = 0.04060895
#
# Stress axis : x y z
#
# Youngs Moduli (GPa) = 73.41870 73.41870 25.07859
#
# Poissons Ratio (x) = 0.63095 0.05843
# Poissons Ratio (y) = 0.63095 0.05843
# Poissons Ratio (z) = 0.17105 0.17105
#
# Static dielectric constant tensor:
#      x y z
#    x 1.874040 0.000000 0.000000 
#    y 0.000000 1.874040 0.000000 
#    z 0.000000 0.000000 1.657680 
# 
# From -- ./inp_files/1288.got.cif
#   From: 2010.05.17/outbox.cif.g08.bks.cpg/sg135_1_cif.got.tgz:1288.got - 2010.05.20 12:50:20.
