data_PCOD9568744
_publ_section_title
;
Structure prediction by ZEFSAII (Michael W. Deem and Ramdas Pophale) SiO2 
 PCOD9568744
Probable space group: P 42/M B C
;
_chemical_formula_sum "Si O2"
_cell_formula_units_Z 116
_cell_length_a 18.892554
_cell_length_b 18.892554
_cell_length_c 18.346087
_cell_angle_alpha 90.000000
_cell_angle_beta 90.000000
_cell_angle_gamma 90.000000
_cell_volume 6548.243087
_symmetry_space_group_name_H-M "P 42/M B C"
_symmetry_group_IT_number 135
_symmetry_cell_setting 'tetragonal'
loop_
_space_group_symop_operation_xyz
x,y,z
-y,x,1/2+z
-x,-y,z
y,-x,1/2+z
1/2+x,1/2-y,-z
1/2-x,1/2+y,-z
1/2+y,1/2+x,1/2-z
1/2-y,1/2-x,1/2-z
-x,-y,-z
y,-x,1/2-z
x,y,-z
-y,x,1/2-z
1/2-x,1/2+y,z
1/2+x,1/2-y,z
1/2-y,1/2-x,1/2+z
1/2+y,1/2+x,1/2+z
loop_
_atom_site_type_symbol
_atom_site_label
_atom_site_fract_x
_atom_site_fract_y
_atom_site_fract_z
Si Si1 0.161275 0.271694 0.086038
Si Si2 0.957118 0.779292 0.191416
Si Si3 0.618581 0.268910 0.345610
Si Si4 0.766168 0.346032 0.141892
Si Si5 0.802126 0.976458 0.916304
Si Si6 0.000000 0.000000 0.000000
Si Si7 0.376290 0.261182 0.189276
Si Si8 0.939387 0.048115 0.645491
O O1 0.087684 0.254939 0.125854
O O2 0.203773 0.332756 0.129247
O O3 0.210245 0.202449 0.098879
O O4 0.154931 0.286036 0.000000
O O5 0.919060 0.758748 0.267298
O O6 0.954405 0.864244 0.183590
O O7 0.039492 0.759613 0.187730
O O8 0.556526 0.280247 0.403223
O O9 0.668453 0.338411 0.341298
O O10 0.760006 0.422833 0.106063
O O11 0.742282 0.353039 0.225988
O O12 0.840187 0.304645 0.146918
O O13 0.870206 0.961279 0.865683
O O14 0.823912 0.965710 0.000000
O O15 0.985541 0.940489 0.935655
O O16 0.000000 0.000000 0.680053
#
# Coordination Sequence:
#
# PCOD9568744 Si02
#       8
#    16  16  16  16  16   4  16  16
#     4  11  23  40  62  87 119 164 210 252 309 366
#     4  12  22  37  61  87 120 165 201 250 307 367
#     4  11  23  39  57  91 125 157 201 261 297 360
#     4  10  20  37  61  83 118 154 205 250 290 369
#     4  12  20  35  59  84 118 163 203 241 300 362
#     4   8  20  36  44  78 132 164 194 240 276 346
#     4  10  21  39  57  90 120 152 197 254 307 352
#     4  10  20  34  53  84 123 163 202 236 288 365
#
# _framework density 17.714676000000001
#
# number of rings (size 3 to 8) (size 9 to 14) (size 15 to 20)
#    0.414    0.828    4.828    2.069    0.966    0.000 
#    0.000    4.138    0.000    0.828    0.000    1.931 
#    0.000    0.000    0.000    0.000    0.000    0.000 
#
# Total GULP energy -646250.956486 kJ/mol
# GULP energy per Si atom -5571.128935 kJ/mol
# Density = 1.767436 g / cm^3
# Si number density = 17.714676 Si / 1000 Ang^3
#
#
#
# Elastic Constant Matrix: (Units=GPa)
#
#
# Indices 1 2 3 4 5 6 
#
# 1 100.8309 67.4258 35.8473 0.0000 0.0000 0.0000
# 2 67.4258 100.8309 35.8473 0.0000 0.0000 0.0000
# 3 35.8473 35.8473 97.5551 0.0000 0.0000 0.0000
# 4 0.0000 0.0000 0.0000 26.1383 0.0000 0.0000
# 5 0.0000 0.0000 0.0000 0.0000 26.1383 0.0000
# 6 0.0000 0.0000 0.0000 0.0000 0.0000 21.5676
#
#
#
# Elastic Compliance Matrix: (Units=1/GPa)
#
#
# Indices 1 2 3 4 5 6 
#
# 1 0.018491 -0.011444 -0.002589 0.000000 0.000000 0.000000
# 2 -0.011444 0.018491 -0.002589 0.000000 0.000000 0.000000
# 3 -0.002589 -0.002589 0.012154 0.000000 0.000000 0.000000
# 4 0.000000 0.000000 0.000000 0.038258 0.000000 0.000000
# 5 0.000000 0.000000 0.000000 0.000000 0.038258 0.000000
# 6 0.000000 0.000000 0.000000 0.000000 0.000000 0.046366
#
#
# Mechanical properties :
#
#
# Convention : Reuss Voigt Hill
#
# Bulk Modulus (GPa) = 62.93473 64.16195 63.54834
# Shear Modulus (GPa) = 23.74616 25.44195 24.59406
#
# Velocity S-wave (km/s) = 3.66523 3.79384 3.73009
# Velocity P-wave (km/s) = 7.31545 7.44911 7.38259
#
# Compressibility (1/GPa) = 0.01588948
#
# Stress axis : x y z
#
# Youngs Moduli (GPa) = 54.08016 54.08016 82.28054
#
# Poissons Ratio (x) = 0.61892 0.21305
# Poissons Ratio (y) = 0.61892 0.21305
# Poissons Ratio (z) = 0.14003 0.14003
#
# Static dielectric constant tensor:
#      x y z
#    x 1.543550 0.000000 0.000000 
#    y 0.000000 1.543550 0.000000 
#    z 0.000000 0.000000 1.619430 
# 
# From -- ./inp_files/4624.got.cif
#   From: 2010.05.17/outbox.cif.g08.bks.cpg/sg135_3_cif.got.tgz:4624.got - 2010.05.20 12:50:20.
