data_PCOD9568212
_publ_section_title
;
Structure prediction by ZEFSAII (Michael W. Deem and Ramdas Pophale) SiO2 
 PCOD9568212
Probable space group: P 42/N N M
;
_chemical_formula_sum "Si O2"
_cell_formula_units_Z 58
_cell_length_a 20.793137
_cell_length_b 20.793137
_cell_length_c 7.593371
_cell_angle_alpha 90.000000
_cell_angle_beta 90.000000
_cell_angle_gamma 90.000000
_cell_volume 3283.028474
_symmetry_space_group_name_H-M "P 42/N N M"
_symmetry_group_IT_number 134
_space_group.IT_coordinate_system_code '2'
_symmetry_cell_setting 'tetragonal'
loop_
_space_group_symop_operation_xyz
x,y,z
1/2-y,x,1/2+z
1/2-x,1/2-y,z
y,1/2-x,1/2+z
x,1/2-y,1/2-z
1/2-x,y,1/2-z
y,x,-z
1/2-y,1/2-x,-z
-x,-y,-z
1/2+y,-x,1/2-z
1/2+x,1/2+y,-z
-y,1/2+x,1/2-z
-x,1/2+y,1/2+z
1/2+x,-y,1/2+z
-y,-x,z
1/2+y,1/2+x,z
loop_
_atom_site_type_symbol
_atom_site_label
_atom_site_fract_x
_atom_site_fract_y
_atom_site_fract_z
Si Si1 0.750000 0.250000 0.750000
Si Si2 0.889681 0.389681 0.229428
Si Si3 0.426560 0.073441 0.000000
Si Si4 0.999308 0.699536 0.902825
Si Si5 0.347561 0.652440 0.116973
Si Si6 0.002558 0.502558 0.713790
Si Si7 0.250000 0.950554 0.250000
O O1 0.793199 0.293199 0.624334
O O2 0.833066 0.430165 0.135796
O O3 0.866119 0.366119 0.419682
O O4 0.943709 0.443709 0.254447
O O5 0.356298 0.053330 0.932000
O O6 0.472668 0.057843 0.830407
O O7 0.984312 0.750000 0.750000
O O8 0.007195 0.738728 0.080404
O O9 0.313197 0.593276 0.214833
O O10 0.000000 0.500000 0.500000
#
# Coordination Sequence:
#
# PCOD9568212 Si02
#       7
#     2   8   8  16   8   8   8
#     4   8  20  32  44  74 112 154 200 228 262 312
#     4  10  20  36  52  81 114 142 186 241 275 341
#     4   9  22  36  52  84 117 140 186 248 279 349
#     4  11  22  38  56  83 114 151 191 239 299 346
#     4  10  19  34  51  78 110 153 192 232 271 328
#     4   9  19  33  56  79 111 149 179 220 299 347
#     4  11  22  35  58  78 113 152 195 230 280 342
#
# _framework density 17.666615
#
# number of rings (size 3 to 8) (size 9 to 14) (size 15 to 20)
#    0.000    1.931    2.759    1.655    3.862    0.000 
#    0.000    1.379    0.000    0.000    0.000    2.897 
#    0.000    0.000    0.000    0.000    0.000    0.000 
#
# Total GULP energy -323130.064627 kJ/mol
# GULP energy per Si atom -5571.208011 kJ/mol
# Density = 1.762640 g / cm^3
# Si number density = 17.666615 Si / 1000 Ang^3
#
#
#
# Elastic Constant Matrix: (Units=GPa)
#
#
# Indices 1 2 3 4 5 6 
#
# 1 76.1718 38.0503 44.8057 0.0000 0.0000 0.0000
# 2 38.0503 76.1735 44.8060 0.0000 0.0000 0.0000
# 3 44.8057 44.8060 155.0523 0.0000 0.0000 0.0000
# 4 0.0000 0.0000 0.0000 14.5613 0.0000 0.0000
# 5 0.0000 0.0000 0.0000 0.0000 14.5600 0.0000
# 6 0.0000 0.0000 0.0000 0.0000 0.0000 49.7972
#
#
#
# Elastic Compliance Matrix: (Units=1/GPa)
#
#
# Indices 1 2 3 4 5 6 
#
# 1 0.018777 -0.007455 -0.003272 0.000000 0.000000 0.000000
# 2 -0.007455 0.018776 -0.003272 0.000000 0.000000 0.000000
# 3 -0.003272 -0.003272 0.008340 0.000000 0.000000 0.000000
# 4 0.000000 0.000000 0.000000 0.068675 0.000000 0.000000
# 5 0.000000 0.000000 0.000000 0.000000 0.068681 0.000000
# 6 0.000000 0.000000 0.000000 0.000000 0.000000 0.020081
#
#
# Mechanical properties :
#
#
# Convention : Reuss Voigt Hill
#
# Bulk Modulus (GPa) = 55.87584 62.52462 59.20023
# Shear Modulus (GPa) = 21.07100 27.76607 24.41853
#
# Velocity S-wave (km/s) = 3.45730 3.96873 3.72181
# Velocity P-wave (km/s) = 6.90172 7.51461 7.21468
#
# Compressibility (1/GPa) = 0.01789682
#
# Stress axis : x y z
#
# Youngs Moduli (GPa) = 53.25773 53.25895 119.90061
#
# Poissons Ratio (x) = 0.39704 0.39227
# Poissons Ratio (y) = 0.39703 0.39226
# Poissons Ratio (z) = 0.17424 0.17424
#
# Static dielectric constant tensor:
#      x y z
#    x 1.625110 0.000000 0.000000 
#    y 0.000000 1.625110 0.000000 
#    z 0.000000 0.000000 9.452720 
# 
# From -- ./inp_files/907.got.cif
#   From: 2010.05.17/outbox.cif.g08.bks.cpg/sg134_1_cif.got.tgz:907.got - 2010.05.20 12:42:49.
