data_PCOD9568859
_publ_section_title
;
Structure prediction by ZEFSAII (Michael W. Deem and Ramdas Pophale) SiO2 
 PCOD9568859
Probable space group: P 42/M B C
;
_chemical_formula_sum "Si O2"
_cell_formula_units_Z 96
_cell_length_a 24.049444
_cell_length_b 24.049444
_cell_length_c 8.772884
_cell_angle_alpha 90.000000
_cell_angle_beta 90.000000
_cell_angle_gamma 90.000000
_cell_volume 5074.023422
_symmetry_space_group_name_H-M "P 42/M B C"
_symmetry_group_IT_number 135
_symmetry_cell_setting 'tetragonal'
loop_
_space_group_symop_operation_xyz
x,y,z
-y,x,1/2+z
-x,-y,z
y,-x,1/2+z
1/2+x,1/2-y,-z
1/2-x,1/2+y,-z
1/2+y,1/2+x,1/2-z
1/2-y,1/2-x,1/2-z
-x,-y,-z
y,-x,1/2-z
x,y,-z
-y,x,1/2-z
1/2-x,1/2+y,z
1/2+x,1/2-y,z
1/2-y,1/2-x,1/2+z
1/2+y,1/2+x,1/2+z
loop_
_atom_site_type_symbol
_atom_site_label
_atom_site_fract_x
_atom_site_fract_y
_atom_site_fract_z
Si Si1 0.143029 0.000088 0.831880
Si Si2 0.877146 0.899405 0.331035
Si Si3 0.792595 0.827070 0.177148
Si Si4 0.277243 0.861439 0.815970
Si Si5 0.491838 0.774165 0.322983
Si Si6 0.188498 0.606587 0.318315
O O1 0.115092 0.035908 0.701146
O O2 0.130833 0.935340 0.821452
O O3 0.208953 0.006346 0.820027
O O4 0.123821 0.018238 0.000000
O O5 0.852907 0.889736 0.500000
O O6 0.837301 0.875799 0.202121
O O7 0.823671 0.774160 0.253627
O O8 0.737615 0.852932 0.253988
O O9 0.781741 0.815136 0.000000
O O10 0.331814 0.831814 0.750000
O O11 0.277271 0.927020 0.770985
O O12 0.274941 0.859528 0.000000
O O13 0.493377 0.792747 0.500000
O O14 0.542556 0.802578 0.233164
O O15 0.132159 0.632159 0.250000
O O16 0.188969 0.609906 0.500000
#
# Coordination Sequence:
#
# PCOD9568859 Si02
#       6
#    16  16  16  16  16  16
#     4  10  21  38  57  80 114 155 199 246 298 349
#     4  11  22  37  57  82 113 154 203 250 296 346
#     4  12  23  37  59  88 123 159 198 244 299 353
#     4  11  23  41  63  91 126 159 198 244 294 352
#     4  10  21  40  63  87 121 158 192 239 296 353
#     4  12  25  41  63  91 123 157 199 243 295 356
#
# _framework density 18.919896999999999
#
# number of rings (size 3 to 8) (size 9 to 14) (size 15 to 20)
#    0.000    1.000    3.333    4.500    0.000    3.000 
#    0.000    1.667    0.000    0.500    0.000    3.500 
#    0.000    0.000    0.000    0.000    0.000    0.000 
#
# Total GULP energy -535792.398812 kJ/mol
# GULP energy per Si atom -5581.170821 kJ/mol
# Density = 1.887683 g / cm^3
# Si number density = 18.919897 Si / 1000 Ang^3
#
#
#
# Elastic Constant Matrix: (Units=GPa)
#
#
# Indices 1 2 3 4 5 6 
#
# 1 94.3484 28.8215 38.9972 0.0000 0.0000 0.0000
# 2 28.8215 94.3484 38.9972 0.0000 0.0000 0.0000
# 3 38.9972 38.9972 97.9088 0.0000 0.0000 0.0000
# 4 0.0000 0.0000 0.0000 18.4300 0.0000 0.0000
# 5 0.0000 0.0000 0.0000 0.0000 18.4300 0.0000
# 6 0.0000 0.0000 0.0000 0.0000 0.0000 27.8738
#
#
#
# Elastic Compliance Matrix: (Units=1/GPa)
#
#
# Indices 1 2 3 4 5 6 
#
# 1 0.013059 -0.002202 -0.004324 0.000000 0.000000 0.000000
# 2 -0.002202 0.013059 -0.004324 0.000000 0.000000 0.000000
# 3 -0.004324 -0.004324 0.013658 0.000000 0.000000 0.000000
# 4 0.000000 0.000000 0.000000 0.054259 0.000000 0.000000
# 5 0.000000 0.000000 0.000000 0.000000 0.054259 0.000000
# 6 0.000000 0.000000 0.000000 0.000000 0.000000 0.035876
#
#
# Mechanical properties :
#
#
# Convention : Reuss Voigt Hill
#
# Bulk Modulus (GPa) = 55.32473 55.58197 55.45335
# Shear Modulus (GPa) = 23.59630 24.93274 24.26452
#
# Velocity S-wave (km/s) = 3.53536 3.63410 3.58507
# Velocity P-wave (km/s) = 6.78012 6.85931 6.81983
#
# Compressibility (1/GPa) = 0.01807510
#
# Stress axis : x y z
#
# Youngs Moduli (GPa) = 76.57518 76.57518 73.21472
#
# Poissons Ratio (x) = 0.16861 0.31661
# Poissons Ratio (y) = 0.16861 0.31661
# Poissons Ratio (z) = 0.33115 0.33115
#
# Static dielectric constant tensor:
#      x y z
#    x 1.682050 0.000000 0.000000 
#    y 0.000000 1.682050 0.000000 
#    z 0.000000 0.000000 1.755040 
# 
# From -- ./inp_files/1233.got.cif
#   From: 2010.05.17/outbox.cif.g08.bks.cpg/sg135_1_cif.got.tgz:1233.got - 2010.05.20 12:50:20.
