data_PCOD9568234
_publ_section_title
;
Structure prediction by ZEFSAII (Michael W. Deem and Ramdas Pophale) SiO2 
 PCOD9568234
Probable space group: P 42/N N M
;
_chemical_formula_sum "Si O2"
_cell_formula_units_Z 80
_cell_length_a 13.837101
_cell_length_b 13.837101
_cell_length_c 21.801156
_cell_angle_alpha 90.000000
_cell_angle_beta 90.000000
_cell_angle_gamma 90.000000
_cell_volume 4174.166271
_symmetry_space_group_name_H-M "P 42/N N M"
_symmetry_group_IT_number 134
_space_group.IT_coordinate_system_code '2'
_symmetry_cell_setting 'tetragonal'
loop_
_space_group_symop_operation_xyz
x,y,z
1/2-y,x,1/2+z
1/2-x,1/2-y,z
y,1/2-x,1/2+z
x,1/2-y,1/2-z
1/2-x,y,1/2-z
y,x,-z
1/2-y,1/2-x,-z
-x,-y,-z
1/2+y,-x,1/2-z
1/2+x,1/2+y,-z
-y,1/2+x,1/2-z
-x,1/2+y,1/2+z
1/2+x,-y,1/2+z
-y,-x,z
1/2+y,1/2+x,z
loop_
_atom_site_type_symbol
_atom_site_label
_atom_site_fract_x
_atom_site_fract_y
_atom_site_fract_z
Si Si1 0.754170 0.869616 0.935467
Si Si2 0.102491 0.050347 0.354121
Si Si3 0.473084 0.374095 0.091361
Si Si4 0.672571 0.012262 0.042151
Si Si5 0.014767 0.138283 0.235591
O O1 0.750000 0.750000 0.935935
O O2 0.708976 0.918073 0.874521
O O3 0.867661 0.883236 0.936290
O O4 0.701210 0.935888 0.987990
O O5 0.040620 0.114245 0.403083
O O6 0.081512 0.084736 0.285292
O O7 0.057965 0.942036 0.360662
O O8 0.535893 0.464108 0.072902
O O9 0.530715 0.277327 0.071587
O O10 0.459132 0.374059 0.164770
O O11 0.603074 0.103074 0.023344
O O12 0.014664 0.250000 0.250000
O O13 0.910042 0.089959 0.244502
#
# Coordination Sequence:
#
# PCOD9568234 Si02
#       5
#    16  16  16  16  16
#     4  12  23  38  62  87 119 156 199 241 296 349
#     4  10  21  36  58  89 117 144 193 249 290 344
#     4  11  25  40  58  86 123 157 193 241 299 356
#     4  11  23  38  59  85 117 155 199 244 284 337
#     4  10  19  36  56  82 117 153 190 238 294 351
#
# _framework density 19.165503000000001
#
# number of rings (size 3 to 8) (size 9 to 14) (size 15 to 20)
#    0.000    1.200    4.000    1.800    2.800    4.600 
#    0.000    4.000    0.000    1.800    0.000    0.000 
#    0.000    9.600    0.000    0.000    0.000    0.000 
#
# Total GULP energy -445448.515223 kJ/mol
# GULP energy per Si atom -5568.106440 kJ/mol
# Density = 1.912188 g / cm^3
# Si number density = 19.165503 Si / 1000 Ang^3
#
#
#
# Elastic Constant Matrix: (Units=GPa)
#
#
# Indices 1 2 3 4 5 6 
#
# 1 97.5080 92.4225 31.4053 0.0000 0.0000 0.0000
# 2 92.4225 97.5080 31.4053 0.0000 0.0000 0.0000
# 3 31.4053 31.4053 78.0923 0.0000 0.0000 0.0000
# 4 0.0000 0.0000 0.0000 13.1181 0.0000 0.0000
# 5 0.0000 0.0000 0.0000 0.0000 13.1181 0.0000
# 6 0.0000 0.0000 0.0000 0.0000 0.0000 33.5796
#
#
#
# Elastic Compliance Matrix: (Units=1/GPa)
#
#
# Indices 1 2 3 4 5 6 
#
# 1 0.101355 -0.095283 -0.002442 0.000000 0.000000 0.000000
# 2 -0.095283 0.101355 -0.002442 0.000000 0.000000 0.000000
# 3 -0.002442 -0.002442 0.014770 0.000000 0.000000 0.000000
# 4 0.000000 0.000000 0.000000 0.076231 0.000000 0.000000
# 5 0.000000 0.000000 0.000000 0.000000 0.076231 0.000000
# 6 0.000000 0.000000 0.000000 0.000000 0.000000 0.029780
#
#
# Mechanical properties :
#
#
# Convention : Reuss Voigt Hill
#
# Bulk Modulus (GPa) = 58.32142 64.84158 61.58150
# Shear Modulus (GPa) = 8.25394 19.82148 14.03771
#
# Velocity S-wave (km/s) = 2.07750 3.21943 2.70931
# Velocity P-wave (km/s) = 6.02089 6.90837 6.47984
#
# Compressibility (1/GPa) = 0.01714636
#
# Stress axis : x y z
#
# Youngs Moduli (GPa) = 9.86628 9.86628 67.70643
#
# Poissons Ratio (x) = 0.94008 0.16535
# Poissons Ratio (y) = 0.94008 0.16535
# Poissons Ratio (z) = 0.02410 0.02410
#
# Static dielectric constant tensor:
#      x y z
#    x 1.686440 0.000000 0.000000 
#    y 0.000000 1.686440 0.000000 
#    z 0.000000 0.000000 1.765620 
# 
# From -- ./inp_files/8904.got.cif
#   From: 2010.05.17/outbox.cif.g08.bks.cpg/sg134_5_cif.got.tgz:8904.got - 2010.05.20 12:42:49.
