data_PCOD9568195
_publ_section_title
;
Structure prediction by ZEFSAII (Michael W. Deem and Ramdas Pophale) SiO2 
 PCOD9568195
Probable space group: P 42/N N M
;
_chemical_formula_sum "Si O2"
_cell_formula_units_Z 112
_cell_length_a 17.864445
_cell_length_b 17.864445
_cell_length_c 18.435465
_cell_angle_alpha 90.000000
_cell_angle_beta 90.000000
_cell_angle_gamma 90.000000
_cell_volume 5883.464714
_symmetry_space_group_name_H-M "P 42/N N M"
_symmetry_group_IT_number 134
_space_group.IT_coordinate_system_code '2'
_symmetry_cell_setting 'tetragonal'
loop_
_space_group_symop_operation_xyz
x,y,z
1/2-y,x,1/2+z
1/2-x,1/2-y,z
y,1/2-x,1/2+z
x,1/2-y,1/2-z
1/2-x,y,1/2-z
y,x,-z
1/2-y,1/2-x,-z
-x,-y,-z
1/2+y,-x,1/2-z
1/2+x,1/2+y,-z
-y,1/2+x,1/2-z
-x,1/2+y,1/2+z
1/2+x,-y,1/2+z
-y,-x,z
1/2+y,1/2+x,z
loop_
_atom_site_type_symbol
_atom_site_label
_atom_site_fract_x
_atom_site_fract_y
_atom_site_fract_z
Si Si1 0.904864 0.285688 0.516320
Si Si2 0.048399 0.137793 0.059298
Si Si3 0.921591 0.841109 0.348044
Si Si4 0.434559 0.051137 0.290671
Si Si5 0.712471 0.037712 0.678322
Si Si6 0.292058 0.131565 0.936919
Si Si7 0.133663 0.985962 0.495196
O O1 0.826195 0.326195 0.499894
O O2 0.917569 0.287186 0.603420
O O3 0.924288 0.199704 0.499282
O O4 0.970004 0.331898 0.473463
O O5 0.048201 0.100856 0.138729
O O6 0.105521 0.207559 0.065416
O O7 0.080267 0.080267 0.000000
O O8 0.916293 0.897584 0.281342
O O9 0.835959 0.831454 0.371139
O O10 0.962843 0.763307 0.330403
O O11 0.975696 0.868633 0.414744
O O12 0.510311 0.010311 0.269708
O O13 0.371614 0.989690 0.311057
O O14 0.750000 0.075070 0.750000
O O15 0.310713 0.189288 0.000000
O O16 0.338689 0.054739 0.954950
O O17 0.057233 0.942768 0.512016
#
# Coordination Sequence:
#
# PCOD9568195 Si02
#       7
#    16  16  16  16  16  16  16
#     4  10  19  33  52  73 103 138 170 213 257 303
#     4  11  22  34  51  78 105 138 182 219 251 307
#     4   9  19  35  52  74 105 133 171 214 265 314
#     4  11  21  32  52  77 103 138 176 211 256 311
#     4   9  18  32  48  71 101 131 167 209 251 300
#     4   9  20  36  54  75 103 135 176 221 267 310
#     4   9  18  33  54  78 101 130 173 219 262 314
#
# _framework density 19.036401999999999
#
# number of rings (size 3 to 8) (size 9 to 14) (size 15 to 20)
#    0.000    2.286    1.429    2.143    0.000    4.857 
#    0.000    0.714    0.000    2.571    0.000    0.000 
#    0.000    0.000    0.000    7.429    0.000    0.571 
#
# Total GULP energy -623571.160369 kJ/mol
# GULP energy per Si atom -5567.599646 kJ/mol
# Density = 1.899307 g / cm^3
# Si number density = 19.036402 Si / 1000 Ang^3
#
#
#
# Elastic Constant Matrix: (Units=GPa)
#
#
# Indices 1 2 3 4 5 6 
#
# 1 27.3592 47.8062 15.5740 0.0000 0.0000 0.0000
# 2 47.8062 27.3591 15.5750 0.0000 0.0000 0.0000
# 3 15.5740 15.5750 58.7260 0.0000 0.0000 0.0000
# 4 0.0000 0.0000 0.0000 -8.7646 0.0000 0.0000
# 5 0.0000 0.0000 0.0000 0.0000 -8.7621 0.0000
# 6 0.0000 0.0000 0.0000 0.0000 0.0000 30.4107
#
#
#
# Elastic Compliance Matrix: (Units=1/GPa)
#
#
# Indices 1 2 3 4 5 6 
#
# 1 -0.016980 0.031927 -0.003964 0.000000 0.000000 0.000000
# 2 0.031927 -0.016980 -0.003963 0.000000 0.000000 0.000000
# 3 -0.003964 -0.003963 0.019131 0.000000 0.000000 0.000000
# 4 0.000000 0.000000 0.000000 -0.114096 0.000000 0.000000
# 5 0.000000 0.000000 0.000000 0.000000 -0.114128 0.000000
# 6 0.000000 0.000000 0.000000 0.000000 0.000000 0.032883
#
#
# Mechanical properties :
#
#
# Convention : Reuss Voigt Hill
#
# Bulk Modulus (GPa) = 30.14924 30.15052 30.14988
# Shear Modulus (GPa) = -20.23379 4.87607 -7.67886
#
# Velocity S-wave (km/s) = -3.26375 1.60219 -2.01060
# Velocity P-wave (km/s) = 1.29201 4.39265 3.23765
#
# Compressibility (1/GPa) = 0.03316833
#
# Stress axis : x y z
#
# Youngs Moduli (GPa) = -58.89329 -58.89178 52.27182
#
# Poissons Ratio (x) = 1.88022 0.20723
# Poissons Ratio (y) = 1.88027 0.20718
# Poissons Ratio (z) = -0.23348 -0.23342
#
# Static dielectric constant tensor:
#      x y z
#    x 1.679860 0.000000 0.000000 
#    y 0.000000 1.679860 0.000000 
#    z 0.000000 0.000000 1.704130 
# 
# From -- ./inp_files/9376.got.cif
#   From: 2010.05.17/outbox.cif.g08.bks.cpg/sg134_5_cif.got.tgz:9376.got - 2010.05.20 12:42:49.
