data_PCOD9568051
_publ_section_title
;
Structure prediction by ZEFSAII (Michael W. Deem and Ramdas Pophale) SiO2 
 PCOD9568051
Probable space group: P 42/N B C
;
_chemical_formula_sum "Si O2"
_cell_formula_units_Z 88
_cell_length_a 11.577987
_cell_length_b 11.577987
_cell_length_c 30.441470
_cell_angle_alpha 90.000000
_cell_angle_beta 90.000000
_cell_angle_gamma 90.000000
_cell_volume 4080.672447
_symmetry_space_group_name_H-M "P 42/N B C"
_symmetry_group_IT_number 133
_space_group.IT_coordinate_system_code '2'
_symmetry_cell_setting 'tetragonal'
loop_
_space_group_symop_operation_xyz
x,y,z
1/2-y,x,1/2+z
1/2-x,1/2-y,z
y,1/2-x,1/2+z
x,1/2-y,-z
1/2-x,y,-z
y,x,1/2-z
1/2-y,1/2-x,1/2-z
-x,-y,-z
1/2+y,-x,1/2-z
1/2+x,1/2+y,-z
-y,1/2+x,1/2-z
-x,1/2+y,z
1/2+x,-y,z
-y,-x,1/2+z
1/2+y,1/2+x,1/2+z
loop_
_atom_site_type_symbol
_atom_site_label
_atom_site_fract_x
_atom_site_fract_y
_atom_site_fract_z
Si Si1 0.523265 0.693156 0.539840
Si Si2 0.689374 0.870411 0.881403
Si Si3 0.003398 0.496603 0.250000
Si Si4 0.836169 0.049538 0.412551
Si Si5 0.930231 0.750000 0.000000
Si Si6 0.753283 0.014709 0.799337
Si Si7 0.250000 0.750000 0.853996
O O1 0.451857 0.750000 0.500000
O O2 0.554351 0.789666 0.575317
O O3 0.455016 0.601380 0.568868
O O4 0.636310 0.639970 0.515977
O O5 0.750000 0.750000 0.891424
O O6 0.553117 0.856879 0.878139
O O7 0.746814 0.922712 0.838689
O O8 0.878496 0.497482 0.224320
O O9 0.000178 0.368552 0.273049
O O10 0.761233 0.142391 0.386760
O O11 0.777695 0.002029 0.456506
O O12 0.747513 0.138820 0.822992
#
# Coordination Sequence:
#
# PCOD9568051 Si02
#       7
#    16  16   8  16   8  16   8
#     4  12  24  46  66 109 147 207 257 320 374 444
#     4  12  26  46  75 106 148 200 258 312 381 463
#     4  12  30  54  84 120 154 200 252 326 414 494
#     4  12  28  41  71 104 148 203 256 314 377 448
#     4  12  25  41  68  94 156 199 261 312 370 430
#     4  12  29  51  84 113 156 194 252 321 398 488
#     4  12  28  50  72 112 158 194 244 322 399 461
#
# _framework density 21.565073999999999
#
# number of rings (size 3 to 8) (size 9 to 14) (size 15 to 20)
#    0.000    0.000    5.455    3.000   10.182    0.000 
#    0.000    0.000    0.000    0.000    0.000    0.000 
#    0.000    0.000    0.000    0.000    0.000    0.000 
#
# Total GULP energy -491486.219597 kJ/mol
# GULP energy per Si atom -5585.070677 kJ/mol
# Density = 2.151599 g / cm^3
# Si number density = 21.565074 Si / 1000 Ang^3
#
#
#
# Elastic Constant Matrix: (Units=GPa)
#
#
# Indices 1 2 3 4 5 6 
#
# 1 94.0771 30.6571 35.6949 0.0000 0.0000 0.0000
# 2 30.6571 94.0772 35.6949 0.0000 0.0000 0.0000
# 3 35.6949 35.6949 103.5584 0.0000 0.0000 0.0000
# 4 0.0000 0.0000 0.0000 -63.8550 0.0000 0.0000
# 5 0.0000 0.0000 0.0000 0.0000 -63.8517 0.0000
# 6 0.0000 0.0000 0.0000 0.0000 0.0000 28.8577
#
#
#
# Elastic Compliance Matrix: (Units=1/GPa)
#
#
# Indices 1 2 3 4 5 6 
#
# 1 0.012878 -0.002890 -0.003442 0.000000 0.000000 0.000000
# 2 -0.002890 0.012878 -0.003442 0.000000 0.000000 0.000000
# 3 -0.003442 -0.003442 0.012030 0.000000 0.000000 0.000000
# 4 0.000000 0.000000 0.000000 -0.015660 0.000000 0.000000
# 5 0.000000 0.000000 0.000000 0.000000 -0.015661 0.000000
# 6 0.000000 0.000000 0.000000 0.000000 0.000000 0.034653
#
#
# Mechanical properties :
#
#
# Convention : Reuss Voigt Hill
#
# Bulk Modulus (GPa) = 54.84184 55.08961 54.96573
# Shear Modulus (GPa) = 74.91295 -7.12540 33.89377
#
# Velocity S-wave (km/s) = 5.90030 -1.81970 3.96876
# Velocity P-wave (km/s) = 8.47963 4.60284 6.82240
#
# Compressibility (1/GPa) = 0.01823425
#
# Stress axis : x y z
#
# Youngs Moduli (GPa) = 77.65431 77.65443 83.12896
#
# Poissons Ratio (x) = 0.22444 0.28617
# Poissons Ratio (y) = 0.22444 0.28617
# Poissons Ratio (z) = 0.26732 0.26732
#
# Static dielectric constant tensor:
#      x y z
#    x 1.873720 0.000000 0.000000 
#    y 0.000000 1.873720 0.000000 
#    z 0.000000 0.000000 1.725440 
# 
# From -- ./inp_files/7996.got.cif
#   From: 2010.05.17/outbox.cif.g08.bks.cpg/sg133_4_cif.got.tgz:7996.got - 2010.05.20 12:37:36.
