data_PCOD9568098
_publ_section_title
;
Structure prediction by ZEFSAII (Michael W. Deem and Ramdas Pophale) SiO2 
 PCOD9568098
Probable space group: P 42/N N M
;
_chemical_formula_sum "Si O2"
_cell_formula_units_Z 128
_cell_length_a 23.706143
_cell_length_b 23.706143
_cell_length_c 11.973790
_cell_angle_alpha 90.000000
_cell_angle_beta 90.000000
_cell_angle_gamma 90.000000
_cell_volume 6729.045064
_symmetry_space_group_name_H-M "P 42/N N M"
_symmetry_group_IT_number 134
_space_group.IT_coordinate_system_code '2'
_symmetry_cell_setting 'tetragonal'
loop_
_space_group_symop_operation_xyz
x,y,z
1/2-y,x,1/2+z
1/2-x,1/2-y,z
y,1/2-x,1/2+z
x,1/2-y,1/2-z
1/2-x,y,1/2-z
y,x,-z
1/2-y,1/2-x,-z
-x,-y,-z
1/2+y,-x,1/2-z
1/2+x,1/2+y,-z
-y,1/2+x,1/2-z
-x,1/2+y,1/2+z
1/2+x,-y,1/2+z
-y,-x,z
1/2+y,1/2+x,z
loop_
_atom_site_type_symbol
_atom_site_label
_atom_site_fract_x
_atom_site_fract_y
_atom_site_fract_z
Si Si1 0.651494 0.839392 0.777783
Si Si2 0.375695 0.025632 0.593521
Si Si3 0.742893 0.546148 0.991257
Si Si4 0.005078 0.414217 0.633454
Si Si5 0.820363 0.534632 0.797558
Si Si6 0.742593 0.834865 0.429019
Si Si7 0.089809 0.503517 0.021905
Si Si8 0.665829 0.979955 0.168841
O O1 0.679018 0.899897 0.762015
O O2 0.684100 0.797909 0.861950
O O3 0.645997 0.802598 0.665615
O O4 0.587645 0.845945 0.824130
O O5 0.323031 0.049033 0.520819
O O6 0.428669 0.065157 0.632507
O O7 0.403807 0.989288 0.495758
O O8 0.345342 0.001714 0.703753
O O9 0.760384 0.611323 0.998352
O O10 0.776197 0.517016 0.096274
O O11 0.762303 0.523160 0.868800
O O12 0.001085 0.355966 0.702878
O O13 0.964738 0.464738 0.676586
O O14 0.864922 0.525340 0.898683
O O15 0.709802 0.790199 0.500000
O O16 0.060345 0.560345 0.064370
O O17 0.120662 0.512525 0.905106
O O18 0.041446 0.458555 0.000000
#
# Coordination Sequence:
#
# PCOD9568098 Si02
#       8
#    16  16  16  16  16  16  16  16
#     4  10  19  35  53  72  93 133 172 237 295 340
#     4  11  20  36  54  75 107 130 181 219 279 335
#     4  10  22  32  55  79  98 141 179 231 286 339
#     4  11  24  38  59  82 107 142 179 234 295 344
#     4  11  21  36  53  74 105 133 180 224 289 344
#     4  10  21  35  54  69  93 127 185 235 290 339
#     4  10  18  28  48  75 100 129 168 222 285 336
#     4  10  18  31  51  75 101 135 177 226 282 344
#
# _framework density 19.022016000000001
#
# number of rings (size 3 to 8) (size 9 to 14) (size 15 to 20)
#    0.000    1.625    3.750    1.500    3.500    2.500 
#    0.000    1.250    0.000    3.000    0.000    0.000 
#    0.000    0.000    0.000    0.000    0.000  100.625 
#
# Total GULP energy -712926.909892 kJ/mol
# GULP energy per Si atom -5569.741484 kJ/mol
# Density = 1.897872 g / cm^3
# Si number density = 19.022016 Si / 1000 Ang^3
#
#
#
# Elastic Constant Matrix: (Units=GPa)
#
#
# Indices 1 2 3 4 5 6 
#
# 1 66.3596 35.8227 15.7849 0.0000 0.0000 0.0000
# 2 35.8227 66.3616 15.7876 0.0000 0.0000 0.0000
# 3 15.7849 15.7876 105.9984 0.0000 0.0000 0.0000
# 4 0.0000 0.0000 0.0000 14.4205 0.0000 0.0000
# 5 0.0000 0.0000 0.0000 0.0000 14.4207 0.0000
# 6 0.0000 0.0000 0.0000 0.0000 0.0000 24.9336
#
#
#
# Elastic Compliance Matrix: (Units=1/GPa)
#
#
# Indices 1 2 3 4 5 6 
#
# 1 0.021502 -0.011244 -0.001527 0.000000 0.000000 0.000000
# 2 -0.011244 0.021502 -0.001528 0.000000 0.000000 0.000000
# 3 -0.001527 -0.001528 0.009889 0.000000 0.000000 0.000000
# 4 0.000000 0.000000 0.000000 0.069346 0.000000 0.000000
# 5 0.000000 0.000000 0.000000 0.000000 0.069345 0.000000
# 6 0.000000 0.000000 0.000000 0.000000 0.000000 0.040106
#
#
# Mechanical properties :
#
#
# Convention : Reuss Voigt Hill
#
# Bulk Modulus (GPa) = 41.16100 41.50112 41.33106
# Shear Modulus (GPa) = 18.62973 22.17658 20.40316
#
# Velocity S-wave (km/s) = 3.13290 3.41814 3.27862
# Velocity P-wave (km/s) = 5.89680 6.11907 6.00897
#
# Compressibility (1/GPa) = 0.02429484
#
# Stress axis : x y z
#
# Youngs Moduli (GPa) = 46.50623 46.50705 101.12073
#
# Poissons Ratio (x) = 0.52292 0.15445
# Poissons Ratio (y) = 0.52291 0.15453
# Poissons Ratio (z) = 0.07103 0.07107
#
# Static dielectric constant tensor:
#      x y z
#    x 0.910770 0.000000 0.000000 
#    y 0.000000 0.926730 0.000000 
#    z 0.000000 0.000000 1.791200 
# 
# From -- ./inp_files/5323.got.cif
#   From: 2010.05.17/outbox.cif.g08.bks.cpg/sg134_3_cif.got.tgz:5323.got - 2010.05.20 12:42:49.
