data_PCOD9568554
_publ_section_title
;
Structure prediction by ZEFSAII (Michael W. Deem and Ramdas Pophale) SiO2 
 PCOD9568554
Probable space group: P 42/N N M
;
_chemical_formula_sum "Si O2"
_cell_formula_units_Z 34
_cell_length_a 10.226829
_cell_length_b 10.226829
_cell_length_c 15.028765
_cell_angle_alpha 90.000000
_cell_angle_beta 90.000000
_cell_angle_gamma 90.000000
_cell_volume 1571.828946
_symmetry_space_group_name_H-M "P 42/N N M"
_symmetry_group_IT_number 134
_space_group.IT_coordinate_system_code '2'
_symmetry_cell_setting 'tetragonal'
loop_
_space_group_symop_operation_xyz
x,y,z
1/2-y,x,1/2+z
1/2-x,1/2-y,z
y,1/2-x,1/2+z
x,1/2-y,1/2-z
1/2-x,y,1/2-z
y,x,-z
1/2-y,1/2-x,-z
-x,-y,-z
1/2+y,-x,1/2-z
1/2+x,1/2+y,-z
-y,1/2+x,1/2-z
-x,1/2+y,1/2+z
1/2+x,-y,1/2+z
-y,-x,z
1/2+y,1/2+x,z
loop_
_atom_site_type_symbol
_atom_site_label
_atom_site_fract_x
_atom_site_fract_y
_atom_site_fract_z
Si Si1 0.050016 0.550016 0.405743
Si Si2 0.750000 0.250000 0.250000
Si Si3 0.954869 0.454869 0.220323
Si Si4 0.687616 0.606055 0.594792
O O1 0.201280 0.505793 0.402077
O O2 0.000000 0.500000 0.500000
O O3 0.976401 0.476401 0.324939
O O4 0.846555 0.346555 0.198539
O O5 0.913872 0.589423 0.175228
O O6 0.750000 0.750000 0.602983
O O7 0.612393 0.612393 0.500000
#
# Coordination Sequence:
#
# PCOD9568554 Si02
#       4
#     8   2   8  16
#     4  12  24  46  72 105 146 197 249 312 384 450
#     4  12  28  40  76 100 156 186 256 316 380 464
#     4  12  27  45  71 111 141 197 252 309 382 459
#     4  11  24  46  74 103 146 194 247 313 382 453
#
# _framework density 21.630852000000001
#
# number of rings (size 3 to 8) (size 9 to 14) (size 15 to 20)
#    0.000    0.471    4.706    4.941    0.000    2.824 
#    0.000    2.353    0.000    0.000    0.000    0.000 
#    0.000    0.000    0.000    0.000    0.000    0.000 
#
# Total GULP energy -190250.772323 kJ/mol
# GULP energy per Si atom -5595.610951 kJ/mol
# Density = 2.158162 g / cm^3
# Si number density = 21.630852 Si / 1000 Ang^3
#
#
#
# Elastic Constant Matrix: (Units=GPa)
#
#
# Indices 1 2 3 4 5 6 
#
# 1 117.0957 92.3852 46.0429 0.0000 0.0000 0.0000
# 2 92.3852 117.0957 46.0429 0.0000 0.0000 0.0000
# 3 46.0429 46.0429 155.9663 0.0000 0.0000 0.0000
# 4 0.0000 0.0000 0.0000 34.4134 0.0000 0.0000
# 5 0.0000 0.0000 0.0000 0.0000 34.4134 0.0000
# 6 0.0000 0.0000 0.0000 0.0000 0.0000 60.6239
#
#
#
# Elastic Compliance Matrix: (Units=1/GPa)
#
#
# Indices 1 2 3 4 5 6 
#
# 1 0.022977 -0.017492 -0.001619 0.000000 0.000000 0.000000
# 2 -0.017492 0.022977 -0.001619 0.000000 0.000000 0.000000
# 3 -0.001619 -0.001619 0.007368 0.000000 0.000000 0.000000
# 4 0.000000 0.000000 0.000000 0.029058 0.000000 0.000000
# 5 0.000000 0.000000 0.000000 0.000000 0.029058 0.000000
# 6 0.000000 0.000000 0.000000 0.000000 0.000000 0.016495
#
#
# Mechanical properties :
#
#
# Convention : Reuss Voigt Hill
#
# Bulk Modulus (GPa) = 84.30764 84.34442 84.32603
# Shear Modulus (GPa) = 28.84362 39.60259 34.22311
#
# Velocity S-wave (km/s) = 3.65560 4.28347 3.98193
# Velocity P-wave (km/s) = 7.54176 7.97129 7.75950
#
# Compressibility (1/GPa) = 0.01186132
#
# Stress axis : x y z
#
# Youngs Moduli (GPa) = 43.52153 43.52153 135.72633
#
# Poissons Ratio (x) = 0.76126 0.21980
# Poissons Ratio (y) = 0.76126 0.21980
# Poissons Ratio (z) = 0.07048 0.07048
#
# Static dielectric constant tensor:
#      x y z
#    x 1.970580 0.000000 0.000000 
#    y 0.000000 1.970580 0.000000 
#    z 0.000000 0.000000 1.773330 
# 
# From -- ./inp_files/5663.got.cif
#   From: 2010.05.17/outbox.cif.g08.bks.cpg/sg134_3_cif.got.tgz:5663.got - 2010.05.20 12:42:49.
