data_PCOD9568224
_publ_section_title
;
Structure prediction by ZEFSAII (Michael W. Deem and Ramdas Pophale) SiO2 
 PCOD9568224
Probable space group: P 42/N N M
;
_chemical_formula_sum "Si O2"
_cell_formula_units_Z 96
_cell_length_a 21.817448
_cell_length_b 21.817448
_cell_length_c 11.295400
_cell_angle_alpha 90.000000
_cell_angle_beta 90.000000
_cell_angle_gamma 90.000000
_cell_volume 5376.622116
_symmetry_space_group_name_H-M "P 42/N N M"
_symmetry_group_IT_number 134
_space_group.IT_coordinate_system_code '2'
_symmetry_cell_setting 'tetragonal'
loop_
_space_group_symop_operation_xyz
x,y,z
1/2-y,x,1/2+z
1/2-x,1/2-y,z
y,1/2-x,1/2+z
x,1/2-y,1/2-z
1/2-x,y,1/2-z
y,x,-z
1/2-y,1/2-x,-z
-x,-y,-z
1/2+y,-x,1/2-z
1/2+x,1/2+y,-z
-y,1/2+x,1/2-z
-x,1/2+y,1/2+z
1/2+x,-y,1/2+z
-y,-x,z
1/2+y,1/2+x,z
loop_
_atom_site_type_symbol
_atom_site_label
_atom_site_fract_x
_atom_site_fract_y
_atom_site_fract_z
Si Si1 0.023612 0.076872 0.171831
Si Si2 0.318124 0.915824 0.232330
Si Si3 0.004879 0.360317 0.578408
Si Si4 0.176606 0.299826 0.858653
Si Si5 0.557433 0.808686 0.822055
Si Si6 0.279918 0.463341 0.414112
O O1 0.088107 0.043117 0.147632
O O2 0.034823 0.128826 0.266305
O O3 0.001615 0.111106 0.052026
O O4 0.974095 0.025906 0.204181
O O5 0.250000 0.888524 0.250000
O O6 0.366688 0.866688 0.183299
O O7 0.345716 0.941767 0.355164
O O8 0.305088 0.978323 0.157833
O O9 0.037099 0.294093 0.578462
O O10 0.189778 0.250000 0.750000
O O11 0.193703 0.368477 0.820892
O O12 0.102934 0.298554 0.866514
O O13 0.202412 0.297589 0.000000
O O14 0.534672 0.750000 0.750000
O O15 0.533708 0.804448 0.954142
#
# Coordination Sequence:
#
# PCOD9568224 Si02
#       6
#    16  16  16  16  16  16
#     4  11  21  33  56  83 108 138 185 240 287 339
#     4  10  20  34  56  82 112 145 182 226 284 349
#     4  10  19  35  56  81 109 140 183 233 287 332
#     4  10  21  38  59  84 116 158 206 244 290 346
#     4  11  22  38  54  78 114 151 187 235 286 338
#     4  10  20  37  58  79 113 153 188 232 286 349
#
# _framework density 17.855076
#
# number of rings (size 3 to 8) (size 9 to 14) (size 15 to 20)
#    0.000    1.667    1.667    5.500    0.000    1.167 
#    0.000    2.500    0.000    5.000    0.000    0.000 
#    0.000    0.333    0.000    0.000    0.000    0.000 
#
# Total GULP energy -534946.233996 kJ/mol
# GULP energy per Si atom -5572.356604 kJ/mol
# Density = 1.781444 g / cm^3
# Si number density = 17.855076 Si / 1000 Ang^3
#
#
#
# Elastic Constant Matrix: (Units=GPa)
#
#
# Indices 1 2 3 4 5 6 
#
# 1 49.0012 107.6061 45.5134 0.0000 0.0000 0.0000
# 2 107.6061 49.0046 45.5141 0.0000 0.0000 0.0000
# 3 45.5134 45.5141 101.0681 0.0000 0.0000 0.0000
# 4 0.0000 0.0000 0.0000 14.5053 0.0000 0.0000
# 5 0.0000 0.0000 0.0000 0.0000 14.5054 0.0000
# 6 0.0000 0.0000 0.0000 0.0000 0.0000 37.5186
#
#
#
# Elastic Compliance Matrix: (Units=1/GPa)
#
#
# Indices 1 2 3 4 5 6 
#
# 1 -0.004208 0.012857 -0.003895 0.000000 0.000000 0.000000
# 2 0.012857 -0.004207 -0.003895 0.000000 0.000000 0.000000
# 3 -0.003895 -0.003895 0.013402 0.000000 0.000000 0.000000
# 4 0.000000 0.000000 0.000000 0.068940 0.000000 0.000000
# 5 0.000000 0.000000 0.000000 0.000000 0.068940 0.000000
# 6 0.000000 0.000000 0.000000 0.000000 0.000000 0.026653
#
#
# Mechanical properties :
#
#
# Convention : Reuss Voigt Hill
#
# Bulk Modulus (GPa) = 66.13367 66.26012 66.19689
# Shear Modulus (GPa) = 30.40840 13.33522 21.87181
#
# Velocity S-wave (km/s) = 4.13130 2.73584 3.50374
# Velocity P-wave (km/s) = 7.73798 6.86806 7.31596
#
# Compressibility (1/GPa) = 0.01512089
#
# Stress axis : x y z
#
# Youngs Moduli (GPa) = -237.66837 -237.69255 74.61362
#
# Poissons Ratio (x) = 3.05592 0.29062
# Poissons Ratio (y) = 3.05561 0.29062
# Poissons Ratio (z) = -0.92571 -0.92582
#
# Static dielectric constant tensor:
#      x y z
#    x 1.609300 0.000000 0.000000 
#    y 0.000000 1.609300 0.000000 
#    z 0.000000 0.000000 1.649960 
# 
# From -- ./inp_files/5040.got.cif
#   From: 2010.05.17/outbox.cif.g08.bks.cpg/sg134_3_cif.got.tgz:5040.got - 2010.05.20 12:42:49.
