data_PCOD9568174
_publ_section_title
;
Structure prediction by ZEFSAII (Michael W. Deem and Ramdas Pophale) SiO2 
 PCOD9568174
Probable space group: P 42/N N M
;
_chemical_formula_sum "Si O2"
_cell_formula_units_Z 56
_cell_length_a 12.649245
_cell_length_b 12.649245
_cell_length_c 18.142724
_cell_angle_alpha 90.000000
_cell_angle_beta 90.000000
_cell_angle_gamma 90.000000
_cell_volume 2902.897508
_symmetry_space_group_name_H-M "P 42/N N M"
_symmetry_group_IT_number 134
_space_group.IT_coordinate_system_code '2'
_symmetry_cell_setting 'tetragonal'
loop_
_space_group_symop_operation_xyz
x,y,z
1/2-y,x,1/2+z
1/2-x,1/2-y,z
y,1/2-x,1/2+z
x,1/2-y,1/2-z
1/2-x,y,1/2-z
y,x,-z
1/2-y,1/2-x,-z
-x,-y,-z
1/2+y,-x,1/2-z
1/2+x,1/2+y,-z
-y,1/2+x,1/2-z
-x,1/2+y,1/2+z
1/2+x,-y,1/2+z
-y,-x,z
1/2+y,1/2+x,z
loop_
_atom_site_type_symbol
_atom_site_label
_atom_site_fract_x
_atom_site_fract_y
_atom_site_fract_z
Si Si1 0.251954 0.574659 0.106769
Si Si2 0.995463 0.831252 0.964517
Si Si3 0.070067 0.250000 0.750000
Si Si4 0.344917 0.024487 0.702913
O O1 0.366470 0.633531 0.111733
O O2 0.164731 0.664731 0.109398
O O3 0.238938 0.500260 0.176617
O O4 0.246170 0.515512 0.028242
O O5 0.961734 0.806390 0.881640
O O6 0.911396 0.911396 0.000000
O O7 0.105761 0.894240 0.955751
O O8 0.130519 0.360216 0.736778
O O9 0.250000 0.975048 0.750000
O O10 0.449098 0.949098 0.703825
#
# Coordination Sequence:
#
# PCOD9568174 Si02
#       4
#    16  16   8  16
#     4  10  19  31  56  92 123 155 201 257 310 360
#     4   9  17  35  59  83 113 157 205 248 300 360
#     4  12  21  37  60  90 126 161 198 248 313 372
#     4  11  24  41  64  90 122 164 209 254 301 364
#
# _framework density 19.291069
#
# number of rings (size 3 to 8) (size 9 to 14) (size 15 to 20)
#    0.000    1.714    2.857    3.000    0.000    2.571 
#    0.000    4.286    0.000    3.429    0.000    0.000 
#    0.000    0.000    0.000    0.000    0.000    0.000 
#
# Total GULP energy -312264.938714 kJ/mol
# GULP energy per Si atom -5576.159620 kJ/mol
# Density = 1.924716 g / cm^3
# Si number density = 19.291069 Si / 1000 Ang^3
#
#
#
# Elastic Constant Matrix: (Units=GPa)
#
#
# Indices 1 2 3 4 5 6 
#
# 1 65.6044 17.3952 42.4903 0.0000 0.0000 0.0000
# 2 17.3952 65.6044 42.4903 0.0000 0.0000 0.0000
# 3 42.4903 42.4903 172.0123 0.0000 0.0000 0.0000
# 4 0.0000 0.0000 0.0000 53.5595 0.0000 0.0000
# 5 0.0000 0.0000 0.0000 0.0000 53.5595 0.0000
# 6 0.0000 0.0000 0.0000 0.0000 0.0000 7.1869
#
#
#
# Elastic Compliance Matrix: (Units=1/GPa)
#
#
# Indices 1 2 3 4 5 6 
#
# 1 0.018435 -0.002308 -0.003984 0.000000 0.000000 0.000000
# 2 -0.002308 0.018435 -0.003984 0.000000 0.000000 0.000000
# 3 -0.003984 -0.003984 0.007782 0.000000 0.000000 0.000000
# 4 0.000000 0.000000 0.000000 0.018671 0.000000 0.000000
# 5 0.000000 0.000000 0.000000 0.000000 0.018671 0.000000
# 6 0.000000 0.000000 0.000000 0.000000 0.000000 0.139142
#
#
# Mechanical properties :
#
#
# Convention : Reuss Voigt Hill
#
# Bulk Modulus (GPa) = 41.49214 56.44140 48.96677
# Shear Modulus (GPa) = 20.02247 36.25085 28.13666
#
# Velocity S-wave (km/s) = 3.22516 4.33962 3.82322
# Velocity P-wave (km/s) = 5.95181 7.37774 6.70280
#
# Compressibility (1/GPa) = 0.02410095
#
# Stress axis : x y z
#
# Youngs Moduli (GPa) = 54.24471 54.24471 128.50779
#
# Poissons Ratio (x) = 0.12519 0.51193
# Poissons Ratio (y) = 0.12519 0.51193
# Poissons Ratio (z) = 0.21609 0.21609
#
# Static dielectric constant tensor:
#      x y z
#    x 1.700470 0.000000 0.000000 
#    y 0.000000 1.700470 0.000000 
#    z 0.000000 0.000000 1.703510 
# 
# From -- ./inp_files/8594.got.cif
#   From: 2010.05.17/outbox.cif.g08.bks.cpg/sg134_5_cif.got.tgz:8594.got - 2010.05.20 12:42:49.
