data_PCOD9568421
_publ_section_title
;
Structure prediction by ZEFSAII (Michael W. Deem and Ramdas Pophale) SiO2 
 PCOD9568421
Probable space group: P 42/N N M
;
_chemical_formula_sum "Si O2"
_cell_formula_units_Z 48
_cell_length_a 10.462007
_cell_length_b 10.462007
_cell_length_c 17.787340
_cell_angle_alpha 90.000000
_cell_angle_beta 90.000000
_cell_angle_gamma 90.000000
_cell_volume 1946.888228
_symmetry_space_group_name_H-M "P 42/N N M"
_symmetry_group_IT_number 134
_space_group.IT_coordinate_system_code '2'
_symmetry_cell_setting 'tetragonal'
loop_
_space_group_symop_operation_xyz
x,y,z
1/2-y,x,1/2+z
1/2-x,1/2-y,z
y,1/2-x,1/2+z
x,1/2-y,1/2-z
1/2-x,y,1/2-z
y,x,-z
1/2-y,1/2-x,-z
-x,-y,-z
1/2+y,-x,1/2-z
1/2+x,1/2+y,-z
-y,1/2+x,1/2-z
-x,1/2+y,1/2+z
1/2+x,-y,1/2+z
-y,-x,z
1/2+y,1/2+x,z
loop_
_atom_site_type_symbol
_atom_site_label
_atom_site_fract_x
_atom_site_fract_y
_atom_site_fract_z
Si Si1 0.940457 0.657057 0.179636
Si Si2 0.042881 0.255279 0.982948
Si Si3 0.258049 0.551098 0.858729
O O1 0.933358 0.750000 0.250000
O O2 0.803824 0.584723 0.164541
O O3 0.047062 0.547062 0.189365
O O4 0.982822 0.737103 0.105241
O O5 0.945632 0.242148 0.050624
O O6 0.143883 0.143883 0.000000
O O7 0.110411 0.389590 0.000000
O O8 0.398026 0.601975 0.834384
O O9 0.155723 0.655723 0.832343
#
# Coordination Sequence:
#
# PCOD9568421 Si02
#       3
#    16  16  16
#     4  10  21  38  63  98 138 175 216 275 345 408
#     4   9  18  35  60  90 124 167 219 271 322 384
#     4   9  18  35  61  91 126 173 225 273 324 392
#
# _framework density 24.654730000000001
#
# number of rings (size 3 to 8) (size 9 to 14) (size 15 to 20)
#    0.000    2.667    0.000    1.000    0.000    6.333 
#    0.000   13.333    0.000    8.000    0.000   16.333 
#    0.000    3.333    0.000    0.000    0.000    0.000 
#
# Total GULP energy -268052.470724 kJ/mol
# GULP energy per Si atom -5584.426473 kJ/mol
# Density = 2.459861 g / cm^3
# Si number density = 24.654730 Si / 1000 Ang^3
#
#
#
# Elastic Constant Matrix: (Units=GPa)
#
#
# Indices 1 2 3 4 5 6 
#
# 1 136.1751 22.8062 64.3500 0.0000 0.0000 0.0000
# 2 22.8062 136.1755 64.3534 0.0000 0.0000 0.0000
# 3 64.3500 64.3534 243.1869 0.0000 0.0000 0.0000
# 4 0.0000 0.0000 0.0000 -6.7462 0.0000 0.0000
# 5 0.0000 0.0000 0.0000 0.0000 -6.7474 0.0000
# 6 0.0000 0.0000 0.0000 0.0000 0.0000 44.6954
#
#
#
# Elastic Compliance Matrix: (Units=1/GPa)
#
#
# Indices 1 2 3 4 5 6 
#
# 1 0.008413 -0.000408 -0.002118 0.000000 0.000000 0.000000
# 2 -0.000408 0.008413 -0.002118 0.000000 0.000000 0.000000
# 3 -0.002118 -0.002118 0.005233 0.000000 0.000000 0.000000
# 4 0.000000 0.000000 0.000000 -0.148231 0.000000 0.000000
# 5 0.000000 0.000000 0.000000 0.000000 -0.148206 0.000000
# 6 0.000000 0.000000 0.000000 0.000000 0.000000 0.022374
#
#
# Mechanical properties :
#
#
# Convention : Reuss Voigt Hill
#
# Bulk Modulus (GPa) = 78.30918 90.95073 84.62995
# Shear Modulus (GPa) = -20.96796 30.50890 4.77047
#
# Velocity S-wave (km/s) = -2.91944 3.52155 1.39252
# Velocity P-wave (km/s) = 4.52406 7.31471 6.08162
#
# Compressibility (1/GPa) = 0.01276990
#
# Stress axis : x y z
#
# Youngs Moduli (GPa) = 118.86724 118.86579 191.09105
#
# Poissons Ratio (x) = 0.04849 0.40476
# Poissons Ratio (y) = 0.04849 0.40479
# Poissons Ratio (z) = 0.25178 0.25179
#
# Static dielectric constant tensor:
#      x y z
#    x 1.968890 0.000000 0.000000 
#    y 0.000000 1.968890 0.000000 
#    z 0.000000 0.000000 2.005200 
# 
# From -- ./inp_files/7208.got.cif
#   From: 2010.05.17/outbox.cif.g08.bks.cpg/sg134_4_cif.got.tgz:7208.got - 2010.05.20 12:42:49.
