data_PCOD9568533
_publ_section_title
;
Structure prediction by ZEFSAII (Michael W. Deem and Ramdas Pophale) SiO2 
 PCOD9568533
Probable space group: P 42/N N M
;
_chemical_formula_sum "Si O2"
_cell_formula_units_Z 64
_cell_length_a 12.606396
_cell_length_b 12.606396
_cell_length_c 19.482632
_cell_angle_alpha 90.000000
_cell_angle_beta 90.000000
_cell_angle_gamma 90.000000
_cell_volume 3096.203648
_symmetry_space_group_name_H-M "P 42/N N M"
_symmetry_group_IT_number 134
_space_group.IT_coordinate_system_code '2'
_symmetry_cell_setting 'tetragonal'
loop_
_space_group_symop_operation_xyz
x,y,z
1/2-y,x,1/2+z
1/2-x,1/2-y,z
y,1/2-x,1/2+z
x,1/2-y,1/2-z
1/2-x,y,1/2-z
y,x,-z
1/2-y,1/2-x,-z
-x,-y,-z
1/2+y,-x,1/2-z
1/2+x,1/2+y,-z
-y,1/2+x,1/2-z
-x,1/2+y,1/2+z
1/2+x,-y,1/2+z
-y,-x,z
1/2+y,1/2+x,z
loop_
_atom_site_type_symbol
_atom_site_label
_atom_site_fract_x
_atom_site_fract_y
_atom_site_fract_z
Si Si1 0.661033 0.986833 0.952999
Si Si2 0.516813 0.656853 0.954052
Si Si3 0.800670 0.868199 0.681953
Si Si4 0.967627 0.202955 0.323242
O O1 0.712846 0.933383 0.886979
O O2 0.571458 0.071458 0.934174
O O3 0.602696 0.897305 0.000000
O O4 0.753273 0.036035 0.998734
O O5 0.446628 0.553373 0.945871
O O6 0.512547 0.712587 0.879071
O O7 0.619683 0.619683 0.000000
O O8 0.750000 0.750000 0.674571
O O9 0.750000 0.916095 0.750000
O O10 0.926419 0.862350 0.693074
O O11 0.932490 0.250000 0.250000
O O12 0.874099 0.125902 0.350258
#
# Coordination Sequence:
#
# PCOD9568533 Si02
#       4
#    16  16  16  16
#     4  11  23  40  65  95 126 170 219 270 327 392
#     4  11  25  43  66  98 132 171 218 274 336 400
#     4  11  22  40  64  93 126 169 220 272 327 385
#     4  12  24  42  67  98 136 176 218 275 345 410
#
# _framework density 20.670475
#
# number of rings (size 3 to 8) (size 9 to 14) (size 15 to 20)
#    0.000    0.750    5.000    3.750    0.000    3.250 
#    0.000    1.250    0.000    0.000    0.000    0.000 
#    0.000    0.000    0.000    0.000    0.000    0.000 
#
# Total GULP energy -356879.668669 kJ/mol
# GULP energy per Si atom -5576.244823 kJ/mol
# Density = 2.062343 g / cm^3
# Si number density = 20.670475 Si / 1000 Ang^3
#
#
#
# Elastic Constant Matrix: (Units=GPa)
#
#
# Indices 1 2 3 4 5 6 
#
# 1 48.6238 15.2367 41.8383 0.0000 0.0000 0.0000
# 2 15.2367 48.6245 41.8389 0.0000 0.0000 0.0000
# 3 41.8383 41.8389 168.5786 0.0000 0.0000 0.0000
# 4 0.0000 0.0000 0.0000 27.8122 0.0000 0.0000
# 5 0.0000 0.0000 0.0000 0.0000 27.8124 0.0000
# 6 0.0000 0.0000 0.0000 0.0000 0.0000 18.0680
#
#
#
# Elastic Compliance Matrix: (Units=1/GPa)
#
#
# Indices 1 2 3 4 5 6 
#
# 1 0.026579 -0.003373 -0.005759 0.000000 0.000000 0.000000
# 2 -0.003373 0.026578 -0.005759 0.000000 0.000000 0.000000
# 3 -0.005759 -0.005759 0.008791 0.000000 0.000000 0.000000
# 4 0.000000 0.000000 0.000000 0.035955 0.000000 0.000000
# 5 0.000000 0.000000 0.000000 0.000000 0.035955 0.000000
# 6 0.000000 0.000000 0.000000 0.000000 0.000000 0.055347
#
#
# Mechanical properties :
#
#
# Convention : Reuss Voigt Hill
#
# Bulk Modulus (GPa) = 31.09017 51.51721 41.30369
# Shear Modulus (GPa) = 21.76667 25.86604 23.81635
#
# Velocity S-wave (km/s) = 3.24857 3.54128 3.39808
# Velocity P-wave (km/s) = 5.39856 6.45741 5.95158
#
# Compressibility (1/GPa) = 0.03216451
#
# Stress axis : x y z
#
# Youngs Moduli (GPa) = 37.62433 37.62480 113.75733
#
# Poissons Ratio (x) = 0.12691 0.65515
# Poissons Ratio (y) = 0.12691 0.65515
# Poissons Ratio (z) = 0.21669 0.21669
#
# Static dielectric constant tensor:
#      x y z
#    x 1.774520 0.000000 0.000000 
#    y 0.000000 1.774520 0.000000 
#    z 0.000000 0.000000 0.606540 
# 
# From -- ./inp_files/8699.got.cif
#   From: 2010.05.17/outbox.cif.g08.bks.cpg/sg134_5_cif.got.tgz:8699.got - 2010.05.20 12:42:49.
