data_PCOD9568349
_publ_section_title
;
Structure prediction by ZEFSAII (Michael W. Deem and Ramdas Pophale) SiO2 
 PCOD9568349
Probable space group: P 42/N N M
;
_chemical_formula_sum "Si O2"
_cell_formula_units_Z 56
_cell_length_a 17.905089
_cell_length_b 17.905089
_cell_length_c 8.113826
_cell_angle_alpha 90.000000
_cell_angle_beta 90.000000
_cell_angle_gamma 90.000000
_cell_volume 2601.229426
_symmetry_space_group_name_H-M "P 42/N N M"
_symmetry_group_IT_number 134
_space_group.IT_coordinate_system_code '2'
_symmetry_cell_setting 'tetragonal'
loop_
_space_group_symop_operation_xyz
x,y,z
1/2-y,x,1/2+z
1/2-x,1/2-y,z
y,1/2-x,1/2+z
x,1/2-y,1/2-z
1/2-x,y,1/2-z
y,x,-z
1/2-y,1/2-x,-z
-x,-y,-z
1/2+y,-x,1/2-z
1/2+x,1/2+y,-z
-y,1/2+x,1/2-z
-x,1/2+y,1/2+z
1/2+x,-y,1/2+z
-y,-x,z
1/2+y,1/2+x,z
loop_
_atom_site_type_symbol
_atom_site_label
_atom_site_fract_x
_atom_site_fract_y
_atom_site_fract_z
Si Si1 0.583947 0.967621 0.733280
Si Si2 0.782666 0.890424 0.930063
Si Si3 0.995227 0.835869 0.578192
Si Si4 0.871336 0.250000 0.250000
O O1 0.648272 0.945393 0.607873
O O2 0.534356 0.896435 0.790495
O O3 0.530866 0.030866 0.665517
O O4 0.622212 0.997985 0.902137
O O5 0.750000 0.877019 0.750000
O O6 0.815105 0.815105 0.000000
O O7 0.724766 0.930199 0.049742
O O8 0.071270 0.793850 0.628627
O O9 0.814726 0.185275 0.182863
#
# Coordination Sequence:
#
# PCOD9568349 Si02
#       4
#    16  16  16   8
#     4  10  20  37  61  82 106 149 197 242 293 347
#     4  10  22  38  56  84 115 146 187 235 290 351
#     4  10  20  37  56  81 115 146 191 247 296 355
#     4  11  22  34  54  84 117 156 196 240 303 370
#
# _framework density 21.528282000000001
#
# number of rings (size 3 to 8) (size 9 to 14) (size 15 to 20)
#    0.000    1.857    0.000    5.143    0.000    1.714 
#    0.000   21.429    0.000    0.000    0.000   14.000 
#    0.000    0.000    0.000    0.000    0.000    0.000 
#
# Total GULP energy -313082.878837 kJ/mol
# GULP energy per Si atom -5590.765694 kJ/mol
# Density = 2.147928 g / cm^3
# Si number density = 21.528282 Si / 1000 Ang^3
#
#
#
# Elastic Constant Matrix: (Units=GPa)
#
#
# Indices 1 2 3 4 5 6 
#
# 1 105.6537 72.6285 20.5722 0.0000 0.0000 0.0000
# 2 72.6285 105.6537 20.5722 0.0000 0.0000 0.0000
# 3 20.5722 20.5722 50.6399 0.0000 0.0000 0.0000
# 4 0.0000 0.0000 0.0000 -23.5472 0.0000 0.0000
# 5 0.0000 0.0000 0.0000 0.0000 -23.5472 0.0000
# 6 0.0000 0.0000 0.0000 0.0000 0.0000 60.1544
#
#
#
# Elastic Compliance Matrix: (Units=1/GPa)
#
#
# Indices 1 2 3 4 5 6 
#
# 1 0.018235 -0.012045 -0.002514 0.000000 0.000000 0.000000
# 2 -0.012045 0.018235 -0.002514 0.000000 0.000000 0.000000
# 3 -0.002514 -0.002514 0.021790 0.000000 0.000000 0.000000
# 4 0.000000 0.000000 0.000000 -0.042468 0.000000 0.000000
# 5 0.000000 0.000000 0.000000 0.000000 -0.042468 0.000000
# 6 0.000000 0.000000 0.000000 0.000000 0.000000 0.016624
#
#
# Mechanical properties :
#
#
# Convention : Reuss Voigt Hill
#
# Bulk Modulus (GPa) = 41.47423 54.38811 47.93117
# Shear Modulus (GPa) = 155.60452 12.49030 84.04741
#
# Velocity S-wave (km/s) = 8.51094 2.41131 6.25502
# Velocity P-wave (km/s) = 10.76514 5.75073 8.63015
#
# Compressibility (1/GPa) = 0.02411136
#
# Stress axis : x y z
#
# Youngs Moduli (GPa) = 54.84067 54.84067 45.89217
#
# Poissons Ratio (x) = 0.66057 0.11539
# Poissons Ratio (y) = 0.66057 0.11539
# Poissons Ratio (z) = 0.13789 0.13789
#
# Static dielectric constant tensor:
#      x y z
#    x 1.790840 0.000000 0.000000 
#    y 0.000000 1.790840 0.000000 
#    z 0.000000 0.000000 1.786210 
# 
# From -- ./inp_files/2371.got.cif
#   From: 2010.05.17/outbox.cif.g08.bks.cpg/sg134_2_cif.got.tgz:2371.got - 2010.05.20 12:42:49.
