data_PCOD9568110
_publ_section_title
;
Structure prediction by ZEFSAII (Michael W. Deem and Ramdas Pophale) SiO2 
 PCOD9568110
Probable space group: P 42/N N M
;
_chemical_formula_sum "Si O2"
_cell_formula_units_Z 80
_cell_length_a 11.577385
_cell_length_b 11.577385
_cell_length_c 32.966040
_cell_angle_alpha 90.000000
_cell_angle_beta 90.000000
_cell_angle_gamma 90.000000
_cell_volume 4418.630976
_symmetry_space_group_name_H-M "P 42/N N M"
_symmetry_group_IT_number 134
_space_group.IT_coordinate_system_code '2'
_symmetry_cell_setting 'tetragonal'
loop_
_space_group_symop_operation_xyz
x,y,z
1/2-y,x,1/2+z
1/2-x,1/2-y,z
y,1/2-x,1/2+z
x,1/2-y,1/2-z
1/2-x,y,1/2-z
y,x,-z
1/2-y,1/2-x,-z
-x,-y,-z
1/2+y,-x,1/2-z
1/2+x,1/2+y,-z
-y,1/2+x,1/2-z
-x,1/2+y,1/2+z
1/2+x,-y,1/2+z
-y,-x,z
1/2+y,1/2+x,z
loop_
_atom_site_type_symbol
_atom_site_label
_atom_site_fract_x
_atom_site_fract_y
_atom_site_fract_z
Si Si1 0.117596 0.432984 0.638767
Si Si2 0.997411 0.192076 0.991713
Si Si3 0.781696 0.618337 0.914026
Si Si4 0.202954 0.522360 0.921943
Si Si5 0.255860 0.559231 0.702425
O O1 0.099700 0.302165 0.624287
O O2 0.176773 0.497863 0.600370
O O3 0.210821 0.456094 0.674202
O O4 0.998976 0.498976 0.648397
O O5 0.031006 0.252145 0.949862
O O6 0.098442 0.098442 0.000000
O O7 0.990018 0.276748 0.030043
O O8 0.879181 0.120820 0.988735
O O9 0.750000 0.750000 0.928082
O O10 0.917621 0.622274 0.906866
O O11 0.143587 0.643587 0.912469
O O12 0.250000 0.529698 0.750000
O O13 0.378765 0.621236 0.693369
O O14 0.160275 0.660275 0.695986
#
# Coordination Sequence:
#
# PCOD9568110 Si02
#       5
#    16  16  16  16  16
#     4  10  18  30  51  74  96 125 162 198 236 289
#     4  11  20  32  49  68  90 120 158 203 249 289
#     4  10  20  32  48  65  93 129 161 193 238 293
#     4  11  23  34  48  70  95 126 165 206 248 290
#     4   8  14  25  43  71 106 135 156 189 241 292
#
# _framework density 18.105155
#
# number of rings (size 3 to 8) (size 9 to 14) (size 15 to 20)
#    0.000    2.000    4.000    3.000    0.000    4.000 
#    0.000    0.000    0.000    7.200    0.000    0.000 
#    0.000    0.000    0.000    0.000    0.000  128.800 
#
# Total GULP energy -446017.536466 kJ/mol
# GULP energy per Si atom -5575.219206 kJ/mol
# Density = 1.806395 g / cm^3
# Si number density = 18.105155 Si / 1000 Ang^3
#
#
#
# Elastic Constant Matrix: (Units=GPa)
#
#
# Indices 1 2 3 4 5 6 
#
# 1 40.7412 21.2393 10.8486 0.0000 0.0000 0.0000
# 2 21.2393 40.7412 10.8486 0.0000 0.0000 0.0000
# 3 10.8486 10.8486 71.7668 0.0000 0.0000 0.0000
# 4 0.0000 0.0000 0.0000 19.8845 0.0000 0.0000
# 5 0.0000 0.0000 0.0000 0.0000 19.8845 0.0000
# 6 0.0000 0.0000 0.0000 0.0000 0.0000 18.9934
#
#
#
# Elastic Compliance Matrix: (Units=1/GPa)
#
#
# Indices 1 2 3 4 5 6 
#
# 1 0.034156 -0.017121 -0.002575 0.000000 0.000000 0.000000
# 2 -0.017121 0.034156 -0.002575 0.000000 0.000000 0.000000
# 3 -0.002575 -0.002575 0.014713 0.000000 0.000000 0.000000
# 4 0.000000 0.000000 0.000000 0.050290 0.000000 0.000000
# 5 0.000000 0.000000 0.000000 0.000000 0.050290 0.000000
# 6 0.000000 0.000000 0.000000 0.000000 0.000000 0.052650
#
#
# Mechanical properties :
#
#
# Convention : Reuss Voigt Hill
#
# Bulk Modulus (GPa) = 25.98550 26.56915 26.27733
# Shear Modulus (GPa) = 17.02847 19.10667 18.06757
#
# Velocity S-wave (km/s) = 3.07014 3.25209 3.16242
# Velocity P-wave (km/s) = 5.19147 5.36733 5.28013
#
# Compressibility (1/GPa) = 0.03848300
#
# Stress axis : x y z
#
# Youngs Moduli (GPa) = 29.27708 29.27708 67.96904
#
# Poissons Ratio (x) = 0.50125 0.17503
# Poissons Ratio (y) = 0.50125 0.17503
# Poissons Ratio (z) = 0.07539 0.07539
#
# Static dielectric constant tensor:
#      x y z
#    x 1.643250 0.000000 0.000000 
#    y 0.000000 1.643250 0.000000 
#    z 0.000000 0.000000 1.638660 
# 
# From -- ./inp_files/11254.got.cif
#   From: 2010.05.17/outbox.cif.g08.bks.cpg/sg134_6_cif.got.tgz:11254.got - 2010.05.20 12:42:49.
