data_PCOD9568465
_publ_section_title
;
Structure prediction by ZEFSAII (Michael W. Deem and Ramdas Pophale) SiO2 
 PCOD9568465
Probable space group: P 42/N N M
;
_chemical_formula_sum "Si O2"
_cell_formula_units_Z 48
_cell_length_a 16.171800
_cell_length_b 16.171800
_cell_length_c 8.576236
_cell_angle_alpha 90.000000
_cell_angle_beta 90.000000
_cell_angle_gamma 90.000000
_cell_volume 2242.918261
_symmetry_space_group_name_H-M "P 42/N N M"
_symmetry_group_IT_number 134
_space_group.IT_coordinate_system_code '2'
_symmetry_cell_setting 'tetragonal'
loop_
_space_group_symop_operation_xyz
x,y,z
1/2-y,x,1/2+z
1/2-x,1/2-y,z
y,1/2-x,1/2+z
x,1/2-y,1/2-z
1/2-x,y,1/2-z
y,x,-z
1/2-y,1/2-x,-z
-x,-y,-z
1/2+y,-x,1/2-z
1/2+x,1/2+y,-z
-y,1/2+x,1/2-z
-x,1/2+y,1/2+z
1/2+x,-y,1/2+z
-y,-x,z
1/2+y,1/2+x,z
loop_
_atom_site_type_symbol
_atom_site_label
_atom_site_fract_x
_atom_site_fract_y
_atom_site_fract_z
Si Si1 0.539044 0.170600 0.191056
Si Si2 0.836534 0.021866 0.678343
Si Si3 0.162247 0.362838 0.678745
O O1 0.589097 0.250000 0.250000
O O2 0.588325 0.088325 0.214736
O O3 0.460952 0.168035 0.303012
O O4 0.516356 0.173294 0.008818
O O5 0.750000 0.054953 0.750000
O O6 0.915146 0.084855 0.709208
O O7 0.844034 0.926917 0.741305
O O8 0.250000 0.333988 0.750000
O O9 0.161526 0.338474 0.500000
#
# Coordination Sequence:
#
# PCOD9568465 Si02
#       3
#    16  16  16
#     4  10  22  40  63  93 129 170 217 267 321 381
#     4  11  24  43  67  96 132 172 215 265 320 382
#     4  11  24  43  67  95 130 169 216 267 322 386
#
# _framework density 21.400690999999998
#
# number of rings (size 3 to 8) (size 9 to 14) (size 15 to 20)
#    0.000    1.333    0.000    6.000    0.000   10.667 
#    0.000   10.000    0.000    0.000    0.000    0.000 
#    0.000    0.000    0.000    0.000    0.000    0.000 
#
# Total GULP energy -267658.254817 kJ/mol
# GULP energy per Si atom -5576.213642 kJ/mol
# Density = 2.135198 g / cm^3
# Si number density = 21.400691 Si / 1000 Ang^3
#
#
#
# Elastic Constant Matrix: (Units=GPa)
#
#
# Indices 1 2 3 4 5 6 
#
# 1 130.8085 74.5403 76.9530 0.0000 0.0000 0.0000
# 2 74.5403 130.8094 76.9536 0.0000 0.0000 0.0000
# 3 76.9530 76.9536 142.1014 0.0000 0.0000 0.0000
# 4 0.0000 0.0000 0.0000 9.2058 0.0000 0.0000
# 5 0.0000 0.0000 0.0000 0.0000 9.2068 0.0000
# 6 0.0000 0.0000 0.0000 0.0000 0.0000 61.9279
#
#
#
# Elastic Compliance Matrix: (Units=1/GPa)
#
#
# Indices 1 2 3 4 5 6 
#
# 1 0.012984 -0.004788 -0.004439 0.000000 0.000000 0.000000
# 2 -0.004788 0.012984 -0.004439 0.000000 0.000000 0.000000
# 3 -0.004439 -0.004439 0.011845 0.000000 0.000000 0.000000
# 4 0.000000 0.000000 0.000000 0.108627 0.000000 0.000000
# 5 0.000000 0.000000 0.000000 0.000000 0.108615 0.000000
# 6 0.000000 0.000000 0.000000 0.000000 0.000000 0.016148
#
#
# Mechanical properties :
#
#
# Convention : Reuss Voigt Hill
#
# Bulk Modulus (GPa) = 95.39402 95.62370 95.50886
# Shear Modulus (GPa) = 16.55477 27.75294 22.15386
#
# Velocity S-wave (km/s) = 2.78432 3.60505 3.22093
# Velocity P-wave (km/s) = 7.41677 7.88087 7.65234
#
# Compressibility (1/GPa) = 0.01048284
#
# Stress axis : x y z
#
# Youngs Moduli (GPa) = 77.01651 77.01675 84.42591
#
# Poissons Ratio (x) = 0.36873 0.37474
# Poissons Ratio (y) = 0.36873 0.37475
# Poissons Ratio (z) = 0.34185 0.34186
#
# Static dielectric constant tensor:
#      x y z
#    x 1.843430 0.000000 0.000000 
#    y 0.000000 1.843420 0.000000 
#    z 0.000000 0.000000 1.743000 
# 
# From -- ./inp_files/2110.got.cif
#   From: 2010.05.17/outbox.cif.g08.bks.cpg/sg134_2_cif.got.tgz:2110.got - 2010.05.20 12:42:49.
