data_PCOD9568416
_publ_section_title
;
Structure prediction by ZEFSAII (Michael W. Deem and Ramdas Pophale) SiO2 
 PCOD9568416
Probable space group: P 42/N N M
;
_chemical_formula_sum "Si O2"
_cell_formula_units_Z 96
_cell_length_a 14.274562
_cell_length_b 14.274562
_cell_length_c 22.421994
_cell_angle_alpha 90.000000
_cell_angle_beta 90.000000
_cell_angle_gamma 90.000000
_cell_volume 4568.775461
_symmetry_space_group_name_H-M "P 42/N N M"
_symmetry_group_IT_number 134
_space_group.IT_coordinate_system_code '2'
_symmetry_cell_setting 'tetragonal'
loop_
_space_group_symop_operation_xyz
x,y,z
1/2-y,x,1/2+z
1/2-x,1/2-y,z
y,1/2-x,1/2+z
x,1/2-y,1/2-z
1/2-x,y,1/2-z
y,x,-z
1/2-y,1/2-x,-z
-x,-y,-z
1/2+y,-x,1/2-z
1/2+x,1/2+y,-z
-y,1/2+x,1/2-z
-x,1/2+y,1/2+z
1/2+x,-y,1/2+z
-y,-x,z
1/2+y,1/2+x,z
loop_
_atom_site_type_symbol
_atom_site_label
_atom_site_fract_x
_atom_site_fract_y
_atom_site_fract_z
Si Si1 0.420909 0.421008 0.723770
Si Si2 0.782355 0.063472 0.317541
Si Si3 0.108089 0.453737 0.353609
Si Si4 0.699845 0.448326 0.639931
Si Si5 0.000811 0.652411 0.004634
Si Si6 0.490147 0.839294 0.572154
O O1 0.488986 0.511015 0.730105
O O2 0.333983 0.462859 0.688012
O O3 0.400639 0.384950 0.790264
O O4 0.480991 0.347189 0.686933
O O5 0.750000 0.084700 0.250000
O O6 0.855904 0.144097 0.335653
O O7 0.701582 0.052316 0.365849
O O8 0.190922 0.528975 0.357224
O O9 0.012865 0.512865 0.352654
O O10 0.089815 0.385187 0.409172
O O11 0.654511 0.345490 0.651450
O O12 0.668802 0.477217 0.573844
O O13 0.082396 0.582396 0.980472
O O14 0.001090 0.750611 0.970757
O O15 0.904416 0.595585 0.000000
O O16 0.417985 0.917985 0.548006
#
# Coordination Sequence:
#
# PCOD9568416 Si02
#       6
#    16  16  16  16  16  16
#     4   9  18  36  59  84 120 159 196 249 316 378
#     4  11  20  33  56  86 120 160 202 245 301 378
#     4  10  21  38  59  87 124 159 195 254 331 387
#     4  10  21  38  63  87 109 154 214 262 309 372
#     4  10  22  42  64  87 121 166 211 257 311 370
#     4  11  23  39  60  90 129 169 208 257 322 390
#
# _framework density 21.012194000000001
#
# number of rings (size 3 to 8) (size 9 to 14) (size 15 to 20)
#    0.000    1.833    1.667    2.500    0.000    6.500 
#    0.000    7.500    0.000    3.000    0.000    0.000 
#    0.000    0.000    0.000    0.000    0.000    0.000 
#
# Total GULP energy -535761.534162 kJ/mol
# GULP energy per Si atom -5580.849314 kJ/mol
# Density = 2.096437 g / cm^3
# Si number density = 21.012194 Si / 1000 Ang^3
#
#
#
# Elastic Constant Matrix: (Units=GPa)
#
#
# Indices 1 2 3 4 5 6 
#
# 1 11.5280 108.8779 15.9228 0.0000 0.0000 0.0000
# 2 108.8779 11.5194 15.9169 0.0000 0.0000 0.0000
# 3 15.9228 15.9169 52.3032 0.0000 0.0000 0.0000
# 4 0.0000 0.0000 0.0000 29.9612 0.0000 0.0000
# 5 0.0000 0.0000 0.0000 0.0000 29.9613 0.0000
# 6 0.0000 0.0000 0.0000 0.0000 0.0000 25.6209
#
#
#
# Elastic Compliance Matrix: (Units=1/GPa)
#
#
# Indices 1 2 3 4 5 6 
#
# 1 -0.000619 0.009652 -0.002749 0.000000 0.000000 0.000000
# 2 0.009652 -0.000620 -0.002750 0.000000 0.000000 0.000000
# 3 -0.002749 -0.002750 0.020793 0.000000 0.000000 0.000000
# 4 0.000000 0.000000 0.000000 0.033376 0.000000 0.000000
# 5 0.000000 0.000000 0.000000 0.000000 0.033376 0.000000
# 6 0.000000 0.000000 0.000000 0.000000 0.000000 0.039031
#
#
# Mechanical properties :
#
#
# Convention : Reuss Voigt Hill
#
# Bulk Modulus (GPa) = 35.89262 39.64286 37.76774
# Shear Modulus (GPa) = 39.58293 12.75088 26.16690
#
# Velocity S-wave (km/s) = 4.34499 2.46607 3.53274
# Velocity P-wave (km/s) = 6.50314 5.19771 5.88673
#
# Compressibility (1/GPa) = 0.02786088
#
# Stress axis : x y z
#
# Youngs Moduli (GPa) = -1614.55875 -1613.35975 48.09330
#
# Poissons Ratio (x) = 15.57243 0.13220
# Poissons Ratio (y) = 15.58401 0.13225
# Poissons Ratio (z) = -4.43808 -4.43644
#
# Static dielectric constant tensor:
#      x y z
#    x 1.770020 0.000000 0.000000 
#    y 0.000000 1.770020 0.000000 
#    z 0.000000 0.000000 1.766710 
# 
# From -- ./inp_files/9148.got.cif
#   From: 2010.05.17/outbox.cif.g08.bks.cpg/sg134_5_cif.got.tgz:9148.got - 2010.05.20 12:42:49.
