data_PCOD9568370
_publ_section_title
;
Structure prediction by ZEFSAII (Michael W. Deem and Ramdas Pophale) SiO2 
 PCOD9568370
Probable space group: P 42/N N M
;
_chemical_formula_sum "Si O2"
_cell_formula_units_Z 64
_cell_length_a 12.265554
_cell_length_b 12.265554
_cell_length_c 19.587587
_cell_angle_alpha 90.000000
_cell_angle_beta 90.000000
_cell_angle_gamma 90.000000
_cell_volume 2946.831313
_symmetry_space_group_name_H-M "P 42/N N M"
_symmetry_group_IT_number 134
_space_group.IT_coordinate_system_code '2'
_symmetry_cell_setting 'tetragonal'
loop_
_space_group_symop_operation_xyz
x,y,z
1/2-y,x,1/2+z
1/2-x,1/2-y,z
y,1/2-x,1/2+z
x,1/2-y,1/2-z
1/2-x,y,1/2-z
y,x,-z
1/2-y,1/2-x,-z
-x,-y,-z
1/2+y,-x,1/2-z
1/2+x,1/2+y,-z
-y,1/2+x,1/2-z
-x,1/2+y,1/2+z
1/2+x,-y,1/2+z
-y,-x,z
1/2+y,1/2+x,z
loop_
_atom_site_type_symbol
_atom_site_label
_atom_site_fract_x
_atom_site_fract_y
_atom_site_fract_z
Si Si1 0.661687 0.982869 0.191736
Si Si2 0.985537 0.832763 0.540443
Si Si3 0.976985 0.196527 0.678716
Si Si4 0.522818 0.845943 0.447129
O O1 0.750000 0.973987 0.250000
O O2 0.710908 0.965835 0.116175
O O3 0.570651 0.889814 0.196897
O O4 0.598051 0.098051 0.196260
O O5 0.880373 0.880373 0.500000
O O6 0.039657 0.741708 0.494056
O O7 0.063919 0.936082 0.549775
O O8 0.942361 0.250000 0.750000
O O9 0.875394 0.124606 0.650133
O O10 0.028283 0.282178 0.624800
O O11 0.620702 0.879299 0.500000
O O12 0.454760 0.954760 0.434304
#
# Coordination Sequence:
#
# PCOD9568370 Si02
#       4
#    16  16  16  16
#     4  10  23  42  66  96 135 174 217 273 331 397
#     4  10  20  41  67  91 124 171 219 265 323 396
#     4  11  24  44  68  96 134 178 224 278 338 404
#     4  11  25  42  64  98 134 167 215 280 336 395
#
# _framework density 21.718242
#
# number of rings (size 3 to 8) (size 9 to 14) (size 15 to 20)
#    0.000    1.500    2.500    1.500    3.500    5.500 
#    0.000    2.500    0.000    0.000    0.000    0.000 
#    0.000    0.000    0.000    0.000    0.000    0.000 
#
# Total GULP energy -356874.939327 kJ/mol
# GULP energy per Si atom -5576.170927 kJ/mol
# Density = 2.166881 g / cm^3
# Si number density = 21.718242 Si / 1000 Ang^3
#
#
#
# Elastic Constant Matrix: (Units=GPa)
#
#
# Indices 1 2 3 4 5 6 
#
# 1 71.3081 0.1148 48.3293 0.0000 0.0000 0.0000
# 2 0.1148 71.3132 48.3316 0.0000 0.0000 0.0000
# 3 48.3293 48.3316 170.1742 0.0000 0.0000 0.0000
# 4 0.0000 0.0000 0.0000 36.4470 0.0000 0.0000
# 5 0.0000 0.0000 0.0000 0.0000 36.4469 0.0000
# 6 0.0000 0.0000 0.0000 0.0000 0.0000 10.3837
#
#
#
# Elastic Compliance Matrix: (Units=1/GPa)
#
#
# Indices 1 2 3 4 5 6 
#
# 1 0.018394 0.004348 -0.006459 0.000000 0.000000 0.000000
# 2 0.004348 0.018393 -0.006459 0.000000 0.000000 0.000000
# 3 -0.006459 -0.006459 0.009545 0.000000 0.000000 0.000000
# 4 0.000000 0.000000 0.000000 0.027437 0.000000 0.000000
# 5 0.000000 0.000000 0.000000 0.000000 0.027437 0.000000
# 6 0.000000 0.000000 0.000000 0.000000 0.000000 0.096305
#
#
# Mechanical properties :
#
#
# Convention : Reuss Voigt Hill
#
# Bulk Modulus (GPa) = 34.25510 56.26077 45.25794
# Shear Modulus (GPa) = 22.28355 31.05683 26.67019
#
# Velocity S-wave (km/s) = 3.20664 3.78562 3.50810
# Velocity P-wave (km/s) = 5.43294 6.71334 6.10679
#
# Compressibility (1/GPa) = 0.02919273
#
# Stress axis : x y z
#
# Youngs Moduli (GPa) = 54.36538 54.36894 104.76802
#
# Poissons Ratio (x) = -0.23638 0.67666
# Poissons Ratio (y) = -0.23636 0.67665
# Poissons Ratio (z) = 0.35113 0.35114
#
# Static dielectric constant tensor:
#      x y z
#    x 1.846730 0.000000 0.000000 
#    y 0.000000 1.846730 0.000000 
#    z 0.000000 0.000000 1.814090 
# 
# From -- ./inp_files/8693.got.cif
#   From: 2010.05.17/outbox.cif.g08.bks.cpg/sg134_5_cif.got.tgz:8693.got - 2010.05.20 12:42:49.
