data_PCOD9568280
_publ_section_title
;
Structure prediction by ZEFSAII (Michael W. Deem and Ramdas Pophale) SiO2 
 PCOD9568280
Probable space group: P 42/N N M
;
_chemical_formula_sum "Si O2"
_cell_formula_units_Z 112
_cell_length_a 15.710061
_cell_length_b 15.710061
_cell_length_c 26.112913
_cell_angle_alpha 90.000000
_cell_angle_beta 90.000000
_cell_angle_gamma 90.000000
_cell_volume 6444.824040
_symmetry_space_group_name_H-M "P 42/N N M"
_symmetry_group_IT_number 134
_space_group.IT_coordinate_system_code '2'
_symmetry_cell_setting 'tetragonal'
loop_
_space_group_symop_operation_xyz
x,y,z
1/2-y,x,1/2+z
1/2-x,1/2-y,z
y,1/2-x,1/2+z
x,1/2-y,1/2-z
1/2-x,y,1/2-z
y,x,-z
1/2-y,1/2-x,-z
-x,-y,-z
1/2+y,-x,1/2-z
1/2+x,1/2+y,-z
-y,1/2+x,1/2-z
-x,1/2+y,1/2+z
1/2+x,-y,1/2+z
-y,-x,z
1/2+y,1/2+x,z
loop_
_atom_site_type_symbol
_atom_site_label
_atom_site_fract_x
_atom_site_fract_y
_atom_site_fract_z
Si Si1 0.677776 0.820284 0.057368
Si Si2 0.235824 0.465737 0.135426
Si Si3 0.066639 0.076574 0.819775
Si Si4 0.891633 0.246659 0.444748
Si Si5 0.037954 0.246816 0.365326
Si Si6 0.753801 0.109676 0.943696
Si Si7 0.423880 0.434787 0.697118
O O1 0.750000 0.750000 0.052690
O O2 0.603354 0.778039 0.090587
O O3 0.716854 0.895607 0.091254
O O4 0.652045 0.847956 0.000000
O O5 0.327895 0.457234 0.162061
O O6 0.232643 0.553844 0.105028
O O7 0.156139 0.451575 0.173266
O O8 0.160448 0.058288 0.842602
O O9 0.074719 0.072945 0.758336
O O10 0.994615 0.005386 0.834557
O O11 0.842489 0.157512 0.441965
O O12 0.820545 0.320545 0.445106
O O13 0.935938 0.252920 0.500687
O O14 0.950138 0.254231 0.395742
O O15 0.041498 0.170220 0.323908
O O16 0.844494 0.155507 0.937136
O O17 0.683855 0.183855 0.948315
O O18 0.491964 0.508037 0.681950
#
# Coordination Sequence:
#
# PCOD9568280 Si02
#       7
#    16  16  16  16  16  16  16
#     4  10  20  34  51  76 108 137 171 211 254 304
#     4  11  20  36  57  78 106 145 178 217 268 321
#     4  11  23  38  54  80 108 140 182 227 269 319
#     4   9  18  33  54  81 111 141 175 216 262 317
#     4  11  20  36  57  78 106 145 178 217 268 321
#     4   9  18  33  54  81 111 141 175 216 262 317
#     4  10  23  38  57  80 105 136 184 234 272 312
#
# _framework density 17.378285999999999
#
# number of rings (size 3 to 8) (size 9 to 14) (size 15 to 20)
#    0.000    1.857    1.429    4.286    0.000    0.000 
#    0.000    1.429    0.000   10.286    0.000   12.000 
#    0.000    0.000    0.000    0.000    0.000    0.000 
#
# Total GULP energy -624243.227333 kJ/mol
# GULP energy per Si atom -5573.600244 kJ/mol
# Density = 1.733873 g / cm^3
# Si number density = 17.378286 Si / 1000 Ang^3
#
#
#
# Elastic Constant Matrix: (Units=GPa)
#
#
# Indices 1 2 3 4 5 6 
#
# 1 82.3978 31.9561 39.0821 0.0000 0.0000 0.0000
# 2 31.9561 82.3977 39.0819 0.0000 0.0000 0.0000
# 3 39.0821 39.0819 99.1293 0.0000 0.0000 0.0000
# 4 0.0000 0.0000 0.0000 24.5257 0.0000 0.0000
# 5 0.0000 0.0000 0.0000 0.0000 24.5255 0.0000
# 6 0.0000 0.0000 0.0000 0.0000 0.0000 23.3895
#
#
#
# Elastic Compliance Matrix: (Units=1/GPa)
#
#
# Indices 1 2 3 4 5 6 
#
# 1 0.015898 -0.003927 -0.004719 0.000000 0.000000 0.000000
# 2 -0.003927 0.015898 -0.004719 0.000000 0.000000 0.000000
# 3 -0.004719 -0.004719 0.013809 0.000000 0.000000 0.000000
# 4 0.000000 0.000000 0.000000 0.040774 0.000000 0.000000
# 5 0.000000 0.000000 0.000000 0.000000 0.040774 0.000000
# 6 0.000000 0.000000 0.000000 0.000000 0.000000 0.042754
#
#
# Mechanical properties :
#
#
# Convention : Reuss Voigt Hill
#
# Bulk Modulus (GPa) = 52.98677 53.79609 53.39143
# Shear Modulus (GPa) = 24.63913 24.74180 24.69047
#
# Velocity S-wave (km/s) = 3.76947 3.77731 3.77339
# Velocity P-wave (km/s) = 7.03574 7.07441 7.05510
#
# Compressibility (1/GPa) = 0.01887263
#
# Stress axis : x y z
#
# Youngs Moduli (GPa) = 62.90187 62.90191 72.41570
#
# Poissons Ratio (x) = 0.24702 0.34177
# Poissons Ratio (y) = 0.24702 0.34176
# Poissons Ratio (z) = 0.29686 0.29686
#
# Static dielectric constant tensor:
#      x y z
#    x 1.769950 0.000000 0.000000 
#    y 0.000000 1.769960 0.000000 
#    z 0.000000 0.000000 1.587420 
# 
# From -- ./inp_files/10826.got.cif
#   From: 2010.05.17/outbox.cif.g08.bks.cpg/sg134_6_cif.got.tgz:10826.got - 2010.05.20 12:42:49.
