data_PCOD9568452
_publ_section_title
;
Structure prediction by ZEFSAII (Michael W. Deem and Ramdas Pophale) SiO2 
 PCOD9568452
Probable space group: P 42/N N M
;
_chemical_formula_sum "Si O2"
_cell_formula_units_Z 120
_cell_length_a 21.127790
_cell_length_b 21.127790
_cell_length_c 14.716925
_cell_angle_alpha 90.000000
_cell_angle_beta 90.000000
_cell_angle_gamma 90.000000
_cell_volume 6569.392642
_symmetry_space_group_name_H-M "P 42/N N M"
_symmetry_group_IT_number 134
_space_group.IT_coordinate_system_code '2'
_symmetry_cell_setting 'tetragonal'
loop_
_space_group_symop_operation_xyz
x,y,z
1/2-y,x,1/2+z
1/2-x,1/2-y,z
y,1/2-x,1/2+z
x,1/2-y,1/2-z
1/2-x,y,1/2-z
y,x,-z
1/2-y,1/2-x,-z
-x,-y,-z
1/2+y,-x,1/2-z
1/2+x,1/2+y,-z
-y,1/2+x,1/2-z
-x,1/2+y,1/2+z
1/2+x,-y,1/2+z
-y,-x,z
1/2+y,1/2+x,z
loop_
_atom_site_type_symbol
_atom_site_label
_atom_site_fract_x
_atom_site_fract_y
_atom_site_fract_z
Si Si1 0.056452 0.377219 0.315762
Si Si2 0.466393 0.291980 0.027831
Si Si3 0.432751 0.465874 0.624770
Si Si4 0.927407 0.323274 0.782481
Si Si5 0.319231 0.319231 0.000000
Si Si6 0.494160 0.891130 0.381715
Si Si7 0.316732 0.192899 0.700150
Si Si8 0.508044 0.651472 0.458630
O O1 0.020705 0.322720 0.372972
O O2 0.026895 0.397703 0.220400
O O3 0.069097 0.440873 0.373965
O O4 0.127295 0.352749 0.295952
O O5 0.392520 0.306209 0.015628
O O6 0.500723 0.334637 0.953074
O O7 0.474305 0.218389 0.004784
O O8 0.501979 0.498022 0.631376
O O9 0.440910 0.391739 0.597453
O O10 0.394787 0.501260 0.544797
O O11 0.923846 0.250000 0.750000
O O12 0.860934 0.360934 0.774443
O O13 0.975991 0.360022 0.715163
O O14 0.954095 0.332609 0.884686
O O15 0.305172 0.288208 0.903927
O O16 0.438667 0.938667 0.407342
O O17 0.352296 0.250000 0.750000
O O18 0.250000 0.184211 0.750000
#
# Coordination Sequence:
#
# PCOD9568452 Si02
#       8
#    16  16  16  16   8  16  16  16
#     4  11  23  37  57  84 121 153 203 252 301 355
#     4  11  22  39  57  88 117 164 194 251 301 367
#     4  11  24  41  62  90 119 159 209 258 303 360
#     4  11  22  38  63  92 121 154 201 253 311 382
#     4  10  22  39  53  76 118 138 208 246 283 345
#     4  11  21  37  61  89 117 155 198 248 306 363
#     4  10  23  38  54  76 109 156 198 249 285 341
#     4  11  23  39  63  86 122 161 202 249 306 365
#
# _framework density 18.266528000000001
#
# number of rings (size 3 to 8) (size 9 to 14) (size 15 to 20)
#    0.000    1.200    5.333    2.000    5.600    3.333 
#    0.000    0.000    0.000    0.000    0.000    0.000 
#    0.000    0.000    0.000    0.533    0.000    0.000 
#
# Total GULP energy -668989.537306 kJ/mol
# GULP energy per Si atom -5574.912811 kJ/mol
# Density = 1.822495 g / cm^3
# Si number density = 18.266528 Si / 1000 Ang^3
#
#
#
# Elastic Constant Matrix: (Units=GPa)
#
#
# Indices 1 2 3 4 5 6 
#
# 1 75.5826 30.1658 31.2865 0.0000 0.0000 0.0000
# 2 30.1658 75.5826 31.2865 0.0000 0.0000 0.0000
# 3 31.2865 31.2865 127.5660 0.0000 0.0000 0.0000
# 4 0.0000 0.0000 0.0000 30.4147 0.0000 0.0000
# 5 0.0000 0.0000 0.0000 0.0000 30.4147 0.0000
# 6 0.0000 0.0000 0.0000 0.0000 0.0000 19.3477
#
#
#
# Elastic Compliance Matrix: (Units=1/GPa)
#
#
# Indices 1 2 3 4 5 6 
#
# 1 0.016540 -0.005478 -0.002713 0.000000 0.000000 0.000000
# 2 -0.005478 0.016540 -0.002713 0.000000 0.000000 0.000000
# 3 -0.002713 -0.002713 0.009170 0.000000 0.000000 0.000000
# 4 0.000000 0.000000 0.000000 0.032879 0.000000 0.000000
# 5 0.000000 0.000000 0.000000 0.000000 0.032879 0.000000
# 6 0.000000 0.000000 0.000000 0.000000 0.000000 0.051686
#
#
# Mechanical properties :
#
#
# Convention : Reuss Voigt Hill
#
# Bulk Modulus (GPa) = 48.92036 51.57875 50.24955
# Shear Modulus (GPa) = 26.55120 28.43491 27.49305
#
# Velocity S-wave (km/s) = 3.81667 3.94974 3.88378
# Velocity P-wave (km/s) = 6.80163 7.00705 6.90510
#
# Compressibility (1/GPa) = 0.02044139
#
# Stress axis : x y z
#
# Youngs Moduli (GPa) = 60.45949 60.45949 109.05336
#
# Poissons Ratio (x) = 0.33121 0.29586
# Poissons Ratio (y) = 0.33121 0.29586
# Poissons Ratio (z) = 0.16402 0.16402
#
# Static dielectric constant tensor:
#      x y z
#    x 1.641850 0.000000 0.000000 
#    y 0.000000 1.641850 0.000000 
#    z 0.000000 0.000000 1.765580 
# 
# From -- ./inp_files/6736.got.cif
#   From: 2010.05.17/outbox.cif.g08.bks.cpg/sg134_4_cif.got.tgz:6736.got - 2010.05.20 12:42:49.
