data_PCOD9568872
_publ_section_title
;
Structure prediction by ZEFSAII (Michael W. Deem and Ramdas Pophale) SiO2 
 PCOD9568872
Probable space group: P 42/M B C
;
_chemical_formula_sum "Si O2"
_cell_formula_units_Z 96
_cell_length_a 24.374842
_cell_length_b 24.374842
_cell_length_c 8.609587
_cell_angle_alpha 90.000000
_cell_angle_beta 90.000000
_cell_angle_gamma 90.000000
_cell_volume 5115.239086
_symmetry_space_group_name_H-M "P 42/M B C"
_symmetry_group_IT_number 135
_symmetry_cell_setting 'tetragonal'
loop_
_space_group_symop_operation_xyz
x,y,z
-y,x,1/2+z
-x,-y,z
y,-x,1/2+z
1/2+x,1/2-y,-z
1/2-x,1/2+y,-z
1/2+y,1/2+x,1/2-z
1/2-y,1/2-x,1/2-z
-x,-y,-z
y,-x,1/2-z
x,y,-z
-y,x,1/2-z
1/2-x,1/2+y,z
1/2+x,1/2-y,z
1/2-y,1/2-x,1/2+z
1/2+y,1/2+x,1/2+z
loop_
_atom_site_type_symbol
_atom_site_label
_atom_site_fract_x
_atom_site_fract_y
_atom_site_fract_z
Si Si1 0.490272 0.793357 0.312198
Si Si2 0.692549 0.723286 0.813110
Si Si3 0.501391 0.085333 0.185316
Si Si4 0.572857 0.696097 0.313420
Si Si5 0.365852 0.782901 0.686548
Si Si6 0.468816 0.419954 0.185856
O O1 0.491428 0.798313 0.500000
O O2 0.503868 0.852402 0.241241
O O3 0.531590 0.745053 0.267764
O O4 0.428467 0.777880 0.263532
O O5 0.722041 0.777960 0.750000
O O6 0.633040 0.712515 0.744340
O O7 0.732424 0.672874 0.765303
O O8 0.690166 0.725282 0.000000
O O9 0.556677 0.056677 0.250000
O O10 0.451750 0.048251 0.250000
O O11 0.502058 0.082290 0.000000
O O12 0.572267 0.691243 0.500000
O O13 0.553681 0.638416 0.241901
O O14 0.337717 0.837717 0.750000
O O15 0.364729 0.784926 0.500000
O O16 0.431792 0.470039 0.250054
O O17 0.469466 0.422593 0.000000
#
# Coordination Sequence:
#
# PCOD9568872 Si02
#       6
#    16  16  16  16  16  16
#     4  10  22  39  58  85 121 156 194 242 299 353
#     4  10  21  39  62  86 117 158 203 250 301 361
#     4  11  22  38  61  87 118 156 200 246 300 358
#     4  11  24  40  61  91 125 164 205 252 306 363
#     4   9  19  36  59  86 113 150 190 239 296 348
#     4  11  23  42  66  93 124 161 205 254 310 369
#
# _framework density 18.767453
#
# number of rings (size 3 to 8) (size 9 to 14) (size 15 to 20)
#    0.000    1.667    0.000    5.500    2.333    4.667 
#    0.000    0.000    0.000    0.000    0.000    0.000 
#    0.000    0.000    0.000    0.000    0.000    0.000 
#
# Total GULP energy -536592.784659 kJ/mol
# GULP energy per Si atom -5589.508174 kJ/mol
# Density = 1.872474 g / cm^3
# Si number density = 18.767453 Si / 1000 Ang^3
#
#
#
# Elastic Constant Matrix: (Units=GPa)
#
#
# Indices 1 2 3 4 5 6 
#
# 1 224.4770 53.1177 59.8068 0.0000 0.0000 0.0000
# 2 53.1177 224.4037 59.8143 0.0000 0.0000 0.0000
# 3 59.8068 59.8143 92.0485 0.0000 0.0000 0.0000
# 4 0.0000 0.0000 0.0000 30.7693 0.0000 0.0000
# 5 0.0000 0.0000 0.0000 0.0000 30.7693 0.0000
# 6 0.0000 0.0000 0.0000 0.0000 0.0000 18.4596
#
#
#
# Elastic Compliance Matrix: (Units=1/GPa)
#
#
# Indices 1 2 3 4 5 6 
#
# 1 0.005419 -0.000416 -0.003251 0.000000 0.000000 0.000000
# 2 -0.000416 0.005422 -0.003253 0.000000 0.000000 0.000000
# 3 -0.003251 -0.003253 0.015089 0.000000 0.000000 0.000000
# 4 0.000000 0.000000 0.000000 0.032500 0.000000 0.000000
# 5 0.000000 0.000000 0.000000 0.000000 0.032500 0.000000
# 6 0.000000 0.000000 0.000000 0.000000 0.000000 0.054172
#
#
# Mechanical properties :
#
#
# Convention : Reuss Voigt Hill
#
# Bulk Modulus (GPa) = 82.70291 98.48962 90.59626
# Shear Modulus (GPa) = 30.68004 40.54568 35.61286
#
# Velocity S-wave (km/s) = 4.04759 4.65308 4.36086
# Velocity P-wave (km/s) = 8.12446 9.02558 8.58685
#
# Compressibility (1/GPa) = 0.01209147
#
# Stress axis : x y z
#
# Youngs Moduli (GPa) = 184.52353 184.44100 66.27152
#
# Poissons Ratio (x) = 0.07679 0.21542
# Poissons Ratio (y) = 0.07683 0.21556
# Poissons Ratio (z) = 0.59981 0.59992
#
# Static dielectric constant tensor:
#      x y z
#    x 1.627120 0.000000 0.000000 
#    y 0.000000 1.627130 0.000000 
#    z 0.000000 0.000000 1.631580 
# 
# From -- ./inp_files/1270.got.cif
#   From: 2010.05.17/outbox.cif.g08.bks.cpg/sg135_1_cif.got.tgz:1270.got - 2010.05.20 12:50:20.
