data_PCOD9568160
_publ_section_title
;
Structure prediction by ZEFSAII (Michael W. Deem and Ramdas Pophale) SiO2 
 PCOD9568160
Probable space group: P 42/N N M
;
_chemical_formula_sum "Si O2"
_cell_formula_units_Z 56
_cell_length_a 16.243944
_cell_length_b 16.243944
_cell_length_c 12.117234
_cell_angle_alpha 90.000000
_cell_angle_beta 90.000000
_cell_angle_gamma 90.000000
_cell_volume 3197.322634
_symmetry_space_group_name_H-M "P 42/N N M"
_symmetry_group_IT_number 134
_space_group.IT_coordinate_system_code '2'
_symmetry_cell_setting 'tetragonal'
loop_
_space_group_symop_operation_xyz
x,y,z
1/2-y,x,1/2+z
1/2-x,1/2-y,z
y,1/2-x,1/2+z
x,1/2-y,1/2-z
1/2-x,y,1/2-z
y,x,-z
1/2-y,1/2-x,-z
-x,-y,-z
1/2+y,-x,1/2-z
1/2+x,1/2+y,-z
-y,1/2+x,1/2-z
-x,1/2+y,1/2+z
1/2+x,-y,1/2+z
-y,-x,z
1/2+y,1/2+x,z
loop_
_atom_site_type_symbol
_atom_site_label
_atom_site_fract_x
_atom_site_fract_y
_atom_site_fract_z
Si Si1 0.883322 0.246735 0.453801
Si Si2 0.045437 0.822887 0.167853
Si Si3 0.047869 0.411689 0.376099
Si Si4 0.750000 0.007453 0.250000
O O1 0.827865 0.172136 0.499785
O O2 0.818470 0.318470 0.421235
O O3 0.943475 0.286260 0.544706
O O4 0.934083 0.217627 0.348123
O O5 0.031111 0.750000 0.250000
O O6 0.131285 0.868716 0.190455
O O7 0.974357 0.889782 0.182231
O O8 0.086229 0.413771 0.500000
O O9 0.039629 0.326024 0.310181
O O10 0.959179 0.459179 0.383669
#
# Coordination Sequence:
#
# PCOD9568160 Si02
#       4
#    16  16  16   8
#     4  10  19  30  51  85 118 147 187 245 305 358
#     4  10  20  36  57  81 115 154 196 241 298 367
#     4  10  20  37  59  84 116 158 198 242 302 360
#     4  12  20  33  57  84 118 156 198 242 292 355
#
# _framework density 17.514652999999999
#
# number of rings (size 3 to 8) (size 9 to 14) (size 15 to 20)
#    0.000    1.714    2.857    3.429    0.000    2.571 
#    0.000    2.143    0.000    6.857    0.000    0.000 
#    0.000    0.000    0.000    0.000    0.000    0.000 
#
# Total GULP energy -311969.915840 kJ/mol
# GULP energy per Si atom -5570.891354 kJ/mol
# Density = 1.747479 g / cm^3
# Si number density = 17.514653 Si / 1000 Ang^3
#
#
#
# Elastic Constant Matrix: (Units=GPa)
#
#
# Indices 1 2 3 4 5 6 
#
# 1 91.5040 39.5472 44.6364 0.0000 0.0000 0.0000
# 2 39.5472 91.5045 44.6367 0.0000 0.0000 0.0000
# 3 44.6364 44.6367 73.2019 0.0000 0.0000 0.0000
# 4 0.0000 0.0000 0.0000 20.4604 0.0000 0.0000
# 5 0.0000 0.0000 0.0000 0.0000 20.4604 0.0000
# 6 0.0000 0.0000 0.0000 0.0000 0.0000 19.9622
#
#
#
# Elastic Compliance Matrix: (Units=1/GPa)
#
#
# Indices 1 2 3 4 5 6 
#
# 1 0.016149 -0.003097 -0.007959 0.000000 0.000000 0.000000
# 2 -0.003097 0.016149 -0.007959 0.000000 0.000000 0.000000
# 3 -0.007959 -0.007959 0.023367 0.000000 0.000000 0.000000
# 4 0.000000 0.000000 0.000000 0.048875 0.000000 0.000000
# 5 0.000000 0.000000 0.000000 0.000000 0.048875 0.000000
# 6 0.000000 0.000000 0.000000 0.000000 0.000000 0.050095
#
#
# Mechanical properties :
#
#
# Convention : Reuss Voigt Hill
#
# Bulk Modulus (GPa) = 56.70230 57.09455 56.89843
# Shear Modulus (GPa) = 20.20863 20.66928 20.43896
#
# Velocity S-wave (km/s) = 3.40047 3.43901 3.41979
# Velocity P-wave (km/s) = 6.91824 6.95974 6.93902
#
# Compressibility (1/GPa) = 0.01763597
#
# Stress axis : x y z
#
# Youngs Moduli (GPa) = 61.92155 61.92166 42.79525
#
# Poissons Ratio (x) = 0.19178 0.34060
# Poissons Ratio (y) = 0.19178 0.34060
# Poissons Ratio (z) = 0.49283 0.49283
#
# Static dielectric constant tensor:
#      x y z
#    x 1.609270 0.000000 0.000000 
#    y 0.000000 1.609270 0.000000 
#    z 0.000000 0.000000 1.629390 
# 
# From -- ./inp_files/4337.got.cif
#   From: 2010.05.17/outbox.cif.g08.bks.cpg/sg134_3_cif.got.tgz:4337.got - 2010.05.20 12:42:49.
