data_PCOD9568433
_publ_section_title
;
Structure prediction by ZEFSAII (Michael W. Deem and Ramdas Pophale) SiO2 
 PCOD9568433
Probable space group: P 42/N N M
;
_chemical_formula_sum "Si O2"
_cell_formula_units_Z 96
_cell_length_a 15.283916
_cell_length_b 15.283916
_cell_length_c 19.315954
_cell_angle_alpha 90.000000
_cell_angle_beta 90.000000
_cell_angle_gamma 90.000000
_cell_volume 4512.169928
_symmetry_space_group_name_H-M "P 42/N N M"
_symmetry_group_IT_number 134
_space_group.IT_coordinate_system_code '2'
_symmetry_cell_setting 'tetragonal'
loop_
_space_group_symop_operation_xyz
x,y,z
1/2-y,x,1/2+z
1/2-x,1/2-y,z
y,1/2-x,1/2+z
x,1/2-y,1/2-z
1/2-x,y,1/2-z
y,x,-z
1/2-y,1/2-x,-z
-x,-y,-z
1/2+y,-x,1/2-z
1/2+x,1/2+y,-z
-y,1/2+x,1/2-z
-x,1/2+y,1/2+z
1/2+x,-y,1/2+z
-y,-x,z
1/2+y,1/2+x,z
loop_
_atom_site_type_symbol
_atom_site_label
_atom_site_fract_x
_atom_site_fract_y
_atom_site_fract_z
Si Si1 0.169935 0.967506 0.042669
Si Si2 0.448073 0.092670 0.784507
Si Si3 0.980465 0.776653 0.674462
Si Si4 0.439555 0.417708 0.132738
Si Si5 0.725209 0.085578 0.829692
Si Si6 0.643009 0.999898 0.025957
O O1 0.104664 0.895337 0.008692
O O2 0.200676 0.926728 0.115227
O O3 0.113469 0.050601 0.066700
O O4 0.260351 0.993113 0.006497
O O5 0.452469 0.107688 0.702401
O O6 0.499781 0.163903 0.827533
O O7 0.500425 0.000425 0.795741
O O8 0.345687 0.091764 0.800112
O O9 0.025754 0.750000 0.750000
O O10 0.951987 0.685009 0.641915
O O11 0.013013 0.834402 0.608298
O O12 0.532470 0.467531 0.132227
O O13 0.750000 0.100425 0.750000
O O14 0.666152 0.166152 0.852254
O O15 0.580185 0.080185 0.004559
O O16 0.586919 0.913082 0.000000
#
# Coordination Sequence:
#
# PCOD9568433 Si02
#       6
#    16  16  16  16  16  16
#     4  11  23  40  61  89 129 171 216 268 327 401
#     4   9  17  34  59  87 124 165 208 260 322 393
#     4  10  21  39  67  96 123 163 223 272 324 396
#     4   9  19  37  60  89 125 166 208 260 331 396
#     4  11  20  32  55  87 123 165 210 261 320 388
#     4  11  25  46  69  95 131 177 223 276 346 419
#
# _framework density 21.275794000000001
#
# number of rings (size 3 to 8) (size 9 to 14) (size 15 to 20)
#    0.000    1.833    1.667    2.500    0.000    6.833 
#    0.000    5.833    0.000    1.500    0.000    9.333 
#    0.000    0.000    0.000    0.000    0.000    0.000 
#
# Total GULP energy -534410.311748 kJ/mol
# GULP energy per Si atom -5566.774081 kJ/mol
# Density = 2.122737 g / cm^3
# Si number density = 21.275794 Si / 1000 Ang^3
#
#
#
# Elastic Constant Matrix: (Units=GPa)
#
#
# Indices 1 2 3 4 5 6 
#
# 1 108.0536 51.8985 37.9789 0.0000 0.0000 0.0000
# 2 51.8985 108.0539 37.9786 0.0000 0.0000 0.0000
# 3 37.9789 37.9786 111.9146 0.0000 0.0000 0.0000
# 4 0.0000 0.0000 0.0000 27.5823 0.0000 0.0000
# 5 0.0000 0.0000 0.0000 0.0000 27.5828 0.0000
# 6 0.0000 0.0000 0.0000 0.0000 0.0000 14.1969
#
#
#
# Elastic Compliance Matrix: (Units=1/GPa)
#
#
# Indices 1 2 3 4 5 6 
#
# 1 0.012630 -0.005177 -0.002529 0.000000 0.000000 0.000000
# 2 -0.005177 0.012630 -0.002529 0.000000 0.000000 0.000000
# 3 -0.002529 -0.002529 0.010652 0.000000 0.000000 0.000000
# 4 0.000000 0.000000 0.000000 0.036255 0.000000 0.000000
# 5 0.000000 0.000000 0.000000 0.000000 0.036254 0.000000
# 6 0.000000 0.000000 0.000000 0.000000 0.000000 0.070438
#
#
# Mechanical properties :
#
#
# Convention : Reuss Voigt Hill
#
# Bulk Modulus (GPa) = 64.76236 64.85934 64.81085
# Shear Modulus (GPa) = 24.45244 27.21682 25.83463
#
# Velocity S-wave (km/s) = 3.39382 3.58052 3.48842
# Velocity P-wave (km/s) = 6.77222 6.90252 6.83768
#
# Compressibility (1/GPa) = 0.01544107
#
# Stress axis : x y z
#
# Youngs Moduli (GPa) = 79.17424 79.17465 93.87937
#
# Poissons Ratio (x) = 0.40992 0.23744
# Poissons Ratio (y) = 0.40992 0.23744
# Poissons Ratio (z) = 0.20025 0.20024
#
# Static dielectric constant tensor:
#      x y z
#    x 1.756770 0.000000 0.000000 
#    y 0.000000 1.756770 0.000000 
#    z 0.000000 0.000000 1.892950 
# 
# From -- ./inp_files/9137.got.cif
#   From: 2010.05.17/outbox.cif.g08.bks.cpg/sg134_5_cif.got.tgz:9137.got - 2010.05.20 12:42:49.
