data_PCOD9568993
_publ_section_title
;
Structure prediction by ZEFSAII (Michael W. Deem and Ramdas Pophale) SiO2 
 PCOD9568993
Probable space group: P 42/M B C
;
_chemical_formula_sum "Si O2"
_cell_formula_units_Z 80
_cell_length_a 14.664547
_cell_length_b 14.664547
_cell_length_c 18.529969
_cell_angle_alpha 90.000000
_cell_angle_beta 90.000000
_cell_angle_gamma 90.000000
_cell_volume 3984.850168
_symmetry_space_group_name_H-M "P 42/M B C"
_symmetry_group_IT_number 135
_symmetry_cell_setting 'tetragonal'
loop_
_space_group_symop_operation_xyz
x,y,z
-y,x,1/2+z
-x,-y,z
y,-x,1/2+z
1/2+x,1/2-y,-z
1/2-x,1/2+y,-z
1/2+y,1/2+x,1/2-z
1/2-y,1/2-x,1/2-z
-x,-y,-z
y,-x,1/2-z
x,y,-z
-y,x,1/2-z
1/2-x,1/2+y,z
1/2+x,1/2-y,z
1/2-y,1/2-x,1/2+z
1/2+y,1/2+x,1/2+z
loop_
_atom_site_type_symbol
_atom_site_label
_atom_site_fract_x
_atom_site_fract_y
_atom_site_fract_z
Si Si1 0.782366 0.359929 0.175413
Si Si2 0.564945 0.579919 0.869387
Si Si3 0.060233 0.343925 0.693386
Si Si4 0.319170 0.742178 0.582706
Si Si5 0.077312 0.161624 0.219366
O O1 0.824198 0.324198 0.250000
O O2 0.828513 0.458249 0.162228
O O3 0.786864 0.277626 0.118024
O O4 0.674790 0.370588 0.190552
O O5 0.500000 0.500000 0.899493
O O6 0.652143 0.615982 0.911781
O O7 0.494915 0.658181 0.845005
O O8 0.604300 0.551186 0.790955
O O9 0.073325 0.426675 0.750000
O O10 0.131887 0.322409 0.628916
O O11 0.082485 0.261654 0.748549
O O12 0.307338 0.768509 0.500000
#
# Coordination Sequence:
#
# PCOD9568993 Si02
#       5
#    16  16  16  16  16
#     4  12  21  39  66  91 127 169 218 279 326 378
#     4  11  18  31  59  95 124 159 213 270 328 381
#     4  11  21  37  65  93 119 163 226 273 317 381
#     4  11  24  41  58  92 144 180 206 259 338 409
#     4  11  15  31  59  92 118 152 205 275 332 357
#
# _framework density 20.076036999999999
#
# number of rings (size 3 to 8) (size 9 to 14) (size 15 to 20)
#    0.000    0.800   10.000    1.200    0.000    1.600 
#    0.000    1.000    0.000    0.000    0.000    4.200 
#    0.000    0.000    0.000    0.000    0.000    0.000 
#
# Total GULP energy -445721.715066 kJ/mol
# GULP energy per Si atom -5571.521438 kJ/mol
# Density = 2.003034 g / cm^3
# Si number density = 20.076037 Si / 1000 Ang^3
#
#
#
# Elastic Constant Matrix: (Units=GPa)
#
#
# Indices 1 2 3 4 5 6 
#
# 1 79.1568 21.7243 31.8018 0.0000 0.0000 0.0000
# 2 21.7243 79.1568 31.8018 0.0000 0.0000 0.0000
# 3 31.8018 31.8018 108.7229 0.0000 0.0000 0.0000
# 4 0.0000 0.0000 0.0000 8.9773 0.0000 0.0000
# 5 0.0000 0.0000 0.0000 0.0000 8.9773 0.0000
# 6 0.0000 0.0000 0.0000 0.0000 0.0000 28.6261
#
#
#
# Elastic Compliance Matrix: (Units=1/GPa)
#
#
# Indices 1 2 3 4 5 6 
#
# 1 0.014783 -0.002629 -0.003555 0.000000 0.000000 0.000000
# 2 -0.002629 0.014783 -0.003555 0.000000 0.000000 0.000000
# 3 -0.003555 -0.003555 0.011277 0.000000 0.000000 0.000000
# 4 0.000000 0.000000 0.000000 0.111393 0.000000 0.000000
# 5 0.000000 0.000000 0.000000 0.000000 0.111393 0.000000
# 6 0.000000 0.000000 0.000000 0.000000 0.000000 0.034933
#
#
# Mechanical properties :
#
#
# Convention : Reuss Voigt Hill
#
# Bulk Modulus (GPa) = 46.80507 48.63245 47.71876
# Shear Modulus (GPa) = 15.37698 21.43004 18.40351
#
# Velocity S-wave (km/s) = 2.77056 3.27072 3.03097
# Velocity P-wave (km/s) = 5.79648 6.20808 6.00580
#
# Compressibility (1/GPa) = 0.02136521
#
# Stress axis : x y z
#
# Youngs Moduli (GPa) = 67.64567 67.64567 88.67246
#
# Poissons Ratio (x) = 0.17783 0.31524
# Poissons Ratio (y) = 0.17783 0.31524
# Poissons Ratio (z) = 0.24049 0.24049
#
# Static dielectric constant tensor:
#      x y z
#    x 2.027020 0.000000 0.000000 
#    y 0.000000 2.027020 0.000000 
#    z 0.000000 0.000000 1.677200 
# 
# From -- ./inp_files/5185.got.cif
#   From: 2010.05.17/outbox.cif.g08.bks.cpg/sg135_3_cif.got.tgz:5185.got - 2010.05.20 12:50:20.
