data_PCOD9568647
_publ_section_title
;
Structure prediction by ZEFSAII (Michael W. Deem and Ramdas Pophale) SiO2 
 PCOD9568647
Probable space group: P 42/M B C
;
_chemical_formula_sum "Si O2"
_cell_formula_units_Z 80
_cell_length_a 10.119609
_cell_length_b 10.119609
_cell_length_c 28.343775
_cell_angle_alpha 90.000000
_cell_angle_beta 90.000000
_cell_angle_gamma 90.000000
_cell_volume 2902.586407
_symmetry_space_group_name_H-M "P 42/M B C"
_symmetry_group_IT_number 135
_symmetry_cell_setting 'tetragonal'
loop_
_space_group_symop_operation_xyz
x,y,z
-y,x,1/2+z
-x,-y,z
y,-x,1/2+z
1/2+x,1/2-y,-z
1/2-x,1/2+y,-z
1/2+y,1/2+x,1/2-z
1/2-y,1/2-x,1/2-z
-x,-y,-z
y,-x,1/2-z
x,y,-z
-y,x,1/2-z
1/2-x,1/2+y,z
1/2+x,1/2-y,z
1/2-y,1/2-x,1/2+z
1/2+y,1/2+x,1/2+z
loop_
_atom_site_type_symbol
_atom_site_label
_atom_site_fract_x
_atom_site_fract_y
_atom_site_fract_z
Si Si1 0.490592 0.285802 0.051498
Si Si2 0.996244 0.739148 0.347214
Si Si3 0.278808 0.513882 0.253339
Si Si4 0.229285 0.001775 0.948812
Si Si5 0.096704 0.245712 0.850612
O O1 0.612016 0.390431 0.049126
O O2 0.352271 0.364455 0.055180
O O3 0.522529 0.220787 0.101260
O O4 0.491008 0.219232 0.000000
O O5 0.030326 0.692433 0.293913
O O6 0.026354 0.690799 0.400838
O O7 0.836929 0.727325 0.348181
O O8 0.089157 0.870034 0.348253
O O9 0.381787 0.634018 0.256615
O O10 0.220530 0.485566 0.304318
O O11 0.295509 0.002410 0.000000
#
# Coordination Sequence:
#
# PCOD9568647 Si02
#       5
#    16  16  16  16  16
#     4   8  14  26  45  67  89 117 159 209 253 293
#     4  10  19  30  46  70  99 128 159 201 254 310
#     4   9  17  30  50  72  91 119 166 216 250 285
#     4   8  14  26  45  67  89 117 159 209 253 293
#     4  10  19  30  46  70  99 128 159 201 254 310
#
# _framework density 27.561624999999999
#
# number of rings (size 3 to 8) (size 9 to 14) (size 15 to 20)
#    0.000    3.000    0.000    3.000    0.000    5.600 
#    0.000    0.000    0.000    4.800    0.000   14.000 
#    0.000    0.000    0.000    0.000    0.000    0.000 
#
# Total GULP energy -445835.939745 kJ/mol
# GULP energy per Si atom -5572.949247 kJ/mol
# Density = 2.749889 g / cm^3
# Si number density = 27.561625 Si / 1000 Ang^3
#
#
#
# Elastic Constant Matrix: (Units=GPa)
#
#
# Indices 1 2 3 4 5 6 
#
# 1 69.7056 90.1841 43.7123 0.0000 0.0000 0.0000
# 2 90.1841 69.7056 43.7123 0.0000 0.0000 0.0000
# 3 43.7123 43.7123 396.4393 0.0000 0.0000 0.0000
# 4 0.0000 0.0000 0.0000 -39.4451 0.0000 0.0000
# 5 0.0000 0.0000 0.0000 0.0000 -39.4451 0.0000
# 6 0.0000 0.0000 0.0000 0.0000 0.0000 64.8258
#
#
#
# Elastic Compliance Matrix: (Units=1/GPa)
#
#
# Indices 1 2 3 4 5 6 
#
# 1 -0.021088 0.027744 -0.000734 0.000000 0.000000 0.000000
# 2 0.027744 -0.021088 -0.000734 0.000000 0.000000 0.000000
# 3 -0.000734 -0.000734 0.002684 0.000000 0.000000 0.000000
# 4 0.000000 0.000000 0.000000 -0.025352 0.000000 0.000000
# 5 0.000000 0.000000 0.000000 0.000000 -0.025352 0.000000
# 6 0.000000 0.000000 0.000000 0.000000 0.000000 0.015426
#
#
# Mechanical properties :
#
#
# Convention : Reuss Voigt Hill
#
# Bulk Modulus (GPa) = 76.56969 99.00755 87.78862
# Shear Modulus (GPa) = -40.66103 21.06989 -9.79557
#
# Velocity S-wave (km/s) = -3.84510 2.76789 -1.88727
# Velocity P-wave (km/s) = 2.85106 6.79818 5.21266
#
# Compressibility (1/GPa) = 0.01306000
#
# Stress axis : x y z
#
# Youngs Moduli (GPa) = -47.42012 -47.42012 372.53822
#
# Poissons Ratio (x) = 1.31561 0.27339
# Poissons Ratio (y) = 1.31561 0.27339
# Poissons Ratio (z) = -0.03480 -0.03480
#
# Static dielectric constant tensor:
#      x y z
#    x 2.092590 0.000000 0.000000 
#    y 0.000000 2.092590 0.000000 
#    z 0.000000 0.000000 2.161040 
# 
# From -- ./inp_files/6682.got.cif
#   From: 2010.05.17/outbox.cif.g08.bks.cpg/sg135_4_cif.got.tgz:6682.got - 2010.05.20 12:50:20.
