data_PCOD9568247
_publ_section_title
;
Structure prediction by ZEFSAII (Michael W. Deem and Ramdas Pophale) SiO2 
 PCOD9568247
Probable space group: P 42/N N M
;
_chemical_formula_sum "Si O2"
_cell_formula_units_Z 96
_cell_length_a 18.006454
_cell_length_b 18.006454
_cell_length_c 13.467407
_cell_angle_alpha 90.000000
_cell_angle_beta 90.000000
_cell_angle_gamma 90.000000
_cell_volume 4366.569500
_symmetry_space_group_name_H-M "P 42/N N M"
_symmetry_group_IT_number 134
_space_group.IT_coordinate_system_code '2'
_symmetry_cell_setting 'tetragonal'
loop_
_space_group_symop_operation_xyz
x,y,z
1/2-y,x,1/2+z
1/2-x,1/2-y,z
y,1/2-x,1/2+z
x,1/2-y,1/2-z
1/2-x,y,1/2-z
y,x,-z
1/2-y,1/2-x,-z
-x,-y,-z
1/2+y,-x,1/2-z
1/2+x,1/2+y,-z
-y,1/2+x,1/2-z
-x,1/2+y,1/2+z
1/2+x,-y,1/2+z
-y,-x,z
1/2+y,1/2+x,z
loop_
_atom_site_type_symbol
_atom_site_label
_atom_site_fract_x
_atom_site_fract_y
_atom_site_fract_z
Si Si1 0.911175 0.970196 0.618821
Si Si2 0.532151 0.744274 0.357107
Si Si3 0.478772 0.312310 0.362291
Si Si4 0.185990 0.194214 0.380932
Si Si5 0.844887 0.032059 0.140418
Si Si6 0.912479 0.531666 0.637956
O O1 0.828205 0.995108 0.585391
O O2 0.950805 0.891703 0.591564
O O3 0.909373 0.967516 0.740874
O O4 0.965505 0.034496 0.589914
O O5 0.493388 0.750000 0.250000
O O6 0.615146 0.711738 0.340716
O O7 0.535132 0.827403 0.397689
O O8 0.394970 0.280222 0.348436
O O9 0.524016 0.239511 0.400110
O O10 0.519158 0.335064 0.259610
O O11 0.250000 0.250000 0.355179
O O12 0.185943 0.185943 0.500000
O O13 0.892460 0.107541 0.122879
O O14 0.898661 0.963822 0.107954
O O15 0.957233 0.457233 0.608984
#
# Coordination Sequence:
#
# PCOD9568247 Si02
#       6
#    16  16  16  16  16  16
#     4   8  14  24  39  60  86 113 142 185 233 267
#     4   9  16  26  44  65  83 112 155 188 219 278
#     4   9  16  27  44  61  84 121 152 180 229 291
#     4  10  20  30  41  63  97 126 148 187 239 287
#     4   9  16  26  43  67  90 113 148 196 237 271
#     4   8  13  22  37  60  87 110 137 179 225 263
#
# _framework density 21.985223999999999
#
# number of rings (size 3 to 8) (size 9 to 14) (size 15 to 20)
#    0.000    3.167    0.000    3.500    0.000    3.000 
#    0.000    0.000    0.000   22.500    0.000    8.167 
#    0.000    0.000    0.000   24.000    0.000   15.500 
#
# Total GULP energy -534632.403936 kJ/mol
# GULP energy per Si atom -5569.087541 kJ/mol
# Density = 2.193518 g / cm^3
# Si number density = 21.985224 Si / 1000 Ang^3
#
#
#
# Elastic Constant Matrix: (Units=GPa)
#
#
# Indices 1 2 3 4 5 6 
#
# 1 149.1983 82.6875 17.7578 0.0000 0.0000 0.0000
# 2 82.6875 149.1983 17.7578 0.0000 0.0000 0.0000
# 3 17.7578 17.7578 76.8927 0.0000 0.0000 0.0000
# 4 0.0000 0.0000 0.0000 17.6722 0.0000 0.0000
# 5 0.0000 0.0000 0.0000 0.0000 17.6722 0.0000
# 6 0.0000 0.0000 0.0000 0.0000 0.0000 40.6900
#
#
#
# Elastic Compliance Matrix: (Units=1/GPa)
#
#
# Indices 1 2 3 4 5 6 
#
# 1 0.009753 -0.005282 -0.001032 0.000000 0.000000 0.000000
# 2 -0.005282 0.009753 -0.001032 0.000000 0.000000 0.000000
# 3 -0.001032 -0.001032 0.013482 0.000000 0.000000 0.000000
# 4 0.000000 0.000000 0.000000 0.056586 0.000000 0.000000
# 5 0.000000 0.000000 0.000000 0.000000 0.056586 0.000000
# 6 0.000000 0.000000 0.000000 0.000000 0.000000 0.024576
#
#
# Mechanical properties :
#
#
# Convention : Reuss Voigt Hill
#
# Bulk Modulus (GPa) = 54.66452 67.96617 61.31534
# Shear Modulus (GPa) = 26.10582 32.34595 29.22589
#
# Velocity S-wave (km/s) = 3.44964 3.83986 3.64997
# Velocity P-wave (km/s) = 6.38631 7.11625 6.76113
#
# Compressibility (1/GPa) = 0.01829340
#
# Stress axis : x y z
#
# Youngs Moduli (GPa) = 102.53390 102.53390 74.17288
#
# Poissons Ratio (x) = 0.54161 0.07658
# Poissons Ratio (y) = 0.54161 0.07658
# Poissons Ratio (z) = 0.10586 0.10586
#
# Static dielectric constant tensor:
#      x y z
#    x 1.840890 0.000000 0.000000 
#    y 0.000000 1.840890 0.000000 
#    z 0.000000 0.000000 0.876770 
# 
# From -- ./inp_files/9292.got.cif
#   From: 2010.05.17/outbox.cif.g08.bks.cpg/sg134_5_cif.got.tgz:9292.got - 2010.05.20 12:42:49.
