data_PCOD9568336
_publ_section_title
;
Structure prediction by ZEFSAII (Michael W. Deem and Ramdas Pophale) SiO2 
 PCOD9568336
Probable space group: P 42/N N M
;
_chemical_formula_sum "Si O2"
_cell_formula_units_Z 96
_cell_length_a 20.302059
_cell_length_b 20.302059
_cell_length_c 11.519416
_cell_angle_alpha 90.000000
_cell_angle_beta 90.000000
_cell_angle_gamma 90.000000
_cell_volume 4747.999158
_symmetry_space_group_name_H-M "P 42/N N M"
_symmetry_group_IT_number 134
_space_group.IT_coordinate_system_code '2'
_symmetry_cell_setting 'tetragonal'
loop_
_space_group_symop_operation_xyz
x,y,z
1/2-y,x,1/2+z
1/2-x,1/2-y,z
y,1/2-x,1/2+z
x,1/2-y,1/2-z
1/2-x,y,1/2-z
y,x,-z
1/2-y,1/2-x,-z
-x,-y,-z
1/2+y,-x,1/2-z
1/2+x,1/2+y,-z
-y,1/2+x,1/2-z
-x,1/2+y,1/2+z
1/2+x,-y,1/2+z
-y,-x,z
1/2+y,1/2+x,z
loop_
_atom_site_type_symbol
_atom_site_label
_atom_site_fract_x
_atom_site_fract_y
_atom_site_fract_z
Si Si1 0.666517 0.058296 0.928092
Si Si2 0.117980 0.250000 0.750000
Si Si3 0.991194 0.753269 0.880783
Si Si4 0.750000 0.358432 0.750000
Si Si5 0.876871 0.837147 0.628902
Si Si6 0.059416 0.155962 0.943142
Si Si7 0.573600 0.532926 0.728531
O O1 0.612353 0.112353 0.961050
O O2 0.721061 0.095290 0.850163
O O3 0.628174 0.004131 0.850988
O O4 0.700280 0.026683 0.038571
O O5 0.160463 0.309160 0.801536
O O6 0.075659 0.216663 0.854593
O O7 0.016869 0.750000 0.750000
O O8 0.914696 0.731051 0.875137
O O9 0.988477 0.820316 0.954276
O O10 0.809881 0.309881 0.712919
O O11 0.861410 0.861410 0.500000
O O12 0.924321 0.891309 0.689503
O O13 0.029582 0.100087 0.859663
O O14 0.125011 0.125011 0.000000
O O15 0.505587 0.494414 0.713356
#
# Coordination Sequence:
#
# PCOD9568336 Si02
#       7
#    16   8  16   8  16  16  16
#     4  10  20  36  60  89 116 151 198 240 294 360
#     4  10  20  39  61  79 111 144 195 247 288 344
#     4  12  23  39  58  82 121 159 197 246 301 358
#     4   9  18  35  62  93 119 146 192 252 298 344
#     4  11  20  38  61  86 111 153 196 244 303 349
#     4  11  22  39  59  84 114 154 196 238 298 357
#     4  10  21  37  61  89 117 149 193 246 296 353
#
# _framework density 20.219044
#
# number of rings (size 3 to 8) (size 9 to 14) (size 15 to 20)
#    0.000    1.417    3.333    4.000    0.000    2.000 
#    0.000    6.250    0.000    0.000    0.000    0.000 
#    0.000    0.000    0.000    0.000    0.000    0.000 
#
# Total GULP energy -536435.364604 kJ/mol
# GULP energy per Si atom -5587.868381 kJ/mol
# Density = 2.017302 g / cm^3
# Si number density = 20.219044 Si / 1000 Ang^3
#
#
#
# Elastic Constant Matrix: (Units=GPa)
#
#
# Indices 1 2 3 4 5 6 
#
# 1 36.1753 13.3704 15.5645 0.0000 0.0000 0.0000
# 2 13.3704 36.1753 15.5645 0.0000 0.0000 0.0000
# 3 15.5645 15.5645 116.8279 0.0000 0.0000 0.0000
# 4 0.0000 0.0000 0.0000 26.5388 0.0000 0.0000
# 5 0.0000 0.0000 0.0000 0.0000 26.5388 0.0000
# 6 0.0000 0.0000 0.0000 0.0000 0.0000 13.4129
#
#
#
# Elastic Compliance Matrix: (Units=1/GPa)
#
#
# Indices 1 2 3 4 5 6 
#
# 1 0.032939 -0.010912 -0.002935 0.000000 0.000000 0.000000
# 2 -0.010912 0.032939 -0.002935 0.000000 0.000000 0.000000
# 3 -0.002935 -0.002935 0.009342 0.000000 0.000000 0.000000
# 4 0.000000 0.000000 0.000000 0.037681 0.000000 0.000000
# 5 0.000000 0.000000 0.000000 0.000000 0.037681 0.000000
# 6 0.000000 0.000000 0.000000 0.000000 0.000000 0.074555
#
#
# Mechanical properties :
#
#
# Convention : Reuss Voigt Hill
#
# Bulk Modulus (GPa) = 24.00532 30.90862 27.45697
# Shear Modulus (GPa) = 18.34303 22.94334 20.64319
#
# Velocity S-wave (km/s) = 3.01527 3.37224 3.19874
# Velocity P-wave (km/s) = 4.90111 5.52112 5.22033
#
# Compressibility (1/GPa) = 0.04165744
#
# Stress axis : x y z
#
# Youngs Moduli (GPa) = 30.35941 30.35941 107.04882
#
# Poissons Ratio (x) = 0.33127 0.31414
# Poissons Ratio (y) = 0.33127 0.31414
# Poissons Ratio (z) = 0.08909 0.08909
#
# Static dielectric constant tensor:
#      x y z
#    x 1.712100 0.000000 0.000000 
#    y 0.000000 1.712100 0.000000 
#    z 0.000000 0.000000 1.750800 
# 
# From -- ./inp_files/5097.got.cif
#   From: 2010.05.17/outbox.cif.g08.bks.cpg/sg134_3_cif.got.tgz:5097.got - 2010.05.20 12:42:49.
