data_PCOD9568496
_publ_section_title
;
Structure prediction by ZEFSAII (Michael W. Deem and Ramdas Pophale) SiO2 
 PCOD9568496
Probable space group: P 42/N N M
;
_chemical_formula_sum "Si O2"
_cell_formula_units_Z 56
_cell_length_a 13.706917
_cell_length_b 13.706917
_cell_length_c 13.918816
_cell_angle_alpha 90.000000
_cell_angle_beta 90.000000
_cell_angle_gamma 90.000000
_cell_volume 2615.061216
_symmetry_space_group_name_H-M "P 42/N N M"
_symmetry_group_IT_number 134
_space_group.IT_coordinate_system_code '2'
_symmetry_cell_setting 'tetragonal'
loop_
_space_group_symop_operation_xyz
x,y,z
1/2-y,x,1/2+z
1/2-x,1/2-y,z
y,1/2-x,1/2+z
x,1/2-y,1/2-z
1/2-x,y,1/2-z
y,x,-z
1/2-y,1/2-x,-z
-x,-y,-z
1/2+y,-x,1/2-z
1/2+x,1/2+y,-z
-y,1/2+x,1/2-z
-x,1/2+y,1/2+z
1/2+x,-y,1/2+z
-y,-x,z
1/2+y,1/2+x,z
loop_
_atom_site_type_symbol
_atom_site_label
_atom_site_fract_x
_atom_site_fract_y
_atom_site_fract_z
Si Si1 0.696171 0.614872 0.347529
Si Si2 0.483031 0.237774 0.637183
Si Si3 0.458030 0.958030 0.857329
Si Si4 0.628688 0.871313 0.500000
Si Si5 0.606772 0.106772 0.932291
O O1 0.750000 0.644035 0.250000
O O2 0.612673 0.692564 0.375322
O O3 0.638939 0.513887 0.322684
O O4 0.773638 0.613773 0.434450
O O5 0.502197 0.250000 0.750000
O O6 0.452808 0.138462 0.583690
O O7 0.575403 0.283709 0.584266
O O8 0.541482 0.041482 0.858868
O O9 0.428736 0.928736 0.964977
#
# Coordination Sequence:
#
# PCOD9568496 Si02
#       5
#    16  16   8   8   8
#     4  11  20  31  51  79 112 143 180 223 277 324
#     4  11  20  31  51  79 112 143 180 223 277 324
#     4   9  18  32  48  71 110 151 177 216 274 337
#     4  12  21  30  50  85 116 137 176 241 276 311
#     4   9  18  32  48  71 110 151 177 216 274 337
#
# _framework density 21.414414000000001
#
# number of rings (size 3 to 8) (size 9 to 14) (size 15 to 20)
#    0.000    1.429    5.714    2.571    0.000    0.000 
#    0.000    0.000    0.000    4.286    0.000    2.000 
#    0.000    0.000    0.000    0.000    0.000    0.000 
#
# Total GULP energy -311861.614860 kJ/mol
# GULP energy per Si atom -5568.957408 kJ/mol
# Density = 2.136567 g / cm^3
# Si number density = 21.414414 Si / 1000 Ang^3
#
#
#
# Elastic Constant Matrix: (Units=GPa)
#
#
# Indices 1 2 3 4 5 6 
#
# 1 47.3652 48.8275 12.2464 0.0000 0.0000 0.0000
# 2 48.8275 47.3650 12.2463 0.0000 0.0000 0.0000
# 3 12.2464 12.2463 96.1587 0.0000 0.0000 0.0000
# 4 0.0000 0.0000 0.0000 4.7542 0.0000 0.0000
# 5 0.0000 0.0000 0.0000 0.0000 4.7544 0.0000
# 6 0.0000 0.0000 0.0000 0.0000 0.0000 20.5517
#
#
#
# Elastic Compliance Matrix: (Units=1/GPa)
#
#
# Indices 1 2 3 4 5 6 
#
# 1 -0.336514 0.347259 -0.001368 0.000000 0.000000 0.000000
# 2 0.347259 -0.336516 -0.001368 0.000000 0.000000 0.000000
# 3 -0.001368 -0.001368 0.010748 0.000000 0.000000 0.000000
# 4 0.000000 0.000000 0.000000 0.210338 0.000000 0.000000
# 5 0.000000 0.000000 0.000000 0.000000 0.210330 0.000000
# 6 0.000000 0.000000 0.000000 0.000000 0.000000 0.048658
#
#
# Mechanical properties :
#
#
# Convention : Reuss Voigt Hill
#
# Bulk Modulus (GPa) = 37.36488 37.50325 37.43406
# Shear Modulus (GPa) = -5.72685 13.84998 4.06157
#
# Velocity S-wave (km/s) = -1.63710 2.54591 1.37868
# Velocity P-wave (km/s) = 3.73000 5.11794 4.47807
#
# Compressibility (1/GPa) = 0.02676310
#
# Stress axis : x y z
#
# Youngs Moduli (GPa) = -2.97164 -2.97163 93.04050
#
# Poissons Ratio (x) = 1.03193 0.12731
# Poissons Ratio (y) = 1.03193 0.12731
# Poissons Ratio (z) = -0.00407 -0.00407
#
# Static dielectric constant tensor:
#      x y z
#    x 1.833360 0.000000 0.000000 
#    y 0.000000 1.833360 0.000000 
#    z 0.000000 0.000000 1.820930 
# 
# From -- ./inp_files/6043.got.cif
#   From: 2010.05.17/outbox.cif.g08.bks.cpg/sg134_4_cif.got.tgz:6043.got - 2010.05.20 12:42:49.
