data_PCOD9568977
_publ_section_title
;
Structure prediction by ZEFSAII (Michael W. Deem and Ramdas Pophale) SiO2 
 PCOD9568977
Probable space group: P 42/M B C
;
_chemical_formula_sum "Si O2"
_cell_formula_units_Z 56
_cell_length_a 10.240874
_cell_length_b 10.240874
_cell_length_c 20.426419
_cell_angle_alpha 90.000000
_cell_angle_beta 90.000000
_cell_angle_gamma 90.000000
_cell_volume 2142.230912
_symmetry_space_group_name_H-M "P 42/M B C"
_symmetry_group_IT_number 135
_symmetry_cell_setting 'tetragonal'
loop_
_space_group_symop_operation_xyz
x,y,z
-y,x,1/2+z
-x,-y,z
y,-x,1/2+z
1/2+x,1/2-y,-z
1/2-x,1/2+y,-z
1/2+y,1/2+x,1/2-z
1/2-y,1/2-x,1/2-z
-x,-y,-z
y,-x,1/2-z
x,y,-z
-y,x,1/2-z
1/2-x,1/2+y,z
1/2+x,1/2-y,z
1/2-y,1/2-x,1/2+z
1/2+y,1/2+x,1/2+z
loop_
_atom_site_type_symbol
_atom_site_label
_atom_site_fract_x
_atom_site_fract_y
_atom_site_fract_z
Si Si1 0.554225 0.706556 0.500000
Si Si2 0.299430 0.061104 0.638191
Si Si3 0.500000 0.500000 0.750000
Si Si4 0.000000 0.500000 0.750000
Si Si5 0.412578 0.347942 0.358842
Si Si6 0.925321 0.658369 0.000000
O O1 0.514155 0.653960 0.428447
O O2 0.470274 0.838368 0.500000
O O3 0.711010 0.669750 0.500000
O O4 0.322966 0.217295 0.641068
O O5 0.382743 0.005316 0.698388
O O6 0.166121 0.982536 0.644009
O O7 0.339437 0.011318 0.565737
O O8 0.634577 0.493366 0.792592
#
# Coordination Sequence:
#
# PCOD9568977 Si02
#       6
#     8  16   4   4  16   8
#     4  10  23  46  79 112 151 195 253 317 386 458
#     4  11  25  45  73 107 148 196 255 315 388 465
#     4  12  28  46  72 108 160 206 260 324 392 462
#     4  12  24  38  68 104 144 198 252 308 376 462
#     4  11  26  48  74 109 150 199 253 320 388 466
#     4  10  23  47  79 116 155 203 261 328 394 472
#
# _framework density 26.140975000000001
#
# number of rings (size 3 to 8) (size 9 to 14) (size 15 to 20)
#    0.000    1.143    0.000    4.286    0.000   12.571 
#    0.000    5.714    0.000    0.000    0.000    0.000 
#    0.000    0.000    0.000    0.000    0.000    0.000 
#
# Total GULP energy -312518.849934 kJ/mol
# GULP energy per Si atom -5580.693749 kJ/mol
# Density = 2.608148 g / cm^3
# Si number density = 26.140975 Si / 1000 Ang^3
#
#
#
# Elastic Constant Matrix: (Units=GPa)
#
#
# Indices 1 2 3 4 5 6 
#
# 1 98.6590 70.9962 40.6818 0.0000 0.0000 0.0000
# 2 70.9962 98.6590 40.6818 0.0000 0.0000 0.0000
# 3 40.6818 40.6818 223.0917 0.0000 0.0000 0.0000
# 4 0.0000 0.0000 0.0000 48.6233 0.0000 0.0000
# 5 0.0000 0.0000 0.0000 0.0000 48.6233 0.0000
# 6 0.0000 0.0000 0.0000 0.0000 0.0000 36.0767
#
#
#
# Elastic Compliance Matrix: (Units=1/GPa)
#
#
# Indices 1 2 3 4 5 6 
#
# 1 0.021304 -0.014845 -0.001178 0.000000 0.000000 0.000000
# 2 -0.014845 0.021304 -0.001178 0.000000 0.000000 0.000000
# 3 -0.001178 -0.001178 0.004912 0.000000 0.000000 0.000000
# 4 0.000000 0.000000 0.000000 0.020566 0.000000 0.000000
# 5 0.000000 0.000000 0.000000 0.000000 0.020566 0.000000
# 6 0.000000 0.000000 0.000000 0.000000 0.000000 0.027719
#
#
# Mechanical properties :
#
#
# Convention : Reuss Voigt Hill
#
# Bulk Modulus (GPa) = 76.22552 80.56993 78.39772
# Shear Modulus (GPa) = 32.22750 44.53463 38.38107
#
# Velocity S-wave (km/s) = 3.51498 4.13199 3.83591
# Velocity P-wave (km/s) = 6.75990 7.32480 7.04801
#
# Compressibility (1/GPa) = 0.01311897
#
# Stress axis : x y z
#
# Youngs Moduli (GPa) = 46.93866 46.93866 203.58143
#
# Poissons Ratio (x) = 0.69681 0.23979
# Poissons Ratio (y) = 0.69681 0.23979
# Poissons Ratio (z) = 0.05529 0.05529
#
# Static dielectric constant tensor:
#      x y z
#    x 2.148030 0.000000 0.000000 
#    y 0.000000 2.148030 0.000000 
#    z 0.000000 0.000000 2.439410 
# 
# From -- ./inp_files/5859.got.cif
#   From: 2010.05.17/outbox.cif.g08.bks.cpg/sg135_3_cif.got.tgz:5859.got - 2010.05.20 12:50:20.
