data_PCOD9568711
_publ_section_title
;
Structure prediction by ZEFSAII (Michael W. Deem and Ramdas Pophale) SiO2 
 PCOD9568711
Probable space group: P 42/M B C
;
_chemical_formula_sum "Si O2"
_cell_formula_units_Z 88
_cell_length_a 14.566240
_cell_length_b 14.566240
_cell_length_c 20.658271
_cell_angle_alpha 90.000000
_cell_angle_beta 90.000000
_cell_angle_gamma 90.000000
_cell_volume 4383.175833
_symmetry_space_group_name_H-M "P 42/M B C"
_symmetry_group_IT_number 135
_symmetry_cell_setting 'tetragonal'
loop_
_space_group_symop_operation_xyz
x,y,z
-y,x,1/2+z
-x,-y,z
y,-x,1/2+z
1/2+x,1/2-y,-z
1/2-x,1/2+y,-z
1/2+y,1/2+x,1/2-z
1/2-y,1/2-x,1/2-z
-x,-y,-z
y,-x,1/2-z
x,y,-z
-y,x,1/2-z
1/2-x,1/2+y,z
1/2+x,1/2-y,z
1/2-y,1/2-x,1/2+z
1/2+y,1/2+x,1/2+z
loop_
_atom_site_type_symbol
_atom_site_label
_atom_site_fract_x
_atom_site_fract_y
_atom_site_fract_z
Si Si1 0.525792 0.184746 0.000000
Si Si2 0.723094 0.733438 0.107429
Si Si3 0.214832 0.584629 0.279198
Si Si4 0.116995 0.676037 0.500000
Si Si5 0.105770 0.061828 0.786674
Si Si6 0.905051 0.729813 0.500000
Si Si7 0.771742 0.069349 0.367016
O O1 0.435765 0.120261 0.000000
O O2 0.623796 0.132317 0.000000
O O3 0.525934 0.248116 0.063780
O O4 0.652885 0.745000 0.166032
O O5 0.707608 0.821555 0.060898
O O6 0.826492 0.739034 0.132739
O O7 0.720662 0.642138 0.062237
O O8 0.120923 0.620923 0.250000
O O9 0.288596 0.584222 0.221914
O O10 0.216269 0.486696 0.313043
O O11 0.015255 0.719573 0.500000
O O12 0.068610 0.121291 0.846072
O O13 0.046970 0.094779 0.723061
#
# Coordination Sequence:
#
# PCOD9568711 Si02
#       7
#     8  16  16   8  16   8  16
#     4  10  19  36  64  87 120 166 207 268 310 378
#     4  10  21  38  59  88 118 158 207 252 317 366
#     4  11  20  36  61  84 116 163 205 255 314 370
#     4  11  20  39  62  86 121 168 212 249 329 374
#     4   9  19  34  56  84 118 161 205 244 310 378
#     4   9  22  37  58  90 125 158 206 263 311 379
#     4  10  20  37  58  87 121 155 207 255 305 376
#
# _framework density 20.076767
#
# number of rings (size 3 to 8) (size 9 to 14) (size 15 to 20)
#    0.000    2.000    3.636    0.818    0.000    1.455 
#    0.000    0.000    0.000    9.818    0.000    0.000 
#    0.000    0.000    0.000    0.000    0.000    0.000 
#
# Total GULP energy -490357.693112 kJ/mol
# GULP energy per Si atom -5572.246513 kJ/mol
# Density = 2.003107 g / cm^3
# Si number density = 20.076767 Si / 1000 Ang^3
#
#
#
# Elastic Constant Matrix: (Units=GPa)
#
#
# Indices 1 2 3 4 5 6 
#
# 1 64.1768 -8.1776 6.0231 0.0000 0.0000 0.0000
# 2 -8.1776 64.1768 6.0231 0.0000 0.0000 0.0000
# 3 6.0231 6.0231 45.8212 0.0000 0.0000 0.0000
# 4 0.0000 0.0000 0.0000 18.3094 0.0000 0.0000
# 5 0.0000 0.0000 0.0000 0.0000 18.3094 0.0000
# 6 0.0000 0.0000 0.0000 0.0000 0.0000 23.5801
#
#
#
# Elastic Compliance Matrix: (Units=1/GPa)
#
#
# Indices 1 2 3 4 5 6 
#
# 1 0.016099 0.002278 -0.002416 0.000000 0.000000 0.000000
# 2 0.002278 0.016099 -0.002416 0.000000 0.000000 0.000000
# 3 -0.002416 -0.002416 0.022459 0.000000 0.000000 0.000000
# 4 0.000000 0.000000 0.000000 0.054617 0.000000 0.000000
# 5 0.000000 0.000000 0.000000 0.000000 0.054617 0.000000
# 6 0.000000 0.000000 0.000000 0.000000 0.000000 0.042409
#
#
# Mechanical properties :
#
#
# Convention : Reuss Voigt Hill
#
# Bulk Modulus (GPa) = 20.18141 20.21246 20.19694
# Shear Modulus (GPa) = 21.93728 23.39350 22.66539
#
# Velocity S-wave (km/s) = 3.30914 3.41721 3.36361
# Velocity P-wave (km/s) = 4.96734 5.06549 5.01666
#
# Compressibility (1/GPa) = 0.04955055
#
# Stress axis : x y z
#
# Youngs Moduli (GPa) = 62.11589 62.11589 44.52551
#
# Poissons Ratio (x) = -0.14150 0.10756
# Poissons Ratio (y) = -0.14150 0.10756
# Poissons Ratio (z) = 0.15005 0.15005
#
# Static dielectric constant tensor:
#      x y z
#    x 1.742610 0.000000 0.000000 
#    y 0.000000 1.742610 0.000000 
#    z 0.000000 0.000000 1.714500 
# 
# From -- ./inp_files/5377.got.cif
#   From: 2010.05.17/outbox.cif.g08.bks.cpg/sg135_3_cif.got.tgz:5377.got - 2010.05.20 12:50:20.
