data_PCOD9568147
_publ_section_title
;
Structure prediction by ZEFSAII (Michael W. Deem and Ramdas Pophale) SiO2 
 PCOD9568147
Probable space group: P 42/N N M
;
_chemical_formula_sum "Si O2"
_cell_formula_units_Z 88
_cell_length_a 11.926536
_cell_length_b 11.926536
_cell_length_c 33.660849
_cell_angle_alpha 90.000000
_cell_angle_beta 90.000000
_cell_angle_gamma 90.000000
_cell_volume 4787.995268
_symmetry_space_group_name_H-M "P 42/N N M"
_symmetry_group_IT_number 134
_space_group.IT_coordinate_system_code '2'
_symmetry_cell_setting 'tetragonal'
loop_
_space_group_symop_operation_xyz
x,y,z
1/2-y,x,1/2+z
1/2-x,1/2-y,z
y,1/2-x,1/2+z
x,1/2-y,1/2-z
1/2-x,y,1/2-z
y,x,-z
1/2-y,1/2-x,-z
-x,-y,-z
1/2+y,-x,1/2-z
1/2+x,1/2+y,-z
-y,1/2+x,1/2-z
-x,1/2+y,1/2+z
1/2+x,-y,1/2+z
-y,-x,z
1/2+y,1/2+x,z
loop_
_atom_site_type_symbol
_atom_site_label
_atom_site_fract_x
_atom_site_fract_y
_atom_site_fract_z
Si Si1 0.242619 0.036539 0.647664
Si Si2 0.059704 0.117935 0.798494
Si Si3 0.250000 0.250000 0.408739
Si Si4 0.838534 0.338534 0.092909
Si Si5 0.414810 0.241011 0.520447
Si Si6 0.443489 0.379799 0.705353
Si Si7 0.094374 0.594374 0.994137
O O1 0.354182 0.051027 0.673858
O O2 0.238980 0.141122 0.617946
O O3 0.140840 0.050746 0.678333
O O4 0.224375 0.927907 0.620813
O O5 0.089915 0.109287 0.751707
O O6 0.061361 0.250126 0.807101
O O7 0.938363 0.061638 0.803256
O O8 0.237769 0.362576 0.435513
O O9 0.750000 0.250000 0.077057
O O10 0.891556 0.391556 0.053297
O O11 0.333620 0.333620 0.500000
O O12 0.376917 0.123084 0.500000
O O13 0.538977 0.291808 0.513008
O O14 0.566383 0.433618 0.701528
O O15 0.000000 0.500000 0.000000
#
# Coordination Sequence:
#
# PCOD9568147 Si02
#       7
#    16  16   8   8  16  16   8
#     4  12  20  36  56  85 121 159 199 244 296 360
#     4  10  21  36  57  81 117 158 199 257 306 349
#     4  10  19  30  59  90 112 144 196 260 285 342
#     4  12  26  38  58  92 130 156 190 246 310 360
#     4   8  15  29  48  79 107 131 183 234 281 336
#     4  10  20  37  58  83 111 156 212 249 293 364
#     4  10  18  36  60  82 106 156 198 240 282 356
#
# _framework density 18.379299
#
# number of rings (size 3 to 8) (size 9 to 14) (size 15 to 20)
#    0.000    2.000    2.727    4.364    0.000    1.818 
#    0.000    1.818    0.000    6.000    0.000    0.000 
#    0.000    0.000    0.000    0.000    0.000    0.000 
#
# Total GULP energy -490236.842988 kJ/mol
# GULP energy per Si atom -5570.873216 kJ/mol
# Density = 1.833747 g / cm^3
# Si number density = 18.379299 Si / 1000 Ang^3
#
#
#
# Elastic Constant Matrix: (Units=GPa)
#
#
# Indices 1 2 3 4 5 6 
#
# 1 64.7719 40.1579 28.8111 0.0000 0.0000 0.0000
# 2 40.1579 64.7724 28.8111 0.0000 0.0000 0.0000
# 3 28.8111 28.8111 70.3641 0.0000 0.0000 0.0000
# 4 0.0000 0.0000 0.0000 -4.5441 0.0000 0.0000
# 5 0.0000 0.0000 0.0000 0.0000 -4.5464 0.0000
# 6 0.0000 0.0000 0.0000 0.0000 0.0000 37.2723
#
#
#
# Elastic Compliance Matrix: (Units=1/GPa)
#
#
# Indices 1 2 3 4 5 6 
#
# 1 0.026461 -0.014166 -0.005034 0.000000 0.000000 0.000000
# 2 -0.014166 0.026461 -0.005034 0.000000 0.000000 0.000000
# 3 -0.005034 -0.005034 0.018334 0.000000 0.000000 0.000000
# 4 0.000000 0.000000 0.000000 -0.220066 0.000000 0.000000
# 5 0.000000 0.000000 0.000000 0.000000 -0.219952 0.000000
# 6 0.000000 0.000000 0.000000 0.000000 0.000000 0.026830
#
#
# Mechanical properties :
#
#
# Convention : Reuss Voigt Hill
#
# Bulk Modulus (GPa) = 43.88450 43.94093 43.91271
# Shear Modulus (GPa) = -17.49058 12.44491 -2.52283
#
# Velocity S-wave (km/s) = -3.08822 2.60497 -1.17287
# Velocity P-wave (km/s) = 3.34855 5.74522 4.70215
#
# Compressibility (1/GPa) = 0.02278709
#
# Stress axis : x y z
#
# Youngs Moduli (GPa) = 37.79164 37.79198 54.54254
#
# Poissons Ratio (x) = 0.53537 0.27458
# Poissons Ratio (y) = 0.53536 0.27457
# Poissons Ratio (z) = 0.19025 0.19025
#
# Static dielectric constant tensor:
#      x y z
#    x 1.621140 0.000000 0.000000 
#    y 0.000000 1.621130 0.000000 
#    z 0.000000 0.000000 1.638040 
# 
# From -- ./inp_files/11511.got.cif
#   From: 2010.05.17/outbox.cif.g08.bks.cpg/sg134_6_cif.got.tgz:11511.got - 2010.05.20 12:42:49.
