data_PCOD9568492
_publ_section_title
;
Structure prediction by ZEFSAII (Michael W. Deem and Ramdas Pophale) SiO2 
 PCOD9568492
Probable space group: P 42/N N M
;
_chemical_formula_sum "Si O2"
_cell_formula_units_Z 64
_cell_length_a 21.912481
_cell_length_b 21.912481
_cell_length_c 6.643490
_cell_angle_alpha 90.000000
_cell_angle_beta 90.000000
_cell_angle_gamma 90.000000
_cell_volume 3189.917056
_symmetry_space_group_name_H-M "P 42/N N M"
_symmetry_group_IT_number 134
_space_group.IT_coordinate_system_code '2'
_symmetry_cell_setting 'tetragonal'
loop_
_space_group_symop_operation_xyz
x,y,z
1/2-y,x,1/2+z
1/2-x,1/2-y,z
y,1/2-x,1/2+z
x,1/2-y,1/2-z
1/2-x,y,1/2-z
y,x,-z
1/2-y,1/2-x,-z
-x,-y,-z
1/2+y,-x,1/2-z
1/2+x,1/2+y,-z
-y,1/2+x,1/2-z
-x,1/2+y,1/2+z
1/2+x,-y,1/2+z
-y,-x,z
1/2+y,1/2+x,z
loop_
_atom_site_type_symbol
_atom_site_label
_atom_site_fract_x
_atom_site_fract_y
_atom_site_fract_z
Si Si1 0.191356 0.502480 0.132719
Si Si2 0.323499 0.919074 0.772054
Si Si3 0.970658 0.620488 0.522173
Si Si4 0.690206 0.889929 0.151352
O O1 0.250000 0.526646 0.250000
O O2 0.147460 0.474182 0.298641
O O3 0.163087 0.554383 0.994174
O O4 0.211317 0.448314 0.981650
O O5 0.250000 0.921232 0.750000
O O6 0.352980 0.852980 0.745056
O O7 0.358607 0.965969 0.623922
O O8 0.949359 0.550642 0.500000
O O9 0.919145 0.650178 0.668787
O O10 0.750000 0.860468 0.250000
O O11 0.653247 0.846754 0.000000
#
# Coordination Sequence:
#
# PCOD9568492 Si02
#       4
#    16  16  16  16
#     4  11  19  39  66  91 123 165 218 268 326 391
#     4  11  25  43  66  98 131 170 219 271 330 401
#     4  11  21  38  67  96 128 163 212 269 332 392
#     4  11  21  33  59  92 123 167 222 272 326 394
#
# _framework density 20.063217999999999
#
# number of rings (size 3 to 8) (size 9 to 14) (size 15 to 20)
#    0.000    1.000    7.500    1.500    0.000    1.750 
#    0.000    1.250    0.000   15.000    0.000    0.000 
#    0.000    0.000    0.000    0.000    0.000    0.000 
#
# Total GULP energy -357057.655728 kJ/mol
# GULP energy per Si atom -5579.025871 kJ/mol
# Density = 2.001755 g / cm^3
# Si number density = 20.063218 Si / 1000 Ang^3
#
#
#
# Elastic Constant Matrix: (Units=GPa)
#
#
# Indices 1 2 3 4 5 6 
#
# 1 75.6376 72.6279 32.4664 0.0000 0.0000 0.0000
# 2 72.6279 75.6396 32.4672 0.0000 0.0000 0.0000
# 3 32.4664 32.4672 119.0048 0.0000 0.0000 0.0000
# 4 0.0000 0.0000 0.0000 4.5801 0.0000 0.0000
# 5 0.0000 0.0000 0.0000 0.0000 4.5787 0.0000
# 6 0.0000 0.0000 0.0000 0.0000 0.0000 28.1908
#
#
#
# Elastic Compliance Matrix: (Units=1/GPa)
#
#
# Indices 1 2 3 4 5 6 
#
# 1 0.169905 -0.162244 -0.002089 0.000000 0.000000 0.000000
# 2 -0.162244 0.169901 -0.002090 0.000000 0.000000 0.000000
# 3 -0.002089 -0.002090 0.009543 0.000000 0.000000 0.000000
# 4 0.000000 0.000000 0.000000 0.218338 0.000000 0.000000
# 5 0.000000 0.000000 0.000000 0.000000 0.218402 0.000000
# 6 0.000000 0.000000 0.000000 0.000000 0.000000 0.035473
#
#
# Mechanical properties :
#
#
# Convention : Reuss Voigt Hill
#
# Bulk Modulus (GPa) = 60.59162 60.60053 60.59607
# Shear Modulus (GPa) = 4.31068 16.31794 10.31431
#
# Velocity S-wave (km/s) = 1.46738 2.85498 2.26982
# Velocity P-wave (km/s) = 5.75646 6.41391 6.09406
#
# Compressibility (1/GPa) = 0.01650393
#
# Stress axis : x y z
#
# Youngs Moduli (GPa) = 5.88563 5.88576 104.78587
#
# Poissons Ratio (x) = 0.95493 0.21891
# Poissons Ratio (y) = 0.95491 0.21904
# Poissons Ratio (z) = 0.01230 0.01230
#
# Static dielectric constant tensor:
#      x y z
#    x 1.735660 0.000000 0.000000 
#    y 0.000000 1.735660 0.000000 
#    z 0.000000 0.000000 1.735340 
# 
# From -- ./inp_files/931.got.cif
#   From: 2010.05.17/outbox.cif.g08.bks.cpg/sg134_1_cif.got.tgz:931.got - 2010.05.20 12:42:49.
