data_PCOD9568768
_publ_section_title
;
Structure prediction by ZEFSAII (Michael W. Deem and Ramdas Pophale) SiO2 
 PCOD9568768
Probable space group: P 42/M B C
;
_chemical_formula_sum "Si O2"
_cell_formula_units_Z 64
_cell_length_a 12.952895
_cell_length_b 12.952895
_cell_length_c 15.316415
_cell_angle_alpha 90.000000
_cell_angle_beta 90.000000
_cell_angle_gamma 90.000000
_cell_volume 2569.749647
_symmetry_space_group_name_H-M "P 42/M B C"
_symmetry_group_IT_number 135
_symmetry_cell_setting 'tetragonal'
loop_
_space_group_symop_operation_xyz
x,y,z
-y,x,1/2+z
-x,-y,z
y,-x,1/2+z
1/2+x,1/2-y,-z
1/2-x,1/2+y,-z
1/2+y,1/2+x,1/2-z
1/2-y,1/2-x,1/2-z
-x,-y,-z
y,-x,1/2-z
x,y,-z
-y,x,1/2-z
1/2-x,1/2+y,z
1/2+x,1/2-y,z
1/2-y,1/2-x,1/2+z
1/2+y,1/2+x,1/2+z
loop_
_atom_site_type_symbol
_atom_site_label
_atom_site_fract_x
_atom_site_fract_y
_atom_site_fract_z
Si Si1 0.511343 0.261277 0.596088
Si Si2 0.716799 0.119106 0.402898
Si Si3 0.355506 0.694286 0.735923
Si Si4 0.885804 0.315277 0.898819
O O1 0.500716 0.310341 0.500000
O O2 0.621021 0.198546 0.593055
O O3 0.538575 0.323223 0.684340
O O4 0.419869 0.179309 0.608920
O O5 0.761373 0.120356 0.500000
O O6 0.816444 0.131409 0.339579
O O7 0.667985 0.006888 0.387356
O O8 0.314835 0.814835 0.750000
O O9 0.265274 0.645732 0.676913
O O10 0.869831 0.277947 0.000000
#
# Coordination Sequence:
#
# PCOD9568768 Si02
#       4
#    16  16  16  16
#     4   9  18  34  56  87 122 154 192 249 312 366
#     4   9  19  36  57  85 123 160 197 252 313 370
#     4  10  21  33  54  85 121 158 198 245 297 368
#     4  10  20  35  60  89 119 158 204 249 310 376
#
# _framework density 24.905149999999999
#
# number of rings (size 3 to 8) (size 9 to 14) (size 15 to 20)
#    0.000    2.500    0.000    1.500    3.500    4.000 
#    0.000    3.750    0.000    0.750    0.000    3.500 
#    0.000    2.000    0.000    0.000    0.000    0.000 
#
# Total GULP energy -356364.292958 kJ/mol
# GULP energy per Si atom -5568.192077 kJ/mol
# Density = 2.484846 g / cm^3
# Si number density = 24.905150 Si / 1000 Ang^3
#
#
#
# Elastic Constant Matrix: (Units=GPa)
#
#
# Indices 1 2 3 4 5 6 
#
# 1 50.5075 -3.5411 -4.0496 0.0000 0.0000 0.0000
# 2 -3.5411 50.5075 -4.0496 0.0000 0.0000 0.0000
# 3 -4.0496 -4.0496 121.1637 0.0000 0.0000 0.0000
# 4 0.0000 0.0000 0.0000 26.1373 0.0000 0.0000
# 5 0.0000 0.0000 0.0000 0.0000 26.1373 0.0000
# 6 0.0000 0.0000 0.0000 0.0000 0.0000 10.6731
#
#
#
# Elastic Compliance Matrix: (Units=1/GPa)
#
#
# Indices 1 2 3 4 5 6 
#
# 1 0.019959 0.001457 0.000716 0.000000 0.000000 0.000000
# 2 0.001457 0.019959 0.000716 0.000000 0.000000 0.000000
# 3 0.000716 0.000716 0.008301 0.000000 0.000000 0.000000
# 4 0.000000 0.000000 0.000000 0.038260 0.000000 0.000000
# 5 0.000000 0.000000 0.000000 0.000000 0.038260 0.000000
# 6 0.000000 0.000000 0.000000 0.000000 0.000000 0.093693
#
#
# Mechanical properties :
#
#
# Convention : Reuss Voigt Hill
#
# Bulk Modulus (GPa) = 18.52035 22.09978 20.31007
# Shear Modulus (GPa) = 21.67765 28.17747 24.92756
#
# Velocity S-wave (km/s) = 2.95347 3.36727 3.16713
# Velocity P-wave (km/s) = 4.36843 4.90008 4.64187
#
# Compressibility (1/GPa) = 0.05399465
#
# Stress axis : x y z
#
# Youngs Moduli (GPa) = 50.10384 50.10384 120.46535
#
# Poissons Ratio (x) = -0.07299 -0.08622
# Poissons Ratio (y) = -0.07299 -0.08622
# Poissons Ratio (z) = -0.03586 -0.03586
#
# Static dielectric constant tensor:
#      x y z
#    x 2.044350 0.000000 0.000000 
#    y 0.000000 2.044350 0.000000 
#    z 0.000000 0.000000 7.668100 
# 
# From -- ./inp_files/3166.got.cif
#   From: 2010.05.17/outbox.cif.g08.bks.cpg/sg135_2_cif.got.tgz:3166.got - 2010.05.20 12:50:20.
