data_PCOD9568527
_publ_section_title
;
Structure prediction by ZEFSAII (Michael W. Deem and Ramdas Pophale) SiO2 
 PCOD9568527
Probable space group: P 42/N N M
;
_chemical_formula_sum "Si O2"
_cell_formula_units_Z 64
_cell_length_a 11.568681
_cell_length_b 11.568681
_cell_length_c 21.642849
_cell_angle_alpha 90.000000
_cell_angle_beta 90.000000
_cell_angle_gamma 90.000000
_cell_volume 2896.557279
_symmetry_space_group_name_H-M "P 42/N N M"
_symmetry_group_IT_number 134
_space_group.IT_coordinate_system_code '2'
_symmetry_cell_setting 'tetragonal'
loop_
_space_group_symop_operation_xyz
x,y,z
1/2-y,x,1/2+z
1/2-x,1/2-y,z
y,1/2-x,1/2+z
x,1/2-y,1/2-z
1/2-x,y,1/2-z
y,x,-z
1/2-y,1/2-x,-z
-x,-y,-z
1/2+y,-x,1/2-z
1/2+x,1/2+y,-z
-y,1/2+x,1/2-z
-x,1/2+y,1/2+z
1/2+x,-y,1/2+z
-y,-x,z
1/2+y,1/2+x,z
loop_
_atom_site_type_symbol
_atom_site_label
_atom_site_fract_x
_atom_site_fract_y
_atom_site_fract_z
Si Si1 0.178660 0.347077 0.814215
Si Si2 0.746345 0.442400 0.853802
Si Si3 0.747823 0.558510 0.511205
Si Si4 0.931809 0.241215 0.113759
O O1 0.250000 0.250000 0.851416
O O2 0.250000 0.360195 0.750000
O O3 0.201670 0.463467 0.849894
O O4 0.048471 0.298432 0.812812
O O5 0.624788 0.375213 0.838455
O O6 0.842819 0.342819 0.853145
O O7 0.741267 0.499164 0.922071
O O8 0.627084 0.627084 0.500000
O O9 0.848386 0.651615 0.500000
O O10 0.762082 0.464496 0.457841
O O11 0.885078 0.114923 0.134114
O O12 0.829437 0.329437 0.122920
#
# Coordination Sequence:
#
# PCOD9568527 Si02
#       4
#    16  16  16  16
#     4  11  25  45  68  94 128 175 233 291 353 419
#     4  11  24  43  70 103 139 184 236 291 356 428
#     4  11  22  37  64 102 145 185 227 277 342 419
#     4  11  24  41  65 100 138 178 224 276 341 417
#
# _framework density 22.095196999999999
#
# number of rings (size 3 to 8) (size 9 to 14) (size 15 to 20)
#    0.000    1.000    2.500    3.750    0.000   10.000 
#    0.000    8.750    0.000    6.000    0.000    0.000 
#    0.000    0.000    0.000    0.000    0.000    0.000 
#
# Total GULP energy -357196.304556 kJ/mol
# GULP energy per Si atom -5581.192259 kJ/mol
# Density = 2.204491 g / cm^3
# Si number density = 22.095197 Si / 1000 Ang^3
#
#
#
# Elastic Constant Matrix: (Units=GPa)
#
#
# Indices 1 2 3 4 5 6 
#
# 1 102.2222 119.5832 43.6305 0.0000 0.0000 0.0000
# 2 119.5832 102.2179 43.6303 0.0000 0.0000 0.0000
# 3 43.6305 43.6303 112.9610 0.0000 0.0000 0.0000
# 4 0.0000 0.0000 0.0000 38.0989 0.0000 0.0000
# 5 0.0000 0.0000 0.0000 0.0000 38.0968 0.0000
# 6 0.0000 0.0000 0.0000 0.0000 0.0000 42.3803
#
#
#
# Elastic Compliance Matrix: (Units=1/GPa)
#
#
# Indices 1 2 3 4 5 6 
#
# 1 -0.026138 0.031455 -0.002054 0.000000 0.000000 0.000000
# 2 0.031455 -0.026139 -0.002053 0.000000 0.000000 0.000000
# 3 -0.002054 -0.002053 0.010439 0.000000 0.000000 0.000000
# 4 0.000000 0.000000 0.000000 0.026247 0.000000 0.000000
# 5 0.000000 0.000000 0.000000 0.000000 0.026249 0.000000
# 6 0.000000 0.000000 0.000000 0.000000 0.000000 0.023596
#
#
# Mechanical properties :
#
#
# Convention : Reuss Voigt Hill
#
# Bulk Modulus (GPa) = 77.77311 81.23214 79.50263
# Shear Modulus (GPa) = -309.49078 31.08566 -139.20256
#
# Velocity S-wave (km/s) = -11.84802 3.75493 -7.94595
# Velocity P-wave (km/s) = 12.32445 7.45948 6.93715
#
# Compressibility (1/GPa) = 0.01285791
#
# Stress axis : x y z
#
# Youngs Moduli (GPa) = -38.25880 -38.25698 95.79613
#
# Poissons Ratio (x) = 1.20336 0.19673
# Poissons Ratio (y) = 1.20342 0.19669
# Poissons Ratio (z) = -0.07857 -0.07855
#
# Static dielectric constant tensor:
#      x y z
#    x 1.890640 0.000000 0.000000 
#    y 0.000000 1.890610 0.000000 
#    z 0.000000 0.000000 1.864210 
# 
# From -- ./inp_files/9784.got.cif
#   From: 2010.05.17/outbox.cif.g08.bks.cpg/sg134_5_cif.got.tgz:9784.got - 2010.05.20 12:42:49.
