data_PCOD9568629
_publ_section_title
;
Structure prediction by ZEFSAII (Michael W. Deem and Ramdas Pophale) SiO2 
 PCOD9568629
Probable space group: P 42/M B C
;
_chemical_formula_sum "Si O2"
_cell_formula_units_Z 56
_cell_length_a 13.008883
_cell_length_b 13.008883
_cell_length_c 13.345696
_cell_angle_alpha 90.000000
_cell_angle_beta 90.000000
_cell_angle_gamma 90.000000
_cell_volume 2258.505972
_symmetry_space_group_name_H-M "P 42/M B C"
_symmetry_group_IT_number 135
_symmetry_cell_setting 'tetragonal'
loop_
_space_group_symop_operation_xyz
x,y,z
-y,x,1/2+z
-x,-y,z
y,-x,1/2+z
1/2+x,1/2-y,-z
1/2-x,1/2+y,-z
1/2+y,1/2+x,1/2-z
1/2-y,1/2-x,1/2-z
-x,-y,-z
y,-x,1/2-z
x,y,-z
-y,x,1/2-z
1/2-x,1/2+y,z
1/2+x,1/2-y,z
1/2-y,1/2-x,1/2+z
1/2+y,1/2+x,1/2+z
loop_
_atom_site_type_symbol
_atom_site_label
_atom_site_fract_x
_atom_site_fract_y
_atom_site_fract_z
Si Si1 0.986373 0.346561 0.177409
Si Si2 0.847988 0.018610 0.793123
Si Si3 0.412391 0.349643 0.500000
Si Si4 0.628289 0.174207 0.000000
Si Si5 0.160783 0.720399 0.000000
O O1 0.925228 0.425228 0.250000
O O2 0.036994 0.265012 0.253059
O O3 0.075729 0.377001 0.097354
O O4 0.905353 0.292417 0.100688
O O5 0.867861 0.979630 0.903780
O O6 0.887950 0.921589 0.729438
O O7 0.298372 0.401458 0.500000
O O8 0.381744 0.230541 0.500000
O O9 0.753029 0.187724 0.000000
#
# Coordination Sequence:
#
# PCOD9568629 Si02
#       5
#    16  16   8   8   8
#     4  11  19  33  57  82 111 156 195 226 297 342
#     4  11  22  34  53  81 120 149 184 239 295 353
#     4  10  18  35  50  77 116 146 186 234 280 341
#     4   9  19  35  53  81 118 147 195 247 277 341
#     4   9  19  33  54  76 114 147 193 236 281 352
#
# _framework density 24.795152000000002
#
# number of rings (size 3 to 8) (size 9 to 14) (size 15 to 20)
#    0.857    0.857    5.714    0.000    0.000    4.571 
#    0.000    0.000    0.000    0.000    0.000    6.000 
#    0.000    0.000    0.000    0.000    0.000    0.000 
#
# Total GULP energy -312683.405372 kJ/mol
# GULP energy per Si atom -5583.632239 kJ/mol
# Density = 2.473872 g / cm^3
# Si number density = 24.795152 Si / 1000 Ang^3
#
#
#
# Elastic Constant Matrix: (Units=GPa)
#
#
# Indices 1 2 3 4 5 6 
#
# 1 69.7029 35.3064 60.1125 0.0000 0.0000 0.0000
# 2 35.3064 69.7029 60.1125 0.0000 0.0000 0.0000
# 3 60.1125 60.1125 186.9262 0.0000 0.0000 0.0000
# 4 0.0000 0.0000 0.0000 25.0838 0.0000 0.0000
# 5 0.0000 0.0000 0.0000 0.0000 25.0838 0.0000
# 6 0.0000 0.0000 0.0000 0.0000 0.0000 43.1101
#
#
#
# Elastic Compliance Matrix: (Units=1/GPa)
#
#
# Indices 1 2 3 4 5 6 
#
# 1 0.022073 -0.007000 -0.004847 0.000000 0.000000 0.000000
# 2 -0.007000 0.022073 -0.004847 0.000000 0.000000 0.000000
# 3 -0.004847 -0.004847 0.008467 0.000000 0.000000 0.000000
# 4 0.000000 0.000000 0.000000 0.039866 0.000000 0.000000
# 5 0.000000 0.000000 0.000000 0.000000 0.039866 0.000000
# 6 0.000000 0.000000 0.000000 0.000000 0.000000 0.023196
#
#
# Mechanical properties :
#
#
# Convention : Reuss Voigt Hill
#
# Bulk Modulus (GPa) = 52.01909 70.82162 61.42036
# Shear Modulus (GPa) = 25.59671 30.04227 27.81949
#
# Velocity S-wave (km/s) = 3.21647 3.48461 3.35322
# Velocity P-wave (km/s) = 5.90079 6.69438 6.31007
#
# Compressibility (1/GPa) = 0.01922371
#
# Stress axis : x y z
#
# Youngs Moduli (GPa) = 45.30521 45.30521 118.10350
#
# Poissons Ratio (x) = 0.31715 0.57245
# Poissons Ratio (y) = 0.31715 0.57245
# Poissons Ratio (z) = 0.21959 0.21959
#
# Static dielectric constant tensor:
#      x y z
#    x 1.944260 0.000000 0.000000 
#    y 0.000000 1.944260 0.000000 
#    z 0.000000 0.000000 1.809070 
# 
# From -- ./inp_files/2113.got.cif
#   From: 2010.05.17/outbox.cif.g08.bks.cpg/sg135_2_cif.got.tgz:2113.got - 2010.05.20 12:50:20.
