data_PCOD9568781
_publ_section_title
;
Structure prediction by ZEFSAII (Michael W. Deem and Ramdas Pophale) SiO2 
 PCOD9568781
Probable space group: P 42/M B C
;
_chemical_formula_sum "Si O2"
_cell_formula_units_Z 96
_cell_length_a 14.707825
_cell_length_b 14.707825
_cell_length_c 23.686933
_cell_angle_alpha 90.000000
_cell_angle_beta 90.000000
_cell_angle_gamma 90.000000
_cell_volume 5123.960100
_symmetry_space_group_name_H-M "P 42/M B C"
_symmetry_group_IT_number 135
_symmetry_cell_setting 'tetragonal'
loop_
_space_group_symop_operation_xyz
x,y,z
-y,x,1/2+z
-x,-y,z
y,-x,1/2+z
1/2+x,1/2-y,-z
1/2-x,1/2+y,-z
1/2+y,1/2+x,1/2-z
1/2-y,1/2-x,1/2-z
-x,-y,-z
y,-x,1/2-z
x,y,-z
-y,x,1/2-z
1/2-x,1/2+y,z
1/2+x,1/2-y,z
1/2-y,1/2-x,1/2+z
1/2+y,1/2+x,1/2+z
loop_
_atom_site_type_symbol
_atom_site_label
_atom_site_fract_x
_atom_site_fract_y
_atom_site_fract_z
Si Si1 0.130155 0.277526 0.109336
Si Si2 0.288439 0.399280 0.844886
Si Si3 0.233350 0.091644 0.890732
Si Si4 0.546629 0.185281 0.231402
Si Si5 0.048362 0.648039 0.500000
Si Si6 0.713558 0.844645 0.304479
Si Si7 0.642759 0.042064 0.500000
O O1 0.211138 0.352225 0.115740
O O2 0.166734 0.176208 0.098586
O O3 0.087044 0.282402 0.171588
O O4 0.066803 0.305468 0.057578
O O5 0.313585 0.497737 0.870183
O O6 0.249535 0.425687 0.783297
O O7 0.353218 0.312113 0.834309
O O8 0.302485 0.136775 0.845005
O O9 0.291264 0.065798 0.945309
O O10 0.589061 0.089061 0.250000
O O11 0.440251 0.184544 0.220655
O O12 0.116572 0.563028 0.500000
O O13 0.948913 0.602779 0.500000
O O14 0.721578 0.778423 0.250000
#
# Coordination Sequence:
#
# PCOD9568781 Si02
#       7
#    16  16  16  16   8  16   8
#     4  10  21  38  60  82 121 159 202 254 309 370
#     4  10  20  36  57  85 119 157 203 248 300 371
#     4  11  21  39  60  86 116 167 207 247 312 384
#     4  10  21  37  57  88 121 156 199 253 312 367
#     4  11  23  36  60  89 118 153 204 259 321 383
#     4  11  21  37  59  88 125 162 204 258 315 372
#     4  11  21  38  58  89 123 150 197 270 319 368
#
# _framework density 18.735509
#
# number of rings (size 3 to 8) (size 9 to 14) (size 15 to 20)
#    0.000    1.500    3.333    4.000    0.000    0.333 
#    0.000    0.833    0.000    0.000    0.000    4.667 
#    0.000    0.000    0.000    0.000    0.000    0.000 
#
# Total GULP energy -535219.360698 kJ/mol
# GULP energy per Si atom -5575.201674 kJ/mol
# Density = 1.869287 g / cm^3
# Si number density = 18.735509 Si / 1000 Ang^3
#
#
#
# Elastic Constant Matrix: (Units=GPa)
#
#
# Indices 1 2 3 4 5 6 
#
# 1 95.5814 26.5421 26.9564 0.0000 0.0000 0.0000
# 2 26.5421 95.5816 26.9564 0.0000 0.0000 0.0000
# 3 26.9564 26.9564 103.8635 0.0000 0.0000 0.0000
# 4 0.0000 0.0000 0.0000 18.0278 0.0000 0.0000
# 5 0.0000 0.0000 0.0000 0.0000 18.0276 0.0000
# 6 0.0000 0.0000 0.0000 0.0000 0.0000 21.9229
#
#
#
# Elastic Compliance Matrix: (Units=1/GPa)
#
#
# Indices 1 2 3 4 5 6 
#
# 1 0.011866 -0.002618 -0.002400 0.000000 0.000000 0.000000
# 2 -0.002618 0.011866 -0.002400 0.000000 0.000000 0.000000
# 3 -0.002400 -0.002400 0.010874 0.000000 0.000000 0.000000
# 4 0.000000 0.000000 0.000000 0.055470 0.000000 0.000000
# 5 0.000000 0.000000 0.000000 0.000000 0.055471 0.000000
# 6 0.000000 0.000000 0.000000 0.000000 0.000000 0.045614
#
#
# Mechanical properties :
#
#
# Convention : Reuss Voigt Hill
#
# Bulk Modulus (GPa) = 50.58389 50.65958 50.62173
# Shear Modulus (GPa) = 23.51962 25.90041 24.71002
#
# Velocity S-wave (km/s) = 3.54694 3.72213 3.63559
# Velocity P-wave (km/s) = 6.62057 6.75058 6.68589
#
# Compressibility (1/GPa) = 0.01976914
#
# Stress axis : x y z
#
# Youngs Moduli (GPa) = 84.27248 84.27263 91.96326
#
# Poissons Ratio (x) = 0.22065 0.22073
# Poissons Ratio (y) = 0.22065 0.22073
# Poissons Ratio (z) = 0.20227 0.20227
#
# Static dielectric constant tensor:
#      x y z
#    x 1.654830 0.000000 0.000000 
#    y 0.000000 1.654830 0.000000 
#    z 0.000000 0.000000 1.648560 
# 
# From -- ./inp_files/5501.got.cif
#   From: 2010.05.17/outbox.cif.g08.bks.cpg/sg135_3_cif.got.tgz:5501.got - 2010.05.20 12:50:20.
