data_PCOD9568817
_publ_section_title
;
Structure prediction by ZEFSAII (Michael W. Deem and Ramdas Pophale) SiO2 
 PCOD9568817
Probable space group: P 42/M B C
;
_chemical_formula_sum "Si O2"
_cell_formula_units_Z 56
_cell_length_a 12.735716
_cell_length_b 12.735716
_cell_length_c 14.231676
_cell_angle_alpha 90.000000
_cell_angle_beta 90.000000
_cell_angle_gamma 90.000000
_cell_volume 2308.355959
_symmetry_space_group_name_H-M "P 42/M B C"
_symmetry_group_IT_number 135
_symmetry_cell_setting 'tetragonal'
loop_
_space_group_symop_operation_xyz
x,y,z
-y,x,1/2+z
-x,-y,z
y,-x,1/2+z
1/2+x,1/2-y,-z
1/2-x,1/2+y,-z
1/2+y,1/2+x,1/2-z
1/2-y,1/2-x,1/2-z
-x,-y,-z
y,-x,1/2-z
x,y,-z
-y,x,1/2-z
1/2-x,1/2+y,z
1/2+x,1/2-y,z
1/2-y,1/2-x,1/2+z
1/2+y,1/2+x,1/2+z
loop_
_atom_site_type_symbol
_atom_site_label
_atom_site_fract_x
_atom_site_fract_y
_atom_site_fract_z
Si Si1 0.323307 0.104542 0.849685
Si Si2 0.672161 0.293377 0.000000
Si Si3 0.860143 0.021918 0.808756
Si Si4 0.853980 0.484016 0.500000
Si Si5 0.883025 0.949711 0.500000
O O1 0.345348 0.154653 0.750000
O O2 0.261893 0.996490 0.827107
O O3 0.430167 0.092823 0.909538
O O4 0.243829 0.176606 0.911121
O O5 0.606967 0.182358 0.000000
O O6 0.576189 0.377264 0.000000
O O7 0.905074 0.908297 0.773444
O O8 0.905554 0.068632 0.904805
O O9 0.739809 0.428137 0.500000
#
# Coordination Sequence:
#
# PCOD9568817 Si02
#       5
#    16   8  16   8   8
#     4  11  22  36  55  89 127 163 202 240 308 374
#     4   9  20  38  58  81 125 156 199 262 295 376
#     4  11  22  33  57  93 122 153 190 252 327 380
#     4   9  22  39  56  86 123 164 205 238 313 372
#     4  10  20  39  59  86 124 155 185 254 338 367
#
# _framework density 24.259689000000002
#
# number of rings (size 3 to 8) (size 9 to 14) (size 15 to 20)
#    0.857    0.857    0.000    6.857    4.000    3.429 
#    0.000    0.000    0.000    0.000    0.000   46.000 
#    0.000    0.000    0.000    0.000    0.000    0.000 
#
# Total GULP energy -312236.751862 kJ/mol
# GULP energy per Si atom -5575.656283 kJ/mol
# Density = 2.420447 g / cm^3
# Si number density = 24.259689 Si / 1000 Ang^3
#
#
#
# Elastic Constant Matrix: (Units=GPa)
#
#
# Indices 1 2 3 4 5 6 
#
# 1 70.9256 43.1433 50.3058 0.0000 0.0000 0.0000
# 2 43.1433 70.9251 50.3060 0.0000 0.0000 0.0000
# 3 50.3058 50.3060 212.5353 0.0000 0.0000 0.0000
# 4 0.0000 0.0000 0.0000 15.4935 0.0000 0.0000
# 5 0.0000 0.0000 0.0000 0.0000 15.4930 0.0000
# 6 0.0000 0.0000 0.0000 0.0000 0.0000 56.4865
#
#
#
# Elastic Compliance Matrix: (Units=1/GPa)
#
#
# Indices 1 2 3 4 5 6 
#
# 1 0.023537 -0.012457 -0.002622 0.000000 0.000000 0.000000
# 2 -0.012457 0.023537 -0.002623 0.000000 0.000000 0.000000
# 3 -0.002622 -0.002623 0.005947 0.000000 0.000000 0.000000
# 4 0.000000 0.000000 0.000000 0.064543 0.000000 0.000000
# 5 0.000000 0.000000 0.000000 0.000000 0.064545 0.000000
# 6 0.000000 0.000000 0.000000 0.000000 0.000000 0.017703
#
#
# Mechanical properties :
#
#
# Convention : Reuss Voigt Hill
#
# Bulk Modulus (GPa) = 56.76636 71.32178 64.04407
# Shear Modulus (GPa) = 20.73920 31.53667 26.13794
#
# Velocity S-wave (km/s) = 2.92701 3.60941 3.28597
# Velocity P-wave (km/s) = 5.90537 6.84351 6.39168
#
# Compressibility (1/GPa) = 0.01761607
#
# Stress axis : x y z
#
# Youngs Moduli (GPa) = 42.48635 42.48588 168.16408
#
# Poissons Ratio (x) = 0.52926 0.44101
# Poissons Ratio (y) = 0.52927 0.44102
# Poissons Ratio (z) = 0.11142 0.11142
#
# Static dielectric constant tensor:
#      x y z
#    x 2.025120 0.000000 0.000000 
#    y 0.000000 2.025120 0.000000 
#    z 0.000000 0.000000 1.896110 
# 
# From -- ./inp_files/3087.got.cif
#   From: 2010.05.17/outbox.cif.g08.bks.cpg/sg135_2_cif.got.tgz:3087.got - 2010.05.20 12:50:20.
