data_PCOD9568905
_publ_section_title
;
Structure prediction by ZEFSAII (Michael W. Deem and Ramdas Pophale) SiO2 
 PCOD9568905
Probable space group: P 42/M B C
;
_chemical_formula_sum "Si O2"
_cell_formula_units_Z 80
_cell_length_a 13.484431
_cell_length_b 13.484431
_cell_length_c 20.110236
_cell_angle_alpha 90.000000
_cell_angle_beta 90.000000
_cell_angle_gamma 90.000000
_cell_volume 3656.641786
_symmetry_space_group_name_H-M "P 42/M B C"
_symmetry_group_IT_number 135
_symmetry_cell_setting 'tetragonal'
loop_
_space_group_symop_operation_xyz
x,y,z
-y,x,1/2+z
-x,-y,z
y,-x,1/2+z
1/2+x,1/2-y,-z
1/2-x,1/2+y,-z
1/2+y,1/2+x,1/2-z
1/2-y,1/2-x,1/2-z
-x,-y,-z
y,-x,1/2-z
x,y,-z
-y,x,1/2-z
1/2-x,1/2+y,z
1/2+x,1/2-y,z
1/2-y,1/2-x,1/2+z
1/2+y,1/2+x,1/2+z
loop_
_atom_site_type_symbol
_atom_site_label
_atom_site_fract_x
_atom_site_fract_y
_atom_site_fract_z
Si Si1 0.081275 0.733965 0.271013
Si Si2 0.444464 0.404889 0.374701
Si Si3 0.491289 0.250839 0.874648
Si Si4 0.811328 0.141572 0.073315
Si Si5 0.860377 0.603109 0.174957
O O1 0.182395 0.682395 0.250000
O O2 0.085158 0.823468 0.321348
O O3 0.031199 0.772412 0.203218
O O4 0.013556 0.650694 0.308490
O O5 0.500000 0.500000 0.343533
O O6 0.338943 0.439880 0.403496
O O7 0.532573 0.363697 0.421573
O O8 0.388815 0.269545 0.912728
O O9 0.546504 0.145774 0.866537
O O10 0.732863 0.137830 0.132292
O O11 0.767816 0.152574 0.000000
O O12 0.855237 0.644764 0.250000
#
# Coordination Sequence:
#
# PCOD9568905 Si02
#       5
#    16  16  16  16  16
#     4  10  22  35  61  90 130 167 215 271 333 394
#     4   9  21  35  57  89 121 167 211 270 329 388
#     4  10  22  32  59  87 119 160 212 270 327 392
#     4  10  22  40  59  88 127 170 219 275 342 412
#     4   9  21  40  58  92 127 170 216 272 338 396
#
# _framework density 21.877997000000001
#
# number of rings (size 3 to 8) (size 9 to 14) (size 15 to 20)
#    0.000    2.400    0.000    0.000   14.000    8.000 
#    0.000    0.000    0.000    0.000    0.000   12.600 
#    0.000    0.000    0.000    0.000    0.000    0.000 
#
# Total GULP energy -445859.090381 kJ/mol
# GULP energy per Si atom -5573.238630 kJ/mol
# Density = 2.182820 g / cm^3
# Si number density = 21.877997 Si / 1000 Ang^3
#
#
#
# Elastic Constant Matrix: (Units=GPa)
#
#
# Indices 1 2 3 4 5 6 
#
# 1 44.4651 35.0119 15.7893 0.0000 0.0000 0.0000
# 2 35.0119 44.4653 15.7903 0.0000 0.0000 0.0000
# 3 15.7893 15.7903 64.2271 0.0000 0.0000 0.0000
# 4 0.0000 0.0000 0.0000 10.1538 0.0000 0.0000
# 5 0.0000 0.0000 0.0000 0.0000 10.1537 0.0000
# 6 0.0000 0.0000 0.0000 0.0000 0.0000 35.4426
#
#
#
# Elastic Compliance Matrix: (Units=1/GPa)
#
#
# Indices 1 2 3 4 5 6 
#
# 1 0.059864 -0.045919 -0.003427 0.000000 0.000000 0.000000
# 2 -0.045919 0.059864 -0.003429 0.000000 0.000000 0.000000
# 3 -0.003427 -0.003429 0.017255 0.000000 0.000000 0.000000
# 4 0.000000 0.000000 0.000000 0.098485 0.000000 0.000000
# 5 0.000000 0.000000 0.000000 0.000000 0.098486 0.000000
# 6 0.000000 0.000000 0.000000 0.000000 0.000000 0.028215
#
#
# Mechanical properties :
#
#
# Convention : Reuss Voigt Hill
#
# Bulk Modulus (GPa) = 31.81517 31.81562 31.81540
# Shear Modulus (GPa) = 10.45592 16.92109 13.68851
#
# Velocity S-wave (km/s) = 2.18851 2.78408 2.50406
# Velocity P-wave (km/s) = 4.57818 4.99086 4.78897
#
# Compressibility (1/GPa) = 0.03143154
#
# Stress axis : x y z
#
# Youngs Moduli (GPa) = 16.70464 16.70451 57.95322
#
# Poissons Ratio (x) = 0.76706 0.19862
# Poissons Ratio (y) = 0.76707 0.19872
# Poissons Ratio (z) = 0.05725 0.05728
#
# Static dielectric constant tensor:
#      x y z
#    x 1.869350 0.000000 0.000000 
#    y 0.000000 1.869350 0.000000 
#    z 0.000000 0.000000 1.745720 
# 
# From -- ./inp_files/5226.got.cif
#   From: 2010.05.17/outbox.cif.g08.bks.cpg/sg135_3_cif.got.tgz:5226.got - 2010.05.20 12:50:20.
