data_PCOD9568150
_publ_section_title
;
Structure prediction by ZEFSAII (Michael W. Deem and Ramdas Pophale) SiO2 
 PCOD9568150
Probable space group: P 42/N N M
;
_chemical_formula_sum "Si O2"
_cell_formula_units_Z 64
_cell_length_a 18.921275
_cell_length_b 18.921275
_cell_length_c 8.886115
_cell_angle_alpha 90.000000
_cell_angle_beta 90.000000
_cell_angle_gamma 90.000000
_cell_volume 3181.359330
_symmetry_space_group_name_H-M "P 42/N N M"
_symmetry_group_IT_number 134
_space_group.IT_coordinate_system_code '2'
_symmetry_cell_setting 'tetragonal'
loop_
_space_group_symop_operation_xyz
x,y,z
1/2-y,x,1/2+z
1/2-x,1/2-y,z
y,1/2-x,1/2+z
x,1/2-y,1/2-z
1/2-x,y,1/2-z
y,x,-z
1/2-y,1/2-x,-z
-x,-y,-z
1/2+y,-x,1/2-z
1/2+x,1/2+y,-z
-y,1/2+x,1/2-z
-x,1/2+y,1/2+z
1/2+x,-y,1/2+z
-y,-x,z
1/2+y,1/2+x,z
loop_
_atom_site_type_symbol
_atom_site_label
_atom_site_fract_x
_atom_site_fract_y
_atom_site_fract_z
Si Si1 0.496242 0.800548 0.128378
Si Si2 0.252406 0.144312 0.428041
Si Si3 0.170695 0.554572 0.810834
Si Si4 0.943387 0.941744 0.682899
O O1 0.460807 0.750000 0.250000
O O2 0.561365 0.758833 0.050885
O O3 0.535474 0.864078 0.218310
O O4 0.447844 0.826654 0.993393
O O5 0.250000 0.158443 0.250000
O O6 0.187000 0.187000 0.500000
O O7 0.322160 0.177841 0.500000
O O8 0.250000 0.559729 0.750000
O O9 0.119055 0.619055 0.764932
O O10 0.130685 0.480899 0.767749
O O11 0.941493 0.941493 0.500000
O O12 0.996076 0.003925 0.730668
#
# Coordination Sequence:
#
# PCOD9568150 Si02
#       4
#    16  16  16  16
#     4  10  20  33  53  82 112 145 182 223 273 332
#     4  10  19  29  43  68 107 152 192 226 264 317
#     4  10  21  38  61  83 106 142 186 234 284 333
#     4   8  15  32  56  77 100 137 182 223 266 319
#
# _framework density 20.117187999999999
#
# number of rings (size 3 to 8) (size 9 to 14) (size 15 to 20)
#    0.000    2.500    0.000    6.000    0.000    6.250 
#    0.000    2.500    0.000    3.000    0.000    0.000 
#    0.000    0.000    0.000    0.000    0.000    0.000 
#
# Total GULP energy -356827.515745 kJ/mol
# GULP energy per Si atom -5575.429934 kJ/mol
# Density = 2.007140 g / cm^3
# Si number density = 20.117188 Si / 1000 Ang^3
#
#
#
# Elastic Constant Matrix: (Units=GPa)
#
#
# Indices 1 2 3 4 5 6 
#
# 1 88.4039 41.7128 15.7802 0.0000 0.0000 0.0000
# 2 41.7128 88.4035 15.7797 0.0000 0.0000 0.0000
# 3 15.7802 15.7797 44.6423 0.0000 0.0000 0.0000
# 4 0.0000 0.0000 0.0000 24.5978 0.0000 0.0000
# 5 0.0000 0.0000 0.0000 0.0000 24.5976 0.0000
# 6 0.0000 0.0000 0.0000 0.0000 0.0000 19.8399
#
#
#
# Elastic Compliance Matrix: (Units=1/GPa)
#
#
# Indices 1 2 3 4 5 6 
#
# 1 0.014912 -0.006506 -0.002971 0.000000 0.000000 0.000000
# 2 -0.006506 0.014912 -0.002971 0.000000 0.000000 0.000000
# 3 -0.002971 -0.002971 0.024501 0.000000 0.000000 0.000000
# 4 0.000000 0.000000 0.000000 0.040654 0.000000 0.000000
# 5 0.000000 0.000000 0.000000 0.000000 0.040654 0.000000
# 6 0.000000 0.000000 0.000000 0.000000 0.000000 0.050403
#
#
# Mechanical properties :
#
#
# Convention : Reuss Voigt Hill
#
# Bulk Modulus (GPa) = 33.98156 40.88833 37.43494
# Shear Modulus (GPa) = 22.65083 23.68552 23.16818
#
# Velocity S-wave (km/s) = 3.35915 3.43502 3.39729
# Velocity P-wave (km/s) = 5.65453 6.00846 5.83418
#
# Compressibility (1/GPa) = 0.02942773
#
# Stress axis : x y z
#
# Youngs Moduli (GPa) = 67.06108 67.06101 40.81483
#
# Poissons Ratio (x) = 0.43628 0.12128
# Poissons Ratio (y) = 0.43628 0.12127
# Poissons Ratio (z) = 0.19927 0.19925
#
# Static dielectric constant tensor:
#      x y z
#    x 1.748530 0.000000 0.000000 
#    y 0.000000 1.748530 0.000000 
#    z 0.000000 0.000000 1.721410 
# 
# From -- ./inp_files/2767.got.cif
#   From: 2010.05.17/outbox.cif.g08.bks.cpg/sg134_2_cif.got.tgz:2767.got - 2010.05.20 12:42:49.
