data_PCOD9568658
_publ_section_title
;
Structure prediction by ZEFSAII (Michael W. Deem and Ramdas Pophale) SiO2 
 PCOD9568658
Probable space group: P 42/M B C
;
_chemical_formula_sum "Si O2"
_cell_formula_units_Z 96
_cell_length_a 23.595295
_cell_length_b 23.595295
_cell_length_c 7.754706
_cell_angle_alpha 90.000000
_cell_angle_beta 90.000000
_cell_angle_gamma 90.000000
_cell_volume 4317.339091
_symmetry_space_group_name_H-M "P 42/M B C"
_symmetry_group_IT_number 135
_symmetry_cell_setting 'tetragonal'
loop_
_space_group_symop_operation_xyz
x,y,z
-y,x,1/2+z
-x,-y,z
y,-x,1/2+z
1/2+x,1/2-y,-z
1/2-x,1/2+y,-z
1/2+y,1/2+x,1/2-z
1/2-y,1/2-x,1/2-z
-x,-y,-z
y,-x,1/2-z
x,y,-z
-y,x,1/2-z
1/2-x,1/2+y,z
1/2+x,1/2-y,z
1/2-y,1/2-x,1/2+z
1/2+y,1/2+x,1/2+z
loop_
_atom_site_type_symbol
_atom_site_label
_atom_site_fract_x
_atom_site_fract_y
_atom_site_fract_z
Si Si1 0.205176 0.611525 0.706117
Si Si2 0.922582 0.795284 0.798412
Si Si3 0.476255 0.115653 0.207629
Si Si4 0.697732 0.707378 0.207450
Si Si5 0.585343 0.170638 0.207685
Si Si6 0.089455 0.979027 0.297316
O O1 0.160713 0.660713 0.750000
O O2 0.210489 0.605031 0.500000
O O3 0.172011 0.556921 0.771401
O O4 0.263459 0.638685 0.768144
O O5 0.854719 0.800153 0.785474
O O6 0.931874 0.732413 0.723658
O O7 0.954195 0.851023 0.726686
O O8 0.938890 0.792862 0.000000
O O9 0.440151 0.059850 0.250000
O O10 0.539522 0.124824 0.271952
O O11 0.476858 0.117319 0.000000
O O12 0.750229 0.749772 0.250000
O O13 0.696772 0.702354 0.000000
O O14 0.647682 0.147682 0.250000
O O15 0.582863 0.173571 0.000000
O O16 0.096633 0.989281 0.500000
O O17 0.038303 0.933610 0.277491
#
# Coordination Sequence:
#
# PCOD9568658 Si02
#       6
#    16  16  16  16  16  16
#     4   8  15  28  47  72 100 131 168 213 265 318
#     4  10  22  38  56  80 110 146 187 229 273 326
#     4   9  18  34  55  77 103 136 176 221 269 321
#     4  10  19  31  51  78 110 148 189 234 284 338
#     4  10  22  39  56  76 106 143 182 225 271 319
#     4  10  21  39  63  89 118 149 183 226 276 334
#
# _framework density 22.235917000000001
#
# number of rings (size 3 to 8) (size 9 to 14) (size 15 to 20)
#    0.000    2.500    0.000    2.000    0.000    6.333 
#    0.000    5.000    0.000    0.000    0.000    0.000 
#    0.000    0.000    0.000    0.000    0.000    0.000 
#
# Total GULP energy -534984.537838 kJ/mol
# GULP energy per Si atom -5572.755602 kJ/mol
# Density = 2.218531 g / cm^3
# Si number density = 22.235917 Si / 1000 Ang^3
#
#
#
# Elastic Constant Matrix: (Units=GPa)
#
#
# Indices 1 2 3 4 5 6 
#
# 1 110.8500 63.1075 -6.3940 0.0000 0.0000 0.0000
# 2 63.1075 110.8514 -6.3939 0.0000 0.0000 0.0000
# 3 -6.3940 -6.3939 38.7818 0.0000 0.0000 0.0000
# 4 0.0000 0.0000 0.0000 10.8110 0.0000 0.0000
# 5 0.0000 0.0000 0.0000 0.0000 10.8112 0.0000
# 6 0.0000 0.0000 0.0000 0.0000 0.0000 37.3191
#
#
#
# Elastic Compliance Matrix: (Units=1/GPa)
#
#
# Indices 1 2 3 4 5 6 
#
# 1 0.013382 -0.007563 0.000959 0.000000 0.000000 0.000000
# 2 -0.007563 0.013382 0.000959 0.000000 0.000000 0.000000
# 3 0.000959 0.000959 0.026102 0.000000 0.000000 0.000000
# 4 0.000000 0.000000 0.000000 0.092498 0.000000 0.000000
# 5 0.000000 0.000000 0.000000 0.000000 0.092497 0.000000
# 6 0.000000 0.000000 0.000000 0.000000 0.000000 0.026796
#
#
# Mechanical properties :
#
#
# Convention : Reuss Voigt Hill
#
# Bulk Modulus (GPa) = 24.05163 40.12474 32.08819
# Shear Modulus (GPa) = 17.25297 25.79916 21.52606
#
# Velocity S-wave (km/s) = 2.78853 3.40994 3.11477
# Velocity P-wave (km/s) = 4.60521 5.79549 5.23429
#
# Compressibility (1/GPa) = 0.04157722
#
# Stress axis : x y z
#
# Youngs Moduli (GPa) = 74.72558 74.72655 38.31175
#
# Poissons Ratio (x) = 0.56517 -0.03676
# Poissons Ratio (y) = 0.56516 -0.03675
# Poissons Ratio (z) = -0.07169 -0.07169
#
# Static dielectric constant tensor:
#      x y z
#    x 1.851680 0.000000 0.000000 
#    y 0.000000 1.851670 0.000000 
#    z 0.000000 0.000000 1.889050 
# 
# From -- ./inp_files/1230.got.cif
#   From: 2010.05.17/outbox.cif.g08.bks.cpg/sg135_1_cif.got.tgz:1230.got - 2010.05.20 12:50:20.
