data_PCOD9568306
_publ_section_title
;
Structure prediction by ZEFSAII (Michael W. Deem and Ramdas Pophale) SiO2 
 PCOD9568306
Probable space group: P 42/N N M
;
_chemical_formula_sum "Si O2"
_cell_formula_units_Z 64
_cell_length_a 11.175858
_cell_length_b 11.175858
_cell_length_c 25.558300
_cell_angle_alpha 90.000000
_cell_angle_beta 90.000000
_cell_angle_gamma 90.000000
_cell_volume 3192.226610
_symmetry_space_group_name_H-M "P 42/N N M"
_symmetry_group_IT_number 134
_space_group.IT_coordinate_system_code '2'
_symmetry_cell_setting 'tetragonal'
loop_
_space_group_symop_operation_xyz
x,y,z
1/2-y,x,1/2+z
1/2-x,1/2-y,z
y,1/2-x,1/2+z
x,1/2-y,1/2-z
1/2-x,y,1/2-z
y,x,-z
1/2-y,1/2-x,-z
-x,-y,-z
1/2+y,-x,1/2-z
1/2+x,1/2+y,-z
-y,1/2+x,1/2-z
-x,1/2+y,1/2+z
1/2+x,-y,1/2+z
-y,-x,z
1/2+y,1/2+x,z
loop_
_atom_site_type_symbol
_atom_site_label
_atom_site_fract_x
_atom_site_fract_y
_atom_site_fract_z
Si Si1 0.248391 0.550943 0.811665
Si Si2 0.754711 0.437770 0.897186
Si Si3 0.695037 0.495906 0.484612
Si Si4 0.131408 0.182874 0.103485
O O1 0.250000 0.522377 0.750000
O O2 0.362748 0.637253 0.822391
O O3 0.131702 0.631702 0.822042
O O4 0.256827 0.436142 0.848072
O O5 0.666245 0.333756 0.881082
O O6 0.889307 0.389307 0.883556
O O7 0.687536 0.557034 0.879079
O O8 0.755003 0.451581 0.960156
O O9 0.604280 0.604280 0.500000
O O10 0.610484 0.389517 0.462210
O O11 0.797316 0.540228 0.444968
O O12 0.250000 0.250000 0.085599
#
# Coordination Sequence:
#
# PCOD9568306 Si02
#       4
#    16  16  16  16
#     4   9  20  40  62  84 111 140 178 236 296 342
#     4  10  22  37  52  76 114 155 190 230 277 327
#     4  10  20  35  52  76 114 151 189 231 276 325
#     4  12  22  32  57  85 111 147 191 229 276 339
#
# _framework density 20.048701000000001
#
# number of rings (size 3 to 8) (size 9 to 14) (size 15 to 20)
#    0.000    1.750    2.500    3.000    0.000    4.500 
#    0.000    2.500    0.000    0.000    0.000    0.000 
#    0.000    6.000    0.000    0.000    0.000    0.000 
#
# Total GULP energy -356456.873982 kJ/mol
# GULP energy per Si atom -5569.638656 kJ/mol
# Density = 2.000307 g / cm^3
# Si number density = 20.048701 Si / 1000 Ang^3
#
#
#
# Elastic Constant Matrix: (Units=GPa)
#
#
# Indices 1 2 3 4 5 6 
#
# 1 65.3394 7.3564 4.1121 0.0000 0.0000 0.0000
# 2 7.3564 65.3394 4.1121 0.0000 0.0000 0.0000
# 3 4.1121 4.1121 37.1103 0.0000 0.0000 0.0000
# 4 0.0000 0.0000 0.0000 26.5869 0.0000 0.0000
# 5 0.0000 0.0000 0.0000 0.0000 26.5869 0.0000
# 6 0.0000 0.0000 0.0000 0.0000 0.0000 24.4742
#
#
#
# Elastic Compliance Matrix: (Units=1/GPa)
#
#
# Indices 1 2 3 4 5 6 
#
# 1 0.015589 -0.001658 -0.001544 0.000000 0.000000 0.000000
# 2 -0.001658 0.015589 -0.001544 0.000000 0.000000 0.000000
# 3 -0.001544 -0.001544 0.027289 0.000000 0.000000 0.000000
# 4 0.000000 0.000000 0.000000 0.037612 0.000000 0.000000
# 5 0.000000 0.000000 0.000000 0.000000 0.037612 0.000000
# 6 0.000000 0.000000 0.000000 0.000000 0.000000 0.040859
#
#
# Mechanical properties :
#
#
# Convention : Reuss Voigt Hill
#
# Bulk Modulus (GPa) = 20.41840 22.10561 21.26201
# Shear Modulus (GPa) = 24.95438 25.67683 25.31561
#
# Velocity S-wave (km/s) = 3.53184 3.58260 3.55731
# Velocity P-wave (km/s) = 5.18058 5.30691 5.24412
#
# Compressibility (1/GPa) = 0.04897543
#
# Stress axis : x y z
#
# Youngs Moduli (GPa) = 64.14982 64.14982 36.64510
#
# Poissons Ratio (x) = 0.10636 0.05657
# Poissons Ratio (y) = 0.10636 0.05657
# Poissons Ratio (z) = 0.09902 0.09902
#
# Static dielectric constant tensor:
#      x y z
#    x 1.842030 0.000000 0.000000 
#    y 0.000000 1.842030 0.000000 
#    z 0.000000 0.000000 1.669350 
# 
# From -- ./inp_files/9780.got.cif
#   From: 2010.05.17/outbox.cif.g08.bks.cpg/sg134_5_cif.got.tgz:9780.got - 2010.05.20 12:42:49.
