data_PCOD9568445
_publ_section_title
;
Structure prediction by ZEFSAII (Michael W. Deem and Ramdas Pophale) SiO2 
 PCOD9568445
Probable space group: P 42/N N M
;
_chemical_formula_sum "Si O2"
_cell_formula_units_Z 56
_cell_length_a 17.143975
_cell_length_b 17.143975
_cell_length_c 9.307638
_cell_angle_alpha 90.000000
_cell_angle_beta 90.000000
_cell_angle_gamma 90.000000
_cell_volume 2735.662602
_symmetry_space_group_name_H-M "P 42/N N M"
_symmetry_group_IT_number 134
_space_group.IT_coordinate_system_code '2'
_symmetry_cell_setting 'tetragonal'
loop_
_space_group_symop_operation_xyz
x,y,z
1/2-y,x,1/2+z
1/2-x,1/2-y,z
y,1/2-x,1/2+z
x,1/2-y,1/2-z
1/2-x,y,1/2-z
y,x,-z
1/2-y,1/2-x,-z
-x,-y,-z
1/2+y,-x,1/2-z
1/2+x,1/2+y,-z
-y,1/2+x,1/2-z
-x,1/2+y,1/2+z
1/2+x,-y,1/2+z
-y,-x,z
1/2+y,1/2+x,z
loop_
_atom_site_type_symbol
_atom_site_label
_atom_site_fract_x
_atom_site_fract_y
_atom_site_fract_z
Si Si1 0.250000 0.030353 0.750000
Si Si2 0.350567 0.173941 0.653849
Si Si3 0.922255 0.293402 0.978939
Si Si4 0.646704 0.470702 0.822306
O O1 0.318427 0.092388 0.714746
O O2 0.221669 0.974991 0.619354
O O3 0.338251 0.250000 0.750000
O O4 0.312969 0.187032 0.500000
O O5 0.442603 0.163991 0.630088
O O6 0.843630 0.343630 0.008248
O O7 0.966061 0.339524 0.849524
O O8 0.914927 0.209087 0.902564
O O9 0.561626 0.438375 0.855163
#
# Coordination Sequence:
#
# PCOD9568445 Si02
#       4
#     8  16  16  16
#     4  12  25  40  66 103 134 172 218 272 337 400
#     4  12  24  44  67  99 136 173 221 275 333 402
#     4  10  22  43  66  96 133 171 221 277 330 392
#     4  10  21  43  70  94 130 177 226 274 329 397
#
# _framework density 20.470361
#
# number of rings (size 3 to 8) (size 9 to 14) (size 15 to 20)
#    0.000    1.143    5.714    0.429    0.000    9.143 
#    0.000    5.714    0.000    0.000    0.000    0.000 
#    0.000    0.000    0.000    0.000    0.000    0.000 
#
# Total GULP energy -312259.676089 kJ/mol
# GULP energy per Si atom -5576.065644 kJ/mol
# Density = 2.042377 g / cm^3
# Si number density = 20.470361 Si / 1000 Ang^3
#
#
#
# Elastic Constant Matrix: (Units=GPa)
#
#
# Indices 1 2 3 4 5 6 
#
# 1 106.4654 89.2440 64.8337 0.0000 0.0000 0.0000
# 2 89.2440 106.4627 64.8330 0.0000 0.0000 0.0000
# 3 64.8337 64.8330 157.3581 0.0000 0.0000 0.0000
# 4 0.0000 0.0000 0.0000 5.9184 0.0000 0.0000
# 5 0.0000 0.0000 0.0000 0.0000 5.9190 0.0000
# 6 0.0000 0.0000 0.0000 0.0000 0.0000 39.0348
#
#
#
# Elastic Compliance Matrix: (Units=1/GPa)
#
#
# Indices 1 2 3 4 5 6 
#
# 1 0.032550 -0.025522 -0.002896 0.000000 0.000000 0.000000
# 2 -0.025522 0.032550 -0.002896 0.000000 0.000000 0.000000
# 3 -0.002896 -0.002896 0.008741 0.000000 0.000000 0.000000
# 4 0.000000 0.000000 0.000000 0.168963 0.000000 0.000000
# 5 0.000000 0.000000 0.000000 0.000000 0.168948 0.000000
# 6 0.000000 0.000000 0.000000 0.000000 0.000000 0.025618
#
#
# Mechanical properties :
#
#
# Convention : Reuss Voigt Hill
#
# Bulk Modulus (GPa) = 89.16899 89.78972 89.47935
# Shear Modulus (GPa) = 9.92586 20.26615 15.09601
#
# Velocity S-wave (km/s) = 2.20441 3.14988 2.71856
# Velocity P-wave (km/s) = 7.08053 7.56224 7.32534
#
# Compressibility (1/GPa) = 0.01121466
#
# Stress axis : x y z
#
# Youngs Moduli (GPa) = 30.72241 30.72162 114.40261
#
# Poissons Ratio (x) = 0.78407 0.33127
# Poissons Ratio (y) = 0.78409 0.33128
# Poissons Ratio (z) = 0.08896 0.08896
#
# Static dielectric constant tensor:
#      x y z
#    x 1.742970 0.000000 0.000000 
#    y 0.000000 1.742970 0.000000 
#    z 0.000000 0.000000 1.751210 
# 
# From -- ./inp_files/2382.got.cif
#   From: 2010.05.17/outbox.cif.g08.bks.cpg/sg134_2_cif.got.tgz:2382.got - 2010.05.20 12:42:49.
