data_PCOD9568143
_publ_section_title
;
Structure prediction by ZEFSAII (Michael W. Deem and Ramdas Pophale) SiO2 
 PCOD9568143
Probable space group: P 42/N N M
;
_chemical_formula_sum "Si O2"
_cell_formula_units_Z 80
_cell_length_a 11.731751
_cell_length_b 11.731751
_cell_length_c 32.008883
_cell_angle_alpha 90.000000
_cell_angle_beta 90.000000
_cell_angle_gamma 90.000000
_cell_volume 4405.510011
_symmetry_space_group_name_H-M "P 42/N N M"
_symmetry_group_IT_number 134
_space_group.IT_coordinate_system_code '2'
_symmetry_cell_setting 'tetragonal'
loop_
_space_group_symop_operation_xyz
x,y,z
1/2-y,x,1/2+z
1/2-x,1/2-y,z
y,1/2-x,1/2+z
x,1/2-y,1/2-z
1/2-x,y,1/2-z
y,x,-z
1/2-y,1/2-x,-z
-x,-y,-z
1/2+y,-x,1/2-z
1/2+x,1/2+y,-z
-y,1/2+x,1/2-z
-x,1/2+y,1/2+z
1/2+x,-y,1/2+z
-y,-x,z
1/2+y,1/2+x,z
loop_
_atom_site_type_symbol
_atom_site_label
_atom_site_fract_x
_atom_site_fract_y
_atom_site_fract_z
Si Si1 0.491065 0.508936 0.450336
Si Si2 0.849949 0.962725 0.283246
Si Si3 0.657914 0.157914 0.886038
Si Si4 0.837929 0.974191 0.151529
Si Si5 0.561228 0.765783 0.163207
Si Si6 0.293986 0.364041 0.585082
O O1 0.500000 0.500000 0.500000
O O2 0.404852 0.595149 0.425140
O O3 0.445822 0.385144 0.436198
O O4 0.750000 0.942782 0.250000
O O5 0.778626 0.001214 0.324159
O O6 0.915577 0.848636 0.297718
O O7 0.940369 0.059632 0.270571
O O8 0.750000 0.250000 0.900366
O O9 0.563234 0.218172 0.856590
O O10 0.899597 0.862953 0.171441
O O11 0.808253 0.937782 0.104268
O O12 0.920984 0.079017 0.153727
O O13 0.642611 0.811631 0.125933
O O14 0.250000 0.250000 0.561638
#
# Coordination Sequence:
#
# PCOD9568143 Si02
#       6
#     8  16   8  16  16  16
#     4  10  20  34  54  82 116 156 198 234 300 370
#     4  11  22  36  52  76 109 148 185 227 280 348
#     4  10  18  34  62  86 108 144 194 260 294 336
#     4  10  20  33  53  82 108 139 186 235 284 339
#     4   9  18  35  56  78 105 140 191 236 284 341
#     4   8  17  33  52  74 106 147 190 233 278 347
#
# _framework density 18.159077
#
# number of rings (size 3 to 8) (size 9 to 14) (size 15 to 20)
#    0.000    2.400    1.000    3.000    4.200    3.400 
#    0.000    1.000    0.000    0.000    0.000    8.400 
#    0.000    0.000    0.000    0.000    0.000    0.000 
#
# Total GULP energy -445569.412474 kJ/mol
# GULP energy per Si atom -5569.617656 kJ/mol
# Density = 1.811775 g / cm^3
# Si number density = 18.159077 Si / 1000 Ang^3
#
#
#
# Elastic Constant Matrix: (Units=GPa)
#
#
# Indices 1 2 3 4 5 6 
#
# 1 78.4071 37.2061 20.5542 0.0000 0.0000 0.0000
# 2 37.2061 78.4071 20.5542 0.0000 0.0000 0.0000
# 3 20.5542 20.5542 55.2944 0.0000 0.0000 0.0000
# 4 0.0000 0.0000 0.0000 8.9978 0.0000 0.0000
# 5 0.0000 0.0000 0.0000 0.0000 8.9978 0.0000
# 6 0.0000 0.0000 0.0000 0.0000 0.0000 42.3202
#
#
#
# Elastic Compliance Matrix: (Units=1/GPa)
#
#
# Indices 1 2 3 4 5 6 
#
# 1 0.017119 -0.007152 -0.003705 0.000000 0.000000 0.000000
# 2 -0.007152 0.017119 -0.003705 0.000000 0.000000 0.000000
# 3 -0.003705 -0.003705 0.020839 0.000000 0.000000 0.000000
# 4 0.000000 0.000000 0.000000 0.111139 0.000000 0.000000
# 5 0.000000 0.000000 0.000000 0.000000 0.111139 0.000000
# 6 0.000000 0.000000 0.000000 0.000000 0.000000 0.023629
#
#
# Mechanical properties :
#
#
# Convention : Reuss Voigt Hill
#
# Bulk Modulus (GPa) = 38.53043 40.97083 39.75063
# Shear Modulus (GPa) = 14.75972 20.98274 17.87123
#
# Velocity S-wave (km/s) = 2.85406 3.40295 3.14052
# Velocity P-wave (km/s) = 5.66791 6.16857 5.92353
#
# Compressibility (1/GPa) = 0.02595352
#
# Stress axis : x y z
#
# Youngs Moduli (GPa) = 58.41440 58.41440 47.98591
#
# Poissons Ratio (x) = 0.41779 0.17778
# Poissons Ratio (y) = 0.41779 0.17778
# Poissons Ratio (z) = 0.21642 0.21642
#
# Static dielectric constant tensor:
#      x y z
#    x 1.658900 0.000000 0.000000 
#    y 0.000000 1.658900 0.000000 
#    z 0.000000 0.000000 1.651270 
# 
# From -- ./inp_files/11381.got.cif
#   From: 2010.05.17/outbox.cif.g08.bks.cpg/sg134_6_cif.got.tgz:11381.got - 2010.05.20 12:42:49.
