data_PCOD9568908
_publ_section_title
;
Structure prediction by ZEFSAII (Michael W. Deem and Ramdas Pophale) SiO2 
 PCOD9568908
Probable space group: P 42/M B C
;
_chemical_formula_sum "Si O2"
_cell_formula_units_Z 120
_cell_length_a 15.531076
_cell_length_b 15.531076
_cell_length_c 23.164481
_cell_angle_alpha 90.000000
_cell_angle_beta 90.000000
_cell_angle_gamma 90.000000
_cell_volume 5587.604572
_symmetry_space_group_name_H-M "P 42/M B C"
_symmetry_group_IT_number 135
_symmetry_cell_setting 'tetragonal'
loop_
_space_group_symop_operation_xyz
x,y,z
-y,x,1/2+z
-x,-y,z
y,-x,1/2+z
1/2+x,1/2-y,-z
1/2-x,1/2+y,-z
1/2+y,1/2+x,1/2-z
1/2-y,1/2-x,1/2-z
-x,-y,-z
y,-x,1/2-z
x,y,-z
-y,x,1/2-z
1/2-x,1/2+y,z
1/2+x,1/2-y,z
1/2-y,1/2-x,1/2+z
1/2+y,1/2+x,1/2+z
loop_
_atom_site_type_symbol
_atom_site_label
_atom_site_fract_x
_atom_site_fract_y
_atom_site_fract_z
Si Si1 0.513471 0.807919 0.433278
Si Si2 0.303921 0.654007 0.437085
Si Si3 0.636993 0.967662 0.564128
Si Si4 0.309388 0.809388 0.750000
Si Si5 0.781519 0.094293 0.156568
Si Si6 0.944936 0.738132 0.156145
Si Si7 0.317023 0.678516 0.066249
Si Si8 0.356377 0.508397 0.747122
O O1 0.484471 0.802270 0.500000
O O2 0.560653 0.899778 0.426602
O O3 0.438560 0.791908 0.387392
O O4 0.589023 0.735409 0.425672
O O5 0.345290 0.650235 0.500000
O O6 0.226754 0.586035 0.436542
O O7 0.373912 0.645933 0.387506
O O8 0.254135 0.745135 0.430201
O O9 0.626286 0.006984 0.500000
O O10 0.657361 0.027631 0.617477
O O11 0.237808 0.826533 0.799427
O O12 0.298869 0.890864 0.709356
O O13 0.802495 0.012138 0.195706
O O14 0.888401 0.799442 0.113969
O O15 0.014327 0.796073 0.190939
O O16 0.351066 0.679004 0.000000
O O17 0.421763 0.585710 0.757842
#
# Coordination Sequence:
#
# PCOD9568908 Si02
#       8
#    16  16  16   8  16  16  16  16
#     4   9  19  35  56  83 109 134 172 224 286 337
#     4   9  17  31  55  82 105 134 175 226 278 326
#     4   9  19  35  56  83 109 134 172 224 286 337
#     4  10  24  34  49  76 104 140 196 221 246 312
#     4  11  19  36  55  76 108 147 182 228 264 319
#     4  11  19  36  55  76 108 147 182 228 264 319
#     4   9  17  31  55  82 105 134 175 226 278 326
#     4  10  22  36  52  77 110 148 186 222 270 322
#
# _framework density 21.476108
#
# number of rings (size 3 to 8) (size 9 to 14) (size 15 to 20)
#    0.000    2.267    1.333    4.000    0.000    0.000 
#    0.000    4.000    0.000    1.600    0.000   11.200 
#    0.000    0.000    0.000    0.000    0.000    0.000 
#
# Total GULP energy -668877.785018 kJ/mol
# GULP energy per Si atom -5573.981542 kJ/mol
# Density = 2.142723 g / cm^3
# Si number density = 21.476108 Si / 1000 Ang^3
#
#
#
# Elastic Constant Matrix: (Units=GPa)
#
#
# Indices 1 2 3 4 5 6 
#
# 1 28.8549 17.7496 28.1733 0.0000 0.0000 0.0000
# 2 17.7496 28.8549 28.1733 0.0000 0.0000 0.0000
# 3 28.1733 28.1733 154.4596 0.0000 0.0000 0.0000
# 4 0.0000 0.0000 0.0000 -6.2627 0.0000 0.0000
# 5 0.0000 0.0000 0.0000 0.0000 -6.2627 0.0000
# 6 0.0000 0.0000 0.0000 0.0000 0.0000 24.3740
#
#
#
# Elastic Compliance Matrix: (Units=1/GPa)
#
#
# Indices 1 2 3 4 5 6 
#
# 1 0.058787 -0.031260 -0.005021 0.000000 0.000000 0.000000
# 2 -0.031260 0.058787 -0.005021 0.000000 0.000000 0.000000
# 3 -0.005021 -0.005021 0.008306 0.000000 0.000000 0.000000
# 4 0.000000 0.000000 0.000000 -0.159676 0.000000 0.000000
# 5 0.000000 0.000000 0.000000 0.000000 -0.159676 0.000000
# 6 0.000000 0.000000 0.000000 0.000000 0.000000 0.041027
#
#
# Mechanical properties :
#
#
# Convention : Reuss Voigt Hill
#
# Bulk Modulus (GPa) = 23.10681 40.04020 31.57350
# Shear Modulus (GPa) = -90.22862 11.57460 -39.32701
#
# Velocity S-wave (km/s) = -6.48881 2.32405 -4.28389
# Velocity P-wave (km/s) = 6.73476 5.08785 3.12016
#
# Compressibility (1/GPa) = 0.04327729
#
# Stress axis : x y z
#
# Youngs Moduli (GPa) = 17.01046 17.01046 120.39690
#
# Poissons Ratio (x) = 0.53174 0.60452
# Poissons Ratio (y) = 0.53174 0.60452
# Poissons Ratio (z) = 0.08541 0.08541
#
# Static dielectric constant tensor:
#      x y z
#    x 1.831330 0.000000 0.000000 
#    y 0.000000 1.831330 0.000000 
#    z 0.000000 0.000000 1.792560 
# 
# From -- ./inp_files/5709.got.cif
#   From: 2010.05.17/outbox.cif.g08.bks.cpg/sg135_3_cif.got.tgz:5709.got - 2010.05.20 12:50:20.
