data_PCOD9568840
_publ_section_title
;
Structure prediction by ZEFSAII (Michael W. Deem and Ramdas Pophale) SiO2 
 PCOD9568840
Probable space group: P 42/M B C
;
_chemical_formula_sum "Si O2"
_cell_formula_units_Z 112
_cell_length_a 14.312417
_cell_length_b 14.312417
_cell_length_c 23.718096
_cell_angle_alpha 90.000000
_cell_angle_beta 90.000000
_cell_angle_gamma 90.000000
_cell_volume 4858.540025
_symmetry_space_group_name_H-M "P 42/M B C"
_symmetry_group_IT_number 135
_symmetry_cell_setting 'tetragonal'
loop_
_space_group_symop_operation_xyz
x,y,z
-y,x,1/2+z
-x,-y,z
y,-x,1/2+z
1/2+x,1/2-y,-z
1/2-x,1/2+y,-z
1/2+y,1/2+x,1/2-z
1/2-y,1/2-x,1/2-z
-x,-y,-z
y,-x,1/2-z
x,y,-z
-y,x,1/2-z
1/2-x,1/2+y,z
1/2+x,1/2-y,z
1/2-y,1/2-x,1/2+z
1/2+y,1/2+x,1/2+z
loop_
_atom_site_type_symbol
_atom_site_label
_atom_site_fract_x
_atom_site_fract_y
_atom_site_fract_z
Si Si1 0.907762 0.076815 0.157298
Si Si2 0.995386 0.653443 0.240397
Si Si3 0.260388 0.699444 0.124043
Si Si4 0.739327 0.500624 0.067090
Si Si5 0.165822 0.085619 0.220367
Si Si6 0.458920 0.237007 0.121242
Si Si7 0.146668 0.383066 0.564458
O O1 0.830154 0.057282 0.108601
O O2 0.891750 0.133482 0.216409
O O3 0.974816 0.151096 0.124133
O O4 0.912236 0.971630 0.185182
O O5 0.078014 0.578014 0.250000
O O6 0.017396 0.744061 0.277572
O O7 0.000920 0.690099 0.177343
O O8 0.898911 0.601090 0.250000
O O9 0.268935 0.606056 0.086471
O O10 0.298426 0.673745 0.185932
O O11 0.151970 0.725049 0.122884
O O12 0.322773 0.781866 0.100729
O O13 0.843663 0.543172 0.077281
O O14 0.717932 0.509682 0.000000
O O15 0.510385 0.177439 0.073510
O O16 0.163460 0.358420 0.500000
#
# Coordination Sequence:
#
# PCOD9568840 Si02
#       7
#    16  16  16  16  16  16  16
#     4  10  23  43  65  96 135 183 225 285 340 410
#     4  10  21  35  58  93 133 168 210 268 335 421
#     4  11  23  44  71  99 140 180 231 290 352 421
#     4  10  23  45  72 101 136 185 234 288 352 413
#     4  10  23  41  62 100 132 181 229 279 345 416
#     4  11  24  42  68 101 135 183 228 284 357 412
#     4  11  26  45  69 102 134 179 241 289 349 421
#
# _framework density 23.052192999999999
#
# number of rings (size 3 to 8) (size 9 to 14) (size 15 to 20)
#    0.000    1.571    2.857    0.429    8.000    2.571 
#    2.571    1.429    0.000    2.571    0.000    0.000 
#    0.000    0.000    0.000    0.000    0.000    0.000 
#
# Total GULP energy -625171.512073 kJ/mol
# GULP energy per Si atom -5581.888501 kJ/mol
# Density = 2.299972 g / cm^3
# Si number density = 23.052193 Si / 1000 Ang^3
#
#
#
# Elastic Constant Matrix: (Units=GPa)
#
#
# Indices 1 2 3 4 5 6 
#
# 1 76.7902 15.6282 7.9655 0.0000 0.0000 0.0000
# 2 15.6282 76.7888 7.9656 0.0000 0.0000 0.0000
# 3 7.9655 7.9656 85.6556 0.0000 0.0000 0.0000
# 4 0.0000 0.0000 0.0000 24.2749 0.0000 0.0000
# 5 0.0000 0.0000 0.0000 0.0000 24.2752 0.0000
# 6 0.0000 0.0000 0.0000 0.0000 0.0000 38.2153
#
#
#
# Elastic Compliance Matrix: (Units=1/GPa)
#
#
# Indices 1 2 3 4 5 6 
#
# 1 0.013673 -0.002677 -0.001023 0.000000 0.000000 0.000000
# 2 -0.002677 0.013674 -0.001023 0.000000 0.000000 0.000000
# 3 -0.001023 -0.001023 0.011865 0.000000 0.000000 0.000000
# 4 0.000000 0.000000 0.000000 0.041195 0.000000 0.000000
# 5 0.000000 0.000000 0.000000 0.000000 0.041194 0.000000
# 6 0.000000 0.000000 0.000000 0.000000 0.000000 0.026168
#
#
# Mechanical properties :
#
#
# Convention : Reuss Voigt Hill
#
# Bulk Modulus (GPa) = 33.59340 33.59478 33.59409
# Shear Modulus (GPa) = 29.91592 31.19810 30.55701
#
# Velocity S-wave (km/s) = 3.60633 3.68281 3.64477
# Velocity P-wave (km/s) = 5.65201 5.71744 5.68482
#
# Compressibility (1/GPa) = 0.02976776
#
# Stress axis : x y z
#
# Youngs Moduli (GPa) = 73.13503 73.13366 84.28246
#
# Poissons Ratio (x) = 0.19576 0.08619
# Poissons Ratio (y) = 0.19576 0.08619
# Poissons Ratio (z) = 0.07479 0.07479
#
# Static dielectric constant tensor:
#      x y z
#    x 2.111460 0.000000 0.000000 
#    y 0.000000 2.111470 0.000000 
#    z 0.000000 0.000000 1.882020 
# 
# From -- ./inp_files/6155.got.cif
#   From: 2010.05.17/outbox.cif.g08.bks.cpg/sg135_4_cif.got.tgz:6155.got - 2010.05.20 12:50:20.
