data_PCOD9568870
_publ_section_title
;
Structure prediction by ZEFSAII (Michael W. Deem and Ramdas Pophale) SiO2 
 PCOD9568870
Probable space group: P 42/M B C
;
_chemical_formula_sum "Si O2"
_cell_formula_units_Z 64
_cell_length_a 14.299641
_cell_length_b 14.299641
_cell_length_c 17.193151
_cell_angle_alpha 90.000000
_cell_angle_beta 90.000000
_cell_angle_gamma 90.000000
_cell_volume 3515.650921
_symmetry_space_group_name_H-M "P 42/M B C"
_symmetry_group_IT_number 135
_symmetry_cell_setting 'tetragonal'
loop_
_space_group_symop_operation_xyz
x,y,z
-y,x,1/2+z
-x,-y,z
y,-x,1/2+z
1/2+x,1/2-y,-z
1/2-x,1/2+y,-z
1/2+y,1/2+x,1/2-z
1/2-y,1/2-x,1/2-z
-x,-y,-z
y,-x,1/2-z
x,y,-z
-y,x,1/2-z
1/2-x,1/2+y,z
1/2+x,1/2-y,z
1/2-y,1/2-x,1/2+z
1/2+y,1/2+x,1/2+z
loop_
_atom_site_type_symbol
_atom_site_label
_atom_site_fract_x
_atom_site_fract_y
_atom_site_fract_z
Si Si1 0.409521 0.276284 0.089790
Si Si2 0.851706 0.016489 0.265415
Si Si3 0.033466 0.399577 0.908191
Si Si4 0.272111 0.848316 0.174183
O O1 0.305250 0.302494 0.117830
O O2 0.444562 0.169579 0.097012
O O3 0.480117 0.325171 0.149754
O O4 0.421176 0.304183 0.000000
O O5 0.902102 0.928077 0.226425
O O6 0.770015 0.055952 0.210600
O O7 0.126531 0.363795 0.864408
O O8 0.000000 0.500000 0.878643
O O9 0.057534 0.407175 0.000000
O O10 0.283917 0.783917 0.250000
#
# Coordination Sequence:
#
# PCOD9568870 Si02
#       4
#    16  16  16  16
#     4  10  21  39  61  85 118 157 194 244 300 356
#     4   9  19  37  57  83 117 151 196 244 290 349
#     4  10  22  40  58  84 119 153 193 244 298 357
#     4  11  21  37  59  88 115 157 199 247 292 356
#
# _framework density 18.204308999999999
#
# number of rings (size 3 to 8) (size 9 to 14) (size 15 to 20)
#    0.000    2.000    2.500    0.750    0.000    4.500 
#    0.000   11.250    0.000    0.000    0.000    0.000 
#    0.000    0.000    0.000    0.000    0.000    0.000 
#
# Total GULP energy -356551.972212 kJ/mol
# GULP energy per Si atom -5571.124566 kJ/mol
# Density = 1.816288 g / cm^3
# Si number density = 18.204309 Si / 1000 Ang^3
#
#
#
# Elastic Constant Matrix: (Units=GPa)
#
#
# Indices 1 2 3 4 5 6 
#
# 1 76.3973 50.3559 46.9197 0.0000 0.0000 0.0000
# 2 50.3559 76.3973 46.9197 0.0000 0.0000 0.0000
# 3 46.9197 46.9197 95.5726 0.0000 0.0000 0.0000
# 4 0.0000 0.0000 0.0000 24.7269 0.0000 0.0000
# 5 0.0000 0.0000 0.0000 0.0000 24.7269 0.0000
# 6 0.0000 0.0000 0.0000 0.0000 0.0000 27.5257
#
#
#
# Elastic Compliance Matrix: (Units=1/GPa)
#
#
# Indices 1 2 3 4 5 6 
#
# 1 0.025397 -0.013003 -0.006085 0.000000 0.000000 0.000000
# 2 -0.013003 0.025397 -0.006085 0.000000 0.000000 0.000000
# 3 -0.006085 -0.006085 0.016438 0.000000 0.000000 0.000000
# 4 0.000000 0.000000 0.000000 0.040442 0.000000 0.000000
# 5 0.000000 0.000000 0.000000 0.000000 0.040442 0.000000
# 6 0.000000 0.000000 0.000000 0.000000 0.000000 0.036330
#
#
# Mechanical properties :
#
#
# Convention : Reuss Voigt Hill
#
# Bulk Modulus (GPa) = 59.21705 59.63978 59.42842
# Shear Modulus (GPa) = 20.79704 22.34071 21.56887
#
# Velocity S-wave (km/s) = 3.38364 3.50697 3.44586
# Velocity P-wave (km/s) = 6.91846 7.01648 6.96764
#
# Compressibility (1/GPa) = 0.01688703
#
# Stress axis : x y z
#
# Youngs Moduli (GPa) = 39.37443 39.37443 60.83643
#
# Poissons Ratio (x) = 0.51199 0.37017
# Poissons Ratio (y) = 0.51199 0.37017
# Poissons Ratio (z) = 0.23958 0.23958
#
# Static dielectric constant tensor:
#      x y z
#    x 1.643300 0.000000 0.000000 
#    y 0.000000 1.643300 0.000000 
#    z 0.000000 0.000000 1.619160 
# 
# From -- ./inp_files/4160.got.cif
#   From: 2010.05.17/outbox.cif.g08.bks.cpg/sg135_3_cif.got.tgz:4160.got - 2010.05.20 12:50:20.
