data_PCOD9568273
_publ_section_title
;
Structure prediction by ZEFSAII (Michael W. Deem and Ramdas Pophale) SiO2 
 PCOD9568273
Probable space group: P 42/N N M
;
_chemical_formula_sum "Si O2"
_cell_formula_units_Z 80
_cell_length_a 11.414446
_cell_length_b 11.414446
_cell_length_c 30.304416
_cell_angle_alpha 90.000000
_cell_angle_beta 90.000000
_cell_angle_gamma 90.000000
_cell_volume 3948.349557
_symmetry_space_group_name_H-M "P 42/N N M"
_symmetry_group_IT_number 134
_space_group.IT_coordinate_system_code '2'
_symmetry_cell_setting 'tetragonal'
loop_
_space_group_symop_operation_xyz
x,y,z
1/2-y,x,1/2+z
1/2-x,1/2-y,z
y,1/2-x,1/2+z
x,1/2-y,1/2-z
1/2-x,y,1/2-z
y,x,-z
1/2-y,1/2-x,-z
-x,-y,-z
1/2+y,-x,1/2-z
1/2+x,1/2+y,-z
-y,1/2+x,1/2-z
-x,1/2+y,1/2+z
1/2+x,-y,1/2+z
-y,-x,z
1/2+y,1/2+x,z
loop_
_atom_site_type_symbol
_atom_site_label
_atom_site_fract_x
_atom_site_fract_y
_atom_site_fract_z
Si Si1 0.747158 0.059879 0.981875
Si Si2 0.976737 0.838371 0.111971
Si Si3 0.940992 0.244016 0.197443
Si Si4 0.597778 0.595575 0.358867
Si Si5 0.254336 0.389880 0.938369
O O1 0.846850 0.153151 0.995414
O O2 0.623328 0.123328 0.985734
O O3 0.755966 0.952499 0.015021
O O4 0.773366 0.029619 0.931275
O O5 0.075967 0.924034 0.130577
O O6 0.930636 0.733868 0.142912
O O7 0.870606 0.912374 0.090686
O O8 0.959997 0.250000 0.250000
O O9 0.882429 0.117572 0.186563
O O10 0.839095 0.339095 0.187211
O O11 0.052840 0.295591 0.172237
O O12 0.483655 0.516346 0.349948
O O13 0.645064 0.572157 0.408421
O O14 0.250000 0.250000 0.942535
#
# Coordination Sequence:
#
# PCOD9568273 Si02
#       5
#    16  16  16  16  16
#     4  10  20  34  52  72  96 134 185 233 274 314
#     4  10  21  36  51  70 106 153 190 220 260 314
#     4   8  15  30  53  82 115 143 165 204 272 342
#     4  10  20  33  53  81 109 139 178 220 264 320
#     4  10  21  34  49  72 103 139 180 228 277 320
#
# _framework density 20.261631999999999
#
# number of rings (size 3 to 8) (size 9 to 14) (size 15 to 20)
#    0.000    2.400    0.000    3.000    0.000   10.000 
#    0.000    7.000    0.000    5.400    0.000    0.000 
#    0.000    8.000    0.000   28.000    0.000    0.400 
#
# Total GULP energy -446540.644074 kJ/mol
# GULP energy per Si atom -5581.758051 kJ/mol
# Density = 2.021552 g / cm^3
# Si number density = 20.261632 Si / 1000 Ang^3
#
#
#
# Elastic Constant Matrix: (Units=GPa)
#
#
# Indices 1 2 3 4 5 6 
#
# 1 86.7732 43.6138 24.8481 0.0000 0.0000 0.0000
# 2 43.6138 86.7732 24.8481 0.0000 0.0000 0.0000
# 3 24.8481 24.8481 33.4550 0.0000 0.0000 0.0000
# 4 0.0000 0.0000 0.0000 24.3071 0.0000 0.0000
# 5 0.0000 0.0000 0.0000 0.0000 24.3071 0.0000
# 6 0.0000 0.0000 0.0000 0.0000 0.0000 37.8706
#
#
#
# Elastic Compliance Matrix: (Units=1/GPa)
#
#
# Indices 1 2 3 4 5 6 
#
# 1 0.016934 -0.006236 -0.007946 0.000000 0.000000 0.000000
# 2 -0.006236 0.016934 -0.007946 0.000000 0.000000 0.000000
# 3 -0.007946 -0.007946 0.041694 0.000000 0.000000 0.000000
# 4 0.000000 0.000000 0.000000 0.041140 0.000000 0.000000
# 5 0.000000 0.000000 0.000000 0.000000 0.041140 0.000000
# 6 0.000000 0.000000 0.000000 0.000000 0.000000 0.026406
#
#
# Mechanical properties :
#
#
# Convention : Reuss Voigt Hill
#
# Bulk Modulus (GPa) = 31.94171 43.73573 37.83872
# Shear Modulus (GPa) = 20.92586 24.87635 22.90110
#
# Velocity S-wave (km/s) = 3.21718 3.50774 3.36560
# Velocity P-wave (km/s) = 5.44051 6.16749 5.81537
#
# Compressibility (1/GPa) = 0.03130703
#
# Stress axis : x y z
#
# Youngs Moduli (GPa) = 59.05303 59.05303 23.98424
#
# Poissons Ratio (x) = 0.36825 0.19057
# Poissons Ratio (y) = 0.36825 0.19057
# Poissons Ratio (z) = 0.46922 0.46922
#
# Static dielectric constant tensor:
#      x y z
#    x 1.768100 0.000000 0.000000 
#    y 0.000000 1.768100 0.000000 
#    z 0.000000 0.000000 1.701480 
# 
# From -- ./inp_files/11273.got.cif
#   From: 2010.05.17/outbox.cif.g08.bks.cpg/sg134_6_cif.got.tgz:11273.got - 2010.05.20 12:42:49.
