data_PCOD9568732
_publ_section_title
;
Structure prediction by ZEFSAII (Michael W. Deem and Ramdas Pophale) SiO2 
 PCOD9568732
Probable space group: P 42/M B C
;
_chemical_formula_sum "Si O2"
_cell_formula_units_Z 64
_cell_length_a 12.265403
_cell_length_b 12.265403
_cell_length_c 17.334746
_cell_angle_alpha 90.000000
_cell_angle_beta 90.000000
_cell_angle_gamma 90.000000
_cell_volume 2607.841108
_symmetry_space_group_name_H-M "P 42/M B C"
_symmetry_group_IT_number 135
_symmetry_cell_setting 'tetragonal'
loop_
_space_group_symop_operation_xyz
x,y,z
-y,x,1/2+z
-x,-y,z
y,-x,1/2+z
1/2+x,1/2-y,-z
1/2-x,1/2+y,-z
1/2+y,1/2+x,1/2-z
1/2-y,1/2-x,1/2-z
-x,-y,-z
y,-x,1/2-z
x,y,-z
-y,x,1/2-z
1/2-x,1/2+y,z
1/2+x,1/2-y,z
1/2-y,1/2-x,1/2+z
1/2+y,1/2+x,1/2+z
loop_
_atom_site_type_symbol
_atom_site_label
_atom_site_fract_x
_atom_site_fract_y
_atom_site_fract_z
Si Si1 0.733250 0.960474 0.328403
Si Si2 0.055826 0.644868 0.588211
Si Si3 0.133043 0.831378 0.673479
Si Si4 0.654036 0.572991 0.089874
O O1 0.609523 0.945723 0.357068
O O2 0.765614 0.897530 0.250243
O O3 0.816204 0.906627 0.390161
O O4 0.770408 0.084751 0.317297
O O5 0.057349 0.609835 0.500000
O O6 0.142493 0.743950 0.604686
O O7 0.944274 0.713851 0.602966
O O8 0.021361 0.889076 0.646719
O O9 0.637053 0.546822 0.000000
#
# Coordination Sequence:
#
# PCOD9568732 Si02
#       4
#    16  16  16  16
#     4  12  19  32  56  76 106 142 165 217 273 300
#     4   9  21  34  47  75 107 138 177 213 256 314
#     4  10  20  32  51  80 107 130 177 215 256 316
#     4   9  20  33  49  77 106 132 175 215 253 312
#
# _framework density 24.541371000000002
#
# number of rings (size 3 to 8) (size 9 to 14) (size 15 to 20)
#    1.500    0.500    2.500    2.250    0.000    5.000 
#    0.000    0.000    0.000    1.500    0.000    8.750 
#    0.000    0.000    0.000    0.000    0.000    0.000 
#
# Total GULP energy -356377.098722 kJ/mol
# GULP energy per Si atom -5568.392168 kJ/mol
# Density = 2.448551 g / cm^3
# Si number density = 24.541371 Si / 1000 Ang^3
#
#
#
# Elastic Constant Matrix: (Units=GPa)
#
#
# Indices 1 2 3 4 5 6 
#
# 1 72.4869 32.7473 18.5492 0.0000 0.0000 0.0000
# 2 32.7473 72.4869 18.5492 0.0000 0.0000 0.0000
# 3 18.5492 18.5492 120.3508 0.0000 0.0000 0.0000
# 4 0.0000 0.0000 0.0000 36.3476 0.0000 0.0000
# 5 0.0000 0.0000 0.0000 0.0000 36.3476 0.0000
# 6 0.0000 0.0000 0.0000 0.0000 0.0000 48.0467
#
#
#
# Elastic Compliance Matrix: (Units=1/GPa)
#
#
# Indices 1 2 3 4 5 6 
#
# 1 0.017606 -0.007558 -0.001549 0.000000 0.000000 0.000000
# 2 -0.007558 0.017606 -0.001549 0.000000 0.000000 0.000000
# 3 -0.001549 -0.001549 0.008786 0.000000 0.000000 0.000000
# 4 0.000000 0.000000 0.000000 0.027512 0.000000 0.000000
# 5 0.000000 0.000000 0.000000 0.000000 0.027512 0.000000
# 6 0.000000 0.000000 0.000000 0.000000 0.000000 0.020813
#
#
# Mechanical properties :
#
#
# Convention : Reuss Voigt Hill
#
# Bulk Modulus (GPa) = 44.07492 45.00177 44.53835
# Shear Modulus (GPa) = 33.62263 37.18029 35.40146
#
# Velocity S-wave (km/s) = 3.70542 3.89653 3.80217
# Velocity P-wave (km/s) = 6.02539 6.21457 6.12071
#
# Compressibility (1/GPa) = 0.02268864
#
# Stress axis : x y z
#
# Youngs Moduli (GPa) = 56.79817 56.79817 113.81164
#
# Poissons Ratio (x) = 0.42926 0.17627
# Poissons Ratio (y) = 0.42926 0.17627
# Poissons Ratio (z) = 0.08797 0.08797
#
# Static dielectric constant tensor:
#      x y z
#    x 2.067730 0.000000 0.000000 
#    y 0.000000 2.067730 0.000000 
#    z 0.000000 0.000000 1.940930 
# 
# From -- ./inp_files/4162.got.cif
#   From: 2010.05.17/outbox.cif.g08.bks.cpg/sg135_3_cif.got.tgz:4162.got - 2010.05.20 12:50:20.
