data_PCOD9568316
_publ_section_title
;
Structure prediction by ZEFSAII (Michael W. Deem and Ramdas Pophale) SiO2 
 PCOD9568316
Probable space group: P 42/N N M
;
_chemical_formula_sum "Si O2"
_cell_formula_units_Z 80
_cell_length_a 12.020540
_cell_length_b 12.020540
_cell_length_c 26.124787
_cell_angle_alpha 90.000000
_cell_angle_beta 90.000000
_cell_angle_gamma 90.000000
_cell_volume 3774.858825
_symmetry_space_group_name_H-M "P 42/N N M"
_symmetry_group_IT_number 134
_space_group.IT_coordinate_system_code '2'
_symmetry_cell_setting 'tetragonal'
loop_
_space_group_symop_operation_xyz
x,y,z
1/2-y,x,1/2+z
1/2-x,1/2-y,z
y,1/2-x,1/2+z
x,1/2-y,1/2-z
1/2-x,y,1/2-z
y,x,-z
1/2-y,1/2-x,-z
-x,-y,-z
1/2+y,-x,1/2-z
1/2+x,1/2+y,-z
-y,1/2+x,1/2-z
-x,1/2+y,1/2+z
1/2+x,-y,1/2+z
-y,-x,z
1/2+y,1/2+x,z
loop_
_atom_site_type_symbol
_atom_site_label
_atom_site_fract_x
_atom_site_fract_y
_atom_site_fract_z
Si Si1 0.069033 0.394685 0.336894
Si Si2 0.436811 0.382444 0.557571
Si Si3 0.213570 0.538289 0.193278
Si Si4 0.965237 0.642723 0.834720
Si Si5 0.874186 0.550777 0.554708
O O1 0.176077 0.474696 0.327532
O O2 0.061971 0.268266 0.317857
O O3 0.064810 0.387593 0.398825
O O4 0.963593 0.463593 0.317509
O O5 0.391227 0.391227 0.500000
O O6 0.552695 0.447306 0.557440
O O7 0.368401 0.436096 0.604354
O O8 0.451912 0.253958 0.568049
O O9 0.250000 0.570052 0.250000
O O10 0.146926 0.646926 0.170563
O O11 0.120602 0.441505 0.192400
O O12 0.087848 0.587848 0.827517
O O13 0.892811 0.607190 0.500000
O O14 0.929533 0.429533 0.551462
#
# Coordination Sequence:
#
# PCOD9568316 Si02
#       5
#    16  16  16  16  16
#     4  11  23  38  61  91 124 166 211 259 321 386
#     4  10  20  35  57  84 115 160 211 258 313 375
#     4  11  24  43  67  94 126 163 210 270 329 386
#     4  10  22  40  61  90 124 162 215 267 314 380
#     4  10  21  35  53  83 121 160 204 257 319 380
#
# _framework density 21.192844000000001
#
# number of rings (size 3 to 8) (size 9 to 14) (size 15 to 20)
#    0.000    1.600    2.000    2.400    0.000    5.800 
#    0.000    2.000    0.000    7.200    0.000    2.800 
#    0.000    0.000    0.000    0.000    0.000    0.000 
#
# Total GULP energy -445916.171704 kJ/mol
# GULP energy per Si atom -5573.952146 kJ/mol
# Density = 2.114461 g / cm^3
# Si number density = 21.192844 Si / 1000 Ang^3
#
#
#
# Elastic Constant Matrix: (Units=GPa)
#
#
# Indices 1 2 3 4 5 6 
#
# 1 136.9870 34.3683 10.2955 0.0000 0.0000 0.0000
# 2 34.3683 136.9885 10.2954 0.0000 0.0000 0.0000
# 3 10.2955 10.2954 54.4427 0.0000 0.0000 0.0000
# 4 0.0000 0.0000 0.0000 30.6293 0.0000 0.0000
# 5 0.0000 0.0000 0.0000 0.0000 30.6244 0.0000
# 6 0.0000 0.0000 0.0000 0.0000 0.0000 14.4322
#
#
#
# Elastic Compliance Matrix: (Units=1/GPa)
#
#
# Indices 1 2 3 4 5 6 
#
# 1 0.007858 -0.001887 -0.001129 0.000000 0.000000 0.000000
# 2 -0.001887 0.007858 -0.001129 0.000000 0.000000 0.000000
# 3 -0.001129 -0.001129 0.018795 0.000000 0.000000 0.000000
# 4 0.000000 0.000000 0.000000 0.032649 0.000000 0.000000
# 5 0.000000 0.000000 0.000000 0.000000 0.032654 0.000000
# 6 0.000000 0.000000 0.000000 0.000000 0.000000 0.069289
#
#
# Mechanical properties :
#
#
# Convention : Reuss Voigt Hill
#
# Bulk Modulus (GPa) = 38.13732 48.70408 43.42070
# Shear Modulus (GPa) = 26.86243 33.36777 30.11510
#
# Velocity S-wave (km/s) = 3.56409 3.97228 3.77371
# Velocity P-wave (km/s) = 5.91367 6.63852 6.28655
#
# Compressibility (1/GPa) = 0.02622104
#
# Stress axis : x y z
#
# Youngs Moduli (GPa) = 127.25618 127.25763 53.20552
#
# Poissons Ratio (x) = 0.24009 0.06008
# Poissons Ratio (y) = 0.24008 0.06008
# Poissons Ratio (z) = 0.14371 0.14370
#
# Static dielectric constant tensor:
#      x y z
#    x 1.763330 0.000000 0.000000 
#    y 0.000000 1.763330 0.000000 
#    z 0.000000 0.000000 1.854920 
# 
# From -- ./inp_files/11301.got.cif
#   From: 2010.05.17/outbox.cif.g08.bks.cpg/sg134_6_cif.got.tgz:11301.got - 2010.05.20 12:42:49.
