data_PCOD9568754
_publ_section_title
;
Structure prediction by ZEFSAII (Michael W. Deem and Ramdas Pophale) SiO2 
 PCOD9568754
Probable space group: P 42/M B C
;
_chemical_formula_sum "Si O2"
_cell_formula_units_Z 112
_cell_length_a 15.473916
_cell_length_b 15.473916
_cell_length_c 25.204215
_cell_angle_alpha 90.000000
_cell_angle_beta 90.000000
_cell_angle_gamma 90.000000
_cell_volume 6034.949573
_symmetry_space_group_name_H-M "P 42/M B C"
_symmetry_group_IT_number 135
_symmetry_cell_setting 'tetragonal'
loop_
_space_group_symop_operation_xyz
x,y,z
-y,x,1/2+z
-x,-y,z
y,-x,1/2+z
1/2+x,1/2-y,-z
1/2-x,1/2+y,-z
1/2+y,1/2+x,1/2-z
1/2-y,1/2-x,1/2-z
-x,-y,-z
y,-x,1/2-z
x,y,-z
-y,x,1/2-z
1/2-x,1/2+y,z
1/2+x,1/2-y,z
1/2-y,1/2-x,1/2+z
1/2+y,1/2+x,1/2+z
loop_
_atom_site_type_symbol
_atom_site_label
_atom_site_fract_x
_atom_site_fract_y
_atom_site_fract_z
Si Si1 0.978522 0.094056 0.383788
Si Si2 0.678496 0.554577 0.698314
Si Si3 0.813036 0.705002 0.141054
Si Si4 0.085729 0.611402 0.060717
Si Si5 0.603091 0.095081 0.061583
Si Si6 0.225284 0.144259 0.063291
Si Si7 0.861119 0.859890 0.311666
O O1 0.905013 0.076808 0.338658
O O2 0.937835 0.166751 0.421438
O O3 0.066091 0.126209 0.356539
O O4 0.000000 0.000000 0.408654
O O5 0.760182 0.610488 0.678518
O O6 0.688989 0.451035 0.694752
O O7 0.657244 0.587230 0.757236
O O8 0.831751 0.618266 0.108209
O O9 0.812697 0.773909 0.093177
O O10 0.723128 0.695738 0.172320
O O11 0.092407 0.507740 0.059417
O O12 0.176119 0.640133 0.084716
O O13 0.989942 0.634156 0.079703
O O14 0.086041 0.642775 0.000000
O O15 0.622403 0.121575 0.000000
O O16 0.226284 0.152759 0.000000
#
# Coordination Sequence:
#
# PCOD9568754 Si02
#       7
#    16  16  16  16  16  16  16
#     4   9  19  34  58  85 106 149 202 237 295 359
#     4  10  21  37  59  82 111 148 190 243 300 357
#     4  11  23  32  54  88 115 144 191 238 294 358
#     4   8  16  31  54  72  97 150 198 220 265 338
#     4   9  17  33  54  78 109 148 190 234 274 333
#     4  10  20  35  51  79 121 153 184 239 297 349
#     4  11  20  38  61  81 110 149 195 246 297 358
#
# _framework density 18.558565000000002
#
# number of rings (size 3 to 8) (size 9 to 14) (size 15 to 20)
#    0.000    2.286    1.429    2.571    2.000    0.286 
#    0.000    0.714    0.000    0.857    0.000    4.000 
#    0.000    0.000    0.000    0.000    0.000    0.000 
#
# Total GULP energy -623490.884523 kJ/mol
# GULP energy per Si atom -5566.882898 kJ/mol
# Density = 1.851633 g / cm^3
# Si number density = 18.558565 Si / 1000 Ang^3
#
#
#
# Elastic Constant Matrix: (Units=GPa)
#
#
# Indices 1 2 3 4 5 6 
#
# 1 61.5195 12.4596 25.0995 0.0000 0.0000 0.0000
# 2 12.4596 61.5195 25.0995 0.0000 0.0000 0.0000
# 3 25.0995 25.0995 53.0156 0.0000 0.0000 0.0000
# 4 0.0000 0.0000 0.0000 19.0074 0.0000 0.0000
# 5 0.0000 0.0000 0.0000 0.0000 19.0074 0.0000
# 6 0.0000 0.0000 0.0000 0.0000 0.0000 27.8260
#
#
#
# Elastic Compliance Matrix: (Units=1/GPa)
#
#
# Indices 1 2 3 4 5 6 
#
# 1 0.020149 -0.000234 -0.009429 0.000000 0.000000 0.000000
# 2 -0.000234 0.020149 -0.009429 0.000000 0.000000 0.000000
# 3 -0.009429 -0.009429 0.027790 0.000000 0.000000 0.000000
# 4 0.000000 0.000000 0.000000 0.052611 0.000000 0.000000
# 5 0.000000 0.000000 0.000000 0.000000 0.052611 0.000000
# 6 0.000000 0.000000 0.000000 0.000000 0.000000 0.035938
#
#
# Mechanical properties :
#
#
# Convention : Reuss Voigt Hill
#
# Bulk Modulus (GPa) = 33.43800 33.48575 33.46187
# Shear Modulus (GPa) = 19.42510 20.72790 20.07650
#
# Velocity S-wave (km/s) = 3.23877 3.34562 3.29263
# Velocity P-wave (km/s) = 5.66064 5.74514 5.70305
#
# Compressibility (1/GPa) = 0.02990610
#
# Stress axis : x y z
#
# Youngs Moduli (GPa) = 49.62981 49.62981 35.98425
#
# Poissons Ratio (x) = 0.01162 0.33928
# Poissons Ratio (y) = 0.01162 0.33928
# Poissons Ratio (z) = 0.46794 0.46794
#
# Static dielectric constant tensor:
#      x y z
#    x 1.688910 0.000000 0.000000 
#    y 0.000000 1.688910 0.000000 
#    z 0.000000 0.000000 1.620950 
# 
# From -- ./inp_files/6113.got.cif
#   From: 2010.05.17/outbox.cif.g08.bks.cpg/sg135_4_cif.got.tgz:6113.got - 2010.05.20 12:50:20.
