data_PCOD9568508
_publ_section_title
;
Structure prediction by ZEFSAII (Michael W. Deem and Ramdas Pophale) SiO2 
 PCOD9568508
Probable space group: P 42/N N M
;
_chemical_formula_sum "Si O2"
_cell_formula_units_Z 48
_cell_length_a 15.676348
_cell_length_b 15.676348
_cell_length_c 9.331432
_cell_angle_alpha 90.000000
_cell_angle_beta 90.000000
_cell_angle_gamma 90.000000
_cell_volume 2293.179693
_symmetry_space_group_name_H-M "P 42/N N M"
_symmetry_group_IT_number 134
_space_group.IT_coordinate_system_code '2'
_symmetry_cell_setting 'tetragonal'
loop_
_space_group_symop_operation_xyz
x,y,z
1/2-y,x,1/2+z
1/2-x,1/2-y,z
y,1/2-x,1/2+z
x,1/2-y,1/2-z
1/2-x,y,1/2-z
y,x,-z
1/2-y,1/2-x,-z
-x,-y,-z
1/2+y,-x,1/2-z
1/2+x,1/2+y,-z
-y,1/2+x,1/2-z
-x,1/2+y,1/2+z
1/2+x,-y,1/2+z
-y,-x,z
1/2+y,1/2+x,z
loop_
_atom_site_type_symbol
_atom_site_label
_atom_site_fract_x
_atom_site_fract_y
_atom_site_fract_z
Si Si1 0.801895 0.062621 0.874259
Si Si2 0.041929 0.816507 0.638233
Si Si3 0.069960 0.426097 0.334809
O O1 0.750000 0.108530 0.750000
O O2 0.873615 0.126385 0.936474
O O3 0.852549 0.987224 0.792543
O O4 0.740067 0.028544 0.997436
O O5 0.083020 0.750000 0.750000
O O6 0.105906 0.894095 0.604997
O O7 0.959053 0.854163 0.722462
O O8 0.094622 0.405379 0.500000
O O9 0.986180 0.486180 0.343757
#
# Coordination Sequence:
#
# PCOD9568508 Si02
#       3
#    16  16  16
#     4  11  23  38  57  86 125 163 200 256 320 372
#     4  11  21  34  58  88 118 159 205 252 309 371
#     4   9  18  36  58  82 114 154 205 251 290 357
#
# _framework density 20.931635
#
# number of rings (size 3 to 8) (size 9 to 14) (size 15 to 20)
#    0.000    1.667    3.333    2.000    0.000    5.333 
#    0.000    5.000    0.000    1.000    0.000    0.000 
#    0.000    0.000    0.000    0.000    0.000    0.000 
#
# Total GULP energy -267312.393630 kJ/mol
# GULP energy per Si atom -5569.008201 kJ/mol
# Density = 2.088399 g / cm^3
# Si number density = 20.931635 Si / 1000 Ang^3
#
#
#
# Elastic Constant Matrix: (Units=GPa)
#
#
# Indices 1 2 3 4 5 6 
#
# 1 84.9500 60.2014 50.8923 0.0000 0.0000 0.0000
# 2 60.2014 84.9497 50.8921 0.0000 0.0000 0.0000
# 3 50.8923 50.8921 122.0373 0.0000 0.0000 0.0000
# 4 0.0000 0.0000 0.0000 38.4752 0.0000 0.0000
# 5 0.0000 0.0000 0.0000 0.0000 38.4753 0.0000
# 6 0.0000 0.0000 0.0000 0.0000 0.0000 24.9122
#
#
#
# Elastic Compliance Matrix: (Units=1/GPa)
#
#
# Indices 1 2 3 4 5 6 
#
# 1 0.025072 -0.015335 -0.004060 0.000000 0.000000 0.000000
# 2 -0.015335 0.025072 -0.004060 0.000000 0.000000 0.000000
# 3 -0.004060 -0.004060 0.011581 0.000000 0.000000 0.000000
# 4 0.000000 0.000000 0.000000 0.025991 0.000000 0.000000
# 5 0.000000 0.000000 0.000000 0.000000 0.025991 0.000000
# 6 0.000000 0.000000 0.000000 0.000000 0.000000 0.040141
#
#
# Mechanical properties :
#
#
# Convention : Reuss Voigt Hill
#
# Bulk Modulus (GPa) = 67.51068 68.43428 67.97248
# Shear Modulus (GPa) = 24.30782 29.03596 26.67189
#
# Velocity S-wave (km/s) = 3.41148 3.72853 3.57352
# Velocity P-wave (km/s) = 6.91668 7.16248 7.04065
#
# Compressibility (1/GPa) = 0.01481247
#
# Stress axis : x y z
#
# Youngs Moduli (GPa) = 39.88589 39.88581 86.35022
#
# Poissons Ratio (x) = 0.61165 0.35062
# Poissons Ratio (y) = 0.61165 0.35061
# Poissons Ratio (z) = 0.16195 0.16195
#
# Static dielectric constant tensor:
#      x y z
#    x 1.815270 0.000000 0.000000 
#    y 0.000000 1.815280 0.000000 
#    z 0.000000 0.000000 1.792380 
# 
# From -- ./inp_files/2075.got.cif
#   From: 2010.05.17/outbox.cif.g08.bks.cpg/sg134_2_cif.got.tgz:2075.got - 2010.05.20 12:42:49.
