data_PCOD9568099
_publ_section_title
;
Structure prediction by ZEFSAII (Michael W. Deem and Ramdas Pophale) SiO2 
 PCOD9568099
Probable space group: P 42/N N M
;
_chemical_formula_sum "Si O2"
_cell_formula_units_Z 96
_cell_length_a 20.928181
_cell_length_b 20.928181
_cell_length_c 13.330942
_cell_angle_alpha 90.000000
_cell_angle_beta 90.000000
_cell_angle_gamma 90.000000
_cell_volume 5838.802756
_symmetry_space_group_name_H-M "P 42/N N M"
_symmetry_group_IT_number 134
_space_group.IT_coordinate_system_code '2'
_symmetry_cell_setting 'tetragonal'
loop_
_space_group_symop_operation_xyz
x,y,z
1/2-y,x,1/2+z
1/2-x,1/2-y,z
y,1/2-x,1/2+z
x,1/2-y,1/2-z
1/2-x,y,1/2-z
y,x,-z
1/2-y,1/2-x,-z
-x,-y,-z
1/2+y,-x,1/2-z
1/2+x,1/2+y,-z
-y,1/2+x,1/2-z
-x,1/2+y,1/2+z
1/2+x,-y,1/2+z
-y,-x,z
1/2+y,1/2+x,z
loop_
_atom_site_type_symbol
_atom_site_label
_atom_site_fract_x
_atom_site_fract_y
_atom_site_fract_z
Si Si1 0.007496 0.397789 0.450947
Si Si2 0.694915 0.087943 0.167105
Si Si3 0.908118 0.302161 0.936448
Si Si4 0.002651 0.611673 0.175062
Si Si5 0.441276 0.832561 0.373096
Si Si6 0.987223 0.597209 0.780205
O O1 0.068497 0.431504 0.500000
O O2 0.021495 0.382755 0.335785
O O3 0.951821 0.451821 0.449868
O O4 0.981104 0.343406 0.524315
O O5 0.750000 0.087797 0.250000
O O6 0.643708 0.143708 0.192781
O O7 0.656330 0.021300 0.167020
O O8 0.716147 0.099342 0.052970
O O9 0.849294 0.349294 0.909637
O O10 0.972503 0.342916 0.913773
O O11 0.912992 0.238018 0.872862
O O12 0.053899 0.553899 0.177040
O O13 0.014263 0.650063 0.278533
O O14 0.934248 0.576802 0.174690
O O15 0.384134 0.884134 0.371981
O O16 0.040402 0.540402 0.781446
#
# Coordination Sequence:
#
# PCOD9568099 Si02
#       6
#    16  16  16  16  16  16
#     4   9  14  23  42  68  89 109 144 193 245 283
#     4  10  21  35  49  67  93 128 163 197 232 272
#     4  10  21  33  44  64  96 132 167 191 223 283
#     4   9  17  30  47  67  90 120 156 197 244 288
#     4  10  18  29  47  68  95 128 161 202 239 269
#     4   9  16  28  47  68  91 118 153 194 240 284
#
# _framework density 16.441725999999999
#
# number of rings (size 3 to 8) (size 9 to 14) (size 15 to 20)
#    0.000    2.500    1.667    1.500    0.000    3.167 
#    0.000    5.000    0.000    3.000    0.000    0.000 
#    0.000    2.667    1.000    0.000    0.000    0.000 
#
# Total GULP energy -534606.212959 kJ/mol
# GULP energy per Si atom -5568.814718 kJ/mol
# Density = 1.640430 g / cm^3
# Si number density = 16.441726 Si / 1000 Ang^3
#
#
#
# Elastic Constant Matrix: (Units=GPa)
#
#
# Indices 1 2 3 4 5 6 
#
# 1 39.6154 45.1620 14.6268 0.0000 0.0000 0.0000
# 2 45.1620 39.6142 14.6271 0.0000 0.0000 0.0000
# 3 14.6268 14.6271 33.3339 0.0000 0.0000 0.0000
# 4 0.0000 0.0000 0.0000 20.0319 0.0000 0.0000
# 5 0.0000 0.0000 0.0000 0.0000 20.0319 0.0000
# 6 0.0000 0.0000 0.0000 0.0000 0.0000 16.3951
#
#
#
# Elastic Compliance Matrix: (Units=1/GPa)
#
#
# Indices 1 2 3 4 5 6 
#
# 1 -0.083184 0.097086 -0.006101 0.000000 0.000000 0.000000
# 2 0.097086 -0.083188 -0.006098 0.000000 0.000000 0.000000
# 3 -0.006101 -0.006098 0.035352 0.000000 0.000000 0.000000
# 4 0.000000 0.000000 0.000000 0.049920 0.000000 0.000000
# 5 0.000000 0.000000 0.000000 0.000000 0.049920 0.000000
# 6 0.000000 0.000000 0.000000 0.000000 0.000000 0.060994
#
#
# Mechanical properties :
#
#
# Convention : Reuss Voigt Hill
#
# Bulk Modulus (GPa) = 25.80296 29.04391 27.42343
# Shear Modulus (GPa) = -39.35737 13.83495 -12.76121
#
# Velocity S-wave (km/s) = -4.89790 2.90393 -2.78897
# Velocity P-wave (km/s) = 4.03216 5.38023 2.51878
#
# Compressibility (1/GPa) = 0.03875525
#
# Stress axis : x y z
#
# Youngs Moduli (GPa) = -12.02154 -12.02098 28.28658
#
# Poissons Ratio (x) = 1.16707 0.17258
# Poissons Ratio (y) = 1.16713 0.17249
# Poissons Ratio (z) = -0.07335 -0.07330
#
# Static dielectric constant tensor:
#      x y z
#    x 1.552380 0.000000 0.000000 
#    y 0.000000 1.552380 0.000000 
#    z 0.000000 0.000000 1.593930 
# 
# From -- ./inp_files/5055.got.cif
#   From: 2010.05.17/outbox.cif.g08.bks.cpg/sg134_3_cif.got.tgz:5055.got - 2010.05.20 12:42:49.
