data_PCOD9568156
_publ_section_title
;
Structure prediction by ZEFSAII (Michael W. Deem and Ramdas Pophale) SiO2 
 PCOD9568156
Probable space group: P 42/N N M
;
_chemical_formula_sum "Si O2"
_cell_formula_units_Z 128
_cell_length_a 18.262191
_cell_length_b 18.262191
_cell_length_c 24.117083
_cell_angle_alpha 90.000000
_cell_angle_beta 90.000000
_cell_angle_gamma 90.000000
_cell_volume 8043.230956
_symmetry_space_group_name_H-M "P 42/N N M"
_symmetry_group_IT_number 134
_space_group.IT_coordinate_system_code '2'
_symmetry_cell_setting 'tetragonal'
loop_
_space_group_symop_operation_xyz
x,y,z
1/2-y,x,1/2+z
1/2-x,1/2-y,z
y,1/2-x,1/2+z
x,1/2-y,1/2-z
1/2-x,y,1/2-z
y,x,-z
1/2-y,1/2-x,-z
-x,-y,-z
1/2+y,-x,1/2-z
1/2+x,1/2+y,-z
-y,1/2+x,1/2-z
-x,1/2+y,1/2+z
1/2+x,-y,1/2+z
-y,-x,z
1/2+y,1/2+x,z
loop_
_atom_site_type_symbol
_atom_site_label
_atom_site_fract_x
_atom_site_fract_y
_atom_site_fract_z
Si Si1 0.829542 0.661917 0.394882
Si Si2 0.335300 0.321628 0.566434
Si Si3 0.960300 0.927193 0.435734
Si Si4 0.334752 0.164930 0.735612
Si Si5 0.981458 0.599318 0.238188
Si Si6 0.057708 0.671748 0.130863
Si Si7 0.944449 0.942182 0.933727
Si Si8 0.657342 0.459370 0.855597
O O1 0.743762 0.667794 0.406893
O O2 0.861567 0.739095 0.418609
O O3 0.843174 0.659744 0.330022
O O4 0.862681 0.587334 0.419399
O O5 0.326527 0.326527 0.500000
O O6 0.387579 0.387470 0.586199
O O7 0.944190 0.944190 0.500000
O O8 0.020036 0.864358 0.423139
O O9 0.998920 0.001081 0.412060
O O10 0.350493 0.250000 0.750000
O O11 0.250000 0.150109 0.750000
O O12 0.394250 0.111310 0.763210
O O13 0.018446 0.518446 0.240961
O O14 0.016045 0.637750 0.184287
O O15 0.007175 0.639906 0.294844
O O16 0.139969 0.639969 0.133614
O O17 0.047448 0.757582 0.132887
O O18 0.884730 0.993028 0.902209
O O19 0.945121 0.945121 0.000000
O O20 0.022712 0.977288 0.915334
O O21 0.619680 0.380321 0.856072
#
# Coordination Sequence:
#
# PCOD9568156 Si02
#       8
#    16  16  16  16  16  16  16  16
#     4  11  20  31  48  70  97 126 162 198 248 301
#     4  10  19  30  47  69  97 124 157 204 247 296
#     4   9  19  33  48  68  94 127 164 202 245 292
#     4  11  22  32  48  71 102 135 162 206 252 303
#     4  10  21  35  52  74  99 137 175 204 243 293
#     4  10  20  32  51  74  99 133 170 205 243 292
#     4  10  20  33  49  70  95 127 166 204 246 293
#     4  10  19  33  51  72 101 133 168 208 246 287
#
# _framework density 15.914002
#
# number of rings (size 3 to 8) (size 9 to 14) (size 15 to 20)
#    0.000    1.875    1.250    4.875    3.500    1.250 
#    0.000    0.000    0.000    2.250    0.000    0.000 
#    0.000    0.750    0.000    2.250    0.000    0.000 
#
# Total GULP energy -712601.067928 kJ/mol
# GULP energy per Si atom -5567.195843 kJ/mol
# Density = 1.587778 g / cm^3
# Si number density = 15.914002 Si / 1000 Ang^3
#
#
#
# Elastic Constant Matrix: (Units=GPa)
#
#
# Indices 1 2 3 4 5 6 
#
# 1 82.4088 34.3456 4.0795 0.0000 0.0000 0.0000
# 2 34.3456 82.4088 4.0795 0.0000 0.0000 0.0000
# 3 4.0795 4.0795 53.8011 0.0000 0.0000 0.0000
# 4 0.0000 0.0000 0.0000 26.4413 0.0000 0.0000
# 5 0.0000 0.0000 0.0000 0.0000 26.4413 0.0000
# 6 0.0000 0.0000 0.0000 0.0000 0.0000 33.5688
#
#
#
# Elastic Compliance Matrix: (Units=1/GPa)
#
#
# Indices 1 2 3 4 5 6 
#
# 1 0.014708 -0.006098 -0.000653 0.000000 0.000000 0.000000
# 2 -0.006098 0.014708 -0.000653 0.000000 0.000000 0.000000
# 3 -0.000653 -0.000653 0.018686 0.000000 0.000000 0.000000
# 4 0.000000 0.000000 0.000000 0.037820 0.000000 0.000000
# 5 0.000000 0.000000 0.000000 0.000000 0.037820 0.000000
# 6 0.000000 0.000000 0.000000 0.000000 0.000000 0.029790
#
#
# Mechanical properties :
#
#
# Convention : Reuss Voigt Hill
#
# Bulk Modulus (GPa) = 30.03399 33.73643 31.88521
# Shear Modulus (GPa) = 27.86498 29.03124 28.44811
#
# Velocity S-wave (km/s) = 4.18900 4.27577 4.23261
# Velocity P-wave (km/s) = 6.50466 6.75437 6.63069
#
# Compressibility (1/GPa) = 0.03329561
#
# Stress axis : x y z
#
# Youngs Moduli (GPa) = 67.98901 67.98901 53.51599
#
# Poissons Ratio (x) = 0.41457 0.03494
# Poissons Ratio (y) = 0.41457 0.03494
# Poissons Ratio (z) = 0.04439 0.04439
#
# Static dielectric constant tensor:
#      x y z
#    x 1.566980 0.000000 0.000000 
#    y 0.000000 1.566980 0.000000 
#    z 0.000000 0.000000 1.507260 
# 
# From -- ./inp_files/10298.got.cif
#   From: 2010.05.17/outbox.cif.g08.bks.cpg/sg134_6_cif.got.tgz:10298.got - 2010.05.20 12:42:49.
