data_PCOD9568615
_publ_section_title
;
Structure prediction by ZEFSAII (Michael W. Deem and Ramdas Pophale) SiO2 
 PCOD9568615
Probable space group: P 42/M B C
;
_chemical_formula_sum "Si O2"
_cell_formula_units_Z 104
_cell_length_a 14.640103
_cell_length_b 14.640103
_cell_length_c 23.040000
_cell_angle_alpha 90.000000
_cell_angle_beta 90.000000
_cell_angle_gamma 90.000000
_cell_volume 4938.223469
_symmetry_space_group_name_H-M "P 42/M B C"
_symmetry_group_IT_number 135
_symmetry_cell_setting 'tetragonal'
loop_
_space_group_symop_operation_xyz
x,y,z
-y,x,1/2+z
-x,-y,z
y,-x,1/2+z
1/2+x,1/2-y,-z
1/2-x,1/2+y,-z
1/2+y,1/2+x,1/2-z
1/2-y,1/2-x,1/2-z
-x,-y,-z
y,-x,1/2-z
x,y,-z
-y,x,1/2-z
1/2-x,1/2+y,z
1/2+x,1/2-y,z
1/2-y,1/2-x,1/2+z
1/2+y,1/2+x,1/2+z
loop_
_atom_site_type_symbol
_atom_site_label
_atom_site_fract_x
_atom_site_fract_y
_atom_site_fract_z
Si Si1 0.768332 0.832312 0.934153
Si Si2 0.399907 0.977556 0.363521
Si Si3 0.672083 0.882249 0.827235
Si Si4 0.711750 0.530059 0.569237
Si Si5 0.760919 0.739082 0.250000
Si Si6 0.727658 0.069831 0.180688
Si Si7 0.634640 0.329310 0.432927
O O1 0.698048 0.887931 0.894857
O O2 0.872863 0.831291 0.911144
O O3 0.728770 0.729029 0.934523
O O4 0.768722 0.865939 0.000000
O O5 0.313150 0.978363 0.405245
O O6 0.404916 0.877508 0.335424
O O7 0.500000 0.000000 0.389972
O O8 0.385199 0.063636 0.320439
O O9 0.719915 0.792401 0.804331
O O10 0.722583 0.966654 0.798451
O O11 0.718951 0.538019 0.500000
O O12 0.657918 0.435672 0.580460
O O13 0.864812 0.756360 0.267131
O O14 0.786727 0.080809 0.121706
O O15 0.597611 0.324721 0.500000
#
# Coordination Sequence:
#
# PCOD9568615 Si02
#       7
#    16  16  16  16   8  16  16
#     4  10  19  36  60  88 122 162 203 246 300 359
#     4  10  20  35  56  89 123 148 193 249 307 366
#     4  11  24  41  64  93 120 158 201 250 309 366
#     4  10  18  31  57  88 122 165 205 241 291 358
#     4  12  24  44  64  86 116 160 200 248 302 360
#     4  11  24  41  64  93 120 158 201 250 309 366
#     4  10  19  36  60  88 122 162 203 246 300 359
#
# _framework density 21.060203999999999
#
# number of rings (size 3 to 8) (size 9 to 14) (size 15 to 20)
#    0.000    1.538    4.615    0.000    2.154    0.923 
#    2.769    3.846    0.000    2.769    0.000    0.000 
#    0.000    0.000    0.000    0.000    0.000    0.000 
#
# Total GULP energy -580171.864323 kJ/mol
# GULP energy per Si atom -5578.575618 kJ/mol
# Density = 2.101227 g / cm^3
# Si number density = 21.060204 Si / 1000 Ang^3
#
#
#
# Elastic Constant Matrix: (Units=GPa)
#
#
# Indices 1 2 3 4 5 6 
#
# 1 68.3928 -5.1496 0.9037 0.0000 0.0000 0.0000
# 2 -5.1496 68.3917 0.9039 0.0000 0.0000 0.0000
# 3 0.9037 0.9039 41.1852 0.0000 0.0000 0.0000
# 4 0.0000 0.0000 0.0000 7.3380 0.0000 0.0000
# 5 0.0000 0.0000 0.0000 0.0000 7.3378 0.0000
# 6 0.0000 0.0000 0.0000 0.0000 0.0000 17.9322
#
#
#
# Elastic Compliance Matrix: (Units=1/GPa)
#
#
# Indices 1 2 3 4 5 6 
#
# 1 0.014710 0.001112 -0.000347 0.000000 0.000000 0.000000
# 2 0.001112 0.014710 -0.000347 0.000000 0.000000 0.000000
# 3 -0.000347 -0.000347 0.024296 0.000000 0.000000 0.000000
# 4 0.000000 0.000000 0.000000 0.136277 0.000000 0.000000
# 5 0.000000 0.000000 0.000000 0.000000 0.136281 0.000000
# 6 0.000000 0.000000 0.000000 0.000000 0.000000 0.055766
#
#
# Mechanical properties :
#
#
# Convention : Reuss Voigt Hill
#
# Bulk Modulus (GPa) = 18.33145 19.03174 18.68160
# Shear Modulus (GPa) = 12.51917 18.60905 15.56411
#
# Velocity S-wave (km/s) = 2.44077 2.97579 2.72146
# Velocity P-wave (km/s) = 4.08245 4.56766 4.33185
#
# Compressibility (1/GPa) = 0.05455105
#
# Stress axis : x y z
#
# Youngs Moduli (GPa) = 67.98210 67.98101 41.15940
#
# Poissons Ratio (x) = -0.07561 0.01429
# Poissons Ratio (y) = -0.07561 0.01429
# Poissons Ratio (z) = 0.02360 0.02361
#
# Static dielectric constant tensor:
#      x y z
#    x 1.772110 0.000000 0.000000 
#    y 0.000000 1.772120 0.000000 
#    z 0.000000 0.000000 1.824890 
# 
# From -- ./inp_files/6092.got.cif
#   From: 2010.05.17/outbox.cif.g08.bks.cpg/sg135_4_cif.got.tgz:6092.got - 2010.05.20 12:50:20.
