data_PCOD9568227
_publ_section_title
;
Structure prediction by ZEFSAII (Michael W. Deem and Ramdas Pophale) SiO2 
 PCOD9568227
Probable space group: P 42/N N M
;
_chemical_formula_sum "Si O2"
_cell_formula_units_Z 48
_cell_length_a 13.288822
_cell_length_b 13.288822
_cell_length_c 13.260516
_cell_angle_alpha 90.000000
_cell_angle_beta 90.000000
_cell_angle_gamma 90.000000
_cell_volume 2341.711519
_symmetry_space_group_name_H-M "P 42/N N M"
_symmetry_group_IT_number 134
_space_group.IT_coordinate_system_code '2'
_symmetry_cell_setting 'tetragonal'
loop_
_space_group_symop_operation_xyz
x,y,z
1/2-y,x,1/2+z
1/2-x,1/2-y,z
y,1/2-x,1/2+z
x,1/2-y,1/2-z
1/2-x,y,1/2-z
y,x,-z
1/2-y,1/2-x,-z
-x,-y,-z
1/2+y,-x,1/2-z
1/2+x,1/2+y,-z
-y,1/2+x,1/2-z
-x,1/2+y,1/2+z
1/2+x,-y,1/2+z
-y,-x,z
1/2+y,1/2+x,z
loop_
_atom_site_type_symbol
_atom_site_label
_atom_site_fract_x
_atom_site_fract_y
_atom_site_fract_z
Si Si1 0.351327 0.189920 0.381815
Si Si2 0.499810 0.162548 0.039904
Si Si3 0.692767 0.029068 0.650257
O O1 0.250000 0.250000 0.356873
O O2 0.339535 0.160466 0.500000
O O3 0.446919 0.263737 0.378967
O O4 0.350293 0.082984 0.327649
O O5 0.593517 0.093517 0.072935
O O6 0.528053 0.230293 0.943199
O O7 0.412865 0.087136 0.000000
O O8 0.750000 0.063917 0.750000
O O9 0.601491 0.101491 0.625139
#
# Coordination Sequence:
#
# PCOD9568227 Si02
#       3
#    16  16  16
#     4   9  16  35  56  80 109 152 192 230 272 335
#     4  10  19  35  58  83 114 152 195 235 281 339
#     4  11  23  37  57  86 119 151 187 237 297 349
#
# _framework density 20.497828999999999
#
# number of rings (size 3 to 8) (size 9 to 14) (size 15 to 20)
#    0.000    2.000    6.667    1.000    0.000    9.000 
#    0.000    0.000    0.000    0.000    0.000    0.000 
#    0.000    0.000    0.000    0.000    0.000    0.000 
#
# Total GULP energy -268000.603589 kJ/mol
# GULP energy per Si atom -5583.345908 kJ/mol
# Density = 2.045118 g / cm^3
# Si number density = 20.497829 Si / 1000 Ang^3
#
#
#
# Elastic Constant Matrix: (Units=GPa)
#
#
# Indices 1 2 3 4 5 6 
#
# 1 109.5925 98.4397 8.8395 0.0000 0.0000 0.0000
# 2 98.4397 109.5942 8.8413 0.0000 0.0000 0.0000
# 3 8.8395 8.8413 32.7848 0.0000 0.0000 0.0000
# 4 0.0000 0.0000 0.0000 35.2879 0.0000 0.0000
# 5 0.0000 0.0000 0.0000 0.0000 35.2731 0.0000
# 6 0.0000 0.0000 0.0000 0.0000 0.0000 50.4168
#
#
#
# Elastic Compliance Matrix: (Units=1/GPa)
#
#
# Indices 1 2 3 4 5 6 
#
# 1 0.047288 -0.042368 -0.001324 0.000000 0.000000 0.000000
# 2 -0.042368 0.047288 -0.001329 0.000000 0.000000 0.000000
# 3 -0.001324 -0.001329 0.031217 0.000000 0.000000 0.000000
# 4 0.000000 0.000000 0.000000 0.028338 0.000000 0.000000
# 5 0.000000 0.000000 0.000000 0.000000 0.028350 0.000000
# 6 0.000000 0.000000 0.000000 0.000000 0.000000 0.019835
#
#
# Mechanical properties :
#
#
# Convention : Reuss Voigt Hill
#
# Bulk Modulus (GPa) = 27.97173 53.80137 40.88655
# Shear Modulus (GPa) = 16.43240 33.25231 24.84236
#
# Velocity S-wave (km/s) = 2.83444 4.03207 3.48508
# Velocity P-wave (km/s) = 4.93841 6.92684 6.01535
#
# Compressibility (1/GPa) = 0.03575038
#
# Stress axis : x y z
#
# Youngs Moduli (GPa) = 21.14688 21.14703 32.03345
#
# Poissons Ratio (x) = 0.89597 0.04242
# Poissons Ratio (y) = 0.89596 0.04257
# Poissons Ratio (z) = 0.02800 0.02810
#
# Static dielectric constant tensor:
#      x y z
#    x 1.749290 0.000000 0.000000 
#    y 0.000000 1.749290 0.000000 
#    z 0.000000 0.000000 1.763480 
# 
# From -- ./inp_files/7194.got.cif
#   From: 2010.05.17/outbox.cif.g08.bks.cpg/sg134_4_cif.got.tgz:7194.got - 2010.05.20 12:42:49.
