data_PCOD9568690
_publ_section_title
;
Structure prediction by ZEFSAII (Michael W. Deem and Ramdas Pophale) SiO2 
 PCOD9568690
Probable space group: P 42/M B C
;
_chemical_formula_sum "Si O2"
_cell_formula_units_Z 96
_cell_length_a 24.527330
_cell_length_b 24.527330
_cell_length_c 8.529779
_cell_angle_alpha 90.000000
_cell_angle_beta 90.000000
_cell_angle_gamma 90.000000
_cell_volume 5131.429040
_symmetry_space_group_name_H-M "P 42/M B C"
_symmetry_group_IT_number 135
_symmetry_cell_setting 'tetragonal'
loop_
_space_group_symop_operation_xyz
x,y,z
-y,x,1/2+z
-x,-y,z
y,-x,1/2+z
1/2+x,1/2-y,-z
1/2-x,1/2+y,-z
1/2+y,1/2+x,1/2-z
1/2-y,1/2-x,1/2-z
-x,-y,-z
y,-x,1/2-z
x,y,-z
-y,x,1/2-z
1/2-x,1/2+y,z
1/2+x,1/2-y,z
1/2-y,1/2-x,1/2+z
1/2+y,1/2+x,1/2+z
loop_
_atom_site_type_symbol
_atom_site_label
_atom_site_fract_x
_atom_site_fract_y
_atom_site_fract_z
Si Si1 0.803642 0.929341 0.809848
Si Si2 0.420459 0.531802 0.312907
Si Si3 0.012577 0.290091 0.690943
Si Si4 0.277013 0.693878 0.812248
Si Si5 0.499451 0.914537 0.311421
Si Si6 0.219616 0.363404 0.188155
O O1 0.862214 0.946704 0.744249
O O2 0.787007 0.868151 0.763113
O O3 0.756270 0.970734 0.757434
O O4 0.806673 0.930961 0.000000
O O5 0.470264 0.567902 0.245679
O O6 0.423332 0.532858 0.500000
O O7 0.011664 0.290232 0.500000
O O8 0.998668 0.351708 0.740262
O O9 0.074188 0.276467 0.739389
O O10 0.221863 0.721863 0.750000
O O11 0.326374 0.731363 0.751177
O O12 0.276107 0.696339 0.000000
O O13 0.445689 0.945689 0.250000
O O14 0.498862 0.916490 0.500000
O O15 0.550412 0.949589 0.250000
O O16 0.164490 0.335511 0.250000
O O17 0.219632 0.361104 0.000000
#
# Coordination Sequence:
#
# PCOD9568690 Si02
#       6
#    16  16  16  16  16  16
#     4  10  22  40  59  85 118 154 193 240 291 343
#     4  11  23  41  64  90 118 153 193 239 292 350
#     4   9  20  36  55  80 111 148 184 227 282 337
#     4  10  21  37  58  81 112 148 189 234 282 338
#     4  10  19  34  55  80 110 147 190 232 284 338
#     4  10  19  34  57  82 108 143 186 229 282 333
#
# _framework density 18.708238999999999
#
# number of rings (size 3 to 8) (size 9 to 14) (size 15 to 20)
#    0.000    2.000    0.000    5.500    2.333    2.000 
#    0.000    5.000    0.000    0.000    0.000    0.000 
#    0.000    0.000    0.000    0.000    0.000    0.000 
#
# Total GULP energy -536222.956909 kJ/mol
# GULP energy per Si atom -5585.655801 kJ/mol
# Density = 1.866566 g / cm^3
# Si number density = 18.708239 Si / 1000 Ang^3
#
#
#
# Elastic Constant Matrix: (Units=GPa)
#
#
# Indices 1 2 3 4 5 6 
#
# 1 164.8096 118.1445 38.4362 0.0000 0.0000 0.0000
# 2 118.1445 164.8058 38.4331 0.0000 0.0000 0.0000
# 3 38.4362 38.4331 57.9970 0.0000 0.0000 0.0000
# 4 0.0000 0.0000 0.0000 16.5744 0.0000 0.0000
# 5 0.0000 0.0000 0.0000 0.0000 16.5726 0.0000
# 6 0.0000 0.0000 0.0000 0.0000 0.0000 15.6753
#
#
#
# Elastic Compliance Matrix: (Units=1/GPa)
#
#
# Indices 1 2 3 4 5 6 
#
# 1 0.012870 -0.008560 -0.002857 0.000000 0.000000 0.000000
# 2 -0.008560 0.012870 -0.002856 0.000000 0.000000 0.000000
# 3 -0.002857 -0.002856 0.021028 0.000000 0.000000 0.000000
# 4 0.000000 0.000000 0.000000 0.060334 0.000000 0.000000
# 5 0.000000 0.000000 0.000000 0.000000 0.060340 0.000000
# 6 0.000000 0.000000 0.000000 0.000000 0.000000 0.063795
#
#
# Mechanical properties :
#
#
# Convention : Reuss Voigt Hill
#
# Bulk Modulus (GPa) = 54.87566 86.40445 70.64005
# Shear Modulus (GPa) = 18.80710 22.60438 20.70574
#
# Velocity S-wave (km/s) = 3.17406 3.47977 3.33043
# Velocity P-wave (km/s) = 6.54438 7.90130 7.25464
#
# Compressibility (1/GPa) = 0.01822302
#
# Stress axis : x y z
#
# Youngs Moduli (GPa) = 77.69913 77.69926 47.55548
#
# Poissons Ratio (x) = 0.66511 0.13586
# Poissons Ratio (y) = 0.66510 0.13581
# Poissons Ratio (z) = 0.22198 0.22189
#
# Static dielectric constant tensor:
#      x y z
#    x 1.628060 0.000000 0.000000 
#    y 0.000000 1.628060 0.000000 
#    z 0.000000 0.000000 1.636160 
# 
# From -- ./inp_files/1226.got.cif
#   From: 2010.05.17/outbox.cif.g08.bks.cpg/sg135_1_cif.got.tgz:1226.got - 2010.05.20 12:50:20.
