data_PCOD9568029
_publ_section_title
;
Structure prediction by ZEFSAII (Michael W. Deem and Ramdas Pophale) SiO2 
 PCOD9568029
Probable space group: P 42/N B C
;
_chemical_formula_sum "Si O2"
_cell_formula_units_Z 64
_cell_length_a 10.417868
_cell_length_b 10.417868
_cell_length_c 25.761542
_cell_angle_alpha 90.000000
_cell_angle_beta 90.000000
_cell_angle_gamma 90.000000
_cell_volume 2795.950998
_symmetry_space_group_name_H-M "P 42/N B C"
_symmetry_group_IT_number 133
_space_group.IT_coordinate_system_code '2'
_symmetry_cell_setting 'tetragonal'
loop_
_space_group_symop_operation_xyz
x,y,z
1/2-y,x,1/2+z
1/2-x,1/2-y,z
y,1/2-x,1/2+z
x,1/2-y,-z
1/2-x,y,-z
y,x,1/2-z
1/2-y,1/2-x,1/2-z
-x,-y,-z
1/2+y,-x,1/2-z
1/2+x,1/2+y,-z
-y,1/2+x,1/2-z
-x,1/2+y,z
1/2+x,-y,z
-y,-x,1/2+z
1/2+y,1/2+x,1/2+z
loop_
_atom_site_type_symbol
_atom_site_label
_atom_site_fract_x
_atom_site_fract_y
_atom_site_fract_z
Si Si1 0.602791 0.106662 0.480769
Si Si2 0.240609 0.398555 0.661758
Si Si3 0.490314 0.565456 0.367060
Si Si4 0.546765 0.277411 0.737118
O O1 0.572925 0.250000 0.500000
O O2 0.750000 0.077522 0.500000
O O3 0.577004 0.113946 0.419125
O O4 0.500000 0.000000 0.500000
O O5 0.250000 0.250000 0.651206
O O6 0.099713 0.447165 0.648069
O O7 0.357871 0.463269 0.629574
O O8 0.260505 0.433679 0.721981
O O9 0.480924 0.665053 0.318990
O O10 0.643995 0.377564 0.764689
#
# Coordination Sequence:
#
# PCOD9568029 Si02
#       4
#    16  16  16  16
#     4  11  27  49  77 108 144 192 254 317 369 441
#     4  11  26  45  73 111 148 195 245 300 372 464
#     4  11  25  47  74 102 149 191 242 299 380 427
#     4   9  21  41  68 103 144 190 232 288 358 453
#
# _framework density 22.890243999999999
#
# number of rings (size 3 to 8) (size 9 to 14) (size 15 to 20)
#    0.000    1.500    0.000    2.250    7.000   10.500 
#    4.500    0.000    0.000    0.000    0.000    0.000 
#    0.000    0.000    0.000    0.000    0.000    0.000 
#
# Total GULP energy -357942.678025 kJ/mol
# GULP energy per Si atom -5592.854344 kJ/mol
# Density = 2.283814 g / cm^3
# Si number density = 22.890244 Si / 1000 Ang^3
#
#
#
# Elastic Constant Matrix: (Units=GPa)
#
#
# Indices 1 2 3 4 5 6 
#
# 1 140.8514 80.1142 26.8790 0.0000 0.0000 0.0000
# 2 80.1142 140.8514 26.8790 0.0000 0.0000 0.0000
# 3 26.8790 26.8790 96.6083 0.0000 0.0000 0.0000
# 4 0.0000 0.0000 0.0000 12.1706 0.0000 0.0000
# 5 0.0000 0.0000 0.0000 0.0000 12.1706 0.0000
# 6 0.0000 0.0000 0.0000 0.0000 0.0000 41.9030
#
#
#
# Elastic Compliance Matrix: (Units=1/GPa)
#
#
# Indices 1 2 3 4 5 6 
#
# 1 0.010659 -0.005805 -0.001351 0.000000 0.000000 0.000000
# 2 -0.005805 0.010659 -0.001351 0.000000 0.000000 0.000000
# 3 -0.001351 -0.001351 0.011103 0.000000 0.000000 0.000000
# 4 0.000000 0.000000 0.000000 0.082165 0.000000 0.000000
# 5 0.000000 0.000000 0.000000 0.000000 0.082165 0.000000
# 6 0.000000 0.000000 0.000000 0.000000 0.000000 0.023865
#
#
# Mechanical properties :
#
#
# Convention : Reuss Voigt Hill
#
# Bulk Modulus (GPa) = 64.89842 71.78394 68.34118
# Shear Modulus (GPa) = 20.59605 29.54476 25.07041
#
# Velocity S-wave (km/s) = 3.00288 3.59655 3.31304
# Velocity P-wave (km/s) = 6.35898 6.97675 6.67501
#
# Compressibility (1/GPa) = 0.01540870
#
# Stress axis : x y z
#
# Youngs Moduli (GPa) = 93.81506 93.81506 90.06900
#
# Poissons Ratio (x) = 0.54461 0.12164
# Poissons Ratio (y) = 0.54461 0.12164
# Poissons Ratio (z) = 0.12670 0.12670
#
# Static dielectric constant tensor:
#      x y z
#    x 1.857790 0.000000 0.000000 
#    y 0.000000 1.857790 0.000000 
#    z 0.000000 0.000000 7.539310 
# 
# From -- ./inp_files/6971.got.cif
#   From: 2010.05.17/outbox.cif.g08.bks.cpg/sg133_4_cif.got.tgz:6971.got - 2010.05.20 12:37:36.
