data_PCOD9568162
_publ_section_title
;
Structure prediction by ZEFSAII (Michael W. Deem and Ramdas Pophale) SiO2 
 PCOD9568162
Probable space group: P 42/N N M
;
_chemical_formula_sum "Si O2"
_cell_formula_units_Z 72
_cell_length_a 25.407937
_cell_length_b 25.407937
_cell_length_c 5.985208
_cell_angle_alpha 90.000000
_cell_angle_beta 90.000000
_cell_angle_gamma 90.000000
_cell_volume 3863.830404
_symmetry_space_group_name_H-M "P 42/N N M"
_symmetry_group_IT_number 134
_space_group.IT_coordinate_system_code '2'
_symmetry_cell_setting 'tetragonal'
loop_
_space_group_symop_operation_xyz
x,y,z
1/2-y,x,1/2+z
1/2-x,1/2-y,z
y,1/2-x,1/2+z
x,1/2-y,1/2-z
1/2-x,y,1/2-z
y,x,-z
1/2-y,1/2-x,-z
-x,-y,-z
1/2+y,-x,1/2-z
1/2+x,1/2+y,-z
-y,1/2+x,1/2-z
-x,1/2+y,1/2+z
1/2+x,-y,1/2+z
-y,-x,z
1/2+y,1/2+x,z
loop_
_atom_site_type_symbol
_atom_site_label
_atom_site_fract_x
_atom_site_fract_y
_atom_site_fract_z
Si Si1 0.673011 0.500995 0.896734
Si Si2 0.896424 0.626452 0.244561
Si Si3 0.081091 0.003417 0.755228
Si Si4 0.968027 0.250000 0.250000
Si Si5 0.070764 0.844350 0.483310
O O1 0.678952 0.449784 0.746984
O O2 0.665897 0.554343 0.757607
O O3 0.618524 0.493208 0.031991
O O4 0.721778 0.503835 0.064676
O O5 0.870778 0.629223 0.500000
O O6 0.917654 0.566021 0.234213
O O7 0.867725 0.632275 0.000000
O O8 0.024667 0.975334 0.773244
O O9 0.112629 0.973408 0.558763
O O10 0.932746 0.203070 0.344043
O O11 0.125131 0.874870 0.473948
#
# Coordination Sequence:
#
# PCOD9568162 Si02
#       5
#    16  16  16   8  16
#     4  10  19  32  49  68 101 137 176 213 269 323
#     4  10  19  31  47  72 106 140 174 214 257 310
#     4   9  18  29  45  73 105 134 164 205 259 313
#     4  10  22  36  48  73  98 132 172 226 279 346
#     4  10  19  33  53  73  97 129 170 224 282 336
#
# _framework density 18.634357999999999
#
# number of rings (size 3 to 8) (size 9 to 14) (size 15 to 20)
#    0.000    2.222    2.222    1.333    0.000    6.222 
#    0.000    0.000    0.000    0.333    0.000    0.000 
#    0.000    0.000    0.000    0.000    0.000    0.000 
#
# Total GULP energy -400955.791391 kJ/mol
# GULP energy per Si atom -5568.830436 kJ/mol
# Density = 1.859195 g / cm^3
# Si number density = 18.634358 Si / 1000 Ang^3
#
#
#
# Elastic Constant Matrix: (Units=GPa)
#
#
# Indices 1 2 3 4 5 6 
#
# 1 5.4428 75.6339 22.9956 0.0000 0.0000 0.0000
# 2 75.6339 5.4388 22.9922 0.0000 0.0000 0.0000
# 3 22.9956 22.9922 110.4277 0.0000 0.0000 0.0000
# 4 0.0000 0.0000 0.0000 15.0622 0.0000 0.0000
# 5 0.0000 0.0000 0.0000 0.0000 15.0624 0.0000
# 6 0.0000 0.0000 0.0000 0.0000 0.0000 5.8145
#
#
#
# Elastic Compliance Matrix: (Units=1/GPa)
#
#
# Indices 1 2 3 4 5 6 
#
# 1 -0.000130 0.014116 -0.002912 0.000000 0.000000 0.000000
# 2 0.014116 -0.000130 -0.002912 0.000000 0.000000 0.000000
# 3 -0.002912 -0.002912 0.010269 0.000000 0.000000 0.000000
# 4 0.000000 0.000000 0.000000 0.066391 0.000000 0.000000
# 5 0.000000 0.000000 0.000000 0.000000 0.066390 0.000000
# 6 0.000000 0.000000 0.000000 0.000000 0.000000 0.171983
#
#
# Mechanical properties :
#
#
# Convention : Reuss Voigt Hill
#
# Bulk Modulus (GPa) = 37.60555 40.50586 39.05570
# Shear Modulus (GPa) = 16.28384 7.16702 11.72543
#
# Velocity S-wave (km/s) = 2.95932 1.96328 2.51118
# Velocity P-wave (km/s) = 5.64813 5.18880 5.42333
#
# Compressibility (1/GPa) = 0.02659182
#
# Stress axis : x y z
#
# Youngs Moduli (GPa) = -7702.52489 -7671.60366 97.38491
#
# Poissons Ratio (x) = 108.29488 0.28360
# Poissons Ratio (y) = 108.73138 0.28363
# Poissons Ratio (z) = -22.43077 -22.34326
#
# Static dielectric constant tensor:
#      x y z
#    x 1.625420 0.000000 0.000000 
#    y 0.000000 1.625430 0.000000 
#    z 0.000000 0.000000 1.796600 
# 
# From -- ./inp_files/1065.got.cif
#   From: 2010.05.17/outbox.cif.g08.bks.cpg/sg134_1_cif.got.tgz:1065.got - 2010.05.20 12:42:49.
