data_PCOD9568646
_publ_section_title
;
Structure prediction by ZEFSAII (Michael W. Deem and Ramdas Pophale) SiO2 
 PCOD9568646
Probable space group: P 42/M B C
;
_chemical_formula_sum "Si O2"
_cell_formula_units_Z 64
_cell_length_a 13.873449
_cell_length_b 13.873449
_cell_length_c 11.660649
_cell_angle_alpha 90.000000
_cell_angle_beta 90.000000
_cell_angle_gamma 90.000000
_cell_volume 2244.355281
_symmetry_space_group_name_H-M "P 42/M B C"
_symmetry_group_IT_number 135
_symmetry_cell_setting 'tetragonal'
loop_
_space_group_symop_operation_xyz
x,y,z
-y,x,1/2+z
-x,-y,z
y,-x,1/2+z
1/2+x,1/2-y,-z
1/2-x,1/2+y,-z
1/2+y,1/2+x,1/2-z
1/2-y,1/2-x,1/2-z
-x,-y,-z
y,-x,1/2-z
x,y,-z
-y,x,1/2-z
1/2-x,1/2+y,z
1/2+x,1/2-y,z
1/2-y,1/2-x,1/2+z
1/2+y,1/2+x,1/2+z
loop_
_atom_site_type_symbol
_atom_site_label
_atom_site_fract_x
_atom_site_fract_y
_atom_site_fract_z
Si Si1 0.026833 0.702979 0.372918
Si Si2 0.587810 0.573013 0.128103
Si Si3 0.233850 0.792206 0.625627
Si Si4 0.510879 0.766224 0.869066
O O1 0.000489 0.659347 0.500000
O O2 0.140638 0.724624 0.378596
O O3 0.006444 0.664179 0.243126
O O4 0.974237 0.807895 0.369858
O O5 0.500000 0.500000 0.151223
O O6 0.582731 0.681313 0.175545
O O7 0.565657 0.600532 0.000000
O O8 0.281615 0.781615 0.750000
O O9 0.284164 0.774107 0.500000
O O10 0.213894 0.906700 0.622823
O O11 0.529201 0.803235 0.000000
#
# Coordination Sequence:
#
# PCOD9568646 Si02
#       4
#    16  16  16  16
#     4  10  19  30  46  70  98 131 172 217 262 311
#     4   9  15  24  39  60  90 122 156 202 253 297
#     4  10  21  35  49  68 101 145 189 225 263 317
#     4  10  19  30  46  70  98 131 172 217 262 311
#
# _framework density 28.515984
#
# number of rings (size 3 to 8) (size 9 to 14) (size 15 to 20)
#    0.000    2.250    2.500    1.500    0.000    2.000 
#    0.000    0.000    0.000    0.000    0.000    0.000 
#    0.000    1.000    0.000   11.000    0.000    8.000 
#
# Total GULP energy -356562.303707 kJ/mol
# GULP energy per Si atom -5571.285995 kJ/mol
# Density = 2.845108 g / cm^3
# Si number density = 28.515984 Si / 1000 Ang^3
#
#
#
# Elastic Constant Matrix: (Units=GPa)
#
#
# Indices 1 2 3 4 5 6 
#
# 1 72.5719 20.3647 13.8829 0.0000 0.0000 0.0000
# 2 20.3647 72.5719 13.8829 0.0000 0.0000 0.0000
# 3 13.8829 13.8829 330.4826 0.0000 0.0000 0.0000
# 4 0.0000 0.0000 0.0000 10.8942 0.0000 0.0000
# 5 0.0000 0.0000 0.0000 0.0000 10.8942 0.0000
# 6 0.0000 0.0000 0.0000 0.0000 0.0000 44.7378
#
#
#
# Elastic Compliance Matrix: (Units=1/GPa)
#
#
# Indices 1 2 3 4 5 6 
#
# 1 0.015026 -0.004129 -0.000458 0.000000 0.000000 0.000000
# 2 -0.004129 0.015026 -0.000458 0.000000 0.000000 0.000000
# 3 -0.000458 -0.000458 0.003064 0.000000 0.000000 0.000000
# 4 0.000000 0.000000 0.000000 0.091792 0.000000 0.000000
# 5 0.000000 0.000000 0.000000 0.000000 0.091792 0.000000
# 6 0.000000 0.000000 0.000000 0.000000 0.000000 0.022352
#
#
# Mechanical properties :
#
#
# Convention : Reuss Voigt Hill
#
# Bulk Modulus (GPa) = 43.42750 63.54305 53.48527
# Shear Modulus (GPa) = 19.46917 41.80497 30.63707
#
# Velocity S-wave (km/s) = 2.61578 3.83302 3.28133
# Velocity P-wave (km/s) = 4.93815 6.47465 5.75788
#
# Compressibility (1/GPa) = 0.02302689
#
# Stress axis : x y z
#
# Youngs Moduli (GPa) = 66.55306 66.55306 326.33497
#
# Poissons Ratio (x) = 0.27479 0.14938
# Poissons Ratio (y) = 0.27479 0.14938
# Poissons Ratio (z) = 0.03046 0.03046
#
# Static dielectric constant tensor:
#      x y z
#    x 2.647680 0.000000 0.000000 
#    y 0.000000 2.647680 0.000000 
#    z 0.000000 0.000000 2.366150 
# 
# From -- ./inp_files/2218.got.cif
#   From: 2010.05.17/outbox.cif.g08.bks.cpg/sg135_2_cif.got.tgz:2218.got - 2010.05.20 12:50:20.
