data_PCOD9568023
_publ_section_title
;
Structure prediction by ZEFSAII (Michael W. Deem and Ramdas Pophale) SiO2 
 PCOD9568023
Probable space group: P 42/N B C
;
_chemical_formula_sum "Si O2"
_cell_formula_units_Z 56
_cell_length_a 18.691529
_cell_length_b 18.691529
_cell_length_c 7.475884
_cell_angle_alpha 90.000000
_cell_angle_beta 90.000000
_cell_angle_gamma 90.000000
_cell_volume 2611.873937
_symmetry_space_group_name_H-M "P 42/N B C"
_symmetry_group_IT_number 133
_space_group.IT_coordinate_system_code '2'
_symmetry_cell_setting 'tetragonal'
loop_
_space_group_symop_operation_xyz
x,y,z
1/2-y,x,1/2+z
1/2-x,1/2-y,z
y,1/2-x,1/2+z
x,1/2-y,-z
1/2-x,y,-z
y,x,1/2-z
1/2-y,1/2-x,1/2-z
-x,-y,-z
1/2+y,-x,1/2-z
1/2+x,1/2+y,-z
-y,1/2+x,1/2-z
-x,1/2+y,z
1/2+x,-y,z
-y,-x,1/2+z
1/2+y,1/2+x,1/2+z
loop_
_atom_site_type_symbol
_atom_site_label
_atom_site_fract_x
_atom_site_fract_y
_atom_site_fract_z
Si Si1 0.824867 0.893378 0.078778
Si Si2 0.050728 0.695677 0.738010
Si Si3 0.431375 0.853604 0.143499
Si Si4 0.925545 0.925545 0.750000
O O1 0.849105 0.849105 0.250000
O O2 0.813759 0.974529 0.145649
O O3 0.750000 0.866931 0.000000
O O4 0.883886 0.895878 0.923061
O O5 0.069130 0.779396 0.747657
O O6 0.109058 0.645409 0.645216
O O7 0.047087 0.667145 0.942015
O O8 0.491109 0.906948 0.224129
#
# Coordination Sequence:
#
# PCOD9568023 Si02
#       4
#    16  16  16   8
#     4  12  26  47  77 105 148 190 243 307 369 434
#     4  11  25  45  70 107 144 192 241 305 364 441
#     4  11  25  43  72 105 148 190 245 300 371 436
#     4  12  24  44  75 106 142 189 244 302 364 432
#
# _framework density 21.440545
#
# number of rings (size 3 to 8) (size 9 to 14) (size 15 to 20)
#    0.000    0.571    5.714    1.714    2.000    4.000 
#    0.000    5.000    0.000    0.000    0.000    0.000 
#    0.000    0.000    0.000    0.000    0.000    0.000 
#
# Total GULP energy -313733.636071 kJ/mol
# GULP energy per Si atom -5602.386358 kJ/mol
# Density = 2.139175 g / cm^3
# Si number density = 21.440545 Si / 1000 Ang^3
#
#
#
# Elastic Constant Matrix: (Units=GPa)
#
#
# Indices 1 2 3 4 5 6 
#
# 1 90.6303 85.6669 45.7311 0.0000 0.0000 0.0000
# 2 85.6669 90.6303 45.7311 0.0000 0.0000 0.0000
# 3 45.7311 45.7311 124.6695 0.0000 0.0000 0.0000
# 4 0.0000 0.0000 0.0000 18.2669 0.0000 0.0000
# 5 0.0000 0.0000 0.0000 0.0000 18.2669 0.0000
# 6 0.0000 0.0000 0.0000 0.0000 0.0000 11.3945
#
#
#
# Elastic Compliance Matrix: (Units=1/GPa)
#
#
# Indices 1 2 3 4 5 6 
#
# 1 0.104240 -0.097234 -0.002570 0.000000 0.000000 0.000000
# 2 -0.097234 0.104240 -0.002570 0.000000 0.000000 0.000000
# 3 -0.002570 -0.002570 0.009906 0.000000 0.000000 0.000000
# 4 0.000000 0.000000 0.000000 0.054744 0.000000 0.000000
# 5 0.000000 0.000000 0.000000 0.000000 0.054744 0.000000
# 6 0.000000 0.000000 0.000000 0.000000 0.000000 0.087762
#
#
# Mechanical properties :
#
#
# Convention : Reuss Voigt Hill
#
# Bulk Modulus (GPa) = 73.32244 73.35428 73.33836
# Shear Modulus (GPa) = 8.00090 18.17240 13.08665
#
# Velocity S-wave (km/s) = 1.93385 2.91447 2.47325
# Velocity P-wave (km/s) = 6.26567 6.75371 6.51426
#
# Compressibility (1/GPa) = 0.01363839
#
# Stress axis : x y z
#
# Youngs Moduli (GPa) = 9.59326 9.59326 100.94441
#
# Poissons Ratio (x) = 0.93280 0.25940
# Poissons Ratio (y) = 0.93280 0.25940
# Poissons Ratio (z) = 0.02465 0.02465
#
# Static dielectric constant tensor:
#      x y z
#    x 1.735350 0.000000 0.000000 
#    y 0.000000 1.735350 0.000000 
#    z 0.000000 0.000000 1.808220 
# 
# From -- ./inp_files/1271.got.cif
#   From: 2010.05.17/outbox.cif.g08.bks.cpg/sg133_1_cif.got.tgz:1271.got - 2010.05.20 12:37:36.
