data_PCOD9568202
_publ_section_title
;
Structure prediction by ZEFSAII (Michael W. Deem and Ramdas Pophale) SiO2 
 PCOD9568202
Probable space group: P 42/N N M
;
_chemical_formula_sum "Si O2"
_cell_formula_units_Z 80
_cell_length_a 30.234999
_cell_length_b 30.234999
_cell_length_c 5.050982
_cell_angle_alpha 90.000000
_cell_angle_beta 90.000000
_cell_angle_gamma 90.000000
_cell_volume 4617.381281
_symmetry_space_group_name_H-M "P 42/N N M"
_symmetry_group_IT_number 134
_space_group.IT_coordinate_system_code '2'
_symmetry_cell_setting 'tetragonal'
loop_
_space_group_symop_operation_xyz
x,y,z
1/2-y,x,1/2+z
1/2-x,1/2-y,z
y,1/2-x,1/2+z
x,1/2-y,1/2-z
1/2-x,y,1/2-z
y,x,-z
1/2-y,1/2-x,-z
-x,-y,-z
1/2+y,-x,1/2-z
1/2+x,1/2+y,-z
-y,1/2+x,1/2-z
-x,1/2+y,1/2+z
1/2+x,-y,1/2+z
-y,-x,z
1/2+y,1/2+x,z
loop_
_atom_site_type_symbol
_atom_site_label
_atom_site_fract_x
_atom_site_fract_y
_atom_site_fract_z
Si Si1 0.588873 0.521410 0.366839
Si Si2 0.279082 0.148090 0.983084
Si Si3 0.107920 0.962931 0.127759
Si Si4 0.795902 0.492559 0.638179
Si Si5 0.315128 0.052054 0.856910
O O1 0.549512 0.549512 0.500000
O O2 0.600123 0.484065 0.584003
O O3 0.631741 0.552613 0.319861
O O4 0.585010 0.495799 0.087777
O O5 0.250000 0.145327 0.250000
O O6 0.250000 0.168658 0.750000
O O7 0.322382 0.177619 0.000000
O O8 0.294301 0.099820 0.886875
O O9 0.083746 0.916255 0.107341
O O10 0.161015 0.962144 0.088521
O O11 0.750000 0.472127 0.750000
O O12 0.793768 0.522956 0.377088
O O13 0.808199 0.526463 0.870179
#
# Coordination Sequence:
#
# PCOD9568202 Si02
#       5
#    16  16  16  16  16
#     4  10  20  33  50  71  98 131 163 196 233 282
#     4  12  25  39  55  71  91 120 154 199 254 311
#     4  10  21  33  47  71 101 132 163 197 234 279
#     4  10  19  33  54  75  97 124 158 199 241 283
#     4  10  20  35  54  75  95 117 156 205 248 285
#
# _framework density 17.325838999999998
#
# number of rings (size 3 to 8) (size 9 to 14) (size 15 to 20)
#    0.000    1.600    0.000    6.000    0.000    3.600 
#    0.000    6.000    0.000    0.000    0.000    0.000 
#    0.000    0.400    0.000    0.000    0.000   31.200 
#
# Total GULP energy -446246.435687 kJ/mol
# GULP energy per Si atom -5578.080446 kJ/mol
# Density = 1.728640 g / cm^3
# Si number density = 17.325839 Si / 1000 Ang^3
#
#
#
# Elastic Constant Matrix: (Units=GPa)
#
#
# Indices 1 2 3 4 5 6 
#
# 1 82.8238 68.2710 13.5706 0.0000 0.0000 0.0000
# 2 68.2710 82.8301 13.5722 0.0000 0.0000 0.0000
# 3 13.5706 13.5722 94.6226 0.0000 0.0000 0.0000
# 4 0.0000 0.0000 0.0000 9.4920 0.0000 0.0000
# 5 0.0000 0.0000 0.0000 0.0000 9.4470 0.0000
# 6 0.0000 0.0000 0.0000 0.0000 0.0000 31.7754
#
#
#
# Elastic Compliance Matrix: (Units=1/GPa)
#
#
# Indices 1 2 3 4 5 6 
#
# 1 0.037748 -0.030954 -0.000974 0.000000 0.000000 0.000000
# 2 -0.030954 0.037745 -0.000975 0.000000 0.000000 0.000000
# 3 -0.000974 -0.000975 0.010848 0.000000 0.000000 0.000000
# 4 0.000000 0.000000 0.000000 0.105352 0.000000 0.000000
# 5 0.000000 0.000000 0.000000 0.000000 0.105853 0.000000
# 6 0.000000 0.000000 0.000000 0.000000 0.000000 0.031471
#
#
# Mechanical properties :
#
#
# Convention : Reuss Voigt Hill
#
# Bulk Modulus (GPa) = 48.69271 50.12269 49.40770
# Shear Modulus (GPa) = 12.44809 21.13373 16.79091
#
# Velocity S-wave (km/s) = 2.68334 3.49632 3.11646
# Velocity P-wave (km/s) = 6.14536 6.72988 6.44425
#
# Compressibility (1/GPa) = 0.02053696
#
# Stress axis : x y z
#
# Youngs Moduli (GPa) = 26.49131 26.49323 92.18463
#
# Poissons Ratio (x) = 0.82006 0.08978
# Poissons Ratio (y) = 0.82000 0.08986
# Poissons Ratio (z) = 0.02580 0.02582
#
# Static dielectric constant tensor:
#      x y z
#    x 1.627890 0.000000 0.000000 
#    y 0.000000 1.627930 0.000000 
#    z 0.000000 0.000000 1.587420 
# 
# From -- ./inp_files/1242.got.cif
#   From: 2010.05.17/outbox.cif.g08.bks.cpg/sg134_1_cif.got.tgz:1242.got - 2010.05.20 12:42:49.
