data_PCOD9568827
_publ_section_title
;
Structure prediction by ZEFSAII (Michael W. Deem and Ramdas Pophale) SiO2 
 PCOD9568827
Probable space group: P 42/M B C
;
_chemical_formula_sum "Si O2"
_cell_formula_units_Z 88
_cell_length_a 13.758296
_cell_length_b 13.758296
_cell_length_c 23.949883
_cell_angle_alpha 90.000000
_cell_angle_beta 90.000000
_cell_angle_gamma 90.000000
_cell_volume 4533.490329
_symmetry_space_group_name_H-M "P 42/M B C"
_symmetry_group_IT_number 135
_symmetry_cell_setting 'tetragonal'
loop_
_space_group_symop_operation_xyz
x,y,z
-y,x,1/2+z
-x,-y,z
y,-x,1/2+z
1/2+x,1/2-y,-z
1/2-x,1/2+y,-z
1/2+y,1/2+x,1/2-z
1/2-y,1/2-x,1/2-z
-x,-y,-z
y,-x,1/2-z
x,y,-z
-y,x,1/2-z
1/2-x,1/2+y,z
1/2+x,1/2-y,z
1/2-y,1/2-x,1/2+z
1/2+y,1/2+x,1/2+z
loop_
_atom_site_type_symbol
_atom_site_label
_atom_site_fract_x
_atom_site_fract_y
_atom_site_fract_z
Si Si1 0.126382 0.581340 0.000000
Si Si2 0.320263 0.341649 0.091044
Si Si3 0.149116 0.689505 0.185721
Si Si4 0.973674 0.216781 0.000000
Si Si5 0.229476 0.799571 0.500000
Si Si6 0.814149 0.502410 0.887632
Si Si7 0.444834 0.895411 0.191760
O O1 0.048807 0.667592 0.000000
O O2 0.231186 0.634969 0.000000
O O3 0.125927 0.522125 0.056816
O O4 0.325982 0.282943 0.148892
O O5 0.290837 0.453650 0.098475
O O6 0.417419 0.325124 0.054244
O O7 0.236397 0.291698 0.053062
O O8 0.184708 0.684708 0.250000
O O9 0.185741 0.593251 0.151646
O O10 0.031525 0.680120 0.186880
O O11 0.088183 0.203815 0.000000
O O12 0.869024 0.590801 0.857011
O O13 0.388920 0.888920 0.250000
O O14 0.500000 0.000000 0.192233
#
# Coordination Sequence:
#
# PCOD9568827 Si02
#       7
#     8  16  16   8   8  16  16
#     4  10  20  40  63  88 127 156 192 262 298 358
#     4  10  23  38  56  92 120 156 199 248 298 366
#     4  11  20  39  58  85 128 154 199 253 301 352
#     4  10  21  39  59  83 118 157 203 246 300 355
#     4  10  21  39  60  86 122 160 198 236 310 367
#     4  11  20  37  62  88 124 149 203 244 306 357
#     4   9  17  31  56  86 110 148 188 246 296 348
#
# _framework density 19.411092
#
# number of rings (size 3 to 8) (size 9 to 14) (size 15 to 20)
#    0.000    2.000    7.273    1.091    2.545    2.182 
#    0.000    6.818    0.000    0.000    0.000    0.000 
#    0.000    0.000    0.000    0.000    0.000    0.000 
#
# Total GULP energy -490821.591641 kJ/mol
# GULP energy per Si atom -5577.518087 kJ/mol
# Density = 1.936691 g / cm^3
# Si number density = 19.411092 Si / 1000 Ang^3
#
#
#
# Elastic Constant Matrix: (Units=GPa)
#
#
# Indices 1 2 3 4 5 6 
#
# 1 48.0100 6.2324 9.0078 0.0000 0.0000 0.0000
# 2 6.2324 48.0100 9.0078 0.0000 0.0000 0.0000
# 3 9.0078 9.0078 123.9320 0.0000 0.0000 0.0000
# 4 0.0000 0.0000 0.0000 23.2356 0.0000 0.0000
# 5 0.0000 0.0000 0.0000 0.0000 23.2356 0.0000
# 6 0.0000 0.0000 0.0000 0.0000 0.0000 21.7610
#
#
#
# Elastic Compliance Matrix: (Units=1/GPa)
#
#
# Indices 1 2 3 4 5 6 
#
# 1 0.021414 -0.002522 -0.001373 0.000000 0.000000 0.000000
# 2 -0.002522 0.021414 -0.001373 0.000000 0.000000 0.000000
# 3 -0.001373 -0.001373 0.008269 0.000000 0.000000 0.000000
# 4 0.000000 0.000000 0.000000 0.043037 0.000000 0.000000
# 5 0.000000 0.000000 0.000000 0.000000 0.043037 0.000000
# 6 0.000000 0.000000 0.000000 0.000000 0.000000 0.045954
#
#
# Mechanical properties :
#
#
# Convention : Reuss Voigt Hill
#
# Bulk Modulus (GPa) = 24.65500 29.82753 27.24126
# Shear Modulus (GPa) = 24.13337 26.69338 25.41337
#
# Velocity S-wave (km/s) = 3.52984 3.71234 3.62224
# Velocity P-wave (km/s) = 5.41683 5.81162 5.61769
#
# Compressibility (1/GPa) = 0.04055973
#
# Stress axis : x y z
#
# Youngs Moduli (GPa) = 46.69834 46.69834 120.94021
#
# Poissons Ratio (x) = 0.11778 0.16607
# Poissons Ratio (y) = 0.11778 0.16607
# Poissons Ratio (z) = 0.06412 0.06412
#
# Static dielectric constant tensor:
#      x y z
#    x 1.710100 0.000000 0.000000 
#    y 0.000000 1.710100 0.000000 
#    z 0.000000 0.000000 1.765620 
# 
# From -- ./inp_files/6043.got.cif
#   From: 2010.05.17/outbox.cif.g08.bks.cpg/sg135_4_cif.got.tgz:6043.got - 2010.05.20 12:50:20.
