data_PCOD9568505
_publ_section_title
;
Structure prediction by ZEFSAII (Michael W. Deem and Ramdas Pophale) SiO2 
 PCOD9568505
Probable space group: P 42/N N M
;
_chemical_formula_sum "Si O2"
_cell_formula_units_Z 88
_cell_length_a 14.621066
_cell_length_b 14.621066
_cell_length_c 20.710337
_cell_angle_alpha 90.000000
_cell_angle_beta 90.000000
_cell_angle_gamma 90.000000
_cell_volume 4427.364117
_symmetry_space_group_name_H-M "P 42/N N M"
_symmetry_group_IT_number 134
_space_group.IT_coordinate_system_code '2'
_symmetry_cell_setting 'tetragonal'
loop_
_space_group_symop_operation_xyz
x,y,z
1/2-y,x,1/2+z
1/2-x,1/2-y,z
y,1/2-x,1/2+z
x,1/2-y,1/2-z
1/2-x,y,1/2-z
y,x,-z
1/2-y,1/2-x,-z
-x,-y,-z
1/2+y,-x,1/2-z
1/2+x,1/2+y,-z
-y,1/2+x,1/2-z
-x,1/2+y,1/2+z
1/2+x,-y,1/2+z
-y,-x,z
1/2+y,1/2+x,z
loop_
_atom_site_type_symbol
_atom_site_label
_atom_site_fract_x
_atom_site_fract_y
_atom_site_fract_z
Si Si1 0.807700 0.841498 0.312920
Si Si2 0.888935 0.956182 0.904452
Si Si3 0.346468 0.500296 0.240980
Si Si4 0.750000 0.104449 0.250000
Si Si5 0.024748 0.819689 0.968878
Si Si6 0.518005 0.337033 0.378186
O O1 0.750000 0.750000 0.330245
O O2 0.750000 0.875820 0.250000
O O3 0.911268 0.836841 0.285997
O O4 0.822338 0.909945 0.372031
O O5 0.855466 0.960690 0.831626
O O6 0.945954 0.866881 0.924527
O O7 0.963797 0.036204 0.909968
O O8 0.815952 0.981648 0.959514
O O9 0.250000 0.551994 0.250000
O O10 0.433391 0.566610 0.252991
O O11 0.669786 0.169786 0.276671
O O12 0.706993 0.052583 0.189495
O O13 0.110349 0.889652 0.968804
O O14 0.051690 0.724560 0.937239
O O15 0.562609 0.437392 0.381561
#
# Coordination Sequence:
#
# PCOD9568505 Si02
#       6
#    16  16  16   8  16  16
#     4  11  21  37  58  87 119 154 204 252 303 371
#     4   8  17  33  56  84 116 158 209 258 301 351
#     4  11  22  38  61  90 122 156 200 261 322 371
#     4   9  18  28  39  68 116 160 187 214 270 349
#     4   9  17  32  55  84 120 162 207 249 293 358
#     4  11  21  32  52  84 122 159 196 246 305 365
#
# _framework density 19.876387000000001
#
# number of rings (size 3 to 8) (size 9 to 14) (size 15 to 20)
#    0.000    2.091    2.727    3.273    0.000    1.273 
#    0.000    0.909    0.000    5.455    0.000    2.545 
#    0.000    0.000    0.000    0.000    0.000    0.000 
#
# Total GULP energy -490080.521955 kJ/mol
# GULP energy per Si atom -5569.096840 kJ/mol
# Density = 1.983115 g / cm^3
# Si number density = 19.876387 Si / 1000 Ang^3
#
#
#
# Elastic Constant Matrix: (Units=GPa)
#
#
# Indices 1 2 3 4 5 6 
#
# 1 96.9038 42.5918 28.1260 0.0000 0.0000 0.0000
# 2 42.5918 96.9038 28.1260 0.0000 0.0000 0.0000
# 3 28.1260 28.1260 35.8076 0.0000 0.0000 0.0000
# 4 0.0000 0.0000 0.0000 2.2244 0.0000 0.0000
# 5 0.0000 0.0000 0.0000 0.0000 2.2244 0.0000
# 6 0.0000 0.0000 0.0000 0.0000 0.0000 12.0015
#
#
#
# Elastic Compliance Matrix: (Units=1/GPa)
#
#
# Indices 1 2 3 4 5 6 
#
# 1 0.014452 -0.003960 -0.008241 0.000000 0.000000 0.000000
# 2 -0.003960 0.014452 -0.008241 0.000000 0.000000 0.000000
# 3 -0.008241 -0.008241 0.040874 0.000000 0.000000 0.000000
# 4 0.000000 0.000000 0.000000 0.449550 0.000000 0.000000
# 5 0.000000 0.000000 0.000000 0.000000 0.449550 0.000000
# 6 0.000000 0.000000 0.000000 0.000000 0.000000 0.083323
#
#
# Mechanical properties :
#
#
# Convention : Reuss Voigt Hill
#
# Bulk Modulus (GPa) = 34.61078 47.47810 41.04444
# Shear Modulus (GPa) = 4.53425 12.00817 8.27121
#
# Velocity S-wave (km/s) = 1.51201 2.46060 2.04215
# Velocity P-wave (km/s) = 4.52759 5.65785 5.12398
#
# Compressibility (1/GPa) = 0.02889273
#
# Stress axis : x y z
#
# Youngs Moduli (GPa) = 69.19436 69.19436 24.46565
#
# Poissons Ratio (x) = 0.27401 0.20163
# Poissons Ratio (y) = 0.27401 0.20163
# Poissons Ratio (z) = 0.57025 0.57025
#
# Static dielectric constant tensor:
#      x y z
#    x 1.754470 0.000000 0.000000 
#    y 0.000000 1.754470 0.000000 
#    z 0.000000 0.000000 1.721770 
# 
# From -- ./inp_files/9027.got.cif
#   From: 2010.05.17/outbox.cif.g08.bks.cpg/sg134_5_cif.got.tgz:9027.got - 2010.05.20 12:42:49.
