data_PCOD9568740
_publ_section_title
;
Structure prediction by ZEFSAII (Michael W. Deem and Ramdas Pophale) SiO2 
 PCOD9568740
Probable space group: P 42/M B C
;
_chemical_formula_sum "Si O2"
_cell_formula_units_Z 96
_cell_length_a 27.573458
_cell_length_b 27.573458
_cell_length_c 8.538354
_cell_angle_alpha 90.000000
_cell_angle_beta 90.000000
_cell_angle_gamma 90.000000
_cell_volume 6491.672859
_symmetry_space_group_name_H-M "P 42/M B C"
_symmetry_group_IT_number 135
_symmetry_cell_setting 'tetragonal'
loop_
_space_group_symop_operation_xyz
x,y,z
-y,x,1/2+z
-x,-y,z
y,-x,1/2+z
1/2+x,1/2-y,-z
1/2-x,1/2+y,-z
1/2+y,1/2+x,1/2-z
1/2-y,1/2-x,1/2-z
-x,-y,-z
y,-x,1/2-z
x,y,-z
-y,x,1/2-z
1/2-x,1/2+y,z
1/2+x,1/2-y,z
1/2-y,1/2-x,1/2+z
1/2+y,1/2+x,1/2+z
loop_
_atom_site_type_symbol
_atom_site_label
_atom_site_fract_x
_atom_site_fract_y
_atom_site_fract_z
Si Si1 0.068673 0.987332 0.323399
Si Si2 0.333833 0.521995 0.186723
Si Si3 0.150141 0.130679 0.314903
Si Si4 0.703832 0.724491 0.321053
Si Si5 0.569643 0.292987 0.809602
Si Si6 0.141803 0.287161 0.176977
O O1 0.062352 0.969184 0.500000
O O2 0.040095 0.955254 0.198580
O O3 0.122876 0.994481 0.275580
O O4 0.339282 0.577842 0.240142
O O5 0.291898 0.484968 0.241320
O O6 0.338865 0.520256 0.000000
O O7 0.142047 0.125019 0.500000
O O8 0.197883 0.162896 0.279748
O O9 0.104580 0.161649 0.244612
O O10 0.726878 0.773122 0.250000
O O11 0.687187 0.731465 0.500000
O O12 0.747781 0.685544 0.326226
O O13 0.597973 0.244408 0.753485
O O14 0.568806 0.294405 0.000000
O O15 0.164829 0.335172 0.250000
O O16 0.128095 0.298821 0.000000
#
# Coordination Sequence:
#
# PCOD9568740 Si02
#       6
#    16  16  16  16  16  16
#     4  11  21  34  47  59  73  94 127 169 212 253
#     4  12  23  34  45  59  79 106 137 172 211 253
#     4  11  21  33  47  64  84 110 140 174 214 256
#     4   9  16  28  45  66  87 108 133 167 206 248
#     4  10  20  34  47  63  84 108 138 175 213 253
#     4   8  15  26  43  63  84 104 127 160 200 242
#
# _framework density 14.788176
#
# number of rings (size 3 to 8) (size 9 to 14) (size 15 to 20)
#    0.000    1.833    0.000    8.000    0.000    4.667 
#    0.000    0.000    0.000    0.000    0.000    0.000 
#    0.000    0.000    0.000    0.000    0.000    0.833 
#
# Total GULP energy -534558.022165 kJ/mol
# GULP energy per Si atom -5568.312731 kJ/mol
# Density = 1.475452 g / cm^3
# Si number density = 14.788176 Si / 1000 Ang^3
#
#
#
# Elastic Constant Matrix: (Units=GPa)
#
#
# Indices 1 2 3 4 5 6 
#
# 1 33.3843 16.7514 6.5177 0.0000 0.0000 0.0000
# 2 16.7514 33.3829 6.5167 0.0000 0.0000 0.0000
# 3 6.5177 6.5167 74.4829 0.0000 0.0000 0.0000
# 4 0.0000 0.0000 0.0000 19.4487 0.0000 0.0000
# 5 0.0000 0.0000 0.0000 0.0000 19.4490 0.0000
# 6 0.0000 0.0000 0.0000 0.0000 0.0000 -25.9491
#
#
#
# Elastic Compliance Matrix: (Units=1/GPa)
#
#
# Indices 1 2 3 4 5 6 
#
# 1 0.040267 -0.019857 -0.001786 0.000000 0.000000 0.000000
# 2 -0.019857 0.040268 -0.001786 0.000000 0.000000 0.000000
# 3 -0.001786 -0.001786 0.013738 0.000000 0.000000 0.000000
# 4 0.000000 0.000000 0.000000 0.051417 0.000000 0.000000
# 5 0.000000 0.000000 0.000000 0.000000 0.051416 0.000000
# 6 0.000000 0.000000 0.000000 0.000000 0.000000 -0.038537
#
#
# Mechanical properties :
#
#
# Convention : Reuss Voigt Hill
#
# Bulk Modulus (GPa) = 21.09005 22.31353 21.70179
# Shear Modulus (GPa) = 22.60058 10.02067 16.31063
#
# Velocity S-wave (km/s) = 3.91357 2.60593 3.32467
# Velocity P-wave (km/s) = 5.89184 4.91691 5.42631
#
# Compressibility (1/GPa) = 0.04741574
#
# Stress axis : x y z
#
# Youngs Moduli (GPa) = 24.83438 24.83345 72.78855
#
# Poissons Ratio (x) = 0.49312 0.13002
# Poissons Ratio (y) = 0.49314 0.12997
# Poissons Ratio (z) = 0.04436 0.04434
#
# Static dielectric constant tensor:
#      x y z
#    x 1.544960 0.000000 0.000000 
#    y 0.000000 1.544960 0.000000 
#    z 0.000000 0.000000 1.383840 
# 
# From -- ./inp_files/1354.got.cif
#   From: 2010.05.17/outbox.cif.g08.bks.cpg/sg135_1_cif.got.tgz:1354.got - 2010.05.20 12:50:20.
