data_PCOD9568052
_publ_section_title
;
Structure prediction by ZEFSAII (Michael W. Deem and Ramdas Pophale) SiO2 
 PCOD9568052
Probable space group: P 42/N B C
;
_chemical_formula_sum "Si O2"
_cell_formula_units_Z 104
_cell_length_a 15.887362
_cell_length_b 15.887362
_cell_length_c 15.901456
_cell_angle_alpha 90.000000
_cell_angle_beta 90.000000
_cell_angle_gamma 90.000000
_cell_volume 4013.659020
_symmetry_space_group_name_H-M "P 42/N B C"
_symmetry_group_IT_number 133
_space_group.IT_coordinate_system_code '2'
_symmetry_cell_setting 'tetragonal'
loop_
_space_group_symop_operation_xyz
x,y,z
1/2-y,x,1/2+z
1/2-x,1/2-y,z
y,1/2-x,1/2+z
x,1/2-y,-z
1/2-x,y,-z
y,x,1/2-z
1/2-y,1/2-x,1/2-z
-x,-y,-z
1/2+y,-x,1/2-z
1/2+x,1/2+y,-z
-y,1/2+x,1/2-z
-x,1/2+y,z
1/2+x,-y,z
-y,-x,1/2+z
1/2+y,1/2+x,1/2+z
loop_
_atom_site_type_symbol
_atom_site_label
_atom_site_fract_x
_atom_site_fract_y
_atom_site_fract_z
Si Si1 0.750000 0.250000 0.134593
Si Si2 0.647502 0.986273 0.512672
Si Si3 0.959536 0.604155 0.661147
Si Si4 0.863491 0.569116 0.332655
Si Si5 0.651742 0.401526 0.713640
Si Si6 0.905312 0.343088 0.588036
Si Si7 0.724286 0.906172 0.090313
O O1 0.668762 0.282730 0.185998
O O2 0.727436 0.165897 0.085205
O O3 0.750000 0.970735 0.500000
O O4 0.656068 0.835747 0.357062
O O5 0.605242 0.959123 0.424830
O O6 0.629470 0.083223 0.530172
O O7 0.932023 0.567978 0.750000
O O8 0.929565 0.698814 0.648805
O O9 0.905933 0.558236 0.587049
O O10 0.062038 0.604282 0.665567
O O11 0.804988 0.491585 0.308382
O O12 0.922545 0.577456 0.250000
O O13 0.633334 0.402901 0.812627
O O14 0.001113 0.316309 0.570827
O O15 0.750000 0.869927 0.000000
#
# Coordination Sequence:
#
# PCOD9568052 Si02
#       7
#     8  16  16  16  16  16  16
#     4  12  27  44  81 130 177 217 264 357 433 534
#     4  12  29  49  81 121 165 222 290 355 427 514
#     4  12  26  49  81 117 168 224 288 348 425 521
#     4  12  27  50  78 112 163 224 288 353 425 515
#     4  12  24  47  79 121 170 228 281 342 439 526
#     4  12  25  47  76 121 172 218 277 349 431 519
#     4  12  27  48  77 116 158 213 289 354 421 504
#
# _framework density 25.911518999999998
#
# number of rings (size 3 to 8) (size 9 to 14) (size 15 to 20)
#    0.000    0.000    6.154    3.692    4.308    2.462 
#    0.000    2.308    0.000    0.000    0.000    0.000 
#    0.000    0.000    0.000    0.000    0.000    0.000 
#
# Total GULP energy -581141.355085 kJ/mol
# GULP energy per Si atom -5587.897645 kJ/mol
# Density = 2.585254 g / cm^3
# Si number density = 25.911519 Si / 1000 Ang^3
#
#
#
# Elastic Constant Matrix: (Units=GPa)
#
#
# Indices 1 2 3 4 5 6 
#
# 1 98.6792 33.5709 34.7997 0.0000 0.0000 0.0000
# 2 33.5709 98.6807 34.8023 0.0000 0.0000 0.0000
# 3 34.7997 34.8023 191.7709 0.0000 0.0000 0.0000
# 4 0.0000 0.0000 0.0000 32.1474 0.0000 0.0000
# 5 0.0000 0.0000 0.0000 0.0000 32.1720 0.0000
# 6 0.0000 0.0000 0.0000 0.0000 0.0000 44.3551
#
#
#
# Elastic Compliance Matrix: (Units=1/GPa)
#
#
# Indices 1 2 3 4 5 6 
#
# 1 0.011859 -0.003500 -0.001517 0.000000 0.000000 0.000000
# 2 -0.003500 0.011859 -0.001517 0.000000 0.000000 0.000000
# 3 -0.001517 -0.001517 0.005765 0.000000 0.000000 0.000000
# 4 0.000000 0.000000 0.000000 0.031107 0.000000 0.000000
# 5 0.000000 0.000000 0.000000 0.000000 0.031083 0.000000
# 6 0.000000 0.000000 0.000000 0.000000 0.000000 0.022545
#
#
# Mechanical properties :
#
#
# Convention : Reuss Voigt Hill
#
# Bulk Modulus (GPa) = 60.91432 66.16406 63.53919
# Shear Modulus (GPa) = 37.66243 40.79874 39.23059
#
# Velocity S-wave (km/s) = 3.81662 3.97235 3.89526
# Velocity P-wave (km/s) = 6.55604 6.82858 6.69370
#
# Compressibility (1/GPa) = 0.01641650
#
# Stress axis : x y z
#
# Youngs Moduli (GPa) = 84.32155 84.32203 173.45556
#
# Poissons Ratio (x) = 0.29509 0.26313
# Poissons Ratio (y) = 0.29509 0.26316
# Poissons Ratio (z) = 0.12791 0.12793
#
# Static dielectric constant tensor:
#      x y z
#    x 2.090700 0.000000 0.000000 
#    y 0.000000 2.090700 0.000000 
#    z 0.000000 0.000000 2.062560 
# 
# From -- ./inp_files/5622.got.cif
#   From: 2010.05.17/outbox.cif.g08.bks.cpg/sg133_3_cif.got.tgz:5622.got - 2010.05.20 12:37:36.
