data_PCOD9568698
_publ_section_title
;
Structure prediction by ZEFSAII (Michael W. Deem and Ramdas Pophale) SiO2 
 PCOD9568698
Probable space group: P 42/M B C
;
_chemical_formula_sum "Si O2"
_cell_formula_units_Z 112
_cell_length_a 15.126395
_cell_length_b 15.126395
_cell_length_c 25.754450
_cell_angle_alpha 90.000000
_cell_angle_beta 90.000000
_cell_angle_gamma 90.000000
_cell_volume 5892.819706
_symmetry_space_group_name_H-M "P 42/M B C"
_symmetry_group_IT_number 135
_symmetry_cell_setting 'tetragonal'
loop_
_space_group_symop_operation_xyz
x,y,z
-y,x,1/2+z
-x,-y,z
y,-x,1/2+z
1/2+x,1/2-y,-z
1/2-x,1/2+y,-z
1/2+y,1/2+x,1/2-z
1/2-y,1/2-x,1/2-z
-x,-y,-z
y,-x,1/2-z
x,y,-z
-y,x,1/2-z
1/2-x,1/2+y,z
1/2+x,1/2-y,z
1/2-y,1/2-x,1/2+z
1/2+y,1/2+x,1/2+z
loop_
_atom_site_type_symbol
_atom_site_label
_atom_site_fract_x
_atom_site_fract_y
_atom_site_fract_z
Si Si1 0.226450 0.934139 0.841121
Si Si2 0.913286 0.707879 0.939565
Si Si3 0.319130 0.981562 0.940853
Si Si4 0.178942 0.617138 0.560934
Si Si5 0.103010 0.064955 0.723734
Si Si6 0.231605 0.238075 0.136905
Si Si7 0.279624 0.094867 0.223628
O O1 0.242379 0.969298 0.898938
O O2 0.124735 0.932057 0.822947
O O3 0.263104 0.834983 0.837913
O O4 0.280535 0.999777 0.803604
O O5 0.880065 0.605652 0.935970
O O6 0.856036 0.763772 0.898735
O O7 0.017198 0.707905 0.928159
O O8 0.899019 0.734783 0.000000
O O9 0.370430 0.073234 0.930806
O O10 0.286549 0.984739 0.000000
O O11 0.195739 0.635208 0.500000
O O12 0.228073 0.686887 0.596991
O O13 0.203703 0.089481 0.733105
O O14 0.040682 0.093691 0.772988
O O15 0.244870 0.163582 0.180127
O O16 0.367523 0.132478 0.250000
#
# Coordination Sequence:
#
# PCOD9568698 Si02
#       7
#    16  16  16  16  16  16  16
#     4  10  20  36  57  82 117 150 193 246 300 353
#     4   9  19  34  54  84 121 155 196 246 296 360
#     4   9  17  32  57  87 117 153 198 247 302 365
#     4  10  19  34  57  84 117 160 203 242 296 363
#     4   9  19  35  57  82 109 152 204 247 282 356
#     4  11  21  35  57  87 113 151 194 244 300 361
#     4  11  21  38  58  82 110 150 198 254 304 346
#
# _framework density 19.006181000000002
#
# number of rings (size 3 to 8) (size 9 to 14) (size 15 to 20)
#    0.000    2.143    2.857    0.857    0.000    3.429 
#    0.000    0.000    0.000    0.000    0.000   10.000 
#    0.000    0.000    0.000    0.000    0.000    0.000 
#
# Total GULP energy -624398.427170 kJ/mol
# GULP energy per Si atom -5574.985957 kJ/mol
# Density = 1.896292 g / cm^3
# Si number density = 19.006181 Si / 1000 Ang^3
#
#
#
# Elastic Constant Matrix: (Units=GPa)
#
#
# Indices 1 2 3 4 5 6 
#
# 1 43.9923 9.7062 15.5092 0.0000 0.0000 0.0000
# 2 9.7062 43.9917 15.5078 0.0000 0.0000 0.0000
# 3 15.5092 15.5078 38.2069 0.0000 0.0000 0.0000
# 4 0.0000 0.0000 0.0000 23.5360 0.0000 0.0000
# 5 0.0000 0.0000 0.0000 0.0000 23.5355 0.0000
# 6 0.0000 0.0000 0.0000 0.0000 0.0000 19.9677
#
#
#
# Elastic Compliance Matrix: (Units=1/GPa)
#
#
# Indices 1 2 3 4 5 6 
#
# 1 0.026747 -0.002420 -0.009875 0.000000 0.000000 0.000000
# 2 -0.002420 0.026746 -0.009874 0.000000 0.000000 0.000000
# 3 -0.009875 -0.009874 0.034189 0.000000 0.000000 0.000000
# 4 0.000000 0.000000 0.000000 0.042488 0.000000 0.000000
# 5 0.000000 0.000000 0.000000 0.000000 0.042489 0.000000
# 6 0.000000 0.000000 0.000000 0.000000 0.000000 0.050081
#
#
# Mechanical properties :
#
#
# Convention : Reuss Voigt Hill
#
# Bulk Modulus (GPa) = 23.07079 23.07079 23.07079
# Shear Modulus (GPa) = 17.76039 19.10570 18.43304
#
# Velocity S-wave (km/s) = 3.06020 3.17399 3.11761
# Velocity P-wave (km/s) = 4.96501 5.05936 5.01241
#
# Compressibility (1/GPa) = 0.04334485
#
# Stress axis : x y z
#
# Youngs Moduli (GPa) = 37.38802 37.38852 29.24886
#
# Poissons Ratio (x) = 0.09049 0.28883
# Poissons Ratio (y) = 0.09049 0.28879
# Poissons Ratio (z) = 0.36920 0.36916
#
# Static dielectric constant tensor:
#      x y z
#    x 1.671260 0.000000 0.000000 
#    y 0.000000 1.671260 0.000000 
#    z 0.000000 0.000000 1.669860 
# 
# From -- ./inp_files/6531.got.cif
#   From: 2010.05.17/outbox.cif.g08.bks.cpg/sg135_4_cif.got.tgz:6531.got - 2010.05.20 12:50:20.
