data_PCOD9568146
_publ_section_title
;
Structure prediction by ZEFSAII (Michael W. Deem and Ramdas Pophale) SiO2 
 PCOD9568146
Probable space group: P 42/N N M
;
_chemical_formula_sum "Si O2"
_cell_formula_units_Z 112
_cell_length_a 14.549397
_cell_length_b 14.549397
_cell_length_c 26.074000
_cell_angle_alpha 90.000000
_cell_angle_beta 90.000000
_cell_angle_gamma 90.000000
_cell_volume 5519.473466
_symmetry_space_group_name_H-M "P 42/N N M"
_symmetry_group_IT_number 134
_space_group.IT_coordinate_system_code '2'
_symmetry_cell_setting 'tetragonal'
loop_
_space_group_symop_operation_xyz
x,y,z
1/2-y,x,1/2+z
1/2-x,1/2-y,z
y,1/2-x,1/2+z
x,1/2-y,1/2-z
1/2-x,y,1/2-z
y,x,-z
1/2-y,1/2-x,-z
-x,-y,-z
1/2+y,-x,1/2-z
1/2+x,1/2+y,-z
-y,1/2+x,1/2-z
-x,1/2+y,1/2+z
1/2+x,-y,1/2+z
-y,-x,z
1/2+y,1/2+x,z
loop_
_atom_site_type_symbol
_atom_site_label
_atom_site_fract_x
_atom_site_fract_y
_atom_site_fract_z
Si Si1 0.346398 0.509764 0.223635
Si Si2 0.536299 0.818513 0.060054
Si Si3 0.972870 0.690740 0.942115
Si Si4 0.899571 0.254439 0.150263
Si Si5 0.749848 0.389367 0.867583
Si Si6 0.314914 0.415515 0.796782
Si Si7 0.171622 0.176336 0.091043
O O1 0.250000 0.486701 0.250000
O O2 0.407368 0.592633 0.246165
O O3 0.310477 0.546802 0.169063
O O4 0.409603 0.420071 0.221222
O O5 0.608520 0.900875 0.072286
O O6 0.451380 0.812903 0.097405
O O7 0.585116 0.719892 0.070917
O O8 0.505180 0.826822 0.001286
O O9 0.916869 0.786771 0.938639
O O10 0.053617 0.704109 0.901258
O O11 0.831577 0.168424 0.139504
O O12 0.834966 0.334966 0.173170
O O13 0.984091 0.220668 0.185526
O O14 0.676566 0.323435 0.896123
O O15 0.818263 0.318263 0.839114
O O16 0.250000 0.383211 0.750000
O O17 0.316614 0.353755 0.848680
O O18 0.250000 0.250000 0.080050
#
# Coordination Sequence:
#
# PCOD9568146 Si02
#       7
#    16  16  16  16  16  16  16
#     4  11  24  41  63  90 124 164 208 259 314 379
#     4  10  18  36  59  89 127 161 201 252 309 369
#     4   9  20  34  60  91 120 161 205 251 309 374
#     4  10  23  44  64  86 123 166 209 260 316 374
#     4  10  22  39  59  86 122 164 205 248 303 367
#     4  11  24  39  66  93 123 155 211 263 320 377
#     4   9  18  34  57  86 123 159 195 247 310 370
#
# _framework density 20.291789999999999
#
# number of rings (size 3 to 8) (size 9 to 14) (size 15 to 20)
#    0.000    2.000    1.429    1.286    2.000    6.429 
#    0.000    3.571    0.000    2.571    0.000    0.000 
#    0.000    0.000    0.000    0.000    0.000    0.000 
#
# Total GULP energy -623886.561162 kJ/mol
# GULP energy per Si atom -5570.415725 kJ/mol
# Density = 2.024561 g / cm^3
# Si number density = 20.291790 Si / 1000 Ang^3
#
#
#
# Elastic Constant Matrix: (Units=GPa)
#
#
# Indices 1 2 3 4 5 6 
#
# 1 96.8035 39.3268 23.6646 0.0000 0.0000 0.0000
# 2 39.3268 96.8035 23.6646 0.0000 0.0000 0.0000
# 3 23.6646 23.6646 60.4566 0.0000 0.0000 0.0000
# 4 0.0000 0.0000 0.0000 -45.8755 0.0000 0.0000
# 5 0.0000 0.0000 0.0000 0.0000 -45.8755 0.0000
# 6 0.0000 0.0000 0.0000 0.0000 0.0000 25.2904
#
#
#
# Elastic Compliance Matrix: (Units=1/GPa)
#
#
# Indices 1 2 3 4 5 6 
#
# 1 0.012951 -0.004448 -0.003328 0.000000 0.000000 0.000000
# 2 -0.004448 0.012951 -0.003328 0.000000 0.000000 0.000000
# 3 -0.003328 -0.003328 0.019146 0.000000 0.000000 0.000000
# 4 0.000000 0.000000 0.000000 -0.021798 0.000000 0.000000
# 5 0.000000 0.000000 0.000000 0.000000 -0.021798 0.000000
# 6 0.000000 0.000000 0.000000 0.000000 0.000000 0.039541
#
#
# Mechanical properties :
#
#
# Convention : Reuss Voigt Hill
#
# Bulk Modulus (GPa) = 43.78449 47.48619 45.63534
# Shear Modulus (GPa) = 70.60737 -2.13160 34.23788
#
# Velocity S-wave (km/s) = 5.90522 -1.02604 4.11210
# Velocity P-wave (km/s) = 8.25347 4.69562 6.71448
#
# Compressibility (1/GPa) = 0.02283914
#
# Stress axis : x y z
#
# Youngs Moduli (GPa) = 77.21574 77.21574 52.22897
#
# Poissons Ratio (x) = 0.34343 0.17384
# Poissons Ratio (y) = 0.34343 0.17384
# Poissons Ratio (z) = 0.25700 0.25700
#
# Static dielectric constant tensor:
#      x y z
#    x 1.738940 0.000000 0.000000 
#    y 0.000000 1.738940 0.000000 
#    z 0.000000 0.000000 1.719780 
# 
# From -- ./inp_files/10112.got.cif
#   From: 2010.05.17/outbox.cif.g08.bks.cpg/sg134_6_cif.got.tgz:10112.got - 2010.05.20 12:42:49.
