data_PCOD9568398
_publ_section_title
;
Structure prediction by ZEFSAII (Michael W. Deem and Ramdas Pophale) SiO2 
 PCOD9568398
Probable space group: P 42/N N M
;
_chemical_formula_sum "Si O2"
_cell_formula_units_Z 96
_cell_length_a 16.269409
_cell_length_b 16.269409
_cell_length_c 18.523381
_cell_angle_alpha 90.000000
_cell_angle_beta 90.000000
_cell_angle_gamma 90.000000
_cell_volume 4903.021683
_symmetry_space_group_name_H-M "P 42/N N M"
_symmetry_group_IT_number 134
_space_group.IT_coordinate_system_code '2'
_symmetry_cell_setting 'tetragonal'
loop_
_space_group_symop_operation_xyz
x,y,z
1/2-y,x,1/2+z
1/2-x,1/2-y,z
y,1/2-x,1/2+z
x,1/2-y,1/2-z
1/2-x,y,1/2-z
y,x,-z
1/2-y,1/2-x,-z
-x,-y,-z
1/2+y,-x,1/2-z
1/2+x,1/2+y,-z
-y,1/2+x,1/2-z
-x,1/2+y,1/2+z
1/2+x,-y,1/2+z
-y,-x,z
1/2+y,1/2+x,z
loop_
_atom_site_type_symbol
_atom_site_label
_atom_site_fract_x
_atom_site_fract_y
_atom_site_fract_z
Si Si1 0.766238 0.555744 0.165309
Si Si2 0.790959 0.080272 0.577330
Si Si3 0.200089 0.143513 0.175663
Si Si4 0.400579 0.355045 0.582170
Si Si5 0.615318 0.253003 0.410564
Si Si6 0.961386 0.328814 0.697955
O O1 0.750000 0.545975 0.250000
O O2 0.710315 0.635491 0.148932
O O3 0.856734 0.579673 0.135466
O O4 0.741742 0.470935 0.128419
O O5 0.841247 0.158754 0.605137
O O6 0.770191 0.095678 0.494236
O O7 0.708007 0.065903 0.621235
O O8 0.848145 0.999304 0.584715
O O9 0.250000 0.163376 0.250000
O O10 0.266925 0.127344 0.113736
O O11 0.153620 0.058267 0.193717
O O12 0.372724 0.372724 0.500000
O O13 0.668225 0.331776 0.383537
O O14 0.674902 0.174902 0.403976
O O15 0.951974 0.250000 0.750000
O O16 0.904721 0.404721 0.719182
#
# Coordination Sequence:
#
# PCOD9568398 Si02
#       6
#    16  16  16  16  16  16
#     4  12  24  40  65  93 125 169 209 256 319 374
#     4  10  21  39  63  90 123 161 205 261 318 370
#     4  10  22  40  61  88 127 162 198 250 309 370
#     4  11  22  39  63  96 122 156 207 260 308 372
#     4  10  23  44  66  91 126 167 214 264 313 373
#     4  10  21  37  58  89 124 160 203 251 308 374
#
# _framework density 19.579761999999999
#
# number of rings (size 3 to 8) (size 9 to 14) (size 15 to 20)
#    0.000    1.500    3.333    1.500    0.000    5.500 
#    0.000    0.833    0.000    3.000    0.000    0.000 
#    0.000    0.000    0.000    0.000    0.000    0.000 
#
# Total GULP energy -535929.741650 kJ/mol
# GULP energy per Si atom -5582.601476 kJ/mol
# Density = 1.953520 g / cm^3
# Si number density = 19.579762 Si / 1000 Ang^3
#
#
#
# Elastic Constant Matrix: (Units=GPa)
#
#
# Indices 1 2 3 4 5 6 
#
# 1 64.1336 24.6834 -9.1095 0.0000 0.0000 0.0000
# 2 24.6834 64.1336 -9.1095 0.0000 0.0000 0.0000
# 3 -9.1095 -9.1095 47.2230 0.0000 0.0000 0.0000
# 4 0.0000 0.0000 0.0000 18.3991 0.0000 0.0000
# 5 0.0000 0.0000 0.0000 0.0000 18.3991 0.0000
# 6 0.0000 0.0000 0.0000 0.0000 0.0000 17.0141
#
#
#
# Elastic Compliance Matrix: (Units=1/GPa)
#
#
# Indices 1 2 3 4 5 6 
#
# 1 0.018536 -0.006813 0.002261 0.000000 0.000000 0.000000
# 2 -0.006813 0.018536 0.002261 0.000000 0.000000 0.000000
# 3 0.002261 0.002261 0.022049 0.000000 0.000000 0.000000
# 4 0.000000 0.000000 0.000000 0.054350 0.000000 0.000000
# 5 0.000000 0.000000 0.000000 0.000000 0.054350 0.000000
# 6 0.000000 0.000000 0.000000 0.000000 0.000000 0.058775
#
#
# Mechanical properties :
#
#
# Convention : Reuss Voigt Hill
#
# Bulk Modulus (GPa) = 18.33511 20.93545 19.63528
# Shear Modulus (GPa) = 20.05168 22.03084 21.04126
#
# Velocity S-wave (km/s) = 3.20363 3.35802 3.28173
# Velocity P-wave (km/s) = 4.80302 5.07451 4.94063
#
# Compressibility (1/GPa) = 0.05454018
#
# Stress axis : x y z
#
# Youngs Moduli (GPa) = 53.94995 53.94995 45.35438
#
# Poissons Ratio (x) = 0.36755 -0.10256
# Poissons Ratio (y) = 0.36755 -0.10256
# Poissons Ratio (z) = -0.12200 -0.12200
#
# Static dielectric constant tensor:
#      x y z
#    x 1.676520 0.000000 0.000000 
#    y 0.000000 1.676520 0.000000 
#    z 0.000000 0.000000 1.709040 
# 
# From -- ./inp_files/9170.got.cif
#   From: 2010.05.17/outbox.cif.g08.bks.cpg/sg134_5_cif.got.tgz:9170.got - 2010.05.20 12:42:49.
