data_PCOD9568577
_publ_section_title
;
Structure prediction by ZEFSAII (Michael W. Deem and Ramdas Pophale) SiO2 
 PCOD9568577
Probable space group: P 42/N N M
;
_chemical_formula_sum "Si O2"
_cell_formula_units_Z 88
_cell_length_a 18.000000
_cell_length_b 18.000000
_cell_length_c 15.000000
_cell_angle_alpha 90.000000
_cell_angle_beta 90.000000
_cell_angle_gamma 90.000000
_cell_volume 4860.000000
_symmetry_space_group_name_H-M "P 42/N N M"
_symmetry_group_IT_number 134
_space_group.IT_coordinate_system_code '2'
_symmetry_cell_setting 'tetragonal'
loop_
_space_group_symop_operation_xyz
x,y,z
1/2-y,x,1/2+z
1/2-x,1/2-y,z
y,1/2-x,1/2+z
x,1/2-y,1/2-z
1/2-x,y,1/2-z
y,x,-z
1/2-y,1/2-x,-z
-x,-y,-z
1/2+y,-x,1/2-z
1/2+x,1/2+y,-z
-y,1/2+x,1/2-z
-x,1/2+y,1/2+z
1/2+x,-y,1/2+z
-y,-x,z
1/2+y,1/2+x,z
loop_
_atom_site_type_symbol
_atom_site_label
_atom_site_fract_x
_atom_site_fract_y
_atom_site_fract_z
Si Si1 0.980921 0.786258 0.612159
Si Si2 0.513587 0.735787 0.399299
Si Si3 0.588441 0.532859 0.903583
Si Si4 0.314146 0.191521 0.892438
Si Si5 0.380758 0.750000 0.250000
Si Si6 0.012327 0.633939 0.710769
O O1 0.996283 0.791541 0.504391
O O2 0.892287 0.790184 0.630266
O O3 0.010884 0.708379 0.651281
O O4 0.010910 0.846819 0.683802
O O5 0.524095 0.824207 0.402267
O O6 0.597425 0.706123 0.370079
O O7 0.440760 0.728155 0.331615
O O8 0.544988 0.455013 0.895016
O O9 0.557431 0.585717 0.825168
O O10 0.566186 0.566186 0.000000
O O11 0.250000 0.250000 0.860424
O O12 0.308283 0.191718 0.000000
O O13 0.322139 0.677862 0.236435
O O14 0.083940 0.583940 0.690432
#
# Coordination Sequence:
#
# PCOD9568577 Si02
#       6
#    16  16  16  16   8  16
#     4  10  21  38  58  90 130 161 206 254 322 390
#     4  11  22  39  65  89 123 170 214 261 331 396
#     4  10  19  33  59  93 123 159 211 259 309 379
#     4   9  19  35  59  90 129 164 195 243 309 393
#     4  11  28  50  67  88 118 162 235 304 334 369
#     4  10  21  36  58  88 127 166 204 256 310 379
#
# _framework density 18.106995999999999
#
# number of rings (size 3 to 8) (size 9 to 14) (size 15 to 20)
#    0.000    1.909    1.818    1.636    5.091    1.455 
#    0.000    0.000    0.000    7.636    0.000    0.000 
#    0.000    0.000    0.000    0.000    0.000    0.000 
#
# Total GULP energy -489887.091561 kJ/mol
# GULP energy per Si atom -5566.898768 kJ/mol
# Density = 1.806578 g / cm^3
# Si number density = 18.106996 Si / 1000 Ang^3
#
#
#
# Elastic Constant Matrix: (Units=GPa)
#
#
# Indices 1 2 3 4 5 6 
#
# 1 98.5745 36.7368 29.0873 0.0000 0.0000 0.0000
# 2 36.7368 98.5742 29.0874 0.0000 0.0000 0.0000
# 3 29.0873 29.0874 103.6722 0.0000 0.0000 0.0000
# 4 0.0000 0.0000 0.0000 34.1654 0.0000 0.0000
# 5 0.0000 0.0000 0.0000 0.0000 34.1655 0.0000
# 6 0.0000 0.0000 0.0000 0.0000 0.0000 23.6155
#
#
#
# Elastic Compliance Matrix: (Units=1/GPa)
#
#
# Indices 1 2 3 4 5 6 
#
# 1 0.012288 -0.003884 -0.002358 0.000000 0.000000 0.000000
# 2 -0.003884 0.012288 -0.002358 0.000000 0.000000 0.000000
# 3 -0.002358 -0.002358 0.010969 0.000000 0.000000 0.000000
# 4 0.000000 0.000000 0.000000 0.029269 0.000000 0.000000
# 5 0.000000 0.000000 0.000000 0.000000 0.029269 0.000000
# 6 0.000000 0.000000 0.000000 0.000000 0.000000 0.042345
#
#
# Mechanical properties :
#
#
# Convention : Reuss Voigt Hill
#
# Bulk Modulus (GPa) = 54.50961 54.51600 54.51281
# Shear Modulus (GPa) = 31.30040 32.11658 31.70849
#
# Velocity S-wave (km/s) = 4.16220 4.21611 4.18924
# Velocity P-wave (km/s) = 7.29850 7.33988 7.31922
#
# Compressibility (1/GPa) = 0.01834539
#
# Stress axis : x y z
#
# Youngs Moduli (GPa) = 81.38189 81.38162 91.16655
#
# Poissons Ratio (x) = 0.31606 0.21497
# Poissons Ratio (y) = 0.31606 0.21497
# Poissons Ratio (z) = 0.19189 0.19189
#
# Static dielectric constant tensor:
#      x y z
#    x 1.638920 0.000000 0.000000 
#    y 0.000000 1.638920 0.000000 
#    z 0.000000 0.000000 1.670660 
# 
# From -- ./inp_files/6467.got.cif
#   From: 2010.05.17/outbox.ucp.g08.bks.cvg/sg134_4_cif.got.tgz:6467.got - 2010.06.11 11:39:54.
