data_PCOD9568404
_publ_section_title
;
Structure prediction by ZEFSAII (Michael W. Deem and Ramdas Pophale) SiO2 
 PCOD9568404
Probable space group: P 42/N N M
;
_chemical_formula_sum "Si O2"
_cell_formula_units_Z 112
_cell_length_a 15.454022
_cell_length_b 15.454022
_cell_length_c 23.432230
_cell_angle_alpha 90.000000
_cell_angle_beta 90.000000
_cell_angle_gamma 90.000000
_cell_volume 5596.244413
_symmetry_space_group_name_H-M "P 42/N N M"
_symmetry_group_IT_number 134
_space_group.IT_coordinate_system_code '2'
_symmetry_cell_setting 'tetragonal'
loop_
_space_group_symop_operation_xyz
x,y,z
1/2-y,x,1/2+z
1/2-x,1/2-y,z
y,1/2-x,1/2+z
x,1/2-y,1/2-z
1/2-x,y,1/2-z
y,x,-z
1/2-y,1/2-x,-z
-x,-y,-z
1/2+y,-x,1/2-z
1/2+x,1/2+y,-z
-y,1/2+x,1/2-z
-x,1/2+y,1/2+z
1/2+x,-y,1/2+z
-y,-x,z
1/2+y,1/2+x,z
loop_
_atom_site_type_symbol
_atom_site_label
_atom_site_fract_x
_atom_site_fract_y
_atom_site_fract_z
Si Si1 0.430256 0.264638 0.131178
Si Si2 0.529520 0.328620 0.839780
Si Si3 0.868628 0.507060 0.827413
Si Si4 0.415908 0.443736 0.566354
Si Si5 0.254470 0.608823 0.684970
Si Si6 0.861183 0.850934 0.235014
Si Si7 0.421288 0.440746 0.067502
O O1 0.424183 0.177727 0.093764
O O2 0.531399 0.268417 0.144875
O O3 0.383229 0.283764 0.193031
O O4 0.406325 0.346371 0.092850
O O5 0.615860 0.384141 0.828565
O O6 0.528807 0.228395 0.821983
O O7 0.447181 0.364152 0.804324
O O8 0.501768 0.346319 0.905711
O O9 0.884539 0.523309 0.894113
O O10 0.886972 0.597748 0.794247
O O11 0.937272 0.437272 0.806508
O O12 0.420359 0.420359 0.500000
O O13 0.459653 0.540348 0.572399
O O14 0.250000 0.576574 0.750000
O O15 0.347369 0.652632 0.675017
O O16 0.184204 0.684204 0.680785
O O17 0.848543 0.750000 0.250000
O O18 0.509531 0.490470 0.087153
O O19 0.429975 0.429975 0.000000
#
# Coordination Sequence:
#
# PCOD9568404 Si02
#       7
#    16  16  16  16  16  16  16
#     4  11  21  36  65  86 111 163 209 238 299 378
#     4   9  18  35  59  86 119 154 193 247 304 366
#     4  10  21  37  60  86 121 162 199 250 308 366
#     4  10  24  43  60  83 117 160 210 259 304 360
#     4   9  19  34  54  87 125 151 184 243 298 352
#     4   9  20  38  58  87 126 151 190 244 302 357
#     4   9  19  35  57  86 116 149 195 255 311 358
#
# _framework density 20.013421000000001
#
# number of rings (size 3 to 8) (size 9 to 14) (size 15 to 20)
#    0.000    2.429    0.000    1.714    4.000    2.000 
#    0.000    8.571    0.000    2.571    0.000    0.000 
#    0.000    0.000    0.000    0.000    0.000    0.000 
#
# Total GULP energy -623501.373704 kJ/mol
# GULP energy per Si atom -5566.976551 kJ/mol
# Density = 1.996787 g / cm^3
# Si number density = 20.013421 Si / 1000 Ang^3
#
#
#
# Elastic Constant Matrix: (Units=GPa)
#
#
# Indices 1 2 3 4 5 6 
#
# 1 96.3178 41.0263 32.5426 0.0000 0.0000 0.0000
# 2 41.0263 96.3178 32.5426 0.0000 0.0000 0.0000
# 3 32.5426 32.5426 119.3503 0.0000 0.0000 0.0000
# 4 0.0000 0.0000 0.0000 24.7957 0.0000 0.0000
# 5 0.0000 0.0000 0.0000 0.0000 24.7957 0.0000
# 6 0.0000 0.0000 0.0000 0.0000 0.0000 -4.4089
#
#
#
# Elastic Compliance Matrix: (Units=1/GPa)
#
#
# Indices 1 2 3 4 5 6 
#
# 1 0.013224 -0.004862 -0.002280 0.000000 0.000000 0.000000
# 2 -0.004862 0.013224 -0.002280 0.000000 0.000000 0.000000
# 3 -0.002280 -0.002280 0.009622 0.000000 0.000000 0.000000
# 4 0.000000 0.000000 0.000000 0.040329 0.000000 0.000000
# 5 0.000000 0.000000 0.000000 0.000000 0.040329 0.000000
# 6 0.000000 0.000000 0.000000 0.000000 0.000000 -0.226813
#
#
# Mechanical properties :
#
#
# Convention : Reuss Voigt Hill
#
# Bulk Modulus (GPa) = 58.05413 58.24544 58.14979
# Shear Modulus (GPa) = -58.47995 22.76147 -17.85924
#
# Velocity S-wave (km/s) = -5.41145 3.37606 -2.99049
# Velocity P-wave (km/s) = 3.15824 6.66059 4.14662
#
# Compressibility (1/GPa) = 0.01722530
#
# Stress axis : x y z
#
# Youngs Moduli (GPa) = 75.62197 75.62197 103.92885
#
# Poissons Ratio (x) = 0.36770 0.23694
# Poissons Ratio (y) = 0.36770 0.23694
# Poissons Ratio (z) = 0.17241 0.17241
#
# Static dielectric constant tensor:
#      x y z
#    x 1.711390 0.000000 0.000000 
#    y 0.000000 1.711390 0.000000 
#    z 0.000000 0.000000 1.694290 
# 
# From -- ./inp_files/10091.got.cif
#   From: 2010.05.17/outbox.cif.g08.bks.cpg/sg134_6_cif.got.tgz:10091.got - 2010.05.20 12:42:49.
