data_PCOD9568317
_publ_section_title
;
Structure prediction by ZEFSAII (Michael W. Deem and Ramdas Pophale) SiO2 
 PCOD9568317
Probable space group: P 42/N N M
;
_chemical_formula_sum "Si O2"
_cell_formula_units_Z 80
_cell_length_a 12.384286
_cell_length_b 12.384286
_cell_length_c 28.677640
_cell_angle_alpha 90.000000
_cell_angle_beta 90.000000
_cell_angle_gamma 90.000000
_cell_volume 4398.305125
_symmetry_space_group_name_H-M "P 42/N N M"
_symmetry_group_IT_number 134
_space_group.IT_coordinate_system_code '2'
_symmetry_cell_setting 'tetragonal'
loop_
_space_group_symop_operation_xyz
x,y,z
1/2-y,x,1/2+z
1/2-x,1/2-y,z
y,1/2-x,1/2+z
x,1/2-y,1/2-z
1/2-x,y,1/2-z
y,x,-z
1/2-y,1/2-x,-z
-x,-y,-z
1/2+y,-x,1/2-z
1/2+x,1/2+y,-z
-y,1/2+x,1/2-z
-x,1/2+y,1/2+z
1/2+x,-y,1/2+z
-y,-x,z
1/2+y,1/2+x,z
loop_
_atom_site_type_symbol
_atom_site_label
_atom_site_fract_x
_atom_site_fract_y
_atom_site_fract_z
Si Si1 0.741103 0.875343 0.874505
Si Si2 0.327849 0.491596 0.601538
Si Si3 0.434843 0.384150 0.052762
Si Si4 0.250282 0.928411 0.194488
Si Si5 0.930197 0.255098 0.300814
O O1 0.750000 0.750000 0.859361
O O2 0.623743 0.886261 0.898199
O O3 0.835282 0.894634 0.911832
O O4 0.750915 0.960943 0.833345
O O5 0.410533 0.589468 0.594895
O O6 0.231015 0.488782 0.564609
O O7 0.274842 0.504249 0.653265
O O8 0.521890 0.478111 0.060465
O O9 0.393214 0.393214 0.000000
O O10 0.250000 0.946282 0.250000
O O11 0.147180 0.852821 0.183273
O O12 0.356187 0.856187 0.183381
O O13 0.986182 0.250000 0.250000
O O14 0.835278 0.164723 0.297427
O O15 0.869447 0.369447 0.306992
#
# Coordination Sequence:
#
# PCOD9568317 Si02
#       5
#    16  16  16  16  16
#     4  10  21  36  54  81 115 149 176 223 283 345
#     4  10  20  35  57  85 115 146 182 229 282 337
#     4  10  22  41  62  82 108 144 188 235 283 336
#     4   9  18  35  58  79 104 146 197 239 269 310
#     4   8  14  27  48  75 109 146 183 223 268 321
#
# _framework density 18.188825000000001
#
# number of rings (size 3 to 8) (size 9 to 14) (size 15 to 20)
#    0.000    2.600    0.000    3.000    0.000    5.200 
#    7.200    3.000    0.000    2.400    0.000    0.000 
#    0.000    0.000    0.000    0.000    0.000    0.000 
#
# Total GULP energy -446263.756301 kJ/mol
# GULP energy per Si atom -5578.296954 kJ/mol
# Density = 1.814743 g / cm^3
# Si number density = 18.188825 Si / 1000 Ang^3
#
#
#
# Elastic Constant Matrix: (Units=GPa)
#
#
# Indices 1 2 3 4 5 6 
#
# 1 111.7823 64.3963 74.9482 0.0000 0.0000 0.0000
# 2 64.3963 111.7823 74.9482 0.0000 0.0000 0.0000
# 3 74.9482 74.9482 82.8297 0.0000 0.0000 0.0000
# 4 0.0000 0.0000 0.0000 20.6961 0.0000 0.0000
# 5 0.0000 0.0000 0.0000 0.0000 20.6961 0.0000
# 6 0.0000 0.0000 0.0000 0.0000 0.0000 1.1701
#
#
#
# Elastic Compliance Matrix: (Units=1/GPa)
#
#
# Indices 1 2 3 4 5 6 
#
# 1 0.022884 0.001780 -0.022317 0.000000 0.000000 0.000000
# 2 0.001780 0.022884 -0.022317 0.000000 0.000000 0.000000
# 3 -0.022317 -0.022317 0.052460 0.000000 0.000000 0.000000
# 4 0.000000 0.000000 0.000000 0.048318 0.000000 0.000000
# 5 0.000000 0.000000 0.000000 0.000000 0.048318 0.000000
# 6 0.000000 0.000000 0.000000 0.000000 0.000000 0.854641
#
#
# Mechanical properties :
#
#
# Convention : Reuss Voigt Hill
#
# Bulk Modulus (GPa) = 79.87487 81.66442 80.76964
# Shear Modulus (GPa) = 4.38833 14.65256 9.52044
#
# Velocity S-wave (km/s) = 1.55496 2.84135 2.29033
# Velocity P-wave (km/s) = 6.87266 7.46726 7.17612
#
# Compressibility (1/GPa) = 0.01251958
#
# Stress axis : x y z
#
# Youngs Moduli (GPa) = 43.69952 43.69952 19.06217
#
# Poissons Ratio (x) = -0.07780 0.42541
# Poissons Ratio (y) = -0.07780 0.42541
# Poissons Ratio (z) = 0.97524 0.97524
#
# Static dielectric constant tensor:
#      x y z
#    x 1.627610 0.000000 0.000000 
#    y 0.000000 1.627610 0.000000 
#    z 0.000000 0.000000 1.609320 
# 
# From -- ./inp_files/11322.got.cif
#   From: 2010.05.17/outbox.cif.g08.bks.cpg/sg134_6_cif.got.tgz:11322.got - 2010.05.20 12:42:49.
