data_PCOD9568603
_publ_section_title
;
Structure prediction by ZEFSAII (Michael W. Deem and Ramdas Pophale) SiO2 
 PCOD9568603
Probable space group: P 42/M B C
;
_chemical_formula_sum "Si O2"
_cell_formula_units_Z 96
_cell_length_a 14.281869
_cell_length_b 14.281869
_cell_length_c 18.058525
_cell_angle_alpha 90.000000
_cell_angle_beta 90.000000
_cell_angle_gamma 90.000000
_cell_volume 3683.429527
_symmetry_space_group_name_H-M "P 42/M B C"
_symmetry_group_IT_number 135
_symmetry_cell_setting 'tetragonal'
loop_
_space_group_symop_operation_xyz
x,y,z
-y,x,1/2+z
-x,-y,z
y,-x,1/2+z
1/2+x,1/2-y,-z
1/2-x,1/2+y,-z
1/2+y,1/2+x,1/2-z
1/2-y,1/2-x,1/2-z
-x,-y,-z
y,-x,1/2-z
x,y,-z
-y,x,1/2-z
1/2-x,1/2+y,z
1/2+x,1/2-y,z
1/2-y,1/2-x,1/2+z
1/2+y,1/2+x,1/2+z
loop_
_atom_site_type_symbol
_atom_site_label
_atom_site_fract_x
_atom_site_fract_y
_atom_site_fract_z
Si Si1 0.465520 0.155633 0.416962
Si Si2 0.637078 0.095568 0.333289
Si Si3 0.851813 0.079042 0.916312
Si Si4 0.093965 0.882656 0.331669
Si Si5 0.265917 0.718570 0.915201
Si Si6 0.437957 0.282625 0.812651
O O1 0.459590 0.117083 0.500000
O O2 0.533067 0.094661 0.366340
O O3 0.529234 0.250800 0.419998
O O4 0.360070 0.185939 0.395290
O O5 0.628697 0.128697 0.250000
O O6 0.699675 0.176500 0.372511
O O7 0.688028 0.994391 0.331618
O O8 0.866931 0.180449 0.876909
O O9 0.898911 0.011348 0.856311
O O10 0.889813 0.081556 0.000000
O O11 0.143442 0.852275 0.408148
O O12 0.147286 0.973530 0.305361
O O13 0.106932 0.801444 0.268511
O O14 0.250330 0.749350 0.000000
#
# Coordination Sequence:
#
# PCOD9568603 Si02
#       6
#    16  16  16  16  16  16
#     4   9  19  37  55  75 112 149 183 227 276 331
#     4  11  22  34  52  82 109 145 187 227 278 327
#     4  10  20  32  49  73 105 146 182 213 266 334
#     4  10  18  30  47  73 109 147 176 211 265 339
#     4   9  19  34  54  76 105 145 184 224 270 329
#     4  11  21  30  49  73 111 143 178 220 272 335
#
# _framework density 26.062667999999999
#
# number of rings (size 3 to 8) (size 9 to 14) (size 15 to 20)
#    0.000    2.000    1.667    4.500    2.333    4.667 
#    0.000    0.000    0.000    0.000    0.000    1.167 
#    5.000    5.333    0.333    0.000    0.000    0.000 
#
# Total GULP energy -535027.066165 kJ/mol
# GULP energy per Si atom -5573.198606 kJ/mol
# Density = 2.600335 g / cm^3
# Si number density = 26.062668 Si / 1000 Ang^3
#
#
#
# Elastic Constant Matrix: (Units=GPa)
#
#
# Indices 1 2 3 4 5 6 
#
# 1 114.9579 28.4899 36.1647 0.0000 0.0000 0.0000
# 2 28.4899 114.9579 36.1647 0.0000 0.0000 0.0000
# 3 36.1647 36.1647 150.0163 0.0000 0.0000 0.0000
# 4 0.0000 0.0000 0.0000 98.6395 0.0000 0.0000
# 5 0.0000 0.0000 0.0000 0.0000 98.6395 0.0000
# 6 0.0000 0.0000 0.0000 0.0000 0.0000 31.3764
#
#
#
# Elastic Compliance Matrix: (Units=1/GPa)
#
#
# Indices 1 2 3 4 5 6 
#
# 1 0.009750 -0.001815 -0.001913 0.000000 0.000000 0.000000
# 2 -0.001815 0.009750 -0.001913 0.000000 0.000000 0.000000
# 3 -0.001913 -0.001913 0.007588 0.000000 0.000000 0.000000
# 4 0.000000 0.000000 0.000000 0.010138 0.000000 0.000000
# 5 0.000000 0.000000 0.000000 0.000000 0.010138 0.000000
# 6 0.000000 0.000000 0.000000 0.000000 0.000000 0.031871
#
#
# Mechanical properties :
#
#
# Convention : Reuss Voigt Hill
#
# Bulk Modulus (GPa) = 63.26096 64.61897 63.93996
# Shear Modulus (GPa) = 52.19925 64.33861 58.26893
#
# Velocity S-wave (km/s) = 4.48016 4.97390 4.73347
# Velocity P-wave (km/s) = 7.14757 7.60485 7.37976
#
# Compressibility (1/GPa) = 0.01580754
#
# Stress axis : x y z
#
# Youngs Moduli (GPa) = 102.56002 102.56002 131.78131
#
# Poissons Ratio (x) = 0.18610 0.25211
# Poissons Ratio (y) = 0.18610 0.25211
# Poissons Ratio (z) = 0.19621 0.19621
#
# Static dielectric constant tensor:
#      x y z
#    x 2.163630 0.000000 0.000000 
#    y 0.000000 2.163630 0.000000 
#    z 0.000000 0.000000 2.092880 
# 
# From -- ./inp_files/4461.got.cif
#   From: 2010.05.17/outbox.cif.g08.bks.cpg/sg135_3_cif.got.tgz:4461.got - 2010.05.20 12:50:20.
