data_PCOD9568547
_publ_section_title
;
Structure prediction by ZEFSAII (Michael W. Deem and Ramdas Pophale) SiO2 
 PCOD9568547
Probable space group: P 42/N N M
;
_chemical_formula_sum "Si O2"
_cell_formula_units_Z 50
_cell_length_a 17.338130
_cell_length_b 17.338130
_cell_length_c 8.982939
_cell_angle_alpha 90.000000
_cell_angle_beta 90.000000
_cell_angle_gamma 90.000000
_cell_volume 2700.368047
_symmetry_space_group_name_H-M "P 42/N N M"
_symmetry_group_IT_number 134
_space_group.IT_coordinate_system_code '2'
_symmetry_cell_setting 'tetragonal'
loop_
_space_group_symop_operation_xyz
x,y,z
1/2-y,x,1/2+z
1/2-x,1/2-y,z
y,1/2-x,1/2+z
x,1/2-y,1/2-z
1/2-x,y,1/2-z
y,x,-z
1/2-y,1/2-x,-z
-x,-y,-z
1/2+y,-x,1/2-z
1/2+x,1/2+y,-z
-y,1/2+x,1/2-z
-x,1/2+y,1/2+z
1/2+x,-y,1/2+z
-y,-x,z
1/2+y,1/2+x,z
loop_
_atom_site_type_symbol
_atom_site_label
_atom_site_fract_x
_atom_site_fract_y
_atom_site_fract_z
Si Si1 0.250000 0.750000 0.250000
Si Si2 0.174519 0.033646 0.341042
Si Si3 0.165293 0.046531 0.685674
Si Si4 0.375731 0.624270 0.180808
Si Si5 0.944150 0.055850 0.104034
O O1 0.310326 0.689675 0.177567
O O2 0.250000 0.056379 0.250000
O O3 0.180381 0.017379 0.517276
O O4 0.117529 0.106014 0.325883
O O5 0.148504 0.954469 0.263121
O O6 0.250000 0.064349 0.750000
O O7 0.115786 0.990132 0.791812
O O8 0.396157 0.603844 0.013700
O O9 0.000000 0.000000 0.000000
#
# Coordination Sequence:
#
# PCOD9568547 Si02
#       5
#     2  16  16   8   8
#     4  12  28  40  68 106 132 184 218 284 348 420
#     4  11  23  42  67  95 135 181 228 291 348 419
#     4  11  25  41  66 100 132 176 237 285 348 419
#     4  12  23  42  70  96 135 179 233 275 352 419
#     4  12  23  43  71  99 135 181 234 292 355 427
#
# _framework density 18.515995
#
# number of rings (size 3 to 8) (size 9 to 14) (size 15 to 20)
#    0.000    0.640    4.800    2.880    0.000    3.200 
#    0.000    3.200    0.000    1.920    0.000    0.000 
#    0.000    0.000    0.000    0.000    0.000    0.000 
#
# Total GULP energy -278778.858452 kJ/mol
# GULP energy per Si atom -5575.577169 kJ/mol
# Density = 1.847385 g / cm^3
# Si number density = 18.515995 Si / 1000 Ang^3
#
#
#
# Elastic Constant Matrix: (Units=GPa)
#
#
# Indices 1 2 3 4 5 6 
#
# 1 112.1292 50.4375 71.5787 0.0000 0.0000 0.0000
# 2 50.4375 112.1292 71.5787 0.0000 0.0000 0.0000
# 3 71.5787 71.5787 184.6814 0.0000 0.0000 0.0000
# 4 0.0000 0.0000 0.0000 20.4444 0.0000 0.0000
# 5 0.0000 0.0000 0.0000 0.0000 20.4444 0.0000
# 6 0.0000 0.0000 0.0000 0.0000 0.0000 31.7119
#
#
#
# Elastic Compliance Matrix: (Units=1/GPa)
#
#
# Indices 1 2 3 4 5 6 
#
# 1 0.012774 -0.003435 -0.003619 0.000000 0.000000 0.000000
# 2 -0.003435 0.012774 -0.003619 0.000000 0.000000 0.000000
# 3 -0.003619 -0.003619 0.008220 0.000000 0.000000 0.000000
# 4 0.000000 0.000000 0.000000 0.048913 0.000000 0.000000
# 5 0.000000 0.000000 0.000000 0.000000 0.048913 0.000000
# 6 0.000000 0.000000 0.000000 0.000000 0.000000 0.031534
#
#
# Mechanical properties :
#
#
# Convention : Reuss Voigt Hill
#
# Bulk Modulus (GPa) = 80.51647 88.45885 84.48766
# Shear Modulus (GPa) = 26.50863 28.87646 27.69254
#
# Velocity S-wave (km/s) = 3.78783 3.95339 3.87150
# Velocity P-wave (km/s) = 7.91893 8.28957 8.10637
#
# Compressibility (1/GPa) = 0.01241982
#
# Stress axis : x y z
#
# Youngs Moduli (GPa) = 78.28316 78.28316 121.64877
#
# Poissons Ratio (x) = 0.26894 0.44030
# Poissons Ratio (y) = 0.26894 0.44030
# Poissons Ratio (z) = 0.28334 0.28334
#
# Static dielectric constant tensor:
#      x y z
#    x 1.560250 0.000000 0.000000 
#    y 0.000000 1.560250 0.000000 
#    z 0.000000 0.000000 1.670970 
# 
# From -- ./inp_files/2271.got.cif
#   From: 2010.05.17/outbox.cif.g08.bks.cpg/sg134_2_cif.got.tgz:2271.got - 2010.05.20 12:42:49.
