data_PCOD9568524
_publ_section_title
;
Structure prediction by ZEFSAII (Michael W. Deem and Ramdas Pophale) SiO2 
 PCOD9568524
Probable space group: P 42/N N M
;
_chemical_formula_sum "Si O2"
_cell_formula_units_Z 96
_cell_length_a 19.947223
_cell_length_b 19.947223
_cell_length_c 12.955801
_cell_angle_alpha 90.000000
_cell_angle_beta 90.000000
_cell_angle_gamma 90.000000
_cell_volume 5155.005755
_symmetry_space_group_name_H-M "P 42/N N M"
_symmetry_group_IT_number 134
_space_group.IT_coordinate_system_code '2'
_symmetry_cell_setting 'tetragonal'
loop_
_space_group_symop_operation_xyz
x,y,z
1/2-y,x,1/2+z
1/2-x,1/2-y,z
y,1/2-x,1/2+z
x,1/2-y,1/2-z
1/2-x,y,1/2-z
y,x,-z
1/2-y,1/2-x,-z
-x,-y,-z
1/2+y,-x,1/2-z
1/2+x,1/2+y,-z
-y,1/2+x,1/2-z
-x,1/2+y,1/2+z
1/2+x,-y,1/2+z
-y,-x,z
1/2+y,1/2+x,z
loop_
_atom_site_type_symbol
_atom_site_label
_atom_site_fract_x
_atom_site_fract_y
_atom_site_fract_z
Si Si1 0.948401 0.235754 0.134424
Si Si2 0.746297 0.141401 0.939706
Si Si3 0.332983 0.943697 0.314774
Si Si4 0.892391 0.997889 0.028744
Si Si5 0.094525 0.483749 0.151254
Si Si6 0.381275 0.992950 0.908844
O O1 0.923608 0.250000 0.250000
O O2 0.991150 0.168370 0.110426
O O3 0.988872 0.303321 0.111973
O O4 0.888603 0.237447 0.051388
O O5 0.799062 0.200938 0.921215
O O6 0.672618 0.172618 0.935501
O O7 0.761957 0.085245 0.854657
O O8 0.378904 0.878904 0.286839
O O9 0.363879 0.973695 0.420781
O O10 0.345409 0.000116 0.228706
O O11 0.953102 0.046899 0.063202
O O12 0.926626 0.926626 0.000000
O O13 0.036201 0.536201 0.180858
O O14 0.056109 0.413326 0.150477
O O15 0.111374 0.497487 0.032028
O O16 0.426405 0.926405 0.883273
#
# Coordination Sequence:
#
# PCOD9568524 Si02
#       6
#    16  16  16  16  16  16
#     4  11  22  32  47  76 107 137 181 228 282 344
#     4   9  18  32  46  65 101 146 189 228 267 326
#     4   8  14  27  49  71  91 127 181 230 271 317
#     4   9  19  34  50  70 102 145 191 236 276 322
#     4   8  15  30  52  76 100 132 178 226 280 334
#     4   9  18  31  49  76 109 139 171 224 284 338
#
# _framework density 18.622675999999998
#
# number of rings (size 3 to 8) (size 9 to 14) (size 15 to 20)
#    0.000    3.000    0.000    3.000    2.333    2.667 
#    0.000    4.167    0.000    6.000    0.000   11.667 
#    0.000    5.333    0.000    0.000    0.000    0.000 
#
# Total GULP energy -534742.013832 kJ/mol
# GULP energy per Si atom -5570.229311 kJ/mol
# Density = 1.858029 g / cm^3
# Si number density = 18.622676 Si / 1000 Ang^3
#
#
#
# Elastic Constant Matrix: (Units=GPa)
#
#
# Indices 1 2 3 4 5 6 
#
# 1 78.9384 39.7761 27.5976 0.0000 0.0000 0.0000
# 2 39.7761 78.9384 27.5976 0.0000 0.0000 0.0000
# 3 27.5976 27.5976 77.7369 0.0000 0.0000 0.0000
# 4 0.0000 0.0000 0.0000 19.3213 0.0000 0.0000
# 5 0.0000 0.0000 0.0000 0.0000 19.3213 0.0000
# 6 0.0000 0.0000 0.0000 0.0000 0.0000 28.6967
#
#
#
# Elastic Compliance Matrix: (Units=1/GPa)
#
#
# Indices 1 2 3 4 5 6 
#
# 1 0.017812 -0.007723 -0.003582 0.000000 0.000000 0.000000
# 2 -0.007723 0.017812 -0.003582 0.000000 0.000000 0.000000
# 3 -0.003582 -0.003582 0.015407 0.000000 0.000000 0.000000
# 4 0.000000 0.000000 0.000000 0.051756 0.000000 0.000000
# 5 0.000000 0.000000 0.000000 0.000000 0.051756 0.000000
# 6 0.000000 0.000000 0.000000 0.000000 0.000000 0.034847
#
#
# Mechanical properties :
#
#
# Convention : Reuss Voigt Hill
#
# Bulk Modulus (GPa) = 47.04114 47.28402 47.16258
# Shear Modulus (GPa) = 22.09954 22.84403 22.47178
#
# Velocity S-wave (km/s) = 3.44859 3.50620 3.47751
# Velocity P-wave (km/s) = 6.41654 6.46814 6.44239
#
# Compressibility (1/GPa) = 0.02125799
#
# Stress axis : x y z
#
# Youngs Moduli (GPa) = 56.14257 56.14257 64.90562
#
# Poissons Ratio (x) = 0.43359 0.23247
# Poissons Ratio (y) = 0.43359 0.23247
# Poissons Ratio (z) = 0.20108 0.20108
#
# Static dielectric constant tensor:
#      x y z
#    x 1.692290 0.000000 0.000000 
#    y 0.000000 1.692290 0.000000 
#    z 0.000000 0.000000 1.751350 
# 
# From -- ./inp_files/5074.got.cif
#   From: 2010.05.17/outbox.cif.g08.bks.cpg/sg134_3_cif.got.tgz:5074.got - 2010.05.20 12:42:49.
