data_PCOD9568979
_publ_section_title
;
Structure prediction by ZEFSAII (Michael W. Deem and Ramdas Pophale) SiO2 
 PCOD9568979
Probable space group: P 42/M B C
;
_chemical_formula_sum "Si O2"
_cell_formula_units_Z 48
_cell_length_a 9.616905
_cell_length_b 9.616905
_cell_length_c 18.430213
_cell_angle_alpha 90.000000
_cell_angle_beta 90.000000
_cell_angle_gamma 90.000000
_cell_volume 1704.515702
_symmetry_space_group_name_H-M "P 42/M B C"
_symmetry_group_IT_number 135
_symmetry_cell_setting 'tetragonal'
loop_
_space_group_symop_operation_xyz
x,y,z
-y,x,1/2+z
-x,-y,z
y,-x,1/2+z
1/2+x,1/2-y,-z
1/2-x,1/2+y,-z
1/2+y,1/2+x,1/2-z
1/2-y,1/2-x,1/2-z
-x,-y,-z
y,-x,1/2-z
x,y,-z
-y,x,1/2-z
1/2-x,1/2+y,z
1/2+x,1/2-y,z
1/2-y,1/2-x,1/2+z
1/2+y,1/2+x,1/2+z
loop_
_atom_site_type_symbol
_atom_site_label
_atom_site_fract_x
_atom_site_fract_y
_atom_site_fract_z
Si Si1 0.345833 0.992109 0.416638
Si Si2 0.817782 0.094332 0.082443
Si Si3 0.078617 0.796099 0.722181
O O1 0.363189 0.045405 0.500000
O O2 0.209698 0.072653 0.391602
O O3 0.500000 0.000000 0.381531
O O4 0.175943 0.927762 0.258601
O O5 0.671839 0.174107 0.081299
O O6 0.196825 0.032468 0.137946
O O7 0.848736 0.048938 0.000000
O O8 0.159733 0.659733 0.750000
#
# Coordination Sequence:
#
# PCOD9568979 Si02
#       3
#    16  16  16
#     4   9  20  43  79 125 172 220 284 361 438 510
#     4  10  23  49  86 129 172 228 297 371 441 530
#     4  11  29  58  86 121 173 235 293 363 457 547
#
# _framework density 28.160492999999999
#
# number of rings (size 3 to 8) (size 9 to 14) (size 15 to 20)
#    0.000    2.000    0.000    0.000    4.667    6.000 
#    0.000    5.000    0.000    0.000    0.000    0.000 
#    0.000    0.000    0.000    0.000    0.000    0.000 
#
# Total GULP energy -269131.668681 kJ/mol
# GULP energy per Si atom -5606.909764 kJ/mol
# Density = 2.809640 g / cm^3
# Si number density = 28.160493 Si / 1000 Ang^3
#
#
#
# Elastic Constant Matrix: (Units=GPa)
#
#
# Indices 1 2 3 4 5 6 
#
# 1 164.4097 103.7172 72.2197 0.0000 0.0000 0.0000
# 2 103.7172 164.4097 72.2197 0.0000 0.0000 0.0000
# 3 72.2197 72.2197 187.9752 0.0000 0.0000 0.0000
# 4 0.0000 0.0000 0.0000 44.1345 0.0000 0.0000
# 5 0.0000 0.0000 0.0000 0.0000 44.1345 0.0000
# 6 0.0000 0.0000 0.0000 0.0000 0.0000 80.0888
#
#
#
# Elastic Compliance Matrix: (Units=1/GPa)
#
#
# Indices 1 2 3 4 5 6 
#
# 1 0.010590 -0.005887 -0.001807 0.000000 0.000000 0.000000
# 2 -0.005887 0.010590 -0.001807 0.000000 0.000000 0.000000
# 3 -0.001807 -0.001807 0.006708 0.000000 0.000000 0.000000
# 4 0.000000 0.000000 0.000000 0.022658 0.000000 0.000000
# 5 0.000000 0.000000 0.000000 0.000000 0.022658 0.000000
# 6 0.000000 0.000000 0.000000 0.000000 0.000000 0.012486
#
#
# Mechanical properties :
#
#
# Convention : Reuss Voigt Hill
#
# Bulk Modulus (GPa) = 112.52818 112.56755 112.54786
# Shear Modulus (GPa) = 46.44551 51.58076 49.01313
#
# Velocity S-wave (km/s) = 4.06558 4.28445 4.17645
# Velocity P-wave (km/s) = 7.87940 8.03341 7.95678
#
# Compressibility (1/GPa) = 0.00888666
#
# Stress axis : x y z
#
# Youngs Moduli (GPa) = 94.43120 94.43120 149.07056
#
# Poissons Ratio (x) = 0.55590 0.26935
# Poissons Ratio (y) = 0.55590 0.26935
# Poissons Ratio (z) = 0.17062 0.17062
#
# Static dielectric constant tensor:
#      x y z
#    x 2.162000 0.000000 0.000000 
#    y 0.000000 2.162000 0.000000 
#    z 0.000000 0.000000 2.406600 
# 
# From -- ./inp_files/4002.got.cif
#   From: 2010.05.17/outbox.cif.g08.bks.cpg/sg135_3_cif.got.tgz:4002.got - 2010.05.20 12:50:20.
