data_PCOD9568307
_publ_section_title
;
Structure prediction by ZEFSAII (Michael W. Deem and Ramdas Pophale) SiO2 
 PCOD9568307
Probable space group: P 42/N N M
;
_chemical_formula_sum "Si O2"
_cell_formula_units_Z 96
_cell_length_a 15.883316
_cell_length_b 15.883316
_cell_length_c 20.036110
_cell_angle_alpha 90.000000
_cell_angle_beta 90.000000
_cell_angle_gamma 90.000000
_cell_volume 5054.704364
_symmetry_space_group_name_H-M "P 42/N N M"
_symmetry_group_IT_number 134
_space_group.IT_coordinate_system_code '2'
_symmetry_cell_setting 'tetragonal'
loop_
_space_group_symop_operation_xyz
x,y,z
1/2-y,x,1/2+z
1/2-x,1/2-y,z
y,1/2-x,1/2+z
x,1/2-y,1/2-z
1/2-x,y,1/2-z
y,x,-z
1/2-y,1/2-x,-z
-x,-y,-z
1/2+y,-x,1/2-z
1/2+x,1/2+y,-z
-y,1/2+x,1/2-z
-x,1/2+y,1/2+z
1/2+x,-y,1/2+z
-y,-x,z
1/2+y,1/2+x,z
loop_
_atom_site_type_symbol
_atom_site_label
_atom_site_fract_x
_atom_site_fract_y
_atom_site_fract_z
Si Si1 0.164118 0.973658 0.058268
Si Si2 0.441315 0.080951 0.795584
Si Si3 0.001866 0.768442 0.674232
Si Si4 0.442358 0.415847 0.141768
Si Si5 0.575553 0.215270 0.824832
Si Si6 0.744065 0.113139 0.052289
O O1 0.083892 0.916109 0.041873
O O2 0.211798 0.932638 0.121276
O O3 0.124254 0.059952 0.084802
O O4 0.226076 0.962037 0.996107
O O5 0.440701 0.092213 0.715213
O O6 0.490252 0.159471 0.826575
O O7 0.498393 0.998393 0.808435
O O8 0.347532 0.061125 0.820468
O O9 0.031198 0.750000 0.750000
O O10 0.076441 0.784702 0.622770
O O11 0.961583 0.682112 0.647361
O O12 0.527148 0.472853 0.132350
O O13 0.585654 0.250000 0.750000
O O14 0.653182 0.153182 0.839039
O O15 0.821986 0.178015 0.061350
O O16 0.668571 0.168571 0.021874
#
# Coordination Sequence:
#
# PCOD9568307 Si02
#       6
#    16  16  16  16  16  16
#     4  10  20  35  53  77 115 148 176 228 288 339
#     4   9  18  33  52  78 111 141 178 230 272 318
#     4  10  20  35  56  77 105 146 193 234 281 327
#     4   9  17  32  54  79 107 141 185 230 274 326
#     4  11  20  32  54  82 109 143 184 225 271 333
#     4  10  21  35  52  80 114 145 183 235 292 346
#
# _framework density 18.992208999999999
#
# number of rings (size 3 to 8) (size 9 to 14) (size 15 to 20)
#    0.000    2.167    1.667    2.000    0.000    4.500 
#    0.000    5.000    0.000    3.000    0.000    2.333 
#    0.000    0.000    0.000    0.000    0.000    0.000 
#
# Total GULP energy -535432.085343 kJ/mol
# GULP energy per Si atom -5577.417556 kJ/mol
# Density = 1.894898 g / cm^3
# Si number density = 18.992209 Si / 1000 Ang^3
#
#
#
# Elastic Constant Matrix: (Units=GPa)
#
#
# Indices 1 2 3 4 5 6 
#
# 1 53.3359 37.7773 24.7445 0.0000 0.0000 0.0000
# 2 37.7773 53.3359 24.7445 0.0000 0.0000 0.0000
# 3 24.7445 24.7445 82.9143 0.0000 0.0000 0.0000
# 4 0.0000 0.0000 0.0000 21.3986 0.0000 0.0000
# 5 0.0000 0.0000 0.0000 0.0000 21.3986 0.0000
# 6 0.0000 0.0000 0.0000 0.0000 0.0000 11.4972
#
#
#
# Elastic Compliance Matrix: (Units=1/GPa)
#
#
# Indices 1 2 3 4 5 6 
#
# 1 0.038686 -0.025587 -0.003909 0.000000 0.000000 0.000000
# 2 -0.025587 0.038686 -0.003909 0.000000 0.000000 0.000000
# 3 -0.003909 -0.003909 0.014394 0.000000 0.000000 0.000000
# 4 0.000000 0.000000 0.000000 0.046732 0.000000 0.000000
# 5 0.000000 0.000000 0.000000 0.000000 0.046732 0.000000
# 6 0.000000 0.000000 0.000000 0.000000 0.000000 0.086978
#
#
# Mechanical properties :
#
#
# Convention : Reuss Voigt Hill
#
# Bulk Modulus (GPa) = 40.07255 40.45766 40.26510
# Shear Modulus (GPa) = 14.39526 17.68020 16.03773
#
# Velocity S-wave (km/s) = 2.75609 3.05441 2.90907
# Velocity P-wave (km/s) = 5.59225 5.81272 5.70355
#
# Compressibility (1/GPa) = 0.02495474
#
# Stress axis : x y z
#
# Youngs Moduli (GPa) = 25.84921 25.84921 69.47403
#
# Poissons Ratio (x) = 0.66141 0.27158
# Poissons Ratio (y) = 0.66141 0.27158
# Poissons Ratio (z) = 0.10105 0.10105
#
# Static dielectric constant tensor:
#      x y z
#    x 1.663540 0.000000 0.000000 
#    y 0.000000 1.663540 0.000000 
#    z 0.000000 0.000000 1.677160 
# 
# From -- ./inp_files/9139.got.cif
#   From: 2010.05.17/outbox.cif.g08.bks.cpg/sg134_5_cif.got.tgz:9139.got - 2010.05.20 12:42:49.
