data_PCOD9568193
_publ_section_title
;
Structure prediction by ZEFSAII (Michael W. Deem and Ramdas Pophale) SiO2 
 PCOD9568193
Probable space group: P 42/N N M
;
_chemical_formula_sum "Si O2"
_cell_formula_units_Z 96
_cell_length_a 14.050206
_cell_length_b 14.050206
_cell_length_c 21.448476
_cell_angle_alpha 90.000000
_cell_angle_beta 90.000000
_cell_angle_gamma 90.000000
_cell_volume 4234.106941
_symmetry_space_group_name_H-M "P 42/N N M"
_symmetry_group_IT_number 134
_space_group.IT_coordinate_system_code '2'
_symmetry_cell_setting 'tetragonal'
loop_
_space_group_symop_operation_xyz
x,y,z
1/2-y,x,1/2+z
1/2-x,1/2-y,z
y,1/2-x,1/2+z
x,1/2-y,1/2-z
1/2-x,y,1/2-z
y,x,-z
1/2-y,1/2-x,-z
-x,-y,-z
1/2+y,-x,1/2-z
1/2+x,1/2+y,-z
-y,1/2+x,1/2-z
-x,1/2+y,1/2+z
1/2+x,-y,1/2+z
-y,-x,z
1/2+y,1/2+x,z
loop_
_atom_site_type_symbol
_atom_site_label
_atom_site_fract_x
_atom_site_fract_y
_atom_site_fract_z
Si Si1 0.150017 0.010386 0.781959
Si Si2 0.901429 0.939737 0.084296
Si Si3 0.567995 0.274981 0.014521
Si Si4 0.953345 0.606821 0.937117
Si Si5 0.046218 0.705202 0.375002
Si Si6 0.878140 0.539440 0.812191
O O1 0.250000 0.991338 0.750000
O O2 0.158001 0.025927 0.855527
O O3 0.102117 0.102792 0.749080
O O4 0.077694 0.922307 0.772626
O O5 0.945257 0.840696 0.105159
O O6 0.841150 0.974139 0.025279
O O7 0.995133 0.004868 0.080518
O O8 0.658748 0.341253 0.033130
O O9 0.537147 0.183615 0.053648
O O10 0.580850 0.251656 0.941503
O O11 0.895979 0.607362 0.872691
O O12 0.004114 0.504114 0.936609
O O13 0.890202 0.609799 0.000000
O O14 0.124440 0.624440 0.356562
O O15 0.020514 0.782993 0.323984
O O16 0.961860 0.461860 0.810278
#
# Coordination Sequence:
#
# PCOD9568193 Si02
#       6
#    16  16  16  16  16  16
#     4  10  21  39  62  85 113 149 188 235 291 353
#     4   9  19  36  56  79 109 146 186 234 292 340
#     4  10  19  33  56  82 109 146 196 245 289 350
#     4  10  19  33  51  75 113 151 180 226 291 350
#     4  10  20  35  57  82 111 150 194 239 288 351
#     4  10  21  37  57  83 117 155 191 236 298 356
#
# _framework density 22.673022
#
# number of rings (size 3 to 8) (size 9 to 14) (size 15 to 20)
#    0.000    2.167    1.667    1.500    0.000    3.500 
#    0.000    5.833    0.000    6.000    0.000    4.667 
#    0.000    0.000    0.000    0.000    0.000    0.000 
#
# Total GULP energy -535112.141613 kJ/mol
# GULP energy per Si atom -5574.084808 kJ/mol
# Density = 2.262142 g / cm^3
# Si number density = 22.673022 Si / 1000 Ang^3
#
#
#
# Elastic Constant Matrix: (Units=GPa)
#
#
# Indices 1 2 3 4 5 6 
#
# 1 91.5509 -6.3809 21.3863 0.0000 0.0000 0.0000
# 2 -6.3809 91.5514 21.3861 0.0000 0.0000 0.0000
# 3 21.3863 21.3861 84.3541 0.0000 0.0000 0.0000
# 4 0.0000 0.0000 0.0000 15.8572 0.0000 0.0000
# 5 0.0000 0.0000 0.0000 0.0000 15.8576 0.0000
# 6 0.0000 0.0000 0.0000 0.0000 0.0000 30.7807
#
#
#
# Elastic Compliance Matrix: (Units=1/GPa)
#
#
# Indices 1 2 3 4 5 6 
#
# 1 0.011833 0.001622 -0.003411 0.000000 0.000000 0.000000
# 2 0.001622 0.011833 -0.003411 0.000000 0.000000 0.000000
# 3 -0.003411 -0.003411 0.013584 0.000000 0.000000 0.000000
# 4 0.000000 0.000000 0.000000 0.063063 0.000000 0.000000
# 5 0.000000 0.000000 0.000000 0.000000 0.063061 0.000000
# 6 0.000000 0.000000 0.000000 0.000000 0.000000 0.032488
#
#
# Mechanical properties :
#
#
# Convention : Reuss Voigt Hill
#
# Bulk Modulus (GPa) = 37.24579 37.80437 37.52508
# Shear Modulus (GPa) = 23.23289 27.90343 25.56816
#
# Velocity S-wave (km/s) = 3.20456 3.51192 3.36175
# Velocity P-wave (km/s) = 5.49138 5.75801 5.62628
#
# Compressibility (1/GPa) = 0.02684867
#
# Stress axis : x y z
#
# Youngs Moduli (GPa) = 84.51137 84.51196 73.61391
#
# Poissons Ratio (x) = -0.13704 0.25110
# Poissons Ratio (y) = -0.13704 0.25110
# Poissons Ratio (z) = 0.28827 0.28827
#
# Static dielectric constant tensor:
#      x y z
#    x 1.893630 0.000000 0.000000 
#    y 0.000000 1.893630 0.000000 
#    z 0.000000 0.000000 1.901150 
# 
# From -- ./inp_files/9110.got.cif
#   From: 2010.05.17/outbox.cif.g08.bks.cpg/sg134_5_cif.got.tgz:9110.got - 2010.05.20 12:42:49.
