data_PCOD9568860
_publ_section_title
;
Structure prediction by ZEFSAII (Michael W. Deem and Ramdas Pophale) SiO2 
 PCOD9568860
Probable space group: P 42/M B C
;
_chemical_formula_sum "Si O2"
_cell_formula_units_Z 120
_cell_length_a 25.449783
_cell_length_b 25.449783
_cell_length_c 9.482862
_cell_angle_alpha 90.000000
_cell_angle_beta 90.000000
_cell_angle_gamma 90.000000
_cell_volume 6141.968684
_symmetry_space_group_name_H-M "P 42/M B C"
_symmetry_group_IT_number 135
_symmetry_cell_setting 'tetragonal'
loop_
_space_group_symop_operation_xyz
x,y,z
-y,x,1/2+z
-x,-y,z
y,-x,1/2+z
1/2+x,1/2-y,-z
1/2-x,1/2+y,-z
1/2+y,1/2+x,1/2-z
1/2-y,1/2-x,1/2-z
-x,-y,-z
y,-x,1/2-z
x,y,-z
-y,x,1/2-z
1/2-x,1/2+y,z
1/2+x,1/2-y,z
1/2-y,1/2-x,1/2+z
1/2+y,1/2+x,1/2+z
loop_
_atom_site_type_symbol
_atom_site_label
_atom_site_fract_x
_atom_site_fract_y
_atom_site_fract_z
Si Si1 0.571404 0.491203 0.500000
Si Si2 0.645113 0.931545 0.331776
Si Si3 0.947095 0.625878 0.833658
Si Si4 0.900537 0.234709 0.167876
Si Si5 0.935682 0.905543 0.744448
Si Si6 0.086386 0.259216 0.834630
Si Si7 0.662689 0.332470 0.835271
Si Si8 0.195748 0.000129 0.164453
O O1 0.577133 0.446217 0.377062
O O2 0.566867 0.536829 0.623111
O O3 0.603168 0.896833 0.250000
O O4 0.636839 0.927561 0.500000
O O5 0.703896 0.910720 0.303333
O O6 0.639446 0.992967 0.293209
O O7 0.921868 0.578133 0.750000
O O8 0.912939 0.678741 0.811539
O O9 0.946764 0.614303 0.000000
O O10 0.848194 0.211024 0.236717
O O11 0.948005 0.204160 0.243740
O O12 0.901934 0.226273 0.000000
O O13 0.885625 0.871607 0.796999
O O14 0.976204 0.861910 0.684992
O O15 0.139342 0.225952 0.814320
O O16 0.042964 0.234640 0.732111
O O17 0.070071 0.250471 0.000000
O O18 0.675802 0.339326 0.000000
O O19 0.206240 0.009632 0.000000
#
# Coordination Sequence:
#
# PCOD9568860 Si02
#       8
#     8  16  16  16  16  16  16  16
#     4  12  26  45  54  70 116 154 214 272 332 387
#     4  10  23  44  68  99 134 170 213 257 318 386
#     4  10  21  41  66  99 135 176 216 254 310 381
#     4  11  23  39  65  91 124 166 205 263 327 380
#     4  11  25  40  59  81 111 164 210 272 330 391
#     4   9  19  38  62  86 130 168 206 259 321 375
#     4  10  21  38  60  93 120 158 217 270 324 382
#     4  11  21  35  58  90 116 149 211 264 317 378
#
# _framework density 19.537710000000001
#
# number of rings (size 3 to 8) (size 9 to 14) (size 15 to 20)
#    0.000    1.600    2.667    1.600    4.667    4.267 
#    0.000    2.000    0.000    3.200    0.000    0.000 
#    0.000    0.000    0.000    0.000    0.000    0.000 
#
# Total GULP energy -668436.408041 kJ/mol
# GULP energy per Si atom -5570.303400 kJ/mol
# Density = 1.949324 g / cm^3
# Si number density = 19.537710 Si / 1000 Ang^3
#
#
#
# Elastic Constant Matrix: (Units=GPa)
#
#
# Indices 1 2 3 4 5 6 
#
# 1 73.2865 66.5847 49.8774 0.0000 0.0000 0.0000
# 2 66.5847 73.2911 49.8794 0.0000 0.0000 0.0000
# 3 49.8774 49.8794 105.8002 0.0000 0.0000 0.0000
# 4 0.0000 0.0000 0.0000 30.0403 0.0000 0.0000
# 5 0.0000 0.0000 0.0000 0.0000 30.0400 0.0000
# 6 0.0000 0.0000 0.0000 0.0000 0.0000 18.7000
#
#
#
# Elastic Compliance Matrix: (Units=1/GPa)
#
#
# Indices 1 2 3 4 5 6 
#
# 1 0.079969 -0.069196 -0.005077 0.000000 0.000000 0.000000
# 2 -0.069196 0.079964 -0.005078 0.000000 0.000000 0.000000
# 3 -0.005077 -0.005078 0.014239 0.000000 0.000000 0.000000
# 4 0.000000 0.000000 0.000000 0.033289 0.000000 0.000000
# 5 0.000000 0.000000 0.000000 0.000000 0.033289 0.000000
# 6 0.000000 0.000000 0.000000 0.000000 0.000000 0.053476
#
#
# Mechanical properties :
#
#
# Convention : Reuss Voigt Hill
#
# Bulk Modulus (GPa) = 64.64145 65.00675 64.82410
# Shear Modulus (GPa) = 10.91501 21.49182 16.20342
#
# Velocity S-wave (km/s) = 2.36617 3.32025 2.88295
# Velocity P-wave (km/s) = 6.37356 6.93134 6.65829
#
# Compressibility (1/GPa) = 0.01546995
#
# Stress axis : x y z
#
# Youngs Moduli (GPa) = 12.50491 12.50559 70.22732
#
# Poissons Ratio (x) = 0.86533 0.35657
# Poissons Ratio (y) = 0.86529 0.35662
# Poissons Ratio (z) = 0.06349 0.06350
#
# Static dielectric constant tensor:
#      x y z
#    x 1.699770 0.000000 0.000000 
#    y 0.000000 1.699770 0.000000 
#    z 0.000000 0.000000 1.649110 
# 
# From -- ./inp_files/1496.got.cif
#   From: 2010.05.17/outbox.cif.g08.bks.cpg/sg135_1_cif.got.tgz:1496.got - 2010.05.20 12:50:20.
