data_PCOD9568928
_publ_section_title
;
Structure prediction by ZEFSAII (Michael W. Deem and Ramdas Pophale) SiO2 
 PCOD9568928
Probable space group: P 42/M B C
;
_chemical_formula_sum "Si O2"
_cell_formula_units_Z 64
_cell_length_a 14.488632
_cell_length_b 14.488632
_cell_length_c 15.319663
_cell_angle_alpha 90.000000
_cell_angle_beta 90.000000
_cell_angle_gamma 90.000000
_cell_volume 3215.910662
_symmetry_space_group_name_H-M "P 42/M B C"
_symmetry_group_IT_number 135
_symmetry_cell_setting 'tetragonal'
loop_
_space_group_symop_operation_xyz
x,y,z
-y,x,1/2+z
-x,-y,z
y,-x,1/2+z
1/2+x,1/2-y,-z
1/2-x,1/2+y,-z
1/2+y,1/2+x,1/2-z
1/2-y,1/2-x,1/2-z
-x,-y,-z
y,-x,1/2-z
x,y,-z
-y,x,1/2-z
1/2-x,1/2+y,z
1/2+x,1/2-y,z
1/2-y,1/2-x,1/2+z
1/2+y,1/2+x,1/2+z
loop_
_atom_site_type_symbol
_atom_site_label
_atom_site_fract_x
_atom_site_fract_y
_atom_site_fract_z
Si Si1 0.857866 0.994403 0.232666
Si Si2 0.211119 0.384340 0.330658
Si Si3 0.861462 0.253039 0.395207
Si Si4 0.092345 0.539743 0.399402
O O1 0.807313 0.939119 0.155531
O O2 0.921162 0.926098 0.290880
O O3 0.783415 0.044136 0.290929
O O4 0.149339 0.350662 0.250000
O O5 0.264951 0.296084 0.369297
O O6 0.157199 0.450232 0.396420
O O7 0.871868 0.246424 0.500000
O O8 0.869719 0.361081 0.366144
O O9 0.070802 0.561793 0.500000
O O10 0.000000 0.500000 0.355346
#
# Coordination Sequence:
#
# PCOD9568928 Si02
#       4
#    16  16  16  16
#     4   9  20  38  58  85 121 156 204 258 303 371
#     4  11  23  37  62  90 122 161 206 261 311 373
#     4  10  22  40  63  90 126 165 209 263 321 379
#     4  10  22  40  60  87 122 158 203 253 310 382
#
# _framework density 19.901050000000001
#
# number of rings (size 3 to 8) (size 9 to 14) (size 15 to 20)
#    0.000    2.000    0.000    2.250    7.000    2.500 
#    0.000   12.500    0.000    0.000    0.000    0.000 
#    0.000    0.000    0.000    0.000    0.000    0.000 
#
# Total GULP energy -356286.198677 kJ/mol
# GULP energy per Si atom -5566.971854 kJ/mol
# Density = 1.985575 g / cm^3
# Si number density = 19.901050 Si / 1000 Ang^3
#
#
#
# Elastic Constant Matrix: (Units=GPa)
#
#
# Indices 1 2 3 4 5 6 
#
# 1 -222.0970 394.9523 27.3657 0.0000 0.0000 0.0000
# 2 394.9523 -222.2475 27.3290 0.0000 0.0000 0.0000
# 3 27.3657 27.3290 60.5200 0.0000 0.0000 0.0000
# 4 0.0000 0.0000 0.0000 -13.9663 0.0000 0.0000
# 5 0.0000 0.0000 0.0000 0.0000 -13.9175 0.0000
# 6 0.0000 0.0000 0.0000 0.0000 0.0000 33.0302
#
#
#
# Elastic Compliance Matrix: (Units=1/GPa)
#
#
# Indices 1 2 3 4 5 6 
#
# 1 0.002567 0.004187 -0.003052 0.000000 0.000000 0.000000
# 2 0.004187 0.002566 -0.003052 0.000000 0.000000 0.000000
# 3 -0.003052 -0.003052 0.019282 0.000000 0.000000 0.000000
# 4 0.000000 0.000000 0.000000 -0.071601 0.000000 0.000000
# 5 0.000000 0.000000 0.000000 0.000000 -0.071852 0.000000
# 6 0.000000 0.000000 0.000000 0.000000 0.000000 0.030275
#
#
# Mechanical properties :
#
#
# Convention : Reuss Voigt Hill
#
# Bulk Modulus (GPa) = 48.58678 57.27438 52.93058
# Shear Modulus (GPa) = -64.04592 -54.53547 -59.29069
#
# Velocity S-wave (km/s) = -5.67909 -5.24050 -5.46419
# Velocity P-wave (km/s) = 4.30529 2.78837 3.62702
#
# Compressibility (1/GPa) = 0.02058173
#
# Stress axis : x y z
#
# Youngs Moduli (GPa) = 389.51004 389.70501 51.86302
#
# Poissons Ratio (x) = -1.63174 0.15827
# Poissons Ratio (y) = -1.63092 0.15829
# Poissons Ratio (z) = 1.18865 1.18940
#
# Static dielectric constant tensor:
#      x y z
#    x 1.814190 0.000000 0.000000 
#    y 0.000000 1.814210 0.000000 
#    z 0.000000 0.000000 1.678510 
# 
# From -- ./inp_files/3145.got.cif
#   From: 2010.05.17/outbox.cif.g08.bks.cpg/sg135_2_cif.got.tgz:3145.got - 2010.05.20 12:50:20.
