data_PCOD9568875
_publ_section_title
;
Structure prediction by ZEFSAII (Michael W. Deem and Ramdas Pophale) SiO2 
 PCOD9568875
Probable space group: P 42/M B C
;
_chemical_formula_sum "Si O2"
_cell_formula_units_Z 80
_cell_length_a 11.514960
_cell_length_b 11.514960
_cell_length_c 31.602980
_cell_angle_alpha 90.000000
_cell_angle_beta 90.000000
_cell_angle_gamma 90.000000
_cell_volume 4190.375131
_symmetry_space_group_name_H-M "P 42/M B C"
_symmetry_group_IT_number 135
_symmetry_cell_setting 'tetragonal'
loop_
_space_group_symop_operation_xyz
x,y,z
-y,x,1/2+z
-x,-y,z
y,-x,1/2+z
1/2+x,1/2-y,-z
1/2-x,1/2+y,-z
1/2+y,1/2+x,1/2-z
1/2-y,1/2-x,1/2-z
-x,-y,-z
y,-x,1/2-z
x,y,-z
-y,x,1/2-z
1/2-x,1/2+y,z
1/2+x,1/2-y,z
1/2-y,1/2-x,1/2+z
1/2+y,1/2+x,1/2+z
loop_
_atom_site_type_symbol
_atom_site_label
_atom_site_fract_x
_atom_site_fract_y
_atom_site_fract_z
Si Si1 0.447685 0.842330 0.093095
Si Si2 0.192609 0.959589 0.247172
Si Si3 0.902983 0.598669 0.810252
Si Si4 0.341990 0.039098 0.048382
Si Si5 0.613626 0.577161 0.452007
O O1 0.410232 0.873728 0.140193
O O2 0.572820 0.894648 0.080428
O O3 0.451555 0.707906 0.082907
O O4 0.358360 0.904860 0.060878
O O5 0.284474 0.935869 0.284755
O O6 0.276258 0.943243 0.206122
O O7 0.086689 0.866770 0.249173
O O8 0.000000 0.500000 0.801067
O O9 0.210988 0.078908 0.051932
O O10 0.379520 0.059173 0.000000
O O11 0.500000 0.500000 0.447356
O O12 0.659538 0.556994 0.500000
#
# Coordination Sequence:
#
# PCOD9568875 Si02
#       5
#    16  16  16  16  16
#     4  11  22  41  62  92 125 163 212 264 314 373
#     4  10  24  45  68  94 123 167 208 249 316 389
#     4  11  24  41  68  93 129 162 205 263 317 374
#     4  10  21  39  63  86 123 172 214 256 312 375
#     4  10  23  40  61  91 128 172 218 265 317 371
#
# _framework density 19.091370000000001
#
# number of rings (size 3 to 8) (size 9 to 14) (size 15 to 20)
#    0.000    1.600    2.000    3.600    8.400    3.200 
#    3.600    0.000    0.000    0.000    0.000    0.000 
#    0.000    0.000    0.000    0.000    0.000    0.000 
#
# Total GULP energy -446546.411287 kJ/mol
# GULP energy per Si atom -5581.830141 kJ/mol
# Density = 1.904792 g / cm^3
# Si number density = 19.091370 Si / 1000 Ang^3
#
#
#
# Elastic Constant Matrix: (Units=GPa)
#
#
# Indices 1 2 3 4 5 6 
#
# 1 121.3040 57.1081 57.6817 0.0000 0.0000 0.0000
# 2 57.1081 121.3040 57.6817 0.0000 0.0000 0.0000
# 3 57.6817 57.6817 134.7093 0.0000 0.0000 0.0000
# 4 0.0000 0.0000 0.0000 64.9948 0.0000 0.0000
# 5 0.0000 0.0000 0.0000 0.0000 64.9948 0.0000
# 6 0.0000 0.0000 0.0000 0.0000 0.0000 20.4011
#
#
#
# Elastic Compliance Matrix: (Units=1/GPa)
#
#
# Indices 1 2 3 4 5 6 
#
# 1 0.011664 -0.003913 -0.003319 0.000000 0.000000 0.000000
# 2 -0.003913 0.011664 -0.003319 0.000000 0.000000 0.000000
# 3 -0.003319 -0.003319 0.010266 0.000000 0.000000 0.000000
# 4 0.000000 0.000000 0.000000 0.015386 0.000000 0.000000
# 5 0.000000 0.000000 0.000000 0.000000 0.015386 0.000000
# 6 0.000000 0.000000 0.000000 0.000000 0.000000 0.049017
#
#
# Mechanical properties :
#
#
# Convention : Reuss Voigt Hill
#
# Bulk Modulus (GPa) = 80.05112 80.25113 80.15113
# Shear Modulus (GPa) = 36.06235 43.73454 39.89845
#
# Velocity S-wave (km/s) = 4.35090 4.79142 4.57647
# Velocity P-wave (km/s) = 8.20134 8.52859 8.36657
#
# Compressibility (1/GPa) = 0.01249202
#
# Stress axis : x y z
#
# Youngs Moduli (GPa) = 85.73246 85.73246 97.41160
#
# Poissons Ratio (x) = 0.33548 0.32331
# Poissons Ratio (y) = 0.33548 0.32331
# Poissons Ratio (z) = 0.28454 0.28454
#
# Static dielectric constant tensor:
#      x y z
#    x 1.668290 0.000000 0.000000 
#    y 0.000000 1.668290 0.000000 
#    z 0.000000 0.000000 1.667120 
# 
# From -- ./inp_files/6714.got.cif
#   From: 2010.05.17/outbox.cif.g08.bks.cpg/sg135_4_cif.got.tgz:6714.got - 2010.05.20 12:50:20.
