data_PCOD9568264
_publ_section_title
;
Structure prediction by ZEFSAII (Michael W. Deem and Ramdas Pophale) SiO2 
 PCOD9568264
Probable space group: P 42/N N M
;
_chemical_formula_sum "Si O2"
_cell_formula_units_Z 64
_cell_length_a 10.977122
_cell_length_b 10.977122
_cell_length_c 22.788544
_cell_angle_alpha 90.000000
_cell_angle_beta 90.000000
_cell_angle_gamma 90.000000
_cell_volume 2745.955913
_symmetry_space_group_name_H-M "P 42/N N M"
_symmetry_group_IT_number 134
_space_group.IT_coordinate_system_code '2'
_symmetry_cell_setting 'tetragonal'
loop_
_space_group_symop_operation_xyz
x,y,z
1/2-y,x,1/2+z
1/2-x,1/2-y,z
y,1/2-x,1/2+z
x,1/2-y,1/2-z
1/2-x,y,1/2-z
y,x,-z
1/2-y,1/2-x,-z
-x,-y,-z
1/2+y,-x,1/2-z
1/2+x,1/2+y,-z
-y,1/2+x,1/2-z
-x,1/2+y,1/2+z
1/2+x,-y,1/2+z
-y,-x,z
1/2+y,1/2+x,z
loop_
_atom_site_type_symbol
_atom_site_label
_atom_site_fract_x
_atom_site_fract_y
_atom_site_fract_z
Si Si1 0.717820 0.606972 0.870957
Si Si2 0.466234 0.716123 0.882074
Si Si3 0.754864 0.547009 0.992570
Si Si4 0.122074 0.073466 0.713261
O O1 0.750000 0.750000 0.887966
O O2 0.573389 0.618333 0.868479
O O3 0.750428 0.515879 0.923855
O O4 0.793487 0.583803 0.811863
O O5 0.342803 0.657198 0.860468
O O6 0.508886 0.832034 0.846556
O O7 0.460553 0.740221 0.951763
O O8 0.642734 0.642734 0.000000
O O9 0.879293 0.620708 0.000000
O O10 0.250000 0.080607 0.750000
O O11 0.012566 0.987435 0.736755
#
# Coordination Sequence:
#
# PCOD9568264 Si02
#       4
#    16  16  16  16
#     4   9  17  32  54  78 107 141 187 225 269 333
#     4  10  20  32  55  88 117 146 184 234 291 342
#     4   9  12  27  50  76 108 141 179 223 265 322
#     4  11  23  38  55  74 106 149 191 238 290 347
#
# _framework density 23.307003000000002
#
# number of rings (size 3 to 8) (size 9 to 14) (size 15 to 20)
#    0.000    2.250    7.500    0.750    0.000   10.750 
#    0.000    2.500    0.000    0.750    0.000    0.000 
#    0.000   12.000    0.000    0.000    0.000    0.000 
#
# Total GULP energy -356395.732220 kJ/mol
# GULP energy per Si atom -5568.683316 kJ/mol
# Density = 2.325395 g / cm^3
# Si number density = 23.307003 Si / 1000 Ang^3
#
#
#
# Elastic Constant Matrix: (Units=GPa)
#
#
# Indices 1 2 3 4 5 6 
#
# 1 32.1172 60.4731 21.4889 0.0000 0.0000 0.0000
# 2 60.4731 32.1170 21.4888 0.0000 0.0000 0.0000
# 3 21.4889 21.4888 147.9035 0.0000 0.0000 0.0000
# 4 0.0000 0.0000 0.0000 2.1510 0.0000 0.0000
# 5 0.0000 0.0000 0.0000 0.0000 2.1506 0.0000
# 6 0.0000 0.0000 0.0000 0.0000 0.0000 26.5592
#
#
#
# Elastic Compliance Matrix: (Units=1/GPa)
#
#
# Indices 1 2 3 4 5 6 
#
# 1 -0.011842 0.023424 -0.001683 0.000000 0.000000 0.000000
# 2 0.023424 -0.011842 -0.001683 0.000000 0.000000 0.000000
# 3 -0.001683 -0.001683 0.007250 0.000000 0.000000 0.000000
# 4 0.000000 0.000000 0.000000 0.464908 0.000000 0.000000
# 5 0.000000 0.000000 0.000000 0.000000 0.464994 0.000000
# 6 0.000000 0.000000 0.000000 0.000000 0.000000 0.037652
#
#
# Mechanical properties :
#
#
# Convention : Reuss Voigt Hill
#
# Bulk Modulus (GPa) = 42.22590 46.55993 44.39292
# Shear Modulus (GPa) = 5.44131 13.41794 9.42963
#
# Velocity S-wave (km/s) = 1.52961 2.40199 2.01361
# Velocity P-wave (km/s) = 4.61261 5.26430 4.94920
#
# Compressibility (1/GPa) = 0.02368215
#
# Stress axis : x y z
#
# Youngs Moduli (GPa) = -84.44341 -84.44284 137.92900
#
# Poissons Ratio (x) = 1.97796 0.23208
# Poissons Ratio (y) = 1.97797 0.23209
# Poissons Ratio (z) = -0.14209 -0.14209
#
# Static dielectric constant tensor:
#      x y z
#    x 1.907120 0.000000 0.000000 
#    y 0.000000 1.907120 0.000000 
#    z 0.000000 0.000000 2.006690 
# 
# From -- ./inp_files/9783.got.cif
#   From: 2010.05.17/outbox.cif.g08.bks.cpg/sg134_5_cif.got.tgz:9783.got - 2010.05.20 12:42:49.
