data_PCOD9568329
_publ_section_title
;
Structure prediction by ZEFSAII (Michael W. Deem and Ramdas Pophale) SiO2 
 PCOD9568329
Probable space group: P 42/N N M
;
_chemical_formula_sum "Si O2"
_cell_formula_units_Z 40
_cell_length_a 9.067583
_cell_length_b 9.067583
_cell_length_c 20.928231
_cell_angle_alpha 90.000000
_cell_angle_beta 90.000000
_cell_angle_gamma 90.000000
_cell_volume 1720.741367
_symmetry_space_group_name_H-M "P 42/N N M"
_symmetry_group_IT_number 134
_space_group.IT_coordinate_system_code '2'
_symmetry_cell_setting 'tetragonal'
loop_
_space_group_symop_operation_xyz
x,y,z
1/2-y,x,1/2+z
1/2-x,1/2-y,z
y,1/2-x,1/2+z
x,1/2-y,1/2-z
1/2-x,y,1/2-z
y,x,-z
1/2-y,1/2-x,-z
-x,-y,-z
1/2+y,-x,1/2-z
1/2+x,1/2+y,-z
-y,1/2+x,1/2-z
-x,1/2+y,1/2+z
1/2+x,-y,1/2+z
-y,-x,z
1/2+y,1/2+x,z
loop_
_atom_site_type_symbol
_atom_site_label
_atom_site_fract_x
_atom_site_fract_y
_atom_site_fract_z
Si Si1 0.250000 0.510605 0.750000
Si Si2 0.929036 0.655782 0.139885
Si Si3 0.063502 0.164090 0.069807
O O1 0.124326 0.624326 0.723335
O O2 0.159358 0.406666 0.798631
O O3 0.912242 0.826419 0.121856
O O4 0.835666 0.578336 0.083277
O O5 0.092718 0.592718 0.142807
O O6 0.121370 0.121370 0.000000
O O7 0.902204 0.097797 0.075995
#
# Coordination Sequence:
#
# PCOD9568329 Si02
#       3
#     8  16  16
#     4   9  18  33  56  86 112 138 184 240 284 328
#     4  10  20  36  58  80 106 145 187 226 275 332
#     4  10  22  37  53  81 117 146 180 229 278 326
#
# _framework density 23.245795000000001
#
# number of rings (size 3 to 8) (size 9 to 14) (size 15 to 20)
#    0.000    2.200    0.000    3.600    0.000    9.600 
#    0.000    4.000    0.000    0.000    0.000   11.200 
#    0.000    0.000    0.000    0.000    0.000    0.000 
#
# Total GULP energy -223049.726844 kJ/mol
# GULP energy per Si atom -5576.243171 kJ/mol
# Density = 2.319289 g / cm^3
# Si number density = 23.245795 Si / 1000 Ang^3
#
#
#
# Elastic Constant Matrix: (Units=GPa)
#
#
# Indices 1 2 3 4 5 6 
#
# 1 24.3730 26.9431 -6.3630 0.0000 0.0000 0.0000
# 2 26.9431 24.3730 -6.3630 0.0000 0.0000 0.0000
# 3 -6.3630 -6.3630 87.5078 0.0000 0.0000 0.0000
# 4 0.0000 0.0000 0.0000 6.3886 0.0000 0.0000
# 5 0.0000 0.0000 0.0000 0.0000 6.3886 0.0000
# 6 0.0000 0.0000 0.0000 0.0000 0.0000 51.3804
#
#
#
# Elastic Compliance Matrix: (Units=1/GPa)
#
#
# Indices 1 2 3 4 5 6 
#
# 1 -0.184626 0.204471 0.001443 0.000000 0.000000 0.000000
# 2 0.204471 -0.184626 0.001443 0.000000 0.000000 0.000000
# 3 0.001443 0.001443 0.011637 0.000000 0.000000 0.000000
# 4 0.000000 0.000000 0.000000 0.156529 0.000000 0.000000
# 5 0.000000 0.000000 0.000000 0.000000 0.156529 0.000000
# 6 0.000000 0.000000 0.000000 0.000000 0.000000 0.019463
#
#
# Mechanical properties :
#
#
# Convention : Reuss Voigt Hill
#
# Bulk Modulus (GPa) = 17.51339 18.29868 17.90603
# Shear Modulus (GPa) = -11.88277 20.96732 4.54227
#
# Velocity S-wave (km/s) = -2.26338 3.00656 1.39938
# Velocity P-wave (km/s) = 0.84843 4.46559 3.21413
#
# Compressibility (1/GPa) = 0.05709917
#
# Stress axis : x y z
#
# Youngs Moduli (GPa) = -5.41634 -5.41634 85.92987
#
# Poissons Ratio (x) = 1.10749 -0.12400
# Poissons Ratio (y) = 1.10749 -0.12400
# Poissons Ratio (z) = 0.00782 0.00782
#
# Static dielectric constant tensor:
#      x y z
#    x 1.882050 0.000000 0.000000 
#    y 0.000000 1.882050 0.000000 
#    z 0.000000 0.000000 1.944080 
# 
# From -- ./inp_files/7098.got.cif
#   From: 2010.05.17/outbox.cif.g08.bks.cpg/sg134_4_cif.got.tgz:7098.got - 2010.05.20 12:42:49.
