data_PCOD9568985
_publ_section_title
;
Structure prediction by ZEFSAII (Michael W. Deem and Ramdas Pophale) SiO2 
 PCOD9568985
Probable space group: P 42/M B C
;
_chemical_formula_sum "Si O2"
_cell_formula_units_Z 88
_cell_length_a 10.579616
_cell_length_b 10.579616
_cell_length_c 33.310256
_cell_angle_alpha 90.000000
_cell_angle_beta 90.000000
_cell_angle_gamma 90.000000
_cell_volume 3728.359484
_symmetry_space_group_name_H-M "P 42/M B C"
_symmetry_group_IT_number 135
_symmetry_cell_setting 'tetragonal'
loop_
_space_group_symop_operation_xyz
x,y,z
-y,x,1/2+z
-x,-y,z
y,-x,1/2+z
1/2+x,1/2-y,-z
1/2-x,1/2+y,-z
1/2+y,1/2+x,1/2-z
1/2-y,1/2-x,1/2-z
-x,-y,-z
y,-x,1/2-z
x,y,-z
-y,x,1/2-z
1/2-x,1/2+y,z
1/2+x,1/2-y,z
1/2-y,1/2-x,1/2+z
1/2+y,1/2+x,1/2+z
loop_
_atom_site_type_symbol
_atom_site_label
_atom_site_fract_x
_atom_site_fract_y
_atom_site_fract_z
Si Si1 0.170985 0.329016 0.750000
Si Si2 0.243301 0.076657 0.298264
Si Si3 0.379249 0.852647 0.500000
Si Si4 0.650390 0.597726 0.410969
Si Si5 0.500000 0.500000 0.153386
Si Si6 0.686379 0.858354 0.616161
Si Si7 0.335383 0.609413 0.000000
Si Si8 0.000000 0.500000 0.432834
O O1 0.188411 0.466157 0.727909
O O2 0.190238 0.203334 0.722744
O O3 0.325151 0.126078 0.336069
O O4 0.119708 0.014686 0.318234
O O5 0.499840 0.764965 0.500000
O O6 0.250244 0.776420 0.500000
O O7 0.393031 0.943690 0.461886
O O8 0.536037 0.609077 0.378552
O O9 0.721849 0.470609 0.398553
O O10 0.730146 0.722796 0.400032
O O11 0.607261 0.595108 0.457103
O O12 0.555935 0.890211 0.594114
#
# Coordination Sequence:
#
# PCOD9568985 Si02
#       8
#     8  16   8  16   8  16   8   8
#     4  12  26  48  76 114 148 192 238 312 380 472
#     4  11  25  45  75 105 150 187 247 300 385 454
#     4  11  24  42  68 101 151 197 256 322 389 442
#     4  11  25  43  72 104 153 195 269 311 394 443
#     4  10  24  48  70 106 152 206 240 312 374 466
#     4  11  24  44  70 104 143 206 250 326 379 479
#     4  12  24  45  74 109 149 212 260 336 382 468
#     4  11  22  40  66  95 150 198 250 317 392 438
#
# _framework density 23.602872000000001
#
# number of rings (size 3 to 8) (size 9 to 14) (size 15 to 20)
#    0.000    0.909    3.636    3.273    0.000   10.182 
#    0.000    0.000    0.000    0.000    0.000    0.000 
#    0.000    0.000    0.000    0.000    0.000    0.000 
#
# Total GULP energy -491369.701425 kJ/mol
# GULP energy per Si atom -5583.746607 kJ/mol
# Density = 2.354915 g / cm^3
# Si number density = 23.602872 Si / 1000 Ang^3
#
#
#
# Elastic Constant Matrix: (Units=GPa)
#
#
# Indices 1 2 3 4 5 6 
#
# 1 108.6205 24.1526 31.4066 0.0000 0.0000 0.0000
# 2 24.1526 108.6208 31.4062 0.0000 0.0000 0.0000
# 3 31.4066 31.4062 148.3990 0.0000 0.0000 0.0000
# 4 0.0000 0.0000 0.0000 42.4683 0.0000 0.0000
# 5 0.0000 0.0000 0.0000 0.0000 42.4682 0.0000
# 6 0.0000 0.0000 0.0000 0.0000 0.0000 38.0278
#
#
#
# Elastic Compliance Matrix: (Units=1/GPa)
#
#
# Indices 1 2 3 4 5 6 
#
# 1 0.010104 -0.001735 -0.001771 0.000000 0.000000 0.000000
# 2 -0.001735 0.010104 -0.001771 0.000000 0.000000 0.000000
# 3 -0.001771 -0.001771 0.007488 0.000000 0.000000 0.000000
# 4 0.000000 0.000000 0.000000 0.023547 0.000000 0.000000
# 5 0.000000 0.000000 0.000000 0.000000 0.023547 0.000000
# 6 0.000000 0.000000 0.000000 0.000000 0.000000 0.026297
#
#
# Mechanical properties :
#
#
# Convention : Reuss Voigt Hill
#
# Bulk Modulus (GPa) = 58.33510 59.95236 59.14373
# Shear Modulus (GPa) = 42.60550 43.17120 42.88835
#
# Velocity S-wave (km/s) = 4.25325 4.28140 4.26735
# Velocity P-wave (km/s) = 6.99208 7.06372 7.02799
#
# Compressibility (1/GPa) = 0.01714234
#
# Stress axis : x y z
#
# Youngs Moduli (GPa) = 98.96846 98.96893 133.54109
#
# Poissons Ratio (x) = 0.17167 0.23654
# Poissons Ratio (y) = 0.17167 0.23654
# Poissons Ratio (z) = 0.17531 0.17530
#
# Static dielectric constant tensor:
#      x y z
#    x 2.011580 0.000000 0.000000 
#    y 0.000000 2.011580 0.000000 
#    z 0.000000 0.000000 1.933420 
# 
# From -- ./inp_files/6832.got.cif
#   From: 2010.05.17/outbox.cif.g08.bks.cpg/sg135_4_cif.got.tgz:6832.got - 2010.05.20 12:50:20.
