data_PCOD9568461
_publ_section_title
;
Structure prediction by ZEFSAII (Michael W. Deem and Ramdas Pophale) SiO2 
 PCOD9568461
Probable space group: P 42/N N M
;
_chemical_formula_sum "Si O2"
_cell_formula_units_Z 96
_cell_length_a 14.726999
_cell_length_b 14.726999
_cell_length_c 21.629400
_cell_angle_alpha 90.000000
_cell_angle_beta 90.000000
_cell_angle_gamma 90.000000
_cell_volume 4691.081594
_symmetry_space_group_name_H-M "P 42/N N M"
_symmetry_group_IT_number 134
_space_group.IT_coordinate_system_code '2'
_symmetry_cell_setting 'tetragonal'
loop_
_space_group_symop_operation_xyz
x,y,z
1/2-y,x,1/2+z
1/2-x,1/2-y,z
y,1/2-x,1/2+z
x,1/2-y,1/2-z
1/2-x,y,1/2-z
y,x,-z
1/2-y,1/2-x,-z
-x,-y,-z
1/2+y,-x,1/2-z
1/2+x,1/2+y,-z
-y,1/2+x,1/2-z
-x,1/2+y,1/2+z
1/2+x,-y,1/2+z
-y,-x,z
1/2+y,1/2+x,z
loop_
_atom_site_type_symbol
_atom_site_label
_atom_site_fract_x
_atom_site_fract_y
_atom_site_fract_z
Si Si1 0.104372 0.756243 0.159034
Si Si2 0.164545 0.976984 0.034074
Si Si3 0.897210 0.247186 0.090597
Si Si4 0.835594 0.486103 0.205521
Si Si5 0.912914 0.817882 0.302687
Si Si6 0.779434 0.646730 0.942171
O O1 0.154285 0.845716 0.187193
O O2 0.180025 0.680025 0.155347
O O3 0.073437 0.784494 0.090350
O O4 0.017020 0.713675 0.191161
O O5 0.061376 0.938625 0.037904
O O6 0.194444 0.080664 0.043309
O O7 0.205605 0.944784 0.969174
O O8 0.833693 0.166308 0.118732
O O9 0.826378 0.326378 0.072275
O O10 0.967923 0.292034 0.137824
O O11 0.750000 0.488475 0.250000
O O12 0.892402 0.578317 0.214057
O O13 0.901128 0.401128 0.217857
O O14 0.872489 0.750000 0.250000
O O15 0.878077 0.811036 0.373358
O O16 0.750000 0.750000 0.937567
O O17 0.851308 0.648693 0.000000
#
# Coordination Sequence:
#
# PCOD9568461 Si02
#       6
#    16  16  16  16  16  16
#     4   9  18  35  61  93 128 163 198 247 314 383
#     4   9  17  33  58  91 123 156 199 254 314 380
#     4   9  17  32  59  93 127 161 201 256 321 385
#     4  11  24  40  61  89 123 166 216 267 323 386
#     4  11  25  41  64  88 125 164 214 262 317 382
#     4  10  22  40  62  84 116 162 210 260 317 381
#
# _framework density 20.464362999999999
#
# number of rings (size 3 to 8) (size 9 to 14) (size 15 to 20)
#    0.000    2.167    0.000    2.500    2.333    4.167 
#    0.000    2.500    0.000    8.000    0.000    0.000 
#    0.000    0.000    0.000    0.000    0.000    0.000 
#
# Total GULP energy -535058.489598 kJ/mol
# GULP energy per Si atom -5573.525933 kJ/mol
# Density = 2.041778 g / cm^3
# Si number density = 20.464363 Si / 1000 Ang^3
#
#
#
# Elastic Constant Matrix: (Units=GPa)
#
#
# Indices 1 2 3 4 5 6 
#
# 1 121.5167 50.9411 52.1717 0.0000 0.0000 0.0000
# 2 50.9411 121.5171 52.1717 0.0000 0.0000 0.0000
# 3 52.1717 52.1717 87.5185 0.0000 0.0000 0.0000
# 4 0.0000 0.0000 0.0000 -32.5756 0.0000 0.0000
# 5 0.0000 0.0000 0.0000 0.0000 -32.5718 0.0000
# 6 0.0000 0.0000 0.0000 0.0000 0.0000 28.7523
#
#
#
# Elastic Compliance Matrix: (Units=1/GPa)
#
#
# Indices 1 2 3 4 5 6 
#
# 1 0.011619 -0.002550 -0.005407 0.000000 0.000000 0.000000
# 2 -0.002550 0.011619 -0.005407 0.000000 0.000000 0.000000
# 3 -0.005407 -0.005407 0.017872 0.000000 0.000000 0.000000
# 4 0.000000 0.000000 0.000000 -0.030698 0.000000 0.000000
# 5 0.000000 0.000000 0.000000 0.000000 -0.030701 0.000000
# 6 0.000000 0.000000 0.000000 0.000000 0.000000 0.034780
#
#
# Mechanical properties :
#
#
# Convention : Reuss Voigt Hill
#
# Bulk Modulus (GPa) = 69.51674 71.23570 70.37622
# Shear Modulus (GPa) = 108.66516 4.40549 56.53533
#
# Velocity S-wave (km/s) = 7.29486 1.46882 5.26177
# Velocity P-wave (km/s) = 10.24679 6.14506 8.44862
#
# Compressibility (1/GPa) = 0.01438502
#
# Stress axis : x y z
#
# Youngs Moduli (GPa) = 86.06231 86.06270 55.95275
#
# Poissons Ratio (x) = 0.21944 0.30252
# Poissons Ratio (y) = 0.21943 0.30252
# Poissons Ratio (z) = 0.46531 0.46531
#
# Static dielectric constant tensor:
#      x y z
#    x 1.757490 0.000000 0.000000 
#    y 0.000000 1.757490 0.000000 
#    z 0.000000 0.000000 1.822820 
# 
# From -- ./inp_files/9167.got.cif
#   From: 2010.05.17/outbox.cif.g08.bks.cpg/sg134_5_cif.got.tgz:9167.got - 2010.05.20 12:42:49.
