data_PCOD9568966
_publ_section_title
;
Structure prediction by ZEFSAII (Michael W. Deem and Ramdas Pophale) SiO2 
 PCOD9568966
Probable space group: P 42/M B C
;
_chemical_formula_sum "Si O2"
_cell_formula_units_Z 80
_cell_length_a 14.454792
_cell_length_b 14.454792
_cell_length_c 18.517059
_cell_angle_alpha 90.000000
_cell_angle_beta 90.000000
_cell_angle_gamma 90.000000
_cell_volume 3868.973042
_symmetry_space_group_name_H-M "P 42/M B C"
_symmetry_group_IT_number 135
_symmetry_cell_setting 'tetragonal'
loop_
_space_group_symop_operation_xyz
x,y,z
-y,x,1/2+z
-x,-y,z
y,-x,1/2+z
1/2+x,1/2-y,-z
1/2-x,1/2+y,-z
1/2+y,1/2+x,1/2-z
1/2-y,1/2-x,1/2-z
-x,-y,-z
y,-x,1/2-z
x,y,-z
-y,x,1/2-z
1/2-x,1/2+y,z
1/2+x,1/2-y,z
1/2-y,1/2-x,1/2+z
1/2+y,1/2+x,1/2+z
loop_
_atom_site_type_symbol
_atom_site_label
_atom_site_fract_x
_atom_site_fract_y
_atom_site_fract_z
Si Si1 0.030634 0.212640 0.809597
Si Si2 0.403084 0.039891 0.331600
Si Si3 0.200969 0.694425 0.081760
Si Si4 0.120464 0.064988 0.082904
Si Si5 0.126911 0.163160 0.334781
O O1 0.062614 0.132347 0.864532
O O2 0.083433 0.211800 0.734270
O O3 0.032976 0.318770 0.834676
O O4 0.924069 0.182163 0.800667
O O5 0.423700 0.076301 0.250000
O O6 0.363232 0.122146 0.378732
O O7 0.500000 0.000000 0.358433
O O8 0.285421 0.623739 0.080643
O O9 0.216527 0.792471 0.122041
O O10 0.173258 0.717439 0.000000
O O11 0.133956 0.961811 0.115841
O O12 0.086265 0.059874 0.000000
#
# Coordination Sequence:
#
# PCOD9568966 Si02
#       5
#    16  16  16  16  16
#     4  11  23  38  66  96 127 168 220 270 343 399
#     4  10  23  42  64  92 124 164 219 275 331 400
#     4  10  24  42  63  92 128 177 220 266 337 399
#     4  11  24  40  62  95 134 172 218 273 330 397
#     4  11  22  41  66  95 134 169 220 281 331 403
#
# _framework density 20.677320999999999
#
# number of rings (size 3 to 8) (size 9 to 14) (size 15 to 20)
#    0.000    1.400    2.000    2.400    2.800   10.000 
#    0.000    2.000    0.000    0.000    0.000    0.000 
#    0.000    0.000    0.000    0.000    0.000    0.000 
#
# Total GULP energy -446308.821683 kJ/mol
# GULP energy per Si atom -5578.860271 kJ/mol
# Density = 2.063026 g / cm^3
# Si number density = 20.677321 Si / 1000 Ang^3
#
#
#
# Elastic Constant Matrix: (Units=GPa)
#
#
# Indices 1 2 3 4 5 6 
#
# 1 102.5059 26.7150 30.7455 0.0000 0.0000 0.0000
# 2 26.7150 102.5066 30.7462 0.0000 0.0000 0.0000
# 3 30.7455 30.7462 82.0035 0.0000 0.0000 0.0000
# 4 0.0000 0.0000 0.0000 -27.1308 0.0000 0.0000
# 5 0.0000 0.0000 0.0000 0.0000 -27.1987 0.0000
# 6 0.0000 0.0000 0.0000 0.0000 0.0000 15.0919
#
#
#
# Elastic Compliance Matrix: (Units=1/GPa)
#
#
# Indices 1 2 3 4 5 6 
#
# 1 0.011307 -0.001887 -0.003532 0.000000 0.000000 0.000000
# 2 -0.001887 0.011307 -0.003532 0.000000 0.000000 0.000000
# 3 -0.003532 -0.003532 0.014843 0.000000 0.000000 0.000000
# 4 0.000000 0.000000 0.000000 -0.036858 0.000000 0.000000
# 5 0.000000 0.000000 0.000000 0.000000 -0.036766 0.000000
# 6 0.000000 0.000000 0.000000 0.000000 0.000000 0.066261
#
#
# Mechanical properties :
#
#
# Convention : Reuss Voigt Hill
#
# Bulk Modulus (GPa) = 51.13800 51.49217 51.31509
# Shear Modulus (GPa) = 91.72348 5.40642 48.56495
#
# Velocity S-wave (km/s) = 6.66752 1.61875 4.85160
# Velocity P-wave (km/s) = 9.16840 5.33391 7.50034
#
# Compressibility (1/GPa) = 0.01955493
#
# Stress axis : x y z
#
# Youngs Moduli (GPa) = 88.44330 88.44342 67.37267
#
# Poissons Ratio (x) = 0.16693 0.23793
# Poissons Ratio (y) = 0.16693 0.23794
# Poissons Ratio (z) = 0.31234 0.31235
#
# Static dielectric constant tensor:
#      x y z
#    x 1.792980 0.000000 0.000000 
#    y 0.000000 1.792980 0.000000 
#    z 0.000000 0.000000 1.754460 
# 
# From -- ./inp_files/5220.got.cif
#   From: 2010.05.17/outbox.cif.g08.bks.cpg/sg135_3_cif.got.tgz:5220.got - 2010.05.20 12:50:20.
