data_PCOD9568546
_publ_section_title
;
Structure prediction by ZEFSAII (Michael W. Deem and Ramdas Pophale) SiO2 
 PCOD9568546
Probable space group: P 42/N N M
;
_chemical_formula_sum "Si O2"
_cell_formula_units_Z 58
_cell_length_a 11.831371
_cell_length_b 11.831371
_cell_length_c 20.363636
_cell_angle_alpha 90.000000
_cell_angle_beta 90.000000
_cell_angle_gamma 90.000000
_cell_volume 2850.529049
_symmetry_space_group_name_H-M "P 42/N N M"
_symmetry_group_IT_number 134
_space_group.IT_coordinate_system_code '2'
_symmetry_cell_setting 'tetragonal'
loop_
_space_group_symop_operation_xyz
x,y,z
1/2-y,x,1/2+z
1/2-x,1/2-y,z
y,1/2-x,1/2+z
x,1/2-y,1/2-z
1/2-x,y,1/2-z
y,x,-z
1/2-y,1/2-x,-z
-x,-y,-z
1/2+y,-x,1/2-z
1/2+x,1/2+y,-z
-y,1/2+x,1/2-z
-x,1/2+y,1/2+z
1/2+x,-y,1/2+z
-y,-x,z
1/2+y,1/2+x,z
loop_
_atom_site_type_symbol
_atom_site_label
_atom_site_fract_x
_atom_site_fract_y
_atom_site_fract_z
Si Si1 0.448323 0.948323 0.372582
Si Si2 0.312766 0.127456 0.814281
Si Si3 0.750000 0.250000 0.750000
Si Si4 0.922135 0.811598 0.941328
Si Si5 0.157860 0.842141 0.011724
Si Si6 0.427259 0.572742 0.282276
O O1 0.574221 0.921027 0.397613
O O2 0.366443 0.866443 0.412417
O O3 0.438582 0.938582 0.295992
O O4 0.250000 0.250000 0.815812
O O5 0.250000 0.071546 0.750000
O O6 0.286103 0.085387 0.887709
O O7 0.448049 0.115309 0.805184
O O8 0.832058 0.332058 0.791870
O O9 0.832955 0.832955 0.000000
O O10 0.041003 0.806856 0.978133
O O11 0.250000 0.750000 0.000842
#
# Coordination Sequence:
#
# PCOD9568546 Si02
#       6
#     8  16   2  16   8   8
#     4   9  18  37  61  94 130 184 228 263 348 437
#     4  11  23  41  68  97 136 181 230 301 361 426
#     4  12  28  44  60  92 136 188 236 300 338 452
#     4   9  19  38  64  91 137 186 222 272 361 434
#     4   9  19  34  62  99 139 184 227 279 336 435
#     4  12  25  42  70 102 133 186 247 295 367 429
#
# _framework density 20.347102
#
# number of rings (size 3 to 8) (size 9 to 14) (size 15 to 20)
#    0.000    1.931    2.759    3.310    2.897    0.552 
#    0.000    0.000    0.000    1.655    0.000    0.966 
#    0.000    0.000    0.000    0.000    0.000    0.000 
#
# Total GULP energy -323350.603854 kJ/mol
# GULP energy per Si atom -5575.010411 kJ/mol
# Density = 2.030079 g / cm^3
# Si number density = 20.347102 Si / 1000 Ang^3
#
#
#
# Elastic Constant Matrix: (Units=GPa)
#
#
# Indices 1 2 3 4 5 6 
#
# 1 148.1035 68.0203 62.3039 0.0000 0.0000 0.0000
# 2 68.0203 148.1035 62.3039 0.0000 0.0000 0.0000
# 3 62.3039 62.3039 167.3577 0.0000 0.0000 0.0000
# 4 0.0000 0.0000 0.0000 25.7191 0.0000 0.0000
# 5 0.0000 0.0000 0.0000 0.0000 25.7191 0.0000
# 6 0.0000 0.0000 0.0000 0.0000 0.0000 30.2903
#
#
#
# Elastic Compliance Matrix: (Units=1/GPa)
#
#
# Indices 1 2 3 4 5 6 
#
# 1 0.009189 -0.003298 -0.002193 0.000000 0.000000 0.000000
# 2 -0.003298 0.009189 -0.002193 0.000000 0.000000 0.000000
# 3 -0.002193 -0.002193 0.007608 0.000000 0.000000 0.000000
# 4 0.000000 0.000000 0.000000 0.038882 0.000000 0.000000
# 5 0.000000 0.000000 0.000000 0.000000 0.038882 0.000000
# 6 0.000000 0.000000 0.000000 0.000000 0.000000 0.033014
#
#
# Mechanical properties :
#
#
# Convention : Reuss Voigt Hill
#
# Bulk Modulus (GPa) = 94.17843 94.31345 94.24594
# Shear Modulus (GPa) = 32.11884 34.40815 33.26350
#
# Velocity S-wave (km/s) = 3.97740 4.11671 4.04766
# Velocity P-wave (km/s) = 8.21458 8.30959 8.26222
#
# Compressibility (1/GPa) = 0.01061814
#
# Stress axis : x y z
#
# Youngs Moduli (GPa) = 108.82245 108.82245 131.43590
#
# Poissons Ratio (x) = 0.35887 0.28828
# Poissons Ratio (y) = 0.35887 0.28828
# Poissons Ratio (z) = 0.23868 0.23868
#
# Static dielectric constant tensor:
#      x y z
#    x 1.757110 0.000000 0.000000 
#    y 0.000000 1.757110 0.000000 
#    z 0.000000 0.000000 1.750380 
# 
# From -- ./inp_files/8753.got.cif
#   From: 2010.05.17/outbox.cif.g08.bks.cpg/sg134_5_cif.got.tgz:8753.got - 2010.05.20 12:42:49.
