data_PCOD9568016
_publ_section_title
;
Structure prediction by ZEFSAII (Michael W. Deem and Ramdas Pophale) SiO2 
 PCOD9568016
Probable space group: P 42/N B C
;
_chemical_formula_sum "Si O2"
_cell_formula_units_Z 68
_cell_length_a 13.011017
_cell_length_b 13.011017
_cell_length_c 15.026630
_cell_angle_alpha 90.000000
_cell_angle_beta 90.000000
_cell_angle_gamma 90.000000
_cell_volume 2543.806552
_symmetry_space_group_name_H-M "P 42/N B C"
_symmetry_group_IT_number 133
_space_group.IT_coordinate_system_code '2'
_symmetry_cell_setting 'tetragonal'
loop_
_space_group_symop_operation_xyz
x,y,z
1/2-y,x,1/2+z
1/2-x,1/2-y,z
y,1/2-x,1/2+z
x,1/2-y,-z
1/2-x,y,-z
y,x,1/2-z
1/2-y,1/2-x,1/2-z
-x,-y,-z
1/2+y,-x,1/2-z
1/2+x,1/2+y,-z
-y,1/2+x,1/2-z
-x,1/2+y,z
1/2+x,-y,z
-y,-x,1/2+z
1/2+y,1/2+x,1/2+z
loop_
_atom_site_type_symbol
_atom_site_label
_atom_site_fract_x
_atom_site_fract_y
_atom_site_fract_z
Si Si1 0.645252 0.391169 0.394372
Si Si2 0.250000 0.750000 0.250000
Si Si3 0.439469 0.287476 0.148372
Si Si4 0.416498 0.945853 0.064406
Si Si5 0.938146 0.775899 0.644788
O O1 0.712584 0.336497 0.318476
O O2 0.531957 0.356897 0.363095
O O3 0.688258 0.507532 0.394294
O O4 0.637778 0.364383 0.498706
O O5 0.522877 0.380141 0.137668
O O6 0.421588 0.259577 0.250708
O O7 0.664666 0.837401 0.109728
O O8 0.327761 0.020324 0.099858
O O9 0.000000 0.000000 0.500000
#
# Coordination Sequence:
#
# PCOD9568016 Si02
#       5
#    16   4  16  16  16
#     4  12  23  44  76 109 154 201 274 352 414 503
#     4  12  24  44  74 116 146 200 284 344 434 492
#     4  11  24  45  74 115 160 213 270 342 429 509
#     4  12  26  46  76 115 159 216 283 356 430 512
#     4  11  24  46  76 110 167 213 267 350 433 517
#
# _framework density 26.731593
#
# number of rings (size 3 to 8) (size 9 to 14) (size 15 to 20)
#    0.000    0.471    4.706    4.235    0.000    1.882 
#    0.000    1.176    0.000    5.647    0.000    0.000 
#    0.000    0.000    0.000    0.000    0.000    0.000 
#
# Total GULP energy -380164.599765 kJ/mol
# GULP energy per Si atom -5590.655879 kJ/mol
# Density = 2.667075 g / cm^3
# Si number density = 26.731593 Si / 1000 Ang^3
#
#
#
# Elastic Constant Matrix: (Units=GPa)
#
#
# Indices 1 2 3 4 5 6 
#
# 1 137.9442 149.8985 50.8200 0.0000 0.0000 0.0000
# 2 149.8985 137.9442 50.8200 0.0000 0.0000 0.0000
# 3 50.8200 50.8200 122.2920 0.0000 0.0000 0.0000
# 4 0.0000 0.0000 0.0000 29.5794 0.0000 0.0000
# 5 0.0000 0.0000 0.0000 0.0000 29.5794 0.0000
# 6 0.0000 0.0000 0.0000 0.0000 0.0000 78.4890
#
#
#
# Elastic Compliance Matrix: (Units=1/GPa)
#
#
# Indices 1 2 3 4 5 6 
#
# 1 -0.039790 0.043862 -0.001692 0.000000 0.000000 0.000000
# 2 0.043862 -0.039790 -0.001692 0.000000 0.000000 0.000000
# 3 -0.001692 -0.001692 0.009583 0.000000 0.000000 0.000000
# 4 0.000000 0.000000 0.000000 0.033807 0.000000 0.000000
# 5 0.000000 0.000000 0.000000 0.000000 0.033807 0.000000
# 6 0.000000 0.000000 0.000000 0.000000 0.000000 0.012741
#
#
# Mechanical properties :
#
#
# Convention : Reuss Voigt Hill
#
# Bulk Modulus (GPa) = 91.25265 100.13970 95.69618
# Shear Modulus (GPa) = -74.68994 37.30568 -18.69213
#
# Velocity S-wave (km/s) = -5.29163 3.73978 -2.64721
# Velocity P-wave (km/s) = 1.76760 7.49603 5.15102
#
# Compressibility (1/GPa) = 0.01095859
#
# Stress axis : x y z
#
# Youngs Moduli (GPa) = -25.13198 -25.13198 104.34696
#
# Poissons Ratio (x) = 1.10233 0.17655
# Poissons Ratio (y) = 1.10233 0.17655
# Poissons Ratio (z) = -0.04252 -0.04252
#
# Static dielectric constant tensor:
#      x y z
#    x 2.180840 0.000000 0.000000 
#    y 0.000000 2.180840 0.000000 
#    z 0.000000 0.000000 2.079780 
# 
# From -- ./inp_files/4234.got.cif
#   From: 2010.05.17/outbox.cif.g08.bks.cpg/sg133_3_cif.got.tgz:4234.got - 2010.05.20 12:37:36.
