data_PCOD9568968
_publ_section_title
;
Structure prediction by ZEFSAII (Michael W. Deem and Ramdas Pophale) SiO2 
 PCOD9568968
Probable space group: P 42/M B C
;
_chemical_formula_sum "Si O2"
_cell_formula_units_Z 116
_cell_length_a 18.681784
_cell_length_b 18.681784
_cell_length_c 15.550694
_cell_angle_alpha 90.000000
_cell_angle_beta 90.000000
_cell_angle_gamma 90.000000
_cell_volume 5427.332993
_symmetry_space_group_name_H-M "P 42/M B C"
_symmetry_group_IT_number 135
_symmetry_cell_setting 'tetragonal'
loop_
_space_group_symop_operation_xyz
x,y,z
-y,x,1/2+z
-x,-y,z
y,-x,1/2+z
1/2+x,1/2-y,-z
1/2-x,1/2+y,-z
1/2+y,1/2+x,1/2-z
1/2-y,1/2-x,1/2-z
-x,-y,-z
y,-x,1/2-z
x,y,-z
-y,x,1/2-z
1/2-x,1/2+y,z
1/2+x,1/2-y,z
1/2-y,1/2-x,1/2+z
1/2+y,1/2+x,1/2+z
loop_
_atom_site_type_symbol
_atom_site_label
_atom_site_fract_x
_atom_site_fract_y
_atom_site_fract_z
Si Si1 0.500000 0.500000 0.500000
Si Si2 0.736616 0.319334 0.825806
Si Si3 0.532347 0.217473 0.598910
Si Si4 0.974574 0.882609 0.643452
Si Si5 0.062525 0.837715 0.791371
Si Si6 0.654144 0.179796 0.148904
Si Si7 0.509845 0.798997 0.103383
Si Si8 0.866034 0.403491 0.100338
O O1 0.508767 0.563000 0.424300
O O2 0.781126 0.281126 0.750000
O O3 0.689149 0.378998 0.777887
O O4 0.688478 0.257632 0.868249
O O5 0.795051 0.355121 0.887536
O O6 0.512359 0.216999 0.500000
O O7 0.517812 0.297865 0.627460
O O8 0.614604 0.196572 0.606834
O O9 0.479461 0.158269 0.640572
O O10 0.890349 0.899506 0.641903
O O11 0.005174 0.885299 0.739932
O O12 0.027872 0.771878 0.842001
O O13 0.663996 0.163996 0.250000
O O14 0.571784 0.179560 0.121312
O O15 0.565987 0.859729 0.134451
O O16 0.519011 0.786991 0.000000
O O17 0.883975 0.413132 0.000000
#
# Coordination Sequence:
#
# PCOD9568968 Si02
#       8
#     4  16  16  16  16  16  16  16
#     4  12  28  46  68 100 142 186 248 290 358 434
#     4  11  21  41  67  97 136 181 234 293 357 427
#     4  11  23  44  70  98 137 184 232 287 359 433
#     4  12  25  45  68 102 139 188 237 290 355 430
#     4  12  24  44  70  98 142 185 234 301 363 425
#     4  11  25  43  67 104 137 185 242 296 357 432
#     4  11  25  45  69 107 144 186 242 303 366 427
#     4  10  23  42  68 100 138 183 233 293 359 430
#
# _framework density 21.373296
#
# number of rings (size 3 to 8) (size 9 to 14) (size 15 to 20)
#    0.000    0.828    3.448    4.552    0.966    1.655 
#    0.000    2.759    0.000    0.000    0.000    0.000 
#    0.000    0.000    0.000    0.000    0.000    0.000 
#
# Total GULP energy -646708.359754 kJ/mol
# GULP energy per Si atom -5575.072067 kJ/mol
# Density = 2.132465 g / cm^3
# Si number density = 21.373296 Si / 1000 Ang^3
#
#
#
# Elastic Constant Matrix: (Units=GPa)
#
#
# Indices 1 2 3 4 5 6 
#
# 1 93.8409 29.7758 15.1761 0.0000 0.0000 0.0000
# 2 29.7758 93.8409 15.1761 0.0000 0.0000 0.0000
# 3 15.1761 15.1761 31.7584 0.0000 0.0000 0.0000
# 4 0.0000 0.0000 0.0000 32.2783 0.0000 0.0000
# 5 0.0000 0.0000 0.0000 0.0000 32.2783 0.0000
# 6 0.0000 0.0000 0.0000 0.0000 0.0000 25.8498
#
#
#
# Elastic Compliance Matrix: (Units=1/GPa)
#
#
# Indices 1 2 3 4 5 6 
#
# 1 0.012387 -0.003222 -0.004380 0.000000 0.000000 0.000000
# 2 -0.003222 0.012387 -0.004380 0.000000 0.000000 0.000000
# 3 -0.004380 -0.004380 0.035673 0.000000 0.000000 0.000000
# 4 0.000000 0.000000 0.000000 0.030981 0.000000 0.000000
# 5 0.000000 0.000000 0.000000 0.000000 0.030981 0.000000
# 6 0.000000 0.000000 0.000000 0.000000 0.000000 0.038685
#
#
# Mechanical properties :
#
#
# Convention : Reuss Voigt Hill
#
# Bulk Modulus (GPa) = 27.40854 37.74401 32.57627
# Shear Modulus (GPa) = 25.35271 28.70209 27.02740
#
# Velocity S-wave (km/s) = 3.44784 3.66853 3.55990
# Velocity P-wave (km/s) = 5.35740 5.97008 5.67202
#
# Compressibility (1/GPa) = 0.03648498
#
# Stress axis : x y z
#
# Youngs Moduli (GPa) = 80.72982 80.72982 28.03210
#
# Poissons Ratio (x) = 0.26012 0.12277
# Poissons Ratio (y) = 0.26012 0.12277
# Poissons Ratio (z) = 0.35356 0.35356
#
# Static dielectric constant tensor:
#      x y z
#    x 1.812390 0.000000 0.000000 
#    y 0.000000 1.812390 0.000000 
#    z 0.000000 0.000000 -11.832840 
# 
# From -- ./inp_files/4617.got.cif
#   From: 2010.05.17/outbox.cif.g08.bks.cpg/sg135_3_cif.got.tgz:4617.got - 2010.05.20 12:50:20.
