data_PCOD9568862
_publ_section_title
;
Structure prediction by ZEFSAII (Michael W. Deem and Ramdas Pophale) SiO2 
 PCOD9568862
Probable space group: P 42/M B C
;
_chemical_formula_sum "Si O2"
_cell_formula_units_Z 96
_cell_length_a 14.384928
_cell_length_b 14.384928
_cell_length_c 19.868906
_cell_angle_alpha 90.000000
_cell_angle_beta 90.000000
_cell_angle_gamma 90.000000
_cell_volume 4111.396294
_symmetry_space_group_name_H-M "P 42/M B C"
_symmetry_group_IT_number 135
_symmetry_cell_setting 'tetragonal'
loop_
_space_group_symop_operation_xyz
x,y,z
-y,x,1/2+z
-x,-y,z
y,-x,1/2+z
1/2+x,1/2-y,-z
1/2-x,1/2+y,-z
1/2+y,1/2+x,1/2-z
1/2-y,1/2-x,1/2-z
-x,-y,-z
y,-x,1/2-z
x,y,-z
-y,x,1/2-z
1/2-x,1/2+y,z
1/2+x,1/2-y,z
1/2-y,1/2-x,1/2+z
1/2+y,1/2+x,1/2+z
loop_
_atom_site_type_symbol
_atom_site_label
_atom_site_fract_x
_atom_site_fract_y
_atom_site_fract_z
Si Si1 0.308446 0.302753 0.205948
Si Si2 0.443369 0.409133 0.861409
Si Si3 0.745571 0.504230 0.922334
Si Si4 0.481605 0.776087 0.922683
Si Si5 0.197676 0.696006 0.573338
Si Si6 0.130030 0.402054 0.182282
O O1 0.287444 0.212557 0.250000
O O2 0.407608 0.350005 0.203010
O O3 0.284213 0.269094 0.131311
O O4 0.229752 0.378258 0.218858
O O5 0.500000 0.500000 0.844285
O O6 0.350177 0.447923 0.898493
O O7 0.498341 0.332815 0.905720
O O8 0.740846 0.392546 0.919695
O O9 0.832434 0.527183 0.873917
O O10 0.764556 0.529099 0.000000
O O11 0.585297 0.822000 0.921088
O O12 0.420912 0.824567 0.864402
O O13 0.446760 0.785005 0.000000
O O14 0.239369 0.710564 0.500000
O O15 0.073175 0.426826 0.250000
#
# Coordination Sequence:
#
# PCOD9568862 Si02
#       6
#    16  16  16  16  16  16
#     4   9  20  40  64  84 128 177 215 257 319 405
#     4  10  22  39  63 101 133 161 211 278 334 388
#     4  10  21  38  61  90 128 168 211 268 332 400
#     4  10  21  38  63  94 126 165 214 271 332 395
#     4   9  20  37  61  92 124 163 212 265 326 393
#     4  10  22  39  60  84 124 167 220 267 326 396
#
# _framework density 23.349730000000001
#
# number of rings (size 3 to 8) (size 9 to 14) (size 15 to 20)
#    0.000    2.333    0.000    1.000    2.333    9.333 
#    0.000    3.333   14.667    0.000    0.000    0.000 
#    0.000    0.000    0.000    0.000    0.000    0.000 
#
# Total GULP energy -534862.637605 kJ/mol
# GULP energy per Si atom -5571.485808 kJ/mol
# Density = 2.329659 g / cm^3
# Si number density = 23.349730 Si / 1000 Ang^3
#
#
#
# Elastic Constant Matrix: (Units=GPa)
#
#
# Indices 1 2 3 4 5 6 
#
# 1 71.6475 41.6171 43.9977 0.0000 0.0000 0.0000
# 2 41.6171 71.6479 43.9963 0.0000 0.0000 0.0000
# 3 43.9977 43.9963 113.1923 0.0000 0.0000 0.0000
# 4 0.0000 0.0000 0.0000 49.1054 0.0000 0.0000
# 5 0.0000 0.0000 0.0000 0.0000 49.5038 0.0000
# 6 0.0000 0.0000 0.0000 0.0000 0.0000 52.7161
#
#
#
# Elastic Compliance Matrix: (Units=1/GPa)
#
#
# Indices 1 2 3 4 5 6 
#
# 1 0.022974 -0.010326 -0.004917 0.000000 0.000000 0.000000
# 2 -0.010326 0.022973 -0.004916 0.000000 0.000000 0.000000
# 3 -0.004917 -0.004916 0.012656 0.000000 0.000000 0.000000
# 4 0.000000 0.000000 0.000000 0.020364 0.000000 0.000000
# 5 0.000000 0.000000 0.000000 0.000000 0.020200 0.000000
# 6 0.000000 0.000000 0.000000 0.000000 0.000000 0.018970
#
#
# Mechanical properties :
#
#
# Convention : Reuss Voigt Hill
#
# Bulk Modulus (GPa) = 54.68136 57.30108 55.99122
# Shear Modulus (GPa) = 30.38580 38.72351 34.55466
#
# Velocity S-wave (km/s) = 3.61131 4.07678 3.85109
# Velocity P-wave (km/s) = 6.39203 6.83768 6.61861
#
# Compressibility (1/GPa) = 0.01828777
#
# Stress axis : x y z
#
# Youngs Moduli (GPa) = 43.52717 43.52841 79.01161
#
# Poissons Ratio (x) = 0.44946 0.38847
# Poissons Ratio (y) = 0.44944 0.38842
# Poissons Ratio (z) = 0.21401 0.21398
#
# Static dielectric constant tensor:
#      x y z
#    x 1.964870 0.000000 0.000000 
#    y 0.000000 1.964870 0.000000 
#    z 0.000000 0.000000 1.816440 
# 
# From -- ./inp_files/5435.got.cif
#   From: 2010.05.17/outbox.cif.g08.bks.cpg/sg135_3_cif.got.tgz:5435.got - 2010.05.20 12:50:20.
