data_PCOD9568159
_publ_section_title
;
Structure prediction by ZEFSAII (Michael W. Deem and Ramdas Pophale) SiO2 
 PCOD9568159
Probable space group: P 42/N N M
;
_chemical_formula_sum "Si O2"
_cell_formula_units_Z 88
_cell_length_a 10.663153
_cell_length_b 10.663153
_cell_length_c 34.209042
_cell_angle_alpha 90.000000
_cell_angle_beta 90.000000
_cell_angle_gamma 90.000000
_cell_volume 3889.664952
_symmetry_space_group_name_H-M "P 42/N N M"
_symmetry_group_IT_number 134
_space_group.IT_coordinate_system_code '2'
_symmetry_cell_setting 'tetragonal'
loop_
_space_group_symop_operation_xyz
x,y,z
1/2-y,x,1/2+z
1/2-x,1/2-y,z
y,1/2-x,1/2+z
x,1/2-y,1/2-z
1/2-x,y,1/2-z
y,x,-z
1/2-y,1/2-x,-z
-x,-y,-z
1/2+y,-x,1/2-z
1/2+x,1/2+y,-z
-y,1/2+x,1/2-z
-x,1/2+y,1/2+z
1/2+x,-y,1/2+z
-y,-x,z
1/2+y,1/2+x,z
loop_
_atom_site_type_symbol
_atom_site_label
_atom_site_fract_x
_atom_site_fract_y
_atom_site_fract_z
Si Si1 0.699126 0.994249 0.568255
Si Si2 0.961058 0.250000 0.250000
Si Si3 0.792822 0.001361 0.096492
Si Si4 0.951700 0.249552 0.848770
Si Si5 0.142711 0.072222 0.673768
Si Si6 0.250025 0.545656 0.987502
O O1 0.602190 0.895097 0.585366
O O2 0.623862 0.123862 0.561430
O O3 0.783229 0.021078 0.605711
O O4 0.744198 0.956145 0.525120
O O5 0.868709 0.131292 0.243434
O O6 0.043537 0.276483 0.211908
O O7 0.866532 0.133469 0.103098
O O8 0.714483 0.005187 0.056145
O O9 0.719373 0.958426 0.134523
O O10 0.890065 0.109936 0.846678
O O11 0.842487 0.342487 0.834836
O O12 0.078573 0.290264 0.827279
O O13 0.029244 0.970757 0.674304
O O14 0.386278 0.613723 0.981783
O O15 0.150778 0.650778 0.999533
#
# Coordination Sequence:
#
# PCOD9568159 Si02
#       6
#    16   8  16  16  16  16
#     4   9  17  30  49  74 107 148 192 237 284 333
#     4   9  18  34  58  89 126 162 190 224 282 360
#     4  10  19  30  48  78 117 156 192 234 283 338
#     4   9  18  34  56  80 107 145 194 242 284 328
#     4  10  20  34  55  85 118 152 191 233 281 341
#     4   9  16  27  46  73 108 153 199 238 280 332
#
# _framework density 22.624057000000001
#
# number of rings (size 3 to 8) (size 9 to 14) (size 15 to 20)
#    0.000    2.636    0.000    2.182    0.000    6.909 
#    0.000    0.909    0.000    7.636    0.000    5.091 
#    0.000   21.818    0.000    0.545    0.000    0.727 
#
# Total GULP energy -490655.128223 kJ/mol
# GULP energy per Si atom -5575.626457 kJ/mol
# Density = 2.257256 g / cm^3
# Si number density = 22.624057 Si / 1000 Ang^3
#
#
#
# Elastic Constant Matrix: (Units=GPa)
#
#
# Indices 1 2 3 4 5 6 
#
# 1 57.3341 42.8104 57.4628 0.0000 0.0000 0.0000
# 2 42.8104 57.3341 57.4628 0.0000 0.0000 0.0000
# 3 57.4628 57.4628 170.6668 0.0000 0.0000 0.0000
# 4 0.0000 0.0000 0.0000 14.7504 0.0000 0.0000
# 5 0.0000 0.0000 0.0000 0.0000 14.7504 0.0000
# 6 0.0000 0.0000 0.0000 0.0000 0.0000 26.2500
#
#
#
# Elastic Compliance Matrix: (Units=1/GPa)
#
#
# Indices 1 2 3 4 5 6 
#
# 1 0.042563 -0.026290 -0.005479 0.000000 0.000000 0.000000
# 2 -0.026290 0.042563 -0.005479 0.000000 0.000000 0.000000
# 3 -0.005479 -0.005479 0.009549 0.000000 0.000000 0.000000
# 4 0.000000 0.000000 0.000000 0.067795 0.000000 0.000000
# 5 0.000000 0.000000 0.000000 0.000000 0.067795 0.000000
# 6 0.000000 0.000000 0.000000 0.000000 0.000000 0.038095
#
#
# Mechanical properties :
#
#
# Convention : Reuss Voigt Hill
#
# Bulk Modulus (GPa) = 49.55610 66.75636 58.15623
# Shear Modulus (GPa) = 14.30276 19.65677 16.97977
#
# Velocity S-wave (km/s) = 2.51707 2.95081 2.74253
# Velocity P-wave (km/s) = 5.51355 6.41721 5.98247
#
# Compressibility (1/GPa) = 0.02017915
#
# Stress axis : x y z
#
# Youngs Moduli (GPa) = 23.49445 23.49445 104.72270
#
# Poissons Ratio (x) = 0.61766 0.57380
# Poissons Ratio (y) = 0.61766 0.57380
# Poissons Ratio (z) = 0.12873 0.12873
#
# Static dielectric constant tensor:
#      x y z
#    x 1.898750 0.000000 0.000000 
#    y 0.000000 1.898750 0.000000 
#    z 0.000000 0.000000 1.857320 
# 
# From -- ./inp_files/11450.got.cif
#   From: 2010.05.17/outbox.cif.g08.bks.cpg/sg134_6_cif.got.tgz:11450.got - 2010.05.20 12:42:49.
