data_PCOD9568334
_publ_section_title
;
Structure prediction by ZEFSAII (Michael W. Deem and Ramdas Pophale) SiO2 
 PCOD9568334
Probable space group: P 42/N N M
;
_chemical_formula_sum "Si O2"
_cell_formula_units_Z 40
_cell_length_a 10.441571
_cell_length_b 10.441571
_cell_length_c 17.412743
_cell_angle_alpha 90.000000
_cell_angle_beta 90.000000
_cell_angle_gamma 90.000000
_cell_volume 1898.448770
_symmetry_space_group_name_H-M "P 42/N N M"
_symmetry_group_IT_number 134
_space_group.IT_coordinate_system_code '2'
_symmetry_cell_setting 'tetragonal'
loop_
_space_group_symop_operation_xyz
x,y,z
1/2-y,x,1/2+z
1/2-x,1/2-y,z
y,1/2-x,1/2+z
x,1/2-y,1/2-z
1/2-x,y,1/2-z
y,x,-z
1/2-y,1/2-x,-z
-x,-y,-z
1/2+y,-x,1/2-z
1/2+x,1/2+y,-z
-y,1/2+x,1/2-z
-x,1/2+y,1/2+z
1/2+x,-y,1/2+z
-y,-x,z
1/2+y,1/2+x,z
loop_
_atom_site_type_symbol
_atom_site_label
_atom_site_fract_x
_atom_site_fract_y
_atom_site_fract_z
Si Si1 0.169742 0.130152 0.621693
Si Si2 0.751190 0.039492 0.982191
Si Si3 0.250000 0.945485 0.750000
O O1 0.250000 0.250000 0.649373
O O2 0.037308 0.187982 0.589181
O O3 0.246479 0.062897 0.551184
O O4 0.171761 0.029567 0.689954
O O5 0.885162 0.114839 0.969467
O O6 0.647943 0.147943 0.004171
O O7 0.351833 0.851833 0.708706
#
# Coordination Sequence:
#
# PCOD9568334 Si02
#       3
#    16  16   8
#     4  11  22  36  56  86 120 153 193 243 297 358
#     4  10  20  36  60  87 116 152 195 244 295 350
#     4  11  23  40  62  84 113 157 204 252 304 357
#
# _framework density 21.069835999999999
#
# number of rings (size 3 to 8) (size 9 to 14) (size 15 to 20)
#    0.000    1.400    0.000    9.000    0.000    8.000 
#    0.000    0.000    0.000    0.000    0.000    5.600 
#    0.000    0.000    0.000    0.000    0.000    0.000 
#
# Total GULP energy -223175.950039 kJ/mol
# GULP energy per Si atom -5579.398751 kJ/mol
# Density = 2.102188 g / cm^3
# Si number density = 21.069836 Si / 1000 Ang^3
#
#
#
# Elastic Constant Matrix: (Units=GPa)
#
#
# Indices 1 2 3 4 5 6 
#
# 1 122.0944 61.5371 32.7807 0.0000 0.0000 0.0000
# 2 61.5371 122.0944 32.7807 0.0000 0.0000 0.0000
# 3 32.7807 32.7807 66.1375 0.0000 0.0000 0.0000
# 4 0.0000 0.0000 0.0000 4.3785 0.0000 0.0000
# 5 0.0000 0.0000 0.0000 0.0000 4.3785 0.0000
# 6 0.0000 0.0000 0.0000 0.0000 0.0000 57.7033
#
#
#
# Elastic Compliance Matrix: (Units=1/GPa)
#
#
# Indices 1 2 3 4 5 6 
#
# 1 0.011565 -0.004948 -0.003279 0.000000 0.000000 0.000000
# 2 -0.004948 0.011565 -0.003279 0.000000 0.000000 0.000000
# 3 -0.003279 -0.003279 0.018371 0.000000 0.000000 0.000000
# 4 0.000000 0.000000 0.000000 0.228389 0.000000 0.000000
# 5 0.000000 0.000000 0.000000 0.000000 0.228389 0.000000
# 6 0.000000 0.000000 0.000000 0.000000 0.000000 0.017330
#
#
# Mechanical properties :
#
#
# Convention : Reuss Voigt Hill
#
# Bulk Modulus (GPa) = 54.09450 62.72481 58.40966
# Shear Modulus (GPa) = 9.17793 25.50725 17.34259
#
# Velocity S-wave (km/s) = 2.08936 3.48315 2.87209
# Velocity P-wave (km/s) = 5.61696 6.78314 6.22741
#
# Compressibility (1/GPa) = 0.01848617
#
# Stress axis : x y z
#
# Youngs Moduli (GPa) = 86.46843 86.46843 54.43390
#
# Poissons Ratio (x) = 0.42788 0.17851
# Poissons Ratio (y) = 0.42788 0.17851
# Poissons Ratio (z) = 0.28357 0.28357
#
# Static dielectric constant tensor:
#      x y z
#    x 1.780270 0.000000 0.000000 
#    y 0.000000 1.780270 0.000000 
#    z 0.000000 0.000000 1.744050 
# 
# From -- ./inp_files/7065.got.cif
#   From: 2010.05.17/outbox.cif.g08.bks.cpg/sg134_4_cif.got.tgz:7065.got - 2010.05.20 12:42:49.
