data_PCOD9568348
_publ_section_title
;
Structure prediction by ZEFSAII (Michael W. Deem and Ramdas Pophale) SiO2 
 PCOD9568348
Probable space group: P 42/N N M
;
_chemical_formula_sum "Si O2"
_cell_formula_units_Z 72
_cell_length_a 18.084051
_cell_length_b 18.084051
_cell_length_c 12.808660
_cell_angle_alpha 90.000000
_cell_angle_beta 90.000000
_cell_angle_gamma 90.000000
_cell_volume 4188.853232
_symmetry_space_group_name_H-M "P 42/N N M"
_symmetry_group_IT_number 134
_space_group.IT_coordinate_system_code '2'
_symmetry_cell_setting 'tetragonal'
loop_
_space_group_symop_operation_xyz
x,y,z
1/2-y,x,1/2+z
1/2-x,1/2-y,z
y,1/2-x,1/2+z
x,1/2-y,1/2-z
1/2-x,y,1/2-z
y,x,-z
1/2-y,1/2-x,-z
-x,-y,-z
1/2+y,-x,1/2-z
1/2+x,1/2+y,-z
-y,1/2+x,1/2-z
-x,1/2+y,1/2+z
1/2+x,-y,1/2+z
-y,-x,z
1/2+y,1/2+x,z
loop_
_atom_site_type_symbol
_atom_site_label
_atom_site_fract_x
_atom_site_fract_y
_atom_site_fract_z
Si Si1 0.411600 0.411600 0.000000
Si Si2 0.322175 0.943415 0.182534
Si Si3 0.946397 0.941958 0.225394
Si Si4 0.184632 0.357915 0.830699
Si Si5 0.259907 0.075452 0.048869
O O1 0.430910 0.455390 0.895974
O O2 0.424318 0.327644 0.963138
O O3 0.250000 0.922256 0.250000
O O4 0.373045 0.873045 0.151814
O O5 0.375403 0.995400 0.253558
O O6 0.294198 0.997944 0.089503
O O7 0.871529 0.914895 0.277130
O O8 0.985720 0.014281 0.272226
O O9 0.250000 0.341631 0.750000
O O10 0.137289 0.287059 0.868076
O O11 0.211901 0.397062 0.936553
#
# Coordination Sequence:
#
# PCOD9568348 Si02
#       5
#     8  16  16  16  16
#     4  12  19  35  54  78 114 142 186 224 272 338
#     4  10  20  37  57  79 110 144 186 235 280 328
#     4  10  21  35  55  78 106 144 183 227 272 326
#     4  10  20  37  53  79 114 145 182 220 273 337
#     4  10  22  35  53  85 111 147 181 224 279 335
#
# _framework density 17.188475
#
# number of rings (size 3 to 8) (size 9 to 14) (size 15 to 20)
#    0.000    1.778    4.444    0.333    0.000    2.889 
#    4.000    4.444    0.000    0.000    0.000    0.000 
#    0.000    0.444    0.000    0.000    0.000    0.000 
#
# Total GULP energy -401517.737210 kJ/mol
# GULP energy per Si atom -5576.635239 kJ/mol
# Density = 1.714935 g / cm^3
# Si number density = 17.188475 Si / 1000 Ang^3
#
#
#
# Elastic Constant Matrix: (Units=GPa)
#
#
# Indices 1 2 3 4 5 6 
#
# 1 97.6891 55.8090 36.2736 0.0000 0.0000 0.0000
# 2 55.8090 97.6891 36.2736 0.0000 0.0000 0.0000
# 3 36.2736 36.2736 94.3055 0.0000 0.0000 0.0000
# 4 0.0000 0.0000 0.0000 -431.2250 0.0000 0.0000
# 5 0.0000 0.0000 0.0000 0.0000 -431.2250 0.0000
# 6 0.0000 0.0000 0.0000 0.0000 0.0000 17.8151
#
#
#
# Elastic Compliance Matrix: (Units=1/GPa)
#
#
# Indices 1 2 3 4 5 6 
#
# 1 0.015920 -0.007958 -0.003063 0.000000 0.000000 0.000000
# 2 -0.007958 0.015920 -0.003063 0.000000 0.000000 0.000000
# 3 -0.003063 -0.003063 0.012960 0.000000 0.000000 0.000000
# 4 0.000000 0.000000 0.000000 -0.002319 0.000000 0.000000
# 5 0.000000 0.000000 0.000000 0.000000 -0.002319 0.000000
# 6 0.000000 0.000000 0.000000 0.000000 0.000000 0.056132
#
#
# Mechanical properties :
#
#
# Convention : Reuss Voigt Hill
#
# Bulk Modulus (GPa) = 60.11817 60.71067 60.41442
# Shear Modulus (GPa) = 38.46023 -158.17180 -59.85579
#
# Velocity S-wave (km/s) = 4.73542 -9.60322 -5.90752
# Velocity P-wave (km/s) = 8.05920 9.35762 3.36262
#
# Compressibility (1/GPa) = 0.01663391
#
# Stress axis : x y z
#
# Youngs Moduli (GPa) = 62.81426 62.81426 77.16166
#
# Poissons Ratio (x) = 0.49986 0.23631
# Poissons Ratio (y) = 0.49986 0.23631
# Poissons Ratio (z) = 0.19237 0.19237
#
# Static dielectric constant tensor:
#      x y z
#    x 1.597590 0.000000 0.000000 
#    y 0.000000 1.597590 0.000000 
#    z 0.000000 0.000000 1.612810 
# 
# From -- ./inp_files/4703.got.cif
#   From: 2010.05.17/outbox.cif.g08.bks.cpg/sg134_3_cif.got.tgz:4703.got - 2010.05.20 12:42:49.
