data_PCOD9568178
_publ_section_title
;
Structure prediction by ZEFSAII (Michael W. Deem and Ramdas Pophale) SiO2 
 PCOD9568178
Probable space group: P 42/N N M
;
_chemical_formula_sum "Si O2"
_cell_formula_units_Z 80
_cell_length_a 23.747089
_cell_length_b 23.747089
_cell_length_c 8.276886
_cell_angle_alpha 90.000000
_cell_angle_beta 90.000000
_cell_angle_gamma 90.000000
_cell_volume 4667.536614
_symmetry_space_group_name_H-M "P 42/N N M"
_symmetry_group_IT_number 134
_space_group.IT_coordinate_system_code '2'
_symmetry_cell_setting 'tetragonal'
loop_
_space_group_symop_operation_xyz
x,y,z
1/2-y,x,1/2+z
1/2-x,1/2-y,z
y,1/2-x,1/2+z
x,1/2-y,1/2-z
1/2-x,y,1/2-z
y,x,-z
1/2-y,1/2-x,-z
-x,-y,-z
1/2+y,-x,1/2-z
1/2+x,1/2+y,-z
-y,1/2+x,1/2-z
-x,1/2+y,1/2+z
1/2+x,-y,1/2+z
-y,-x,z
1/2+y,1/2+x,z
loop_
_atom_site_type_symbol
_atom_site_label
_atom_site_fract_x
_atom_site_fract_y
_atom_site_fract_z
Si Si1 0.044752 0.288101 0.589541
Si Si2 0.449271 0.641069 0.602052
Si Si3 0.113140 0.386861 0.500000
Si Si4 0.250000 0.999674 0.750000
Si Si5 0.941364 0.529321 0.267056
Si Si6 0.375303 0.964706 0.260153
O O1 0.047967 0.250000 0.750000
O O2 0.100291 0.327393 0.579729
O O3 0.035273 0.258927 0.415723
O O4 0.991843 0.329987 0.621621
O O5 0.391765 0.608236 0.642113
O O6 0.462535 0.695014 0.709653
O O7 0.498921 0.595067 0.631047
O O8 0.450031 0.653214 0.410991
O O9 0.103148 0.438631 0.622332
O O10 0.978228 0.478228 0.342790
O O11 0.986774 0.577538 0.227927
O O12 0.410659 0.910659 0.318620
#
# Coordination Sequence:
#
# PCOD9568178 Si02
#       6
#    16  16   8   8  16  16
#     4  11  22  37  54  80 114 145 184 231 269 329
#     4  10  19  32  51  78 112 145 181 221 264 319
#     4  10  19  32  52  78 109 146 180 216 282 319
#     4  12  22  36  54  81 113 144 188 222 272 314
#     4   9  16  27  47  78 113 143 171 205 262 341
#     4   9  18  32  53  79 112 147 175 213 272 336
#
# _framework density 17.139662000000001
#
# number of rings (size 3 to 8) (size 9 to 14) (size 15 to 20)
#    0.000    2.000    4.000    0.900    0.000    4.000 
#    0.000    1.000    0.000    0.300    0.000    2.100 
#    0.000    0.400    0.000    0.000    0.000    0.000 
#
# Total GULP energy -445354.912309 kJ/mol
# GULP energy per Si atom -5566.936404 kJ/mol
# Density = 1.710065 g / cm^3
# Si number density = 17.139662 Si / 1000 Ang^3
#
#
#
# Elastic Constant Matrix: (Units=GPa)
#
#
# Indices 1 2 3 4 5 6 
#
# 1 66.4945 22.8582 35.6916 0.0000 0.0000 0.0000
# 2 22.8582 66.4944 35.6932 0.0000 0.0000 0.0000
# 3 35.6916 35.6932 101.6989 0.0000 0.0000 0.0000
# 4 0.0000 0.0000 0.0000 83.4004 0.0000 0.0000
# 5 0.0000 0.0000 0.0000 0.0000 83.3842 0.0000
# 6 0.0000 0.0000 0.0000 0.0000 0.0000 14.4003
#
#
#
# Elastic Compliance Matrix: (Units=1/GPa)
#
#
# Indices 1 2 3 4 5 6 
#
# 1 0.019234 -0.003682 -0.005458 0.000000 0.000000 0.000000
# 2 -0.003682 0.019235 -0.005458 0.000000 0.000000 0.000000
# 3 -0.005458 -0.005458 0.013664 0.000000 0.000000 0.000000
# 4 0.000000 0.000000 0.000000 0.011990 0.000000 0.000000
# 5 0.000000 0.000000 0.000000 0.000000 0.011993 0.000000
# 6 0.000000 0.000000 0.000000 0.000000 0.000000 0.069443
#
#
# Mechanical properties :
#
#
# Convention : Reuss Voigt Hill
#
# Bulk Modulus (GPa) = 43.60005 47.01932 45.30968
# Shear Modulus (GPa) = 27.41200 45.59997 36.50598
#
# Velocity S-wave (km/s) = 4.00350 5.16359 4.62010
# Velocity P-wave (km/s) = 6.84573 7.93995 7.41306
#
# Compressibility (1/GPa) = 0.02293575
#
# Stress axis : x y z
#
# Youngs Moduli (GPa) = 51.99050 51.98941 73.18389
#
# Poissons Ratio (x) = 0.19144 0.39944
# Poissons Ratio (y) = 0.19144 0.39947
# Poissons Ratio (z) = 0.28376 0.28378
#
# Static dielectric constant tensor:
#      x y z
#    x 1.595670 0.000000 0.000000 
#    y 0.000000 1.595680 0.000000 
#    z 0.000000 0.000000 1.662770 
# 
# From -- ./inp_files/3133.got.cif
#   From: 2010.05.17/outbox.cif.g08.bks.cpg/sg134_2_cif.got.tgz:3133.got - 2010.05.20 12:42:49.
