data_PCOD9568861
_publ_section_title
;
Structure prediction by ZEFSAII (Michael W. Deem and Ramdas Pophale) SiO2 
 PCOD9568861
Probable space group: P 42/M B C
;
_chemical_formula_sum "Si O2"
_cell_formula_units_Z 72
_cell_length_a 19.194762
_cell_length_b 19.194762
_cell_length_c 7.538631
_cell_angle_alpha 90.000000
_cell_angle_beta 90.000000
_cell_angle_gamma 90.000000
_cell_volume 2777.524824
_symmetry_space_group_name_H-M "P 42/M B C"
_symmetry_group_IT_number 135
_symmetry_cell_setting 'tetragonal'
loop_
_space_group_symop_operation_xyz
x,y,z
-y,x,1/2+z
-x,-y,z
y,-x,1/2+z
1/2+x,1/2-y,-z
1/2-x,1/2+y,-z
1/2+y,1/2+x,1/2-z
1/2-y,1/2-x,1/2-z
-x,-y,-z
y,-x,1/2-z
x,y,-z
-y,x,1/2-z
1/2-x,1/2+y,z
1/2+x,1/2-y,z
1/2-y,1/2-x,1/2+z
1/2+y,1/2+x,1/2+z
loop_
_atom_site_type_symbol
_atom_site_label
_atom_site_fract_x
_atom_site_fract_y
_atom_site_fract_z
Si Si1 0.717882 0.379141 0.297568
Si Si2 0.406482 0.175575 0.500000
Si Si3 0.392529 0.513070 0.698388
Si Si4 0.019140 0.364313 0.788008
Si Si5 0.366858 0.751644 0.791103
O O1 0.744122 0.386543 0.500000
O O2 0.677610 0.450066 0.242100
O O3 0.659229 0.319187 0.296095
O O4 0.776535 0.367866 0.154204
O O5 0.454561 0.138519 0.343406
O O6 0.451574 0.572878 0.693401
O O7 0.381485 0.486028 0.500000
O O8 0.070553 0.429448 0.750000
O O9 0.063550 0.293852 0.742690
O O10 0.003027 0.363492 0.000000
O O11 0.306042 0.806042 0.750000
O O12 0.370583 0.738778 0.000000
#
# Coordination Sequence:
#
# PCOD9568861 Si02
#       5
#    16   8  16  16  16
#     4  11  25  38  55  85 116 155 199 247 296 348
#     4  12  24  38  58  85 124 149 196 246 301 352
#     4  10  22  35  52  70 102 152 206 246 281 326
#     4  10  21  38  63  91 116 157 201 243 302 364
#     4  10  21  38  61  87 118 157 202 248 304 367
#
# _framework density 25.922359
#
# number of rings (size 3 to 8) (size 9 to 14) (size 15 to 20)
#    0.000    1.556    2.222    2.667    9.333    0.000 
#    0.000    0.000    0.000    0.000    0.000    0.000 
#    0.000    2.667    0.000    0.000    0.000    0.000 
#
# Total GULP energy -401342.897656 kJ/mol
# GULP energy per Si atom -5574.206912 kJ/mol
# Density = 2.586336 g / cm^3
# Si number density = 25.922359 Si / 1000 Ang^3
#
#
#
# Elastic Constant Matrix: (Units=GPa)
#
#
# Indices 1 2 3 4 5 6 
#
# 1 68.5630 70.5742 49.6970 0.0000 0.0000 0.0000
# 2 70.5742 68.5615 49.6969 0.0000 0.0000 0.0000
# 3 49.6970 49.6969 175.8597 0.0000 0.0000 0.0000
# 4 0.0000 0.0000 0.0000 10.5948 0.0000 0.0000
# 5 0.0000 0.0000 0.0000 0.0000 10.5972 0.0000
# 6 0.0000 0.0000 0.0000 0.0000 0.0000 57.3450
#
#
#
# Elastic Compliance Matrix: (Units=1/GPa)
#
#
# Indices 1 2 3 4 5 6 
#
# 1 -0.244010 0.253018 -0.002546 0.000000 0.000000 0.000000
# 2 0.253018 -0.244016 -0.002544 0.000000 0.000000 0.000000
# 3 -0.002546 -0.002544 0.007125 0.000000 0.000000 0.000000
# 4 0.000000 0.000000 0.000000 0.094386 0.000000 0.000000
# 5 0.000000 0.000000 0.000000 0.000000 0.094365 0.000000
# 6 0.000000 0.000000 0.000000 0.000000 0.000000 0.017438
#
#
# Mechanical properties :
#
#
# Convention : Reuss Voigt Hill
#
# Bulk Modulus (GPa) = 66.86429 72.54672 69.70550
# Shear Modulus (GPa) = -6.53095 25.24179 9.35542
#
# Velocity S-wave (km/s) = -1.58899 3.12388 1.90180
# Velocity P-wave (km/s) = 4.74168 6.40768 5.63657
#
# Compressibility (1/GPa) = 0.01495567
#
# Stress axis : x y z
#
# Youngs Moduli (GPa) = -4.09819 -4.09808 140.35798
#
# Poissons Ratio (x) = 1.03689 0.35729
# Poissons Ratio (y) = 1.03692 0.35707
# Poissons Ratio (z) = -0.01043 -0.01043
#
# Static dielectric constant tensor:
#      x y z
#    x 2.076100 0.000000 0.000000 
#    y 0.000000 2.076100 0.000000 
#    z 0.000000 0.000000 1.937740 
# 
# From -- ./inp_files/1047.got.cif
#   From: 2010.05.17/outbox.cif.g08.bks.cpg/sg135_1_cif.got.tgz:1047.got - 2010.05.20 12:50:20.
