data_PCOD9568935
_publ_section_title
;
Structure prediction by ZEFSAII (Michael W. Deem and Ramdas Pophale) SiO2 
 PCOD9568935
Probable space group: P 42/M B C
;
_chemical_formula_sum "Si O2"
_cell_formula_units_Z 56
_cell_length_a 13.689916
_cell_length_b 13.689916
_cell_length_c 13.217797
_cell_angle_alpha 90.000000
_cell_angle_beta 90.000000
_cell_angle_gamma 90.000000
_cell_volume 2477.197565
_symmetry_space_group_name_H-M "P 42/M B C"
_symmetry_group_IT_number 135
_symmetry_cell_setting 'tetragonal'
loop_
_space_group_symop_operation_xyz
x,y,z
-y,x,1/2+z
-x,-y,z
y,-x,1/2+z
1/2+x,1/2-y,-z
1/2-x,1/2+y,-z
1/2+y,1/2+x,1/2-z
1/2-y,1/2-x,1/2-z
-x,-y,-z
y,-x,1/2-z
x,y,-z
-y,x,1/2-z
1/2-x,1/2+y,z
1/2+x,1/2-y,z
1/2-y,1/2-x,1/2+z
1/2+y,1/2+x,1/2+z
loop_
_atom_site_type_symbol
_atom_site_label
_atom_site_fract_x
_atom_site_fract_y
_atom_site_fract_z
Si Si1 0.768636 0.284893 0.000000
Si Si2 0.828852 0.424051 0.669689
Si Si3 0.467617 0.358946 0.708494
Si Si4 0.583280 0.364200 0.500000
Si Si5 0.238636 0.957117 0.500000
O O1 0.830652 0.325256 0.905207
O O2 0.653060 0.300375 0.000000
O O3 0.783096 0.167822 0.000000
O O4 0.916788 0.416788 0.750000
O O5 0.735224 0.420658 0.742771
O O6 0.807752 0.515699 0.596315
O O7 0.390954 0.446287 0.714555
O O8 0.517789 0.353581 0.599629
O O9 0.351562 0.535706 0.500000
#
# Coordination Sequence:
#
# PCOD9568935 Si02
#       5
#     8  16  16   8   8
#     4  10  22  40  67  97 141 191 222 275 361 430
#     4  10  23  41  62 101 139 183 229 280 351 419
#     4  11  22  37  65  98 140 170 226 294 354 409
#     4  10  22  41  62 111 134 186 231 283 371 403
#     4  10  22  40  67  98 138 184 241 279 346 440
#
# _framework density 22.606190999999999
#
# number of rings (size 3 to 8) (size 9 to 14) (size 15 to 20)
#    0.000    2.000    5.714    0.000    4.000    6.857 
#    0.000    0.000    0.000    5.143    0.000    0.000 
#    0.000    0.000    0.000    0.000    0.000    0.000 
#
# Total GULP energy -312705.081060 kJ/mol
# GULP energy per Si atom -5584.019305 kJ/mol
# Density = 2.255474 g / cm^3
# Si number density = 22.606191 Si / 1000 Ang^3
#
#
#
# Elastic Constant Matrix: (Units=GPa)
#
#
# Indices 1 2 3 4 5 6 
#
# 1 58.5701 30.7522 32.5215 0.0000 0.0000 0.0000
# 2 30.7522 58.5701 32.5215 0.0000 0.0000 0.0000
# 3 32.5215 32.5215 165.6642 0.0000 0.0000 0.0000
# 4 0.0000 0.0000 0.0000 23.9775 0.0000 0.0000
# 5 0.0000 0.0000 0.0000 0.0000 23.9775 0.0000
# 6 0.0000 0.0000 0.0000 0.0000 0.0000 12.3365
#
#
#
# Elastic Compliance Matrix: (Units=1/GPa)
#
#
# Indices 1 2 3 4 5 6 
#
# 1 0.024505 -0.011443 -0.002564 0.000000 0.000000 0.000000
# 2 -0.011443 0.024505 -0.002564 0.000000 0.000000 0.000000
# 3 -0.002564 -0.002564 0.007043 0.000000 0.000000 0.000000
# 4 0.000000 0.000000 0.000000 0.041706 0.000000 0.000000
# 5 0.000000 0.000000 0.000000 0.000000 0.041706 0.000000
# 6 0.000000 0.000000 0.000000 0.000000 0.000000 0.081061
#
#
# Mechanical properties :
#
#
# Convention : Reuss Voigt Hill
#
# Bulk Modulus (GPa) = 43.64677 52.71052 48.17865
# Shear Modulus (GPa) = 19.13470 24.52560 21.83015
#
# Velocity S-wave (km/s) = 2.91251 3.29736 3.11090
# Velocity P-wave (km/s) = 5.53712 6.15340 5.85337
#
# Compressibility (1/GPa) = 0.02291120
#
# Stress axis : x y z
#
# Youngs Moduli (GPa) = 40.80740 40.80740 141.98259
#
# Poissons Ratio (x) = 0.46694 0.36409
# Poissons Ratio (y) = 0.46694 0.36409
# Poissons Ratio (z) = 0.10464 0.10464
#
# Static dielectric constant tensor:
#      x y z
#    x 1.844490 0.000000 0.000000 
#    y 0.000000 1.844490 0.000000 
#    z 0.000000 0.000000 1.906480 
# 
# From -- ./inp_files/2119.got.cif
#   From: 2010.05.17/outbox.cif.g08.bks.cpg/sg135_2_cif.got.tgz:2119.got - 2010.05.20 12:50:20.
