data_PCOD9568773
_publ_section_title
;
Structure prediction by ZEFSAII (Michael W. Deem and Ramdas Pophale) SiO2 
 PCOD9568773
Probable space group: P 42/M B C
;
_chemical_formula_sum "Si O2"
_cell_formula_units_Z 96
_cell_length_a 24.604777
_cell_length_b 24.604777
_cell_length_c 8.757078
_cell_angle_alpha 90.000000
_cell_angle_beta 90.000000
_cell_angle_gamma 90.000000
_cell_volume 5301.491684
_symmetry_space_group_name_H-M "P 42/M B C"
_symmetry_group_IT_number 135
_symmetry_cell_setting 'tetragonal'
loop_
_space_group_symop_operation_xyz
x,y,z
-y,x,1/2+z
-x,-y,z
y,-x,1/2+z
1/2+x,1/2-y,-z
1/2-x,1/2+y,-z
1/2+y,1/2+x,1/2-z
1/2-y,1/2-x,1/2-z
-x,-y,-z
y,-x,1/2-z
x,y,-z
-y,x,1/2-z
1/2-x,1/2+y,z
1/2+x,1/2-y,z
1/2-y,1/2-x,1/2+z
1/2+y,1/2+x,1/2+z
loop_
_atom_site_type_symbol
_atom_site_label
_atom_site_fract_x
_atom_site_fract_y
_atom_site_fract_z
Si Si1 0.346747 0.645010 0.183621
Si Si2 0.146675 0.728847 0.819276
Si Si3 0.437279 0.855347 0.317803
Si Si4 0.362150 0.055637 0.318088
Si Si5 0.147386 0.270484 0.816439
Si Si6 0.058668 0.939197 0.684616
O O1 0.287370 0.633716 0.250417
O O2 0.359227 0.707531 0.225675
O O3 0.393260 0.602341 0.230348
O O4 0.343546 0.642630 0.000000
O O5 0.200124 0.700124 0.750000
O O6 0.096984 0.687627 0.789231
O O7 0.154228 0.733553 0.000000
O O8 0.409301 0.909301 0.250000
O O9 0.433391 0.855675 0.500000
O O10 0.498683 0.851790 0.262098
O O11 0.401659 0.806015 0.250703
O O12 0.415188 0.084813 0.250000
O O13 0.367639 0.048608 0.500000
O O14 0.202041 0.297960 0.750000
O O15 0.148305 0.275338 0.000000
O O16 0.056605 0.942320 0.500000
O O17 0.998517 0.926407 0.748799
#
# Coordination Sequence:
#
# PCOD9568773 Si02
#       6
#    16  16  16  16  16  16
#     4  10  22  37  57  84 113 144 183 224 268 326
#     4  10  21  36  57  82 113 148 182 223 273 322
#     4  11  22  37  57  81 109 145 185 229 276 325
#     4  10  21  38  57  81 111 145 184 228 274 324
#     4  10  20  36  55  79 112 147 181 224 272 321
#     4  10  21  39  59  81 109 143 180 225 275 325
#
# _framework density 18.108111000000001
#
# number of rings (size 3 to 8) (size 9 to 14) (size 15 to 20)
#    0.000    1.833    0.000    5.500    0.000    7.667 
#    0.000    6.667    0.000    0.000    0.000    0.000 
#    0.000    0.000    0.000    0.000    0.000    0.000 
#
# Total GULP energy -536257.317393 kJ/mol
# GULP energy per Si atom -5586.013723 kJ/mol
# Density = 1.806690 g / cm^3
# Si number density = 18.108111 Si / 1000 Ang^3
#
#
#
# Elastic Constant Matrix: (Units=GPa)
#
#
# Indices 1 2 3 4 5 6 
#
# 1 133.3127 73.9899 58.0370 0.0000 0.0000 0.0000
# 2 73.9899 133.3178 58.0419 0.0000 0.0000 0.0000
# 3 58.0370 58.0419 71.7073 0.0000 0.0000 0.0000
# 4 0.0000 0.0000 0.0000 29.6198 0.0000 0.0000
# 5 0.0000 0.0000 0.0000 0.0000 29.6200 0.0000
# 6 0.0000 0.0000 0.0000 0.0000 0.0000 23.6993
#
#
#
# Elastic Compliance Matrix: (Units=1/GPa)
#
#
# Indices 1 2 3 4 5 6 
#
# 1 0.012839 -0.004017 -0.007140 0.000000 0.000000 0.000000
# 2 -0.004017 0.012839 -0.007141 0.000000 0.000000 0.000000
# 3 -0.007140 -0.007141 0.025505 0.000000 0.000000 0.000000
# 4 0.000000 0.000000 0.000000 0.033761 0.000000 0.000000
# 5 0.000000 0.000000 0.000000 0.000000 0.033761 0.000000
# 6 0.000000 0.000000 0.000000 0.000000 0.000000 0.042195
#
#
# Mechanical properties :
#
#
# Convention : Reuss Voigt Hill
#
# Bulk Modulus (GPa) = 68.55602 79.83061 74.19331
# Shear Modulus (GPa) = 24.70858 26.47244 25.59051
#
# Velocity S-wave (km/s) = 3.69793 3.82764 3.76334
# Velocity P-wave (km/s) = 7.49495 7.98221 7.74242
#
# Compressibility (1/GPa) = 0.01458661
#
# Stress axis : x y z
#
# Youngs Moduli (GPa) = 77.88804 77.88545 39.20855
#
# Poissons Ratio (x) = 0.31287 0.27994
# Poissons Ratio (y) = 0.31288 0.28000
# Poissons Ratio (z) = 0.55611 0.55620
#
# Static dielectric constant tensor:
#      x y z
#    x 1.606390 0.000000 0.000000 
#    y 0.000000 1.606390 0.000000 
#    z 0.000000 0.000000 1.606900 
# 
# From -- ./inp_files/1237.got.cif
#   From: 2010.05.17/outbox.cif.g08.bks.cpg/sg135_1_cif.got.tgz:1237.got - 2010.05.20 12:50:20.
