data_PCOD9568134
_publ_section_title
;
Structure prediction by ZEFSAII (Michael W. Deem and Ramdas Pophale) SiO2 
 PCOD9568134
Probable space group: P 42/N N M
;
_chemical_formula_sum "Si O2"
_cell_formula_units_Z 96
_cell_length_a 24.311899
_cell_length_b 24.311899
_cell_length_c 8.981371
_cell_angle_alpha 90.000000
_cell_angle_beta 90.000000
_cell_angle_gamma 90.000000
_cell_volume 5308.604883
_symmetry_space_group_name_H-M "P 42/N N M"
_symmetry_group_IT_number 134
_space_group.IT_coordinate_system_code '2'
_symmetry_cell_setting 'tetragonal'
loop_
_space_group_symop_operation_xyz
x,y,z
1/2-y,x,1/2+z
1/2-x,1/2-y,z
y,1/2-x,1/2+z
x,1/2-y,1/2-z
1/2-x,y,1/2-z
y,x,-z
1/2-y,1/2-x,-z
-x,-y,-z
1/2+y,-x,1/2-z
1/2+x,1/2+y,-z
-y,1/2+x,1/2-z
-x,1/2+y,1/2+z
1/2+x,-y,1/2+z
-y,-x,z
1/2+y,1/2+x,z
loop_
_atom_site_type_symbol
_atom_site_label
_atom_site_fract_x
_atom_site_fract_y
_atom_site_fract_z
Si Si1 0.927877 0.984130 0.640947
Si Si2 0.033999 0.875628 0.911846
Si Si3 0.862279 0.573737 0.614017
Si Si4 0.250000 0.464844 0.250000
Si Si5 0.859559 0.051104 0.415824
Si Si6 0.657684 0.250000 0.750000
Si Si7 0.062632 0.743672 0.489140
O O1 0.956348 0.956348 0.500000
O O2 0.905681 0.939232 0.754951
O O3 0.878045 0.018861 0.564991
O O4 0.971929 0.028072 0.705517
O O5 0.074551 0.925450 0.954345
O O6 0.022840 0.880452 0.735659
O O7 0.062593 0.816967 0.943317
O O8 0.979417 0.871553 0.008836
O O9 0.876412 0.623589 0.500000
O O10 0.803078 0.571077 0.698182
O O11 0.247047 0.508062 0.112755
O O12 0.891141 0.108860 0.423042
O O13 0.795016 0.059333 0.401675
O O14 0.696900 0.303101 0.751770
O O15 0.616756 0.250567 0.610420
#
# Coordination Sequence:
#
# PCOD9568134 Si02
#       7
#    16  16  16   8  16   8  16
#     4  10  20  33  52  79 112 149 184 221 269 328
#     4  10  21  33  50  78 107 145 191 229 277 334
#     4  11  21  36  57  79 113 148 177 223 268 322
#     4   9  20  35  52  81 104 137 179 218 265 334
#     4  10  19  32  49  72 105 145 188 231 278 333
#     4  10  20  31  46  70  98 136 195 254 300 336
#     4  10  18  33  51  69 101 144 185 239 282 328
#
# _framework density 18.083846000000001
#
# number of rings (size 3 to 8) (size 9 to 14) (size 15 to 20)
#    0.000    1.917    1.667    3.000    0.000    2.667 
#    0.000    0.000    0.000    0.000    0.000    7.000 
#    0.000    2.000    0.000    0.000    0.000    0.000 
#
# Total GULP energy -534821.086601 kJ/mol
# GULP energy per Si atom -5571.052985 kJ/mol
# Density = 1.804269 g / cm^3
# Si number density = 18.083846 Si / 1000 Ang^3
#
#
#
# Elastic Constant Matrix: (Units=GPa)
#
#
# Indices 1 2 3 4 5 6 
#
# 1 65.6568 36.3032 18.7162 0.0000 0.0000 0.0000
# 2 36.3032 65.6543 18.7154 0.0000 0.0000 0.0000
# 3 18.7162 18.7154 66.7579 0.0000 0.0000 0.0000
# 4 0.0000 0.0000 0.0000 40.0560 0.0000 0.0000
# 5 0.0000 0.0000 0.0000 0.0000 40.0561 0.0000
# 6 0.0000 0.0000 0.0000 0.0000 0.0000 14.6050
#
#
#
# Elastic Compliance Matrix: (Units=1/GPa)
#
#
# Indices 1 2 3 4 5 6 
#
# 1 0.022501 -0.011568 -0.003065 0.000000 0.000000 0.000000
# 2 -0.011568 0.022501 -0.003065 0.000000 0.000000 0.000000
# 3 -0.003065 -0.003065 0.016698 0.000000 0.000000 0.000000
# 4 0.000000 0.000000 0.000000 0.024965 0.000000 0.000000
# 5 0.000000 0.000000 0.000000 0.000000 0.024965 0.000000
# 6 0.000000 0.000000 0.000000 0.000000 0.000000 0.068470
#
#
# Mechanical properties :
#
#
# Convention : Reuss Voigt Hill
#
# Bulk Modulus (GPa) = 38.01715 38.39315 38.20515
# Shear Modulus (GPa) = 22.29514 27.23236 24.76375
#
# Velocity S-wave (km/s) = 3.51504 3.88480 3.70453
# Velocity P-wave (km/s) = 6.12718 6.43420 6.28257
#
# Compressibility (1/GPa) = 0.02630392
#
# Stress axis : x y z
#
# Youngs Moduli (GPa) = 44.44326 44.44172 59.88691
#
# Poissons Ratio (x) = 0.51409 0.18357
# Poissons Ratio (y) = 0.51411 0.18356
# Poissons Ratio (z) = 0.13623 0.13622
#
# Static dielectric constant tensor:
#      x y z
#    x 1.636120 0.000000 0.000000 
#    y 0.000000 1.636120 0.000000 
#    z 0.000000 0.000000 1.662120 
# 
# From -- ./inp_files/3263.got.cif
#   From: 2010.05.17/outbox.cif.g08.bks.cpg/sg134_2_cif.got.tgz:3263.got - 2010.05.20 12:42:49.
