data_PCOD9568002
_publ_section_title
;
Structure prediction by ZEFSAII (Michael W. Deem and Ramdas Pophale) SiO2 
 PCOD9568002
Probable space group: P 42/N B C
;
_chemical_formula_sum "Si O2"
_cell_formula_units_Z 128
_cell_length_a 20.573734
_cell_length_b 20.573734
_cell_length_c 17.057158
_cell_angle_alpha 90.000000
_cell_angle_beta 90.000000
_cell_angle_gamma 90.000000
_cell_volume 7219.928776
_symmetry_space_group_name_H-M "P 42/N B C"
_symmetry_group_IT_number 133
_space_group.IT_coordinate_system_code '2'
_symmetry_cell_setting 'tetragonal'
loop_
_space_group_symop_operation_xyz
x,y,z
1/2-y,x,1/2+z
1/2-x,1/2-y,z
y,1/2-x,1/2+z
x,1/2-y,-z
1/2-x,y,-z
y,x,1/2-z
1/2-y,1/2-x,1/2-z
-x,-y,-z
1/2+y,-x,1/2-z
1/2+x,1/2+y,-z
-y,1/2+x,1/2-z
-x,1/2+y,z
1/2+x,-y,z
-y,-x,1/2+z
1/2+y,1/2+x,1/2+z
loop_
_atom_site_type_symbol
_atom_site_label
_atom_site_fract_x
_atom_site_fract_y
_atom_site_fract_z
Si Si1 0.739009 0.355184 0.232229
Si Si2 0.490628 0.094145 0.101788
Si Si3 0.291315 0.511358 0.292601
Si Si4 0.385139 0.690432 0.441116
Si Si5 0.006401 0.884562 0.370453
Si Si6 0.927154 0.035886 0.764216
Si Si7 0.051816 0.821856 0.965800
Si Si8 0.820616 0.579473 0.735386
O O1 0.806996 0.315644 0.232929
O O2 0.747111 0.424365 0.275809
O O3 0.717624 0.367219 0.143928
O O4 0.549854 0.069965 0.156164
O O5 0.450254 0.141870 0.159779
O O6 0.442472 0.033462 0.089083
O O7 0.515549 0.128911 0.024307
O O8 0.352629 0.516980 0.235579
O O9 0.318497 0.519254 0.380312
O O10 0.252308 0.444855 0.278590
O O11 0.379734 0.750000 0.500000
O O12 0.457348 0.661060 0.431380
O O13 0.341469 0.627583 0.460224
O O14 0.058053 0.916526 0.309576
O O15 0.959101 0.845620 0.312232
O O16 0.974862 0.974862 0.750000
O O17 0.046844 0.750000 0.000000
O O18 0.847370 0.652631 0.750000
#
# Coordination Sequence:
#
# PCOD9568002 Si02
#       8
#    16  16  16  16  16  16  16  16
#     4  11  24  39  54  73 107 162 197 225 271 327
#     4   9  20  35  59  80 113 143 186 241 299 336
#     4  12  21  36  60  79 114 147 197 236 280 353
#     4  12  26  37  54  82 117 152 198 234 273 336
#     4   9  17  39  56  80 110 149 191 234 286 343
#     4   9  19  37  60  84 108 148 193 238 290 341
#     4  12  25  36  51  83 115 151 192 238 291 338
#     4   9  18  33  60  82 103 146 192 232 280 351
#
# _framework density 17.728705999999999
#
# number of rings (size 3 to 8) (size 9 to 14) (size 15 to 20)
#    0.000    1.625    5.000    1.500    5.250    0.750 
#    0.000    0.000    0.000    0.375    0.000    0.000 
#    0.000    0.500    0.000    0.000    0.000    0.000 
#
# Total GULP energy -714278.564711 kJ/mol
# GULP energy per Si atom -5580.301287 kJ/mol
# Density = 1.768836 g / cm^3
# Si number density = 17.728706 Si / 1000 Ang^3
#
#
#
# Elastic Constant Matrix: (Units=GPa)
#
#
# Indices 1 2 3 4 5 6 
#
# 1 66.8156 40.5381 46.2413 0.0000 0.0000 0.0000
# 2 40.5381 66.8147 46.2413 0.0000 0.0000 0.0000
# 3 46.2413 46.2413 87.5730 0.0000 0.0000 0.0000
# 4 0.0000 0.0000 0.0000 19.0155 0.0000 0.0000
# 5 0.0000 0.0000 0.0000 0.0000 19.0153 0.0000
# 6 0.0000 0.0000 0.0000 0.0000 0.0000 18.3707
#
#
#
# Elastic Compliance Matrix: (Units=1/GPa)
#
#
# Indices 1 2 3 4 5 6 
#
# 1 0.027572 -0.010484 -0.009023 0.000000 0.000000 0.000000
# 2 -0.010484 0.027572 -0.009023 0.000000 0.000000 0.000000
# 3 -0.009023 -0.009023 0.020948 0.000000 0.000000 0.000000
# 4 0.000000 0.000000 0.000000 0.052589 0.000000 0.000000
# 5 0.000000 0.000000 0.000000 0.000000 0.052589 0.000000
# 6 0.000000 0.000000 0.000000 0.000000 0.000000 0.054434
#
#
# Mechanical properties :
#
#
# Convention : Reuss Voigt Hill
#
# Bulk Modulus (GPa) = 52.54297 54.13830 53.34064
# Shear Modulus (GPa) = 16.71632 17.15916 16.93774
#
# Velocity S-wave (km/s) = 3.07399 3.11444 3.09428
# Velocity P-wave (km/s) = 6.50391 6.59821 6.55123
#
# Compressibility (1/GPa) = 0.01903204
#
# Stress axis : x y z
#
# Youngs Moduli (GPa) = 36.26885 36.26807 47.73705
#
# Poissons Ratio (x) = 0.38023 0.43073
# Poissons Ratio (y) = 0.38024 0.43075
# Poissons Ratio (z) = 0.32725 0.32726
#
# Static dielectric constant tensor:
#      x y z
#    x 1.631540 0.000000 0.000000 
#    y 0.000000 1.631540 0.000000 
#    z 0.000000 0.000000 1.603260 
# 
# From -- ./inp_files/5756.got.cif
#   From: 2010.05.17/outbox.cif.g08.bks.cpg/sg133_3_cif.got.tgz:5756.got - 2010.05.20 12:37:36.
