data_PCOD9568630
_publ_section_title
;
Structure prediction by ZEFSAII (Michael W. Deem and Ramdas Pophale) SiO2 
 PCOD9568630
Probable space group: P 42/M B C
;
_chemical_formula_sum "Si O2"
_cell_formula_units_Z 120
_cell_length_a 15.203810
_cell_length_b 15.203810
_cell_length_c 28.593894
_cell_angle_alpha 90.000000
_cell_angle_beta 90.000000
_cell_angle_gamma 90.000000
_cell_volume 6609.645544
_symmetry_space_group_name_H-M "P 42/M B C"
_symmetry_group_IT_number 135
_symmetry_cell_setting 'tetragonal'
loop_
_space_group_symop_operation_xyz
x,y,z
-y,x,1/2+z
-x,-y,z
y,-x,1/2+z
1/2+x,1/2-y,-z
1/2-x,1/2+y,-z
1/2+y,1/2+x,1/2-z
1/2-y,1/2-x,1/2-z
-x,-y,-z
y,-x,1/2-z
x,y,-z
-y,x,1/2-z
1/2-x,1/2+y,z
1/2+x,1/2-y,z
1/2-y,1/2-x,1/2+z
1/2+y,1/2+x,1/2+z
loop_
_atom_site_type_symbol
_atom_site_label
_atom_site_fract_x
_atom_site_fract_y
_atom_site_fract_z
Si Si1 0.905609 0.604054 0.326835
Si Si2 0.303906 0.830768 0.590809
Si Si3 0.904987 0.970666 0.126362
Si Si4 0.199727 0.300274 0.250000
Si Si5 0.324645 0.465195 0.447811
Si Si6 0.590800 0.890453 0.805196
Si Si7 0.335352 0.280286 0.671697
Si Si8 0.845771 0.119067 0.053566
O O1 0.884395 0.632819 0.378980
O O2 0.870818 0.677017 0.290292
O O3 0.859859 0.509139 0.315794
O O4 0.008249 0.593629 0.319988
O O5 0.261966 0.908629 0.560773
O O6 0.232225 0.805447 0.630518
O O7 0.331750 0.745357 0.562369
O O8 0.933847 0.896624 0.089105
O O9 0.834738 0.924628 0.160958
O O10 0.861630 0.047304 0.094579
O O11 0.000000 0.000000 0.147670
O O12 0.291265 0.305603 0.278414
O O13 0.358127 0.448181 0.500000
O O14 0.316234 0.570075 0.442764
O O15 0.608744 0.891257 0.750000
O O16 0.674724 0.845032 0.828587
O O17 0.847267 0.083040 0.000000
#
# Coordination Sequence:
#
# PCOD9568630 Si02
#       8
#    16  16  16   8  16  16  16  16
#     4  10  20  34  55  75 104 137 186 231 275 328
#     4  10  21  33  51  80 113 141 178 236 281 340
#     4   9  18  35  55  81 112 143 186 233 281 338
#     4  10  18  35  50  79 108 138 178 228 282 332
#     4   9  18  33  53  78 109 143 182 227 276 340
#     4  11  19  35  56  77  98 144 187 233 269 329
#     4  10  21  33  55  81 109 146 185 229 285 342
#     4  10  19  33  56  82 108 147 189 229 288 347
#
# _framework density 18.155286
#
# number of rings (size 3 to 8) (size 9 to 14) (size 15 to 20)
#    0.000    2.133    2.000    2.000    1.867    1.600 
#    0.000    0.000    2.933    0.000    0.000    4.667 
#    0.000    0.000    0.000    0.000    0.000    0.000 
#
# Total GULP energy -668292.677591 kJ/mol
# GULP energy per Si atom -5569.105647 kJ/mol
# Density = 1.811396 g / cm^3
# Si number density = 18.155286 Si / 1000 Ang^3
#
#
#
# Elastic Constant Matrix: (Units=GPa)
#
#
# Indices 1 2 3 4 5 6 
#
# 1 61.2438 40.1726 34.1684 0.0000 0.0000 0.0000
# 2 40.1726 61.2437 34.1684 0.0000 0.0000 0.0000
# 3 34.1684 34.1684 55.6449 0.0000 0.0000 0.0000
# 4 0.0000 0.0000 0.0000 20.6546 0.0000 0.0000
# 5 0.0000 0.0000 0.0000 0.0000 20.6549 0.0000
# 6 0.0000 0.0000 0.0000 0.0000 0.0000 28.9608
#
#
#
# Elastic Compliance Matrix: (Units=1/GPa)
#
#
# Indices 1 2 3 4 5 6 
#
# 1 0.032139 -0.015319 -0.010328 0.000000 0.000000 0.000000
# 2 -0.015319 0.032139 -0.010328 0.000000 0.000000 0.000000
# 3 -0.010328 -0.010328 0.030655 0.000000 0.000000 0.000000
# 4 0.000000 0.000000 0.000000 0.048415 0.000000 0.000000
# 5 0.000000 0.000000 0.000000 0.000000 0.048415 0.000000
# 6 0.000000 0.000000 0.000000 0.000000 0.000000 0.034529
#
#
# Mechanical properties :
#
#
# Convention : Reuss Voigt Hill
#
# Bulk Modulus (GPa) = 43.51218 43.90567 43.70893
# Shear Modulus (GPa) = 16.34506 18.69561 17.52034
#
# Velocity S-wave (km/s) = 3.00374 3.21247 3.10986
# Velocity P-wave (km/s) = 6.00405 6.16408 6.08459
#
# Compressibility (1/GPa) = 0.02298207
#
# Stress axis : x y z
#
# Youngs Moduli (GPa) = 31.11503 31.11492 32.62140
#
# Poissons Ratio (x) = 0.47666 0.33691
# Poissons Ratio (y) = 0.47666 0.33691
# Poissons Ratio (z) = 0.32135 0.32135
#
# Static dielectric constant tensor:
#      x y z
#    x 1.648240 0.000000 0.000000 
#    y 0.000000 1.648250 0.000000 
#    z 0.000000 0.000000 1.626320 
# 
# From -- ./inp_files/6914.got.cif
#   From: 2010.05.17/outbox.cif.g08.bks.cpg/sg135_4_cif.got.tgz:6914.got - 2010.05.20 12:50:20.
