data_PCOD9568064
_publ_section_title
;
Structure prediction by ZEFSAII (Michael W. Deem and Ramdas Pophale) SiO2 
 PCOD9568064
Probable space group: P 42/N N M
;
_chemical_formula_sum "Si O2"
_cell_formula_units_Z 64
_cell_length_a 13.437997
_cell_length_b 13.437997
_cell_length_c 23.643290
_cell_angle_alpha 90.000000
_cell_angle_beta 90.000000
_cell_angle_gamma 90.000000
_cell_volume 4269.499714
_symmetry_space_group_name_H-M "P 42/N N M"
_symmetry_group_IT_number 134
_space_group.IT_coordinate_system_code '2'
_symmetry_cell_setting 'tetragonal'
loop_
_space_group_symop_operation_xyz
x,y,z
1/2-y,x,1/2+z
1/2-x,1/2-y,z
y,1/2-x,1/2+z
x,1/2-y,1/2-z
1/2-x,y,1/2-z
y,x,-z
1/2-y,1/2-x,-z
-x,-y,-z
1/2+y,-x,1/2-z
1/2+x,1/2+y,-z
-y,1/2+x,1/2-z
-x,1/2+y,1/2+z
1/2+x,-y,1/2+z
-y,-x,z
1/2+y,1/2+x,z
loop_
_atom_site_type_symbol
_atom_site_label
_atom_site_fract_x
_atom_site_fract_y
_atom_site_fract_z
Si Si1 0.806277 0.472317 0.306804
Si Si2 0.170228 0.829773 0.616174
Si Si3 0.561921 0.607771 0.909721
Si Si4 0.415672 0.915672 0.998138
Si Si5 0.802650 0.472681 0.521621
O O1 0.750000 0.502345 0.250000
O O2 0.900392 0.400392 0.292707
O O3 0.732737 0.404020 0.344526
O O4 0.840538 0.559788 0.348992
O O5 0.250000 0.750000 0.591149
O O6 0.114156 0.885845 0.566143
O O7 0.475771 0.524230 0.906784
O O8 0.658392 0.549690 0.931247
O O9 0.524964 0.678469 0.960678
O O10 0.448988 0.812465 0.026545
O O11 0.500000 0.000000 0.000000
O O12 0.875465 0.375465 0.523287
#
# Coordination Sequence:
#
# PCOD9568064 Si02
#       5
#    16   8  16   8  16
#     4  10  16  23  41  74 109 131 156 190 238 302
#     4  10  18  28  44  68 108 135 153 192 243 292
#     4   8  15  26  44  67  96 129 163 191 230 295
#     4  12  22  30  44  70  96 130 165 210 259 282
#     4   9  16  30  48  65  91 130 167 198 237 287
#
# _framework density 14.990047000000001
#
# number of rings (size 3 to 8) (size 9 to 14) (size 15 to 20)
#    0.000    2.500    3.750    2.625    0.000    0.000 
#    0.000    2.500    0.000    0.000    0.000    3.500 
#    0.000    0.000    8.500    0.000    0.000    0.000 
#
# Total GULP energy -356400.624749 kJ/mol
# GULP energy per Si atom -5568.759762 kJ/mol
# Density = 1.495593 g / cm^3
# Si number density = 14.990047 Si / 1000 Ang^3
#
#
#
# Elastic Constant Matrix: (Units=GPa)
#
#
# Indices 1 2 3 4 5 6 
#
# 1 74.0553 62.8694 44.1272 0.0000 0.0000 0.0000
# 2 62.8694 74.0553 44.1272 0.0000 0.0000 0.0000
# 3 44.1272 44.1272 111.6119 0.0000 0.0000 0.0000
# 4 0.0000 0.0000 0.0000 24.4579 0.0000 0.0000
# 5 0.0000 0.0000 0.0000 0.0000 24.4579 0.0000
# 6 0.0000 0.0000 0.0000 0.0000 0.0000 23.3820
#
#
#
# Elastic Compliance Matrix: (Units=1/GPa)
#
#
# Indices 1 2 3 4 5 6 
#
# 1 0.049600 -0.039799 -0.003875 0.000000 0.000000 0.000000
# 2 -0.039799 0.049600 -0.003875 0.000000 0.000000 0.000000
# 3 -0.003875 -0.003875 0.012024 0.000000 0.000000 0.000000
# 4 0.000000 0.000000 0.000000 0.040887 0.000000 0.000000
# 5 0.000000 0.000000 0.000000 0.000000 0.040887 0.000000
# 6 0.000000 0.000000 0.000000 0.000000 0.000000 0.042768
#
#
# Mechanical properties :
#
#
# Convention : Reuss Voigt Hill
#
# Bulk Modulus (GPa) = 62.01276 62.44112 62.22694
# Shear Modulus (GPa) = 14.87047 21.69946 18.28496
#
# Velocity S-wave (km/s) = 3.15306 3.80885 3.49636
# Velocity P-wave (km/s) = 7.39694 7.81592 7.60932
#
# Compressibility (1/GPa) = 0.01612571
#
# Stress axis : x y z
#
# Youngs Moduli (GPa) = 20.16138 20.16138 83.16981
#
# Poissons Ratio (x) = 0.80240 0.32227
# Poissons Ratio (y) = 0.80240 0.32227
# Poissons Ratio (z) = 0.07812 0.07812
#
# Static dielectric constant tensor:
#      x y z
#    x 1.506530 0.000000 0.000000 
#    y 0.000000 1.506530 0.000000 
#    z 0.000000 0.000000 1.505720 
# 
# From -- ./inp_files/9855.got.cif
#   From: 2010.05.17/outbox.cif.g08.bks.cpg/sg134_5_cif.got.tgz:9855.got - 2010.05.20 12:42:49.
