data_PCOD9568604
_publ_section_title
;
Structure prediction by ZEFSAII (Michael W. Deem and Ramdas Pophale) SiO2 
 PCOD9568604
Probable space group: P 42/M B C
;
_chemical_formula_sum "Si O2"
_cell_formula_units_Z 112
_cell_length_a 19.858830
_cell_length_b 19.858830
_cell_length_c 15.129500
_cell_angle_alpha 90.000000
_cell_angle_beta 90.000000
_cell_angle_gamma 90.000000
_cell_volume 5966.668255
_symmetry_space_group_name_H-M "P 42/M B C"
_symmetry_group_IT_number 135
_symmetry_cell_setting 'tetragonal'
loop_
_space_group_symop_operation_xyz
x,y,z
-y,x,1/2+z
-x,-y,z
y,-x,1/2+z
1/2+x,1/2-y,-z
1/2-x,1/2+y,-z
1/2+y,1/2+x,1/2-z
1/2-y,1/2-x,1/2-z
-x,-y,-z
y,-x,1/2-z
x,y,-z
-y,x,1/2-z
1/2-x,1/2+y,z
1/2+x,1/2-y,z
1/2-y,1/2-x,1/2+z
1/2+y,1/2+x,1/2+z
loop_
_atom_site_type_symbol
_atom_site_label
_atom_site_fract_x
_atom_site_fract_y
_atom_site_fract_z
Si Si1 0.239344 0.137878 0.154554
Si Si2 0.753059 0.342392 0.636402
Si Si3 0.260142 0.375014 0.394028
Si Si4 0.949921 0.940067 0.608171
Si Si5 0.303591 0.518128 0.602100
Si Si6 0.789120 0.013706 0.892558
Si Si7 0.274748 0.851485 0.102902
O O1 0.302427 0.178746 0.113654
O O2 0.245258 0.150738 0.258580
O O3 0.171585 0.174770 0.122141
O O4 0.236228 0.059342 0.135295
O O5 0.745184 0.417799 0.602316
O O6 0.692511 0.293884 0.605438
O O7 0.250392 0.378913 0.500000
O O8 0.272947 0.449949 0.358602
O O9 0.196183 0.333010 0.357591
O O10 0.948861 0.937833 0.500000
O O11 0.874829 0.957482 0.640948
O O12 0.973578 0.866167 0.637031
O O13 0.000000 0.000000 0.633812
O O14 0.318929 0.501129 0.500000
O O15 0.743019 0.075529 0.859592
O O16 0.789589 0.015793 0.000000
O O17 0.291897 0.862021 0.000000
#
# Coordination Sequence:
#
# PCOD9568604 Si02
#       7
#    16  16  16  16  16  16  16
#     4  10  21  33  48  71 100 133 167 207 247 289
#     4  10  20  34  49  69  99 134 170 203 243 295
#     4   9  18  32  52  76 100 127 166 208 247 298
#     4   9  16  26  44  70  99 127 154 185 235 300
#     4  10  18  31  51  73  98 130 163 202 247 293
#     4  10  18  30  49  72  98 130 164 204 251 295
#     4   9  17  32  53  75  98 128 166 205 249 301
#
# _framework density 18.770945000000001
#
# number of rings (size 3 to 8) (size 9 to 14) (size 15 to 20)
#    0.000    2.429    1.429    1.714    0.000    5.143 
#    0.000    0.000    0.000    0.857    0.000    6.000 
#    0.000    0.000    0.000    0.000    0.000    0.000 
#
# Total GULP energy -624787.966270 kJ/mol
# GULP energy per Si atom -5578.463985 kJ/mol
# Density = 1.872822 g / cm^3
# Si number density = 18.770945 Si / 1000 Ang^3
#
#
#
# Elastic Constant Matrix: (Units=GPa)
#
#
# Indices 1 2 3 4 5 6 
#
# 1 149.0704 95.9624 -0.1278 0.0000 0.0000 0.0000
# 2 95.9624 149.0704 -0.1278 0.0000 0.0000 0.0000
# 3 -0.1278 -0.1278 30.2566 0.0000 0.0000 0.0000
# 4 0.0000 0.0000 0.0000 -102.3973 0.0000 0.0000
# 5 0.0000 0.0000 0.0000 0.0000 -102.3973 0.0000
# 6 0.0000 0.0000 0.0000 0.0000 0.0000 20.1740
#
#
#
# Elastic Compliance Matrix: (Units=1/GPa)
#
#
# Indices 1 2 3 4 5 6 
#
# 1 0.011455 -0.007374 0.000017 0.000000 0.000000 0.000000
# 2 -0.007374 0.011455 0.000017 0.000000 0.000000 0.000000
# 3 0.000017 0.000017 0.033051 0.000000 0.000000 0.000000
# 4 0.000000 0.000000 0.000000 -0.009766 0.000000 0.000000
# 5 0.000000 0.000000 0.000000 0.000000 -0.009766 0.000000
# 6 0.000000 0.000000 0.000000 0.000000 0.000000 0.049569
#
#
# Mechanical properties :
#
#
# Convention : Reuss Voigt Hill
#
# Bulk Modulus (GPa) = 24.22369 57.75681 40.99025
# Shear Modulus (GPa) = 43.69158 -21.41141 11.14008
#
# Velocity S-wave (km/s) = 4.82977 -3.38104 2.43878
# Velocity P-wave (km/s) = 6.63590 3.94894 5.46028
#
# Compressibility (1/GPa) = 0.04128190
#
# Stress axis : x y z
#
# Youngs Moduli (GPa) = 87.29561 87.29561 30.25649
#
# Poissons Ratio (x) = 0.64374 -0.00052
# Poissons Ratio (y) = 0.64374 -0.00052
# Poissons Ratio (z) = -0.00150 -0.00150
#
# Static dielectric constant tensor:
#      x y z
#    x 1.651940 0.000000 0.000000 
#    y 0.000000 1.651940 0.000000 
#    z 0.000000 0.000000 1.703500 
# 
# From -- ./inp_files/5630.got.cif
#   From: 2010.05.17/outbox.cif.g08.bks.cpg/sg135_3_cif.got.tgz:5630.got - 2010.05.20 12:50:20.
