data_PCOD9568427
_publ_section_title
;
Structure prediction by ZEFSAII (Michael W. Deem and Ramdas Pophale) SiO2 
 PCOD9568427
Probable space group: P 42/N N M
;
_chemical_formula_sum "Si O2"
_cell_formula_units_Z 96
_cell_length_a 15.560163
_cell_length_b 15.560163
_cell_length_c 21.519082
_cell_angle_alpha 90.000000
_cell_angle_beta 90.000000
_cell_angle_gamma 90.000000
_cell_volume 5210.171569
_symmetry_space_group_name_H-M "P 42/N N M"
_symmetry_group_IT_number 134
_space_group.IT_coordinate_system_code '2'
_symmetry_cell_setting 'tetragonal'
loop_
_space_group_symop_operation_xyz
x,y,z
1/2-y,x,1/2+z
1/2-x,1/2-y,z
y,1/2-x,1/2+z
x,1/2-y,1/2-z
1/2-x,y,1/2-z
y,x,-z
1/2-y,1/2-x,-z
-x,-y,-z
1/2+y,-x,1/2-z
1/2+x,1/2+y,-z
-y,1/2+x,1/2-z
-x,1/2+y,1/2+z
1/2+x,-y,1/2+z
-y,-x,z
1/2+y,1/2+x,z
loop_
_atom_site_type_symbol
_atom_site_label
_atom_site_fract_x
_atom_site_fract_y
_atom_site_fract_z
Si Si1 0.977353 0.339440 0.784851
Si Si2 0.323738 0.823738 0.595149
Si Si3 0.955596 0.189187 0.574519
Si Si4 0.883272 0.521171 0.246278
Si Si5 0.108902 0.252383 0.485411
Si Si6 0.822295 0.177706 0.952094
Si Si7 0.008037 0.244609 0.143533
O O1 0.980090 0.250000 0.750000
O O2 0.885230 0.385230 0.777437
O O3 0.993148 0.332860 0.858579
O O4 0.048822 0.403024 0.758831
O O5 0.250000 0.750000 0.598838
O O6 0.345114 0.845114 0.522968
O O7 0.411872 0.785720 0.623911
O O8 0.889930 0.110071 0.555489
O O9 0.898524 0.274968 0.582411
O O10 0.028649 0.218021 0.526579
O O11 0.820661 0.539291 0.303355
O O12 0.834153 0.508088 0.180997
O O13 0.933927 0.433927 0.260116
O O14 0.182546 0.182546 0.500000
O O15 0.155324 0.344677 0.500000
O O16 0.071026 0.253630 0.415555
O O17 0.750000 0.250000 0.958992
#
# Coordination Sequence:
#
# PCOD9568427 Si02
#       7
#    16   8  16  16  16   8  16
#     4  10  23  40  61  87 119 161 210 264 313 366
#     4  11  20  36  64  98 130 158 198 250 322 380
#     4  10  21  39  62  88 117 157 202 252 313 372
#     4  10  22  41  61  91 129 162 209 256 305 381
#     4  11  25  42  62  89 126 163 213 264 310 370
#     4   9  18  34  58  88 122 148 191 254 303 370
#     4  11  22  40  63  92 126 169 203 252 315 376
#
# _framework density 18.425497
#
# number of rings (size 3 to 8) (size 9 to 14) (size 15 to 20)
#    0.000    1.667    2.500    1.500    3.500    1.167 
#    0.000    2.500    0.000    0.000    0.000    0.000 
#    0.000    0.000    0.000    0.000    0.000    0.000 
#
# Total GULP energy -535027.325957 kJ/mol
# GULP energy per Si atom -5573.201312 kJ/mol
# Density = 1.838356 g / cm^3
# Si number density = 18.425497 Si / 1000 Ang^3
#
#
#
# Elastic Constant Matrix: (Units=GPa)
#
#
# Indices 1 2 3 4 5 6 
#
# 1 73.5467 26.5975 35.0379 0.0000 0.0000 0.0000
# 2 26.5975 73.5454 35.0379 0.0000 0.0000 0.0000
# 3 35.0379 35.0379 84.2320 0.0000 0.0000 0.0000
# 4 0.0000 0.0000 0.0000 27.2592 0.0000 0.0000
# 5 0.0000 0.0000 0.0000 0.0000 27.2586 0.0000
# 6 0.0000 0.0000 0.0000 0.0000 0.0000 17.3424
#
#
#
# Elastic Compliance Matrix: (Units=1/GPa)
#
#
# Indices 1 2 3 4 5 6 
#
# 1 0.017693 -0.003607 -0.005859 0.000000 0.000000 0.000000
# 2 -0.003607 0.017693 -0.005859 0.000000 0.000000 0.000000
# 3 -0.005859 -0.005859 0.016746 0.000000 0.000000 0.000000
# 4 0.000000 0.000000 0.000000 0.036685 0.000000 0.000000
# 5 0.000000 0.000000 0.000000 0.000000 0.036686 0.000000
# 6 0.000000 0.000000 0.000000 0.000000 0.000000 0.057662
#
#
# Mechanical properties :
#
#
# Convention : Reuss Voigt Hill
#
# Bulk Modulus (GPa) = 46.55278 47.18563 46.86921
# Shear Modulus (GPa) = 22.62687 23.34875 22.98781
#
# Velocity S-wave (km/s) = 3.50811 3.56363 3.53598
# Velocity P-wave (km/s) = 6.45983 6.52665 6.49332
#
# Compressibility (1/GPa) = 0.02148099
#
# Stress axis : x y z
#
# Youngs Moduli (GPa) = 56.52078 56.51954 59.71400
#
# Poissons Ratio (x) = 0.20387 0.34987
# Poissons Ratio (y) = 0.20388 0.34988
# Poissons Ratio (z) = 0.33116 0.33116
#
# Static dielectric constant tensor:
#      x y z
#    x 1.614580 0.000000 0.000000 
#    y 0.000000 1.614580 0.000000 
#    z 0.000000 0.000000 1.632910 
# 
# From -- ./inp_files/9184.got.cif
#   From: 2010.05.17/outbox.cif.g08.bks.cpg/sg134_5_cif.got.tgz:9184.got - 2010.05.20 12:42:49.
