data_PCOD9568144
_publ_section_title
;
Structure prediction by ZEFSAII (Michael W. Deem and Ramdas Pophale) SiO2 
 PCOD9568144
Probable space group: P 42/N N M
;
_chemical_formula_sum "Si O2"
_cell_formula_units_Z 88
_cell_length_a 30.174148
_cell_length_b 30.174148
_cell_length_c 5.257593
_cell_angle_alpha 90.000000
_cell_angle_beta 90.000000
_cell_angle_gamma 90.000000
_cell_volume 4786.929108
_symmetry_space_group_name_H-M "P 42/N N M"
_symmetry_group_IT_number 134
_space_group.IT_coordinate_system_code '2'
_symmetry_cell_setting 'tetragonal'
loop_
_space_group_symop_operation_xyz
x,y,z
1/2-y,x,1/2+z
1/2-x,1/2-y,z
y,1/2-x,1/2+z
x,1/2-y,1/2-z
1/2-x,y,1/2-z
y,x,-z
1/2-y,1/2-x,-z
-x,-y,-z
1/2+y,-x,1/2-z
1/2+x,1/2+y,-z
-y,1/2+x,1/2-z
-x,1/2+y,1/2+z
1/2+x,-y,1/2+z
-y,-x,z
1/2+y,1/2+x,z
loop_
_atom_site_type_symbol
_atom_site_label
_atom_site_fract_x
_atom_site_fract_y
_atom_site_fract_z
Si Si1 0.198053 0.698053 0.689359
Si Si2 0.016642 0.587862 0.572444
Si Si3 0.672146 0.432314 0.939739
Si Si4 0.794118 0.515266 0.862169
Si Si5 0.250000 0.552347 0.750000
Si Si6 0.960253 0.609627 0.067700
Si Si7 0.843123 0.343123 0.821170
O O1 0.190287 0.750000 0.750000
O O2 0.183340 0.683340 0.404287
O O3 0.170834 0.670834 0.899829
O O4 0.040855 0.540855 0.550259
O O5 0.054948 0.625567 0.562069
O O6 0.982482 0.595165 0.336940
O O7 0.992892 0.594551 0.841382
O O8 0.688604 0.480108 0.844066
O O9 0.665393 0.395138 0.728795
O O10 0.713778 0.417906 0.109171
O O11 0.750000 0.538101 0.750000
O O12 0.836936 0.543300 0.935429
O O13 0.778503 0.481535 0.079938
O O14 0.914815 0.585186 0.000000
#
# Coordination Sequence:
#
# PCOD9568144 Si02
#       7
#     8  16  16  16   8  16   8
#     4  11  28  48  60  74 104 138 171 226 307 377
#     4  11  22  39  57  79 121 156 193 236 286 342
#     4  10  22  36  56  87 109 141 182 237 291 343
#     4   9  20  36  57  81 115 148 187 230 290 334
#     4  10  18  36  58  78 111 140 183 230 296 344
#     4  11  23  38  58  85 115 155 202 238 279 337
#     4  12  26  39  66  84 103 132 182 242 285 347
#
# _framework density 18.383393000000002
#
# number of rings (size 3 to 8) (size 9 to 14) (size 15 to 20)
#    0.000    1.545    2.727    1.636    3.818    5.818 
#    0.000    0.000    0.000    0.000    0.000    0.000 
#    0.000    0.000    0.000    2.455    0.000    0.000 
#
# Total GULP energy -491096.930995 kJ/mol
# GULP energy per Si atom -5580.646943 kJ/mol
# Density = 1.834155 g / cm^3
# Si number density = 18.383393 Si / 1000 Ang^3
#
#
#
# Elastic Constant Matrix: (Units=GPa)
#
#
# Indices 1 2 3 4 5 6 
#
# 1 70.9021 61.5427 7.6157 0.0000 0.0000 0.0000
# 2 61.5427 70.8985 7.6161 0.0000 0.0000 0.0000
# 3 7.6157 7.6161 63.3282 0.0000 0.0000 0.0000
# 4 0.0000 0.0000 0.0000 71.8475 0.0000 0.0000
# 5 0.0000 0.0000 0.0000 0.0000 71.8540 0.0000
# 6 0.0000 0.0000 0.0000 0.0000 0.0000 23.1295
#
#
#
# Elastic Compliance Matrix: (Units=1/GPa)
#
#
# Indices 1 2 3 4 5 6 
#
# 1 0.057259 -0.049605 -0.000920 0.000000 0.000000 0.000000
# 2 -0.049605 0.057262 -0.000921 0.000000 0.000000 0.000000
# 3 -0.000920 -0.000921 0.016012 0.000000 0.000000 0.000000
# 4 0.000000 0.000000 0.000000 0.013918 0.000000 0.000000
# 5 0.000000 0.000000 0.000000 0.000000 0.013917 0.000000
# 6 0.000000 0.000000 0.000000 0.000000 0.000000 0.043235
#
#
# Mechanical properties :
#
#
# Convention : Reuss Voigt Hill
#
# Bulk Modulus (GPa) = 36.17707 39.85311 38.01509
# Shear Modulus (GPa) = 15.93827 41.92315 28.93071
#
# Velocity S-wave (km/s) = 2.94767 4.78063 3.97134
# Velocity P-wave (km/s) = 5.59526 7.22485 6.46163
#
# Compressibility (1/GPa) = 0.02764181
#
# Stress axis : x y z
#
# Youngs Moduli (GPa) = 17.46439 17.46348 62.45227
#
# Poissons Ratio (x) = 0.86627 0.05747
# Poissons Ratio (y) = 0.86631 0.05754
# Poissons Ratio (z) = 0.01607 0.01609
#
# Static dielectric constant tensor:
#      x y z
#    x 1.593580 0.000000 0.000000 
#    y 0.000000 1.593560 0.000000 
#    z 0.000000 0.000000 1.749460 
# 
# From -- ./inp_files/1285.got.cif
#   From: 2010.05.17/outbox.cif.g08.bks.cpg/sg134_1_cif.got.tgz:1285.got - 2010.05.20 12:42:49.
