data_PCOD9568856
_publ_section_title
;
Structure prediction by ZEFSAII (Michael W. Deem and Ramdas Pophale) SiO2 
 PCOD9568856
Probable space group: P 42/M B C
;
_chemical_formula_sum "Si O2"
_cell_formula_units_Z 112
_cell_length_a 15.662033
_cell_length_b 15.662033
_cell_length_c 22.826937
_cell_angle_alpha 90.000000
_cell_angle_beta 90.000000
_cell_angle_gamma 90.000000
_cell_volume 5599.431158
_symmetry_space_group_name_H-M "P 42/M B C"
_symmetry_group_IT_number 135
_symmetry_cell_setting 'tetragonal'
loop_
_space_group_symop_operation_xyz
x,y,z
-y,x,1/2+z
-x,-y,z
y,-x,1/2+z
1/2+x,1/2-y,-z
1/2-x,1/2+y,-z
1/2+y,1/2+x,1/2-z
1/2-y,1/2-x,1/2-z
-x,-y,-z
y,-x,1/2-z
x,y,-z
-y,x,1/2-z
1/2-x,1/2+y,z
1/2+x,1/2-y,z
1/2-y,1/2-x,1/2+z
1/2+y,1/2+x,1/2+z
loop_
_atom_site_type_symbol
_atom_site_label
_atom_site_fract_x
_atom_site_fract_y
_atom_site_fract_z
Si Si1 0.457867 0.756580 0.136188
Si Si2 0.266323 0.616668 0.565180
Si Si3 0.533602 0.743093 0.644315
Si Si4 0.862698 0.988819 0.256266
Si Si5 0.442486 0.919209 0.320074
Si Si6 0.463594 0.589834 0.567241
Si Si7 0.696265 0.708720 0.569418
O O1 0.549962 0.777578 0.107945
O O2 0.476899 0.690775 0.188868
O O3 0.421097 0.846605 0.156434
O O4 0.385253 0.716602 0.094019
O O5 0.228635 0.608717 0.500000
O O6 0.362483 0.582901 0.564321
O O7 0.267641 0.717653 0.578360
O O8 0.548630 0.700209 0.707509
O O9 0.487164 0.832052 0.658132
O O10 0.484042 0.671596 0.606346
O O11 0.619269 0.749911 0.606415
O O12 0.932215 0.916433 0.270809
O O13 0.430228 0.930228 0.250000
O O14 0.500000 0.000000 0.339405
O O15 0.500000 0.500000 0.590538
O O16 0.495946 0.600649 0.500000
O O17 0.679556 0.702182 0.500000
#
# Coordination Sequence:
#
# PCOD9568856 Si02
#       7
#    16  16  16  16  16  16  16
#     4  12  22  43  67  95 128 182 220 273 343 401
#     4  10  22  40  61  92 127 163 214 272 323 390
#     4  12  22  41  63  94 129 173 219 274 332 405
#     4  11  24  39  61  98 138 168 212 274 337 399
#     4  11  25  44  65  90 132 181 236 287 337 404
#     4  10  21  37  63  96 129 166 208 264 339 410
#     4  11  24  42  67  98 132 172 221 277 339 409
#
# _framework density 20.002032
#
# number of rings (size 3 to 8) (size 9 to 14) (size 15 to 20)
#    0.000    1.000    2.857    4.286    2.000    1.143 
#    0.000    2.143    0.000    5.143    0.000    0.000 
#    0.000    0.000    0.000    0.000    0.000    0.000 
#
# Total GULP energy -625127.549846 kJ/mol
# GULP energy per Si atom -5581.495981 kJ/mol
# Density = 1.995651 g / cm^3
# Si number density = 20.002032 Si / 1000 Ang^3
#
#
#
# Elastic Constant Matrix: (Units=GPa)
#
#
# Indices 1 2 3 4 5 6 
#
# 1 97.4152 22.7413 45.5478 0.0000 0.0000 0.0000
# 2 22.7413 97.4152 45.5478 0.0000 0.0000 0.0000
# 3 45.5478 45.5478 97.6699 0.0000 0.0000 0.0000
# 4 0.0000 0.0000 0.0000 27.9150 0.0000 0.0000
# 5 0.0000 0.0000 0.0000 0.0000 27.9150 0.0000
# 6 0.0000 0.0000 0.0000 0.0000 0.0000 39.4892
#
#
#
# Elastic Compliance Matrix: (Units=1/GPa)
#
#
# Indices 1 2 3 4 5 6 
#
# 1 0.013133 -0.000259 -0.006004 0.000000 0.000000 0.000000
# 2 -0.000259 0.013133 -0.006004 0.000000 0.000000 0.000000
# 3 -0.006004 -0.006004 0.015838 0.000000 0.000000 0.000000
# 4 0.000000 0.000000 0.000000 0.035823 0.000000 0.000000
# 5 0.000000 0.000000 0.000000 0.000000 0.035823 0.000000
# 6 0.000000 0.000000 0.000000 0.000000 0.000000 0.025323
#
#
# Mechanical properties :
#
#
# Convention : Reuss Voigt Hill
#
# Bulk Modulus (GPa) = 56.91056 57.79711 57.35383
# Shear Modulus (GPa) = 29.50494 30.97474 30.23984
#
# Velocity S-wave (km/s) = 3.84487 3.93947 3.89245
# Velocity P-wave (km/s) = 6.94441 7.04634 6.99556
#
# Compressibility (1/GPa) = 0.01757143
#
# Stress axis : x y z
#
# Youngs Moduli (GPa) = 76.14473 76.14473 63.13835
#
# Poissons Ratio (x) = 0.01970 0.37907
# Poissons Ratio (y) = 0.01970 0.37907
# Poissons Ratio (z) = 0.45716 0.45716
#
# Static dielectric constant tensor:
#      x y z
#    x 1.747870 0.000000 0.000000 
#    y 0.000000 1.747870 0.000000 
#    z 0.000000 0.000000 1.736630 
# 
# From -- ./inp_files/6139.got.cif
#   From: 2010.05.17/outbox.cif.g08.bks.cpg/sg135_4_cif.got.tgz:6139.got - 2010.05.20 12:50:20.
