data_PCOD9568435
_publ_section_title
;
Structure prediction by ZEFSAII (Michael W. Deem and Ramdas Pophale) SiO2 
 PCOD9568435
Probable space group: P 42/N N M
;
_chemical_formula_sum "Si O2"
_cell_formula_units_Z 80
_cell_length_a 10.743635
_cell_length_b 10.743635
_cell_length_c 28.174224
_cell_angle_alpha 90.000000
_cell_angle_beta 90.000000
_cell_angle_gamma 90.000000
_cell_volume 3252.029330
_symmetry_space_group_name_H-M "P 42/N N M"
_symmetry_group_IT_number 134
_space_group.IT_coordinate_system_code '2'
_symmetry_cell_setting 'tetragonal'
loop_
_space_group_symop_operation_xyz
x,y,z
1/2-y,x,1/2+z
1/2-x,1/2-y,z
y,1/2-x,1/2+z
x,1/2-y,1/2-z
1/2-x,y,1/2-z
y,x,-z
1/2-y,1/2-x,-z
-x,-y,-z
1/2+y,-x,1/2-z
1/2+x,1/2+y,-z
-y,1/2+x,1/2-z
-x,1/2+y,1/2+z
1/2+x,-y,1/2+z
-y,-x,z
1/2+y,1/2+x,z
loop_
_atom_site_type_symbol
_atom_site_label
_atom_site_fract_x
_atom_site_fract_y
_atom_site_fract_z
Si Si1 0.376658 0.424209 0.281612
Si Si2 0.515817 0.689287 0.835113
Si Si3 0.286041 0.988216 0.364024
Si Si4 0.516136 0.803765 0.472206
Si Si5 0.251074 0.551886 0.567542
O O1 0.250000 0.408361 0.250000
O O2 0.481753 0.518248 0.260466
O O3 0.443589 0.295220 0.297978
O O4 0.328427 0.490145 0.329653
O O5 0.379418 0.620583 0.829825
O O6 0.612902 0.578388 0.839890
O O7 0.535516 0.748539 0.887703
O O8 0.259609 0.030334 0.418501
O O9 0.352407 0.852407 0.364748
O O10 0.628634 0.871367 0.500000
O O11 0.482032 0.710829 0.514462
O O12 0.405114 0.905114 0.467493
O O13 0.340653 0.659348 0.583782
O O14 0.111272 0.611272 0.564419
#
# Coordination Sequence:
#
# PCOD9568435 Si02
#       5
#    16  16  16  16  16
#     4  12  28  49  73 103 144 191 239 298 365 436
#     4  10  21  42  74 108 139 178 233 299 367 428
#     4  10  21  39  69 103 140 190 246 299 351 420
#     4   9  15  29  56  94 137 184 235 283 338 406
#     4   9  16  28  54  95 140 180 220 278 350 417
#
# _framework density 24.600023
#
# number of rings (size 3 to 8) (size 9 to 14) (size 15 to 20)
#    0.000    2.000    2.000    1.800    0.000    5.000 
#    0.000    3.000    0.000    3.600    0.000    8.400 
#    0.000    0.000    0.000    0.000    0.000    0.000 
#
# Total GULP energy -445610.308847 kJ/mol
# GULP energy per Si atom -5570.128861 kJ/mol
# Density = 2.454403 g / cm^3
# Si number density = 24.600023 Si / 1000 Ang^3
#
#
#
# Elastic Constant Matrix: (Units=GPa)
#
#
# Indices 1 2 3 4 5 6 
#
# 1 77.9613 73.2544 50.1278 0.0000 0.0000 0.0000
# 2 73.2544 77.9617 50.1282 0.0000 0.0000 0.0000
# 3 50.1278 50.1282 211.2700 0.0000 0.0000 0.0000
# 4 0.0000 0.0000 0.0000 30.2499 0.0000 0.0000
# 5 0.0000 0.0000 0.0000 0.0000 30.2498 0.0000
# 6 0.0000 0.0000 0.0000 0.0000 0.0000 42.6171
#
#
#
# Elastic Compliance Matrix: (Units=1/GPa)
#
#
# Indices 1 2 3 4 5 6 
#
# 1 0.110145 -0.102298 -0.001862 0.000000 0.000000 0.000000
# 2 -0.102298 0.110145 -0.001862 0.000000 0.000000 0.000000
# 3 -0.001862 -0.001862 0.005617 0.000000 0.000000 0.000000
# 4 0.000000 0.000000 0.000000 0.033058 0.000000 0.000000
# 5 0.000000 0.000000 0.000000 0.000000 0.033058 0.000000
# 6 0.000000 0.000000 0.000000 0.000000 0.000000 0.023465
#
#
# Mechanical properties :
#
#
# Convention : Reuss Voigt Hill
#
# Bulk Modulus (GPa) = 72.12911 79.35709 75.74310
# Shear Modulus (GPa) = 9.39579 33.53553 21.46566
#
# Velocity S-wave (km/s) = 1.95645 3.69620 2.95716
# Velocity P-wave (km/s) = 5.87265 7.10949 6.52046
#
# Compressibility (1/GPa) = 0.01386403
#
# Stress axis : x y z
#
# Youngs Moduli (GPa) = 9.07891 9.07893 178.03514
#
# Poissons Ratio (x) = 0.92875 0.33147
# Poissons Ratio (y) = 0.92875 0.33153
# Poissons Ratio (z) = 0.01690 0.01691
#
# Static dielectric constant tensor:
#      x y z
#    x 2.170780 0.000000 0.000000 
#    y 0.000000 2.170780 0.000000 
#    z 0.000000 0.000000 2.018420 
# 
# From -- ./inp_files/11340.got.cif
#   From: 2010.05.17/outbox.cif.g08.bks.cpg/sg134_6_cif.got.tgz:11340.got - 2010.05.20 12:42:49.
