data_PCOD9568909
_publ_section_title
;
Structure prediction by ZEFSAII (Michael W. Deem and Ramdas Pophale) SiO2 
 PCOD9568909
Probable space group: P 42/M B C
;
_chemical_formula_sum "Si O2"
_cell_formula_units_Z 112
_cell_length_a 12.986611
_cell_length_b 12.986611
_cell_length_c 27.607346
_cell_angle_alpha 90.000000
_cell_angle_beta 90.000000
_cell_angle_gamma 90.000000
_cell_volume 4656.035919
_symmetry_space_group_name_H-M "P 42/M B C"
_symmetry_group_IT_number 135
_symmetry_cell_setting 'tetragonal'
loop_
_space_group_symop_operation_xyz
x,y,z
-y,x,1/2+z
-x,-y,z
y,-x,1/2+z
1/2+x,1/2-y,-z
1/2-x,1/2+y,-z
1/2+y,1/2+x,1/2-z
1/2-y,1/2-x,1/2-z
-x,-y,-z
y,-x,1/2-z
x,y,-z
-y,x,1/2-z
1/2-x,1/2+y,z
1/2+x,1/2-y,z
1/2-y,1/2-x,1/2+z
1/2+y,1/2+x,1/2+z
loop_
_atom_site_type_symbol
_atom_site_label
_atom_site_fract_x
_atom_site_fract_y
_atom_site_fract_z
Si Si1 0.878014 0.310989 0.302843
Si Si2 0.835848 0.381800 0.908101
Si Si3 0.118205 0.335845 0.408101
Si Si4 0.619870 0.619874 0.750001
Si Si5 0.665702 0.386133 0.556173
Si Si6 0.121996 0.310984 0.302844
Si Si7 0.886129 0.834302 0.056173
O O1 0.859539 0.359539 0.250000
O O2 0.844993 0.360103 0.353174
O O3 0.846220 0.191953 0.294374
O O4 0.000005 0.308627 0.309656
O O5 0.869502 0.500003 0.916749
O O6 0.878232 0.290437 0.941212
O O7 0.711684 0.377380 0.914904
O O8 0.122623 0.211681 0.414905
O O9 0.155017 0.360098 0.353175
O O10 0.209567 0.378227 0.441213
O O11 0.636163 0.500003 0.739833
O O12 0.691946 0.653785 0.794376
O O13 0.634661 0.375052 0.500000
O O14 0.634509 0.500002 0.573309
O O15 0.140471 0.359530 0.250000
O O16 0.875048 0.865346 0.000000
#
# Coordination Sequence:
#
# PCOD9568909 Si02
#       7
#    16  16  16  16  16  16  16
#     4  10  22  37  56  83 116 155 194 237 288 340
#     4  10  22  40  62  89 119 156 203 246 290 353
#     4  10  22  40  62  89 119 156 203 246 290 353
#     4   9  19  34  52  78 111 147 188 230 278 339
#     4  10  23  41  61  90 124 155 193 247 308 363
#     4  10  22  37  56  83 116 155 194 237 288 340
#     4  10  23  41  61  90 124 155 193 247 308 363
#
# _framework density 24.054798000000002
#
# number of rings (size 3 to 8) (size 9 to 14) (size 15 to 20)
#    0.000    2.143    0.000    2.143    8.000    6.000 
#    0.000    8.571    0.000    0.000    0.000    0.000 
#    0.000    0.000    0.000    0.000    0.000    0.000 
#
# Total GULP energy -625211.643640 kJ/mol
# GULP energy per Si atom -5582.246818 kJ/mol
# Density = 2.400005 g / cm^3
# Si number density = 24.054798 Si / 1000 Ang^3
#
#
#
# Elastic Constant Matrix: (Units=GPa)
#
#
# Indices 1 2 3 4 5 6 
#
# 1 71.1235 2.2168 -0.2711 0.0000 0.0000 0.0000
# 2 2.2168 71.1221 -0.2716 0.0000 0.0000 0.0000
# 3 -0.2711 -0.2716 84.0493 0.0000 0.0000 0.0000
# 4 0.0000 0.0000 0.0000 -4.6236 0.0000 0.0000
# 5 0.0000 0.0000 0.0000 0.0000 -4.6236 0.0000
# 6 0.0000 0.0000 0.0000 0.0000 0.0000 9.3371
#
#
#
# Elastic Compliance Matrix: (Units=1/GPa)
#
#
# Indices 1 2 3 4 5 6 
#
# 1 0.014074 -0.000438 0.000044 0.000000 0.000000 0.000000
# 2 -0.000438 0.014074 0.000044 0.000000 0.000000 0.000000
# 3 0.000044 0.000044 0.011898 0.000000 0.000000 0.000000
# 4 0.000000 0.000000 0.000000 -0.216283 0.000000 0.000000
# 5 0.000000 0.000000 0.000000 0.000000 -0.216282 0.000000
# 6 0.000000 0.000000 0.000000 0.000000 0.000000 0.107100
#
#
# Mechanical properties :
#
#
# Convention : Reuss Voigt Hill
#
# Bulk Modulus (GPa) = 25.41607 25.51591 25.46599
# Shear Modulus (GPa) = -18.40927 14.99270 -1.70828
#
# Velocity S-wave (km/s) = -2.76942 2.49925 -0.84363
# Velocity P-wave (km/s) = 0.60218 4.35417 3.10817
#
# Compressibility (1/GPa) = 0.03934518
#
# Stress axis : x y z
#
# Youngs Moduli (GPa) = 71.05363 71.05218 84.04727
#
# Poissons Ratio (x) = 0.03116 -0.00370
# Poissons Ratio (y) = 0.03116 -0.00370
# Poissons Ratio (z) = -0.00312 -0.00313
#
# Static dielectric constant tensor:
#      x y z
#    x 1.966370 0.000000 0.000000 
#    y 0.000000 1.966370 0.000000 
#    z 0.000000 0.000000 1.879780 
# 
# From -- ./inp_files/6149.got.cif
#   From: 2010.05.17/outbox.cif.g08.bks.cpg/sg135_4_cif.got.tgz:6149.got - 2010.05.20 12:50:20.
