data_PCOD9568583
_publ_section_title
;
Structure prediction by ZEFSAII (Michael W. Deem and Ramdas Pophale) SiO2 
 PCOD9568583
Probable space group: P 42/N N M
;
_chemical_formula_sum "Si O2"
_cell_formula_units_Z 96
_cell_length_a 24.000000
_cell_length_b 24.000000
_cell_length_c 9.000000
_cell_angle_alpha 90.000000
_cell_angle_beta 90.000000
_cell_angle_gamma 90.000000
_cell_volume 5184.000000
_symmetry_space_group_name_H-M "P 42/N N M"
_symmetry_group_IT_number 134
_space_group.IT_coordinate_system_code '2'
_symmetry_cell_setting 'tetragonal'
loop_
_space_group_symop_operation_xyz
x,y,z
1/2-y,x,1/2+z
1/2-x,1/2-y,z
y,1/2-x,1/2+z
x,1/2-y,1/2-z
1/2-x,y,1/2-z
y,x,-z
1/2-y,1/2-x,-z
-x,-y,-z
1/2+y,-x,1/2-z
1/2+x,1/2+y,-z
-y,1/2+x,1/2-z
-x,1/2+y,1/2+z
1/2+x,-y,1/2+z
-y,-x,z
1/2+y,1/2+x,z
loop_
_atom_site_type_symbol
_atom_site_label
_atom_site_fract_x
_atom_site_fract_y
_atom_site_fract_z
Si Si1 0.899159 0.305683 0.330550
Si Si2 0.589002 0.585975 0.829794
Si Si3 0.337060 0.003629 0.852905
Si Si4 0.192152 0.026297 0.322626
Si Si5 0.987612 0.012389 0.753442
Si Si6 0.560689 0.060689 0.024131
Si Si7 0.309193 0.901800 0.312457
O O1 0.876160 0.250000 0.250000
O O2 0.858681 0.358681 0.298147
O O3 0.904003 0.302695 0.508755
O O4 0.961864 0.311273 0.267166
O O5 0.552887 0.630939 0.735522
O O6 0.641901 0.565377 0.734165
O O7 0.549795 0.531070 0.840053
O O8 0.602716 0.602716 0.000000
O O9 0.379311 0.960829 0.934133
O O10 0.303821 0.025495 0.997212
O O11 0.250000 0.045173 0.250000
O O12 0.182709 0.963533 0.256997
O O13 0.949917 0.050084 0.647925
O O14 0.022726 0.977275 0.632898
O O15 0.250000 0.880825 0.250000
O O16 0.359567 0.859567 0.277268
#
# Coordination Sequence:
#
# PCOD9568583 Si02
#       7
#    16  16  16  16   8   8  16
#     4  11  23  39  58  82 114 152 200 251 297 346
#     4  11  22  35  56  86 118 151 194 236 294 356
#     4  11  21  37  59  82 113 150 195 242 293 345
#     4  11  23  38  57  83 118 155 190 234 291 356
#     4   9  17  30  50  82 116 146 183 235 282 354
#     4   9  16  30  52  82 107 140 191 229 287 344
#     4  10  23  39  55  77 105 147 198 248 298 345
#
# _framework density 18.518519000000001
#
# number of rings (size 3 to 8) (size 9 to 14) (size 15 to 20)
#    0.000    1.500    2.500    3.750    2.333    2.333 
#    0.000    1.667    0.000    0.000    0.000    0.000 
#    0.000   14.000    0.000    0.000    0.000    0.000 
#
# Total GULP energy -535451.011270 kJ/mol
# GULP energy per Si atom -5577.614701 kJ/mol
# Density = 1.847637 g / cm^3
# Si number density = 18.518519 Si / 1000 Ang^3
#
#
#
# Elastic Constant Matrix: (Units=GPa)
#
#
# Indices 1 2 3 4 5 6 
#
# 1 73.3077 47.5507 40.2091 0.0000 0.0000 0.0000
# 2 47.5507 73.3077 40.2091 0.0000 0.0000 0.0000
# 3 40.2091 40.2091 132.8885 0.0000 0.0000 0.0000
# 4 0.0000 0.0000 0.0000 0.1831 0.0000 0.0000
# 5 0.0000 0.0000 0.0000 0.0000 0.1831 0.0000
# 6 0.0000 0.0000 0.0000 0.0000 0.0000 21.0690
#
#
#
# Elastic Compliance Matrix: (Units=1/GPa)
#
#
# Indices 1 2 3 4 5 6 
#
# 1 0.024592 -0.014232 -0.003135 0.000000 0.000000 0.000000
# 2 -0.014232 0.024592 -0.003135 0.000000 0.000000 0.000000
# 3 -0.003135 -0.003135 0.009422 0.000000 0.000000 0.000000
# 4 0.000000 0.000000 0.000000 5.460632 0.000000 0.000000
# 5 0.000000 0.000000 0.000000 0.000000 5.460632 0.000000
# 6 0.000000 0.000000 0.000000 0.000000 0.000000 0.047463
#
#
# Mechanical properties :
#
#
# Convention : Reuss Voigt Hill
#
# Bulk Modulus (GPa) = 56.80782 59.49353 58.15067
# Shear Modulus (GPa) = 0.45150 14.38939 7.42044
#
# Velocity S-wave (km/s) = 0.49431 2.79054 2.00393
# Velocity P-wave (km/s) = 5.57392 6.52527 6.06827
#
# Compressibility (1/GPa) = 0.01760321
#
# Stress axis : x y z
#
# Youngs Moduli (GPa) = 40.66341 40.66341 106.13365
#
# Poissons Ratio (x) = 0.57873 0.33270
# Poissons Ratio (y) = 0.57873 0.33270
# Poissons Ratio (z) = 0.12747 0.12747
#
# Static dielectric constant tensor:
#      x y z
#    x 1.672210 0.000000 0.000000 
#    y 0.000000 1.672210 0.000000 
#    z 0.000000 0.000000 1.660100 
# 
# From -- ./inp_files/3250.got.cif
#   From: 2010.05.17/outbox.ucp.g08.bks.cvg/sg134_2_cif.got.tgz:3250.got - 2010.06.11 11:39:54.
