data_PCOD9568392
_publ_section_title
;
Structure prediction by ZEFSAII (Michael W. Deem and Ramdas Pophale) SiO2 
 PCOD9568392
Probable space group: P 42/N N M
;
_chemical_formula_sum "Si O2"
_cell_formula_units_Z 72
_cell_length_a 12.522469
_cell_length_b 12.522469
_cell_length_c 26.242271
_cell_angle_alpha 90.000000
_cell_angle_beta 90.000000
_cell_angle_gamma 90.000000
_cell_volume 4115.109032
_symmetry_space_group_name_H-M "P 42/N N M"
_symmetry_group_IT_number 134
_space_group.IT_coordinate_system_code '2'
_symmetry_cell_setting 'tetragonal'
loop_
_space_group_symop_operation_xyz
x,y,z
1/2-y,x,1/2+z
1/2-x,1/2-y,z
y,1/2-x,1/2+z
x,1/2-y,1/2-z
1/2-x,y,1/2-z
y,x,-z
1/2-y,1/2-x,-z
-x,-y,-z
1/2+y,-x,1/2-z
1/2+x,1/2+y,-z
-y,1/2+x,1/2-z
-x,1/2+y,1/2+z
1/2+x,-y,1/2+z
-y,-x,z
1/2+y,1/2+x,z
loop_
_atom_site_type_symbol
_atom_site_label
_atom_site_fract_x
_atom_site_fract_y
_atom_site_fract_z
Si Si1 0.250000 0.569548 0.750000
Si Si2 0.185684 0.515463 0.203423
Si Si3 0.255541 0.575090 0.096441
Si Si4 0.850402 0.670663 0.058041
Si Si5 0.522246 0.651594 0.653417
O O1 0.146451 0.646451 0.746921
O O2 0.238397 0.503193 0.802669
O O3 0.250000 0.468513 0.250000
O O4 0.115956 0.615956 0.221941
O O5 0.258590 0.555370 0.157138
O O6 0.104246 0.430469 0.180026
O O7 0.360490 0.639511 0.079452
O O8 0.154011 0.654011 0.087779
O O9 0.230670 0.460124 0.072955
O O10 0.750000 0.750000 0.059435
O O11 0.824385 0.578394 0.099523
O O12 0.866512 0.633489 0.000000
O O13 0.413172 0.586829 0.643124
#
# Coordination Sequence:
#
# PCOD9568392 Si02
#       5
#     8  16  16  16  16
#     4   9  18  34  53  74 104 136 173 226 276 323
#     4   9  16  26  43  69 100 129 158 196 246 308
#     4   9  18  33  53  76 102 134 172 215 263 313
#     4  10  21  37  54  76 106 140 178 223 276 328
#     4   9  19  34  51  72  98 135 177 215 264 321
#
# _framework density 17.496497000000002
#
# number of rings (size 3 to 8) (size 9 to 14) (size 15 to 20)
#    0.000    2.778    0.000    2.667    0.000    6.444 
#    0.000    6.667    0.000    2.667    0.000    0.000 
#    0.000    0.000    0.000    0.000    0.000    0.000 
#
# Total GULP energy -400831.063080 kJ/mol
# GULP energy per Si atom -5567.098098 kJ/mol
# Density = 1.745667 g / cm^3
# Si number density = 17.496497 Si / 1000 Ang^3
#
#
#
# Elastic Constant Matrix: (Units=GPa)
#
#
# Indices 1 2 3 4 5 6 
#
# 1 63.0827 21.2625 40.7887 0.0000 0.0000 0.0000
# 2 21.2625 63.0826 40.7887 0.0000 0.0000 0.0000
# 3 40.7887 40.7887 125.4876 0.0000 0.0000 0.0000
# 4 0.0000 0.0000 0.0000 20.8920 0.0000 0.0000
# 5 0.0000 0.0000 0.0000 0.0000 20.8921 0.0000
# 6 0.0000 0.0000 0.0000 0.0000 0.0000 12.6156
#
#
#
# Elastic Compliance Matrix: (Units=1/GPa)
#
#
# Indices 1 2 3 4 5 6 
#
# 1 0.020602 -0.003310 -0.005621 0.000000 0.000000 0.000000
# 2 -0.003310 0.020602 -0.005621 0.000000 0.000000 0.000000
# 3 -0.005621 -0.005621 0.011623 0.000000 0.000000 0.000000
# 4 0.000000 0.000000 0.000000 0.047865 0.000000 0.000000
# 5 0.000000 0.000000 0.000000 0.000000 0.047865 0.000000
# 6 0.000000 0.000000 0.000000 0.000000 0.000000 0.079267
#
#
# Mechanical properties :
#
#
# Convention : Reuss Voigt Hill
#
# Bulk Modulus (GPa) = 42.15032 50.81475 46.48254
# Shear Modulus (GPa) = 18.87966 20.80079 19.84023
#
# Velocity S-wave (km/s) = 3.28846 3.45172 3.37108
# Velocity P-wave (km/s) = 6.20980 6.70758 6.46349
#
# Compressibility (1/GPa) = 0.02372461
#
# Stress axis : x y z
#
# Youngs Moduli (GPa) = 48.53867 48.53857 86.03734
#
# Poissons Ratio (x) = 0.16065 0.48359
# Poissons Ratio (y) = 0.16065 0.48359
# Poissons Ratio (z) = 0.27282 0.27282
#
# Static dielectric constant tensor:
#      x y z
#    x 1.604690 0.000000 0.000000 
#    y 0.000000 1.604690 0.000000 
#    z 0.000000 0.000000 1.608350 
# 
# From -- ./inp_files/10590.got.cif
#   From: 2010.05.17/outbox.cif.g08.bks.cpg/sg134_6_cif.got.tgz:10590.got - 2010.05.20 12:42:49.
