data_PCOD9568270
_publ_section_title
;
Structure prediction by ZEFSAII (Michael W. Deem and Ramdas Pophale) SiO2 
 PCOD9568270
Probable space group: P 42/N N M
;
_chemical_formula_sum "Si O2"
_cell_formula_units_Z 120
_cell_length_a 14.230234
_cell_length_b 14.230234
_cell_length_c 31.103865
_cell_angle_alpha 90.000000
_cell_angle_beta 90.000000
_cell_angle_gamma 90.000000
_cell_volume 6298.518967
_symmetry_space_group_name_H-M "P 42/N N M"
_symmetry_group_IT_number 134
_space_group.IT_coordinate_system_code '2'
_symmetry_cell_setting 'tetragonal'
loop_
_space_group_symop_operation_xyz
x,y,z
1/2-y,x,1/2+z
1/2-x,1/2-y,z
y,1/2-x,1/2+z
x,1/2-y,1/2-z
1/2-x,y,1/2-z
y,x,-z
1/2-y,1/2-x,-z
-x,-y,-z
1/2+y,-x,1/2-z
1/2+x,1/2+y,-z
-y,1/2+x,1/2-z
-x,1/2+y,1/2+z
1/2+x,-y,1/2+z
-y,-x,z
1/2+y,1/2+x,z
loop_
_atom_site_type_symbol
_atom_site_label
_atom_site_fract_x
_atom_site_fract_y
_atom_site_fract_z
Si Si1 0.107736 0.455442 0.701023
Si Si2 0.157819 0.004410 0.003685
Si Si3 0.247939 0.908372 0.416348
Si Si4 0.100636 0.750000 0.250000
Si Si5 0.256055 0.598573 0.566779
Si Si6 0.575031 0.576494 0.700069
Si Si7 0.275762 0.470466 0.169823
Si Si8 0.927219 0.221119 0.332458
O O1 0.111648 0.425008 0.750737
O O2 0.100783 0.363692 0.670962
O O3 0.189597 0.530584 0.691941
O O4 0.011285 0.511285 0.694040
O O5 0.221394 0.987134 0.961671
O O6 0.103456 0.103456 0.000000
O O7 0.074109 0.925892 0.004791
O O8 0.223871 0.977629 0.044287
O O9 0.147636 0.852365 0.419197
O O10 0.325998 0.825998 0.416685
O O11 0.262064 0.967366 0.372623
O O12 0.168587 0.831414 0.266983
O O13 0.038504 0.710993 0.288766
O O14 0.357025 0.642976 0.555154
O O15 0.180225 0.680225 0.557858
O O16 0.254371 0.582106 0.617552
O O17 0.526571 0.473430 0.699813
O O18 0.677434 0.578452 0.680358
O O19 0.506020 0.642529 0.673728
O O20 0.829562 0.170439 0.318312
#
# Coordination Sequence:
#
# PCOD9568270 Si02
#       8
#    16  16  16   8  16  16  16  16
#     4  11  22  36  58  85 117 152 192 245 300 355
#     4   9  18  31  51  80 115 148 183 233 300 368
#     4  10  20  33  51  80 117 154 194 241 295 358
#     4  11  20  32  52  79 114 156 200 241 282 335
#     4   9  17  32  55  81 109 143 184 236 298 362
#     4  10  21  39  57  79 114 157 200 245 294 346
#     4  12  22  35  55  83 117 157 198 239 287 349
#     4  10  22  38  58  82 110 150 200 250 301 354
#
# _framework density 19.052098000000001
#
# number of rings (size 3 to 8) (size 9 to 14) (size 15 to 20)
#    0.000    1.800    1.333    3.600    1.867    4.000 
#    0.000    2.000    0.000    5.600    0.000    4.667 
#    0.000    0.000    0.000    0.000    0.000    0.000 
#
# Total GULP energy -669080.328402 kJ/mol
# GULP energy per Si atom -5575.669403 kJ/mol
# Density = 1.900873 g / cm^3
# Si number density = 19.052098 Si / 1000 Ang^3
#
#
#
# Elastic Constant Matrix: (Units=GPa)
#
#
# Indices 1 2 3 4 5 6 
#
# 1 60.6952 40.1336 13.8607 0.0000 0.0000 0.0000
# 2 40.1336 60.6952 13.8607 0.0000 0.0000 0.0000
# 3 13.8607 13.8607 38.6966 0.0000 0.0000 0.0000
# 4 0.0000 0.0000 0.0000 33.3569 0.0000 0.0000
# 5 0.0000 0.0000 0.0000 0.0000 33.3569 0.0000
# 6 0.0000 0.0000 0.0000 0.0000 0.0000 29.1572
#
#
#
# Elastic Compliance Matrix: (Units=1/GPa)
#
#
# Indices 1 2 3 4 5 6 
#
# 1 0.029818 -0.018817 -0.003941 0.000000 0.000000 0.000000
# 2 -0.018817 0.029818 -0.003941 0.000000 0.000000 0.000000
# 3 -0.003941 -0.003941 0.028665 0.000000 0.000000 0.000000
# 4 0.000000 0.000000 0.000000 0.029979 0.000000 0.000000
# 5 0.000000 0.000000 0.000000 0.000000 0.029979 0.000000
# 6 0.000000 0.000000 0.000000 0.000000 0.000000 0.034297
#
#
# Mechanical properties :
#
#
# Convention : Reuss Voigt Hill
#
# Bulk Modulus (GPa) = 28.64897 32.86635 30.75766
# Shear Modulus (GPa) = 20.19509 25.32300 22.75904
#
# Velocity S-wave (km/s) = 3.25928 3.64970 3.46000
# Velocity P-wave (km/s) = 5.40682 5.92019 5.66932
#
# Compressibility (1/GPa) = 0.03490527
#
# Stress axis : x y z
#
# Youngs Moduli (GPa) = 33.53712 33.53712 34.88583
#
# Poissons Ratio (x) = 0.63105 0.13747
# Poissons Ratio (y) = 0.63105 0.13747
# Poissons Ratio (z) = 0.13215 0.13215
#
# Static dielectric constant tensor:
#      x y z
#    x 1.692190 0.000000 0.000000 
#    y 0.000000 1.692190 0.000000 
#    z 0.000000 0.000000 1.655420 
# 
# From -- ./inp_files/11735.got.cif
#   From: 2010.05.17/outbox.cif.g08.bks.cpg/sg134_6_cif.got.tgz:11735.got - 2010.05.20 12:42:49.
