data_PCOD9568237
_publ_section_title
;
Structure prediction by ZEFSAII (Michael W. Deem and Ramdas Pophale) SiO2 
 PCOD9568237
Probable space group: P 42/N N M
;
_chemical_formula_sum "Si O2"
_cell_formula_units_Z 56
_cell_length_a 17.010211
_cell_length_b 17.010211
_cell_length_c 9.874795
_cell_angle_alpha 90.000000
_cell_angle_beta 90.000000
_cell_angle_gamma 90.000000
_cell_volume 2857.245057
_symmetry_space_group_name_H-M "P 42/N N M"
_symmetry_group_IT_number 134
_space_group.IT_coordinate_system_code '2'
_symmetry_cell_setting 'tetragonal'
loop_
_space_group_symop_operation_xyz
x,y,z
1/2-y,x,1/2+z
1/2-x,1/2-y,z
y,1/2-x,1/2+z
x,1/2-y,1/2-z
1/2-x,y,1/2-z
y,x,-z
1/2-y,1/2-x,-z
-x,-y,-z
1/2+y,-x,1/2-z
1/2+x,1/2+y,-z
-y,1/2+x,1/2-z
-x,1/2+y,1/2+z
1/2+x,-y,1/2+z
-y,-x,z
1/2+y,1/2+x,z
loop_
_atom_site_type_symbol
_atom_site_label
_atom_site_fract_x
_atom_site_fract_y
_atom_site_fract_z
Si Si1 0.057102 0.428459 0.768941
Si Si2 0.953198 0.780046 0.598050
Si Si3 0.304481 0.570700 0.377583
Si Si4 0.639652 0.860349 0.500000
O O1 0.127868 0.440160 0.874928
O O2 0.093232 0.392768 0.631147
O O3 0.009435 0.509435 0.746417
O O4 0.994955 0.365868 0.825005
O O5 0.965984 0.750000 0.750000
O O6 0.881955 0.730402 0.530684
O O7 0.028027 0.763295 0.503194
O O8 0.250000 0.589516 0.250000
O O9 0.353512 0.646489 0.420728
#
# Coordination Sequence:
#
# PCOD9568237 Si02
#       4
#    16  16  16   8
#     4  10  20  36  62  89 120 164 212 258 305 376
#     4  10  21  37  60  91 128 160 209 256 318 383
#     4  11  22  40  63  87 120 160 211 265 311 375
#     4  10  19  36  59  90 132 162 198 258 320 380
#
# _framework density 19.599299999999999
#
# number of rings (size 3 to 8) (size 9 to 14) (size 15 to 20)
#    0.000    1.714    2.857    2.143    0.000    2.571 
#    0.000    4.286    0.000    0.000    0.000    0.000 
#    0.000    0.000    0.000    0.000    0.000    0.000 
#
# Total GULP energy -312506.551556 kJ/mol
# GULP energy per Si atom -5580.474135 kJ/mol
# Density = 1.955469 g / cm^3
# Si number density = 19.599300 Si / 1000 Ang^3
#
#
#
# Elastic Constant Matrix: (Units=GPa)
#
#
# Indices 1 2 3 4 5 6 
#
# 1 216.9449 -128.7664 10.3241 0.0000 0.0000 0.0000
# 2 -128.7664 216.9430 10.3197 0.0000 0.0000 0.0000
# 3 10.3241 10.3197 96.5360 0.0000 0.0000 0.0000
# 4 0.0000 0.0000 0.0000 19.8050 0.0000 0.0000
# 5 0.0000 0.0000 0.0000 0.0000 19.8054 0.0000
# 6 0.0000 0.0000 0.0000 0.0000 0.0000 32.0798
#
#
#
# Elastic Compliance Matrix: (Units=1/GPa)
#
#
# Indices 1 2 3 4 5 6 
#
# 1 0.007262 0.004370 -0.001244 0.000000 0.000000 0.000000
# 2 0.004370 0.007262 -0.001244 0.000000 0.000000 0.000000
# 3 -0.001244 -0.001244 0.010625 0.000000 0.000000 0.000000
# 4 0.000000 0.000000 0.000000 0.050492 0.000000 0.000000
# 5 0.000000 0.000000 0.000000 0.000000 0.050491 0.000000
# 6 0.000000 0.000000 0.000000 0.000000 0.000000 0.031172
#
#
# Mechanical properties :
#
#
# Convention : Reuss Voigt Hill
#
# Bulk Modulus (GPa) = 34.58561 34.90877 34.74719
# Shear Modulus (GPa) = 30.64126 56.90780 43.77453
#
# Velocity S-wave (km/s) = 3.95826 5.39432 4.73109
# Velocity P-wave (km/s) = 6.21088 7.52649 6.90011
#
# Compressibility (1/GPa) = 0.02891376
#
# Stress axis : x y z
#
# Youngs Moduli (GPa) = 137.69849 137.69790 94.11951
#
# Poissons Ratio (x) = -0.60169 0.11706
# Poissons Ratio (y) = -0.60170 0.11705
# Poissons Ratio (z) = 0.17127 0.17125
#
# Static dielectric constant tensor:
#      x y z
#    x 1.703840 0.000000 0.000000 
#    y 0.000000 1.703850 0.000000 
#    z 0.000000 0.000000 1.691320 
# 
# From -- ./inp_files/2349.got.cif
#   From: 2010.05.17/outbox.cif.g08.bks.cpg/sg134_2_cif.got.tgz:2349.got - 2010.05.20 12:42:49.
