data_PCOD9568983
_publ_section_title
;
Structure prediction by ZEFSAII (Michael W. Deem and Ramdas Pophale) SiO2 
 PCOD9568983
Probable space group: P 42/M B C
;
_chemical_formula_sum "Si O2"
_cell_formula_units_Z 84
_cell_length_a 10.802591
_cell_length_b 10.802591
_cell_length_c 32.068170
_cell_angle_alpha 90.000000
_cell_angle_beta 90.000000
_cell_angle_gamma 90.000000
_cell_volume 3742.226278
_symmetry_space_group_name_H-M "P 42/M B C"
_symmetry_group_IT_number 135
_symmetry_cell_setting 'tetragonal'
loop_
_space_group_symop_operation_xyz
x,y,z
-y,x,1/2+z
-x,-y,z
y,-x,1/2+z
1/2+x,1/2-y,-z
1/2-x,1/2+y,-z
1/2+y,1/2+x,1/2-z
1/2-y,1/2-x,1/2-z
-x,-y,-z
y,-x,1/2-z
x,y,-z
-y,x,1/2-z
1/2-x,1/2+y,z
1/2+x,1/2-y,z
1/2-y,1/2-x,1/2+z
1/2+y,1/2+x,1/2+z
loop_
_atom_site_type_symbol
_atom_site_label
_atom_site_fract_x
_atom_site_fract_y
_atom_site_fract_z
Si Si1 0.000000 0.000000 0.250000
Si Si2 0.786835 0.465162 0.898236
Si Si3 0.461220 0.816143 0.883608
Si Si4 0.287364 0.596339 0.186847
Si Si5 0.914153 0.880002 0.953824
Si Si6 0.850830 0.648120 0.201121
O O1 0.104936 0.058422 0.219597
O O2 0.835879 0.605331 0.894414
O O3 0.688028 0.426255 0.862187
O O4 0.721780 0.427893 0.940811
O O5 0.911644 0.388680 0.890629
O O6 0.462900 0.709133 0.917608
O O7 0.449137 0.802027 0.833098
O O8 0.182673 0.492184 0.190611
O O9 0.252296 0.738806 0.195693
O O10 0.914178 0.822516 0.000000
O O11 0.000000 0.000000 0.954502
O O12 0.867005 0.632996 0.250000
#
# Coordination Sequence:
#
# PCOD9568983 Si02
#       6
#     4  16  16  16  16  16
#     4  12  24  40  64 100 134 184 244 296 352 424
#     4  10  24  46  72 102 142 188 238 291 370 438
#     4  10  24  47  72 104 141 189 238 298 367 438
#     4  11  24  41  68  98 139 185 240 292 360 423
#     4  11  26  45  73 110 143 186 242 305 373 448
#     4  11  23  44  67 104 141 191 238 301 356 437
#
# _framework density 22.446532000000001
#
# number of rings (size 3 to 8) (size 9 to 14) (size 15 to 20)
#    0.000    1.333    3.810    0.000    4.000    4.571 
#    0.000    8.571    0.000    0.000    0.000    0.000 
#    0.000    0.000    0.000    0.000    0.000    0.000 
#
# Total GULP energy -467962.686706 kJ/mol
# GULP energy per Si atom -5570.984366 kJ/mol
# Density = 2.239544 g / cm^3
# Si number density = 22.446532 Si / 1000 Ang^3
#
#
#
# Elastic Constant Matrix: (Units=GPa)
#
#
# Indices 1 2 3 4 5 6 
#
# 1 73.4491 7.2748 43.9295 0.0000 0.0000 0.0000
# 2 7.2748 73.4490 43.9295 0.0000 0.0000 0.0000
# 3 43.9295 43.9295 160.9101 0.0000 0.0000 0.0000
# 4 0.0000 0.0000 0.0000 82.7628 0.0000 0.0000
# 5 0.0000 0.0000 0.0000 0.0000 82.7512 0.0000
# 6 0.0000 0.0000 0.0000 0.0000 0.0000 10.4857
#
#
#
# Elastic Compliance Matrix: (Units=1/GPa)
#
#
# Indices 1 2 3 4 5 6 
#
# 1 0.016368 0.001257 -0.004812 0.000000 0.000000 0.000000
# 2 0.001257 0.016368 -0.004812 0.000000 0.000000 0.000000
# 3 -0.004812 -0.004812 0.008842 0.000000 0.000000 0.000000
# 4 0.000000 0.000000 0.000000 0.012083 0.000000 0.000000
# 5 0.000000 0.000000 0.000000 0.000000 0.012084 0.000000
# 6 0.000000 0.000000 0.000000 0.000000 0.000000 0.095368
#
#
# Mechanical properties :
#
#
# Convention : Reuss Voigt Hill
#
# Bulk Modulus (GPa) = 40.24966 55.34175 47.79571
# Shear Modulus (GPa) = 26.86317 49.37823 38.12070
#
# Velocity S-wave (km/s) = 3.46318 4.69531 4.12550
# Velocity P-wave (km/s) = 5.82767 7.35547 6.63569
#
# Compressibility (1/GPa) = 0.02484493
#
# Stress axis : x y z
#
# Youngs Moduli (GPa) = 61.09375 61.09368 113.09757
#
# Poissons Ratio (x) = -0.07678 0.54420
# Poissons Ratio (y) = -0.07678 0.54420
# Poissons Ratio (z) = 0.29397 0.29397
#
# Static dielectric constant tensor:
#      x y z
#    x 1.889670 0.000000 0.000000 
#    y 0.000000 1.889670 0.000000 
#    z 0.000000 0.000000 1.936060 
# 
# From -- ./inp_files/6790.got.cif
#   From: 2010.05.17/outbox.cif.g08.bks.cpg/sg135_4_cif.got.tgz:6790.got - 2010.05.20 12:50:20.
