data_PCOD9568340
_publ_section_title
;
Structure prediction by ZEFSAII (Michael W. Deem and Ramdas Pophale) SiO2 
 PCOD9568340
Probable space group: P 42/N N M
;
_chemical_formula_sum "Si O2"
_cell_formula_units_Z 64
_cell_length_a 11.734545
_cell_length_b 11.734545
_cell_length_c 23.658879
_cell_angle_alpha 90.000000
_cell_angle_beta 90.000000
_cell_angle_gamma 90.000000
_cell_volume 3257.816906
_symmetry_space_group_name_H-M "P 42/N N M"
_symmetry_group_IT_number 134
_space_group.IT_coordinate_system_code '2'
_symmetry_cell_setting 'tetragonal'
loop_
_space_group_symop_operation_xyz
x,y,z
1/2-y,x,1/2+z
1/2-x,1/2-y,z
y,1/2-x,1/2+z
x,1/2-y,1/2-z
1/2-x,y,1/2-z
y,x,-z
1/2-y,1/2-x,-z
-x,-y,-z
1/2+y,-x,1/2-z
1/2+x,1/2+y,-z
-y,1/2+x,1/2-z
-x,1/2+y,1/2+z
1/2+x,-y,1/2+z
-y,-x,z
1/2+y,1/2+x,z
loop_
_atom_site_type_symbol
_atom_site_label
_atom_site_fract_x
_atom_site_fract_y
_atom_site_fract_z
Si Si1 0.940059 0.252753 0.635030
Si Si2 0.676951 0.633044 0.935915
Si Si3 0.656144 0.975486 0.327988
Si Si4 0.592792 0.910098 0.794907
O O1 0.841208 0.158793 0.631791
O O2 0.871858 0.371858 0.645966
O O3 0.016789 0.256134 0.578535
O O4 0.031577 0.206816 0.681239
O O5 0.750000 0.750000 0.927584
O O6 0.579664 0.627832 0.888140
O O7 0.634852 0.634852 0.000000
O O8 0.788382 0.945061 0.319138
O O9 0.601532 0.916288 0.272568
O O10 0.603826 0.103826 0.326463
O O11 0.495650 0.995650 0.813970
#
# Coordination Sequence:
#
# PCOD9568340 Si02
#       4
#    16  16  16  16
#     4  10  21  40  65  92 125 163 200 248 312 371
#     4  11  23  41  62  88 117 161 209 254 303 352
#     4  10  20  36  61  89 121 164 202 248 312 366
#     4   9  19  37  59  91 127 157 200 252 306 374
#
# _framework density 19.645057999999999
#
# number of rings (size 3 to 8) (size 9 to 14) (size 15 to 20)
#    0.000    2.000    2.500    0.750    0.000    3.500 
#    0.000   10.000    0.000    7.500    0.000    0.000 
#    0.000    0.000    0.000    0.000    0.000    0.000 
#
# Total GULP energy -356323.426874 kJ/mol
# GULP energy per Si atom -5567.553545 kJ/mol
# Density = 1.960035 g / cm^3
# Si number density = 19.645058 Si / 1000 Ang^3
#
#
#
# Elastic Constant Matrix: (Units=GPa)
#
#
# Indices 1 2 3 4 5 6 
#
# 1 125.5937 67.2320 44.3198 0.0000 0.0000 0.0000
# 2 67.2320 125.5937 44.3198 0.0000 0.0000 0.0000
# 3 44.3198 44.3198 121.8361 0.0000 0.0000 0.0000
# 4 0.0000 0.0000 0.0000 19.9973 0.0000 0.0000
# 5 0.0000 0.0000 0.0000 0.0000 19.9973 0.0000
# 6 0.0000 0.0000 0.0000 0.0000 0.0000 22.2016
#
#
#
# Elastic Compliance Matrix: (Units=1/GPa)
#
#
# Indices 1 2 3 4 5 6 
#
# 1 0.011681 -0.005454 -0.002265 0.000000 0.000000 0.000000
# 2 -0.005454 0.011681 -0.002265 0.000000 0.000000 0.000000
# 3 -0.002265 -0.002265 0.009856 0.000000 0.000000 0.000000
# 4 0.000000 0.000000 0.000000 0.050007 0.000000 0.000000
# 5 0.000000 0.000000 0.000000 0.000000 0.050007 0.000000
# 6 0.000000 0.000000 0.000000 0.000000 0.000000 0.045042
#
#
# Mechanical properties :
#
#
# Convention : Reuss Voigt Hill
#
# Bulk Modulus (GPa) = 75.47544 76.08521 75.78032
# Shear Modulus (GPa) = 24.67215 26.91605 25.79410
#
# Velocity S-wave (km/s) = 3.54771 3.70553 3.62747
# Velocity P-wave (km/s) = 7.43536 7.55790 7.49688
#
# Compressibility (1/GPa) = 0.01324934
#
# Stress axis : x y z
#
# Youngs Moduli (GPa) = 85.60953 85.60953 101.46287
#
# Poissons Ratio (x) = 0.46688 0.22984
# Poissons Ratio (y) = 0.46688 0.22984
# Poissons Ratio (z) = 0.19393 0.19393
#
# Static dielectric constant tensor:
#      x y z
#    x 1.769080 0.000000 0.000000 
#    y 0.000000 1.769080 0.000000 
#    z 0.000000 0.000000 1.673430 
# 
# From -- ./inp_files/8704.got.cif
#   From: 2010.05.17/outbox.cif.g08.bks.cpg/sg134_5_cif.got.tgz:8704.got - 2010.05.20 12:42:49.
