data_PCOD9568424
_publ_section_title
;
Structure prediction by ZEFSAII (Michael W. Deem and Ramdas Pophale) SiO2 
 PCOD9568424
Probable space group: P 42/N N M
;
_chemical_formula_sum "Si O2"
_cell_formula_units_Z 96
_cell_length_a 14.271911
_cell_length_b 14.271911
_cell_length_c 22.401538
_cell_angle_alpha 90.000000
_cell_angle_beta 90.000000
_cell_angle_gamma 90.000000
_cell_volume 4562.912008
_symmetry_space_group_name_H-M "P 42/N N M"
_symmetry_group_IT_number 134
_space_group.IT_coordinate_system_code '2'
_symmetry_cell_setting 'tetragonal'
loop_
_space_group_symop_operation_xyz
x,y,z
1/2-y,x,1/2+z
1/2-x,1/2-y,z
y,1/2-x,1/2+z
x,1/2-y,1/2-z
1/2-x,y,1/2-z
y,x,-z
1/2-y,1/2-x,-z
-x,-y,-z
1/2+y,-x,1/2-z
1/2+x,1/2+y,-z
-y,1/2+x,1/2-z
-x,1/2+y,1/2+z
1/2+x,-y,1/2+z
-y,-x,z
1/2+y,1/2+x,z
loop_
_atom_site_type_symbol
_atom_site_label
_atom_site_fract_x
_atom_site_fract_y
_atom_site_fract_z
Si Si1 0.638642 0.989000 0.248546
Si Si2 0.342190 0.995663 0.290042
Si Si3 0.271926 0.155387 0.063600
Si Si4 0.965311 0.885688 0.608158
Si Si5 0.096768 0.756157 0.955330
Si Si6 0.844435 0.010667 0.928723
O O1 0.750000 0.996093 0.250000
O O2 0.583848 0.083848 0.267106
O O3 0.590890 0.903611 0.284656
O O4 0.616476 0.972392 0.179052
O O5 0.250000 0.000583 0.250000
O O6 0.318913 0.975653 0.359312
O O7 0.412824 0.912824 0.269515
O O8 0.250000 0.250000 0.098965
O O9 0.357537 0.100477 0.092096
O O10 0.177911 0.096678 0.058843
O O11 0.313426 0.186575 0.000000
O O12 0.010413 0.789617 0.581141
O O13 0.029692 0.970309 0.584839
O O14 0.150198 0.849803 0.931293
O O15 0.175641 0.675641 0.956251
O O16 0.064247 0.781846 0.022217
O O17 0.948982 0.051019 0.935726
#
# Coordination Sequence:
#
# PCOD9568424 Si02
#       6
#    16  16  16  16  16  16
#     4  10  23  41  62  90 121 158 212 260 310 376
#     4  10  22  40  61  90 126 166 212 259 305 373
#     4  11  23  38  58  92 126 154 200 251 299 368
#     4  10  21  39  62  88 121 162 206 259 310 359
#     4   9  18  34  58  90 123 159 205 250 306 377
#     4  10  21  39  60  85 122 163 203 249 307 368
#
# _framework density 21.039196
#
# number of rings (size 3 to 8) (size 9 to 14) (size 15 to 20)
#    0.000    2.000    1.667    1.000    2.333    3.000 
#    0.000    5.833    0.000    0.000    0.000    0.000 
#    0.000    0.000    0.000    0.000    0.000    0.000 
#
# Total GULP energy -535359.677977 kJ/mol
# GULP energy per Si atom -5576.663312 kJ/mol
# Density = 2.099131 g / cm^3
# Si number density = 21.039196 Si / 1000 Ang^3
#
#
#
# Elastic Constant Matrix: (Units=GPa)
#
#
# Indices 1 2 3 4 5 6 
#
# 1 62.6592 65.2037 -3.0762 0.0000 0.0000 0.0000
# 2 65.2037 62.6615 -3.0750 0.0000 0.0000 0.0000
# 3 -3.0762 -3.0750 54.9660 0.0000 0.0000 0.0000
# 4 0.0000 0.0000 0.0000 27.7744 0.0000 0.0000
# 5 0.0000 0.0000 0.0000 0.0000 27.7739 0.0000
# 6 0.0000 0.0000 0.0000 0.0000 0.0000 28.0238
#
#
#
# Elastic Compliance Matrix: (Units=1/GPa)
#
#
# Indices 1 2 3 4 5 6 
#
# 1 -0.192673 0.200511 0.000434 0.000000 0.000000 0.000000
# 2 0.200511 -0.192665 0.000444 0.000000 0.000000 0.000000
# 3 0.000434 0.000444 0.018242 0.000000 0.000000 0.000000
# 4 0.000000 0.000000 0.000000 0.036004 0.000000 0.000000
# 5 0.000000 0.000000 0.000000 0.000000 0.036005 0.000000
# 6 0.000000 0.000000 0.000000 0.000000 0.000000 0.035684
#
#
# Mechanical properties :
#
#
# Convention : Reuss Voigt Hill
#
# Bulk Modulus (GPa) = 28.02600 33.15463 30.59032
# Shear Modulus (GPa) = -7.68892 24.79670 8.55389
#
# Velocity S-wave (km/s) = -1.91377 3.43679 2.01854
# Velocity P-wave (km/s) = 2.90971 5.61618 4.47258
#
# Compressibility (1/GPa) = 0.03568115
#
# Stress axis : x y z
#
# Youngs Moduli (GPa) = -5.19015 -5.19035 54.81808
#
# Poissons Ratio (x) = 1.04072 -0.02379
# Poissons Ratio (y) = 1.04068 -0.02431
# Poissons Ratio (z) = 0.00225 0.00230
#
# Static dielectric constant tensor:
#      x y z
#    x 1.819870 0.000000 0.000000 
#    y 0.000000 1.819870 0.000000 
#    z 0.000000 0.000000 1.759900 
# 
# From -- ./inp_files/9156.got.cif
#   From: 2010.05.17/outbox.cif.g08.bks.cpg/sg134_5_cif.got.tgz:9156.got - 2010.05.20 12:42:49.
