data_PCOD9568756
_publ_section_title
;
Structure prediction by ZEFSAII (Michael W. Deem and Ramdas Pophale) SiO2 
 PCOD9568756
Probable space group: P 42/M B C
;
_chemical_formula_sum "Si O2"
_cell_formula_units_Z 80
_cell_length_a 16.612671
_cell_length_b 16.612671
_cell_length_c 14.525499
_cell_angle_alpha 90.000000
_cell_angle_beta 90.000000
_cell_angle_gamma 90.000000
_cell_volume 4008.759383
_symmetry_space_group_name_H-M "P 42/M B C"
_symmetry_group_IT_number 135
_symmetry_cell_setting 'tetragonal'
loop_
_space_group_symop_operation_xyz
x,y,z
-y,x,1/2+z
-x,-y,z
y,-x,1/2+z
1/2+x,1/2-y,-z
1/2-x,1/2+y,-z
1/2+y,1/2+x,1/2-z
1/2-y,1/2-x,1/2-z
-x,-y,-z
y,-x,1/2-z
x,y,-z
-y,x,1/2-z
1/2-x,1/2+y,z
1/2+x,1/2-y,z
1/2-y,1/2-x,1/2+z
1/2+y,1/2+x,1/2+z
loop_
_atom_site_type_symbol
_atom_site_label
_atom_site_fract_x
_atom_site_fract_y
_atom_site_fract_z
Si Si1 0.600938 0.428518 0.209629
Si Si2 0.638331 0.417464 0.000000
Si Si3 0.243179 0.165530 0.689040
Si Si4 0.434572 0.739963 0.500000
Si Si5 0.333376 0.841836 0.851890
Si Si6 0.081701 0.244296 0.000000
Si Si7 0.299424 0.597921 0.500000
O O1 0.517726 0.392447 0.247998
O O2 0.673766 0.375073 0.248342
O O3 0.597442 0.434919 0.099030
O O4 0.715353 0.473746 0.000000
O O5 0.651804 0.322479 0.000000
O O6 0.322418 0.177583 0.750000
O O7 0.216742 0.255927 0.659710
O O8 0.247098 0.118558 0.593595
O O9 0.412034 0.793430 0.588051
O O10 0.379265 0.656774 0.500000
O O11 0.362037 0.862037 0.750000
O O12 0.402305 0.798291 0.910780
O O13 0.998866 0.194410 0.000000
#
# Coordination Sequence:
#
# PCOD9568756 Si02
#       7
#    16   8  16   8  16   8   8
#     4  11  24  37  54  82 117 156 191 229 289 352
#     4  12  22  35  52  78 114 147 186 227 271 343
#     4  10  20  35  54  77 113 151 189 234 277 333
#     4   9  20  33  52  78 112 147 178 225 278 324
#     4   9  18  36  53  72 107 146 183 228 271 327
#     4  11  22  33  56  82 108 145 183 224 282 341
#     4  10  20  35  54  80 114 148 185 230 281 334
#
# _framework density 19.956299000000001
#
# number of rings (size 3 to 8) (size 9 to 14) (size 15 to 20)
#    0.000    1.800    0.000    6.600    0.000    6.000 
#    0.000    0.000    0.000    0.000    0.000    0.000 
#    0.000  262.400    0.000    0.000    0.000    0.000 
#
# Total GULP energy -446129.369889 kJ/mol
# GULP energy per Si atom -5576.617124 kJ/mol
# Density = 1.991088 g / cm^3
# Si number density = 19.956299 Si / 1000 Ang^3
#
#
#
# Elastic Constant Matrix: (Units=GPa)
#
#
# Indices 1 2 3 4 5 6 
#
# 1 49.3609 38.2253 36.5848 0.0000 0.0000 0.0000
# 2 38.2253 49.3617 36.5854 0.0000 0.0000 0.0000
# 3 36.5848 36.5854 194.6009 0.0000 0.0000 0.0000
# 4 0.0000 0.0000 0.0000 28.0333 0.0000 0.0000
# 5 0.0000 0.0000 0.0000 0.0000 28.0414 0.0000
# 6 0.0000 0.0000 0.0000 0.0000 0.0000 22.4202
#
#
#
# Elastic Compliance Matrix: (Units=1/GPa)
#
#
# Indices 1 2 3 4 5 6 
#
# 1 0.051672 -0.038127 -0.002546 0.000000 0.000000 0.000000
# 2 -0.038127 0.051671 -0.002546 0.000000 0.000000 0.000000
# 3 -0.002546 -0.002546 0.006096 0.000000 0.000000 0.000000
# 4 0.000000 0.000000 0.000000 0.035672 0.000000 0.000000
# 5 0.000000 0.000000 0.000000 0.000000 0.035662 0.000000
# 6 0.000000 0.000000 0.000000 0.000000 0.000000 0.044603
#
#
# Mechanical properties :
#
#
# Convention : Reuss Voigt Hill
#
# Bulk Modulus (GPa) = 43.47882 57.34605 50.41244
# Shear Modulus (GPa) = 15.65036 27.82753 21.73894
#
# Velocity S-wave (km/s) = 2.80345 3.73825 3.30408
# Velocity P-wave (km/s) = 5.68449 6.88701 6.31444
#
# Compressibility (1/GPa) = 0.02299970
#
# Stress axis : x y z
#
# Youngs Moduli (GPa) = 19.35285 19.35316 164.03755
#
# Poissons Ratio (x) = 0.73788 0.41769
# Poissons Ratio (y) = 0.73787 0.41771
# Poissons Ratio (z) = 0.04928 0.04928
#
# Static dielectric constant tensor:
#      x y z
#    x 1.707590 0.000000 0.000000 
#    y 0.000000 1.707590 0.000000 
#    z 0.000000 0.000000 1.788280 
# 
# From -- ./inp_files/3488.got.cif
#   From: 2010.05.17/outbox.cif.g08.bks.cpg/sg135_2_cif.got.tgz:3488.got - 2010.05.20 12:50:20.
