data_PCOD9568691
_publ_section_title
;
Structure prediction by ZEFSAII (Michael W. Deem and Ramdas Pophale) SiO2 
 PCOD9568691
Probable space group: P 42/M B C
;
_chemical_formula_sum "Si O2"
_cell_formula_units_Z 96
_cell_length_a 23.188030
_cell_length_b 23.188030
_cell_length_c 8.521826
_cell_angle_alpha 90.000000
_cell_angle_beta 90.000000
_cell_angle_gamma 90.000000
_cell_volume 4582.055757
_symmetry_space_group_name_H-M "P 42/M B C"
_symmetry_group_IT_number 135
_symmetry_cell_setting 'tetragonal'
loop_
_space_group_symop_operation_xyz
x,y,z
-y,x,1/2+z
-x,-y,z
y,-x,1/2+z
1/2+x,1/2-y,-z
1/2-x,1/2+y,-z
1/2+y,1/2+x,1/2-z
1/2-y,1/2-x,1/2-z
-x,-y,-z
y,-x,1/2-z
x,y,-z
-y,x,1/2-z
1/2-x,1/2+y,z
1/2+x,1/2-y,z
1/2-y,1/2-x,1/2+z
1/2+y,1/2+x,1/2+z
loop_
_atom_site_type_symbol
_atom_site_label
_atom_site_fract_x
_atom_site_fract_y
_atom_site_fract_z
Si Si1 0.886962 0.704392 0.687672
Si Si2 0.699979 0.293562 0.689564
Si Si3 0.914368 0.329501 0.815723
Si Si4 0.478423 0.886442 0.689730
Si Si5 0.088785 0.020901 0.312739
Si Si6 0.422981 0.294973 0.685760
O O1 0.838332 0.661669 0.750000
O O2 0.887328 0.703688 0.500000
O O3 0.862404 0.766070 0.734743
O O4 0.944665 0.672598 0.736449
O O5 0.750918 0.250918 0.750000
O O6 0.704422 0.296547 0.500000
O O7 0.700933 0.356446 0.761890
O O8 0.853649 0.353649 0.750000
O O9 0.936253 0.270335 0.738258
O O10 0.961474 0.377845 0.774564
O O11 0.908575 0.320882 0.000000
O O12 0.439762 0.939762 0.750000
O O13 0.484187 0.889547 0.500000
O O14 0.086585 0.017409 0.500000
O O15 0.152671 0.040578 0.260504
O O16 0.040546 0.067407 0.256358
O O17 0.429108 0.299482 0.500000
#
# Coordination Sequence:
#
# PCOD9568691 Si02
#       6
#    16  16  16  16  16  16
#     4   8  16  30  52  80 114 150 190 239 295 353
#     4  10  19  34  55  84 121 165 212 262 318 381
#     4  12  26  45  65  89 121 162 209 263 320 378
#     4  10  20  38  62  91 123 160 204 255 312 373
#     4  11  23  44  71 101 134 170 209 256 310 371
#     4  12  25  42  63  91 125 166 211 259 312 374
#
# _framework density 20.951295999999999
#
# number of rings (size 3 to 8) (size 9 to 14) (size 15 to 20)
#    0.000    1.500    0.000    6.500    0.000    3.000 
#    0.000    6.667    0.000    0.000    0.000    0.000 
#    0.000    0.000    0.000    0.000    0.000    0.000 
#
# Total GULP energy -535901.890243 kJ/mol
# GULP energy per Si atom -5582.311357 kJ/mol
# Density = 2.090361 g / cm^3
# Si number density = 20.951296 Si / 1000 Ang^3
#
#
#
# Elastic Constant Matrix: (Units=GPa)
#
#
# Indices 1 2 3 4 5 6 
#
# 1 80.9582 44.5574 14.9099 0.0000 0.0000 0.0000
# 2 44.5574 80.9574 14.9070 0.0000 0.0000 0.0000
# 3 14.9099 14.9070 108.0397 0.0000 0.0000 0.0000
# 4 0.0000 0.0000 0.0000 30.9658 0.0000 0.0000
# 5 0.0000 0.0000 0.0000 0.0000 30.9664 0.0000
# 6 0.0000 0.0000 0.0000 0.0000 0.0000 39.8254
#
#
#
# Elastic Compliance Matrix: (Units=1/GPa)
#
#
# Indices 1 2 3 4 5 6 
#
# 1 0.017855 -0.009618 -0.001137 0.000000 0.000000 0.000000
# 2 -0.009618 0.017855 -0.001136 0.000000 0.000000 0.000000
# 3 -0.001137 -0.001136 0.009570 0.000000 0.000000 0.000000
# 4 0.000000 0.000000 0.000000 0.032294 0.000000 0.000000
# 5 0.000000 0.000000 0.000000 0.000000 0.032293 0.000000
# 6 0.000000 0.000000 0.000000 0.000000 0.000000 0.025110
#
#
# Mechanical properties :
#
#
# Convention : Reuss Voigt Hill
#
# Bulk Modulus (GPa) = 46.51748 46.52267 46.52008
# Shear Modulus (GPa) = 30.13450 33.39026 31.76238
#
# Velocity S-wave (km/s) = 3.79662 3.99646 3.89782
# Velocity P-wave (km/s) = 6.43972 6.59916 6.51993
#
# Compressibility (1/GPa) = 0.02149730
#
# Stress axis : x y z
#
# Youngs Moduli (GPa) = 56.00760 56.00759 104.49814
#
# Poissons Ratio (x) = 0.53866 0.11882
# Poissons Ratio (y) = 0.53866 0.11874
# Poissons Ratio (z) = 0.06368 0.06364
#
# Static dielectric constant tensor:
#      x y z
#    x 1.791780 0.000000 0.000000 
#    y 0.000000 1.791790 0.000000 
#    z 0.000000 0.000000 1.678000 
# 
# From -- ./inp_files/1273.got.cif
#   From: 2010.05.17/outbox.cif.g08.bks.cpg/sg135_1_cif.got.tgz:1273.got - 2010.05.20 12:50:20.
