data_PCOD9568358
_publ_section_title
;
Structure prediction by ZEFSAII (Michael W. Deem and Ramdas Pophale) SiO2 
 PCOD9568358
Probable space group: P 42/N N M
;
_chemical_formula_sum "Si O2"
_cell_formula_units_Z 80
_cell_length_a 17.560168
_cell_length_b 17.560168
_cell_length_c 14.435495
_cell_angle_alpha 90.000000
_cell_angle_beta 90.000000
_cell_angle_gamma 90.000000
_cell_volume 4451.322023
_symmetry_space_group_name_H-M "P 42/N N M"
_symmetry_group_IT_number 134
_space_group.IT_coordinate_system_code '2'
_symmetry_cell_setting 'tetragonal'
loop_
_space_group_symop_operation_xyz
x,y,z
1/2-y,x,1/2+z
1/2-x,1/2-y,z
y,1/2-x,1/2+z
x,1/2-y,1/2-z
1/2-x,y,1/2-z
y,x,-z
1/2-y,1/2-x,-z
-x,-y,-z
1/2+y,-x,1/2-z
1/2+x,1/2+y,-z
-y,1/2+x,1/2-z
-x,1/2+y,1/2+z
1/2+x,-y,1/2+z
-y,-x,z
1/2+y,1/2+x,z
loop_
_atom_site_type_symbol
_atom_site_label
_atom_site_fract_x
_atom_site_fract_y
_atom_site_fract_z
Si Si1 0.622488 0.250000 0.250000
Si Si2 0.461560 0.666219 0.904469
Si Si3 0.473562 0.401646 0.591560
Si Si4 0.001156 0.277679 0.606524
Si Si5 0.750000 0.371893 0.750000
Si Si6 0.947019 0.572354 0.300379
O O1 0.677483 0.322518 0.265270
O O2 0.571159 0.267636 0.161074
O O3 0.392536 0.607465 0.920908
O O4 0.525826 0.619507 0.849813
O O5 0.490630 0.694579 0.002380
O O6 0.429101 0.429101 0.500000
O O7 0.556898 0.443103 0.586151
O O8 0.474473 0.310494 0.601159
O O9 0.438829 0.429701 0.689342
O O10 0.923622 0.276232 0.665437
O O11 0.049737 0.341601 0.661185
O O12 0.818652 0.318652 0.781132
O O13 0.026118 0.526118 0.321852
#
# Coordination Sequence:
#
# PCOD9568358 Si02
#       6
#     8  16  16  16   8  16
#     4   9  20  38  56  84 125 160 192 238 299 362
#     4  10  22  36  58  87 117 158 200 242 290 355
#     4  10  22  38  59  88 119 155 199 250 307 359
#     4  12  21  36  59  86 116 152 197 250 302 353
#     4  11  22  34  52  84 126 163 190 230 302 377
#     4  10  20  38  60  85 118 155 201 248 292 353
#
# _framework density 17.972187999999999
#
# number of rings (size 3 to 8) (size 9 to 14) (size 15 to 20)
#    0.000    1.600    2.000    3.000    2.800    3.200 
#    0.000    2.000    0.000    2.400    0.000    0.000 
#    0.000    0.000    0.000    0.000    0.000    0.000 
#
# Total GULP energy -446349.608298 kJ/mol
# GULP energy per Si atom -5579.370104 kJ/mol
# Density = 1.793128 g / cm^3
# Si number density = 17.972188 Si / 1000 Ang^3
#
#
#
# Elastic Constant Matrix: (Units=GPa)
#
#
# Indices 1 2 3 4 5 6 
#
# 1 64.5020 18.7371 41.2868 0.0000 0.0000 0.0000
# 2 18.7371 64.5020 41.2868 0.0000 0.0000 0.0000
# 3 41.2868 41.2868 148.5759 0.0000 0.0000 0.0000
# 4 0.0000 0.0000 0.0000 29.7754 0.0000 0.0000
# 5 0.0000 0.0000 0.0000 0.0000 29.7754 0.0000
# 6 0.0000 0.0000 0.0000 0.0000 0.0000 4.3675
#
#
#
# Elastic Compliance Matrix: (Units=1/GPa)
#
#
# Indices 1 2 3 4 5 6 
#
# 1 0.019218 -0.002633 -0.004609 0.000000 0.000000 0.000000
# 2 -0.002633 0.019218 -0.004609 0.000000 0.000000 0.000000
# 3 -0.004609 -0.004609 0.009292 0.000000 0.000000 0.000000
# 4 0.000000 0.000000 0.000000 0.033585 0.000000 0.000000
# 5 0.000000 0.000000 0.000000 0.000000 0.033585 0.000000
# 6 0.000000 0.000000 0.000000 0.000000 0.000000 0.228962
#
#
# Mechanical properties :
#
#
# Convention : Reuss Voigt Hill
#
# Bulk Modulus (GPa) = 41.61850 53.35569 47.48710
# Shear Modulus (GPa) = 13.31309 24.53493 18.92401
#
# Velocity S-wave (km/s) = 2.72464 3.69882 3.24846
# Velocity P-wave (km/s) = 5.75375 6.92777 6.36788
#
# Compressibility (1/GPa) = 0.02402777
#
# Stress axis : x y z
#
# Youngs Moduli (GPa) = 52.03395 52.03395 107.61916
#
# Poissons Ratio (x) = 0.13699 0.49600
# Poissons Ratio (y) = 0.13699 0.49600
# Poissons Ratio (z) = 0.23982 0.23982
#
# Static dielectric constant tensor:
#      x y z
#    x 1.621230 0.000000 0.000000 
#    y 0.000000 1.621230 0.000000 
#    z 0.000000 0.000000 1.600560 
# 
# From -- ./inp_files/6419.got.cif
#   From: 2010.05.17/outbox.cif.g08.bks.cpg/sg134_4_cif.got.tgz:6419.got - 2010.05.20 12:42:49.
