data_PCOD9568300
_publ_section_title
;
Structure prediction by ZEFSAII (Michael W. Deem and Ramdas Pophale) SiO2 
 PCOD9568300
Probable space group: P 42/N N M
;
_chemical_formula_sum "Si O2"
_cell_formula_units_Z 88
_cell_length_a 12.761801
_cell_length_b 12.761801
_cell_length_c 27.661717
_cell_angle_alpha 90.000000
_cell_angle_beta 90.000000
_cell_angle_gamma 90.000000
_cell_volume 4505.085838
_symmetry_space_group_name_H-M "P 42/N N M"
_symmetry_group_IT_number 134
_space_group.IT_coordinate_system_code '2'
_symmetry_cell_setting 'tetragonal'
loop_
_space_group_symop_operation_xyz
x,y,z
1/2-y,x,1/2+z
1/2-x,1/2-y,z
y,1/2-x,1/2+z
x,1/2-y,1/2-z
1/2-x,y,1/2-z
y,x,-z
1/2-y,1/2-x,-z
-x,-y,-z
1/2+y,-x,1/2-z
1/2+x,1/2+y,-z
-y,1/2+x,1/2-z
-x,1/2+y,1/2+z
1/2+x,-y,1/2+z
-y,-x,z
1/2+y,1/2+x,z
loop_
_atom_site_type_symbol
_atom_site_label
_atom_site_fract_x
_atom_site_fract_y
_atom_site_fract_z
Si Si1 0.925320 0.252456 0.919237
Si Si2 0.768152 0.921900 0.831476
Si Si3 0.747242 0.423015 0.388939
Si Si4 0.917594 0.732367 0.806959
Si Si5 0.416473 0.750000 0.250000
Si Si6 0.329094 0.008709 0.516539
O O1 0.846588 0.153413 0.912055
O O2 0.855775 0.355775 0.911045
O O3 0.021830 0.243379 0.882671
O O4 0.967099 0.245083 0.973896
O O5 0.856975 0.833957 0.827942
O O6 0.661275 0.864627 0.814865
O O7 0.791797 0.011791 0.792704
O O8 0.653020 0.346981 0.404661
O O9 0.848080 0.348080 0.381862
O O10 0.719463 0.480139 0.339273
O O11 0.773391 0.504980 0.431633
O O12 0.935389 0.750000 0.750000
O O13 0.341362 0.658639 0.269309
O O14 0.383639 0.116362 0.500000
O O15 0.423075 0.923075 0.520149
#
# Coordination Sequence:
#
# PCOD9568300 Si02
#       6
#    16  16  16  16   8  16
#     4  10  20  34  57  90 124 154 187 234 294 360
#     4  11  21  40  58  82 117 152 192 240 288 347
#     4  10  22  39  59  86 118 150 194 252 299 340
#     4  11  23  42  61  80 110 157 204 244 295 346
#     4  11  22  35  56  86 118 149 184 229 284 344
#     4   9  17  33  58  87 117 154 196 236 290 355
#
# _framework density 19.533479
#
# number of rings (size 3 to 8) (size 9 to 14) (size 15 to 20)
#    0.000    1.727    1.818    3.273    0.000    8.727 
#    0.000    1.818    0.000    5.455    0.000    0.000 
#    0.000    0.000    0.000    0.000    0.000    0.000 
#
# Total GULP energy -491448.114197 kJ/mol
# GULP energy per Si atom -5584.637661 kJ/mol
# Density = 1.948902 g / cm^3
# Si number density = 19.533479 Si / 1000 Ang^3
#
#
#
# Elastic Constant Matrix: (Units=GPa)
#
#
# Indices 1 2 3 4 5 6 
#
# 1 59.4382 10.6958 25.3340 0.0000 0.0000 0.0000
# 2 10.6958 59.4382 25.3339 0.0000 0.0000 0.0000
# 3 25.3340 25.3339 118.7665 0.0000 0.0000 0.0000
# 4 0.0000 0.0000 0.0000 53.8179 0.0000 0.0000
# 5 0.0000 0.0000 0.0000 0.0000 53.8236 0.0000
# 6 0.0000 0.0000 0.0000 0.0000 0.0000 2.7714
#
#
#
# Elastic Compliance Matrix: (Units=1/GPa)
#
#
# Indices 1 2 3 4 5 6 
#
# 1 0.018686 -0.001830 -0.003596 0.000000 0.000000 0.000000
# 2 -0.001830 0.018686 -0.003596 0.000000 0.000000 0.000000
# 3 -0.003596 -0.003596 0.009954 0.000000 0.000000 0.000000
# 4 0.000000 0.000000 0.000000 0.018581 0.000000 0.000000
# 5 0.000000 0.000000 0.000000 0.000000 0.018579 0.000000
# 6 0.000000 0.000000 0.000000 0.000000 0.000000 0.360829
#
#
# Mechanical properties :
#
#
# Convention : Reuss Voigt Hill
#
# Bulk Modulus (GPa) = 34.14873 40.04112 37.09492
# Shear Modulus (GPa) = 10.56819 33.83452 22.20135
#
# Velocity S-wave (km/s) = 2.32853 4.16640 3.37498
# Velocity P-wave (km/s) = 4.97489 6.60972 5.84970
#
# Compressibility (1/GPa) = 0.02928367
#
# Stress axis : x y z
#
# Youngs Moduli (GPa) = 53.51599 53.51601 100.46414
#
# Poissons Ratio (x) = 0.09793 0.36122
# Poissons Ratio (y) = 0.09793 0.36122
# Poissons Ratio (z) = 0.19242 0.19242
#
# Static dielectric constant tensor:
#      x y z
#    x 1.682990 0.000000 0.000000 
#    y 0.000000 1.682990 0.000000 
#    z 0.000000 0.000000 1.671430 
# 
# From -- ./inp_files/11433.got.cif
#   From: 2010.05.17/outbox.cif.g08.bks.cpg/sg134_6_cif.got.tgz:11433.got - 2010.05.20 12:42:49.
