data_PCOD9568152
_publ_section_title
;
Structure prediction by ZEFSAII (Michael W. Deem and Ramdas Pophale) SiO2 
 PCOD9568152
Probable space group: P 42/N N M
;
_chemical_formula_sum "Si O2"
_cell_formula_units_Z 96
_cell_length_a 21.209160
_cell_length_b 21.209160
_cell_length_c 12.102926
_cell_angle_alpha 90.000000
_cell_angle_beta 90.000000
_cell_angle_gamma 90.000000
_cell_volume 5444.240660
_symmetry_space_group_name_H-M "P 42/N N M"
_symmetry_group_IT_number 134
_space_group.IT_coordinate_system_code '2'
_symmetry_cell_setting 'tetragonal'
loop_
_space_group_symop_operation_xyz
x,y,z
1/2-y,x,1/2+z
1/2-x,1/2-y,z
y,1/2-x,1/2+z
x,1/2-y,1/2-z
1/2-x,y,1/2-z
y,x,-z
1/2-y,1/2-x,-z
-x,-y,-z
1/2+y,-x,1/2-z
1/2+x,1/2+y,-z
-y,1/2+x,1/2-z
-x,1/2+y,1/2+z
1/2+x,-y,1/2+z
-y,-x,z
1/2+y,1/2+x,z
loop_
_atom_site_type_symbol
_atom_site_label
_atom_site_fract_x
_atom_site_fract_y
_atom_site_fract_z
Si Si1 0.544840 0.943801 0.656299
Si Si2 0.107339 0.792264 0.150453
Si Si3 0.984525 0.911434 0.594037
Si Si4 0.249110 0.852607 0.579846
Si Si5 0.235438 0.998231 0.626262
Si Si6 0.009644 0.152813 0.979008
O O1 0.541772 0.928007 0.784461
O O2 0.614537 0.945956 0.604970
O O3 0.504639 0.894154 0.583997
O O4 0.511614 0.011614 0.639744
O O5 0.082268 0.750000 0.250000
O O6 0.160366 0.839635 0.194408
O O7 0.053623 0.832130 0.088288
O O8 0.138447 0.751030 0.052925
O O9 0.938766 0.938766 0.500000
O O10 0.993642 0.836799 0.591831
O O11 0.050495 0.949506 0.582157
O O12 0.188408 0.811592 0.612635
O O13 0.310677 0.810677 0.608485
O O14 0.250239 0.923089 0.625638
O O15 0.250000 0.021868 0.750000
O O16 0.281574 0.029131 0.535560
#
# Coordination Sequence:
#
# PCOD9568152 Si02
#       6
#    16  16  16  16  16  16
#     4  10  19  35  58  82 113 150 194 243 295 358
#     4  10  19  30  46  68 100 143 188 234 280 328
#     4  10  22  39  60  87 122 162 201 247 304 360
#     4   9  19  32  45  68 105 151 198 235 271 330
#     4  11  21  36  55  81 114 150 194 239 297 352
#     4  10  20  34  54  80 108 141 188 240 292 351
#
# _framework density 17.633313000000001
#
# number of rings (size 3 to 8) (size 9 to 14) (size 15 to 20)
#    0.000    2.000    1.667    3.000    0.000    6.167 
#    0.000    5.833    0.000    0.000    0.000    2.333 
#    0.000    0.000    0.000    0.000    0.000    0.000 
#
# Total GULP energy -535233.962738 kJ/mol
# GULP energy per Si atom -5575.353779 kJ/mol
# Density = 1.759318 g / cm^3
# Si number density = 17.633313 Si / 1000 Ang^3
#
#
#
# Elastic Constant Matrix: (Units=GPa)
#
#
# Indices 1 2 3 4 5 6 
#
# 1 82.8463 31.2368 42.2000 0.0000 0.0000 0.0000
# 2 31.2368 82.8463 42.2000 0.0000 0.0000 0.0000
# 3 42.2000 42.2000 109.0657 0.0000 0.0000 0.0000
# 4 0.0000 0.0000 0.0000 20.9428 0.0000 0.0000
# 5 0.0000 0.0000 0.0000 0.0000 20.9428 0.0000
# 6 0.0000 0.0000 0.0000 0.0000 0.0000 18.4696
#
#
#
# Elastic Compliance Matrix: (Units=1/GPa)
#
#
# Indices 1 2 3 4 5 6 
#
# 1 0.015829 -0.003548 -0.004752 0.000000 0.000000 0.000000
# 2 -0.003548 0.015829 -0.004752 0.000000 0.000000 0.000000
# 3 -0.004752 -0.004752 0.012846 0.000000 0.000000 0.000000
# 4 0.000000 0.000000 0.000000 0.047749 0.000000 0.000000
# 5 0.000000 0.000000 0.000000 0.000000 0.047749 0.000000
# 6 0.000000 0.000000 0.000000 0.000000 0.000000 0.054143
#
#
# Mechanical properties :
#
#
# Convention : Reuss Voigt Hill
#
# Bulk Modulus (GPa) = 54.34572 56.22580 55.28576
# Shear Modulus (GPa) = 22.08670 22.67913 22.38291
#
# Velocity S-wave (km/s) = 3.54299 3.59019 3.56666
# Velocity P-wave (km/s) = 6.90100 7.01008 6.95576
#
# Compressibility (1/GPa) = 0.01840071
#
# Stress axis : x y z
#
# Youngs Moduli (GPa) = 63.17668 63.17668 77.84559
#
# Poissons Ratio (x) = 0.22413 0.36991
# Poissons Ratio (y) = 0.22413 0.36991
# Poissons Ratio (z) = 0.30020 0.30020
#
# Static dielectric constant tensor:
#      x y z
#    x 1.600670 0.000000 0.000000 
#    y 0.000000 1.600670 0.000000 
#    z 0.000000 0.000000 1.627000 
# 
# From -- ./inp_files/5089.got.cif
#   From: 2010.05.17/outbox.cif.g08.bks.cpg/sg134_3_cif.got.tgz:5089.got - 2010.05.20 12:42:49.
