data_PCOD9568357
_publ_section_title
;
Structure prediction by ZEFSAII (Michael W. Deem and Ramdas Pophale) SiO2 
 PCOD9568357
Probable space group: P 42/N N M
;
_chemical_formula_sum "Si O2"
_cell_formula_units_Z 42
_cell_length_a 10.098310
_cell_length_b 10.098310
_cell_length_c 19.361460
_cell_angle_alpha 90.000000
_cell_angle_beta 90.000000
_cell_angle_gamma 90.000000
_cell_volume 1974.401628
_symmetry_space_group_name_H-M "P 42/N N M"
_symmetry_group_IT_number 134
_space_group.IT_coordinate_system_code '2'
_symmetry_cell_setting 'tetragonal'
loop_
_space_group_symop_operation_xyz
x,y,z
1/2-y,x,1/2+z
1/2-x,1/2-y,z
y,1/2-x,1/2+z
x,1/2-y,1/2-z
1/2-x,y,1/2-z
y,x,-z
1/2-y,1/2-x,-z
-x,-y,-z
1/2+y,-x,1/2-z
1/2+x,1/2+y,-z
-y,1/2+x,1/2-z
-x,1/2+y,1/2+z
1/2+x,-y,1/2+z
-y,-x,z
1/2+y,1/2+x,z
loop_
_atom_site_type_symbol
_atom_site_label
_atom_site_fract_x
_atom_site_fract_y
_atom_site_fract_z
Si Si1 0.750000 0.250000 0.250000
Si Si2 0.788409 0.604144 0.886983
Si Si3 0.901578 0.401578 0.133236
Si Si4 0.250000 0.529188 0.250000
Si Si5 0.110170 0.610170 0.017354
O O1 0.837529 0.337529 0.199255
O O2 0.750000 0.750000 0.913973
O O3 0.717075 0.560008 0.816486
O O4 0.785174 0.476325 0.938466
O O5 0.941690 0.620564 0.866537
O O6 0.848953 0.348953 0.059105
O O7 0.126975 0.626975 0.233201
O O8 0.000000 0.500000 0.000000
#
# Coordination Sequence:
#
# PCOD9568357 Si02
#       5
#     2  16   8   8   8
#     4  12  28  44  56  88 132 162 196 248 312 360
#     4  10  20  37  66  90 120 160 205 250 304 366
#     4  10  24  42  62  88 121 159 203 253 304 376
#     4  11  21  34  54  94 127 163 202 260 296 355
#     4   8  18  40  59  90 115 153 205 247 306 358
#
# _framework density 21.272265999999998
#
# number of rings (size 3 to 8) (size 9 to 14) (size 15 to 20)
#    0.000    2.476    3.810    0.571    5.333    6.857 
#    3.429    0.000    0.000    2.286    0.000    0.000 
#    0.000    0.000    0.000    0.000    0.000    0.000 
#
# Total GULP energy -233976.054769 kJ/mol
# GULP energy per Si atom -5570.858447 kJ/mol
# Density = 2.122385 g / cm^3
# Si number density = 21.272266 Si / 1000 Ang^3
#
#
#
# Elastic Constant Matrix: (Units=GPa)
#
#
# Indices 1 2 3 4 5 6 
#
# 1 55.4235 42.0507 16.0838 0.0000 0.0000 0.0000
# 2 42.0507 55.4235 16.0838 0.0000 0.0000 0.0000
# 3 16.0838 16.0838 144.6206 0.0000 0.0000 0.0000
# 4 0.0000 0.0000 0.0000 -0.6974 0.0000 0.0000
# 5 0.0000 0.0000 0.0000 0.0000 -0.6974 0.0000
# 6 0.0000 0.0000 0.0000 0.0000 0.0000 35.6060
#
#
#
# Elastic Compliance Matrix: (Units=1/GPa)
#
#
# Indices 1 2 3 4 5 6 
#
# 1 0.042714 -0.032064 -0.001184 0.000000 0.000000 0.000000
# 2 -0.032064 0.042714 -0.001184 0.000000 0.000000 0.000000
# 3 -0.001184 -0.001184 0.007178 0.000000 0.000000 0.000000
# 4 0.000000 0.000000 0.000000 -1.433826 0.000000 0.000000
# 5 0.000000 0.000000 0.000000 0.000000 -1.433826 0.000000
# 6 0.000000 0.000000 0.000000 0.000000 0.000000 0.028085
#
#
# Mechanical properties :
#
#
# Convention : Reuss Voigt Hill
#
# Bulk Modulus (GPa) = 42.12234 44.87827 43.50030
# Shear Modulus (GPa) = -1.87253 18.92552 8.52649
#
# Velocity S-wave (km/s) = -0.93924 2.98599 2.00424
# Velocity P-wave (km/s) = 4.32068 5.74726 5.08426
#
# Compressibility (1/GPa) = 0.02374037
#
# Stress axis : x y z
#
# Youngs Moduli (GPa) = 23.41143 23.41143 139.31276
#
# Poissons Ratio (x) = 0.75067 0.16501
# Poissons Ratio (y) = 0.75067 0.16501
# Poissons Ratio (z) = 0.02773 0.02773
#
# Static dielectric constant tensor:
#      x y z
#    x 1.877600 0.000000 0.000000 
#    y 0.000000 1.877600 0.000000 
#    z 0.000000 0.000000 1.883550 
# 
# From -- ./inp_files/7169.got.cif
#   From: 2010.05.17/outbox.cif.g08.bks.cpg/sg134_4_cif.got.tgz:7169.got - 2010.05.20 12:42:49.
