data_PCOD9568093
_publ_section_title
;
Structure prediction by ZEFSAII (Michael W. Deem and Ramdas Pophale) SiO2 
 PCOD9568093
Probable space group: P 42/N N M
;
_chemical_formula_sum "Si O2"
_cell_formula_units_Z 96
_cell_length_a 22.298293
_cell_length_b 22.298293
_cell_length_c 9.938430
_cell_angle_alpha 90.000000
_cell_angle_beta 90.000000
_cell_angle_gamma 90.000000
_cell_volume 4941.525249
_symmetry_space_group_name_H-M "P 42/N N M"
_symmetry_group_IT_number 134
_space_group.IT_coordinate_system_code '2'
_symmetry_cell_setting 'tetragonal'
loop_
_space_group_symop_operation_xyz
x,y,z
1/2-y,x,1/2+z
1/2-x,1/2-y,z
y,1/2-x,1/2+z
x,1/2-y,1/2-z
1/2-x,y,1/2-z
y,x,-z
1/2-y,1/2-x,-z
-x,-y,-z
1/2+y,-x,1/2-z
1/2+x,1/2+y,-z
-y,1/2+x,1/2-z
-x,1/2+y,1/2+z
1/2+x,-y,1/2+z
-y,-x,z
1/2+y,1/2+x,z
loop_
_atom_site_type_symbol
_atom_site_label
_atom_site_fract_x
_atom_site_fract_y
_atom_site_fract_z
Si Si1 0.612534 0.112534 0.506711
Si Si2 0.557614 0.625999 0.202363
Si Si3 0.533096 0.466905 0.803469
Si Si4 0.322155 0.822155 0.243659
Si Si5 0.988740 0.826590 0.487212
Si Si6 0.902343 0.402343 0.949577
Si Si7 0.592808 0.815176 0.765214
Si Si8 0.492160 0.691494 0.955748
O O1 0.565151 0.065151 0.570615
O O2 0.646579 0.146579 0.627807
O O3 0.660347 0.071449 0.431900
O O4 0.534971 0.556228 0.199275
O O5 0.531105 0.656184 0.336698
O O6 0.628795 0.629362 0.209271
O O7 0.528435 0.657363 0.073849
O O8 0.564650 0.435351 0.675706
O O9 0.332336 0.750000 0.250000
O O10 0.355047 0.855047 0.116825
O O11 0.043756 0.869770 0.526479
O O12 0.013552 0.759406 0.494735
O O13 0.931597 0.829506 0.585811
O O14 0.622887 0.750000 0.750000
O O15 0.533141 0.809881 0.674946
#
# Coordination Sequence:
#
# PCOD9568093 Si02
#       8
#     8  16   8   8  16   8  16  16
#     4   9  17  30  48  73 103 137 169 204 251 308
#     4  10  18  34  56  76 100 135 173 213 263 314
#     4   7  16  27  46  77  98 116 158 209 248 295
#     4  10  18  27  44  72 104 138 182 234 266 283
#     4  10  20  34  53  77 106 139 173 211 258 310
#     4   9  17  30  48  73 103 137 169 204 251 308
#     4  10  22  36  50  75 106 134 170 215 260 310
#     4  10  20  34  53  77 106 139 173 211 258 310
#
# _framework density 19.427201
#
# number of rings (size 3 to 8) (size 9 to 14) (size 15 to 20)
#    0.000    2.417    0.000    3.500    0.000    2.000 
#    0.000    5.000    0.000    2.000    0.000    9.333 
#    0.000   10.667    0.000    0.000    0.000    0.000 
#
# Total GULP energy -535333.450520 kJ/mol
# GULP energy per Si atom -5576.390110 kJ/mol
# Density = 1.938298 g / cm^3
# Si number density = 19.427201 Si / 1000 Ang^3
#
#
#
# Elastic Constant Matrix: (Units=GPa)
#
#
# Indices 1 2 3 4 5 6 
#
# 1 67.1789 20.5585 -6.8475 0.0000 0.0000 0.0000
# 2 20.5585 67.1789 -6.8475 0.0000 0.0000 0.0000
# 3 -6.8475 -6.8475 47.4297 0.0000 0.0000 0.0000
# 4 0.0000 0.0000 0.0000 -64.6735 0.0000 0.0000
# 5 0.0000 0.0000 0.0000 0.0000 -64.6735 0.0000
# 6 0.0000 0.0000 0.0000 0.0000 0.0000 20.2967
#
#
#
# Elastic Compliance Matrix: (Units=1/GPa)
#
#
# Indices 1 2 3 4 5 6 
#
# 1 0.016555 -0.004895 0.001683 0.000000 0.000000 0.000000
# 2 -0.004895 0.016555 0.001683 0.000000 0.000000 0.000000
# 3 0.001683 0.001683 0.021570 0.000000 0.000000 0.000000
# 4 0.000000 0.000000 0.000000 -0.015462 0.000000 0.000000
# 5 0.000000 0.000000 0.000000 0.000000 -0.015462 0.000000
# 6 0.000000 0.000000 0.000000 0.000000 0.000000 0.049269
#
#
# Mechanical properties :
#
#
# Convention : Reuss Voigt Hill
#
# Bulk Modulus (GPa) = 19.37066 21.72383 20.54725
# Shear Modulus (GPa) = 53.59708 -10.14849 21.72430
#
# Velocity S-wave (km/s) = 5.25819 -2.28805 3.34764
# Velocity P-wave (km/s) = 6.84524 2.05577 5.05388
#
# Compressibility (1/GPa) = 0.05162446
#
# Stress axis : x y z
#
# Youngs Moduli (GPa) = 60.40423 60.40423 46.36088
#
# Poissons Ratio (x) = 0.29566 -0.07805
# Poissons Ratio (y) = 0.29566 -0.07805
# Poissons Ratio (z) = -0.10169 -0.10169
#
# Static dielectric constant tensor:
#      x y z
#    x 1.702080 0.000000 0.000000 
#    y 0.000000 1.702080 0.000000 
#    z 0.000000 0.000000 1.679800 
# 
# From -- ./inp_files/3275.got.cif
#   From: 2010.05.17/outbox.cif.g08.bks.cpg/sg134_2_cif.got.tgz:3275.got - 2010.05.20 12:42:49.
