data_PCOD9568024
_publ_section_title
;
Structure prediction by ZEFSAII (Michael W. Deem and Ramdas Pophale) SiO2 
 PCOD9568024
Probable space group: P 42/N B C
;
_chemical_formula_sum "Si O2"
_cell_formula_units_Z 36
_cell_length_a 8.794497
_cell_length_b 8.794497
_cell_length_c 18.899769
_cell_angle_alpha 90.000000
_cell_angle_beta 90.000000
_cell_angle_gamma 90.000000
_cell_volume 1461.768188
_symmetry_space_group_name_H-M "P 42/N B C"
_symmetry_group_IT_number 133
_space_group.IT_coordinate_system_code '2'
_symmetry_cell_setting 'tetragonal'
loop_
_space_group_symop_operation_xyz
x,y,z
1/2-y,x,1/2+z
1/2-x,1/2-y,z
y,1/2-x,1/2+z
x,1/2-y,-z
1/2-x,y,-z
y,x,1/2-z
1/2-y,1/2-x,1/2-z
-x,-y,-z
1/2+y,-x,1/2-z
1/2+x,1/2+y,-z
-y,1/2+x,1/2-z
-x,1/2+y,z
1/2+x,-y,z
-y,-x,1/2+z
1/2+y,1/2+x,1/2+z
loop_
_atom_site_type_symbol
_atom_site_label
_atom_site_fract_x
_atom_site_fract_y
_atom_site_fract_z
Si Si1 0.208076 0.455002 0.919607
Si Si2 0.685862 0.501329 0.365193
Si Si3 0.250000 0.750000 0.750000
O O1 0.353751 0.429883 0.868640
O O2 0.082223 0.336154 0.893102
O O3 0.126442 0.616234 0.916140
O O4 0.250000 0.421858 0.000000
O O5 0.713932 0.402943 0.295001
#
# Coordination Sequence:
#
# PCOD9568024 Si02
#       3
#    16  16   4
#     4  11  25  48  78 112 143 187 247 315 378 429
#     4  11  25  45  72 105 149 193 239 301 362 446
#     4  12  28  48  70 108 152 208 248 286 376 456
#
# _framework density 24.627706
#
# number of rings (size 3 to 8) (size 9 to 14) (size 15 to 20)
#    0.000    0.889    0.000    6.667    0.000   10.667 
#    0.000   13.333    0.000    0.000    0.000    0.000 
#    0.000    0.000    0.000    0.000    0.000    0.000 
#
# Total GULP energy -201302.144922 kJ/mol
# GULP energy per Si atom -5591.726248 kJ/mol
# Density = 2.457165 g / cm^3
# Si number density = 24.627706 Si / 1000 Ang^3
#
#
#
# Elastic Constant Matrix: (Units=GPa)
#
#
# Indices 1 2 3 4 5 6 
#
# 1 129.9233 127.2502 74.3609 0.0000 0.0000 0.0000
# 2 127.2502 129.9233 74.3609 0.0000 0.0000 0.0000
# 3 74.3609 74.3609 147.4338 0.0000 0.0000 0.0000
# 4 0.0000 0.0000 0.0000 85.3572 0.0000 0.0000
# 5 0.0000 0.0000 0.0000 0.0000 85.3572 0.0000
# 6 0.0000 0.0000 0.0000 0.0000 0.0000 69.9511
#
#
#
# Elastic Compliance Matrix: (Units=1/GPa)
#
#
# Indices 1 2 3 4 5 6 
#
# 1 0.189788 -0.184298 -0.002769 0.000000 0.000000 0.000000
# 2 -0.184298 0.189788 -0.002769 0.000000 0.000000 0.000000
# 3 -0.002769 -0.002769 0.009576 0.000000 0.000000 0.000000
# 4 0.000000 0.000000 0.000000 0.011715 0.000000 0.000000
# 5 0.000000 0.000000 0.000000 0.000000 0.011715 0.000000
# 6 0.000000 0.000000 0.000000 0.000000 0.000000 0.014296
#
#
# Mechanical properties :
#
#
# Convention : Reuss Voigt Hill
#
# Bulk Modulus (GPa) = 105.48797 106.58046 106.03422
# Shear Modulus (GPa) = 6.17505 56.88703 31.53104
#
# Velocity S-wave (km/s) = 1.58518 4.81133 3.58202
# Velocity P-wave (km/s) = 6.80268 8.61602 7.76248
#
# Compressibility (1/GPa) = 0.00947975
#
# Stress axis : x y z
#
# Youngs Moduli (GPa) = 5.26904 5.26904 104.43139
#
# Poissons Ratio (x) = 0.97108 0.28915
# Poissons Ratio (y) = 0.97108 0.28915
# Poissons Ratio (z) = 0.01459 0.01459
#
# Static dielectric constant tensor:
#      x y z
#    x 1.978580 0.000000 0.000000 
#    y 0.000000 1.978580 0.000000 
#    z 0.000000 0.000000 1.913620 
# 
# From -- ./inp_files/5856.got.cif
#   From: 2010.05.17/outbox.cif.g08.bks.cpg/sg133_3_cif.got.tgz:5856.got - 2010.05.20 12:37:36.
