data_PCOD9568001
_publ_section_title
;
Structure prediction by ZEFSAII (Michael W. Deem and Ramdas Pophale) SiO2 
 PCOD9568001
Probable space group: P 42/N B C
;
_chemical_formula_sum "Si O2"
_cell_formula_units_Z 112
_cell_length_a 15.189492
_cell_length_b 15.189492
_cell_length_c 26.522704
_cell_angle_alpha 90.000000
_cell_angle_beta 90.000000
_cell_angle_gamma 90.000000
_cell_volume 6119.335963
_symmetry_space_group_name_H-M "P 42/N B C"
_symmetry_group_IT_number 133
_space_group.IT_coordinate_system_code '2'
_symmetry_cell_setting 'tetragonal'
loop_
_space_group_symop_operation_xyz
x,y,z
1/2-y,x,1/2+z
1/2-x,1/2-y,z
y,1/2-x,1/2+z
x,1/2-y,-z
1/2-x,y,-z
y,x,1/2-z
1/2-y,1/2-x,1/2-z
-x,-y,-z
1/2+y,-x,1/2-z
1/2+x,1/2+y,-z
-y,1/2+x,1/2-z
-x,1/2+y,z
1/2+x,-y,z
-y,-x,1/2+z
1/2+y,1/2+x,1/2+z
loop_
_atom_site_type_symbol
_atom_site_label
_atom_site_fract_x
_atom_site_fract_y
_atom_site_fract_z
Si Si1 0.005175 0.769660 0.417752
Si Si2 0.397771 0.745241 0.196890
Si Si3 0.497183 0.732717 0.103194
Si Si4 0.422836 0.961247 0.561604
Si Si5 0.256991 0.897540 0.185980
Si Si6 0.176751 0.191929 0.946811
Si Si7 0.078128 0.914191 0.553063
O O1 0.907726 0.786431 0.441769
O O2 0.054739 0.861285 0.425766
O O3 0.028098 0.752031 0.357769
O O4 0.045135 0.685662 0.446615
O O5 0.482178 0.732948 0.162321
O O6 0.343910 0.834502 0.182280
O O7 0.327255 0.668060 0.184654
O O8 0.424950 0.743255 0.255292
O O9 0.491650 0.831790 0.084518
O O10 0.585795 0.691686 0.082067
O O11 0.420907 0.671681 0.079927
O O12 0.411977 0.959196 0.501331
O O13 0.501239 0.026493 0.577917
O O14 0.250000 0.250000 0.919357
O O15 0.163669 0.250000 0.000000
#
# Coordination Sequence:
#
# PCOD9568001 Si02
#       7
#    16  16  16  16  16  16  16
#     4  12  22  39  63  91 124 162 217 268 310 379
#     4   9  18  35  62  92 127 162 200 255 333 393
#     4  12  21  40  62  91 127 161 204 270 319 374
#     4  11  24  37  58  88 126 166 208 256 320 379
#     4   9  18  36  60  93 127 162 203 256 323 399
#     4  11  26  42  63  85 124 180 220 237 299 395
#     4  11  24  38  58  88 128 166 207 265 313 379
#
# _framework density 18.302638999999999
#
# number of rings (size 3 to 8) (size 9 to 14) (size 15 to 20)
#    0.000    1.286    4.286    3.429    6.000    0.571 
#    0.000    2.143    0.000    6.000    0.000    0.000 
#    0.000    0.000    0.000    0.000    0.000    0.000 
#
# Total GULP energy -623642.245058 kJ/mol
# GULP energy per Si atom -5568.234331 kJ/mol
# Density = 1.826098 g / cm^3
# Si number density = 18.302639 Si / 1000 Ang^3
#
#
#
# Elastic Constant Matrix: (Units=GPa)
#
#
# Indices 1 2 3 4 5 6 
#
# 1 47.1247 -17.4693 3.7929 0.0000 0.0000 0.0000
# 2 -17.4693 47.1247 3.7929 0.0000 0.0000 0.0000
# 3 3.7929 3.7929 94.2341 0.0000 0.0000 0.0000
# 4 0.0000 0.0000 0.0000 31.1410 0.0000 0.0000
# 5 0.0000 0.0000 0.0000 0.0000 31.1410 0.0000
# 6 0.0000 0.0000 0.0000 0.0000 0.0000 30.0414
#
#
#
# Elastic Compliance Matrix: (Units=1/GPa)
#
#
# Indices 1 2 3 4 5 6 
#
# 1 0.024776 0.009295 -0.001371 0.000000 0.000000 0.000000
# 2 0.009295 0.024776 -0.001371 0.000000 0.000000 0.000000
# 3 -0.001371 -0.001371 0.010722 0.000000 0.000000 0.000000
# 4 0.000000 0.000000 0.000000 0.032112 0.000000 0.000000
# 5 0.000000 0.000000 0.000000 0.000000 0.032112 0.000000
# 6 0.000000 0.000000 0.000000 0.000000 0.000000 0.033287
#
#
# Mechanical properties :
#
#
# Convention : Reuss Voigt Hill
#
# Bulk Modulus (GPa) = 13.62776 18.74627 16.18701
# Shear Modulus (GPa) = 29.56105 31.68917 30.62511
#
# Velocity S-wave (km/s) = 4.02322 4.16552 4.09499
# Velocity P-wave (km/s) = 5.38922 5.77928 5.58765
#
# Compressibility (1/GPa) = 0.07337966
#
# Stress axis : x y z
#
# Youngs Moduli (GPa) = 40.36106 40.36106 93.26395
#
# Poissons Ratio (x) = -0.37516 0.12790
# Poissons Ratio (y) = -0.37516 0.12790
# Poissons Ratio (z) = 0.05535 0.05535
#
# Static dielectric constant tensor:
#      x y z
#    x 1.650650 0.000000 0.000000 
#    y 0.000000 1.650650 0.000000 
#    z 0.000000 0.000000 1.669070 
# 
# From -- ./inp_files/7649.got.cif
#   From: 2010.05.17/outbox.cif.g08.bks.cpg/sg133_4_cif.got.tgz:7649.got - 2010.05.20 12:37:36.
