data_PCOD9568437
_publ_section_title
;
Structure prediction by ZEFSAII (Michael W. Deem and Ramdas Pophale) SiO2 
 PCOD9568437
Probable space group: P 42/N N M
;
_chemical_formula_sum "Si O2"
_cell_formula_units_Z 96
_cell_length_a 13.971334
_cell_length_b 13.971334
_cell_length_c 23.575329
_cell_angle_alpha 90.000000
_cell_angle_beta 90.000000
_cell_angle_gamma 90.000000
_cell_volume 4601.861166
_symmetry_space_group_name_H-M "P 42/N N M"
_symmetry_group_IT_number 134
_space_group.IT_coordinate_system_code '2'
_symmetry_cell_setting 'tetragonal'
loop_
_space_group_symop_operation_xyz
x,y,z
1/2-y,x,1/2+z
1/2-x,1/2-y,z
y,1/2-x,1/2+z
x,1/2-y,1/2-z
1/2-x,y,1/2-z
y,x,-z
1/2-y,1/2-x,-z
-x,-y,-z
1/2+y,-x,1/2-z
1/2+x,1/2+y,-z
-y,1/2+x,1/2-z
-x,1/2+y,1/2+z
1/2+x,-y,1/2+z
-y,-x,z
1/2+y,1/2+x,z
loop_
_atom_site_type_symbol
_atom_site_label
_atom_site_fract_x
_atom_site_fract_y
_atom_site_fract_z
Si Si1 0.636730 0.636379 0.256914
Si Si2 0.073692 0.416213 0.883123
Si Si3 0.951486 0.899892 0.858506
Si Si4 0.419484 0.726516 0.614536
Si Si5 0.782989 0.613217 0.552214
Si Si6 0.749835 0.101610 0.515931
O O1 0.630516 0.750000 0.250000
O O2 0.750000 0.611353 0.250000
O O3 0.592003 0.608955 0.317200
O O4 0.584011 0.587013 0.204507
O O5 0.148198 0.499312 0.896017
O O6 0.111418 0.324304 0.919889
O O7 0.969193 0.469193 0.890414
O O8 0.862294 0.872532 0.898609
O O9 0.029301 0.814645 0.855569
O O10 0.007297 0.992703 0.881054
O O11 0.329610 0.670391 0.641755
O O12 0.392299 0.757037 0.551609
O O13 0.819084 0.680917 0.500000
O O14 0.781571 0.504173 0.531121
O O15 0.855001 0.145000 0.529808
O O16 0.674361 0.174361 0.542650
#
# Coordination Sequence:
#
# PCOD9568437 Si02
#       6
#    16  16  16  16  16  16
#     4  11  22  42  69  97 131 168 220 280 344 406
#     4  11  24  45  68  93 134 179 220 279 346 411
#     4  12  24  41  67  96 129 173 220 276 342 407
#     4  10  22  40  62  93 128 167 214 265 330 406
#     4  12  25  41  63  97 134 171 229 280 330 398
#     4  10  21  40  62  87 129 177 216 265 328 396
#
# _framework density 20.861124
#
# number of rings (size 3 to 8) (size 9 to 14) (size 15 to 20)
#    0.000    1.000    5.000    2.000    0.000    3.000 
#    3.000    2.500    0.000    0.000    0.000    1.167 
#    0.000    0.000    0.000    0.000    0.000    0.000 
#
# Total GULP energy -535060.127199 kJ/mol
# GULP energy per Si atom -5573.542992 kJ/mol
# Density = 2.081364 g / cm^3
# Si number density = 20.861124 Si / 1000 Ang^3
#
#
#
# Elastic Constant Matrix: (Units=GPa)
#
#
# Indices 1 2 3 4 5 6 
#
# 1 -3443.5329 3629.5428 46.1455 0.0000 0.0000 0.0000
# 2 3629.5428-3443.7382 46.1266 0.0000 0.0000 0.0000
# 3 46.1455 46.1266 95.3955 0.0000 0.0000 0.0000
# 4 0.0000 0.0000 0.0000 35.1175 0.0000 0.0000
# 5 0.0000 0.0000 0.0000 0.0000 35.1129 0.0000
# 6 0.0000 0.0000 0.0000 0.0000 0.0000 36.1369
#
#
#
# Elastic Compliance Matrix: (Units=1/GPa)
#
#
# Indices 1 2 3 4 5 6 
#
# 1 0.003468 0.003610 -0.003423 0.000000 0.000000 0.000000
# 2 0.003610 0.003468 -0.003423 0.000000 0.000000 0.000000
# 3 -0.003423 -0.003423 0.013794 0.000000 0.000000 0.000000
# 4 0.000000 0.000000 0.000000 0.028476 0.000000 0.000000
# 5 0.000000 0.000000 0.000000 0.000000 0.028480 0.000000
# 6 0.000000 0.000000 0.000000 0.000000 0.000000 0.027673
#
#
# Mechanical properties :
#
#
# Convention : Reuss Voigt Hill
#
# Bulk Modulus (GPa) = 70.13977 72.41712 71.27845
# Shear Modulus (GPa) = 42.88754 -679.63924 -318.37585
#
# Velocity S-wave (km/s) = 4.53908 -18.06930 -12.36722
# Velocity P-wave (km/s) = 7.82088 20.01358 13.02646
#
# Compressibility (1/GPa) = 0.01425725
#
# Stress axis : x y z
#
# Youngs Moduli (GPa) = 288.31489 288.33045 72.49659
#
# Poissons Ratio (x) = -1.04079 0.24817
# Poissons Ratio (y) = -1.04073 0.24816
# Poissons Ratio (z) = 0.98695 0.98699
#
# Static dielectric constant tensor:
#      x y z
#    x 1.756380 0.000000 0.000000 
#    y 0.000000 1.756380 0.000000 
#    z 0.000000 0.000000 1.780710 
# 
# From -- ./inp_files/9171.got.cif
#   From: 2010.05.17/outbox.cif.g08.bks.cpg/sg134_5_cif.got.tgz:9171.got - 2010.05.20 12:42:49.
