data_PCOD9568873
_publ_section_title
;
Structure prediction by ZEFSAII (Michael W. Deem and Ramdas Pophale) SiO2 
 PCOD9568873
Probable space group: P 42/M B C
;
_chemical_formula_sum "Si O2"
_cell_formula_units_Z 96
_cell_length_a 24.390367
_cell_length_b 24.390367
_cell_length_c 8.741348
_cell_angle_alpha 90.000000
_cell_angle_beta 90.000000
_cell_angle_gamma 90.000000
_cell_volume 5200.140533
_symmetry_space_group_name_H-M "P 42/M B C"
_symmetry_group_IT_number 135
_symmetry_cell_setting 'tetragonal'
loop_
_space_group_symop_operation_xyz
x,y,z
-y,x,1/2+z
-x,-y,z
y,-x,1/2+z
1/2+x,1/2-y,-z
1/2-x,1/2+y,-z
1/2+y,1/2+x,1/2-z
1/2-y,1/2-x,1/2-z
-x,-y,-z
y,-x,1/2-z
x,y,-z
-y,x,1/2-z
1/2-x,1/2+y,z
1/2+x,1/2-y,z
1/2-y,1/2-x,1/2+z
1/2+y,1/2+x,1/2+z
loop_
_atom_site_type_symbol
_atom_site_label
_atom_site_fract_x
_atom_site_fract_y
_atom_site_fract_z
Si Si1 0.349891 0.935063 0.817812
Si Si2 0.638423 0.947056 0.682070
Si Si3 0.631515 0.641174 0.681796
Si Si4 0.732455 0.431537 0.317458
Si Si5 0.448554 0.440241 0.174479
Si Si6 0.729135 0.556911 0.684013
O O1 0.386962 0.886962 0.750000
O O2 0.287322 0.930470 0.759984
O O3 0.371100 0.993719 0.757423
O O4 0.351393 0.933717 0.000000
O O5 0.598101 0.901900 0.750000
O O6 0.631012 0.951588 0.500000
O O7 0.702231 0.932087 0.709788
O O8 0.622690 0.635344 0.500000
O O9 0.618831 0.703636 0.729274
O O10 0.585245 0.612200 0.782990
O O11 0.685898 0.605520 0.718321
O O12 0.723001 0.425898 0.500000
O O13 0.713154 0.493917 0.271183
O O14 0.431008 0.487840 0.290859
O O15 0.440421 0.457395 0.000000
O O16 0.736000 0.555152 0.500000
#
# Coordination Sequence:
#
# PCOD9568873 Si02
#       6
#    16  16  16  16  16  16
#     4  11  22  38  62  89 117 148 182 222 273 333
#     4  10  21  39  62  88 118 149 183 225 274 329
#     4  11  21  33  53  79 107 143 189 234 277 330
#     4   9  19  36  56  78 111 151 189 234 283 329
#     4  11  21  33  48  68  98 133 175 228 286 339
#     4   9  20  38  56  78 111 150 190 235 283 329
#
# _framework density 18.461040000000001
#
# number of rings (size 3 to 8) (size 9 to 14) (size 15 to 20)
#    0.000    1.833    0.000    6.500    0.000    6.333 
#    0.000    2.500    0.000    2.000    0.000    0.000 
#    0.000    0.000    0.000    0.000    0.000    0.000 
#
# Total GULP energy -535550.819342 kJ/mol
# GULP energy per Si atom -5578.654368 kJ/mol
# Density = 1.841902 g / cm^3
# Si number density = 18.461040 Si / 1000 Ang^3
#
#
#
# Elastic Constant Matrix: (Units=GPa)
#
#
# Indices 1 2 3 4 5 6 
#
# 1 91.7511 58.0881 41.7949 0.0000 0.0000 0.0000
# 2 58.0881 91.7541 41.7884 0.0000 0.0000 0.0000
# 3 41.7949 41.7884 67.0772 0.0000 0.0000 0.0000
# 4 0.0000 0.0000 0.0000 28.9211 0.0000 0.0000
# 5 0.0000 0.0000 0.0000 0.0000 28.9204 0.0000
# 6 0.0000 0.0000 0.0000 0.0000 0.0000 40.6052
#
#
#
# Elastic Compliance Matrix: (Units=1/GPa)
#
#
# Indices 1 2 3 4 5 6 
#
# 1 0.019968 -0.009738 -0.006375 0.000000 0.000000 0.000000
# 2 -0.009738 0.019965 -0.006370 0.000000 0.000000 0.000000
# 3 -0.006375 -0.006370 0.022849 0.000000 0.000000 0.000000
# 4 0.000000 0.000000 0.000000 0.034577 0.000000 0.000000
# 5 0.000000 0.000000 0.000000 0.000000 0.034578 0.000000
# 6 0.000000 0.000000 0.000000 0.000000 0.000000 0.024627
#
#
# Mechanical properties :
#
#
# Convention : Reuss Voigt Hill
#
# Bulk Modulus (GPa) = 56.13195 59.32502 57.72848
# Shear Modulus (GPa) = 24.09982 26.95008 25.52495
#
# Velocity S-wave (km/s) = 3.61701 3.82492 3.72242
# Velocity P-wave (km/s) = 6.92209 7.19109 7.05787
#
# Compressibility (1/GPa) = 0.01781517
#
# Stress axis : x y z
#
# Youngs Moduli (GPa) = 50.07917 50.08750 43.76520
#
# Poissons Ratio (x) = 0.48776 0.27901
# Poissons Ratio (y) = 0.48768 0.27880
# Poissons Ratio (z) = 0.31927 0.31908
#
# Static dielectric constant tensor:
#      x y z
#    x 1.647760 0.000000 0.000000 
#    y 0.000000 1.647760 0.000000 
#    z 0.000000 0.000000 1.681110 
# 
# From -- ./inp_files/1249.got.cif
#   From: 2010.05.17/outbox.cif.g08.bks.cpg/sg135_1_cif.got.tgz:1249.got - 2010.05.20 12:50:20.
