data_PCOD9568552
_publ_section_title
;
Structure prediction by ZEFSAII (Michael W. Deem and Ramdas Pophale) SiO2 
 PCOD9568552
Probable space group: P 42/N N M
;
_chemical_formula_sum "Si O2"
_cell_formula_units_Z 58
_cell_length_a 16.936197
_cell_length_b 16.936197
_cell_length_c 9.509495
_cell_angle_alpha 90.000000
_cell_angle_beta 90.000000
_cell_angle_gamma 90.000000
_cell_volume 2727.653800
_symmetry_space_group_name_H-M "P 42/N N M"
_symmetry_group_IT_number 134
_space_group.IT_coordinate_system_code '2'
_symmetry_cell_setting 'tetragonal'
loop_
_space_group_symop_operation_xyz
x,y,z
1/2-y,x,1/2+z
1/2-x,1/2-y,z
y,1/2-x,1/2+z
x,1/2-y,1/2-z
1/2-x,y,1/2-z
y,x,-z
1/2-y,1/2-x,-z
-x,-y,-z
1/2+y,-x,1/2-z
1/2+x,1/2+y,-z
-y,1/2+x,1/2-z
-x,1/2+y,1/2+z
1/2+x,-y,1/2+z
-y,-x,z
1/2+y,1/2+x,z
loop_
_atom_site_type_symbol
_atom_site_label
_atom_site_fract_x
_atom_site_fract_y
_atom_site_fract_z
Si Si1 0.250000 0.092690 0.250000
Si Si2 0.250000 0.750000 0.250000
Si Si3 0.578541 0.863309 0.779668
Si Si4 0.002290 0.238755 0.037377
Si Si5 0.647995 0.147995 0.539112
Si Si6 0.026149 0.526149 0.341427
O O1 0.327073 0.142719 0.205656
O O2 0.269175 0.036603 0.381864
O O3 0.302361 0.697640 0.147936
O O4 0.525174 0.825300 0.902976
O O5 0.552376 0.817184 0.639804
O O6 0.559283 0.953413 0.746916
O O7 0.912225 0.206692 0.043650
O O8 0.591188 0.091188 0.628154
O O9 0.000000 0.500000 0.500000
#
# Coordination Sequence:
#
# PCOD9568552 Si02
#       6
#     8   2  16  16   8   8
#     4  12  21  41  64 102 148 180 228 304 359 423
#     4  12  32  48  72 110 144 192 224 306 372 436
#     4  11  24  41  70 107 139 191 250 289 360 430
#     4  11  24  42  70 103 142 188 239 298 360 434
#     4  12  24  48  74 100 144 195 242 288 382 430
#     4  12  20  43  78  99 137 202 248 297 352 446
#
# _framework density 21.263694000000001
#
# number of rings (size 3 to 8) (size 9 to 14) (size 15 to 20)
#    0.000    0.552    5.517    2.483    0.000    3.310 
#    0.000   11.034    0.000    0.000    0.000    0.000 
#    0.000    0.000    0.000    0.000    0.000    0.000 
#
# Total GULP energy -324051.419840 kJ/mol
# GULP energy per Si atom -5587.093446 kJ/mol
# Density = 2.121530 g / cm^3
# Si number density = 21.263694 Si / 1000 Ang^3
#
#
#
# Elastic Constant Matrix: (Units=GPa)
#
#
# Indices 1 2 3 4 5 6 
#
# 1 122.9702 77.0058 27.4073 0.0000 0.0000 0.0000
# 2 77.0058 122.9702 27.4073 0.0000 0.0000 0.0000
# 3 27.4073 27.4073 90.7650 0.0000 0.0000 0.0000
# 4 0.0000 0.0000 0.0000 28.1344 0.0000 0.0000
# 5 0.0000 0.0000 0.0000 0.0000 28.1344 0.0000
# 6 0.0000 0.0000 0.0000 0.0000 0.0000 -3.1160
#
#
#
# Elastic Compliance Matrix: (Units=1/GPa)
#
#
# Indices 1 2 3 4 5 6 
#
# 1 0.013604 -0.008152 -0.001646 0.000000 0.000000 0.000000
# 2 -0.008152 0.013604 -0.001646 0.000000 0.000000 0.000000
# 3 -0.001646 -0.001646 0.012012 0.000000 0.000000 0.000000
# 4 0.000000 0.000000 0.000000 0.035544 0.000000 0.000000
# 5 0.000000 0.000000 0.000000 0.000000 0.035544 0.000000
# 6 0.000000 0.000000 0.000000 0.000000 0.000000 -0.320923
#
#
# Mechanical properties :
#
#
# Convention : Reuss Voigt Hill
#
# Bulk Modulus (GPa) = 61.23542 66.70509 63.97026
# Shear Modulus (GPa) = -27.42974 24.28956 -1.57009
#
# Velocity S-wave (km/s) = -3.59553 3.38346 -0.86023
# Velocity P-wave (km/s) = 3.40933 6.83391 5.40027
#
# Compressibility (1/GPa) = 0.01633042
#
# Stress axis : x y z
#
# Youngs Moduli (GPa) = 73.50830 73.50830 83.25247
#
# Poissons Ratio (x) = 0.59924 0.13705
# Poissons Ratio (y) = 0.59924 0.13705
# Poissons Ratio (z) = 0.12101 0.12101
#
# Static dielectric constant tensor:
#      x y z
#    x 1.807320 0.000000 0.000000 
#    y 0.000000 1.807320 0.000000 
#    z 0.000000 0.000000 1.748950 
# 
# From -- ./inp_files/2471.got.cif
#   From: 2010.05.17/outbox.cif.g08.bks.cpg/sg134_2_cif.got.tgz:2471.got - 2010.05.20 12:42:49.
