data_PCOD9568707
_publ_section_title
;
Structure prediction by ZEFSAII (Michael W. Deem and Ramdas Pophale) SiO2 
 PCOD9568707
Probable space group: P 42/M B C
;
_chemical_formula_sum "Si O2"
_cell_formula_units_Z 96
_cell_length_a 14.343231
_cell_length_b 14.343231
_cell_length_c 20.814294
_cell_angle_alpha 90.000000
_cell_angle_beta 90.000000
_cell_angle_gamma 90.000000
_cell_volume 4282.088811
_symmetry_space_group_name_H-M "P 42/M B C"
_symmetry_group_IT_number 135
_symmetry_cell_setting 'tetragonal'
loop_
_space_group_symop_operation_xyz
x,y,z
-y,x,1/2+z
-x,-y,z
y,-x,1/2+z
1/2+x,1/2-y,-z
1/2-x,1/2+y,-z
1/2+y,1/2+x,1/2-z
1/2-y,1/2-x,1/2-z
-x,-y,-z
y,-x,1/2-z
x,y,-z
-y,x,1/2-z
1/2-x,1/2+y,z
1/2+x,1/2-y,z
1/2-y,1/2-x,1/2+z
1/2+y,1/2+x,1/2+z
loop_
_atom_site_type_symbol
_atom_site_label
_atom_site_fract_x
_atom_site_fract_y
_atom_site_fract_z
Si Si1 0.502782 0.142653 0.779270
Si Si2 0.637636 0.327293 0.108218
Si Si3 0.483490 0.640492 0.767641
Si Si4 0.321203 0.007109 0.570395
Si Si5 0.895290 0.023242 0.073867
Si Si6 0.209931 0.197883 0.426043
O O1 0.418294 0.081707 0.750000
O O2 0.492885 0.250797 0.757453
O O3 0.507058 0.135054 0.857953
O O4 0.595849 0.095849 0.750000
O O5 0.587839 0.353391 0.173713
O O6 0.561723 0.267583 0.069960
O O7 0.660505 0.426398 0.076973
O O8 0.724163 0.259426 0.115806
O O9 0.576058 0.578609 0.779765
O O10 0.370006 0.995150 0.500000
O O11 0.278054 0.109835 0.572527
O O12 0.835611 0.109872 0.098648
O O13 0.910828 0.051785 0.000000
O O14 0.000000 0.000000 0.097532
O O15 0.201630 0.233510 0.500000
#
# Coordination Sequence:
#
# PCOD9568707 Si02
#       6
#    16  16  16  16  16  16
#     4  10  24  48  72 104 145 198 248 303 368 448
#     4  11  22  40  66 100 145 188 234 308 364 435
#     4  10  25  45  68 104 140 187 250 309 359 434
#     4  10  21  42  71 104 143 188 242 306 369 435
#     4  10  19  35  62  95 134 177 223 290 364 435
#     4  10  21  36  63 105 141 181 235 291 376 452
#
# _framework density 22.418963999999999
#
# number of rings (size 3 to 8) (size 9 to 14) (size 15 to 20)
#    0.000    1.833    1.667    1.500    4.667    0.667 
#   15.000    1.667    0.000    2.000    0.000    1.167 
#    0.000    0.000    0.000    0.000    0.000    0.000 
#
# Total GULP energy -535269.303902 kJ/mol
# GULP energy per Si atom -5575.721916 kJ/mol
# Density = 2.236794 g / cm^3
# Si number density = 22.418964 Si / 1000 Ang^3
#
#
#
# Elastic Constant Matrix: (Units=GPa)
#
#
# Indices 1 2 3 4 5 6 
#
# 1 109.8992 53.5295 46.9884 0.0000 0.0000 0.0000
# 2 53.5295 109.8983 46.9893 0.0000 0.0000 0.0000
# 3 46.9884 46.9893 141.5057 0.0000 0.0000 0.0000
# 4 0.0000 0.0000 0.0000 25.8851 0.0000 0.0000
# 5 0.0000 0.0000 0.0000 0.0000 25.8851 0.0000
# 6 0.0000 0.0000 0.0000 0.0000 0.0000 47.6967
#
#
#
# Elastic Compliance Matrix: (Units=1/GPa)
#
#
# Indices 1 2 3 4 5 6 
#
# 1 0.012652 -0.005089 -0.002511 0.000000 0.000000 0.000000
# 2 -0.005089 0.012652 -0.002511 0.000000 0.000000 0.000000
# 3 -0.002511 -0.002511 0.008735 0.000000 0.000000 0.000000
# 4 0.000000 0.000000 0.000000 0.038632 0.000000 0.000000
# 5 0.000000 0.000000 0.000000 0.000000 0.038632 0.000000
# 6 0.000000 0.000000 0.000000 0.000000 0.000000 0.020966
#
#
# Mechanical properties :
#
#
# Convention : Reuss Voigt Hill
#
# Bulk Modulus (GPa) = 72.38402 72.92419 72.65410
# Shear Modulus (GPa) = 31.82765 34.14645 32.98705
#
# Velocity S-wave (km/s) = 3.77195 3.90693 3.84003
# Velocity P-wave (km/s) = 7.16430 7.27672 7.22073
#
# Compressibility (1/GPa) = 0.01381520
#
# Stress axis : x y z
#
# Youngs Moduli (GPa) = 79.04189 79.04068 114.48522
#
# Poissons Ratio (x) = 0.40220 0.28751
# Poissons Ratio (y) = 0.40221 0.28753
# Poissons Ratio (z) = 0.19850 0.19851
#
# Static dielectric constant tensor:
#      x y z
#    x 1.864210 0.000000 0.000000 
#    y 0.000000 1.864210 0.000000 
#    z 0.000000 0.000000 1.951630 
# 
# From -- ./inp_files/5410.got.cif
#   From: 2010.05.17/outbox.cif.g08.bks.cpg/sg135_3_cif.got.tgz:5410.got - 2010.05.20 12:50:20.
