data_PCOD9568258
_publ_section_title
;
Structure prediction by ZEFSAII (Michael W. Deem and Ramdas Pophale) SiO2 
 PCOD9568258
Probable space group: P 42/N N M
;
_chemical_formula_sum "Si O2"
_cell_formula_units_Z 68
_cell_length_a 19.580174
_cell_length_b 19.580174
_cell_length_c 10.737398
_cell_angle_alpha 90.000000
_cell_angle_beta 90.000000
_cell_angle_gamma 90.000000
_cell_volume 4116.538154
_symmetry_space_group_name_H-M "P 42/N N M"
_symmetry_group_IT_number 134
_space_group.IT_coordinate_system_code '2'
_symmetry_cell_setting 'tetragonal'
loop_
_space_group_symop_operation_xyz
x,y,z
1/2-y,x,1/2+z
1/2-x,1/2-y,z
y,1/2-x,1/2+z
x,1/2-y,1/2-z
1/2-x,y,1/2-z
y,x,-z
1/2-y,1/2-x,-z
-x,-y,-z
1/2+y,-x,1/2-z
1/2+x,1/2+y,-z
-y,1/2+x,1/2-z
-x,1/2+y,1/2+z
1/2+x,-y,1/2+z
-y,-x,z
1/2+y,1/2+x,z
loop_
_atom_site_type_symbol
_atom_site_label
_atom_site_fract_x
_atom_site_fract_y
_atom_site_fract_z
Si Si1 0.250000 0.250000 0.000000
Si Si2 0.098992 0.239371 0.433505
Si Si3 0.929880 0.864704 0.788732
Si Si4 0.042164 0.542164 0.812566
Si Si5 0.532584 0.819713 0.183000
Si Si6 0.568286 0.431715 0.589085
O O1 0.180402 0.251776 0.076653
O O2 0.075732 0.187628 0.326805
O O3 0.071521 0.315780 0.408594
O O4 0.076267 0.204354 0.562125
O O5 0.867740 0.918271 0.768090
O O6 0.999706 0.905274 0.769631
O O7 0.987948 0.487948 0.868971
O O8 0.073362 0.573362 0.939221
O O9 0.513261 0.750000 0.250000
O O10 0.466054 0.862817 0.141629
#
# Coordination Sequence:
#
# PCOD9568258 Si02
#       6
#     4  16  16   8  16   8
#     4  12  20  30  44  68 122 152 162 196 248 310
#     4  11  21  31  47  78 108 143 176 202 251 313
#     4  10  20  32  52  75 104 139 175 218 254 298
#     4   9  16  34  55  71  98 131 182 227 253 291
#     4  11  20  35  52  75 107 137 178 218 256 313
#     4   9  18  32  55  74  92 135 182 218 257 300
#
# _framework density 16.518733999999998
#
# number of rings (size 3 to 8) (size 9 to 14) (size 15 to 20)
#    0.000    1.647    4.706    1.412    0.000    0.941 
#    0.000    1.176    0.000    5.294    0.000    0.000 
#    0.000    7.529    0.000    0.000    0.000    0.000 
#
# Total GULP energy -379009.401927 kJ/mol
# GULP energy per Si atom -5573.667675 kJ/mol
# Density = 1.648114 g / cm^3
# Si number density = 16.518734 Si / 1000 Ang^3
#
#
#
# Elastic Constant Matrix: (Units=GPa)
#
#
# Indices 1 2 3 4 5 6 
#
# 1 96.4396 64.6420 17.6610 0.0000 0.0000 0.0000
# 2 64.6420 96.4396 17.6610 0.0000 0.0000 0.0000
# 3 17.6610 17.6610 23.0473 0.0000 0.0000 0.0000
# 4 0.0000 0.0000 0.0000 17.9977 0.0000 0.0000
# 5 0.0000 0.0000 0.0000 0.0000 17.9977 0.0000
# 6 0.0000 0.0000 0.0000 0.0000 0.0000 35.2198
#
#
#
# Elastic Compliance Matrix: (Units=1/GPa)
#
#
# Indices 1 2 3 4 5 6 
#
# 1 0.019455 -0.011993 -0.005718 0.000000 0.000000 0.000000
# 2 -0.011993 0.019455 -0.005718 0.000000 0.000000 0.000000
# 3 -0.005718 -0.005718 0.052153 0.000000 0.000000 0.000000
# 4 0.000000 0.000000 0.000000 0.055563 0.000000 0.000000
# 5 0.000000 0.000000 0.000000 0.000000 0.055563 0.000000
# 6 0.000000 0.000000 0.000000 0.000000 0.000000 0.028393
#
#
# Mechanical properties :
#
#
# Convention : Reuss Voigt Hill
#
# Bulk Modulus (GPa) = 22.62228 46.20606 34.41417
# Shear Modulus (GPa) = 17.11302 21.97388 19.54345
#
# Velocity S-wave (km/s) = 3.22215 3.65120 3.44337
# Velocity P-wave (km/s) = 5.25049 6.76814 6.05703
#
# Compressibility (1/GPa) = 0.04420421
#
# Stress axis : x y z
#
# Youngs Moduli (GPa) = 51.39965 51.39965 19.17453
#
# Poissons Ratio (x) = 0.61646 0.10964
# Poissons Ratio (y) = 0.61646 0.10964
# Poissons Ratio (z) = 0.29390 0.29390
#
# Static dielectric constant tensor:
#      x y z
#    x 1.559130 0.000000 0.000000 
#    y 0.000000 1.559130 0.000000 
#    z 0.000000 0.000000 1.590130 
# 
# From -- ./inp_files/4752.got.cif
#   From: 2010.05.17/outbox.cif.g08.bks.cpg/sg134_3_cif.got.tgz:4752.got - 2010.05.20 12:42:49.
