data_PCOD9568722
_publ_section_title
;
Structure prediction by ZEFSAII (Michael W. Deem and Ramdas Pophale) SiO2 
 PCOD9568722
Probable space group: P 42/M B C
;
_chemical_formula_sum "Si O2"
_cell_formula_units_Z 96
_cell_length_a 27.677556
_cell_length_b 27.677556
_cell_length_c 8.834219
_cell_angle_alpha 90.000000
_cell_angle_beta 90.000000
_cell_angle_gamma 90.000000
_cell_volume 6767.427900
_symmetry_space_group_name_H-M "P 42/M B C"
_symmetry_group_IT_number 135
_symmetry_cell_setting 'tetragonal'
loop_
_space_group_symop_operation_xyz
x,y,z
-y,x,1/2+z
-x,-y,z
y,-x,1/2+z
1/2+x,1/2-y,-z
1/2-x,1/2+y,-z
1/2+y,1/2+x,1/2-z
1/2-y,1/2-x,1/2-z
-x,-y,-z
y,-x,1/2-z
x,y,-z
-y,x,1/2-z
1/2-x,1/2+y,z
1/2+x,1/2-y,z
1/2-y,1/2-x,1/2+z
1/2+y,1/2+x,1/2+z
loop_
_atom_site_type_symbol
_atom_site_label
_atom_site_fract_x
_atom_site_fract_y
_atom_site_fract_z
Si Si1 0.935483 0.984649 0.333049
Si Si2 0.685298 0.253967 0.670724
Si Si3 0.837194 0.267413 0.173211
Si Si4 0.007212 0.174915 0.174326
Si Si5 0.692932 0.408471 0.180259
Si Si6 0.164923 0.886257 0.184186
O O1 0.951720 0.969022 0.500000
O O2 0.879024 0.985746 0.330662
O O3 0.961330 0.953085 0.206115
O O4 0.707016 0.207016 0.750000
O O5 0.672328 0.240861 0.500000
O O6 0.728885 0.293005 0.666403
O O7 0.641399 0.285830 0.734529
O O8 0.814982 0.314982 0.250000
O O9 0.877706 0.239636 0.268302
O O10 0.852748 0.275801 0.000000
O O11 0.963339 0.200652 0.261550
O O12 0.059076 0.169331 0.255707
O O13 0.013203 0.191587 0.000000
O O14 0.646438 0.379672 0.252856
O O15 0.686761 0.408011 0.000000
O O16 0.161668 0.885535 0.000000
#
# Coordination Sequence:
#
# PCOD9568722 Si02
#       6
#    16  16  16  16  16  16
#     4  10  20  31  43  55  68  89 123 165 208 248
#     4   8  15  26  42  62  82 102 126 159 200 242
#     4   9  16  28  45  65  86 106 131 166 205 248
#     4  11  22  33  44  59  78 104 137 173 211 252
#     4  11  21  32  46  63  83 110 140 173 213 254
#     4  10  20  33  46  62  83 107 137 175 213 253
#
# _framework density 14.185596
#
# number of rings (size 3 to 8) (size 9 to 14) (size 15 to 20)
#    0.000    2.167    0.000    6.000    0.000   10.000 
#    0.000    0.000    0.000    0.000    0.000    0.000 
#    0.000    0.000    0.000    0.000    0.000    0.833 
#
# Total GULP energy -534425.340073 kJ/mol
# GULP energy per Si atom -5566.930626 kJ/mol
# Density = 1.415331 g / cm^3
# Si number density = 14.185596 Si / 1000 Ang^3
#
#
#
# Elastic Constant Matrix: (Units=GPa)
#
#
# Indices 1 2 3 4 5 6 
#
# 1 48.1979 28.8152 22.7656 0.0000 0.0000 0.0000
# 2 28.8152 48.1979 22.7656 0.0000 0.0000 0.0000
# 3 22.7656 22.7656 80.2772 0.0000 0.0000 0.0000
# 4 0.0000 0.0000 0.0000 15.7552 0.0000 0.0000
# 5 0.0000 0.0000 0.0000 0.0000 15.7552 0.0000
# 6 0.0000 0.0000 0.0000 0.0000 0.0000 -3.1969
#
#
#
# Elastic Compliance Matrix: (Units=1/GPa)
#
#
# Indices 1 2 3 4 5 6 
#
# 1 0.033596 -0.017996 -0.004424 0.000000 0.000000 0.000000
# 2 -0.017996 0.033596 -0.004424 0.000000 0.000000 0.000000
# 3 -0.004424 -0.004424 0.014966 0.000000 0.000000 0.000000
# 4 0.000000 0.000000 0.000000 0.063471 0.000000 0.000000
# 5 0.000000 0.000000 0.000000 0.000000 0.063471 0.000000
# 6 0.000000 0.000000 0.000000 0.000000 0.000000 -0.312803
#
#
# Mechanical properties :
#
#
# Convention : Reuss Voigt Hill
#
# Bulk Modulus (GPa) = 35.12405 36.15176 35.63790
# Shear Modulus (GPa) = -123.38382 12.48448 -55.44967
#
# Velocity S-wave (km/s) = -9.33633 2.96984 -6.25888
# Velocity P-wave (km/s) = 9.56079 6.10738 5.20137
#
# Compressibility (1/GPa) = 0.02847052
#
# Stress axis : x y z
#
# Youngs Moduli (GPa) = 29.76516 29.76516 66.81794
#
# Poissons Ratio (x) = 0.53565 0.29561
# Poissons Ratio (y) = 0.53565 0.29561
# Poissons Ratio (z) = 0.13168 0.13168
#
# Static dielectric constant tensor:
#      x y z
#    x 1.479780 0.000000 0.000000 
#    y 0.000000 1.479780 0.000000 
#    z 0.000000 0.000000 1.524990 
# 
# From -- ./inp_files/1344.got.cif
#   From: 2010.05.17/outbox.cif.g08.bks.cpg/sg135_1_cif.got.tgz:1344.got - 2010.05.20 12:50:20.
