data_PCOD9568400
_publ_section_title
;
Structure prediction by ZEFSAII (Michael W. Deem and Ramdas Pophale) SiO2 
 PCOD9568400
Probable space group: P 42/N N M
;
_chemical_formula_sum "Si O2"
_cell_formula_units_Z 96
_cell_length_a 14.680160
_cell_length_b 14.680160
_cell_length_c 21.292664
_cell_angle_alpha 90.000000
_cell_angle_beta 90.000000
_cell_angle_gamma 90.000000
_cell_volume 4588.720219
_symmetry_space_group_name_H-M "P 42/N N M"
_symmetry_group_IT_number 134
_space_group.IT_coordinate_system_code '2'
_symmetry_cell_setting 'tetragonal'
loop_
_space_group_symop_operation_xyz
x,y,z
1/2-y,x,1/2+z
1/2-x,1/2-y,z
y,1/2-x,1/2+z
x,1/2-y,1/2-z
1/2-x,y,1/2-z
y,x,-z
1/2-y,1/2-x,-z
-x,-y,-z
1/2+y,-x,1/2-z
1/2+x,1/2+y,-z
-y,1/2+x,1/2-z
-x,1/2+y,1/2+z
1/2+x,-y,1/2+z
-y,-x,z
1/2+y,1/2+x,z
loop_
_atom_site_type_symbol
_atom_site_label
_atom_site_fract_x
_atom_site_fract_y
_atom_site_fract_z
Si Si1 0.196377 0.164770 0.573213
Si Si2 0.604132 0.245234 0.468574
Si Si3 0.013415 0.829888 0.413862
Si Si4 0.535846 0.314455 0.802873
Si Si5 0.046607 0.398981 0.248931
Si Si6 0.741497 0.991555 0.352196
O O1 0.250000 0.250000 0.603116
O O2 0.185179 0.185179 0.500000
O O3 0.261479 0.083455 0.593302
O O4 0.092287 0.142044 0.592463
O O5 0.685294 0.314707 0.481495
O O6 0.644021 0.144021 0.480339
O O7 0.530317 0.281812 0.518611
O O8 0.579450 0.255468 0.395105
O O9 0.085654 0.914347 0.406548
O O10 0.025147 0.751022 0.362236
O O11 0.578798 0.250000 0.750000
O O12 0.601253 0.398748 0.818346
O O13 0.444383 0.358064 0.771036
O O14 0.039416 0.322681 0.194721
O O15 0.007011 0.347980 0.310112
O O16 0.982150 0.482150 0.229332
#
# Coordination Sequence:
#
# PCOD9568400 Si02
#       6
#    16  16  16  16  16  16
#     4  11  23  40  62  91 128 166 208 260 317 382
#     4  10  21  37  59  89 124 161 206 264 328 389
#     4  11  23  40  63  93 127 165 212 263 320 386
#     4  11  23  40  60  86 122 163 207 258 316 380
#     4  10  23  40  61  89 123 164 213 263 321 390
#     4  11  21  39  63  88 121 164 212 265 322 384
#
# _framework density 20.920864000000002
#
# number of rings (size 3 to 8) (size 9 to 14) (size 15 to 20)
#    0.000    1.333    1.667    4.000    0.000    4.833 
#    0.000    1.667    0.000    8.000    0.000    0.000 
#    0.000    0.000    0.000    0.000    0.000    0.000 
#
# Total GULP energy -534673.697034 kJ/mol
# GULP energy per Si atom -5569.517677 kJ/mol
# Density = 2.087325 g / cm^3
# Si number density = 20.920864 Si / 1000 Ang^3
#
#
#
# Elastic Constant Matrix: (Units=GPa)
#
#
# Indices 1 2 3 4 5 6 
#
# 1 55.2631 23.9696 3.8894 0.0000 0.0000 0.0000
# 2 23.9696 55.2631 3.8894 0.0000 0.0000 0.0000
# 3 3.8894 3.8894 82.2649 0.0000 0.0000 0.0000
# 4 0.0000 0.0000 0.0000 31.0224 0.0000 0.0000
# 5 0.0000 0.0000 0.0000 0.0000 31.0224 0.0000
# 6 0.0000 0.0000 0.0000 0.0000 0.0000 22.0451
#
#
#
# Elastic Compliance Matrix: (Units=1/GPa)
#
#
# Indices 1 2 3 4 5 6 
#
# 1 0.022318 -0.009638 -0.000599 0.000000 0.000000 0.000000
# 2 -0.009638 0.022318 -0.000599 0.000000 0.000000 0.000000
# 3 -0.000599 -0.000599 0.012213 0.000000 0.000000 0.000000
# 4 0.000000 0.000000 0.000000 0.032235 0.000000 0.000000
# 5 0.000000 0.000000 0.000000 0.000000 0.032235 0.000000
# 6 0.000000 0.000000 0.000000 0.000000 0.000000 0.045361
#
#
# Mechanical properties :
#
#
# Convention : Reuss Voigt Hill
#
# Bulk Modulus (GPa) = 28.42978 28.47643 28.45310
# Shear Modulus (GPa) = 24.99034 27.55418 26.27226
#
# Velocity S-wave (km/s) = 3.45993 3.63308 3.54756
# Velocity P-wave (km/s) = 5.43877 5.58928 5.51454
#
# Compressibility (1/GPa) = 0.03517439
#
# Stress axis : x y z
#
# Youngs Moduli (GPa) = 44.80747 44.80747 81.88306
#
# Poissons Ratio (x) = 0.43185 0.04909
# Poissons Ratio (y) = 0.43185 0.04909
# Poissons Ratio (z) = 0.02686 0.02686
#
# Static dielectric constant tensor:
#      x y z
#    x 1.799300 0.000000 0.000000 
#    y 0.000000 1.799300 0.000000 
#    z 0.000000 0.000000 1.764450 
# 
# From -- ./inp_files/9123.got.cif
#   From: 2010.05.17/outbox.cif.g08.bks.cpg/sg134_5_cif.got.tgz:9123.got - 2010.05.20 12:42:49.
