data_PCOD9568048
_publ_section_title
;
Structure prediction by ZEFSAII (Michael W. Deem and Ramdas Pophale) SiO2 
 PCOD9568048
Probable space group: P 42/N B C
;
_chemical_formula_sum "Si O2"
_cell_formula_units_Z 48
_cell_length_a 20.298546
_cell_length_b 20.298546
_cell_length_c 5.449245
_cell_angle_alpha 90.000000
_cell_angle_beta 90.000000
_cell_angle_gamma 90.000000
_cell_volume 2245.257702
_symmetry_space_group_name_H-M "P 42/N B C"
_symmetry_group_IT_number 133
_space_group.IT_coordinate_system_code '2'
_symmetry_cell_setting 'tetragonal'
loop_
_space_group_symop_operation_xyz
x,y,z
1/2-y,x,1/2+z
1/2-x,1/2-y,z
y,1/2-x,1/2+z
x,1/2-y,-z
1/2-x,y,-z
y,x,1/2-z
1/2-y,1/2-x,1/2-z
-x,-y,-z
1/2+y,-x,1/2-z
1/2+x,1/2+y,-z
-y,1/2+x,1/2-z
-x,1/2+y,z
1/2+x,-y,z
-y,-x,1/2+z
1/2+y,1/2+x,1/2+z
loop_
_atom_site_type_symbol
_atom_site_label
_atom_site_fract_x
_atom_site_fract_y
_atom_site_fract_z
Si Si1 0.506848 0.250000 0.500000
Si Si2 0.126209 0.926917 0.836676
Si Si3 0.681679 0.590775 0.635637
Si Si4 0.063894 0.436107 0.250000
O O1 0.548635 0.201699 0.329423
O O2 0.462550 0.199155 0.656344
O O3 0.110214 0.886505 0.592025
O O4 0.077691 0.990581 0.844429
O O5 0.750000 0.598060 0.500000
O O6 0.659099 0.659099 0.750000
O O7 0.620831 0.572154 0.457823
#
# Coordination Sequence:
#
# PCOD9568048 Si02
#       4
#     8  16  16   8
#     4  12  26  46  73 103 154 190 248 304 372 456
#     4  12  27  45  75 111 145 191 245 308 382 437
#     4  12  23  44  70 101 147 207 248 297 360 436
#     4  12  24  42  71 108 144 192 253 316 360 442
#
# _framework density 21.378392999999999
#
# number of rings (size 3 to 8) (size 9 to 14) (size 15 to 20)
#    0.000    0.000    6.667    3.000    0.000    0.000 
#    0.000   11.667    0.000    3.000    0.000    0.000 
#    0.000    0.000    0.000    0.000    0.000    0.000 
#
# Total GULP energy -268541.755013 kJ/mol
# GULP energy per Si atom -5594.619896 kJ/mol
# Density = 2.132973 g / cm^3
# Si number density = 21.378393 Si / 1000 Ang^3
#
#
#
# Elastic Constant Matrix: (Units=GPa)
#
#
# Indices 1 2 3 4 5 6 
#
# 1 51.9311 14.8435 24.4428 0.0000 0.0000 0.0000
# 2 14.8435 51.9344 24.4442 0.0000 0.0000 0.0000
# 3 24.4428 24.4442 117.0447 0.0000 0.0000 0.0000
# 4 0.0000 0.0000 0.0000 29.9318 0.0000 0.0000
# 5 0.0000 0.0000 0.0000 0.0000 29.9318 0.0000
# 6 0.0000 0.0000 0.0000 0.0000 0.0000 37.8550
#
#
#
# Elastic Compliance Matrix: (Units=1/GPa)
#
#
# Indices 1 2 3 4 5 6 
#
# 1 0.022321 -0.004642 -0.003692 0.000000 0.000000 0.000000
# 2 -0.004642 0.022319 -0.003692 0.000000 0.000000 0.000000
# 3 -0.003692 -0.003692 0.010086 0.000000 0.000000 0.000000
# 4 0.000000 0.000000 0.000000 0.033409 0.000000 0.000000
# 5 0.000000 0.000000 0.000000 0.000000 0.033409 0.000000
# 6 0.000000 0.000000 0.000000 0.000000 0.000000 0.026417
#
#
# Mechanical properties :
#
#
# Convention : Reuss Voigt Hill
#
# Bulk Modulus (GPa) = 32.60026 38.70791 35.65408
# Shear Modulus (GPa) = 27.43675 30.02238 28.72956
#
# Velocity S-wave (km/s) = 3.58633 3.75151 3.66985
# Velocity P-wave (km/s) = 5.69484 6.07540 5.88820
#
# Compressibility (1/GPa) = 0.03067461
#
# Stress axis : x y z
#
# Youngs Moduli (GPa) = 44.80134 44.80395 99.14965
#
# Poissons Ratio (x) = 0.20798 0.36605
# Poissons Ratio (y) = 0.20796 0.36605
# Poissons Ratio (z) = 0.16540 0.16541
#
# Static dielectric constant tensor:
#      x y z
#    x 1.760940 0.000000 0.000000 
#    y 0.000000 1.760940 0.000000 
#    z 0.000000 0.000000 1.707040 
# 
# From -- ./inp_files/228.got.cif
#   From: 2010.05.17/outbox.cif.g08.bks.cpg/sg133_1_cif.got.tgz:228.got - 2010.05.20 12:37:36.
