data_PCOD9568413
_publ_section_title
;
Structure prediction by ZEFSAII (Michael W. Deem and Ramdas Pophale) SiO2 
 PCOD9568413
Probable space group: P 42/N N M
;
_chemical_formula_sum "Si O2"
_cell_formula_units_Z 40
_cell_length_a 13.413441
_cell_length_b 13.413441
_cell_length_c 10.013543
_cell_angle_alpha 90.000000
_cell_angle_beta 90.000000
_cell_angle_gamma 90.000000
_cell_volume 1801.640657
_symmetry_space_group_name_H-M "P 42/N N M"
_symmetry_group_IT_number 134
_space_group.IT_coordinate_system_code '2'
_symmetry_cell_setting 'tetragonal'
loop_
_space_group_symop_operation_xyz
x,y,z
1/2-y,x,1/2+z
1/2-x,1/2-y,z
y,1/2-x,1/2+z
x,1/2-y,1/2-z
1/2-x,y,1/2-z
y,x,-z
1/2-y,1/2-x,-z
-x,-y,-z
1/2+y,-x,1/2-z
1/2+x,1/2+y,-z
-y,1/2+x,1/2-z
-x,1/2+y,1/2+z
1/2+x,-y,1/2+z
-y,-x,z
1/2+y,1/2+x,z
loop_
_atom_site_type_symbol
_atom_site_label
_atom_site_fract_x
_atom_site_fract_y
_atom_site_fract_z
Si Si1 0.757013 0.410200 0.959995
Si Si2 0.250000 0.998973 0.750000
Si Si3 0.117661 0.330037 0.644376
O O1 0.676120 0.323881 0.952199
O O2 0.861123 0.361123 0.908066
O O3 0.705157 0.504783 0.888880
O O4 0.771766 0.438827 0.115418
O O5 0.347256 0.066248 0.711669
O O6 0.151446 0.250000 0.750000
O O7 0.169071 0.330930 0.500000
#
# Coordination Sequence:
#
# PCOD9568413 Si02
#       3
#    16   8  16
#     4  10  22  40  62  91 131 177 223 276 339 404
#     4  10  21  37  64  94 126 168 222 285 343 400
#     4  10  23  41  64  93 127 169 218 274 335 398
#
# _framework density 22.201986000000002
#
# number of rings (size 3 to 8) (size 9 to 14) (size 15 to 20)
#    0.000    2.000    0.000    1.800    0.000   23.200 
#    0.000    4.000    0.000    0.000    0.000    0.000 
#    0.000    0.000    0.000    0.000    0.000    0.000 
#
# Total GULP energy -222869.879894 kJ/mol
# GULP energy per Si atom -5571.746997 kJ/mol
# Density = 2.215145 g / cm^3
# Si number density = 22.201986 Si / 1000 Ang^3
#
#
#
# Elastic Constant Matrix: (Units=GPa)
#
#
# Indices 1 2 3 4 5 6 
#
# 1 133.2458 75.3439 40.1938 0.0000 0.0000 0.0000
# 2 75.3439 133.2478 40.1941 0.0000 0.0000 0.0000
# 3 40.1938 40.1941 115.2547 0.0000 0.0000 0.0000
# 4 0.0000 0.0000 0.0000 -0.5081 0.0000 0.0000
# 5 0.0000 0.0000 0.0000 0.0000 -0.5090 0.0000
# 6 0.0000 0.0000 0.0000 0.0000 0.0000 791.6960
#
#
#
# Elastic Compliance Matrix: (Units=1/GPa)
#
#
# Indices 1 2 3 4 5 6 
#
# 1 0.011404 -0.005866 -0.001931 0.000000 0.000000 0.000000
# 2 -0.005866 0.011404 -0.001931 0.000000 0.000000 0.000000
# 3 -0.001931 -0.001931 0.010024 0.000000 0.000000 0.000000
# 4 0.000000 0.000000 0.000000 -1.968256 0.000000 0.000000
# 5 0.000000 0.000000 0.000000 0.000000 -1.964511 0.000000
# 6 0.000000 0.000000 0.000000 0.000000 0.000000 0.001263
#
#
# Mechanical properties :
#
#
# Convention : Reuss Voigt Hill
#
# Bulk Modulus (GPa) = 74.76871 77.02354 75.89613
# Shear Modulus (GPa) = -1.29040 173.20354 85.95657
#
# Velocity S-wave (km/s) = -0.76320 8.84206 6.22895
# Velocity P-wave (km/s) = 5.74222 11.79026 9.27317
#
# Compressibility (1/GPa) = 0.01337458
#
# Stress axis : x y z
#
# Youngs Moduli (GPa) = 87.68509 87.68640 99.76448
#
# Poissons Ratio (x) = 0.51436 0.19269
# Poissons Ratio (y) = 0.51435 0.19269
# Poissons Ratio (z) = 0.16936 0.16936
#
# Static dielectric constant tensor:
#      x y z
#    x 1.967800 0.000000 0.000000 
#    y 0.000000 1.967800 0.000000 
#    z 0.000000 0.000000 1.776570 
# 
# From -- ./inp_files/1846.got.cif
#   From: 2010.05.17/outbox.cif.g08.bks.cpg/sg134_1_cif.got.tgz:1846.got - 2010.05.20 12:42:49.
