data_PCOD9568325
_publ_section_title
;
Structure prediction by ZEFSAII (Michael W. Deem and Ramdas Pophale) SiO2 
 PCOD9568325
Probable space group: P 42/N N M
;
_chemical_formula_sum "Si O2"
_cell_formula_units_Z 64
_cell_length_a 21.105130
_cell_length_b 21.105130
_cell_length_c 8.173597
_cell_angle_alpha 90.000000
_cell_angle_beta 90.000000
_cell_angle_gamma 90.000000
_cell_volume 3640.736805
_symmetry_space_group_name_H-M "P 42/N N M"
_symmetry_group_IT_number 134
_space_group.IT_coordinate_system_code '2'
_symmetry_cell_setting 'tetragonal'
loop_
_space_group_symop_operation_xyz
x,y,z
1/2-y,x,1/2+z
1/2-x,1/2-y,z
y,1/2-x,1/2+z
x,1/2-y,1/2-z
1/2-x,y,1/2-z
y,x,-z
1/2-y,1/2-x,-z
-x,-y,-z
1/2+y,-x,1/2-z
1/2+x,1/2+y,-z
-y,1/2+x,1/2-z
-x,1/2+y,1/2+z
1/2+x,-y,1/2+z
-y,-x,z
1/2+y,1/2+x,z
loop_
_atom_site_type_symbol
_atom_site_label
_atom_site_fract_x
_atom_site_fract_y
_atom_site_fract_z
Si Si1 0.755256 0.848354 0.444190
Si Si2 0.448250 0.338021 0.991844
Si Si3 0.502236 0.393236 0.675828
Si Si4 0.893297 0.498174 0.188234
O O1 0.750000 0.852012 0.250000
O O2 0.823864 0.823864 0.500000
O O3 0.705401 0.794600 0.500000
O O4 0.728945 0.912873 0.516421
O O5 0.489221 0.349721 0.830987
O O6 0.392464 0.392464 0.000000
O O7 0.486478 0.347927 0.160324
O O8 0.566460 0.433541 0.695391
O O9 0.502720 0.364257 0.493785
O O10 0.445838 0.445673 0.682133
O O11 0.934120 0.434120 0.214250
#
# Coordination Sequence:
#
# PCOD9568325 Si02
#       4
#    16  16  16  16
#     4  10  20  36  46  54  66  93 137 191 243 262
#     4   9  16  26  40  58  71  91 122 154 199 261
#     4   8  13  22  37  58  83  99 105 128 177 249
#     4   8  13  22  36  59  83  97 107 127 176 252
#
# _framework density 17.578859000000001
#
# number of rings (size 3 to 8) (size 9 to 14) (size 15 to 20)
#    0.000    3.250    0.000    3.750    0.000    3.000 
#   18.000    0.000    0.000    0.000    0.000    0.000 
#    0.000    0.000    0.000    0.000    0.000    0.000 
#
# Total GULP energy -356741.617001 kJ/mol
# GULP energy per Si atom -5574.087766 kJ/mol
# Density = 1.753885 g / cm^3
# Si number density = 17.578859 Si / 1000 Ang^3
#
#
#
# Elastic Constant Matrix: (Units=GPa)
#
#
# Indices 1 2 3 4 5 6 
#
# 1 36.2349 41.0696 52.1459 0.0000 0.0000 0.0000
# 2 41.0696 36.2351 52.1445 0.0000 0.0000 0.0000
# 3 52.1459 52.1445 163.4080 0.0000 0.0000 0.0000
# 4 0.0000 0.0000 0.0000 8.6478 0.0000 0.0000
# 5 0.0000 0.0000 0.0000 0.0000 8.6443 0.0000
# 6 0.0000 0.0000 0.0000 0.0000 0.0000 38.4259
#
#
#
# Elastic Compliance Matrix: (Units=1/GPa)
#
#
# Indices 1 2 3 4 5 6 
#
# 1 -0.092065 0.114777 -0.007247 0.000000 0.000000 0.000000
# 2 0.114777 -0.092060 -0.007250 0.000000 0.000000 0.000000
# 3 -0.007247 -0.007250 0.010746 0.000000 0.000000 0.000000
# 4 0.000000 0.000000 0.000000 0.115636 0.000000 0.000000
# 5 0.000000 0.000000 0.000000 0.000000 0.115684 0.000000
# 6 0.000000 0.000000 0.000000 0.000000 0.000000 0.026024
#
#
# Mechanical properties :
#
#
# Convention : Reuss Voigt Hill
#
# Bulk Modulus (GPa) = 36.79018 58.51089 47.65054
# Shear Modulus (GPa) = -46.49611 17.17813 -14.65899
#
# Velocity S-wave (km/s) = -5.14854 3.12942 -2.89086
# Velocity P-wave (km/s) = 3.79067 6.81284 4.00285
#
# Compressibility (1/GPa) = 0.02718116
#
# Stress axis : x y z
#
# Youngs Moduli (GPa) = -10.86186 -10.86247 93.05973
#
# Poissons Ratio (x) = 1.24677 0.67438
# Poissons Ratio (y) = 1.24670 0.67470
# Poissons Ratio (z) = -0.07871 -0.07876
#
# Static dielectric constant tensor:
#      x y z
#    x 1.593110 0.000000 0.000000 
#    y 0.000000 1.593110 0.000000 
#    z 0.000000 0.000000 1.614630 
# 
# From -- ./inp_files/2779.got.cif
#   From: 2010.05.17/outbox.cif.g08.bks.cpg/sg134_2_cif.got.tgz:2779.got - 2010.05.20 12:42:49.
