data_PCOD9568083
_publ_section_title
;
Structure prediction by ZEFSAII (Michael W. Deem and Ramdas Pophale) SiO2 
 PCOD9568083
Probable space group: P 42/N N M
;
_chemical_formula_sum "Si O2"
_cell_formula_units_Z 88
_cell_length_a 18.624569
_cell_length_b 18.624569
_cell_length_c 13.840211
_cell_angle_alpha 90.000000
_cell_angle_beta 90.000000
_cell_angle_gamma 90.000000
_cell_volume 4800.817245
_symmetry_space_group_name_H-M "P 42/N N M"
_symmetry_group_IT_number 134
_space_group.IT_coordinate_system_code '2'
_symmetry_cell_setting 'tetragonal'
loop_
_space_group_symop_operation_xyz
x,y,z
1/2-y,x,1/2+z
1/2-x,1/2-y,z
y,1/2-x,1/2+z
x,1/2-y,1/2-z
1/2-x,y,1/2-z
y,x,-z
1/2-y,1/2-x,-z
-x,-y,-z
1/2+y,-x,1/2-z
1/2+x,1/2+y,-z
-y,1/2+x,1/2-z
-x,1/2+y,1/2+z
1/2+x,-y,1/2+z
-y,-x,z
1/2+y,1/2+x,z
loop_
_atom_site_type_symbol
_atom_site_label
_atom_site_fract_x
_atom_site_fract_y
_atom_site_fract_z
Si Si1 0.606562 0.992647 0.729361
Si Si2 0.369841 0.511731 0.795095
Si Si3 0.500359 0.385961 0.538824
Si Si4 0.187387 0.193494 0.384492
Si Si5 0.750000 0.929246 0.750000
Si Si6 0.523545 0.774683 0.885508
O O1 0.555349 0.924993 0.705324
O O2 0.687946 0.976054 0.698847
O O3 0.563765 0.063765 0.694991
O O4 0.611992 0.998622 0.845899
O O5 0.417981 0.582020 0.808014
O O6 0.327887 0.512449 0.692907
O O7 0.306463 0.501780 0.872178
O O8 0.434982 0.434982 0.500000
O O9 0.572610 0.427391 0.507393
O O10 0.492013 0.309403 0.489014
O O11 0.250000 0.250000 0.363072
O O12 0.184705 0.184705 0.500000
O O13 0.209271 0.122711 0.325848
O O14 0.108148 0.221068 0.359822
#
# Coordination Sequence:
#
# PCOD9568083 Si02
#       6
#    16  16  16  16   8  16
#     4  10  20  33  53  81 107 141 187 233 285 341
#     4  10  20  32  48  76 109 145 184 225 276 343
#     4  10  17  30  54  80 106 133 181 239 281 326
#     4  11  23  33  49  82 116 148 185 226 290 360
#     4  12  19  34  58  77 118 146 180 236 292 345
#     4  11  19  32  52  76 107 146 184 230 284 341
#
# _framework density 18.330213000000001
#
# number of rings (size 3 to 8) (size 9 to 14) (size 15 to 20)
#    0.000    1.455    3.636    3.545    2.545    0.000 
#    0.000    0.000    0.000   13.909    0.000   15.273 
#    0.000    0.000    0.000    0.000    0.000    0.000 
#
# Total GULP energy -491285.332236 kJ/mol
# GULP energy per Si atom -5582.787866 kJ/mol
# Density = 1.828849 g / cm^3
# Si number density = 18.330213 Si / 1000 Ang^3
#
#
#
# Elastic Constant Matrix: (Units=GPa)
#
#
# Indices 1 2 3 4 5 6 
#
# 1 128.8833 82.6767 15.5284 0.0000 0.0000 0.0000
# 2 82.6767 128.8833 15.5284 0.0000 0.0000 0.0000
# 3 15.5284 15.5284 43.1407 0.0000 0.0000 0.0000
# 4 0.0000 0.0000 0.0000 12.6283 0.0000 0.0000
# 5 0.0000 0.0000 0.0000 0.0000 12.6283 0.0000
# 6 0.0000 0.0000 0.0000 0.0000 0.0000 39.4033
#
#
#
# Elastic Compliance Matrix: (Units=1/GPa)
#
#
# Indices 1 2 3 4 5 6 
#
# 1 0.013316 -0.008326 -0.001796 0.000000 0.000000 0.000000
# 2 -0.008326 0.013316 -0.001796 0.000000 0.000000 0.000000
# 3 -0.001796 -0.001796 0.024473 0.000000 0.000000 0.000000
# 4 0.000000 0.000000 0.000000 0.079187 0.000000 0.000000
# 5 0.000000 0.000000 0.000000 0.000000 0.079187 0.000000
# 6 0.000000 0.000000 0.000000 0.000000 0.000000 0.025379
#
#
# Mechanical properties :
#
#
# Convention : Reuss Voigt Hill
#
# Bulk Modulus (GPa) = 36.67185 58.70822 47.69004
# Shear Modulus (GPa) = 18.67169 25.41022 22.04096
#
# Velocity S-wave (km/s) = 3.19506 3.72727 3.47138
# Velocity P-wave (km/s) = 5.80180 7.11485 6.49161
#
# Compressibility (1/GPa) = 0.02726887
#
# Stress axis : x y z
#
# Youngs Moduli (GPa) = 75.09643 75.09643 40.86111
#
# Poissons Ratio (x) = 0.62523 0.07340
# Poissons Ratio (y) = 0.62523 0.07340
# Poissons Ratio (z) = 0.13490 0.13490
#
# Static dielectric constant tensor:
#      x y z
#    x 1.658380 0.000000 0.000000 
#    y 0.000000 1.658380 0.000000 
#    z 0.000000 0.000000 1.666580 
# 
# From -- ./inp_files/6504.got.cif
#   From: 2010.05.17/outbox.cif.g08.bks.cpg/sg134_4_cif.got.tgz:6504.got - 2010.05.20 12:42:49.
