data_PCOD9568806
_publ_section_title
;
Structure prediction by ZEFSAII (Michael W. Deem and Ramdas Pophale) SiO2 
 PCOD9568806
Probable space group: P 42/M B C
;
_chemical_formula_sum "Si O2"
_cell_formula_units_Z 80
_cell_length_a 13.000017
_cell_length_b 13.000017
_cell_length_c 26.558598
_cell_angle_alpha 90.000000
_cell_angle_beta 90.000000
_cell_angle_gamma 90.000000
_cell_volume 4488.414801
_symmetry_space_group_name_H-M "P 42/M B C"
_symmetry_group_IT_number 135
_symmetry_cell_setting 'tetragonal'
loop_
_space_group_symop_operation_xyz
x,y,z
-y,x,1/2+z
-x,-y,z
y,-x,1/2+z
1/2+x,1/2-y,-z
1/2-x,1/2+y,-z
1/2+y,1/2+x,1/2-z
1/2-y,1/2-x,1/2-z
-x,-y,-z
y,-x,1/2-z
x,y,-z
-y,x,1/2-z
1/2-x,1/2+y,z
1/2+x,1/2-y,z
1/2-y,1/2-x,1/2+z
1/2+y,1/2+x,1/2+z
loop_
_atom_site_type_symbol
_atom_site_label
_atom_site_fract_x
_atom_site_fract_y
_atom_site_fract_z
Si Si1 0.521637 0.120738 0.943275
Si Si2 0.720611 0.888323 0.357166
Si Si3 0.251955 0.059947 0.195625
Si Si4 0.129245 0.298762 0.365973
Si Si5 0.572499 0.270956 0.204400
O O1 0.437091 0.168705 0.906088
O O2 0.630136 0.131801 0.914913
O O3 0.500000 0.000000 0.945811
O O4 0.520779 0.163108 0.000000
O O5 0.636132 0.848169 0.316155
O O6 0.789657 0.791943 0.370666
O O7 0.790354 0.976398 0.332305
O O8 0.251926 0.981564 0.242553
O O9 0.154283 0.135745 0.203867
O O10 0.254506 0.982532 0.148040
O O11 0.172514 0.369979 0.320033
#
# Coordination Sequence:
#
# PCOD9568806 Si02
#       5
#    16  16  16  16  16
#     4  10  20  38  61  82 104 141 188 229 279 330
#     4  10  21  37  55  83 111 142 185 228 271 326
#     4  11  20  36  53  79 115 150 182 225 265 319
#     4  10  21  36  56  82 111 144 182 227 276 324
#     4  10  22  33  54  81 110 151 187 218 267 329
#
# _framework density 17.823664000000001
#
# number of rings (size 3 to 8) (size 9 to 14) (size 15 to 20)
#    0.000    1.800    2.000    2.400    0.000    6.800 
#    0.000    2.000    0.000    0.000    0.000    5.600 
#    0.000    0.000    0.000    0.000    0.000    0.000 
#
# Total GULP energy -445926.385961 kJ/mol
# GULP energy per Si atom -5574.079825 kJ/mol
# Density = 1.778310 g / cm^3
# Si number density = 17.823664 Si / 1000 Ang^3
#
#
#
# Elastic Constant Matrix: (Units=GPa)
#
#
# Indices 1 2 3 4 5 6 
#
# 1 64.4906 28.2309 39.3761 0.0000 0.0000 0.0000
# 2 28.2309 64.4906 39.3761 0.0000 0.0000 0.0000
# 3 39.3761 39.3761 111.9379 0.0000 0.0000 0.0000
# 4 0.0000 0.0000 0.0000 1.1110 0.0000 0.0000
# 5 0.0000 0.0000 0.0000 0.0000 1.1110 0.0000
# 6 0.0000 0.0000 0.0000 0.0000 0.0000 13.6944
#
#
#
# Elastic Compliance Matrix: (Units=1/GPa)
#
#
# Indices 1 2 3 4 5 6 
#
# 1 0.021479 -0.006099 -0.005410 0.000000 0.000000 0.000000
# 2 -0.006099 0.021479 -0.005410 0.000000 0.000000 0.000000
# 3 -0.005410 -0.005410 0.012740 0.000000 0.000000 0.000000
# 4 0.000000 0.000000 0.000000 0.900082 0.000000 0.000000
# 5 0.000000 0.000000 0.000000 0.000000 0.900082 0.000000
# 6 0.000000 0.000000 0.000000 0.000000 0.000000 0.073023
#
#
# Mechanical properties :
#
#
# Convention : Reuss Voigt Hill
#
# Bulk Modulus (GPa) = 45.74745 50.54281 48.14513
# Shear Modulus (GPa) = 2.53806 12.11235 7.32520
#
# Velocity S-wave (km/s) = 1.19460 2.60968 2.02947
# Velocity P-wave (km/s) = 5.25597 6.12366 5.70633
#
# Compressibility (1/GPa) = 0.02185914
#
# Stress axis : x y z
#
# Youngs Moduli (GPa) = 46.55609 46.55609 78.49418
#
# Poissons Ratio (x) = 0.28396 0.42467
# Poissons Ratio (y) = 0.28396 0.42467
# Poissons Ratio (z) = 0.25188 0.25188
#
# Static dielectric constant tensor:
#      x y z
#    x 1.612670 0.000000 0.000000 
#    y 0.000000 1.612670 0.000000 
#    z 0.000000 0.000000 1.629070 
# 
# From -- ./inp_files/6678.got.cif
#   From: 2010.05.17/outbox.cif.g08.bks.cpg/sg135_4_cif.got.tgz:6678.got - 2010.05.20 12:50:20.
