data_PCOD9568040
_publ_section_title
;
Structure prediction by ZEFSAII (Michael W. Deem and Ramdas Pophale) SiO2 
 PCOD9568040
Probable space group: P 42/N B C
;
_chemical_formula_sum "Si O2"
_cell_formula_units_Z 48
_cell_length_a 9.048081
_cell_length_b 9.048081
_cell_length_c 23.196863
_cell_angle_alpha 90.000000
_cell_angle_beta 90.000000
_cell_angle_gamma 90.000000
_cell_volume 1899.075440
_symmetry_space_group_name_H-M "P 42/N B C"
_symmetry_group_IT_number 133
_space_group.IT_coordinate_system_code '2'
_symmetry_cell_setting 'tetragonal'
loop_
_space_group_symop_operation_xyz
x,y,z
1/2-y,x,1/2+z
1/2-x,1/2-y,z
y,1/2-x,1/2+z
x,1/2-y,-z
1/2-x,y,-z
y,x,1/2-z
1/2-y,1/2-x,1/2-z
-x,-y,-z
1/2+y,-x,1/2-z
1/2+x,1/2+y,-z
-y,1/2+x,1/2-z
-x,1/2+y,z
1/2+x,-y,z
-y,-x,1/2+z
1/2+y,1/2+x,1/2+z
loop_
_atom_site_type_symbol
_atom_site_label
_atom_site_fract_x
_atom_site_fract_y
_atom_site_fract_z
Si Si1 0.795465 0.030502 0.270038
Si Si2 0.911984 0.678730 0.110609
Si Si3 0.603934 0.097285 0.039402
O O1 0.668022 0.090040 0.227028
O O2 0.711772 0.989566 0.328751
O O3 0.888230 0.888230 0.250000
O O4 0.750000 0.750000 0.108653
O O5 0.880968 0.508937 0.095021
O O6 0.019357 0.759660 0.063977
O O7 0.750000 0.108790 0.000000
O O8 0.500000 0.000000 0.000000
#
# Coordination Sequence:
#
# PCOD9568040 Si02
#       3
#    16  16  16
#     4  11  28  50  79 116 159 209 274 339 411 489
#     4  12  28  51  81 115 162 214 271 338 412 486
#     4  12  27  50  80 115 160 209 269 333 410 492
#
# _framework density 25.275459999999999
#
# number of rings (size 3 to 8) (size 9 to 14) (size 15 to 20)
#    0.000    0.333    3.333    3.000    9.333    8.000 
#    0.000    0.000    0.000    0.000    0.000    0.000 
#    0.000    0.000    0.000    0.000    0.000    0.000 
#
# Total GULP energy -268722.282065 kJ/mol
# GULP energy per Si atom -5598.380876 kJ/mol
# Density = 2.521793 g / cm^3
# Si number density = 25.275460 Si / 1000 Ang^3
#
#
#
# Elastic Constant Matrix: (Units=GPa)
#
#
# Indices 1 2 3 4 5 6 
#
# 1 182.4855 64.1647 72.7467 0.0000 0.0000 0.0000
# 2 64.1647 182.4855 72.7467 0.0000 0.0000 0.0000
# 3 72.7467 72.7467 154.7199 0.0000 0.0000 0.0000
# 4 0.0000 0.0000 0.0000 35.6349 0.0000 0.0000
# 5 0.0000 0.0000 0.0000 0.0000 35.6349 0.0000
# 6 0.0000 0.0000 0.0000 0.0000 0.0000 45.7282
#
#
#
# Elastic Compliance Matrix: (Units=1/GPa)
#
#
# Indices 1 2 3 4 5 6 
#
# 1 0.007031 -0.001421 -0.002638 0.000000 0.000000 0.000000
# 2 -0.001421 0.007031 -0.002638 0.000000 0.000000 0.000000
# 3 -0.002638 -0.002638 0.008944 0.000000 0.000000 0.000000
# 4 0.000000 0.000000 0.000000 0.028062 0.000000 0.000000
# 5 0.000000 0.000000 0.000000 0.000000 0.028062 0.000000
# 6 0.000000 0.000000 0.000000 0.000000 0.000000 0.021868
#
#
# Mechanical properties :
#
#
# Convention : Reuss Voigt Hill
#
# Bulk Modulus (GPa) = 104.02563 104.33412 104.17987
# Shear Modulus (GPa) = 42.51842 44.06846 43.29344
#
# Velocity S-wave (km/s) = 4.10591 4.18009 4.14317
# Velocity P-wave (km/s) = 7.98274 8.04151 8.01218
#
# Compressibility (1/GPa) = 0.00961302
#
# Stress axis : x y z
#
# Youngs Moduli (GPa) = 142.22770 142.22770 111.80832
#
# Poissons Ratio (x) = 0.20205 0.29494
# Poissons Ratio (y) = 0.20205 0.29494
# Poissons Ratio (z) = 0.37518 0.37518
#
# Static dielectric constant tensor:
#      x y z
#    x 2.186620 0.000000 0.000000 
#    y 0.000000 2.186620 0.000000 
#    z 0.000000 0.000000 2.099280 
# 
# From -- ./inp_files/7757.got.cif
#   From: 2010.05.17/outbox.cif.g08.bks.cpg/sg133_4_cif.got.tgz:7757.got - 2010.05.20 12:37:36.
