data_PCOD9568504
_publ_section_title
;
Structure prediction by ZEFSAII (Michael W. Deem and Ramdas Pophale) SiO2 
 PCOD9568504
Probable space group: P 42/N N M
;
_chemical_formula_sum "Si O2"
_cell_formula_units_Z 54
_cell_length_a 11.251367
_cell_length_b 11.251367
_cell_length_c 22.001053
_cell_angle_alpha 90.000000
_cell_angle_beta 90.000000
_cell_angle_gamma 90.000000
_cell_volume 2785.185009
_symmetry_space_group_name_H-M "P 42/N N M"
_symmetry_group_IT_number 134
_space_group.IT_coordinate_system_code '2'
_symmetry_cell_setting 'tetragonal'
loop_
_space_group_symop_operation_xyz
x,y,z
1/2-y,x,1/2+z
1/2-x,1/2-y,z
y,1/2-x,1/2+z
x,1/2-y,1/2-z
1/2-x,y,1/2-z
y,x,-z
1/2-y,1/2-x,-z
-x,-y,-z
1/2+y,-x,1/2-z
1/2+x,1/2+y,-z
-y,1/2+x,1/2-z
-x,1/2+y,1/2+z
1/2+x,-y,1/2+z
-y,-x,z
1/2+y,1/2+x,z
loop_
_atom_site_type_symbol
_atom_site_label
_atom_site_fract_x
_atom_site_fract_y
_atom_site_fract_z
Si Si1 0.660459 0.339542 0.993453
Si Si2 0.433009 0.566992 0.681254
Si Si3 0.025059 0.974941 0.113470
Si Si4 0.750000 0.250000 0.250000
Si Si5 0.253577 0.029133 0.587417
Si Si6 0.750000 0.750000 0.000000
Si Si7 0.108788 0.891213 0.240608
O O1 0.750000 0.250000 0.959918
O O2 0.580710 0.419291 0.948275
O O3 0.578332 0.265662 0.039529
O O4 0.340938 0.659063 0.715139
O O5 0.347612 0.490138 0.637118
O O6 0.519537 0.480464 0.721287
O O7 0.084955 0.915046 0.170255
O O8 0.883758 0.957598 0.116667
O O9 0.238535 0.140617 0.544818
O O10 0.085515 0.750000 0.250000
#
# Coordination Sequence:
#
# PCOD9568504 Si02
#       7
#     8   8   8   2  16   4   8
#     4  11  20  41  68  99 135 178 217 273 358 429
#     4  12  25  45  76 101 138 183 233 303 346 408
#     4  11  23  45  68  92 137 187 224 282 350 418
#     4  12  24  52  72 108 136 172 252 300 330 412
#     4  11  23  41  68 102 134 170 224 283 356 417
#     4  12  24  40  60 106 144 168 220 284 344 446
#     4  11  29  50  65  98 138 190 243 282 344 423
#
# _framework density 19.388300000000001
#
# number of rings (size 3 to 8) (size 9 to 14) (size 15 to 20)
#    0.000    0.741    4.444    4.444    6.222    0.593 
#    0.000    1.481    0.000    0.000    0.000    0.000 
#    0.000    0.000    0.000    0.000    0.000    0.000 
#
# Total GULP energy -301214.440855 kJ/mol
# GULP energy per Si atom -5578.045201 kJ/mol
# Density = 1.934417 g / cm^3
# Si number density = 19.388300 Si / 1000 Ang^3
#
#
#
# Elastic Constant Matrix: (Units=GPa)
#
#
# Indices 1 2 3 4 5 6 
#
# 1 47.1082 132.1394 53.2845 0.0000 0.0000 0.0000
# 2 132.1394 47.1082 53.2845 0.0000 0.0000 0.0000
# 3 53.2845 53.2845 104.8586 0.0000 0.0000 0.0000
# 4 0.0000 0.0000 0.0000 193.1394 0.0000 0.0000
# 5 0.0000 0.0000 0.0000 0.0000 193.1394 0.0000
# 6 0.0000 0.0000 0.0000 0.0000 0.0000 37.8905
#
#
#
# Elastic Compliance Matrix: (Units=1/GPa)
#
#
# Indices 1 2 3 4 5 6 
#
# 1 -0.001883 0.009877 -0.004062 0.000000 0.000000 0.000000
# 2 0.009877 -0.001883 -0.004062 0.000000 0.000000 0.000000
# 3 -0.004062 -0.004062 0.013665 0.000000 0.000000 0.000000
# 4 0.000000 0.000000 0.000000 0.005178 0.000000 0.000000
# 5 0.000000 0.000000 0.000000 0.000000 0.005178 0.000000
# 6 0.000000 0.000000 0.000000 0.000000 0.000000 0.026392
#
#
# Mechanical properties :
#
#
# Convention : Reuss Voigt Hill
#
# Bulk Modulus (GPa) = 74.60283 75.16575 74.88429
# Shear Modulus (GPa) = 105.02379 82.19166 93.60772
#
# Velocity S-wave (km/s) = 7.36792 6.51801 6.95596
# Velocity P-wave (km/s) = 10.53297 9.77234 10.15978
#
# Compressibility (1/GPa) = 0.01340432
#
# Stress axis : x y z
#
# Youngs Moduli (GPa) = -531.01230 -531.01230 73.17904
#
# Poissons Ratio (x) = 5.24491 0.29727
# Poissons Ratio (y) = 5.24491 0.29727
# Poissons Ratio (z) = -2.15708 -2.15708
#
# Static dielectric constant tensor:
#      x y z
#    x 1.652260 0.000000 0.000000 
#    y 0.000000 1.652260 0.000000 
#    z 0.000000 0.000000 1.641450 
# 
# From -- ./inp_files/8663.got.cif
#   From: 2010.05.17/outbox.cif.g08.bks.cpg/sg134_5_cif.got.tgz:8663.got - 2010.05.20 12:42:49.
