data_PCOD9568957
_publ_section_title
;
Structure prediction by ZEFSAII (Michael W. Deem and Ramdas Pophale) SiO2 
 PCOD9568957
Probable space group: P 42/M B C
;
_chemical_formula_sum "Si O2"
_cell_formula_units_Z 80
_cell_length_a 9.997989
_cell_length_b 9.997989
_cell_length_c 27.823420
_cell_angle_alpha 90.000000
_cell_angle_beta 90.000000
_cell_angle_gamma 90.000000
_cell_volume 2781.223055
_symmetry_space_group_name_H-M "P 42/M B C"
_symmetry_group_IT_number 135
_symmetry_cell_setting 'tetragonal'
loop_
_space_group_symop_operation_xyz
x,y,z
-y,x,1/2+z
-x,-y,z
y,-x,1/2+z
1/2+x,1/2-y,-z
1/2-x,1/2+y,-z
1/2+y,1/2+x,1/2-z
1/2-y,1/2-x,1/2-z
-x,-y,-z
y,-x,1/2-z
x,y,-z
-y,x,1/2-z
1/2-x,1/2+y,z
1/2+x,1/2-y,z
1/2-y,1/2-x,1/2+z
1/2+y,1/2+x,1/2+z
loop_
_atom_site_type_symbol
_atom_site_label
_atom_site_fract_x
_atom_site_fract_y
_atom_site_fract_z
Si Si1 0.093683 0.793296 0.355173
Si Si2 0.454566 0.798977 0.946927
Si Si3 0.787172 0.472493 0.344102
Si Si4 0.489685 0.724171 0.743887
Si Si5 0.916853 0.823396 0.552160
O O1 0.214528 0.686915 0.351073
O O2 0.000778 0.741671 0.311908
O O3 0.339671 0.536290 0.444661
O O4 0.150118 0.942026 0.346504
O O5 0.485898 0.858864 0.894008
O O6 0.294535 0.805662 0.947905
O O7 0.794274 0.984026 0.904746
O O8 0.495903 0.854340 0.000000
O O9 0.825893 0.505897 0.288760
O O10 0.624853 0.636077 0.751756
O O11 0.984838 0.815752 0.500000
#
# Coordination Sequence:
#
# PCOD9568957 Si02
#       5
#    16  16  16  16  16
#     4  11  24  43  68 101 144 191 239 294 360 433
#     4  10  22  43  70 100 134 175 233 301 364 433
#     4  11  23  41  68 102 142 189 239 293 352 428
#     4   9  19  38  67 100 133 178 237 295 354 421
#     4  10  23  45  72 101 136 181 235 300 371 439
#
# _framework density 28.764322
#
# number of rings (size 3 to 8) (size 9 to 14) (size 15 to 20)
#    0.000    1.800    0.000    3.000    0.000    4.800 
#    0.000    9.000    0.000    7.200    0.000    0.000 
#    0.000    0.000    0.000    0.000    0.000    0.000 
#
# Total GULP energy -447289.952586 kJ/mol
# GULP energy per Si atom -5591.124407 kJ/mol
# Density = 2.869885 g / cm^3
# Si number density = 28.764322 Si / 1000 Ang^3
#
#
#
# Elastic Constant Matrix: (Units=GPa)
#
#
# Indices 1 2 3 4 5 6 
#
# 1 118.5484 70.1920 71.5282 0.0000 0.0000 0.0000
# 2 70.1920 118.5484 71.5282 0.0000 0.0000 0.0000
# 3 71.5282 71.5282 369.6621 0.0000 0.0000 0.0000
# 4 0.0000 0.0000 0.0000 16.9360 0.0000 0.0000
# 5 0.0000 0.0000 0.0000 0.0000 16.9360 0.0000
# 6 0.0000 0.0000 0.0000 0.0000 0.0000 47.8748
#
#
#
# Elastic Compliance Matrix: (Units=1/GPa)
#
#
# Indices 1 2 3 4 5 6 
#
# 1 0.013444 -0.007235 -0.001201 0.000000 0.000000 0.000000
# 2 -0.007235 0.013444 -0.001201 0.000000 0.000000 0.000000
# 3 -0.001201 -0.001201 0.003170 0.000000 0.000000 0.000000
# 4 0.000000 0.000000 0.000000 0.059046 0.000000 0.000000
# 5 0.000000 0.000000 0.000000 0.000000 0.059046 0.000000
# 6 0.000000 0.000000 0.000000 0.000000 0.000000 0.020888
#
#
# Mechanical properties :
#
#
# Convention : Reuss Voigt Hill
#
# Bulk Modulus (GPa) = 92.74465 114.80619 103.77542
# Shear Modulus (GPa) = 26.05408 42.58341 34.31875
#
# Velocity S-wave (km/s) = 3.01288 3.85180 3.45788
# Velocity P-wave (km/s) = 6.66455 7.73183 7.21794
#
# Compressibility (1/GPa) = 0.01078229
#
# Stress axis : x y z
#
# Youngs Moduli (GPa) = 74.38081 74.38081 315.44695
#
# Poissons Ratio (x) = 0.53818 0.37898
# Poissons Ratio (y) = 0.53818 0.37898
# Poissons Ratio (z) = 0.08936 0.08936
#
# Static dielectric constant tensor:
#      x y z
#    x 2.187790 0.000000 0.000000 
#    y 0.000000 2.187790 0.000000 
#    z 0.000000 0.000000 2.299260 
# 
# From -- ./inp_files/6676.got.cif
#   From: 2010.05.17/outbox.cif.g08.bks.cpg/sg135_4_cif.got.tgz:6676.got - 2010.05.20 12:50:20.
