data_PCOD9568303
_publ_section_title
;
Structure prediction by ZEFSAII (Michael W. Deem and Ramdas Pophale) SiO2 
 PCOD9568303
Probable space group: P 42/N N M
;
_chemical_formula_sum "Si O2"
_cell_formula_units_Z 52
_cell_length_a 17.128000
_cell_length_b 17.128000
_cell_length_c 7.908175
_cell_angle_alpha 90.000000
_cell_angle_beta 90.000000
_cell_angle_gamma 90.000000
_cell_volume 2320.008520
_symmetry_space_group_name_H-M "P 42/N N M"
_symmetry_group_IT_number 134
_space_group.IT_coordinate_system_code '2'
_symmetry_cell_setting 'tetragonal'
loop_
_space_group_symop_operation_xyz
x,y,z
1/2-y,x,1/2+z
1/2-x,1/2-y,z
y,1/2-x,1/2+z
x,1/2-y,1/2-z
1/2-x,y,1/2-z
y,x,-z
1/2-y,1/2-x,-z
-x,-y,-z
1/2+y,-x,1/2-z
1/2+x,1/2+y,-z
-y,1/2+x,1/2-z
-x,1/2+y,1/2+z
1/2+x,-y,1/2+z
-y,-x,z
1/2+y,1/2+x,z
loop_
_atom_site_type_symbol
_atom_site_label
_atom_site_fract_x
_atom_site_fract_y
_atom_site_fract_z
Si Si1 0.957803 0.916149 0.191469
Si Si2 0.968196 0.688702 0.902337
Si Si3 0.647249 0.147249 0.005677
Si Si4 0.250000 0.750000 0.750000
Si Si5 0.250000 0.750000 0.250000
Si Si6 0.750000 0.961060 0.750000
O O1 0.884875 0.925953 0.316206
O O2 0.998455 0.831936 0.198269
O O3 0.931203 0.931203 0.000000
O O4 0.018932 0.981069 0.241577
O O5 0.976666 0.750000 0.750000
O O6 0.054994 0.664215 0.967288
O O7 0.924940 0.726435 0.066222
O O8 0.692670 0.192670 0.152349
O O9 0.690700 0.190700 0.848673
#
# Coordination Sequence:
#
# PCOD9568303 Si02
#       6
#    16  16   8   2   2   8
#     4  11  25  49  78 108 146 197 251 305 381 454
#     4  12  24  44  72 106 145 190 253 305 370 445
#     4  11  22  40  62 100 144 199 235 302 356 447
#     4  10  20  34  60  90 140 186 220 278 380 410
#     4  10  24  42  60 106 164 210 268 290 382 464
#     4  12  27  44  75 105 139 190 248 312 367 439
#
# _framework density 22.413713000000001
#
# number of rings (size 3 to 8) (size 9 to 14) (size 15 to 20)
#    0.000    0.615    6.154    1.846    2.154    1.231 
#    5.538    0.769    0.000    0.462    0.000    0.000 
#    0.000    0.000    0.000    0.000    0.000    0.000 
#
# Total GULP energy -289682.889596 kJ/mol
# GULP energy per Si atom -5570.824800 kJ/mol
# Density = 2.236270 g / cm^3
# Si number density = 22.413713 Si / 1000 Ang^3
#
#
#
# Elastic Constant Matrix: (Units=GPa)
#
#
# Indices 1 2 3 4 5 6 
#
# 1 118.5736 23.4099 53.1997 0.0000 0.0000 0.0000
# 2 23.4099 118.5736 53.1997 0.0000 0.0000 0.0000
# 3 53.1997 53.1997 147.8587 0.0000 0.0000 0.0000
# 4 0.0000 0.0000 0.0000 45.4609 0.0000 0.0000
# 5 0.0000 0.0000 0.0000 0.0000 45.4609 0.0000
# 6 0.0000 0.0000 0.0000 0.0000 0.0000 6.1735
#
#
#
# Elastic Compliance Matrix: (Units=1/GPa)
#
#
# Indices 1 2 3 4 5 6 
#
# 1 0.010076 -0.000433 -0.003470 0.000000 0.000000 0.000000
# 2 -0.000433 0.010076 -0.003470 0.000000 0.000000 0.000000
# 3 -0.003470 -0.003470 0.009260 0.000000 0.000000 0.000000
# 4 0.000000 0.000000 0.000000 0.021997 0.000000 0.000000
# 5 0.000000 0.000000 0.000000 0.000000 0.021997 0.000000
# 6 0.000000 0.000000 0.000000 0.000000 0.000000 0.161983
#
#
# Mechanical properties :
#
#
# Convention : Reuss Voigt Hill
#
# Bulk Modulus (GPa) = 68.17668 71.62494 69.90081
# Shear Modulus (GPa) = 19.60622 36.43218 28.01920
#
# Velocity S-wave (km/s) = 2.96081 4.03605 3.53950
# Velocity P-wave (km/s) = 6.49400 7.33109 6.92520
#
# Compressibility (1/GPa) = 0.01466777
#
# Stress axis : x y z
#
# Youngs Moduli (GPa) = 99.24907 99.24907 107.99195
#
# Poissons Ratio (x) = 0.04293 0.37469
# Poissons Ratio (y) = 0.04293 0.37469
# Poissons Ratio (z) = 0.34435 0.34435
#
# Static dielectric constant tensor:
#      x y z
#    x 1.807820 0.000000 0.000000 
#    y 0.000000 1.807820 0.000000 
#    z 0.000000 0.000000 1.902660 
# 
# From -- ./inp_files/2330.got.cif
#   From: 2010.05.17/outbox.cif.g08.bks.cpg/sg134_2_cif.got.tgz:2330.got - 2010.05.20 12:42:49.
