data_PCOD9568246
_publ_section_title
;
Structure prediction by ZEFSAII (Michael W. Deem and Ramdas Pophale) SiO2 
 PCOD9568246
Probable space group: P 42/N N M
;
_chemical_formula_sum "Si O2"
_cell_formula_units_Z 82
_cell_length_a 21.059601
_cell_length_b 21.059601
_cell_length_c 10.101484
_cell_angle_alpha 90.000000
_cell_angle_beta 90.000000
_cell_angle_gamma 90.000000
_cell_volume 4480.076786
_symmetry_space_group_name_H-M "P 42/N N M"
_symmetry_group_IT_number 134
_space_group.IT_coordinate_system_code '2'
_symmetry_cell_setting 'tetragonal'
loop_
_space_group_symop_operation_xyz
x,y,z
1/2-y,x,1/2+z
1/2-x,1/2-y,z
y,1/2-x,1/2+z
x,1/2-y,1/2-z
1/2-x,y,1/2-z
y,x,-z
1/2-y,1/2-x,-z
-x,-y,-z
1/2+y,-x,1/2-z
1/2+x,1/2+y,-z
-y,1/2+x,1/2-z
-x,1/2+y,1/2+z
1/2+x,-y,1/2+z
-y,-x,z
1/2+y,1/2+x,z
loop_
_atom_site_type_symbol
_atom_site_label
_atom_site_fract_x
_atom_site_fract_y
_atom_site_fract_z
Si Si1 0.696028 0.303973 0.069983
Si Si2 0.983678 0.119896 0.437000
Si Si3 0.461982 0.432282 0.714630
Si Si4 0.554758 0.258463 0.103412
Si Si5 0.655087 0.155087 0.723665
Si Si6 0.250000 0.750000 0.250000
Si Si7 0.312658 0.989013 0.332745
O O1 0.750000 0.250000 0.088803
O O2 0.627186 0.281768 0.121482
O O3 0.680258 0.319743 0.917341
O O4 0.927052 0.072949 0.402679
O O5 0.953222 0.187985 0.452919
O O6 0.012915 0.096589 0.575289
O O7 0.035387 0.105040 0.322604
O O8 0.512865 0.487136 0.753740
O O9 0.465572 0.372897 0.811856
O O10 0.526139 0.250000 0.250000
O O11 0.522321 0.300242 0.988641
O O12 0.699270 0.199270 0.816023
O O13 0.580595 0.168894 0.727574
O O14 0.250000 0.009470 0.250000
#
# Coordination Sequence:
#
# PCOD9568246 Si02
#       7
#     8  16  16  16   8   2  16
#     4  10  22  34  44  62  99 154 191 217 258 335
#     4   9  18  33  54  75 102 142 187 231 274 334
#     4   9  17  32  55  78  98 134 189 238 282 325
#     4  11  24  35  48  73 109 145 183 224 279 330
#     4  10  20  26  41  64 100 132 178 225 275 316
#     4  12  16  24  36  68  94 132 180 212 278 316
#     4  11  19  32  50  72  99 136 176 236 274 325
#
# _framework density 18.303258
#
# number of rings (size 3 to 8) (size 9 to 14) (size 15 to 20)
#    0.000    1.951    4.390    1.756    2.732    0.000 
#    0.000    0.976    0.000    2.341    0.000    0.000 
#    0.000    0.780    1.561    0.000    0.000    0.000 
#
# Total GULP energy -456681.829057 kJ/mol
# GULP energy per Si atom -5569.290598 kJ/mol
# Density = 1.826160 g / cm^3
# Si number density = 18.303258 Si / 1000 Ang^3
#
#
#
# Elastic Constant Matrix: (Units=GPa)
#
#
# Indices 1 2 3 4 5 6 
#
# 1 53.8269 27.2341 14.7773 0.0000 0.0000 0.0000
# 2 27.2341 53.8269 14.7773 0.0000 0.0000 0.0000
# 3 14.7773 14.7773 84.7743 0.0000 0.0000 0.0000
# 4 0.0000 0.0000 0.0000 14.6720 0.0000 0.0000
# 5 0.0000 0.0000 0.0000 0.0000 14.6720 0.0000
# 6 0.0000 0.0000 0.0000 0.0000 0.0000 22.9428
#
#
#
# Elastic Compliance Matrix: (Units=1/GPa)
#
#
# Indices 1 2 3 4 5 6 
#
# 1 0.025389 -0.012215 -0.002296 0.000000 0.000000 0.000000
# 2 -0.012215 0.025389 -0.002296 0.000000 0.000000 0.000000
# 3 -0.002296 -0.002296 0.012597 0.000000 0.000000 0.000000
# 4 0.000000 0.000000 0.000000 0.068157 0.000000 0.000000
# 5 0.000000 0.000000 0.000000 0.000000 0.068157 0.000000
# 6 0.000000 0.000000 0.000000 0.000000 0.000000 0.043587
#
#
# Mechanical properties :
#
#
# Convention : Reuss Voigt Hill
#
# Bulk Modulus (GPa) = 33.60385 34.00061 33.80223
# Shear Modulus (GPa) = 17.43312 19.49998 18.46655
#
# Velocity S-wave (km/s) = 3.08954 3.26756 3.17980
# Velocity P-wave (km/s) = 5.57910 5.73171 5.65592
#
# Compressibility (1/GPa) = 0.02975849
#
# Stress axis : x y z
#
# Youngs Moduli (GPa) = 39.38730 39.38730 79.38651
#
# Poissons Ratio (x) = 0.48113 0.18230
# Poissons Ratio (y) = 0.48113 0.18230
# Poissons Ratio (z) = 0.09045 0.09045
#
# Static dielectric constant tensor:
#      x y z
#    x 1.613190 0.000000 0.000000 
#    y 0.000000 1.613190 0.000000 
#    z 0.000000 0.000000 1.782990 
# 
# From -- ./inp_files/5010.got.cif
#   From: 2010.05.17/outbox.cif.g08.bks.cpg/sg134_3_cif.got.tgz:5010.got - 2010.05.20 12:42:49.
