data_PCOD9568091
_publ_section_title
;
Structure prediction by ZEFSAII (Michael W. Deem and Ramdas Pophale) SiO2 
 PCOD9568091
Probable space group: P 42/N N M
;
_chemical_formula_sum "Si O2"
_cell_formula_units_Z 72
_cell_length_a 10.783942
_cell_length_b 10.783942
_cell_length_c 33.905463
_cell_angle_alpha 90.000000
_cell_angle_beta 90.000000
_cell_angle_gamma 90.000000
_cell_volume 3942.981742
_symmetry_space_group_name_H-M "P 42/N N M"
_symmetry_group_IT_number 134
_space_group.IT_coordinate_system_code '2'
_symmetry_cell_setting 'tetragonal'
loop_
_space_group_symop_operation_xyz
x,y,z
1/2-y,x,1/2+z
1/2-x,1/2-y,z
y,1/2-x,1/2+z
x,1/2-y,1/2-z
1/2-x,y,1/2-z
y,x,-z
1/2-y,1/2-x,-z
-x,-y,-z
1/2+y,-x,1/2-z
1/2+x,1/2+y,-z
-y,1/2+x,1/2-z
-x,1/2+y,1/2+z
1/2+x,-y,1/2+z
-y,-x,z
1/2+y,1/2+x,z
loop_
_atom_site_type_symbol
_atom_site_label
_atom_site_fract_x
_atom_site_fract_y
_atom_site_fract_z
Si Si1 0.553530 0.245834 0.927855
Si Si2 0.755212 0.459045 0.163989
Si Si3 0.859855 0.573433 0.410339
Si Si4 0.499914 0.801720 0.984538
Si Si5 0.460003 0.750000 0.750000
O O1 0.658718 0.341283 0.913669
O O2 0.607865 0.107865 0.921272
O O3 0.424882 0.292144 0.910046
O O4 0.541844 0.262935 0.975055
O O5 0.647810 0.352191 0.164554
O O6 0.883227 0.383227 0.158930
O O7 0.724249 0.546137 0.127437
O O8 0.750537 0.523052 0.207151
O O9 0.785216 0.551182 0.450601
O O10 0.970075 0.470075 0.410267
O O11 0.384031 0.884031 0.969535
O O12 0.604772 0.895229 0.000000
O O13 0.368571 0.631429 0.748882
#
# Coordination Sequence:
#
# PCOD9568091 Si02
#       5
#    16  16  16  16   8
#     4   9  18  31  43  55  76 109 148 190 231 261
#     4   8  13  21  35  57  84 112 140 168 201 249
#     4  10  18  27  42  62  82 111 152 188 216 257
#     4  10  20  31  42  58  82 111 142 179 224 270
#     4   7  10  18  32  52  82 115 136 152 186 239
#
# _framework density 18.260292
#
# number of rings (size 3 to 8) (size 9 to 14) (size 15 to 20)
#    0.000    3.000    0.000    3.333    0.000    5.778 
#    0.000    0.000    0.000    0.000    0.000    0.000 
#    0.000    3.556    0.000   11.778    0.000  120.667 
#
# Total GULP energy -401035.299537 kJ/mol
# GULP energy per Si atom -5569.934716 kJ/mol
# Density = 1.821873 g / cm^3
# Si number density = 18.260292 Si / 1000 Ang^3
#
#
#
# Elastic Constant Matrix: (Units=GPa)
#
#
# Indices 1 2 3 4 5 6 
#
# 1 51.4118 34.1242 38.4168 0.0000 0.0000 0.0000
# 2 34.1242 51.4109 38.4160 0.0000 0.0000 0.0000
# 3 38.4168 38.4160 95.8485 0.0000 0.0000 0.0000
# 4 0.0000 0.0000 0.0000 2.1882 0.0000 0.0000
# 5 0.0000 0.0000 0.0000 0.0000 2.1877 0.0000
# 6 0.0000 0.0000 0.0000 0.0000 0.0000 20.5658
#
#
#
# Elastic Compliance Matrix: (Units=1/GPa)
#
#
# Indices 1 2 3 4 5 6 
#
# 1 0.038057 -0.019789 -0.007322 0.000000 0.000000 0.000000
# 2 -0.019789 0.038057 -0.007322 0.000000 0.000000 0.000000
# 3 -0.007322 -0.007322 0.016302 0.000000 0.000000 0.000000
# 4 0.000000 0.000000 0.000000 0.457000 0.000000 0.000000
# 5 0.000000 0.000000 0.000000 0.000000 0.457107 0.000000
# 6 0.000000 0.000000 0.000000 0.000000 0.000000 0.048624
#
#
# Mechanical properties :
#
#
# Convention : Reuss Voigt Hill
#
# Bulk Modulus (GPa) = 42.46130 46.73168 44.59649
# Shear Modulus (GPa) = 4.41749 10.83594 7.62672
#
# Velocity S-wave (km/s) = 1.55706 2.43865 2.04591
# Velocity P-wave (km/s) = 5.15135 5.79456 5.48240
#
# Compressibility (1/GPa) = 0.02355086
#
# Stress axis : x y z
#
# Youngs Moduli (GPa) = 26.27633 26.27614 61.34072
#
# Poissons Ratio (x) = 0.51999 0.44914
# Poissons Ratio (y) = 0.51999 0.44911
# Poissons Ratio (z) = 0.19240 0.19238
#
# Static dielectric constant tensor:
#      x y z
#    x 1.683200 0.000000 0.000000 
#    y 0.000000 1.683200 0.000000 
#    z 0.000000 0.000000 1.627590 
# 
# From -- ./inp_files/11189.got.cif
#   From: 2010.05.17/outbox.cif.g08.bks.cpg/sg134_6_cif.got.tgz:11189.got - 2010.05.20 12:42:49.
