data_PCOD9568497
_publ_section_title
;
Structure prediction by ZEFSAII (Michael W. Deem and Ramdas Pophale) SiO2 
 PCOD9568497
Probable space group: P 42/N N M
;
_chemical_formula_sum "Si O2"
_cell_formula_units_Z 72
_cell_length_a 14.755552
_cell_length_b 14.755552
_cell_length_c 15.892703
_cell_angle_alpha 90.000000
_cell_angle_beta 90.000000
_cell_angle_gamma 90.000000
_cell_volume 3460.259657
_symmetry_space_group_name_H-M "P 42/N N M"
_symmetry_group_IT_number 134
_space_group.IT_coordinate_system_code '2'
_symmetry_cell_setting 'tetragonal'
loop_
_space_group_symop_operation_xyz
x,y,z
1/2-y,x,1/2+z
1/2-x,1/2-y,z
y,1/2-x,1/2+z
x,1/2-y,1/2-z
1/2-x,y,1/2-z
y,x,-z
1/2-y,1/2-x,-z
-x,-y,-z
1/2+y,-x,1/2-z
1/2+x,1/2+y,-z
-y,1/2+x,1/2-z
-x,1/2+y,1/2+z
1/2+x,-y,1/2+z
-y,-x,z
1/2+y,1/2+x,z
loop_
_atom_site_type_symbol
_atom_site_label
_atom_site_fract_x
_atom_site_fract_y
_atom_site_fract_z
Si Si1 0.104241 0.350941 0.258693
Si Si2 0.389263 0.889263 0.482440
Si Si3 0.986458 0.013543 0.138451
Si Si4 0.729727 0.647092 0.608412
Si Si5 0.602485 0.250000 0.750000
Si Si6 0.196245 0.955659 0.432960
O O1 0.066679 0.250000 0.250000
O O2 0.188141 0.359918 0.324154
O O3 0.140754 0.364396 0.165216
O O4 0.037188 0.419989 0.299252
O O5 0.431929 0.931929 0.566837
O O6 0.282233 0.906152 0.474419
O O7 0.444495 0.944495 0.409109
O O8 0.750000 0.750000 0.580083
O O9 0.716004 0.562341 0.545401
O O10 0.668769 0.331232 0.778123
O O11 0.550031 0.214898 0.831584
O O12 0.102930 0.897071 0.448450
#
# Coordination Sequence:
#
# PCOD9568497 Si02
#       6
#    16   8   8  16   8  16
#     4   9  18  34  58  84 112 153 207 266 315 352
#     4  11  23  36  52  88 133 171 203 244 308 419
#     4  11  22  36  60  82 124 163 218 259 309 390
#     4   9  18  32  53  86 121 148 192 268 323 366
#     4   9  16  24  41  76 116 154 191 246 289 380
#     4  11  20  31  54  86 126 165 198 241 329 380
#
# _framework density 20.807686
#
# number of rings (size 3 to 8) (size 9 to 14) (size 15 to 20)
#    0.000    2.111    3.333    3.000    1.556    0.000 
#    0.000    0.000    4.889   13.333    0.000    6.222 
#    0.000    0.000    0.000    0.000    0.000    0.000 
#
# Total GULP energy -400839.874687 kJ/mol
# GULP energy per Si atom -5567.220482 kJ/mol
# Density = 2.076033 g / cm^3
# Si number density = 20.807686 Si / 1000 Ang^3
#
#
#
# Elastic Constant Matrix: (Units=GPa)
#
#
# Indices 1 2 3 4 5 6 
#
# 1 123.5754 55.5822 32.7980 0.0000 0.0000 0.0000
# 2 55.5822 123.5754 32.7980 0.0000 0.0000 0.0000
# 3 32.7980 32.7980 55.8821 0.0000 0.0000 0.0000
# 4 0.0000 0.0000 0.0000 42.9641 0.0000 0.0000
# 5 0.0000 0.0000 0.0000 0.0000 42.9641 0.0000
# 6 0.0000 0.0000 0.0000 0.0000 0.0000 23.7623
#
#
#
# Elastic Compliance Matrix: (Units=1/GPa)
#
#
# Indices 1 2 3 4 5 6 
#
# 1 0.010908 -0.003799 -0.004173 0.000000 0.000000 0.000000
# 2 -0.003799 0.010908 -0.004173 0.000000 0.000000 0.000000
# 3 -0.004173 -0.004173 0.022793 0.000000 0.000000 0.000000
# 4 0.000000 0.000000 0.000000 0.023275 0.000000 0.000000
# 5 0.000000 0.000000 0.000000 0.000000 0.023275 0.000000
# 6 0.000000 0.000000 0.000000 0.000000 0.000000 0.042083
#
#
# Mechanical properties :
#
#
# Convention : Reuss Voigt Hill
#
# Bulk Modulus (GPa) = 49.20989 60.59879 54.90434
# Shear Modulus (GPa) = 30.43112 34.06177 32.24645
#
# Velocity S-wave (km/s) = 3.82841 4.05035 3.94094
# Velocity P-wave (km/s) = 6.57598 7.14565 6.86672
#
# Compressibility (1/GPa) = 0.02032112
#
# Stress axis : x y z
#
# Youngs Moduli (GPa) = 91.67257 91.67257 43.87365
#
# Poissons Ratio (x) = 0.34826 0.18307
# Poissons Ratio (y) = 0.34826 0.18307
# Poissons Ratio (z) = 0.38251 0.38251
#
# Static dielectric constant tensor:
#      x y z
#    x 1.803520 0.000000 0.000000 
#    y 0.000000 1.803520 0.000000 
#    z 0.000000 0.000000 1.726650 
# 
# From -- ./inp_files/7664.got.cif
#   From: 2010.05.17/outbox.cif.g08.bks.cpg/sg134_4_cif.got.tgz:7664.got - 2010.05.20 12:42:49.
