data_PCOD9568086
_publ_section_title
;
Structure prediction by ZEFSAII (Michael W. Deem and Ramdas Pophale) SiO2 
 PCOD9568086
Probable space group: P 42/N N M
;
_chemical_formula_sum "Si O2"
_cell_formula_units_Z 36
_cell_length_a 14.014781
_cell_length_b 14.014781
_cell_length_c 10.152253
_cell_angle_alpha 90.000000
_cell_angle_beta 90.000000
_cell_angle_gamma 90.000000
_cell_volume 1994.045499
_symmetry_space_group_name_H-M "P 42/N N M"
_symmetry_group_IT_number 134
_space_group.IT_coordinate_system_code '2'
_symmetry_cell_setting 'tetragonal'
loop_
_space_group_symop_operation_xyz
x,y,z
1/2-y,x,1/2+z
1/2-x,1/2-y,z
y,1/2-x,1/2+z
x,1/2-y,1/2-z
1/2-x,y,1/2-z
y,x,-z
1/2-y,1/2-x,-z
-x,-y,-z
1/2+y,-x,1/2-z
1/2+x,1/2+y,-z
-y,1/2+x,1/2-z
-x,1/2+y,1/2+z
1/2+x,-y,1/2+z
-y,-x,z
1/2+y,1/2+x,z
loop_
_atom_site_type_symbol
_atom_site_label
_atom_site_fract_x
_atom_site_fract_y
_atom_site_fract_z
Si Si1 0.250000 0.250000 0.000000
Si Si2 0.944529 0.693579 0.871200
Si Si3 0.504736 0.158064 0.841091
O O1 0.154598 0.253950 0.087069
O O2 0.988692 0.750000 0.750000
O O3 0.911011 0.587530 0.830968
O O4 0.004986 0.687310 0.004692
O O5 0.491996 0.250000 0.750000
O O6 0.598297 0.098297 0.806889
#
# Coordination Sequence:
#
# PCOD9568086 Si02
#       3
#     4  16  16
#     4   8  14  24  46  78 108 132 152 192 266 330
#     4  10  17  31  54  82 105 128 167 222 270 305
#     4  10  21  36  53  74 106 144 175 207 253 313
#
# _framework density 18.053749
#
# number of rings (size 3 to 8) (size 9 to 14) (size 15 to 20)
#    0.000    2.667    0.000    8.667    0.000    0.444 
#    0.000    6.667    0.000    0.000    0.000    0.000 
#    0.000    0.000    0.000    0.000    0.000    0.000 
#
# Total GULP energy -200776.189004 kJ/mol
# GULP energy per Si atom -5577.116361 kJ/mol
# Density = 1.801266 g / cm^3
# Si number density = 18.053749 Si / 1000 Ang^3
#
#
#
# Elastic Constant Matrix: (Units=GPa)
#
#
# Indices 1 2 3 4 5 6 
#
# 1 31.8850 29.3575 29.6561 0.0000 0.0000 0.0000
# 2 29.3575 31.8850 29.6561 0.0000 0.0000 0.0000
# 3 29.6561 29.6561 104.6647 0.0000 0.0000 0.0000
# 4 0.0000 0.0000 0.0000 4.1658 0.0000 0.0000
# 5 0.0000 0.0000 0.0000 0.0000 4.1658 0.0000
# 6 0.0000 0.0000 0.0000 0.0000 0.0000 16.0370
#
#
#
# Elastic Compliance Matrix: (Units=1/GPa)
#
#
# Indices 1 2 3 4 5 6 
#
# 1 0.209073 -0.186569 -0.006376 0.000000 0.000000 0.000000
# 2 -0.186569 0.209073 -0.006376 0.000000 0.000000 0.000000
# 3 -0.006376 -0.006376 0.013168 0.000000 0.000000 0.000000
# 4 0.000000 0.000000 0.000000 0.240048 0.000000 0.000000
# 5 0.000000 0.000000 0.000000 0.000000 0.240048 0.000000
# 6 0.000000 0.000000 0.000000 0.000000 0.000000 0.062356
#
#
# Mechanical properties :
#
#
# Convention : Reuss Voigt Hill
#
# Bulk Modulus (GPa) = 30.60899 38.41936 34.51417
# Shear Modulus (GPa) = 3.61455 10.19141 6.90298
#
# Velocity S-wave (km/s) = 1.41649 2.37851 1.95752
# Velocity P-wave (km/s) = 4.43469 5.37306 4.92627
#
# Compressibility (1/GPa) = 0.03267014
#
# Stress axis : x y z
#
# Youngs Moduli (GPa) = 4.78302 4.78302 75.94332
#
# Poissons Ratio (x) = 0.89236 0.48424
# Poissons Ratio (y) = 0.89236 0.48424
# Poissons Ratio (z) = 0.03050 0.03050
#
# Static dielectric constant tensor:
#      x y z
#    x 1.616490 0.000000 0.000000 
#    y 0.000000 1.616490 0.000000 
#    z 0.000000 0.000000 1.655810 
# 
# From -- ./inp_files/1708.got.cif
#   From: 2010.05.17/outbox.cif.g08.bks.cpg/sg134_1_cif.got.tgz:1708.got - 2010.05.20 12:42:49.
