data_PCOD9568845
_publ_section_title
;
Structure prediction by ZEFSAII (Michael W. Deem and Ramdas Pophale) SiO2 
 PCOD9568845
Probable space group: P 42/M B C
;
_chemical_formula_sum "Si O2"
_cell_formula_units_Z 64
_cell_length_a 20.335625
_cell_length_b 20.335625
_cell_length_c 8.797289
_cell_angle_alpha 90.000000
_cell_angle_beta 90.000000
_cell_angle_gamma 90.000000
_cell_volume 3638.010168
_symmetry_space_group_name_H-M "P 42/M B C"
_symmetry_group_IT_number 135
_symmetry_cell_setting 'tetragonal'
loop_
_space_group_symop_operation_xyz
x,y,z
-y,x,1/2+z
-x,-y,z
y,-x,1/2+z
1/2+x,1/2-y,-z
1/2-x,1/2+y,-z
1/2+y,1/2+x,1/2-z
1/2-y,1/2-x,1/2-z
-x,-y,-z
y,-x,1/2-z
x,y,-z
-y,x,1/2-z
1/2-x,1/2+y,z
1/2+x,1/2-y,z
1/2-y,1/2-x,1/2+z
1/2+y,1/2+x,1/2+z
loop_
_atom_site_type_symbol
_atom_site_label
_atom_site_fract_x
_atom_site_fract_y
_atom_site_fract_z
Si Si1 0.924387 0.181107 0.680972
Si Si2 0.070799 0.326645 0.317938
Si Si3 0.676270 0.926506 0.681441
Si Si4 0.673503 0.576418 0.818865
O O1 0.921814 0.192646 0.500000
O O2 0.910106 0.249681 0.764865
O O3 0.873928 0.125196 0.730449
O O4 0.999683 0.161340 0.718197
O O5 0.123950 0.376051 0.250000
O O6 0.066559 0.333678 0.500000
O O7 0.088801 0.250516 0.285225
O O8 0.999150 0.338729 0.246292
O O9 0.625631 0.874369 0.750000
O O10 0.672497 0.926806 0.500000
O O11 0.663737 0.585069 0.000000
#
# Coordination Sequence:
#
# PCOD9568845 Si02
#       4
#    16  16  16  16
#     4  10  21  37  57  82 112 145 184 228 273 325
#     4  10  21  38  58  83 113 145 184 227 273 325
#     4  11  22  38  59  82 111 145 182 226 275 326
#     4   9  20  37  55  79 112 147 184 227 272 322
#
# _framework density 17.592033000000001
#
# number of rings (size 3 to 8) (size 9 to 14) (size 15 to 20)
#    0.000    2.000    0.000    5.250    0.000    8.000 
#    0.000    7.500    0.000    0.000    0.000    0.000 
#    0.000    0.000    0.000    0.000    0.000    0.000 
#
# Total GULP energy -357475.994405 kJ/mol
# GULP energy per Si atom -5585.562413 kJ/mol
# Density = 1.755199 g / cm^3
# Si number density = 17.592033 Si / 1000 Ang^3
#
#
#
# Elastic Constant Matrix: (Units=GPa)
#
#
# Indices 1 2 3 4 5 6 
#
# 1 122.5033 114.3106 83.7722 0.0000 0.0000 0.0000
# 2 114.3106 122.5064 83.7708 0.0000 0.0000 0.0000
# 3 83.7722 83.7708 120.6217 0.0000 0.0000 0.0000
# 4 0.0000 0.0000 0.0000 35.1768 0.0000 0.0000
# 5 0.0000 0.0000 0.0000 0.0000 35.1764 0.0000
# 6 0.0000 0.0000 0.0000 0.0000 0.0000 40.9700
#
#
#
# Elastic Compliance Matrix: (Units=1/GPa)
#
#
# Indices 1 2 3 4 5 6 
#
# 1 0.065172 -0.056867 -0.005768 0.000000 0.000000 0.000000
# 2 -0.056867 0.065167 -0.005763 0.000000 0.000000 0.000000
# 3 -0.005768 -0.005763 0.016299 0.000000 0.000000 0.000000
# 4 0.000000 0.000000 0.000000 0.028428 0.000000 0.000000
# 5 0.000000 0.000000 0.000000 0.000000 0.028428 0.000000
# 6 0.000000 0.000000 0.000000 0.000000 0.000000 0.024408
#
#
# Mechanical properties :
#
#
# Convention : Reuss Voigt Hill
#
# Bulk Modulus (GPa) = 101.62595 103.25984 102.44289
# Shear Modulus (GPa) = 13.58778 27.84982 20.71880
#
# Velocity S-wave (km/s) = 2.78219 3.98313 3.43554
# Velocity P-wave (km/s) = 8.25920 8.94305 8.60792
#
# Compressibility (1/GPa) = 0.00984001
#
# Stress axis : x y z
#
# Youngs Moduli (GPa) = 15.34411 15.34529 61.35474
#
# Poissons Ratio (x) = 0.87265 0.35389
# Poissons Ratio (y) = 0.87258 0.35359
# Poissons Ratio (z) = 0.08850 0.08844
#
# Static dielectric constant tensor:
#      x y z
#    x 1.572660 0.000000 0.000000 
#    y 0.000000 1.572660 0.000000 
#    z 0.000000 0.000000 1.585380 
# 
# From -- ./inp_files/941.got.cif
#   From: 2010.05.17/outbox.cif.g08.bks.cpg/sg135_1_cif.got.tgz:941.got - 2010.05.20 12:50:20.
