data_PCOD9568826
_publ_section_title
;
Structure prediction by ZEFSAII (Michael W. Deem and Ramdas Pophale) SiO2 
 PCOD9568826
Probable space group: P 42/M B C
;
_chemical_formula_sum "Si O2"
_cell_formula_units_Z 108
_cell_length_a 14.279295
_cell_length_b 14.279295
_cell_length_c 27.178139
_cell_angle_alpha 90.000000
_cell_angle_beta 90.000000
_cell_angle_gamma 90.000000
_cell_volume 5541.575407
_symmetry_space_group_name_H-M "P 42/M B C"
_symmetry_group_IT_number 135
_symmetry_cell_setting 'tetragonal'
loop_
_space_group_symop_operation_xyz
x,y,z
-y,x,1/2+z
-x,-y,z
y,-x,1/2+z
1/2+x,1/2-y,-z
1/2-x,1/2+y,-z
1/2+y,1/2+x,1/2-z
1/2-y,1/2-x,1/2-z
-x,-y,-z
y,-x,1/2-z
x,y,-z
-y,x,1/2-z
1/2-x,1/2+y,z
1/2+x,1/2-y,z
1/2-y,1/2-x,1/2+z
1/2+y,1/2+x,1/2+z
loop_
_atom_site_type_symbol
_atom_site_label
_atom_site_fract_x
_atom_site_fract_y
_atom_site_fract_z
Si Si1 0.946898 0.129672 0.406390
Si Si2 0.885493 0.633518 0.806291
Si Si3 0.539482 0.830023 0.054883
Si Si4 0.137542 0.203061 0.638010
Si Si5 0.797384 0.007892 0.360168
Si Si6 0.272265 0.254538 0.445042
Si Si7 0.000000 0.000000 0.500000
Si Si8 0.500000 0.000000 0.623488
O O1 0.865078 0.200274 0.422559
O O2 0.981752 0.078240 0.455903
O O3 0.033350 0.178969 0.379675
O O4 0.896429 0.057551 0.368842
O O5 0.895835 0.604166 0.750000
O O6 0.775297 0.643866 0.817386
O O7 0.941641 0.728412 0.821568
O O8 0.926172 0.553213 0.842056
O O9 0.482926 0.753766 0.086413
O O10 0.643698 0.790511 0.050613
O O11 0.543156 0.922268 0.087775
O O12 0.502549 0.846080 0.000000
O O13 0.187830 0.103115 0.648373
O O14 0.187641 0.258774 0.593268
O O15 0.253108 0.291149 0.500000
#
# Coordination Sequence:
#
# PCOD9568826 Si02
#       8
#    16  16  16  16  16  16   4   8
#     4  12  22  38  61  92 136 174 219 259 322 391
#     4  11  24  46  68  92 123 167 227 281 346 396
#     4   9  19  33  57  89 130 169 207 247 312 385
#     4  11  23  41  65  94 126 172 217 273 329 396
#     4  10  22  41  62  92 132 168 214 272 333 382
#     4  10  21  34  55  89 129 170 209 253 302 383
#     4  12  24  32  64 100 126 188 214 242 328 408
#     4  10  20  40  62  90 124 166 210 268 322 388
#
# _framework density 19.489042000000001
#
# number of rings (size 3 to 8) (size 9 to 14) (size 15 to 20)
#    0.000    1.481    3.704    1.333    2.074    0.000 
#    2.667    0.741    0.000    0.000    0.000    0.000 
#    0.000    0.000    0.000    0.000    0.000    0.000 
#
# Total GULP energy -601841.554579 kJ/mol
# GULP energy per Si atom -5572.606987 kJ/mol
# Density = 1.944468 g / cm^3
# Si number density = 19.489042 Si / 1000 Ang^3
#
#
#
# Elastic Constant Matrix: (Units=GPa)
#
#
# Indices 1 2 3 4 5 6 
#
# 1 71.7441 24.6189 18.0832 0.0000 0.0000 0.0000
# 2 24.6189 71.7443 18.0834 0.0000 0.0000 0.0000
# 3 18.0832 18.0834 81.5237 0.0000 0.0000 0.0000
# 4 0.0000 0.0000 0.0000 14.2339 0.0000 0.0000
# 5 0.0000 0.0000 0.0000 0.0000 14.2339 0.0000
# 6 0.0000 0.0000 0.0000 0.0000 0.0000 28.0501
#
#
#
# Elastic Compliance Matrix: (Units=1/GPa)
#
#
# Indices 1 2 3 4 5 6 
#
# 1 0.016270 -0.004950 -0.002511 0.000000 0.000000 0.000000
# 2 -0.004950 0.016270 -0.002511 0.000000 0.000000 0.000000
# 3 -0.002511 -0.002511 0.013380 0.000000 0.000000 0.000000
# 4 0.000000 0.000000 0.000000 0.070255 0.000000 0.000000
# 5 0.000000 0.000000 0.000000 0.000000 0.070255 0.000000
# 6 0.000000 0.000000 0.000000 0.000000 0.000000 0.035650
#
#
# Mechanical properties :
#
#
# Convention : Reuss Voigt Hill
#
# Bulk Modulus (GPa) = 38.49673 38.50923 38.50298
# Shear Modulus (GPa) = 19.94550 22.25202 21.09876
#
# Velocity S-wave (km/s) = 3.20257 3.38268 3.29385
# Velocity P-wave (km/s) = 5.78542 5.92106 5.85364
#
# Compressibility (1/GPa) = 0.02597623
#
# Stress axis : x y z
#
# Youngs Moduli (GPa) = 61.46312 61.46326 74.73673
#
# Poissons Ratio (x) = 0.30425 0.18766
# Poissons Ratio (y) = 0.30425 0.18766
# Poissons Ratio (z) = 0.15433 0.15433
#
# Static dielectric constant tensor:
#      x y z
#    x 1.705930 0.000000 0.000000 
#    y 0.000000 1.705930 0.000000 
#    z 0.000000 0.000000 1.673650 
# 
# From -- ./inp_files/6176.got.cif
#   From: 2010.05.17/outbox.cif.g08.bks.cpg/sg135_4_cif.got.tgz:6176.got - 2010.05.20 12:50:20.
