data_PCOD9568333
_publ_section_title
;
Structure prediction by ZEFSAII (Michael W. Deem and Ramdas Pophale) SiO2 
 PCOD9568333
Probable space group: P 42/N N M
;
_chemical_formula_sum "Si O2"
_cell_formula_units_Z 88
_cell_length_a 15.344608
_cell_length_b 15.344608
_cell_length_c 19.287189
_cell_angle_alpha 90.000000
_cell_angle_beta 90.000000
_cell_angle_gamma 90.000000
_cell_volume 4541.303558
_symmetry_space_group_name_H-M "P 42/N N M"
_symmetry_group_IT_number 134
_space_group.IT_coordinate_system_code '2'
_symmetry_cell_setting 'tetragonal'
loop_
_space_group_symop_operation_xyz
x,y,z
1/2-y,x,1/2+z
1/2-x,1/2-y,z
y,1/2-x,1/2+z
x,1/2-y,1/2-z
1/2-x,y,1/2-z
y,x,-z
1/2-y,1/2-x,-z
-x,-y,-z
1/2+y,-x,1/2-z
1/2+x,1/2+y,-z
-y,1/2+x,1/2-z
-x,1/2+y,1/2+z
1/2+x,-y,1/2+z
-y,-x,z
1/2+y,1/2+x,z
loop_
_atom_site_type_symbol
_atom_site_label
_atom_site_fract_x
_atom_site_fract_y
_atom_site_fract_z
Si Si1 0.181399 0.818602 0.974688
Si Si2 0.538541 0.461460 0.073876
Si Si3 0.729797 0.021227 0.969195
Si Si4 0.250000 0.052372 0.250000
Si Si5 0.618035 0.700996 0.569965
Si Si6 0.607378 0.646091 0.118048
Si Si7 0.972574 0.607396 0.147364
O O1 0.250000 0.750000 0.939576
O O2 0.113169 0.886832 0.936798
O O3 0.117420 0.763009 0.022556
O O4 0.578340 0.545314 0.113408
O O5 0.500000 0.500000 0.000000
O O6 0.801457 0.959448 0.931668
O O7 0.644215 0.011879 0.923798
O O8 0.713941 0.980813 0.044554
O O9 0.307927 0.102322 0.307234
O O10 0.177114 0.001641 0.294030
O O11 0.664976 0.664976 0.500000
O O12 0.654321 0.794461 0.590802
O O13 0.616712 0.630449 0.631540
O O14 0.013367 0.513367 0.161915
#
# Coordination Sequence:
#
# PCOD9568333 Si02
#       7
#     8   8  16   8  16  16  16
#     4  12  22  34  58  98 134 162 212 266 330 398
#     4  12  20  38  66  92 128 168 225 276 333 394
#     4  10  20  36  59  91 124 162 196 262 318 391
#     4  10  26  39  62  85 116 168 210 269 304 392
#     4  10  21  35  61  91 121 155 196 260 327 387
#     4  11  21  38  60  92 123 163 216 261 327 385
#     4  10  23  41  56  82 122 166 204 249 322 392
#
# _framework density 19.377697000000001
#
# number of rings (size 3 to 8) (size 9 to 14) (size 15 to 20)
#    0.000    1.455    3.636    1.091    1.273   15.636 
#    1.636    0.000    0.000    0.000    0.000    0.000 
#    0.000    0.000    0.000    0.000    0.000    0.000 
#
# Total GULP energy -490544.972041 kJ/mol
# GULP energy per Si atom -5574.374682 kJ/mol
# Density = 1.933359 g / cm^3
# Si number density = 19.377697 Si / 1000 Ang^3
#
#
#
# Elastic Constant Matrix: (Units=GPa)
#
#
# Indices 1 2 3 4 5 6 
#
# 1 91.2191 66.5973 20.9191 0.0000 0.0000 0.0000
# 2 66.5973 91.2191 20.9191 0.0000 0.0000 0.0000
# 3 20.9191 20.9191 57.9702 0.0000 0.0000 0.0000
# 4 0.0000 0.0000 0.0000 8.8544 0.0000 0.0000
# 5 0.0000 0.0000 0.0000 0.0000 8.8544 0.0000
# 6 0.0000 0.0000 0.0000 0.0000 0.0000 41.5701
#
#
#
# Elastic Compliance Matrix: (Units=1/GPa)
#
#
# Indices 1 2 3 4 5 6 
#
# 1 0.023811 -0.016804 -0.002528 0.000000 0.000000 0.000000
# 2 -0.016804 0.023811 -0.002528 0.000000 0.000000 0.000000
# 3 -0.002528 -0.002528 0.019075 0.000000 0.000000 0.000000
# 4 0.000000 0.000000 0.000000 0.112938 0.000000 0.000000
# 5 0.000000 0.000000 0.000000 0.000000 0.112938 0.000000
# 6 0.000000 0.000000 0.000000 0.000000 0.000000 0.024056
#
#
# Mechanical properties :
#
#
# Convention : Reuss Voigt Hill
#
# Bulk Modulus (GPa) = 43.52597 50.80885 47.16741
# Shear Modulus (GPa) = 13.58663 20.65396 17.12029
#
# Velocity S-wave (km/s) = 2.65079 3.26830 2.97561
# Velocity P-wave (km/s) = 5.64620 6.36550 6.01661
#
# Compressibility (1/GPa) = 0.02297479
#
# Stress axis : x y z
#
# Youngs Moduli (GPa) = 41.99803 41.99803 52.42440
#
# Poissons Ratio (x) = 0.70573 0.13255
# Poissons Ratio (y) = 0.70573 0.13255
# Poissons Ratio (z) = 0.10619 0.10619
#
# Static dielectric constant tensor:
#      x y z
#    x 1.730570 0.000000 0.000000 
#    y 0.000000 1.730570 0.000000 
#    z 0.000000 0.000000 1.683350 
# 
# From -- ./inp_files/9071.got.cif
#   From: 2010.05.17/outbox.cif.g08.bks.cpg/sg134_5_cif.got.tgz:9071.got - 2010.05.20 12:42:49.
