data_PCOD9568072
_publ_section_title
;
Structure prediction by ZEFSAII (Michael W. Deem and Ramdas Pophale) SiO2 
 PCOD9568072
Probable space group: P 42/N N M
;
_chemical_formula_sum "Si O2"
_cell_formula_units_Z 80
_cell_length_a 11.140729
_cell_length_b 11.140729
_cell_length_c 32.340068
_cell_angle_alpha 90.000000
_cell_angle_beta 90.000000
_cell_angle_gamma 90.000000
_cell_volume 4013.914791
_symmetry_space_group_name_H-M "P 42/N N M"
_symmetry_group_IT_number 134
_space_group.IT_coordinate_system_code '2'
_symmetry_cell_setting 'tetragonal'
loop_
_space_group_symop_operation_xyz
x,y,z
1/2-y,x,1/2+z
1/2-x,1/2-y,z
y,1/2-x,1/2+z
x,1/2-y,1/2-z
1/2-x,y,1/2-z
y,x,-z
1/2-y,1/2-x,-z
-x,-y,-z
1/2+y,-x,1/2-z
1/2+x,1/2+y,-z
-y,1/2+x,1/2-z
-x,1/2+y,1/2+z
1/2+x,-y,1/2+z
-y,-x,z
1/2+y,1/2+x,z
loop_
_atom_site_type_symbol
_atom_site_label
_atom_site_fract_x
_atom_site_fract_y
_atom_site_fract_z
Si Si1 0.927799 0.866282 0.095485
Si Si2 0.448566 0.758213 0.023353
Si Si3 0.551398 0.258537 0.427347
Si Si4 0.429253 0.391105 0.252436
Si Si5 0.251299 0.395185 0.180325
O O1 0.941190 0.782217 0.135207
O O2 0.949760 0.788563 0.054167
O O3 0.800901 0.938034 0.095606
O O4 0.031213 0.968788 0.096348
O O5 0.346658 0.653343 0.023279
O O6 0.379412 0.879412 0.036836
O O7 0.484382 0.773238 0.975540
O O8 0.618996 0.381005 0.413465
O O9 0.655798 0.155798 0.426145
O O10 0.421282 0.250000 0.250000
O O11 0.562018 0.437983 0.249673
O O12 0.353976 0.434566 0.212868
O O13 0.368610 0.430670 0.295351
O O14 0.250000 0.250000 0.177904
#
# Coordination Sequence:
#
# PCOD9568072 Si02
#       5
#    16  16  16  16  16
#     4  10  17  26  46  72  95 125 169 216 257 304
#     4   8  14  24  39  63  94 126 164 212 263 311
#     4   8  14  25  41  64  96 130 165 211 265 313
#     4   9  18  35  57  77  99 129 163 201 250 307
#     4   9  19  34  50  70 100 135 163 193 247 318
#
# _framework density 19.930665999999999
#
# number of rings (size 3 to 8) (size 9 to 14) (size 15 to 20)
#    0.000    3.200    0.000    3.600    0.000    3.400 
#    0.000    4.000    0.000   16.800    0.000    2.800 
#    0.000    0.000    0.000    0.000    0.000    0.000 
#
# Total GULP energy -445473.456336 kJ/mol
# GULP energy per Si atom -5568.418204 kJ/mol
# Density = 1.988530 g / cm^3
# Si number density = 19.930666 Si / 1000 Ang^3
#
#
#
# Elastic Constant Matrix: (Units=GPa)
#
#
# Indices 1 2 3 4 5 6 
#
# 1 22.1200 28.1866 13.3396 0.0000 0.0000 0.0000
# 2 28.1866 22.1200 13.3396 0.0000 0.0000 0.0000
# 3 13.3396 13.3396 59.7952 0.0000 0.0000 0.0000
# 4 0.0000 0.0000 0.0000 24.6025 0.0000 0.0000
# 5 0.0000 0.0000 0.0000 0.0000 24.6025 0.0000
# 6 0.0000 0.0000 0.0000 0.0000 0.0000 5.0134
#
#
#
# Elastic Compliance Matrix: (Units=1/GPa)
#
#
# Indices 1 2 3 4 5 6 
#
# 1 -0.071145 0.093691 -0.005030 0.000000 0.000000 0.000000
# 2 0.093691 -0.071145 -0.005030 0.000000 0.000000 0.000000
# 3 -0.005030 -0.005030 0.018968 0.000000 0.000000 0.000000
# 4 0.000000 0.000000 0.000000 0.040646 0.000000 0.000000
# 5 0.000000 0.000000 0.000000 0.000000 0.040646 0.000000
# 6 0.000000 0.000000 0.000000 0.000000 0.000000 0.199466
#
#
# Mechanical properties :
#
#
# Convention : Reuss Voigt Hill
#
# Bulk Modulus (GPa) = 22.75815 23.75186 23.25500
# Shear Modulus (GPa) = 1037.47924 14.12163 525.80043
#
# Velocity S-wave (km/s) = 22.84019 2.66472 16.26000
# Velocity P-wave (km/s) = 26.58964 4.62718 19.08429
#
# Compressibility (1/GPa) = 0.04394031
#
# Stress axis : x y z
#
# Youngs Moduli (GPa) = -14.05572 -14.05572 52.72083
#
# Poissons Ratio (x) = 1.31689 0.26517
# Poissons Ratio (y) = 1.31689 0.26517
# Poissons Ratio (z) = -0.07069 -0.07069
#
# Static dielectric constant tensor:
#      x y z
#    x 1.726310 0.000000 0.000000 
#    y 0.000000 1.726310 0.000000 
#    z 0.000000 0.000000 1.691520 
# 
# From -- ./inp_files/11309.got.cif
#   From: 2010.05.17/outbox.cif.g08.bks.cpg/sg134_6_cif.got.tgz:11309.got - 2010.05.20 12:42:49.
