data_PCOD9568298
_publ_section_title
;
Structure prediction by ZEFSAII (Michael W. Deem and Ramdas Pophale) SiO2 
 PCOD9568298
Probable space group: P 42/N N M
;
_chemical_formula_sum "Si O2"
_cell_formula_units_Z 64
_cell_length_a 10.291767
_cell_length_b 10.291767
_cell_length_c 24.289625
_cell_angle_alpha 90.000000
_cell_angle_beta 90.000000
_cell_angle_gamma 90.000000
_cell_volume 2572.768447
_symmetry_space_group_name_H-M "P 42/N N M"
_symmetry_group_IT_number 134
_space_group.IT_coordinate_system_code '2'
_symmetry_cell_setting 'tetragonal'
loop_
_space_group_symop_operation_xyz
x,y,z
1/2-y,x,1/2+z
1/2-x,1/2-y,z
y,1/2-x,1/2+z
x,1/2-y,1/2-z
1/2-x,y,1/2-z
y,x,-z
1/2-y,1/2-x,-z
-x,-y,-z
1/2+y,-x,1/2-z
1/2+x,1/2+y,-z
-y,1/2+x,1/2-z
-x,1/2+y,1/2+z
1/2+x,-y,1/2+z
-y,-x,z
1/2+y,1/2+x,z
loop_
_atom_site_type_symbol
_atom_site_label
_atom_site_fract_x
_atom_site_fract_y
_atom_site_fract_z
Si Si1 0.999218 0.709016 0.979952
Si Si2 0.540561 0.248053 0.904276
Si Si3 0.077503 0.147249 0.798842
Si Si4 0.256456 0.965488 0.856449
O O1 0.141343 0.641343 0.976380
O O2 0.973144 0.750234 0.917830
O O3 0.998349 0.794391 0.034862
O O4 0.897668 0.602333 0.000000
O O5 0.657409 0.342592 0.889124
O O6 0.603243 0.103243 0.907225
O O7 0.442547 0.269424 0.855061
O O8 0.077028 0.250000 0.750000
O O9 0.207751 0.065354 0.810820
O O10 0.959732 0.040269 0.792221
O O11 0.148560 0.851441 0.857059
O O12 0.394719 0.894719 0.847301
#
# Coordination Sequence:
#
# PCOD9568298 Si02
#       4
#    16  16  16  16
#     4   9  17  31  54  85 121 160 203 257 319 382
#     4   9  17  30  51  82 122 166 207 253 318 390
#     4  10  20  34  56  89 127 167 215 272 331 392
#     4   9  18  34  57  87 125 169 216 266 324 392
#
# _framework density 24.875924999999999
#
# number of rings (size 3 to 8) (size 9 to 14) (size 15 to 20)
#    0.000    2.750    0.000    1.500    0.000    5.250 
#    0.000    6.250    0.000    3.000    0.000   14.000 
#    0.000   30.500    0.000    0.500    0.000    1.750 
#
# Total GULP energy -357393.116249 kJ/mol
# GULP energy per Si atom -5584.267441 kJ/mol
# Density = 2.481931 g / cm^3
# Si number density = 24.875925 Si / 1000 Ang^3
#
#
#
# Elastic Constant Matrix: (Units=GPa)
#
#
# Indices 1 2 3 4 5 6 
#
# 1 79.0812 62.3226 72.1432 0.0000 0.0000 0.0000
# 2 62.3226 79.0813 72.1426 0.0000 0.0000 0.0000
# 3 72.1432 72.1426 219.6345 0.0000 0.0000 0.0000
# 4 0.0000 0.0000 0.0000 42.3633 0.0000 0.0000
# 5 0.0000 0.0000 0.0000 0.0000 42.3627 0.0000
# 6 0.0000 0.0000 0.0000 0.0000 0.0000 33.2006
#
#
#
# Elastic Compliance Matrix: (Units=1/GPa)
#
#
# Indices 1 2 3 4 5 6 
#
# 1 0.035154 -0.024517 -0.003494 0.000000 0.000000 0.000000
# 2 -0.024517 0.035154 -0.003494 0.000000 0.000000 0.000000
# 3 -0.003494 -0.003494 0.006848 0.000000 0.000000 0.000000
# 4 0.000000 0.000000 0.000000 0.023605 0.000000 0.000000
# 5 0.000000 0.000000 0.000000 0.000000 0.023606 0.000000
# 6 0.000000 0.000000 0.000000 0.000000 0.000000 0.030120
#
#
# Mechanical properties :
#
#
# Convention : Reuss Voigt Hill
#
# Bulk Modulus (GPa) = 70.68771 87.89042 79.28906
# Shear Modulus (GPa) = 22.50103 34.99789 28.74946
#
# Velocity S-wave (km/s) = 3.01080 3.75493 3.40327
# Velocity P-wave (km/s) = 6.36902 7.36258 6.88375
#
# Compressibility (1/GPa) = 0.01414673
#
# Stress axis : x y z
#
# Youngs Moduli (GPa) = 28.44621 28.44645 146.02126
#
# Poissons Ratio (x) = 0.69742 0.51021
# Poissons Ratio (y) = 0.69741 0.51017
# Poissons Ratio (z) = 0.09939 0.09939
#
# Static dielectric constant tensor:
#      x y z
#    x 2.112700 0.000000 0.000000 
#    y 0.000000 2.112710 0.000000 
#    z 0.000000 0.000000 1.983180 
# 
# From -- ./inp_files/8678.got.cif
#   From: 2010.05.17/outbox.cif.g08.bks.cpg/sg134_5_cif.got.tgz:8678.got - 2010.05.20 12:42:49.
