data_PCOD9568165
_publ_section_title
;
Structure prediction by ZEFSAII (Michael W. Deem and Ramdas Pophale) SiO2 
 PCOD9568165
Probable space group: P 42/N N M
;
_chemical_formula_sum "Si O2"
_cell_formula_units_Z 48
_cell_length_a 12.930409
_cell_length_b 12.930409
_cell_length_c 13.124084
_cell_angle_alpha 90.000000
_cell_angle_beta 90.000000
_cell_angle_gamma 90.000000
_cell_volume 2194.287483
_symmetry_space_group_name_H-M "P 42/N N M"
_symmetry_group_IT_number 134
_space_group.IT_coordinate_system_code '2'
_symmetry_cell_setting 'tetragonal'
loop_
_space_group_symop_operation_xyz
x,y,z
1/2-y,x,1/2+z
1/2-x,1/2-y,z
y,1/2-x,1/2+z
x,1/2-y,1/2-z
1/2-x,y,1/2-z
y,x,-z
1/2-y,1/2-x,-z
-x,-y,-z
1/2+y,-x,1/2-z
1/2+x,1/2+y,-z
-y,1/2+x,1/2-z
-x,1/2+y,1/2+z
1/2+x,-y,1/2+z
-y,-x,z
1/2+y,1/2+x,z
loop_
_atom_site_type_symbol
_atom_site_label
_atom_site_fract_x
_atom_site_fract_y
_atom_site_fract_z
Si Si1 0.532762 0.196548 0.650170
Si Si2 0.355365 0.186686 0.382242
Si Si3 0.577396 0.254346 0.426307
O O1 0.577130 0.250000 0.750000
O O2 0.593916 0.093916 0.625137
O O3 0.418263 0.159464 0.678435
O O4 0.547077 0.262858 0.547020
O O5 0.250000 0.250000 0.366640
O O6 0.350470 0.149531 0.500000
O O7 0.466843 0.240153 0.370784
O O8 0.646320 0.353681 0.396725
O O9 0.654444 0.154444 0.413034
#
# Coordination Sequence:
#
# PCOD9568165 Si02
#       3
#    16  16  16
#     4  10  19  31  49  74 104 135 167 208 260 312
#     4   9  18  33  50  71 100 135 172 208 251 304
#     4   9  17  31  53  78 102 131 171 217 258 299
#
# _framework density 21.874980999999998
#
# number of rings (size 3 to 8) (size 9 to 14) (size 15 to 20)
#    0.000    2.667    0.000    2.000    0.000    6.333 
#    0.000   15.000    0.000    0.000    0.000    0.000 
#    0.000    5.333    0.000    2.000    0.000    0.000 
#
# Total GULP energy -267461.018192 kJ/mol
# GULP energy per Si atom -5572.104546 kJ/mol
# Density = 2.182519 g / cm^3
# Si number density = 21.874981 Si / 1000 Ang^3
#
#
#
# Elastic Constant Matrix: (Units=GPa)
#
#
# Indices 1 2 3 4 5 6 
#
# 1 150.1004 76.0515 5.0494 0.0000 0.0000 0.0000
# 2 76.0515 150.1008 5.0494 0.0000 0.0000 0.0000
# 3 5.0494 5.0494 52.3761 0.0000 0.0000 0.0000
# 4 0.0000 0.0000 0.0000 -55.2586 0.0000 0.0000
# 5 0.0000 0.0000 0.0000 0.0000 -55.2597 0.0000
# 6 0.0000 0.0000 0.0000 0.0000 0.0000 12.5018
#
#
#
# Elastic Compliance Matrix: (Units=1/GPa)
#
#
# Indices 1 2 3 4 5 6 
#
# 1 0.008973 -0.004532 -0.000428 0.000000 0.000000 0.000000
# 2 -0.004532 0.008973 -0.000428 0.000000 0.000000 0.000000
# 3 -0.000428 -0.000428 0.019175 0.000000 0.000000 0.000000
# 4 0.000000 0.000000 0.000000 -0.018097 0.000000 0.000000
# 5 0.000000 0.000000 0.000000 0.000000 -0.018096 0.000000
# 6 0.000000 0.000000 0.000000 0.000000 0.000000 0.079989
#
#
# Mechanical properties :
#
#
# Convention : Reuss Voigt Hill
#
# Bulk Modulus (GPa) = 37.95852 58.31975 48.13914
# Shear Modulus (GPa) = 49.76411 -1.84150 23.96131
#
# Velocity S-wave (km/s) = 4.77480 -0.91851 3.31324
# Velocity P-wave (km/s) = 6.91292 5.05900 6.05731
#
# Compressibility (1/GPa) = 0.02634454
#
# Stress axis : x y z
#
# Youngs Moduli (GPa) = 111.44860 111.44892 52.15063
#
# Poissons Ratio (x) = 0.50507 0.02233
# Poissons Ratio (y) = 0.50506 0.02233
# Poissons Ratio (z) = 0.04771 0.04771
#
# Static dielectric constant tensor:
#      x y z
#    x 1.862560 0.000000 0.000000 
#    y 0.000000 1.862560 0.000000 
#    z 0.000000 0.000000 1.876210 
# 
# From -- ./inp_files/7198.got.cif
#   From: 2010.05.17/outbox.cif.g08.bks.cpg/sg134_4_cif.got.tgz:7198.got - 2010.05.20 12:42:49.
