data_PCOD9568365
_publ_section_title
;
Structure prediction by ZEFSAII (Michael W. Deem and Ramdas Pophale) SiO2 
 PCOD9568365
Probable space group: P 42/N N M
;
_chemical_formula_sum "Si O2"
_cell_formula_units_Z 64
_cell_length_a 12.064253
_cell_length_b 12.064253
_cell_length_c 22.346841
_cell_angle_alpha 90.000000
_cell_angle_beta 90.000000
_cell_angle_gamma 90.000000
_cell_volume 3252.497800
_symmetry_space_group_name_H-M "P 42/N N M"
_symmetry_group_IT_number 134
_space_group.IT_coordinate_system_code '2'
_symmetry_cell_setting 'tetragonal'
loop_
_space_group_symop_operation_xyz
x,y,z
1/2-y,x,1/2+z
1/2-x,1/2-y,z
y,1/2-x,1/2+z
x,1/2-y,1/2-z
1/2-x,y,1/2-z
y,x,-z
1/2-y,1/2-x,-z
-x,-y,-z
1/2+y,-x,1/2-z
1/2+x,1/2+y,-z
-y,1/2+x,1/2-z
-x,1/2+y,1/2+z
1/2+x,-y,1/2+z
-y,-x,z
1/2+y,1/2+x,z
loop_
_atom_site_type_symbol
_atom_site_label
_atom_site_fract_x
_atom_site_fract_y
_atom_site_fract_z
Si Si1 0.747367 0.577337 0.333562
Si Si2 0.630043 0.556095 0.758305
Si Si3 0.757132 0.920555 0.476716
Si Si4 0.339392 0.839392 0.519123
Si Si5 0.661338 0.338663 0.163963
O O1 0.850013 0.650439 0.309676
O O2 0.633134 0.597407 0.298662
O O3 0.736166 0.582794 0.404664
O O4 0.795883 0.457057 0.316404
O O5 0.750000 0.500753 0.750000
O O6 0.533839 0.466162 0.770568
O O7 0.876119 0.876119 0.500000
O O8 0.667578 0.832423 0.500000
O O9 0.708047 0.039375 0.497433
O O10 0.250000 0.750000 0.499052
O O11 0.342180 0.842180 0.591578
O O12 0.750000 0.250000 0.182579
#
# Coordination Sequence:
#
# PCOD9568365 Si02
#       5
#    16  16  16   8   8
#     4  10  20  39  62  93 123 157 205 266 315 374
#     4  11  24  40  63  90 124 164 206 258 318 378
#     4  10  22  36  64  91 122 166 216 263 316 375
#     4   9  19  37  55  85 125 165 205 256 309 370
#     4   9  16  31  59  89 126 153 190 256 326 370
#
# _framework density 19.677185999999999
#
# number of rings (size 3 to 8) (size 9 to 14) (size 15 to 20)
#    0.000    2.000    1.250    2.625    7.000    1.750 
#    0.000    0.000    0.000    0.000    0.000    0.000 
#    0.000    0.000    0.000    0.000    0.000    0.000 
#
# Total GULP energy -356705.236665 kJ/mol
# GULP energy per Si atom -5573.519323 kJ/mol
# Density = 1.963240 g / cm^3
# Si number density = 19.677186 Si / 1000 Ang^3
#
#
#
# Elastic Constant Matrix: (Units=GPa)
#
#
# Indices 1 2 3 4 5 6 
#
# 1 110.6665 60.0147 20.9986 0.0000 0.0000 0.0000
# 2 60.0147 110.6664 20.9975 0.0000 0.0000 0.0000
# 3 20.9986 20.9975 79.4735 0.0000 0.0000 0.0000
# 4 0.0000 0.0000 0.0000 18.2681 0.0000 0.0000
# 5 0.0000 0.0000 0.0000 0.0000 18.2681 0.0000
# 6 0.0000 0.0000 0.0000 0.0000 0.0000 31.2014
#
#
#
# Elastic Compliance Matrix: (Units=1/GPa)
#
#
# Indices 1 2 3 4 5 6 
#
# 1 0.013004 -0.006738 -0.001656 0.000000 0.000000 0.000000
# 2 -0.006738 0.013004 -0.001655 0.000000 0.000000 0.000000
# 3 -0.001656 -0.001655 0.013458 0.000000 0.000000 0.000000
# 4 0.000000 0.000000 0.000000 0.054740 0.000000 0.000000
# 5 0.000000 0.000000 0.000000 0.000000 0.054740 0.000000
# 6 0.000000 0.000000 0.000000 0.000000 0.000000 0.032050
#
#
# Mechanical properties :
#
#
# Convention : Reuss Voigt Hill
#
# Bulk Modulus (GPa) = 51.63248 56.09201 53.86224
# Shear Modulus (GPa) = 24.09042 26.80058 25.44550
#
# Velocity S-wave (km/s) = 3.50277 3.69455 3.59994
# Velocity P-wave (km/s) = 6.53115 6.83868 6.68669
#
# Compressibility (1/GPa) = 0.01936765
#
# Stress axis : x y z
#
# Youngs Moduli (GPa) = 76.89665 76.89695 74.30692
#
# Poissons Ratio (x) = 0.51815 0.12304
# Poissons Ratio (y) = 0.51814 0.12301
# Poissons Ratio (z) = 0.12732 0.12730
#
# Static dielectric constant tensor:
#      x y z
#    x 1.907240 0.000000 0.000000 
#    y 0.000000 1.907240 0.000000 
#    z 0.000000 0.000000 1.689440 
# 
# From -- ./inp_files/9833.got.cif
#   From: 2010.05.17/outbox.cif.g08.bks.cpg/sg134_5_cif.got.tgz:9833.got - 2010.05.20 12:42:49.
