data_PCOD9568838
_publ_section_title
;
Structure prediction by ZEFSAII (Michael W. Deem and Ramdas Pophale) SiO2 
 PCOD9568838
Probable space group: P 42/M B C
;
_chemical_formula_sum "Si O2"
_cell_formula_units_Z 112
_cell_length_a 15.253361
_cell_length_b 15.253361
_cell_length_c 25.672936
_cell_angle_alpha 90.000000
_cell_angle_beta 90.000000
_cell_angle_gamma 90.000000
_cell_volume 5973.194214
_symmetry_space_group_name_H-M "P 42/M B C"
_symmetry_group_IT_number 135
_symmetry_cell_setting 'tetragonal'
loop_
_space_group_symop_operation_xyz
x,y,z
-y,x,1/2+z
-x,-y,z
y,-x,1/2+z
1/2+x,1/2-y,-z
1/2-x,1/2+y,-z
1/2+y,1/2+x,1/2-z
1/2-y,1/2-x,1/2-z
-x,-y,-z
y,-x,1/2-z
x,y,-z
-y,x,1/2-z
1/2-x,1/2+y,z
1/2+x,1/2-y,z
1/2-y,1/2-x,1/2+z
1/2+y,1/2+x,1/2+z
loop_
_atom_site_type_symbol
_atom_site_label
_atom_site_fract_x
_atom_site_fract_y
_atom_site_fract_z
Si Si1 0.436929 0.077189 0.062512
Si Si2 0.748468 0.829159 0.801313
Si Si3 0.593994 0.390428 0.259325
Si Si4 0.454585 0.275680 0.937399
Si Si5 0.738754 0.976187 0.116669
Si Si6 0.077935 0.068935 0.937647
Si Si7 0.304230 0.340655 0.136117
O O1 0.462738 0.175032 0.080134
O O2 0.338456 0.056159 0.079475
O O3 0.500000 0.000000 0.082393
O O4 0.442256 0.077687 0.000000
O O5 0.689528 0.810473 0.750000
O O6 0.847149 0.833937 0.779752
O O7 0.728257 0.920096 0.830446
O O8 0.735860 0.748863 0.841154
O O9 0.491561 0.381348 0.249220
O O10 0.618582 0.362612 0.317439
O O11 0.537959 0.336061 0.924408
O O12 0.368274 0.316852 0.911281
O O13 0.445060 0.278520 0.000000
O O14 0.834069 0.952810 0.093071
O O15 0.737472 0.081234 0.122801
O O16 0.094306 0.064290 0.000000
O O17 0.000000 0.000000 0.925820
#
# Coordination Sequence:
#
# PCOD9568838 Si02
#       7
#    16  16  16  16  16  16  16
#     4  10  23  44  64  87 125 171 220 261 296 367
#     4  10  23  41  56  87 130 158 202 266 311 371
#     4  10  21  37  63  92 121 158 202 257 315 373
#     4  10  21  39  60  90 132 168 202 256 318 374
#     4  12  22  38  67  93 119 169 214 251 321 383
#     4  10  21  35  57  96 137 160 195 261 325 381
#     4  11  22  38  62  93 125 164 204 256 321 373
#
# _framework density 18.750436000000001
#
# number of rings (size 3 to 8) (size 9 to 14) (size 15 to 20)
#    0.000    1.571    4.286    0.429    2.000    1.714 
#    0.000    0.000    0.000    0.000    0.000    0.000 
#    0.000    0.000    0.000    0.000    0.000    0.000 
#
# Total GULP energy -625340.355354 kJ/mol
# GULP energy per Si atom -5583.396030 kJ/mol
# Density = 1.870776 g / cm^3
# Si number density = 18.750436 Si / 1000 Ang^3
#
#
#
# Elastic Constant Matrix: (Units=GPa)
#
#
# Indices 1 2 3 4 5 6 
#
# 1 75.6981 24.9584 8.9217 0.0000 0.0000 0.0000
# 2 24.9584 75.6976 8.9218 0.0000 0.0000 0.0000
# 3 8.9217 8.9218 13.6049 0.0000 0.0000 0.0000
# 4 0.0000 0.0000 0.0000 16.0309 0.0000 0.0000
# 5 0.0000 0.0000 0.0000 0.0000 16.0305 0.0000
# 6 0.0000 0.0000 0.0000 0.0000 0.0000 32.1102
#
#
#
# Elastic Compliance Matrix: (Units=1/GPa)
#
#
# Indices 1 2 3 4 5 6 
#
# 1 0.015475 -0.004233 -0.007372 0.000000 0.000000 0.000000
# 2 -0.004233 0.015475 -0.007372 0.000000 0.000000 0.000000
# 3 -0.007372 -0.007372 0.083172 0.000000 0.000000 0.000000
# 4 0.000000 0.000000 0.000000 0.062379 0.000000 0.000000
# 5 0.000000 0.000000 0.000000 0.000000 0.062381 0.000000
# 6 0.000000 0.000000 0.000000 0.000000 0.000000 0.031143
#
#
# Mechanical properties :
#
#
# Convention : Reuss Voigt Hill
#
# Bulk Modulus (GPa) = 13.12906 27.84493 20.48700
# Shear Modulus (GPa) = 14.99841 20.98091 17.98966
#
# Velocity S-wave (km/s) = 2.83131 3.34871 3.10082
# Velocity P-wave (km/s) = 4.20781 5.46208 4.87545
#
# Compressibility (1/GPa) = 0.07616691
#
# Stress axis : x y z
#
# Youngs Moduli (GPa) = 64.62037 64.61966 12.02334
#
# Poissons Ratio (x) = 0.27356 0.08863
# Poissons Ratio (y) = 0.27357 0.08864
# Poissons Ratio (z) = 0.47637 0.47639
#
# Static dielectric constant tensor:
#      x y z
#    x 1.642430 0.000000 0.000000 
#    y 0.000000 1.642430 0.000000 
#    z 0.000000 0.000000 1.653300 
# 
# From -- ./inp_files/6491.got.cif
#   From: 2010.05.17/outbox.cif.g08.bks.cpg/sg135_4_cif.got.tgz:6491.got - 2010.05.20 12:50:20.
