data_PCOD9568034
_publ_section_title
;
Structure prediction by ZEFSAII (Michael W. Deem and Ramdas Pophale) SiO2 
 PCOD9568034
Probable space group: P 42/N B C
;
_chemical_formula_sum "Si O2"
_cell_formula_units_Z 48
_cell_length_a 9.043600
_cell_length_b 9.043600
_cell_length_c 22.019413
_cell_angle_alpha 90.000000
_cell_angle_beta 90.000000
_cell_angle_gamma 90.000000
_cell_volume 1800.895146
_symmetry_space_group_name_H-M "P 42/N B C"
_symmetry_group_IT_number 133
_space_group.IT_coordinate_system_code '2'
_symmetry_cell_setting 'tetragonal'
loop_
_space_group_symop_operation_xyz
x,y,z
1/2-y,x,1/2+z
1/2-x,1/2-y,z
y,1/2-x,1/2+z
x,1/2-y,-z
1/2-x,y,-z
y,x,1/2-z
1/2-y,1/2-x,1/2-z
-x,-y,-z
1/2+y,-x,1/2-z
1/2+x,1/2+y,-z
-y,1/2+x,1/2-z
-x,1/2+y,z
1/2+x,-y,z
-y,-x,1/2+z
1/2+y,1/2+x,1/2+z
loop_
_atom_site_type_symbol
_atom_site_label
_atom_site_fract_x
_atom_site_fract_y
_atom_site_fract_z
Si Si1 0.117966 0.840921 0.935535
Si Si2 0.874741 0.079020 0.774308
Si Si3 0.612919 0.839816 0.876073
O O1 0.250000 0.750000 0.903462
O O2 0.958865 0.796483 0.912337
O O3 0.140950 0.016044 0.920441
O O4 0.114269 0.750000 0.000000
O O5 0.699552 0.089748 0.778978
O O6 0.984191 0.115535 0.828850
O O7 0.921667 0.921667 0.750000
O O8 0.750000 0.750000 0.848001
#
# Coordination Sequence:
#
# PCOD9568034 Si02
#       3
#    16  16  16
#     4  11  26  48  77 115 158 205 268 342 413 503
#     4  11  28  47  74 113 161 207 267 328 401 491
#     4  12  27  47  80 112 158 216 269 337 426 500
#
# _framework density 26.653413
#
# number of rings (size 3 to 8) (size 9 to 14) (size 15 to 20)
#    0.000    0.667    0.000    5.000   18.667    3.333 
#    0.000    0.000    0.000    0.000    0.000    0.000 
#    0.000    0.000    0.000    0.000    0.000    0.000 
#
# Total GULP energy -267362.788296 kJ/mol
# GULP energy per Si atom -5570.058090 kJ/mol
# Density = 2.659275 g / cm^3
# Si number density = 26.653413 Si / 1000 Ang^3
#
#
#
# Elastic Constant Matrix: (Units=GPa)
#
#
# Indices 1 2 3 4 5 6 
#
# 1 151.1949 67.8056 38.3737 0.0000 0.0000 0.0000
# 2 67.8056 151.1949 38.3737 0.0000 0.0000 0.0000
# 3 38.3737 38.3737 105.9529 0.0000 0.0000 0.0000
# 4 0.0000 0.0000 0.0000 -5.7998 0.0000 0.0000
# 5 0.0000 0.0000 0.0000 0.0000 -5.7998 0.0000
# 6 0.0000 0.0000 0.0000 0.0000 0.0000 67.3230
#
#
#
# Elastic Compliance Matrix: (Units=1/GPa)
#
#
# Indices 1 2 3 4 5 6 
#
# 1 0.008611 -0.003381 -0.001894 0.000000 0.000000 0.000000
# 2 -0.003381 0.008611 -0.001894 0.000000 0.000000 0.000000
# 3 -0.001894 -0.001894 0.010810 0.000000 0.000000 0.000000
# 4 0.000000 0.000000 0.000000 -0.172420 0.000000 0.000000
# 5 0.000000 0.000000 0.000000 0.000000 -0.172420 0.000000
# 6 0.000000 0.000000 0.000000 0.000000 0.000000 0.014854
#
#
# Mechanical properties :
#
#
# Convention : Reuss Voigt Hill
#
# Bulk Modulus (GPa) = 73.02749 77.49433 75.26091
# Shear Modulus (GPa) = -17.66473 28.73065 5.53296
#
# Velocity S-wave (km/s) = -2.57720 3.28675 1.44236
# Velocity P-wave (km/s) = 4.31306 6.59861 5.57423
#
# Compressibility (1/GPa) = 0.01369347
#
# Stress axis : x y z
#
# Youngs Moduli (GPa) = 116.13083 116.13083 92.50509
#
# Poissons Ratio (x) = 0.39263 0.17522
# Poissons Ratio (y) = 0.39263 0.17522
# Poissons Ratio (z) = 0.21997 0.21997
#
# Static dielectric constant tensor:
#      x y z
#    x 2.139960 0.000000 0.000000 
#    y 0.000000 2.139960 0.000000 
#    z 0.000000 0.000000 4.350340 
# 
# From -- ./inp_files/7724.got.cif
#   From: 2010.05.17/outbox.cif.g08.bks.cpg/sg133_4_cif.got.tgz:7724.got - 2010.05.20 12:37:36.
