data_PCOD9568553
_publ_section_title
;
Structure prediction by ZEFSAII (Michael W. Deem and Ramdas Pophale) SiO2 
 PCOD9568553
Probable space group: P 42/N N M
;
_chemical_formula_sum "Si O2"
_cell_formula_units_Z 64
_cell_length_a 13.792576
_cell_length_b 13.792576
_cell_length_c 14.573321
_cell_angle_alpha 90.000000
_cell_angle_beta 90.000000
_cell_angle_gamma 90.000000
_cell_volume 2772.357946
_symmetry_space_group_name_H-M "P 42/N N M"
_symmetry_group_IT_number 134
_space_group.IT_coordinate_system_code '2'
_symmetry_cell_setting 'tetragonal'
loop_
_space_group_symop_operation_xyz
x,y,z
1/2-y,x,1/2+z
1/2-x,1/2-y,z
y,1/2-x,1/2+z
x,1/2-y,1/2-z
1/2-x,y,1/2-z
y,x,-z
1/2-y,1/2-x,-z
-x,-y,-z
1/2+y,-x,1/2-z
1/2+x,1/2+y,-z
-y,1/2+x,1/2-z
-x,1/2+y,1/2+z
1/2+x,-y,1/2+z
-y,-x,z
1/2+y,1/2+x,z
loop_
_atom_site_type_symbol
_atom_site_label
_atom_site_fract_x
_atom_site_fract_y
_atom_site_fract_z
Si Si1 0.991443 0.842803 0.682391
Si Si2 0.850468 0.792059 0.395216
Si Si3 0.690219 0.035815 0.657388
Si Si4 0.100176 0.742698 0.534833
O O1 0.998414 0.750000 0.750000
O O2 0.072010 0.927991 0.698546
O O3 0.010502 0.788257 0.585547
O O4 0.883342 0.883948 0.667512
O O5 0.750000 0.750000 0.359841
O O6 0.827686 0.827686 0.500000
O O7 0.927114 0.705066 0.380743
O O8 0.750000 0.049447 0.750000
O O9 0.583482 0.083482 0.665666
O O10 0.741804 0.092023 0.573690
O O11 0.183784 0.816217 0.563235
O O12 0.135521 0.635521 0.563624
#
# Coordination Sequence:
#
# PCOD9568553 Si02
#       4
#    16  16  16  16
#     4  11  24  42  70 105 143 192 243 298 367 444
#     4  11  26  50  73 101 146 196 246 310 378 441
#     4  11  24  43  70 105 143 188 246 305 366 434
#     4   9  18  36  62  96 139 180 227 292 357 423
#
# _framework density 23.085042999999999
#
# number of rings (size 3 to 8) (size 9 to 14) (size 15 to 20)
#    0.000    1.500    2.500    1.500    3.500    5.000 
#    0.000    3.750    0.000    0.000    0.000    0.000 
#    0.000    0.000    0.000    0.000    0.000    0.000 
#
# Total GULP energy -356472.583847 kJ/mol
# GULP energy per Si atom -5569.884123 kJ/mol
# Density = 2.303250 g / cm^3
# Si number density = 23.085043 Si / 1000 Ang^3
#
#
#
# Elastic Constant Matrix: (Units=GPa)
#
#
# Indices 1 2 3 4 5 6 
#
# 1 108.0220 71.5882 21.8092 0.0000 0.0000 0.0000
# 2 71.5882 108.0220 21.8092 0.0000 0.0000 0.0000
# 3 21.8092 21.8092 96.7700 0.0000 0.0000 0.0000
# 4 0.0000 0.0000 0.0000 18.3395 0.0000 0.0000
# 5 0.0000 0.0000 0.0000 0.0000 18.3395 0.0000
# 6 0.0000 0.0000 0.0000 0.0000 0.0000 40.5470
#
#
#
# Elastic Compliance Matrix: (Units=1/GPa)
#
#
# Indices 1 2 3 4 5 6 
#
# 1 0.016668 -0.010779 -0.001327 0.000000 0.000000 0.000000
# 2 -0.010779 0.016668 -0.001327 0.000000 0.000000 0.000000
# 3 -0.001327 -0.001327 0.010932 0.000000 0.000000 0.000000
# 4 0.000000 0.000000 0.000000 0.054527 0.000000 0.000000
# 5 0.000000 0.000000 0.000000 0.000000 0.054527 0.000000
# 6 0.000000 0.000000 0.000000 0.000000 0.000000 0.024663
#
#
# Mechanical properties :
#
#
# Convention : Reuss Voigt Hill
#
# Bulk Modulus (GPa) = 57.46356 60.35859 58.91107
# Shear Modulus (GPa) = 23.73563 28.61903 26.17733
#
# Velocity S-wave (km/s) = 3.21001 3.52479 3.37107
# Velocity P-wave (km/s) = 6.21973 6.53976 6.38175
#
# Compressibility (1/GPa) = 0.01740233
#
# Stress axis : x y z
#
# Youngs Moduli (GPa) = 59.99345 59.99345 91.47366
#
# Poissons Ratio (x) = 0.64664 0.12143
# Poissons Ratio (y) = 0.64664 0.12143
# Poissons Ratio (z) = 0.07964 0.07964
#
# Static dielectric constant tensor:
#      x y z
#    x 1.925830 0.000000 0.000000 
#    y 0.000000 1.925830 0.000000 
#    z 0.000000 0.000000 1.889700 
# 
# From -- ./inp_files/6139.got.cif
#   From: 2010.05.17/outbox.cif.g08.bks.cpg/sg134_4_cif.got.tgz:6139.got - 2010.05.20 12:42:49.
