data_PCOD9568292
_publ_section_title
;
Structure prediction by ZEFSAII (Michael W. Deem and Ramdas Pophale) SiO2 
 PCOD9568292
Probable space group: P 42/N N M
;
_chemical_formula_sum "Si O2"
_cell_formula_units_Z 112
_cell_length_a 16.732423
_cell_length_b 16.732423
_cell_length_c 20.056813
_cell_angle_alpha 90.000000
_cell_angle_beta 90.000000
_cell_angle_gamma 90.000000
_cell_volume 5615.385751
_symmetry_space_group_name_H-M "P 42/N N M"
_symmetry_group_IT_number 134
_space_group.IT_coordinate_system_code '2'
_symmetry_cell_setting 'tetragonal'
loop_
_space_group_symop_operation_xyz
x,y,z
1/2-y,x,1/2+z
1/2-x,1/2-y,z
y,1/2-x,1/2+z
x,1/2-y,1/2-z
1/2-x,y,1/2-z
y,x,-z
1/2-y,1/2-x,-z
-x,-y,-z
1/2+y,-x,1/2-z
1/2+x,1/2+y,-z
-y,1/2+x,1/2-z
-x,1/2+y,1/2+z
1/2+x,-y,1/2+z
-y,-x,z
1/2+y,1/2+x,z
loop_
_atom_site_type_symbol
_atom_site_label
_atom_site_fract_x
_atom_site_fract_y
_atom_site_fract_z
Si Si1 0.966381 0.904640 0.405361
Si Si2 0.343142 0.972805 0.233942
Si Si3 0.800094 0.827498 0.078142
Si Si4 0.962374 0.683248 0.960888
Si Si5 0.558855 0.571046 0.142787
Si Si6 0.743179 0.377144 0.065223
Si Si7 0.181169 0.557091 0.702896
O O1 0.895460 0.969028 0.414589
O O2 0.941888 0.842919 0.463513
O O3 0.978292 0.864334 0.333818
O O4 0.048357 0.951644 0.422350
O O5 0.250000 0.965707 0.250000
O O6 0.387696 0.887696 0.225998
O O7 0.384047 0.016455 0.296328
O O8 0.750000 0.750000 0.106227
O O9 0.738121 0.900454 0.077973
O O10 0.885466 0.862431 0.104939
O O11 0.811620 0.811620 0.000000
O O12 0.043450 0.730605 0.970121
O O13 0.488451 0.511550 0.111567
O O14 0.623332 0.509671 0.173228
O O15 0.663868 0.336132 0.036734
O O16 0.813144 0.313144 0.062159
O O17 0.724419 0.400428 0.140994
O O18 0.250000 0.524649 0.750000
O O19 0.124139 0.624139 0.736297
#
# Coordination Sequence:
#
# PCOD9568292 Si02
#       7
#    16  16  16  16  16  16  16
#     4  10  21  38  62  92 119 159 206 256 315 377
#     4  10  24  43  68  93 121 158 205 262 316 374
#     4  11  24  40  63  92 128 165 209 263 320 374
#     4  11  21  37  63  88 124 159 201 254 320 373
#     4  10  23  43  63  89 125 169 216 259 314 389
#     4  10  20  34  55  85 121 161 204 251 301 364
#     4  10  20  35  54  82 122 165 205 241 290 363
#
# _framework density 19.9452
#
# number of rings (size 3 to 8) (size 9 to 14) (size 15 to 20)
#    0.000    1.714    1.429    3.857    6.000    1.143 
#    0.000    0.714    0.000    0.857    0.000    0.000 
#    0.000    0.000    0.000    0.000    0.000    0.000 
#
# Total GULP energy -623768.706983 kJ/mol
# GULP energy per Si atom -5569.363455 kJ/mol
# Density = 1.989980 g / cm^3
# Si number density = 19.945200 Si / 1000 Ang^3
#
#
#
# Elastic Constant Matrix: (Units=GPa)
#
#
# Indices 1 2 3 4 5 6 
#
# 1 100.0507 33.0414 27.8773 0.0000 0.0000 0.0000
# 2 33.0414 100.0507 27.8773 0.0000 0.0000 0.0000
# 3 27.8773 27.8773 51.2746 0.0000 0.0000 0.0000
# 4 0.0000 0.0000 0.0000 26.9277 0.0000 0.0000
# 5 0.0000 0.0000 0.0000 0.0000 26.9277 0.0000
# 6 0.0000 0.0000 0.0000 0.0000 0.0000 52.2376
#
#
#
# Elastic Compliance Matrix: (Units=1/GPa)
#
#
# Indices 1 2 3 4 5 6 
#
# 1 0.012326 -0.002597 -0.005290 0.000000 0.000000 0.000000
# 2 -0.002597 0.012326 -0.005290 0.000000 0.000000 0.000000
# 3 -0.005290 -0.005290 0.025255 0.000000 0.000000 0.000000
# 4 0.000000 0.000000 0.000000 0.037136 0.000000 0.000000
# 5 0.000000 0.000000 0.000000 0.000000 0.037136 0.000000
# 6 0.000000 0.000000 0.000000 0.000000 0.000000 0.019143
#
#
# Mechanical properties :
#
#
# Convention : Reuss Voigt Hill
#
# Bulk Modulus (GPa) = 42.45445 47.66313 45.05879
# Shear Modulus (GPa) = 28.16446 32.05727 30.11087
#
# Velocity S-wave (km/s) = 3.76186 4.01342 3.88968
# Velocity P-wave (km/s) = 6.34039 6.73986 6.54317
#
# Compressibility (1/GPa) = 0.02355466
#
# Stress axis : x y z
#
# Youngs Moduli (GPa) = 81.12630 81.12630 39.59629
#
# Poissons Ratio (x) = 0.21067 0.20946
# Poissons Ratio (y) = 0.21067 0.20946
# Poissons Ratio (z) = 0.42915 0.42915
#
# Static dielectric constant tensor:
#      x y z
#    x 1.780210 0.000000 0.000000 
#    y 0.000000 1.780210 0.000000 
#    z 0.000000 0.000000 1.709020 
# 
# From -- ./inp_files/9345.got.cif
#   From: 2010.05.17/outbox.cif.g08.bks.cpg/sg134_5_cif.got.tgz:9345.got - 2010.05.20 12:42:49.
