data_PCOD9568043
_publ_section_title
;
Structure prediction by ZEFSAII (Michael W. Deem and Ramdas Pophale) SiO2 
 PCOD9568043
Probable space group: P 42/N B C
;
_chemical_formula_sum "Si O2"
_cell_formula_units_Z 56
_cell_length_a 14.809550
_cell_length_b 14.809550
_cell_length_c 9.570397
_cell_angle_alpha 90.000000
_cell_angle_beta 90.000000
_cell_angle_gamma 90.000000
_cell_volume 2099.005992
_symmetry_space_group_name_H-M "P 42/N B C"
_symmetry_group_IT_number 133
_space_group.IT_coordinate_system_code '2'
_symmetry_cell_setting 'tetragonal'
loop_
_space_group_symop_operation_xyz
x,y,z
1/2-y,x,1/2+z
1/2-x,1/2-y,z
y,1/2-x,1/2+z
x,1/2-y,-z
1/2-x,y,-z
y,x,1/2-z
1/2-y,1/2-x,1/2-z
-x,-y,-z
1/2+y,-x,1/2-z
1/2+x,1/2+y,-z
-y,1/2+x,1/2-z
-x,1/2+y,z
1/2+x,-y,z
-y,-x,1/2+z
1/2+y,1/2+x,1/2+z
loop_
_atom_site_type_symbol
_atom_site_label
_atom_site_fract_x
_atom_site_fract_y
_atom_site_fract_z
Si Si1 0.250000 0.250000 0.500000
Si Si2 0.881448 0.097572 0.513361
Si Si3 0.574721 0.673686 0.154085
Si Si4 0.501244 0.353673 0.284148
Si Si5 0.250000 0.750000 0.500000
O O1 0.196394 0.324878 0.406809
O O2 0.975154 0.125251 0.444522
O O3 0.874215 0.086257 0.679667
O O4 0.819525 0.175698 0.443596
O O5 0.848532 0.999976 0.460888
O O6 0.586982 0.586982 0.250000
O O7 0.534924 0.755265 0.245853
O O8 0.421935 0.421935 0.250000
#
# Coordination Sequence:
#
# PCOD9568043 Si02
#       5
#     4  16  16  16   4
#     4  12  20  48  78 116 168 214 268 340 416 506
#     4  12  28  50  79 117 160 208 277 332 403 487
#     4  12  26  48  80 121 162 215 274 338 412 501
#     4  12  26  51  75 116 160 207 264 335 404 482
#     4  12  26  54  82 108 160 208 274 334 402 480
#
# _framework density 26.679296000000001
#
# number of rings (size 3 to 8) (size 9 to 14) (size 15 to 20)
#    0.000    0.000    5.714    3.857    4.000    1.143 
#    0.000    0.000    0.000    0.000    0.000    0.000 
#    0.000    0.000    0.000    0.000    0.000    0.000 
#
# Total GULP energy -313200.475351 kJ/mol
# GULP energy per Si atom -5592.865631 kJ/mol
# Density = 2.661857 g / cm^3
# Si number density = 26.679296 Si / 1000 Ang^3
#
#
#
# Elastic Constant Matrix: (Units=GPa)
#
#
# Indices 1 2 3 4 5 6 
#
# 1 129.4852 42.6858 38.9997 0.0000 0.0000 0.0000
# 2 42.6858 129.4852 38.9997 0.0000 0.0000 0.0000
# 3 38.9997 38.9997 124.6784 0.0000 0.0000 0.0000
# 4 0.0000 0.0000 0.0000 28.2260 0.0000 0.0000
# 5 0.0000 0.0000 0.0000 0.0000 28.2260 0.0000
# 6 0.0000 0.0000 0.0000 0.0000 0.0000 29.4824
#
#
#
# Elastic Compliance Matrix: (Units=1/GPa)
#
#
# Indices 1 2 3 4 5 6 
#
# 1 0.009144 -0.002377 -0.002117 0.000000 0.000000 0.000000
# 2 -0.002377 0.009144 -0.002117 0.000000 0.000000 0.000000
# 3 -0.002117 -0.002117 0.009345 0.000000 0.000000 0.000000
# 4 0.000000 0.000000 0.000000 0.035428 0.000000 0.000000
# 5 0.000000 0.000000 0.000000 0.000000 0.035428 0.000000
# 6 0.000000 0.000000 0.000000 0.000000 0.000000 0.033919
#
#
# Mechanical properties :
#
#
# Convention : Reuss Voigt Hill
#
# Bulk Modulus (GPa) = 69.38621 69.44657 69.41639
# Shear Modulus (GPa) = 33.23741 34.71779 33.97760
#
# Velocity S-wave (km/s) = 3.53344 3.61127 3.57256
# Velocity P-wave (km/s) = 6.53536 6.59356 6.56452
#
# Compressibility (1/GPa) = 0.01441209
#
# Stress axis : x y z
#
# Youngs Moduli (GPa) = 109.36153 109.36153 107.01015
#
# Poissons Ratio (x) = 0.25993 0.22652
# Poissons Ratio (y) = 0.25993 0.22652
# Poissons Ratio (z) = 0.23149 0.23149
#
# Static dielectric constant tensor:
#      x y z
#    x 2.153260 0.000000 0.000000 
#    y 0.000000 2.153260 0.000000 
#    z 0.000000 0.000000 2.292320 
# 
# From -- ./inp_files/2823.got.cif
#   From: 2010.05.17/outbox.cif.g08.bks.cpg/sg133_2_cif.got.tgz:2823.got - 2010.05.20 12:37:36.
