data_PCOD9568391
_publ_section_title
;
Structure prediction by ZEFSAII (Michael W. Deem and Ramdas Pophale) SiO2 
 PCOD9568391
Probable space group: P 42/N N M
;
_chemical_formula_sum "Si O2"
_cell_formula_units_Z 58
_cell_length_a 16.433666
_cell_length_b 16.433666
_cell_length_c 9.148060
_cell_angle_alpha 90.000000
_cell_angle_beta 90.000000
_cell_angle_gamma 90.000000
_cell_volume 2470.574284
_symmetry_space_group_name_H-M "P 42/N N M"
_symmetry_group_IT_number 134
_space_group.IT_coordinate_system_code '2'
_symmetry_cell_setting 'tetragonal'
loop_
_space_group_symop_operation_xyz
x,y,z
1/2-y,x,1/2+z
1/2-x,1/2-y,z
y,1/2-x,1/2+z
x,1/2-y,1/2-z
1/2-x,y,1/2-z
y,x,-z
1/2-y,1/2-x,-z
-x,-y,-z
1/2+y,-x,1/2-z
1/2+x,1/2+y,-z
-y,1/2+x,1/2-z
-x,1/2+y,1/2+z
1/2+x,-y,1/2+z
-y,-x,z
1/2+y,1/2+x,z
loop_
_atom_site_type_symbol
_atom_site_label
_atom_site_fract_x
_atom_site_fract_y
_atom_site_fract_z
Si Si1 0.750000 0.250000 0.250000
Si Si2 0.948870 0.051131 0.186363
Si Si3 0.432802 0.567199 0.497165
Si Si4 0.343261 0.843261 0.492841
Si Si5 0.480352 0.736259 0.400721
Si Si6 0.590090 0.821159 0.631611
O O1 0.696373 0.303628 0.137423
O O2 0.912188 0.087813 0.335647
O O3 0.909812 0.090189 0.043061
O O4 0.041231 0.094310 0.184603
O O5 0.500000 0.500000 0.500000
O O6 0.468249 0.642332 0.415004
O O7 0.392272 0.777822 0.401425
O O8 0.527020 0.750000 0.250000
O O9 0.522639 0.770354 0.543514
O O10 0.618295 0.750000 0.750000
O O11 0.651522 0.848479 0.500000
#
# Coordination Sequence:
#
# PCOD9568391 Si02
#       6
#     2   8   8   8  16  16
#     4  12  20  28  62  88 136 192 230 284 360 452
#     4  10  21  42  67 104 138 183 241 302 371 445
#     4  12  25  39  67 100 140 182 244 303 370 438
#     4  10  21  36  62  94 136 181 229 280 358 440
#     4  11  24  41  65 101 144 186 238 299 371 445
#     4  11  24  44  75 108 147 194 248 310 376 459
#
# _framework density 23.476323000000001
#
# number of rings (size 3 to 8) (size 9 to 14) (size 15 to 20)
#    0.000    1.103    2.759    3.724    7.724    0.000 
#    0.000    1.379    0.000    6.621    0.000    0.000 
#    0.000    0.000    0.000    0.000    0.000    0.000 
#
# Total GULP energy -322876.014786 kJ/mol
# GULP energy per Si atom -5566.827841 kJ/mol
# Density = 2.342289 g / cm^3
# Si number density = 23.476323 Si / 1000 Ang^3
#
#
#
# Elastic Constant Matrix: (Units=GPa)
#
#
# Indices 1 2 3 4 5 6 
#
# 1 32.3526 92.4042 17.0622 0.0000 0.0000 0.0000
# 2 92.4042 32.3571 17.0617 0.0000 0.0000 0.0000
# 3 17.0622 17.0617 113.2962 0.0000 0.0000 0.0000
# 4 0.0000 0.0000 0.0000 -49.0108 0.0000 0.0000
# 5 0.0000 0.0000 0.0000 0.0000 -48.9690 0.0000
# 6 0.0000 0.0000 0.0000 0.0000 0.0000 3.4386
#
#
#
# Elastic Compliance Matrix: (Units=1/GPa)
#
#
# Indices 1 2 3 4 5 6 
#
# 1 -0.004147 0.012506 -0.001259 0.000000 0.000000 0.000000
# 2 0.012506 -0.004146 -0.001259 0.000000 0.000000 0.000000
# 3 -0.001259 -0.001259 0.009206 0.000000 0.000000 0.000000
# 4 0.000000 0.000000 0.000000 -0.020404 0.000000 0.000000
# 5 0.000000 0.000000 0.000000 0.000000 -0.020421 0.000000
# 6 0.000000 0.000000 0.000000 0.000000 0.000000 0.290814
#
#
# Mechanical properties :
#
#
# Convention : Reuss Voigt Hill
#
# Bulk Modulus (GPa) = 47.87117 47.89578 47.88348
# Shear Modulus (GPa) = 21.01828 -15.47639 2.77094
#
# Velocity S-wave (km/s) = 2.99540 -2.57034 1.08760
# Velocity P-wave (km/s) = 5.69199 3.41133 4.69233
#
# Compressibility (1/GPa) = 0.02088940
#
# Stress axis : x y z
#
# Youngs Moduli (GPa) = -241.14341 -241.18111 108.62941
#
# Poissons Ratio (x) = 3.01630 0.13675
# Poissons Ratio (y) = 3.01583 0.13677
# Poissons Ratio (z) = -0.30357 -0.30365
#
# Static dielectric constant tensor:
#      x y z
#    x 1.704310 0.000000 0.000000 
#    y 0.000000 1.704600 0.000000 
#    z 0.000000 0.000000 -0.136430 
# 
# From -- ./inp_files/2501.got.cif
#   From: 2010.05.17/outbox.cif.g08.bks.cpg/sg134_2_cif.got.tgz:2501.got - 2010.05.20 12:42:49.
