data_PCOD9568096
_publ_section_title
;
Structure prediction by ZEFSAII (Michael W. Deem and Ramdas Pophale) SiO2 
 PCOD9568096
Probable space group: P 42/N N M
;
_chemical_formula_sum "Si O2"
_cell_formula_units_Z 96
_cell_length_a 20.919337
_cell_length_b 20.919337
_cell_length_c 13.919605
_cell_angle_alpha 90.000000
_cell_angle_beta 90.000000
_cell_angle_gamma 90.000000
_cell_volume 6091.478895
_symmetry_space_group_name_H-M "P 42/N N M"
_symmetry_group_IT_number 134
_space_group.IT_coordinate_system_code '2'
_symmetry_cell_setting 'tetragonal'
loop_
_space_group_symop_operation_xyz
x,y,z
1/2-y,x,1/2+z
1/2-x,1/2-y,z
y,1/2-x,1/2+z
x,1/2-y,1/2-z
1/2-x,y,1/2-z
y,x,-z
1/2-y,1/2-x,-z
-x,-y,-z
1/2+y,-x,1/2-z
1/2+x,1/2+y,-z
-y,1/2+x,1/2-z
-x,1/2+y,1/2+z
1/2+x,-y,1/2+z
-y,-x,z
1/2+y,1/2+x,z
loop_
_atom_site_type_symbol
_atom_site_label
_atom_site_fract_x
_atom_site_fract_y
_atom_site_fract_z
Si Si1 0.409400 0.019691 0.196261
Si Si2 0.003874 0.886879 0.625430
Si Si3 0.476554 0.416307 0.911951
Si Si4 0.184191 0.579146 0.485081
Si Si5 0.426465 0.819299 0.711115
Si Si6 0.938288 0.329050 0.936993
O O1 0.436946 0.076199 0.129756
O O2 0.403648 0.046604 0.303960
O O3 0.464228 0.964228 0.198038
O O4 0.348696 0.983444 0.152155
O O5 0.057039 0.942962 0.623931
O O6 0.016890 0.847239 0.722832
O O7 0.020503 0.845324 0.532578
O O8 0.518276 0.481725 0.906196
O O9 0.525669 0.359830 0.936226
O O10 0.427819 0.427819 0.000000
O O11 0.146065 0.646065 0.476002
O O12 0.185306 0.561268 0.598044
O O13 0.255263 0.581146 0.442961
O O14 0.409165 0.750000 0.750000
O O15 0.367797 0.867797 0.724386
O O16 0.876689 0.376689 0.936861
#
# Coordination Sequence:
#
# PCOD9568096 Si02
#       6
#    16  16  16  16  16  16
#     4   9  17  29  47  66  86 116 155 197 241 285
#     4   9  16  28  45  65  89 118 154 197 244 285
#     4   9  17  31  49  67  86 114 152 195 242 283
#     4  10  20  31  45  66  95 130 164 194 227 272
#     4  10  18  28  42  62  89 124 160 196 236 280
#     4  10  19  30  44  66  96 130 162 192 230 276
#
# _framework density 15.75972
#
# number of rings (size 3 to 8) (size 9 to 14) (size 15 to 20)
#    0.000    2.500    1.667    1.500    0.000    7.167 
#    0.000    1.667    0.000    0.000    0.000    4.667 
#    0.000    2.667    1.000    0.000    0.000    0.000 
#
# Total GULP energy -534508.380766 kJ/mol
# GULP energy per Si atom -5567.795633 kJ/mol
# Density = 1.572385 g / cm^3
# Si number density = 15.759720 Si / 1000 Ang^3
#
#
#
# Elastic Constant Matrix: (Units=GPa)
#
#
# Indices 1 2 3 4 5 6 
#
# 1 27.6465 30.8238 28.8556 0.0000 0.0000 0.0000
# 2 30.8238 27.6465 28.8556 0.0000 0.0000 0.0000
# 3 28.8556 28.8556 69.0656 0.0000 0.0000 0.0000
# 4 0.0000 0.0000 0.0000 13.6696 0.0000 0.0000
# 5 0.0000 0.0000 0.0000 0.0000 13.6696 0.0000
# 6 0.0000 0.0000 0.0000 0.0000 0.0000 6.9808
#
#
#
# Elastic Compliance Matrix: (Units=1/GPa)
#
#
# Indices 1 2 3 4 5 6 
#
# 1 -0.142817 0.171922 -0.012160 0.000000 0.000000 0.000000
# 2 0.171922 -0.142817 -0.012160 0.000000 0.000000 0.000000
# 3 -0.012160 -0.012160 0.024640 0.000000 0.000000 0.000000
# 4 0.000000 0.000000 0.000000 0.073155 0.000000 0.000000
# 5 0.000000 0.000000 0.000000 0.000000 0.073155 0.000000
# 6 0.000000 0.000000 0.000000 0.000000 0.000000 0.143249
#
#
# Mechanical properties :
#
#
# Convention : Reuss Voigt Hill
#
# Bulk Modulus (GPa) = 29.23159 33.49207 31.36183
# Shear Modulus (GPa) = -19.58972 9.25224 -5.16874
#
# Velocity S-wave (km/s) = -3.52948 2.42561 -1.81296
# Velocity P-wave (km/s) = 1.40674 5.39839 3.94471
#
# Compressibility (1/GPa) = 0.03420956
#
# Stress axis : x y z
#
# Youngs Moduli (GPa) = -7.00196 -7.00196 40.58466
#
# Poissons Ratio (x) = 1.20379 0.49351
# Poissons Ratio (y) = 1.20379 0.49351
# Poissons Ratio (z) = -0.08514 -0.08514
#
# Static dielectric constant tensor:
#      x y z
#    x 1.511870 0.000000 0.000000 
#    y 0.000000 1.511870 0.000000 
#    z 0.000000 0.000000 1.586600 
# 
# From -- ./inp_files/5049.got.cif
#   From: 2010.05.17/outbox.cif.g08.bks.cpg/sg134_3_cif.got.tgz:5049.got - 2010.05.20 12:42:49.
