data_PCOD9568056
_publ_section_title
;
Structure prediction by ZEFSAII (Michael W. Deem and Ramdas Pophale) SiO2 
 PCOD9568056
Probable space group: P 42/N B C
;
_chemical_formula_sum "Si O2"
_cell_formula_units_Z 40
_cell_length_a 18.287648
_cell_length_b 18.287648
_cell_length_c 4.973734
_cell_angle_alpha 90.000000
_cell_angle_beta 90.000000
_cell_angle_gamma 90.000000
_cell_volume 1663.405997
_symmetry_space_group_name_H-M "P 42/N B C"
_symmetry_group_IT_number 133
_space_group.IT_coordinate_system_code '2'
_symmetry_cell_setting 'tetragonal'
loop_
_space_group_symop_operation_xyz
x,y,z
1/2-y,x,1/2+z
1/2-x,1/2-y,z
y,1/2-x,1/2+z
x,1/2-y,-z
1/2-x,y,-z
y,x,1/2-z
1/2-y,1/2-x,1/2-z
-x,-y,-z
1/2+y,-x,1/2-z
1/2+x,1/2+y,-z
-y,1/2+x,1/2-z
-x,1/2+y,z
1/2+x,-y,z
-y,-x,1/2+z
1/2+y,1/2+x,1/2+z
loop_
_atom_site_type_symbol
_atom_site_label
_atom_site_fract_x
_atom_site_fract_y
_atom_site_fract_z
Si Si1 0.410408 0.666410 0.055762
Si Si2 0.960718 0.539283 0.250000
Si Si3 0.170279 0.440237 0.113690
O O1 0.372755 0.618016 0.287715
O O2 0.493238 0.671769 0.172209
O O3 0.387072 0.750000 0.000000
O O4 0.964751 0.622006 0.357567
O O5 0.000000 0.500000 0.500000
O O6 0.127089 0.372911 0.250000
O O7 0.250000 0.423080 0.000000
#
# Coordination Sequence:
#
# PCOD9568056 Si02
#       3
#    16   8  16
#     4  12  28  50  83 123 167 217 278 353 430 516
#     4  12  26  50  87 122 159 220 280 350 430 504
#     4  12  30  53  85 124 174 226 295 363 430 514
#
# _framework density 24.047046000000002
#
# number of rings (size 3 to 8) (size 9 to 14) (size 15 to 20)
#    0.000    0.000    2.000    6.000   11.200    2.400 
#    0.000    3.000    0.000    0.000    0.000    0.000 
#    0.000    0.000    0.000    0.000    0.000    0.000 
#
# Total GULP energy -223550.849848 kJ/mol
# GULP energy per Si atom -5588.771246 kJ/mol
# Density = 2.399231 g / cm^3
# Si number density = 24.047046 Si / 1000 Ang^3
#
#
#
# Elastic Constant Matrix: (Units=GPa)
#
#
# Indices 1 2 3 4 5 6 
#
# 1 215.9416 70.3853 75.5017 0.0000 0.0000 0.0000
# 2 70.3853 215.9440 75.5029 0.0000 0.0000 0.0000
# 3 75.5017 75.5029 226.9218 0.0000 0.0000 0.0000
# 4 0.0000 0.0000 0.0000 28.3330 0.0000 0.0000
# 5 0.0000 0.0000 0.0000 0.0000 28.3310 0.0000
# 6 0.0000 0.0000 0.0000 0.0000 0.0000 19.0120
#
#
#
# Elastic Compliance Matrix: (Units=1/GPa)
#
#
# Indices 1 2 3 4 5 6 
#
# 1 0.005553 -0.001317 -0.001409 0.000000 0.000000 0.000000
# 2 -0.001317 0.005553 -0.001409 0.000000 0.000000 0.000000
# 3 -0.001409 -0.001409 0.005345 0.000000 0.000000 0.000000
# 4 0.000000 0.000000 0.000000 0.035295 0.000000 0.000000
# 5 0.000000 0.000000 0.000000 0.000000 0.035297 0.000000
# 6 0.000000 0.000000 0.000000 0.000000 0.000000 0.052598
#
#
# Mechanical properties :
#
#
# Convention : Reuss Voigt Hill
#
# Bulk Modulus (GPa) = 122.26717 122.39857 122.33287
# Shear Modulus (GPa) = 33.19203 44.29636 38.74420
#
# Velocity S-wave (km/s) = 3.71926 4.29659 4.01831
# Velocity P-wave (km/s) = 8.33062 8.69623 8.51539
#
# Compressibility (1/GPa) = 0.00817881
#
# Stress axis : x y z
#
# Youngs Moduli (GPa) = 180.08378 180.08527 187.10319
#
# Poissons Ratio (x) = 0.23721 0.26369
# Poissons Ratio (y) = 0.23720 0.26369
# Poissons Ratio (z) = 0.25380 0.25380
#
# Static dielectric constant tensor:
#      x y z
#    x 2.031590 0.000000 0.000000 
#    y 0.000000 2.031600 0.000000 
#    z 0.000000 0.000000 2.024610 
# 
# From -- ./inp_files/132.got.cif
#   From: 2010.05.17/outbox.cif.g08.bks.cpg/sg133_1_cif.got.tgz:132.got - 2010.05.20 12:37:36.
