data_PCOD9568539
_publ_section_title
;
Structure prediction by ZEFSAII (Michael W. Deem and Ramdas Pophale) SiO2 
 PCOD9568539
Probable space group: P 42/N N M
;
_chemical_formula_sum "Si O2"
_cell_formula_units_Z 112
_cell_length_a 15.492286
_cell_length_b 15.492286
_cell_length_c 27.634354
_cell_angle_alpha 90.000000
_cell_angle_beta 90.000000
_cell_angle_gamma 90.000000
_cell_volume 6632.546879
_symmetry_space_group_name_H-M "P 42/N N M"
_symmetry_group_IT_number 134
_space_group.IT_coordinate_system_code '2'
_symmetry_cell_setting 'tetragonal'
loop_
_space_group_symop_operation_xyz
x,y,z
1/2-y,x,1/2+z
1/2-x,1/2-y,z
y,1/2-x,1/2+z
x,1/2-y,1/2-z
1/2-x,y,1/2-z
y,x,-z
1/2-y,1/2-x,-z
-x,-y,-z
1/2+y,-x,1/2-z
1/2+x,1/2+y,-z
-y,1/2+x,1/2-z
-x,1/2+y,1/2+z
1/2+x,-y,1/2+z
-y,-x,z
1/2+y,1/2+x,z
loop_
_atom_site_type_symbol
_atom_site_label
_atom_site_fract_x
_atom_site_fract_y
_atom_site_fract_z
Si Si1 0.647477 0.852522 0.307953
Si Si2 0.574308 0.574308 0.904319
Si Si3 0.178449 0.678449 0.445483
Si Si4 0.248656 0.500809 0.942271
Si Si5 0.927546 0.927549 0.397125
Si Si6 0.748655 0.499192 0.557732
Si Si7 0.678451 0.321550 0.054510
Si Si8 0.852886 0.852886 0.304312
O O1 0.594782 0.905220 0.347960
O O2 0.750564 0.867394 0.313759
O O3 0.632603 0.749436 0.313760
O O4 0.628055 0.871944 0.251817
O O5 0.500002 0.499999 0.909954
O O6 0.549309 0.664248 0.929305
O O7 0.664251 0.549313 0.929303
O O8 0.250000 0.750000 0.450153
O O9 0.225430 0.596072 0.422942
O O10 0.150134 0.650134 0.499997
O O11 0.162834 0.459919 0.919817
O O12 0.274569 0.596076 0.922947
O O13 0.234682 0.505139 0.000001
O O14 0.959919 0.837169 0.419816
O O15 0.908467 0.908471 0.341030
O O16 0.999998 0.000003 0.404629
O O17 0.750000 0.250000 0.049836
#
# Coordination Sequence:
#
# PCOD9568539 Si02
#       8
#    16  16   8  16  16  16   8  16
#     4   9  18  36  61  84 109 139 183 235 288 346
#     4  12  22  36  60  87 113 146 190 238 287 337
#     4   9  18  35  55  73 105 156 199 227 265 321
#     4  11  23  37  55  82 116 153 192 235 279 331
#     4  12  24  38  58  85 115 151 194 237 283 338
#     4  11  23  37  55  82 116 153 192 235 279 331
#     4   9  18  35  55  73 105 156 199 227 265 321
#     4   9  18  36  61  84 107 143 183 230 290 348
#
# _framework density 16.886424999999999
#
# number of rings (size 3 to 8) (size 9 to 14) (size 15 to 20)
#    0.000    1.571    4.286    2.571    0.000    4.000 
#    0.000    1.429    0.000    0.000    0.000    0.000 
#    0.000    4.571    0.000    0.000    0.000    0.000 
#
# Total GULP energy -624054.027637 kJ/mol
# GULP energy per Si atom -5571.910961 kJ/mol
# Density = 1.684799 g / cm^3
# Si number density = 16.886425 Si / 1000 Ang^3
#
#
#
# Elastic Constant Matrix: (Units=GPa)
#
#
# Indices 1 2 3 4 5 6 
#
# 1 118.0205 57.1216 17.5818 0.0000 0.0000 0.0000
# 2 57.1216 118.0205 17.5818 0.0000 0.0000 0.0000
# 3 17.5818 17.5818 49.2955 0.0000 0.0000 0.0000
# 4 0.0000 0.0000 0.0000 4.5771 0.0000 0.0000
# 5 0.0000 0.0000 0.0000 0.0000 4.5771 0.0000
# 6 0.0000 0.0000 0.0000 0.0000 0.0000 32.6117
#
#
#
# Elastic Compliance Matrix: (Units=1/GPa)
#
#
# Indices 1 2 3 4 5 6 
#
# 1 0.011285 -0.005135 -0.002193 0.000000 0.000000 0.000000
# 2 -0.005135 0.011285 -0.002193 0.000000 0.000000 0.000000
# 3 -0.002193 -0.002193 0.021850 0.000000 0.000000 0.000000
# 4 0.000000 0.000000 0.000000 0.218481 0.000000 0.000000
# 5 0.000000 0.000000 0.000000 0.000000 0.218481 0.000000
# 6 0.000000 0.000000 0.000000 0.000000 0.000000 0.030664
#
#
# Mechanical properties :
#
#
# Convention : Reuss Voigt Hill
#
# Bulk Modulus (GPa) = 39.40635 52.21190 45.80912
# Shear Modulus (GPa) = 9.26697 21.22323 15.24510
#
# Velocity S-wave (km/s) = 2.34515 3.54901 3.00793
# Velocity P-wave (km/s) = 5.54254 6.91235 6.26500
#
# Compressibility (1/GPa) = 0.02537662
#
# Stress axis : x y z
#
# Youngs Moduli (GPa) = 88.61042 88.61042 45.76560
#
# Poissons Ratio (x) = 0.45504 0.10039
# Poissons Ratio (y) = 0.45504 0.10039
# Poissons Ratio (z) = 0.19437 0.19437
#
# Static dielectric constant tensor:
#      x y z
#    x 1.651220 0.000000 0.000000 
#    y 0.000000 1.651220 0.000000 
#    z 0.000000 0.000000 1.573950 
# 
# From -- ./inp_files/10900.got.cif
#   From: 2010.05.17/outbox.cif.g08.bks.cpg/sg134_6_cif.got.tgz:10900.got - 2010.05.20 12:42:49.
