data_PCOD9568123
_publ_section_title
;
Structure prediction by ZEFSAII (Michael W. Deem and Ramdas Pophale) SiO2 
 PCOD9568123
Probable space group: P 42/N N M
;
_chemical_formula_sum "Si O2"
_cell_formula_units_Z 72
_cell_length_a 14.577396
_cell_length_b 14.577396
_cell_length_c 15.261799
_cell_angle_alpha 90.000000
_cell_angle_beta 90.000000
_cell_angle_gamma 90.000000
_cell_volume 3243.139524
_symmetry_space_group_name_H-M "P 42/N N M"
_symmetry_group_IT_number 134
_space_group.IT_coordinate_system_code '2'
_symmetry_cell_setting 'tetragonal'
loop_
_space_group_symop_operation_xyz
x,y,z
1/2-y,x,1/2+z
1/2-x,1/2-y,z
y,1/2-x,1/2+z
x,1/2-y,1/2-z
1/2-x,y,1/2-z
y,x,-z
1/2-y,1/2-x,-z
-x,-y,-z
1/2+y,-x,1/2-z
1/2+x,1/2+y,-z
-y,1/2+x,1/2-z
-x,1/2+y,1/2+z
1/2+x,-y,1/2+z
-y,-x,z
1/2+y,1/2+x,z
loop_
_atom_site_type_symbol
_atom_site_label
_atom_site_fract_x
_atom_site_fract_y
_atom_site_fract_z
Si Si1 0.546463 0.895518 0.091705
Si Si2 0.859218 0.503531 0.396359
Si Si3 0.248850 0.599491 0.452149
Si Si4 0.607319 0.250000 0.250000
Si Si5 0.857843 0.648478 0.263994
O O1 0.603825 0.905517 0.180386
O O2 0.485657 0.985657 0.087017
O O3 0.604643 0.895358 0.000000
O O4 0.474274 0.811005 0.099758
O O5 0.958620 0.458620 0.404760
O O6 0.801170 0.467129 0.478164
O O7 0.804935 0.454048 0.317330
O O8 0.872289 0.605958 0.360346
O O9 0.326126 0.673875 0.485378
O O10 0.167039 0.667039 0.415811
O O11 0.675462 0.324539 0.293621
O O12 0.895590 0.750000 0.250000
O O13 0.750000 0.652652 0.250000
#
# Coordination Sequence:
#
# PCOD9568123 Si02
#       5
#    16  16  16   8  16
#     4  10  21  38  63  90 117 151 193 242 303 371
#     4  10  18  31  54  82 116 149 185 234 292 352
#     4   9  18  34  58  90 125 156 191 243 307 372
#     4   9  16  24  43  78 114 144 173 216 282 351
#     4  11  23  39  54  76 113 156 202 244 283 336
#
# _framework density 22.200710000000001
#
# number of rings (size 3 to 8) (size 9 to 14) (size 15 to 20)
#    0.000    2.111    1.111    2.667    0.000    2.667 
#    0.000   10.000    0.000    2.667    0.000    0.000 
#    0.000    0.000    0.000    0.000    0.000    0.000 
#
# Total GULP energy -400819.325470 kJ/mol
# GULP energy per Si atom -5566.935076 kJ/mol
# Density = 2.215018 g / cm^3
# Si number density = 22.200710 Si / 1000 Ang^3
#
#
#
# Elastic Constant Matrix: (Units=GPa)
#
#
# Indices 1 2 3 4 5 6 
#
# 1 91.9274 16.4659 21.4086 0.0000 0.0000 0.0000
# 2 16.4659 91.9278 21.4087 0.0000 0.0000 0.0000
# 3 21.4086 21.4087 33.4753 0.0000 0.0000 0.0000
# 4 0.0000 0.0000 0.0000 24.0163 0.0000 0.0000
# 5 0.0000 0.0000 0.0000 0.0000 24.0161 0.0000
# 6 0.0000 0.0000 0.0000 0.0000 0.0000 8.9574
#
#
#
# Elastic Compliance Matrix: (Units=1/GPa)
#
#
# Indices 1 2 3 4 5 6 
#
# 1 0.012798 -0.000454 -0.007894 0.000000 0.000000 0.000000
# 2 -0.000454 0.012798 -0.007895 0.000000 0.000000 0.000000
# 3 -0.007894 -0.007895 0.039970 0.000000 0.000000 0.000000
# 4 0.000000 0.000000 0.000000 0.041638 0.000000 0.000000
# 5 0.000000 0.000000 0.000000 0.000000 0.041639 0.000000
# 6 0.000000 0.000000 0.000000 0.000000 0.000000 0.111639
#
#
# Mechanical properties :
#
#
# Convention : Reuss Voigt Hill
#
# Bulk Modulus (GPa) = 30.22920 37.32188 33.77554
# Shear Modulus (GPa) = 16.44765 21.93446 19.19105
#
# Velocity S-wave (km/s) = 2.72483 3.14667 2.94332
# Velocity P-wave (km/s) = 4.85237 5.48176 5.17664
#
# Compressibility (1/GPa) = 0.03308060
#
# Stress axis : x y z
#
# Youngs Moduli (GPa) = 78.13758 78.13770 25.01854
#
# Poissons Ratio (x) = 0.03546 0.19751
# Poissons Ratio (y) = 0.03546 0.19751
# Poissons Ratio (z) = 0.61685 0.61686
#
# Static dielectric constant tensor:
#      x y z
#    x 1.868050 0.000000 0.000000 
#    y 0.000000 1.868050 0.000000 
#    z 0.000000 0.000000 1.866720 
# 
# From -- ./inp_files/7591.got.cif
#   From: 2010.05.17/outbox.cif.g08.bks.cpg/sg134_4_cif.got.tgz:7591.got - 2010.05.20 12:42:49.
