data_PCOD9568466
_publ_section_title
;
Structure prediction by ZEFSAII (Michael W. Deem and Ramdas Pophale) SiO2 
 PCOD9568466
Probable space group: P 42/N N M
;
_chemical_formula_sum "Si O2"
_cell_formula_units_Z 88
_cell_length_a 14.700079
_cell_length_b 14.700079
_cell_length_c 20.010550
_cell_angle_alpha 90.000000
_cell_angle_beta 90.000000
_cell_angle_gamma 90.000000
_cell_volume 4324.126226
_symmetry_space_group_name_H-M "P 42/N N M"
_symmetry_group_IT_number 134
_space_group.IT_coordinate_system_code '2'
_symmetry_cell_setting 'tetragonal'
loop_
_space_group_symop_operation_xyz
x,y,z
1/2-y,x,1/2+z
1/2-x,1/2-y,z
y,1/2-x,1/2+z
x,1/2-y,1/2-z
1/2-x,y,1/2-z
y,x,-z
1/2-y,1/2-x,-z
-x,-y,-z
1/2+y,-x,1/2-z
1/2+x,1/2+y,-z
-y,1/2+x,1/2-z
-x,1/2+y,1/2+z
1/2+x,-y,1/2+z
-y,-x,z
1/2+y,1/2+x,z
loop_
_atom_site_type_symbol
_atom_site_label
_atom_site_fract_x
_atom_site_fract_y
_atom_site_fract_z
Si Si1 0.503008 0.242605 0.641422
Si Si2 0.807568 0.667227 0.921596
Si Si3 0.394742 0.743263 0.010117
Si Si4 0.044306 0.397375 0.749885
Si Si5 0.250000 0.033661 0.750000
Si Si6 0.328908 0.515294 0.613979
O O1 0.418340 0.245390 0.591755
O O2 0.583296 0.251438 0.588646
O O3 0.496129 0.152019 0.684622
O O4 0.487717 0.327409 0.691815
O O5 0.750000 0.750000 0.891039
O O6 0.907697 0.649658 0.891687
O O7 0.818727 0.681274 0.000000
O O8 0.357025 0.642976 0.997290
O O9 0.315217 0.815217 0.997333
O O10 0.465967 0.772114 0.953511
O O11 0.154047 0.410316 0.742634
O O12 0.993877 0.493877 0.759689
O O13 0.229446 0.976424 0.682320
O O14 0.416721 0.583280 0.614902
#
# Coordination Sequence:
#
# PCOD9568466 Si02
#       6
#    16  16  16  16   8  16
#     4  11  22  39  68  93 129 171 212 270 336 397
#     4  11  22  39  65  98 133 161 210 271 334 396
#     4  10  22  41  64  93 128 170 222 274 327 393
#     4  11  25  41  62  97 133 170 218 267 333 404
#     4  12  24  41  64  91 132 174 214 277 322 389
#     4  11  24  42  65  94 128 176 226 273 326 391
#
# _framework density 20.350932
#
# number of rings (size 3 to 8) (size 9 to 14) (size 15 to 20)
#    0.000    1.091    3.636    2.727    0.000    3.273 
#    0.000    0.000    0.000   10.091    0.000    0.000 
#    0.000    0.000    0.000    0.000    0.000    0.000 
#
# Total GULP energy -490017.228374 kJ/mol
# GULP energy per Si atom -5568.377595 kJ/mol
# Density = 2.030461 g / cm^3
# Si number density = 20.350932 Si / 1000 Ang^3
#
#
#
# Elastic Constant Matrix: (Units=GPa)
#
#
# Indices 1 2 3 4 5 6 
#
# 1 80.6020 35.8294 23.6584 0.0000 0.0000 0.0000
# 2 35.8294 80.6019 23.6584 0.0000 0.0000 0.0000
# 3 23.6584 23.6584 126.7026 0.0000 0.0000 0.0000
# 4 0.0000 0.0000 0.0000 29.2048 0.0000 0.0000
# 5 0.0000 0.0000 0.0000 0.0000 29.2049 0.0000
# 6 0.0000 0.0000 0.0000 0.0000 0.0000 29.7832
#
#
#
# Elastic Compliance Matrix: (Units=1/GPa)
#
#
# Indices 1 2 3 4 5 6 
#
# 1 0.015815 -0.006521 -0.001735 0.000000 0.000000 0.000000
# 2 -0.006521 0.015815 -0.001735 0.000000 0.000000 0.000000
# 3 -0.001735 -0.001735 0.008541 0.000000 0.000000 0.000000
# 4 0.000000 0.000000 0.000000 0.034241 0.000000 0.000000
# 5 0.000000 0.000000 0.000000 0.000000 0.034241 0.000000
# 6 0.000000 0.000000 0.000000 0.000000 0.000000 0.033576
#
#
# Mechanical properties :
#
#
# Convention : Reuss Voigt Hill
#
# Bulk Modulus (GPa) = 49.53695 50.46654 50.00175
# Shear Modulus (GPa) = 29.59642 31.28925 30.44283
#
# Velocity S-wave (km/s) = 3.81767 3.92533 3.87187
# Velocity P-wave (km/s) = 6.62020 6.73768 6.67920
#
# Compressibility (1/GPa) = 0.02018695
#
# Stress axis : x y z
#
# Youngs Moduli (GPa) = 63.23289 63.23279 117.08802
#
# Poissons Ratio (x) = 0.41231 0.20320
# Poissons Ratio (y) = 0.41231 0.20320
# Poissons Ratio (z) = 0.10974 0.10973
#
# Static dielectric constant tensor:
#      x y z
#    x 1.853220 0.000000 0.000000 
#    y 0.000000 1.853210 0.000000 
#    z 0.000000 0.000000 1.744550 
# 
# From -- ./inp_files/9000.got.cif
#   From: 2010.05.17/outbox.cif.g08.bks.cpg/sg134_5_cif.got.tgz:9000.got - 2010.05.20 12:42:49.
