data_PCOD9568288
_publ_section_title
;
Structure prediction by ZEFSAII (Michael W. Deem and Ramdas Pophale) SiO2 
 PCOD9568288
Probable space group: P 42/N N M
;
_chemical_formula_sum "Si O2"
_cell_formula_units_Z 88
_cell_length_a 11.875651
_cell_length_b 11.875651
_cell_length_c 30.238031
_cell_angle_alpha 90.000000
_cell_angle_beta 90.000000
_cell_angle_gamma 90.000000
_cell_volume 4264.502371
_symmetry_space_group_name_H-M "P 42/N N M"
_symmetry_group_IT_number 134
_space_group.IT_coordinate_system_code '2'
_symmetry_cell_setting 'tetragonal'
loop_
_space_group_symop_operation_xyz
x,y,z
1/2-y,x,1/2+z
1/2-x,1/2-y,z
y,1/2-x,1/2+z
x,1/2-y,1/2-z
1/2-x,y,1/2-z
y,x,-z
1/2-y,1/2-x,-z
-x,-y,-z
1/2+y,-x,1/2-z
1/2+x,1/2+y,-z
-y,1/2+x,1/2-z
-x,1/2+y,1/2+z
1/2+x,-y,1/2+z
-y,-x,z
1/2+y,1/2+x,z
loop_
_atom_site_type_symbol
_atom_site_label
_atom_site_fract_x
_atom_site_fract_y
_atom_site_fract_z
Si Si1 0.774429 0.045306 0.573252
Si Si2 0.750000 0.061445 0.250000
Si Si3 0.687918 0.870022 0.086570
Si Si4 0.933758 0.241255 0.827949
Si Si5 0.167110 0.145390 0.690404
Si Si6 0.329301 0.492590 0.981460
O O1 0.840880 0.159121 0.578170
O O2 0.713079 0.030825 0.620779
O O3 0.857158 0.939490 0.571017
O O4 0.715970 0.047677 0.526109
O O5 0.647911 0.147911 0.264241
O O6 0.805895 0.970018 0.283715
O O7 0.750000 0.750000 0.078924
O O8 0.686283 0.886054 0.138980
O O9 0.746358 0.966431 0.058151
O O10 0.870440 0.129561 0.809594
O O11 0.838768 0.338768 0.828181
O O12 0.042735 0.298264 0.805674
O O13 0.250000 0.250000 0.700975
O O14 0.434425 0.565576 0.964856
O O15 0.374687 0.374687 0.000000
#
# Coordination Sequence:
#
# PCOD9568288 Si02
#       6
#    16   8  16  16  16  16
#     4  10  20  34  54  80 112 156 204 247 295 357
#     4  11  25  46  70  92 123 171 216 256 306 375
#     4  10  20  37  57  81 113 154 196 248 304 361
#     4   9  18  35  61  92 126 160 196 248 315 379
#     4  10  22  40  64  95 125 155 204 260 315 380
#     4  11  22  33  50  77 115 159 203 249 297 353
#
# _framework density 20.635466999999998
#
# number of rings (size 3 to 8) (size 9 to 14) (size 15 to 20)
#    0.000    1.909    1.818    1.909    0.000    4.727 
#    0.000    0.000    0.000    0.000    0.000    2.545 
#    0.000    0.000    0.000    0.000    0.000    0.000 
#
# Total GULP energy -490151.353954 kJ/mol
# GULP energy per Si atom -5569.901749 kJ/mol
# Density = 2.058850 g / cm^3
# Si number density = 20.635467 Si / 1000 Ang^3
#
#
#
# Elastic Constant Matrix: (Units=GPa)
#
#
# Indices 1 2 3 4 5 6 
#
# 1 112.1972 52.5168 43.4075 0.0000 0.0000 0.0000
# 2 52.5168 112.1972 43.4075 0.0000 0.0000 0.0000
# 3 43.4075 43.4075 75.1517 0.0000 0.0000 0.0000
# 4 0.0000 0.0000 0.0000 11.1733 0.0000 0.0000
# 5 0.0000 0.0000 0.0000 0.0000 11.1733 0.0000
# 6 0.0000 0.0000 0.0000 0.0000 0.0000 35.9662
#
#
#
# Elastic Compliance Matrix: (Units=1/GPa)
#
#
# Indices 1 2 3 4 5 6 
#
# 1 0.012742 -0.004014 -0.005041 0.000000 0.000000 0.000000
# 2 -0.004014 0.012742 -0.005041 0.000000 0.000000 0.000000
# 3 -0.005041 -0.005041 0.019130 0.000000 0.000000 0.000000
# 4 0.000000 0.000000 0.000000 0.089499 0.000000 0.000000
# 5 0.000000 0.000000 0.000000 0.000000 0.089499 0.000000
# 6 0.000000 0.000000 0.000000 0.000000 0.000000 0.027804
#
#
# Mechanical properties :
#
#
# Convention : Reuss Voigt Hill
#
# Bulk Modulus (GPa) = 60.89734 64.24553 62.57143
# Shear Modulus (GPa) = 17.53874 22.34352 19.94113
#
# Velocity S-wave (km/s) = 2.91852 3.29412 3.11199
# Velocity P-wave (km/s) = 6.39782 6.75792 6.58033
#
# Compressibility (1/GPa) = 0.01642108
#
# Stress axis : x y z
#
# Youngs Moduli (GPa) = 78.47991 78.47991 52.27311
#
# Poissons Ratio (x) = 0.31500 0.26353
# Poissons Ratio (y) = 0.31500 0.26353
# Poissons Ratio (z) = 0.39565 0.39565
#
# Static dielectric constant tensor:
#      x y z
#    x 1.745950 0.000000 0.000000 
#    y 0.000000 1.745950 0.000000 
#    z 0.000000 0.000000 1.845850 
# 
# From -- ./inp_files/11451.got.cif
#   From: 2010.05.17/outbox.cif.g08.bks.cpg/sg134_6_cif.got.tgz:11451.got - 2010.05.20 12:42:49.
