data_PCOD9568115
_publ_section_title
;
Structure prediction by ZEFSAII (Michael W. Deem and Ramdas Pophale) SiO2 
 PCOD9568115
Probable space group: P 42/N N M
;
_chemical_formula_sum "Si O2"
_cell_formula_units_Z 64
_cell_length_a 17.387935
_cell_length_b 17.387935
_cell_length_c 12.201901
_cell_angle_alpha 90.000000
_cell_angle_beta 90.000000
_cell_angle_gamma 90.000000
_cell_volume 3689.126208
_symmetry_space_group_name_H-M "P 42/N N M"
_symmetry_group_IT_number 134
_space_group.IT_coordinate_system_code '2'
_symmetry_cell_setting 'tetragonal'
loop_
_space_group_symop_operation_xyz
x,y,z
1/2-y,x,1/2+z
1/2-x,1/2-y,z
y,1/2-x,1/2+z
x,1/2-y,1/2-z
1/2-x,y,1/2-z
y,x,-z
1/2-y,1/2-x,-z
-x,-y,-z
1/2+y,-x,1/2-z
1/2+x,1/2+y,-z
-y,1/2+x,1/2-z
-x,1/2+y,1/2+z
1/2+x,-y,1/2+z
-y,-x,z
1/2+y,1/2+x,z
loop_
_atom_site_type_symbol
_atom_site_label
_atom_site_fract_x
_atom_site_fract_y
_atom_site_fract_z
Si Si1 0.320907 0.380489 0.328396
Si Si2 0.261864 0.114230 0.549661
Si Si3 0.160935 0.964363 0.217961
Si Si4 0.005522 0.878585 0.968887
O O1 0.250000 0.360583 0.250000
O O2 0.286122 0.411300 0.442738
O O3 0.360993 0.301333 0.362443
O O4 0.362098 0.451953 0.268301
O O5 0.316856 0.183145 0.500000
O O6 0.314903 0.045079 0.591286
O O7 0.250000 0.951560 0.250000
O O8 0.102539 0.897462 0.254740
O O9 0.154813 0.968933 0.086479
O O10 0.077829 0.922172 0.915649
O O11 0.943930 0.943930 0.000000
#
# Coordination Sequence:
#
# PCOD9568115 Si02
#       4
#    16  16  16  16
#     4  10  18  31  44  71 106 127 164 202 256 313
#     4  10  19  30  46  71 103 133 163 201 251 310
#     4  10  19  34  52  70  98 131 170 215 254 301
#     4   9  17  32  49  67  95 132 170 206 244 299
#
# _framework density 17.348282000000001
#
# number of rings (size 3 to 8) (size 9 to 14) (size 15 to 20)
#    0.000    2.250    5.000    1.500    0.000    2.250 
#    0.000    2.500    0.000    0.000    0.000    0.000 
#    0.000    0.000    0.000    8.000    0.000    0.000 
#
# Total GULP energy -356298.626590 kJ/mol
# GULP energy per Si atom -5567.166040 kJ/mol
# Density = 1.730880 g / cm^3
# Si number density = 17.348282 Si / 1000 Ang^3
#
#
#
# Elastic Constant Matrix: (Units=GPa)
#
#
# Indices 1 2 3 4 5 6 
#
# 1 82.9285 103.0256 20.4209 0.0000 0.0000 0.0000
# 2 103.0256 82.9282 20.4211 0.0000 0.0000 0.0000
# 3 20.4209 20.4211 35.4666 0.0000 0.0000 0.0000
# 4 0.0000 0.0000 0.0000 20.2459 0.0000 0.0000
# 5 0.0000 0.0000 0.0000 0.0000 20.2459 0.0000
# 6 0.0000 0.0000 0.0000 0.0000 0.0000 51.6958
#
#
#
# Elastic Compliance Matrix: (Units=1/GPa)
#
#
# Indices 1 2 3 4 5 6 
#
# 1 -0.021801 0.027957 -0.003545 0.000000 0.000000 0.000000
# 2 0.027957 -0.021801 -0.003544 0.000000 0.000000 0.000000
# 3 -0.003545 -0.003544 0.032277 0.000000 0.000000 0.000000
# 4 0.000000 0.000000 0.000000 0.049393 0.000000 0.000000
# 5 0.000000 0.000000 0.000000 0.000000 0.049393 0.000000
# 6 0.000000 0.000000 0.000000 0.000000 0.000000 0.019344
#
#
# Mechanical properties :
#
#
# Convention : Reuss Voigt Hill
#
# Bulk Modulus (GPa) = 32.88253 54.33984 43.61119
# Shear Modulus (GPa) = 66.48383 22.26790 44.37586
#
# Velocity S-wave (km/s) = 6.19727 3.58659 5.06309
# Velocity P-wave (km/s) = 8.37877 6.96724 7.70539
#
# Compressibility (1/GPa) = 0.03041128
#
# Stress axis : x y z
#
# Youngs Moduli (GPa) = -45.86978 -45.86941 30.98147
#
# Poissons Ratio (x) = 1.28238 0.10982
# Poissons Ratio (y) = 1.28239 0.10981
# Poissons Ratio (z) = -0.16260 -0.16258
#
# Static dielectric constant tensor:
#      x y z
#    x 1.638500 0.000000 0.000000 
#    y 0.000000 1.638500 0.000000 
#    z 0.000000 0.000000 1.670560 
# 
# From -- ./inp_files/4546.got.cif
#   From: 2010.05.17/outbox.cif.g08.bks.cpg/sg134_3_cif.got.tgz:4546.got - 2010.05.20 12:42:49.
