data_PCOD9568177
_publ_section_title
;
Structure prediction by ZEFSAII (Michael W. Deem and Ramdas Pophale) SiO2 
 PCOD9568177
Probable space group: P 42/N N M
;
_chemical_formula_sum "Si O2"
_cell_formula_units_Z 64
_cell_length_a 17.508534
_cell_length_b 17.508534
_cell_length_c 10.505138
_cell_angle_alpha 90.000000
_cell_angle_beta 90.000000
_cell_angle_gamma 90.000000
_cell_volume 3220.337057
_symmetry_space_group_name_H-M "P 42/N N M"
_symmetry_group_IT_number 134
_space_group.IT_coordinate_system_code '2'
_symmetry_cell_setting 'tetragonal'
loop_
_space_group_symop_operation_xyz
x,y,z
1/2-y,x,1/2+z
1/2-x,1/2-y,z
y,1/2-x,1/2+z
x,1/2-y,1/2-z
1/2-x,y,1/2-z
y,x,-z
1/2-y,1/2-x,-z
-x,-y,-z
1/2+y,-x,1/2-z
1/2+x,1/2+y,-z
-y,1/2+x,1/2-z
-x,1/2+y,1/2+z
1/2+x,-y,1/2+z
-y,-x,z
1/2+y,1/2+x,z
loop_
_atom_site_type_symbol
_atom_site_label
_atom_site_fract_x
_atom_site_fract_y
_atom_site_fract_z
Si Si1 0.461384 0.418844 0.687665
Si Si2 0.477777 0.139866 0.546411
Si Si3 0.542871 0.337673 0.213453
Si Si4 0.366130 0.223592 0.895980
O O1 0.525626 0.474375 0.629575
O O2 0.499736 0.378103 0.810125
O O3 0.390936 0.473480 0.733456
O O4 0.423579 0.348537 0.615162
O O5 0.436851 0.063150 0.500000
O O6 0.538167 0.159829 0.439739
O O7 0.414203 0.205968 0.549787
O O8 0.534683 0.250000 0.250000
O O9 0.620144 0.379857 0.256335
O O10 0.342581 0.250000 0.750000
O O11 0.304562 0.195439 0.000000
#
# Coordination Sequence:
#
# PCOD9568177 Si02
#       4
#    16  16  16  16
#     4   9  18  33  54  77 101 133 175 223 272 321
#     4   9  18  33  51  73 102 136 173 214 263 325
#     4  10  19  32  51  72  97 130 170 217 266 317
#     4  10  20  34  51  76 110 143 180 224 271 328
#
# _framework density 19.873694
#
# number of rings (size 3 to 8) (size 9 to 14) (size 15 to 20)
#    0.000    2.500    0.000    2.250    0.000    4.250 
#    0.000   10.000    0.000    0.000    0.000    0.000 
#    0.000   24.500    0.000    0.500    0.000   16.250 
#
# Total GULP energy -356650.542770 kJ/mol
# GULP energy per Si atom -5572.664731 kJ/mol
# Density = 1.982846 g / cm^3
# Si number density = 19.873694 Si / 1000 Ang^3
#
#
#
# Elastic Constant Matrix: (Units=GPa)
#
#
# Indices 1 2 3 4 5 6 
#
# 1 84.8514 59.6281 21.7077 0.0000 0.0000 0.0000
# 2 59.6281 84.8491 21.7052 0.0000 0.0000 0.0000
# 3 21.7077 21.7052 72.6463 0.0000 0.0000 0.0000
# 4 0.0000 0.0000 0.0000 -7.4945 0.0000 0.0000
# 5 0.0000 0.0000 0.0000 0.0000 -7.4925 0.0000
# 6 0.0000 0.0000 0.0000 0.0000 0.0000 39.2208
#
#
#
# Elastic Compliance Matrix: (Units=1/GPa)
#
#
# Indices 1 2 3 4 5 6 
#
# 1 0.023626 -0.016022 -0.002273 0.000000 0.000000 0.000000
# 2 -0.016022 0.023626 -0.002271 0.000000 0.000000 0.000000
# 3 -0.002273 -0.002271 0.015123 0.000000 0.000000 0.000000
# 4 0.000000 0.000000 0.000000 -0.133432 0.000000 0.000000
# 5 0.000000 0.000000 0.000000 0.000000 -0.133467 0.000000
# 6 0.000000 0.000000 0.000000 0.000000 0.000000 0.025497
#
#
# Mechanical properties :
#
#
# Convention : Reuss Voigt Hill
#
# Bulk Modulus (GPa) = 47.07421 49.82544 48.44983
# Shear Modulus (GPa) = -38.22231 14.13382 -12.04424
#
# Velocity S-wave (km/s) = -4.39026 2.66969 -2.46446
# Velocity P-wave (km/s) = 1.40037 5.88460 4.04150
#
# Compressibility (1/GPa) = 0.02124305
#
# Stress axis : x y z
#
# Youngs Moduli (GPa) = 42.32661 42.32619 66.12395
#
# Poissons Ratio (x) = 0.67814 0.15028
# Poissons Ratio (y) = 0.67815 0.15020
# Poissons Ratio (z) = 0.09620 0.09614
#
# Static dielectric constant tensor:
#      x y z
#    x 1.696650 0.000000 0.000000 
#    y 0.000000 1.696650 0.000000 
#    z 0.000000 0.000000 1.793300 
# 
# From -- ./inp_files/4560.got.cif
#   From: 2010.05.17/outbox.cif.g08.bks.cpg/sg134_3_cif.got.tgz:4560.got - 2010.05.20 12:42:49.
