data_PCOD9568907
_publ_section_title
;
Structure prediction by ZEFSAII (Michael W. Deem and Ramdas Pophale) SiO2 
 PCOD9568907
Probable space group: P 42/M B C
;
_chemical_formula_sum "Si O2"
_cell_formula_units_Z 80
_cell_length_a 13.569877
_cell_length_b 13.569877
_cell_length_c 23.164445
_cell_angle_alpha 90.000000
_cell_angle_beta 90.000000
_cell_angle_gamma 90.000000
_cell_volume 4265.537080
_symmetry_space_group_name_H-M "P 42/M B C"
_symmetry_group_IT_number 135
_symmetry_cell_setting 'tetragonal'
loop_
_space_group_symop_operation_xyz
x,y,z
-y,x,1/2+z
-x,-y,z
y,-x,1/2+z
1/2+x,1/2-y,-z
1/2-x,1/2+y,-z
1/2+y,1/2+x,1/2-z
1/2-y,1/2-x,1/2-z
-x,-y,-z
y,-x,1/2-z
x,y,-z
-y,x,1/2-z
1/2-x,1/2+y,z
1/2+x,1/2-y,z
1/2-y,1/2-x,1/2+z
1/2+y,1/2+x,1/2+z
loop_
_atom_site_type_symbol
_atom_site_label
_atom_site_fract_x
_atom_site_fract_y
_atom_site_fract_z
Si Si1 0.393835 0.957367 0.814892
Si Si2 0.893259 0.878023 0.256674
Si Si3 0.229912 0.843811 0.874292
Si Si4 0.004560 0.883582 0.566378
Si Si5 0.369366 0.256574 0.655527
O O1 0.411130 0.911130 0.750000
O O2 0.341221 0.880910 0.859164
O O3 0.500000 0.000000 0.832704
O O4 0.322593 0.053630 0.818677
O O5 0.878508 0.827622 0.317226
O O6 0.821608 0.833198 0.209270
O O7 0.006456 0.869410 0.238609
O O8 0.217591 0.727038 0.876452
O O9 0.175255 0.901803 0.925266
O O10 0.037243 0.875797 0.500000
O O11 0.074805 0.828304 0.611347
O O12 0.000000 0.000000 0.580826
#
# Coordination Sequence:
#
# PCOD9568907 Si02
#       5
#    16  16  16  16  16
#     4  10  22  36  50  80 125 164 188 229 291 355
#     4  11  20  33  58  89 126 151 191 248 302 354
#     4  11  23  36  59  89 117 156 198 244 297 357
#     4  10  22  44  65  85 115 153 202 255 301 347
#     4  11  23  36  58  89 119 159 198 245 290 363
#
# _framework density 18.754964000000001
#
# number of rings (size 3 to 8) (size 9 to 14) (size 15 to 20)
#    0.000    1.400    4.000    3.000    5.600    2.400 
#    0.000    0.000    0.000    9.600    0.000    0.000 
#    0.000    0.000    0.000    0.000    0.000    0.000 
#
# Total GULP energy -446231.720329 kJ/mol
# GULP energy per Si atom -5577.896504 kJ/mol
# Density = 1.871228 g / cm^3
# Si number density = 18.754964 Si / 1000 Ang^3
#
#
#
# Elastic Constant Matrix: (Units=GPa)
#
#
# Indices 1 2 3 4 5 6 
#
# 1 51.6301 70.7716 22.2179 0.0000 0.0000 0.0000
# 2 70.7716 51.6301 22.2179 0.0000 0.0000 0.0000
# 3 22.2179 22.2179 63.5229 0.0000 0.0000 0.0000
# 4 0.0000 0.0000 0.0000 19.0826 0.0000 0.0000
# 5 0.0000 0.0000 0.0000 0.0000 19.0826 0.0000
# 6 0.0000 0.0000 0.0000 0.0000 0.0000 22.2288
#
#
#
# Elastic Compliance Matrix: (Units=1/GPa)
#
#
# Indices 1 2 3 4 5 6 
#
# 1 -0.021442 0.030800 -0.003273 0.000000 0.000000 0.000000
# 2 0.030800 -0.021442 -0.003273 0.000000 0.000000 0.000000
# 3 -0.003273 -0.003273 0.018032 0.000000 0.000000 0.000000
# 4 0.000000 0.000000 0.000000 0.052404 0.000000 0.000000
# 5 0.000000 0.000000 0.000000 0.000000 0.052404 0.000000
# 6 0.000000 0.000000 0.000000 0.000000 0.000000 0.044987
#
#
# Mechanical properties :
#
#
# Convention : Reuss Voigt Hill
#
# Bulk Modulus (GPa) = 42.27313 44.13314 43.20313
# Shear Modulus (GPa) = 59.29878 15.51718 37.40798
#
# Velocity S-wave (km/s) = 5.62906 2.87951 4.47090
# Velocity P-wave (km/s) = 8.05214 5.88540 7.05248
#
# Compressibility (1/GPa) = 0.02365569
#
# Stress axis : x y z
#
# Youngs Moduli (GPa) = -46.63693 -46.63693 55.45706
#
# Poissons Ratio (x) = 1.43643 0.18152
# Poissons Ratio (y) = 1.43643 0.18152
# Poissons Ratio (z) = -0.15265 -0.15265
#
# Static dielectric constant tensor:
#      x y z
#    x 1.437860 0.000000 0.000000 
#    y 0.000000 1.437860 0.000000 
#    z 0.000000 0.000000 1.618340 
# 
# From -- ./inp_files/5217.got.cif
#   From: 2010.05.17/outbox.cif.g08.bks.cpg/sg135_3_cif.got.tgz:5217.got - 2010.05.20 12:50:20.
