data_PCOD9568980
_publ_section_title
;
Structure prediction by ZEFSAII (Michael W. Deem and Ramdas Pophale) SiO2 
 PCOD9568980
Probable space group: P 42/M B C
;
_chemical_formula_sum "Si O2"
_cell_formula_units_Z 64
_cell_length_a 9.736463
_cell_length_b 9.736463
_cell_length_c 28.058553
_cell_angle_alpha 90.000000
_cell_angle_beta 90.000000
_cell_angle_gamma 90.000000
_cell_volume 2659.914678
_symmetry_space_group_name_H-M "P 42/M B C"
_symmetry_group_IT_number 135
_symmetry_cell_setting 'tetragonal'
loop_
_space_group_symop_operation_xyz
x,y,z
-y,x,1/2+z
-x,-y,z
y,-x,1/2+z
1/2+x,1/2-y,-z
1/2-x,1/2+y,-z
1/2+y,1/2+x,1/2-z
1/2-y,1/2-x,1/2-z
-x,-y,-z
y,-x,1/2-z
x,y,-z
-y,x,1/2-z
1/2-x,1/2+y,z
1/2+x,1/2-y,z
1/2-y,1/2-x,1/2+z
1/2+y,1/2+x,1/2+z
loop_
_atom_site_type_symbol
_atom_site_label
_atom_site_fract_x
_atom_site_fract_y
_atom_site_fract_z
Si Si1 0.655778 0.468623 0.897811
Si Si2 0.631242 0.909232 0.644107
Si Si3 0.194137 0.748888 0.054743
Si Si4 0.797105 0.920766 0.733244
O O1 0.500000 0.500000 0.887429
O O2 0.720502 0.606737 0.919590
O O3 0.676267 0.351658 0.937802
O O4 0.748517 0.413736 0.854329
O O5 0.662263 0.837738 0.750000
O O6 0.674180 0.918462 0.588605
O O7 0.500000 0.000000 0.655809
O O8 0.759019 0.940574 0.677754
O O9 0.157918 0.764712 0.000000
O O10 0.828978 0.068171 0.756642
#
# Coordination Sequence:
#
# PCOD9568980 Si02
#       4
#    16  16  16  16
#     4  10  25  45  74 114 160 217 273 328 398 474
#     4  10  27  49  78 114 161 216 264 344 409 489
#     4  10  24  43  74 115 163 217 271 329 396 477
#     4  11  29  52  85 118 155 206 270 343 420 499
#
# _framework density 24.060924
#
# number of rings (size 3 to 8) (size 9 to 14) (size 15 to 20)
#    1.500    0.250    0.000    0.750   10.500    4.500 
#    0.000    0.000    0.000    0.000    0.000    0.000 
#    0.000    0.000    0.000    0.000    0.000    0.000 
#
# Total GULP energy -357520.262956 kJ/mol
# GULP energy per Si atom -5586.254109 kJ/mol
# Density = 2.400616 g / cm^3
# Si number density = 24.060924 Si / 1000 Ang^3
#
#
#
# Elastic Constant Matrix: (Units=GPa)
#
#
# Indices 1 2 3 4 5 6 
#
# 1 130.3272 50.5251 39.0110 0.0000 0.0000 0.0000
# 2 50.5251 130.3246 39.0112 0.0000 0.0000 0.0000
# 3 39.0110 39.0112 120.3536 0.0000 0.0000 0.0000
# 4 0.0000 0.0000 0.0000 13.6346 0.0000 0.0000
# 5 0.0000 0.0000 0.0000 0.0000 13.6343 0.0000
# 6 0.0000 0.0000 0.0000 0.0000 0.0000 53.6484
#
#
#
# Elastic Compliance Matrix: (Units=1/GPa)
#
#
# Indices 1 2 3 4 5 6 
#
# 1 0.009480 -0.003051 -0.002084 0.000000 0.000000 0.000000
# 2 -0.003051 0.009480 -0.002084 0.000000 0.000000 0.000000
# 3 -0.002084 -0.002084 0.009660 0.000000 0.000000 0.000000
# 4 0.000000 0.000000 0.000000 0.073343 0.000000 0.000000
# 5 0.000000 0.000000 0.000000 0.000000 0.073344 0.000000
# 6 0.000000 0.000000 0.000000 0.000000 0.000000 0.018640
#
#
# Mechanical properties :
#
#
# Convention : Reuss Voigt Hill
#
# Bulk Modulus (GPa) = 70.51359 70.89998 70.70679
# Shear Modulus (GPa) = 23.46193 33.01400 28.23797
#
# Velocity S-wave (km/s) = 3.12606 3.70821 3.42951
# Velocity P-wave (km/s) = 6.51149 6.91847 6.71806
#
# Compressibility (1/GPa) = 0.01418166
#
# Stress axis : x y z
#
# Youngs Moduli (GPa) = 105.48901 105.48655 103.52352
#
# Poissons Ratio (x) = 0.32188 0.21570
# Poissons Ratio (y) = 0.32189 0.21571
# Poissons Ratio (z) = 0.21980 0.21980
#
# Static dielectric constant tensor:
#      x y z
#    x 1.945710 0.000000 0.000000 
#    y 0.000000 1.945710 0.000000 
#    z 0.000000 0.000000 2.010080 
# 
# From -- ./inp_files/5061.got.cif
#   From: 2010.05.17/outbox.cif.g08.bks.cpg/sg135_3_cif.got.tgz:5061.got - 2010.05.20 12:50:20.
