data_PCOD9568294
_publ_section_title
;
Structure prediction by ZEFSAII (Michael W. Deem and Ramdas Pophale) SiO2 
 PCOD9568294
Probable space group: P 42/N N M
;
_chemical_formula_sum "Si O2"
_cell_formula_units_Z 96
_cell_length_a 16.939495
_cell_length_b 16.939495
_cell_length_c 17.647868
_cell_angle_alpha 90.000000
_cell_angle_beta 90.000000
_cell_angle_gamma 90.000000
_cell_volume 5063.993794
_symmetry_space_group_name_H-M "P 42/N N M"
_symmetry_group_IT_number 134
_space_group.IT_coordinate_system_code '2'
_symmetry_cell_setting 'tetragonal'
loop_
_space_group_symop_operation_xyz
x,y,z
1/2-y,x,1/2+z
1/2-x,1/2-y,z
y,1/2-x,1/2+z
x,1/2-y,1/2-z
1/2-x,y,1/2-z
y,x,-z
1/2-y,1/2-x,-z
-x,-y,-z
1/2+y,-x,1/2-z
1/2+x,1/2+y,-z
-y,1/2+x,1/2-z
-x,1/2+y,1/2+z
1/2+x,-y,1/2+z
-y,-x,z
1/2+y,1/2+x,z
loop_
_atom_site_type_symbol
_atom_site_label
_atom_site_fract_x
_atom_site_fract_y
_atom_site_fract_z
Si Si1 0.089527 0.370874 0.110468
Si Si2 0.948580 0.318027 0.479896
Si Si3 0.659971 0.844393 0.735541
Si Si4 0.809079 0.622505 0.430918
Si Si5 0.979116 0.350154 0.977265
Si Si6 0.120812 0.753443 0.671899
O O1 0.099852 0.378639 0.201097
O O2 0.120013 0.283301 0.090437
O O3 0.137604 0.441788 0.071670
O O4 0.006667 0.369309 0.064421
O O5 0.888731 0.388731 0.500260
O O6 0.948059 0.239019 0.530765
O O7 0.922316 0.282819 0.398809
O O8 0.039543 0.338351 0.466337
O O9 0.659765 0.750000 0.750000
O O10 0.750000 0.872097 0.750000
O O11 0.639819 0.854838 0.647127
O O12 0.818314 0.681687 0.500000
O O13 0.913486 0.413486 0.955478
O O14 0.071934 0.750000 0.750000
O O15 0.163176 0.836825 0.655486
O O16 0.191431 0.691431 0.687486
#
# Coordination Sequence:
#
# PCOD9568294 Si02
#       6
#    16  16  16  16  16  16
#     4   9  19  35  54  83 114 141 179 229 287 337
#     4  10  21  35  50  74 109 148 191 227 273 339
#     4   9  19  34  53  82 112 140 184 226 269 336
#     4  10  22  37  57  80 110 151 183 228 277 336
#     4  10  20  34  56  85 115 146 185 239 290 337
#     4   8  14  26  46  70  96 130 171 213 257 312
#
# _framework density 18.957367999999999
#
# number of rings (size 3 to 8) (size 9 to 14) (size 15 to 20)
#    0.000    2.667    0.000    2.000    7.000    4.667 
#    3.000    3.333    0.000    0.000    0.000    0.000 
#    0.000    0.000    0.000    0.000    0.000    0.000 
#
# Total GULP energy -534508.506145 kJ/mol
# GULP energy per Si atom -5567.796939 kJ/mol
# Density = 1.891422 g / cm^3
# Si number density = 18.957368 Si / 1000 Ang^3
#
#
#
# Elastic Constant Matrix: (Units=GPa)
#
#
# Indices 1 2 3 4 5 6 
#
# 1 66.4505 49.2910 25.4535 0.0000 0.0000 0.0000
# 2 49.2910 66.4468 25.4533 0.0000 0.0000 0.0000
# 3 25.4535 25.4533 80.1487 0.0000 0.0000 0.0000
# 4 0.0000 0.0000 0.0000 16.0601 0.0000 0.0000
# 5 0.0000 0.0000 0.0000 0.0000 16.0601 0.0000
# 6 0.0000 0.0000 0.0000 0.0000 0.0000 28.2502
#
#
#
# Elastic Compliance Matrix: (Units=1/GPa)
#
#
# Indices 1 2 3 4 5 6 
#
# 1 0.034162 -0.024120 -0.003189 0.000000 0.000000 0.000000
# 2 -0.024120 0.034164 -0.003190 0.000000 0.000000 0.000000
# 3 -0.003189 -0.003190 0.014503 0.000000 0.000000 0.000000
# 4 0.000000 0.000000 0.000000 0.062266 0.000000 0.000000
# 5 0.000000 0.000000 0.000000 0.000000 0.062266 0.000000
# 6 0.000000 0.000000 0.000000 0.000000 0.000000 0.035398
#
#
# Mechanical properties :
#
#
# Convention : Reuss Voigt Hill
#
# Bulk Modulus (GPa) = 45.80688 45.93796 45.87242
# Shear Modulus (GPa) = 16.07545 19.59729 17.83637
#
# Velocity S-wave (km/s) = 2.91517 3.21870 3.07068
# Velocity P-wave (km/s) = 5.96209 6.17237 6.06814
#
# Compressibility (1/GPa) = 0.02183078
#
# Stress axis : x y z
#
# Youngs Moduli (GPa) = 29.27237 29.27057 68.95329
#
# Poissons Ratio (x) = 0.70601 0.21990
# Poissons Ratio (y) = 0.70605 0.21994
# Poissons Ratio (z) = 0.09335 0.09336
#
# Static dielectric constant tensor:
#      x y z
#    x 1.771630 0.000000 0.000000 
#    y 0.000000 1.771600 0.000000 
#    z 0.000000 0.000000 1.747190 
# 
# From -- ./inp_files/7904.got.cif
#   From: 2010.05.17/outbox.cif.g08.bks.cpg/sg134_4_cif.got.tgz:7904.got - 2010.05.20 12:42:49.
