data_PCOD9568914
_publ_section_title
;
Structure prediction by ZEFSAII (Michael W. Deem and Ramdas Pophale) SiO2 
 PCOD9568914
Probable space group: P 42/M B C
;
_chemical_formula_sum "Si O2"
_cell_formula_units_Z 72
_cell_length_a 10.563199
_cell_length_b 10.563199
_cell_length_c 30.957314
_cell_angle_alpha 90.000000
_cell_angle_beta 90.000000
_cell_angle_gamma 90.000000
_cell_volume 3454.253413
_symmetry_space_group_name_H-M "P 42/M B C"
_symmetry_group_IT_number 135
_symmetry_cell_setting 'tetragonal'
loop_
_space_group_symop_operation_xyz
x,y,z
-y,x,1/2+z
-x,-y,z
y,-x,1/2+z
1/2+x,1/2-y,-z
1/2-x,1/2+y,-z
1/2+y,1/2+x,1/2-z
1/2-y,1/2-x,1/2-z
-x,-y,-z
y,-x,1/2-z
x,y,-z
-y,x,1/2-z
1/2-x,1/2+y,z
1/2+x,1/2-y,z
1/2-y,1/2-x,1/2+z
1/2+y,1/2+x,1/2+z
loop_
_atom_site_type_symbol
_atom_site_label
_atom_site_fract_x
_atom_site_fract_y
_atom_site_fract_z
Si Si1 0.061254 0.806970 0.745389
Si Si2 0.805970 0.698899 0.594737
Si Si3 0.500000 0.000000 0.618421
Si Si4 0.835708 0.324071 0.672976
Si Si5 0.851223 0.972855 0.550785
O O1 0.048031 0.742303 0.698498
O O2 0.126323 0.737548 0.785275
O O3 0.927646 0.851732 0.762762
O O4 0.744939 0.734752 0.641371
O O5 0.817735 0.835666 0.571359
O O6 0.718430 0.593620 0.571833
O O7 0.940539 0.623982 0.595647
O O8 0.386933 0.057444 0.646488
O O9 0.819826 0.967801 0.500000
O O10 0.000000 0.000000 0.555847
#
# Coordination Sequence:
#
# PCOD9568914 Si02
#       5
#    16  16   8  16  16
#     4  10  22  38  59  92 131 180 229 285 343 406
#     4  12  24  47  71 106 139 187 232 293 358 435
#     4  12  24  41  69 102 134 186 232 288 357 421
#     4  11  23  41  64  95 136 180 232 287 350 418
#     4  11  26  47  73 105 142 184 234 293 354 426
#
# _framework density 20.843865999999998
#
# number of rings (size 3 to 8) (size 9 to 14) (size 15 to 20)
#    0.000    0.889    2.222    4.667    0.000    3.556 
#    0.000    1.111    0.000    0.000    0.000    0.000 
#    0.000    0.000    0.000    0.000    0.000    0.000 
#
# Total GULP energy -401497.816958 kJ/mol
# GULP energy per Si atom -5576.358569 kJ/mol
# Density = 2.079642 g / cm^3
# Si number density = 20.843866 Si / 1000 Ang^3
#
#
#
# Elastic Constant Matrix: (Units=GPa)
#
#
# Indices 1 2 3 4 5 6 
#
# 1 101.1363 22.7719 43.8637 0.0000 0.0000 0.0000
# 2 22.7719 101.1363 43.8637 0.0000 0.0000 0.0000
# 3 43.8637 43.8637 97.2055 0.0000 0.0000 0.0000
# 4 0.0000 0.0000 0.0000 30.4644 0.0000 0.0000
# 5 0.0000 0.0000 0.0000 0.0000 30.4644 0.0000
# 6 0.0000 0.0000 0.0000 0.0000 0.0000 39.7145
#
#
#
# Elastic Compliance Matrix: (Units=1/GPa)
#
#
# Indices 1 2 3 4 5 6 
#
# 1 0.012310 -0.000451 -0.005352 0.000000 0.000000 0.000000
# 2 -0.000451 0.012310 -0.005352 0.000000 0.000000 0.000000
# 3 -0.005352 -0.005352 0.015117 0.000000 0.000000 0.000000
# 4 0.000000 0.000000 0.000000 0.032825 0.000000 0.000000
# 5 0.000000 0.000000 0.000000 0.000000 0.032825 0.000000
# 6 0.000000 0.000000 0.000000 0.000000 0.000000 0.025180
#
#
# Mechanical properties :
#
#
# Convention : Reuss Voigt Hill
#
# Bulk Modulus (GPa) = 57.37266 57.83075 57.60171
# Shear Modulus (GPa) = 31.50891 32.72722 32.11806
#
# Velocity S-wave (km/s) = 3.89223 3.96676 3.92967
# Velocity P-wave (km/s) = 6.91260 6.98464 6.94871
#
# Compressibility (1/GPa) = 0.01742990
#
# Stress axis : x y z
#
# Youngs Moduli (GPa) = 81.23381 81.23381 66.14980
#
# Poissons Ratio (x) = 0.03662 0.35400
# Poissons Ratio (y) = 0.03662 0.35400
# Poissons Ratio (z) = 0.43472 0.43472
#
# Static dielectric constant tensor:
#      x y z
#    x 1.850440 0.000000 0.000000 
#    y 0.000000 1.850440 0.000000 
#    z 0.000000 0.000000 1.715340 
# 
# From -- ./inp_files/6653.got.cif
#   From: 2010.05.17/outbox.cif.g08.bks.cpg/sg135_4_cif.got.tgz:6653.got - 2010.05.20 12:50:20.
