data_PCOD9568151
_publ_section_title
;
Structure prediction by ZEFSAII (Michael W. Deem and Ramdas Pophale) SiO2 
 PCOD9568151
Probable space group: P 42/N N M
;
_chemical_formula_sum "Si O2"
_cell_formula_units_Z 96
_cell_length_a 18.195534
_cell_length_b 18.195534
_cell_length_c 13.496925
_cell_angle_alpha 90.000000
_cell_angle_beta 90.000000
_cell_angle_gamma 90.000000
_cell_volume 4468.527614
_symmetry_space_group_name_H-M "P 42/N N M"
_symmetry_group_IT_number 134
_space_group.IT_coordinate_system_code '2'
_symmetry_cell_setting 'tetragonal'
loop_
_space_group_symop_operation_xyz
x,y,z
1/2-y,x,1/2+z
1/2-x,1/2-y,z
y,1/2-x,1/2+z
x,1/2-y,1/2-z
1/2-x,y,1/2-z
y,x,-z
1/2-y,1/2-x,-z
-x,-y,-z
1/2+y,-x,1/2-z
1/2+x,1/2+y,-z
-y,1/2+x,1/2-z
-x,1/2+y,1/2+z
1/2+x,-y,1/2+z
-y,-x,z
1/2+y,1/2+x,z
loop_
_atom_site_type_symbol
_atom_site_label
_atom_site_fract_x
_atom_site_fract_y
_atom_site_fract_z
Si Si1 0.964842 0.769391 0.612862
Si Si2 0.564940 0.945583 0.120660
Si Si3 0.388351 0.777926 0.144963
Si Si4 0.691931 0.684862 0.119227
Si Si5 0.723463 0.945061 0.877467
Si Si6 0.867353 0.250087 0.415675
O O1 0.970340 0.853196 0.649730
O O2 0.895752 0.720678 0.650866
O O3 0.943648 0.778336 0.497100
O O4 0.048365 0.740405 0.617729
O O5 0.562892 0.861054 0.154448
O O6 0.501176 0.001176 0.155953
O O7 0.557017 0.942984 0.000000
O O8 0.358193 0.750000 0.250000
O O9 0.363850 0.863850 0.140369
O O10 0.472675 0.756646 0.147730
O O11 0.364822 0.748749 0.036772
O O12 0.750000 0.750000 0.141319
O O13 0.614297 0.716663 0.155426
O O14 0.684108 0.684108 0.000000
O O15 0.827401 0.172600 0.388637
O O16 0.814992 0.314992 0.378616
#
# Coordination Sequence:
#
# PCOD9568151 Si02
#       6
#    16  16  16  16  16  16
#     4   9  15  23  38  59  82 110 137 162 199 252
#     4   9  14  20  33  56  84 107 128 162 205 250
#     4  10  19  30  44  59  76 106 146 183 218 249
#     4   9  14  23  39  59  82 109 138 160 196 251
#     4   9  16  25  38  58  84 103 132 172 208 246
#     4   9  17  28  41  59  84 112 143 179 212 240
#
# _framework density 21.483585999999999
#
# number of rings (size 3 to 8) (size 9 to 14) (size 15 to 20)
#    0.000    2.833    1.667    1.500    0.000    4.833 
#    0.000    0.000    0.000   14.000    0.000    0.000 
#    0.000    0.000    0.000    0.000    0.000    0.167 
#
# Total GULP energy -534438.452008 kJ/mol
# GULP energy per Si atom -5567.067208 kJ/mol
# Density = 2.143469 g / cm^3
# Si number density = 21.483586 Si / 1000 Ang^3
#
#
#
# Elastic Constant Matrix: (Units=GPa)
#
#
# Indices 1 2 3 4 5 6 
#
# 1 166.3026 108.4897 7.8718 0.0000 0.0000 0.0000
# 2 108.4897 166.3025 7.8718 0.0000 0.0000 0.0000
# 3 7.8718 7.8718 66.3697 0.0000 0.0000 0.0000
# 4 0.0000 0.0000 0.0000 -23.8839 0.0000 0.0000
# 5 0.0000 0.0000 0.0000 0.0000 -23.8857 0.0000
# 6 0.0000 0.0000 0.0000 0.0000 0.0000 26.1695
#
#
#
# Elastic Compliance Matrix: (Units=1/GPa)
#
#
# Indices 1 2 3 4 5 6 
#
# 1 0.010481 -0.006817 -0.000435 0.000000 0.000000 0.000000
# 2 -0.006817 0.010481 -0.000435 0.000000 0.000000 0.000000
# 3 -0.000435 -0.000435 0.015170 0.000000 0.000000 0.000000
# 4 0.000000 0.000000 0.000000 -0.041869 0.000000 0.000000
# 5 0.000000 0.000000 0.000000 0.000000 -0.041866 0.000000
# 6 0.000000 0.000000 0.000000 0.000000 0.000000 0.038212
#
#
# Mechanical properties :
#
#
# Convention : Reuss Voigt Hill
#
# Bulk Modulus (GPa) = 48.16970 71.93793 60.05382
# Shear Modulus (GPa) = 387.59899 13.99609 200.79754
#
# Velocity S-wave (km/s) = 13.44649 2.55518 9.67825
# Velocity P-wave (km/s) = 16.23415 6.50100 12.36549
#
# Compressibility (1/GPa) = 0.02075994
#
# Stress axis : x y z
#
# Youngs Moduli (GPa) = 95.41442 95.41435 65.91870
#
# Poissons Ratio (x) = 0.65040 0.02865
# Poissons Ratio (y) = 0.65040 0.02865
# Poissons Ratio (z) = 0.04146 0.04146
#
# Static dielectric constant tensor:
#      x y z
#    x 1.785950 0.000000 0.000000 
#    y 0.000000 1.785950 0.000000 
#    z 0.000000 0.000000 1.853100 
# 
# From -- ./inp_files/7919.got.cif
#   From: 2010.05.17/outbox.cif.g08.bks.cpg/sg134_4_cif.got.tgz:7919.got - 2010.05.20 12:42:49.
