data_PCOD9568297
_publ_section_title
;
Structure prediction by ZEFSAII (Michael W. Deem and Ramdas Pophale) SiO2 
 PCOD9568297
Probable space group: P 42/N N M
;
_chemical_formula_sum "Si O2"
_cell_formula_units_Z 88
_cell_length_a 14.239954
_cell_length_b 14.239954
_cell_length_c 24.410572
_cell_angle_alpha 90.000000
_cell_angle_beta 90.000000
_cell_angle_gamma 90.000000
_cell_volume 4949.885225
_symmetry_space_group_name_H-M "P 42/N N M"
_symmetry_group_IT_number 134
_space_group.IT_coordinate_system_code '2'
_symmetry_cell_setting 'tetragonal'
loop_
_space_group_symop_operation_xyz
x,y,z
1/2-y,x,1/2+z
1/2-x,1/2-y,z
y,1/2-x,1/2+z
x,1/2-y,1/2-z
1/2-x,y,1/2-z
y,x,-z
1/2-y,1/2-x,-z
-x,-y,-z
1/2+y,-x,1/2-z
1/2+x,1/2+y,-z
-y,1/2+x,1/2-z
-x,1/2+y,1/2+z
1/2+x,-y,1/2+z
-y,-x,z
1/2+y,1/2+x,z
loop_
_atom_site_type_symbol
_atom_site_label
_atom_site_fract_x
_atom_site_fract_y
_atom_site_fract_z
Si Si1 0.499420 0.147729 0.746488
Si Si2 0.004787 0.278236 0.362289
Si Si3 0.326774 0.826774 0.566945
Si Si4 0.162383 0.181202 0.666505
Si Si5 0.750000 0.404215 0.250000
Si Si6 0.059190 0.350860 0.621216
Si Si7 0.570779 0.429222 0.968783
O O1 0.546956 0.250000 0.750000
O O2 0.404210 0.157075 0.781971
O O3 0.480169 0.133432 0.682416
O O4 0.564858 0.064858 0.767686
O O5 0.083612 0.196841 0.359595
O O6 0.065561 0.365612 0.383758
O O7 0.910349 0.277935 0.397909
O O8 0.967902 0.285558 0.299856
O O9 0.250000 0.750000 0.553203
O O10 0.372626 0.872626 0.513851
O O11 0.250000 0.250000 0.682361
O O12 0.105630 0.248090 0.624828
O O13 0.835092 0.335092 0.232219
O O14 0.987596 0.362480 0.572039
O O15 0.500000 0.500000 0.000000
#
# Coordination Sequence:
#
# PCOD9568297 Si02
#       7
#    16  16   8  16   8  16   8
#     4  10  20  34  56  89 126 162 204 252 315 377
#     4  11  20  36  59  87 127 166 200 255 307 381
#     4  12  26  42  62  92 126 164 216 264 323 370
#     4   9  21  37  60  95 133 167 201 252 321 388
#     4  11  22  32  49  86 134 176 207 236 313 394
#     4  10  20  37  62  90 114 158 217 262 303 364
#     4  12  22  42  68  86 112 168 224 272 307 362
#
# _framework density 17.778189000000001
#
# number of rings (size 3 to 8) (size 9 to 14) (size 15 to 20)
#    0.000    1.545    3.636    1.636    0.000   12.182 
#    0.000    4.545    0.000    1.091    0.000    0.000 
#    0.000    0.000    0.000    0.000    0.000    0.000 
#
# Total GULP energy -490686.657192 kJ/mol
# GULP energy per Si atom -5575.984741 kJ/mol
# Density = 1.773773 g / cm^3
# Si number density = 17.778189 Si / 1000 Ang^3
#
#
#
# Elastic Constant Matrix: (Units=GPa)
#
#
# Indices 1 2 3 4 5 6 
#
# 1 102.0568 60.8424 49.3826 0.0000 0.0000 0.0000
# 2 60.8424 102.0568 49.3826 0.0000 0.0000 0.0000
# 3 49.3826 49.3826 108.2477 0.0000 0.0000 0.0000
# 4 0.0000 0.0000 0.0000 26.8985 0.0000 0.0000
# 5 0.0000 0.0000 0.0000 0.0000 26.8985 0.0000
# 6 0.0000 0.0000 0.0000 0.0000 0.0000 26.6303
#
#
#
# Elastic Compliance Matrix: (Units=1/GPa)
#
#
# Indices 1 2 3 4 5 6 
#
# 1 0.016375 -0.007889 -0.003871 0.000000 0.000000 0.000000
# 2 -0.007889 0.016375 -0.003871 0.000000 0.000000 0.000000
# 3 -0.003871 -0.003871 0.012770 0.000000 0.000000 0.000000
# 4 0.000000 0.000000 0.000000 0.037177 0.000000 0.000000
# 5 0.000000 0.000000 0.000000 0.000000 0.037177 0.000000
# 6 0.000000 0.000000 0.000000 0.000000 0.000000 0.037551
#
#
# Mechanical properties :
#
#
# Convention : Reuss Voigt Hill
#
# Bulk Modulus (GPa) = 70.14124 70.17516 70.15820
# Shear Modulus (GPa) = 25.84790 26.26901 26.05846
#
# Velocity S-wave (km/s) = 3.81715 3.84812 3.83267
# Velocity P-wave (km/s) = 7.67898 7.70080 7.68990
#
# Compressibility (1/GPa) = 0.01425695
#
# Stress axis : x y z
#
# Youngs Moduli (GPa) = 61.07003 61.07003 78.30711
#
# Poissons Ratio (x) = 0.48177 0.30315
# Poissons Ratio (y) = 0.48177 0.30315
# Poissons Ratio (z) = 0.23642 0.23642
#
# Static dielectric constant tensor:
#      x y z
#    x 1.638710 0.000000 0.000000 
#    y 0.000000 1.638710 0.000000 
#    z 0.000000 0.000000 1.576130 
# 
# From -- ./inp_files/9070.got.cif
#   From: 2010.05.17/outbox.cif.g08.bks.cpg/sg134_5_cif.got.tgz:9070.got - 2010.05.20 12:42:49.
