data_PCOD9568185
_publ_section_title
;
Structure prediction by ZEFSAII (Michael W. Deem and Ramdas Pophale) SiO2 
 PCOD9568185
Probable space group: P 42/N N M
;
_chemical_formula_sum "Si O2"
_cell_formula_units_Z 112
_cell_length_a 15.993795
_cell_length_b 15.993795
_cell_length_c 23.977737
_cell_angle_alpha 90.000000
_cell_angle_beta 90.000000
_cell_angle_gamma 90.000000
_cell_volume 6133.540576
_symmetry_space_group_name_H-M "P 42/N N M"
_symmetry_group_IT_number 134
_space_group.IT_coordinate_system_code '2'
_symmetry_cell_setting 'tetragonal'
loop_
_space_group_symop_operation_xyz
x,y,z
1/2-y,x,1/2+z
1/2-x,1/2-y,z
y,1/2-x,1/2+z
x,1/2-y,1/2-z
1/2-x,y,1/2-z
y,x,-z
1/2-y,1/2-x,-z
-x,-y,-z
1/2+y,-x,1/2-z
1/2+x,1/2+y,-z
-y,1/2+x,1/2-z
-x,1/2+y,1/2+z
1/2+x,-y,1/2+z
-y,-x,z
1/2+y,1/2+x,z
loop_
_atom_site_type_symbol
_atom_site_label
_atom_site_fract_x
_atom_site_fract_y
_atom_site_fract_z
Si Si1 0.332765 0.530546 0.891642
Si Si2 0.914540 0.557478 0.832539
Si Si3 0.376963 0.019541 0.043981
Si Si4 0.051205 0.692163 0.804630
Si Si5 0.665215 0.475206 0.767995
Si Si6 0.960899 0.896835 0.120549
Si Si7 0.692023 0.447296 0.977089
O O1 0.401132 0.598869 0.873874
O O2 0.249925 0.554475 0.859041
O O3 0.370457 0.439661 0.877270
O O4 0.323245 0.536342 0.957909
O O5 0.875073 0.559988 0.894080
O O6 0.852022 0.538839 0.782281
O O7 0.979807 0.479807 0.834610
O O8 0.969717 0.635872 0.814280
O O9 0.449887 0.949887 0.043074
O O10 0.290536 0.968323 0.032639
O O11 0.409053 0.090948 0.000000
O O12 0.045991 0.750000 0.750000
O O13 0.130292 0.630292 0.800037
O O14 0.750000 0.430980 0.750000
O O15 0.591386 0.408615 0.769508
O O16 0.663513 0.520083 0.827713
O O17 0.985814 0.854295 0.062529
O O18 0.026468 0.973533 0.125596
O O19 0.643133 0.356868 0.965048
#
# Coordination Sequence:
#
# PCOD9568185 Si02
#       7
#    16  16  16  16  16  16  16
#     4  10  20  34  54  79 108 142 179 223 277 336
#     4   9  19  35  53  74 103 143 186 218 256 325
#     4  10  20  35  55  79 112 154 192 227 278 346
#     4  11  22  36  56  82 112 146 184 228 277 331
#     4  10  19  32  53  78 103 132 167 213 268 324
#     4   9  18  34  54  76 103 139 182 223 270 330
#     4  10  20  34  56  84 110 140 186 243 289 330
#
# _framework density 18.260252999999999
#
# number of rings (size 3 to 8) (size 9 to 14) (size 15 to 20)
#    0.000    2.143    0.000    3.429    0.000    7.143 
#    0.000    1.429    0.000   20.143    0.000    0.000 
#    0.000    0.000    0.000    0.000    0.000    0.000 
#
# Total GULP energy -623536.940479 kJ/mol
# GULP energy per Si atom -5567.294111 kJ/mol
# Density = 1.821869 g / cm^3
# Si number density = 18.260253 Si / 1000 Ang^3
#
#
#
# Elastic Constant Matrix: (Units=GPa)
#
#
# Indices 1 2 3 4 5 6 
#
# 1 30.4901 50.1663 23.1959 0.0000 0.0000 0.0000
# 2 50.1663 30.4878 23.1971 0.0000 0.0000 0.0000
# 3 23.1959 23.1971 87.6699 0.0000 0.0000 0.0000
# 4 0.0000 0.0000 0.0000 20.0014 0.0000 0.0000
# 5 0.0000 0.0000 0.0000 0.0000 20.0013 0.0000
# 6 0.0000 0.0000 0.0000 0.0000 0.0000 15.4055
#
#
#
# Elastic Compliance Matrix: (Units=1/GPa)
#
#
# Indices 1 2 3 4 5 6 
#
# 1 -0.018097 0.032722 -0.003870 0.000000 0.000000 0.000000
# 2 0.032722 -0.018099 -0.003869 0.000000 0.000000 0.000000
# 3 -0.003870 -0.003869 0.013454 0.000000 0.000000 0.000000
# 4 0.000000 0.000000 0.000000 0.049997 0.000000 0.000000
# 5 0.000000 0.000000 0.000000 0.000000 0.049997 0.000000
# 6 0.000000 0.000000 0.000000 0.000000 0.000000 0.064912
#
#
# Mechanical properties :
#
#
# Convention : Reuss Voigt Hill
#
# Bulk Modulus (GPa) = 36.73130 37.97403 37.35267
# Shear Modulus (GPa) = 49.37198 14.55420 31.96309
#
# Velocity S-wave (km/s) = 5.20544 2.82626 4.18834
# Velocity P-wave (km/s) = 7.50253 5.61172 6.62493
#
# Compressibility (1/GPa) = 0.02722474
#
# Stress axis : x y z
#
# Youngs Moduli (GPa) = -55.25836 -55.25183 74.32725
#
# Poissons Ratio (x) = 1.80795 0.28765
# Poissons Ratio (y) = 1.80816 0.28756
# Poissons Ratio (z) = -0.21385 -0.21376
#
# Static dielectric constant tensor:
#      x y z
#    x 1.651330 0.000000 0.000000 
#    y 0.000000 1.651330 0.000000 
#    z 0.000000 0.000000 1.629940 
# 
# From -- ./inp_files/10118.got.cif
#   From: 2010.05.17/outbox.cif.g08.bks.cpg/sg134_6_cif.got.tgz:10118.got - 2010.05.20 12:42:49.
