data_PCOD9568420
_publ_section_title
;
Structure prediction by ZEFSAII (Michael W. Deem and Ramdas Pophale) SiO2 
 PCOD9568420
Probable space group: P 42/N N M
;
_chemical_formula_sum "Si O2"
_cell_formula_units_Z 64
_cell_length_a 11.541756
_cell_length_b 11.541756
_cell_length_c 22.262868
_cell_angle_alpha 90.000000
_cell_angle_beta 90.000000
_cell_angle_gamma 90.000000
_cell_volume 2965.684101
_symmetry_space_group_name_H-M "P 42/N N M"
_symmetry_group_IT_number 134
_space_group.IT_coordinate_system_code '2'
_symmetry_cell_setting 'tetragonal'
loop_
_space_group_symop_operation_xyz
x,y,z
1/2-y,x,1/2+z
1/2-x,1/2-y,z
y,1/2-x,1/2+z
x,1/2-y,1/2-z
1/2-x,y,1/2-z
y,x,-z
1/2-y,1/2-x,-z
-x,-y,-z
1/2+y,-x,1/2-z
1/2+x,1/2+y,-z
-y,1/2+x,1/2-z
-x,1/2+y,1/2+z
1/2+x,-y,1/2+z
-y,-x,z
1/2+y,1/2+x,z
loop_
_atom_site_type_symbol
_atom_site_label
_atom_site_fract_x
_atom_site_fract_y
_atom_site_fract_z
Si Si1 0.186388 0.010708 0.520855
Si Si2 0.352750 0.181635 0.686789
Si Si3 0.056075 0.748049 0.846502
Si Si4 0.064685 0.746718 0.105195
O O1 0.132003 0.132003 0.500000
O O2 0.238977 0.999529 0.586774
O O3 0.261373 0.970285 0.464343
O O4 0.081365 0.918636 0.523854
O O5 0.250000 0.250000 0.654288
O O6 0.368499 0.250000 0.750000
O O7 0.464743 0.209300 0.648296
O O8 0.306616 0.049551 0.691189
O O9 0.158441 0.841560 0.846943
O O10 0.124577 0.624577 0.831613
O O11 0.169317 0.830684 0.117856
O O12 0.114883 0.614883 0.113465
#
# Coordination Sequence:
#
# PCOD9568420 Si02
#       4
#    16  16  16  16
#     4   9  17  32  59  95 134 171 205 252 318 387
#     4  11  25  43  62  86 120 166 218 272 324 383
#     4  10  21  40  67  97 129 167 216 273 332 396
#     4  10  21  38  62  94 131 168 207 254 312 382
#
# _framework density 21.580183000000002
#
# number of rings (size 3 to 8) (size 9 to 14) (size 15 to 20)
#    0.000    2.000    0.000    3.000    0.000    9.000 
#    0.000   13.750    0.000    6.000    0.000    0.000 
#    0.000    0.000    0.000    0.000    0.000    0.000 
#
# Total GULP energy -356332.015142 kJ/mol
# GULP energy per Si atom -5567.687737 kJ/mol
# Density = 2.153107 g / cm^3
# Si number density = 21.580183 Si / 1000 Ang^3
#
#
#
# Elastic Constant Matrix: (Units=GPa)
#
#
# Indices 1 2 3 4 5 6 
#
# 1 123.2325 40.5968 54.6722 0.0000 0.0000 0.0000
# 2 40.5968 123.2325 54.6722 0.0000 0.0000 0.0000
# 3 54.6722 54.6722 120.2749 0.0000 0.0000 0.0000
# 4 0.0000 0.0000 0.0000 30.9176 0.0000 0.0000
# 5 0.0000 0.0000 0.0000 0.0000 30.9176 0.0000
# 6 0.0000 0.0000 0.0000 0.0000 0.0000 26.3921
#
#
#
# Elastic Compliance Matrix: (Units=1/GPa)
#
#
# Indices 1 2 3 4 5 6 
#
# 1 0.010432 -0.001670 -0.003983 0.000000 0.000000 0.000000
# 2 -0.001670 0.010432 -0.003983 0.000000 0.000000 0.000000
# 3 -0.003983 -0.003983 0.011935 0.000000 0.000000 0.000000
# 4 0.000000 0.000000 0.000000 0.032344 0.000000 0.000000
# 5 0.000000 0.000000 0.000000 0.000000 0.032344 0.000000
# 6 0.000000 0.000000 0.000000 0.000000 0.000000 0.037890
#
#
# Mechanical properties :
#
#
# Convention : Reuss Voigt Hill
#
# Bulk Modulus (GPa) = 73.92122 74.06915 73.99518
# Shear Modulus (GPa) = 31.41548 32.09872 31.75710
#
# Velocity S-wave (km/s) = 3.81958 3.86089 3.84029
# Velocity P-wave (km/s) = 7.33354 7.36699 7.35028
#
# Compressibility (1/GPa) = 0.01352791
#
# Stress axis : x y z
#
# Youngs Moduli (GPa) = 95.86077 95.86077 83.78506
#
# Poissons Ratio (x) = 0.16004 0.33371
# Poissons Ratio (y) = 0.16004 0.33371
# Poissons Ratio (z) = 0.38181 0.38181
#
# Static dielectric constant tensor:
#      x y z
#    x 1.598780 0.000000 0.000000 
#    y 0.000000 1.598780 0.000000 
#    z 0.000000 0.000000 1.817890 
# 
# From -- ./inp_files/8710.got.cif
#   From: 2010.05.17/outbox.cif.g08.bks.cpg/sg134_5_cif.got.tgz:8710.got - 2010.05.20 12:42:49.
