data_PCOD9568007
_publ_section_title
;
Structure prediction by ZEFSAII (Michael W. Deem and Ramdas Pophale) SiO2 
 PCOD9568007
Probable space group: P 42/N B C
;
_chemical_formula_sum "Si O2"
_cell_formula_units_Z 64
_cell_length_a 13.931369
_cell_length_b 13.931369
_cell_length_c 14.933196
_cell_angle_alpha 90.000000
_cell_angle_beta 90.000000
_cell_angle_gamma 90.000000
_cell_volume 2898.280110
_symmetry_space_group_name_H-M "P 42/N B C"
_symmetry_group_IT_number 133
_space_group.IT_coordinate_system_code '2'
_symmetry_cell_setting 'tetragonal'
loop_
_space_group_symop_operation_xyz
x,y,z
1/2-y,x,1/2+z
1/2-x,1/2-y,z
y,1/2-x,1/2+z
x,1/2-y,-z
1/2-x,y,-z
y,x,1/2-z
1/2-y,1/2-x,1/2-z
-x,-y,-z
1/2+y,-x,1/2-z
1/2+x,1/2+y,-z
-y,1/2+x,1/2-z
-x,1/2+y,z
1/2+x,-y,z
-y,-x,1/2+z
1/2+y,1/2+x,1/2+z
loop_
_atom_site_type_symbol
_atom_site_label
_atom_site_fract_x
_atom_site_fract_y
_atom_site_fract_z
Si Si1 0.492444 0.103542 0.873546
Si Si2 0.352082 0.218617 0.152370
Si Si3 0.653750 0.364307 0.265439
Si Si4 0.020938 0.612699 0.929051
O O1 0.414809 0.183134 0.844092
O O2 0.569310 0.093119 0.794648
O O3 0.456108 0.997696 0.902561
O O4 0.539238 0.135272 0.967974
O O5 0.250000 0.250000 0.113541
O O6 0.327885 0.172116 0.250000
O O7 0.411268 0.142284 0.093649
O O8 0.754015 0.368849 0.213820
O O9 0.671278 0.419010 0.357136
#
# Coordination Sequence:
#
# PCOD9568007 Si02
#       4
#    16  16  16  16
#     4  11  25  44  68 103 142 190 237 297 367 438
#     4  11  25  43  71 106 142 194 241 301 366 442
#     4  11  24  41  69  98 132 185 237 299 361 425
#     4  11  25  44  70 101 144 185 239 300 361 442
#
# _framework density 22.082063000000002
#
# number of rings (size 3 to 8) (size 9 to 14) (size 15 to 20)
#    0.000    1.000    2.500    3.000    7.000    3.000 
#    0.000    7.500    0.000    0.000    0.000    0.000 
#    0.000    0.000    0.000    0.000    0.000    0.000 
#
# Total GULP energy -357533.820414 kJ/mol
# GULP energy per Si atom -5586.465944 kJ/mol
# Density = 2.203180 g / cm^3
# Si number density = 22.082063 Si / 1000 Ang^3
#
#
#
# Elastic Constant Matrix: (Units=GPa)
#
#
# Indices 1 2 3 4 5 6 
#
# 1 76.0156 26.5005 25.3988 0.0000 0.0000 0.0000
# 2 26.5005 76.0158 25.3988 0.0000 0.0000 0.0000
# 3 25.3988 25.3988 138.1169 0.0000 0.0000 0.0000
# 4 0.0000 0.0000 0.0000 -1.9238 0.0000 0.0000
# 5 0.0000 0.0000 0.0000 0.0000 -1.9237 0.0000
# 6 0.0000 0.0000 0.0000 0.0000 0.0000 35.1489
#
#
#
# Elastic Compliance Matrix: (Units=1/GPa)
#
#
# Indices 1 2 3 4 5 6 
#
# 1 0.015464 -0.004732 -0.001974 0.000000 0.000000 0.000000
# 2 -0.004732 0.015464 -0.001974 0.000000 0.000000 0.000000
# 3 -0.001974 -0.001974 0.007966 0.000000 0.000000 0.000000
# 4 0.000000 0.000000 0.000000 -0.519810 0.000000 0.000000
# 5 0.000000 0.000000 0.000000 0.000000 -0.519838 0.000000
# 6 0.000000 0.000000 0.000000 0.000000 0.000000 0.028450
#
#
# Mechanical properties :
#
#
# Convention : Reuss Voigt Hill
#
# Bulk Modulus (GPa) = 46.43260 49.41603 47.92432
# Shear Modulus (GPa) = -5.27557 20.45030 7.58737
#
# Velocity S-wave (km/s) = -1.54734 3.04650 1.85565
# Velocity P-wave (km/s) = 4.22855 5.89931 5.13237
#
# Compressibility (1/GPa) = 0.02153659
#
# Stress axis : x y z
#
# Youngs Moduli (GPa) = 64.66554 64.66571 125.53159
#
# Poissons Ratio (x) = 0.30598 0.24775
# Poissons Ratio (y) = 0.30598 0.24775
# Poissons Ratio (z) = 0.12763 0.12763
#
# Static dielectric constant tensor:
#      x y z
#    x 1.860370 0.000000 0.000000 
#    y 0.000000 1.860370 0.000000 
#    z 0.000000 0.000000 1.814110 
# 
# From -- ./inp_files/4161.got.cif
#   From: 2010.05.17/outbox.cif.g08.bks.cpg/sg133_3_cif.got.tgz:4161.got - 2010.05.20 12:37:36.
