data_PCOD9568106
_publ_section_title
;
Structure prediction by ZEFSAII (Michael W. Deem and Ramdas Pophale) SiO2 
 PCOD9568106
Probable space group: P 42/N N M
;
_chemical_formula_sum "Si O2"
_cell_formula_units_Z 64
_cell_length_a 21.917997
_cell_length_b 21.917997
_cell_length_c 8.037551
_cell_angle_alpha 90.000000
_cell_angle_beta 90.000000
_cell_angle_gamma 90.000000
_cell_volume 3861.228187
_symmetry_space_group_name_H-M "P 42/N N M"
_symmetry_group_IT_number 134
_space_group.IT_coordinate_system_code '2'
_symmetry_cell_setting 'tetragonal'
loop_
_space_group_symop_operation_xyz
x,y,z
1/2-y,x,1/2+z
1/2-x,1/2-y,z
y,1/2-x,1/2+z
x,1/2-y,1/2-z
1/2-x,y,1/2-z
y,x,-z
1/2-y,1/2-x,-z
-x,-y,-z
1/2+y,-x,1/2-z
1/2+x,1/2+y,-z
-y,1/2+x,1/2-z
-x,1/2+y,1/2+z
1/2+x,-y,1/2+z
-y,-x,z
1/2+y,1/2+x,z
loop_
_atom_site_type_symbol
_atom_site_label
_atom_site_fract_x
_atom_site_fract_y
_atom_site_fract_z
Si Si1 0.624730 0.967203 0.163483
Si Si2 0.662260 0.557662 0.984349
Si Si3 0.277199 0.365923 0.572024
Si Si4 0.996433 0.101017 0.686566
O O1 0.653336 0.981316 0.344800
O O2 0.666054 0.910713 0.103948
O O3 0.554923 0.945084 0.184411
O O4 0.624803 0.010928 0.002840
O O5 0.725232 0.595411 0.977772
O O6 0.609267 0.609267 0.000000
O O7 0.650570 0.517101 0.822070
O O8 0.250000 0.351211 0.750000
O O9 0.304497 0.304497 0.500000
O O10 0.937736 0.062265 0.737673
#
# Coordination Sequence:
#
# PCOD9568106 Si02
#       4
#    16  16  16  16
#     4   9  17  32  46  66  86 115 156 202 247 295
#     4   9  20  32  45  66  92 118 160 206 250 299
#     4  10  19  35  51  65  93 129 172 213 256 292
#     4  10  18  30  49  68  87 115 154 209 260 298
#
# _framework density 16.575036999999998
#
# number of rings (size 3 to 8) (size 9 to 14) (size 15 to 20)
#    0.000    2.500    2.500    1.500    0.000    7.000 
#    0.000    6.250    0.000    0.000    0.000    0.000 
#    0.000    0.000    0.000    0.000    0.000   21.250 
#
# Total GULP energy -356325.165529 kJ/mol
# GULP energy per Si atom -5567.580711 kJ/mol
# Density = 1.653731 g / cm^3
# Si number density = 16.575037 Si / 1000 Ang^3
#
#
#
# Elastic Constant Matrix: (Units=GPa)
#
#
# Indices 1 2 3 4 5 6 
#
# 1 32.2778 48.4146 35.0583 0.0000 0.0000 0.0000
# 2 48.4146 32.2778 35.0583 0.0000 0.0000 0.0000
# 3 35.0583 35.0583 104.5467 0.0000 0.0000 0.0000
# 4 0.0000 0.0000 0.0000 30.3464 0.0000 0.0000
# 5 0.0000 0.0000 0.0000 0.0000 30.3464 0.0000
# 6 0.0000 0.0000 0.0000 0.0000 0.0000 22.0514
#
#
#
# Elastic Compliance Matrix: (Units=1/GPa)
#
#
# Indices 1 2 3 4 5 6 
#
# 1 -0.022241 0.039729 -0.005865 0.000000 0.000000 0.000000
# 2 0.039729 -0.022241 -0.005865 0.000000 0.000000 0.000000
# 3 -0.005865 -0.005865 0.013498 0.000000 0.000000 0.000000
# 4 0.000000 0.000000 0.000000 0.032953 0.000000 0.000000
# 5 0.000000 0.000000 0.000000 0.000000 0.032953 0.000000
# 6 0.000000 0.000000 0.000000 0.000000 0.000000 0.045349
#
#
# Mechanical properties :
#
#
# Convention : Reuss Voigt Hill
#
# Bulk Modulus (GPa) = 39.97225 45.12942 42.55083
# Shear Modulus (GPa) = 153.32567 19.92023 86.62295
#
# Velocity S-wave (km/s) = 9.62833 3.47049 7.23703
# Velocity P-wave (km/s) = 12.15626 6.58373 9.77548
#
# Compressibility (1/GPa) = 0.02501736
#
# Stress axis : x y z
#
# Youngs Moduli (GPa) = -44.96281 -44.96281 74.08318
#
# Poissons Ratio (x) = 1.78634 0.43447
# Poissons Ratio (y) = 1.78634 0.43447
# Poissons Ratio (z) = -0.26369 -0.26369
#
# Static dielectric constant tensor:
#      x y z
#    x 1.595890 0.000000 0.000000 
#    y 0.000000 1.595890 0.000000 
#    z 0.000000 0.000000 1.684870 
# 
# From -- ./inp_files/2754.got.cif
#   From: 2010.05.17/outbox.cif.g08.bks.cpg/sg134_2_cif.got.tgz:2754.got - 2010.05.20 12:42:49.
