data_PCOD9568366
_publ_section_title
;
Structure prediction by ZEFSAII (Michael W. Deem and Ramdas Pophale) SiO2 
 PCOD9568366
Probable space group: P 42/N N M
;
_chemical_formula_sum "Si O2"
_cell_formula_units_Z 96
_cell_length_a 22.568010
_cell_length_b 22.568010
_cell_length_c 9.631348
_cell_angle_alpha 90.000000
_cell_angle_beta 90.000000
_cell_angle_gamma 90.000000
_cell_volume 4905.390732
_symmetry_space_group_name_H-M "P 42/N N M"
_symmetry_group_IT_number 134
_space_group.IT_coordinate_system_code '2'
_symmetry_cell_setting 'tetragonal'
loop_
_space_group_symop_operation_xyz
x,y,z
1/2-y,x,1/2+z
1/2-x,1/2-y,z
y,1/2-x,1/2+z
x,1/2-y,1/2-z
1/2-x,y,1/2-z
y,x,-z
1/2-y,1/2-x,-z
-x,-y,-z
1/2+y,-x,1/2-z
1/2+x,1/2+y,-z
-y,1/2+x,1/2-z
-x,1/2+y,1/2+z
1/2+x,-y,1/2+z
-y,-x,z
1/2+y,1/2+x,z
loop_
_atom_site_type_symbol
_atom_site_label
_atom_site_fract_x
_atom_site_fract_y
_atom_site_fract_z
Si Si1 0.931241 0.331143 0.023219
Si Si2 0.188653 0.310373 0.169376
Si Si3 0.475552 0.878441 0.693105
Si Si4 0.385966 0.395009 0.153371
Si Si5 0.506074 0.182938 0.746785
Si Si6 0.196792 0.898603 0.023077
O O1 0.880193 0.380193 0.010387
O O2 0.965383 0.342478 0.165655
O O3 0.902285 0.265826 0.014775
O O4 0.978940 0.336880 0.901047
O O5 0.170339 0.250000 0.250000
O O6 0.250000 0.325636 0.250000
O O7 0.142024 0.359109 0.218750
O O8 0.194607 0.305393 0.000000
O O9 0.439853 0.939853 0.704380
O O10 0.543477 0.890953 0.661761
O O11 0.441802 0.839271 0.579152
O O12 0.360300 0.461068 0.169814
O O13 0.369784 0.369784 0.000000
O O14 0.480930 0.250000 0.750000
O O15 0.569424 0.187816 0.670503
O O16 0.165175 0.834826 0.018453
#
# Coordination Sequence:
#
# PCOD9568366 Si02
#       6
#    16  16  16  16  16  16
#     4  10  22  39  60  90 126 162 200 257 325 384
#     4  11  24  43  67  95 132 168 208 261 315 363
#     4  10  23  40  60  88 124 161 206 259 315 372
#     4  12  24  41  64  93 120 167 219 258 311 381
#     4  10  22  39  61  88 126 159 204 262 316 369
#     4  10  20  39  63  89 121 163 207 256 311 377
#
# _framework density 19.570307
#
# number of rings (size 3 to 8) (size 9 to 14) (size 15 to 20)
#    0.000    1.500    1.667    3.500    2.333    3.333 
#    0.000    1.667    0.000    6.000    0.000    0.000 
#    0.000    0.000    0.000    0.000    0.000    0.000 
#
# Total GULP energy -535767.724204 kJ/mol
# GULP energy per Si atom -5580.913794 kJ/mol
# Density = 1.952576 g / cm^3
# Si number density = 19.570307 Si / 1000 Ang^3
#
#
#
# Elastic Constant Matrix: (Units=GPa)
#
#
# Indices 1 2 3 4 5 6 
#
# 1 203.3225 -118.3246 18.8747 0.0000 0.0000 0.0000
# 2 -118.3246 203.3258 18.8796 0.0000 0.0000 0.0000
# 3 18.8747 18.8796 134.7200 0.0000 0.0000 0.0000
# 4 0.0000 0.0000 0.0000 39.1441 0.0000 0.0000
# 5 0.0000 0.0000 0.0000 0.0000 39.1446 0.0000
# 6 0.0000 0.0000 0.0000 0.0000 0.0000 -5.3323
#
#
#
# Elastic Compliance Matrix: (Units=1/GPa)
#
#
# Indices 1 2 3 4 5 6 
#
# 1 0.007827 0.004718 -0.001758 0.000000 0.000000 0.000000
# 2 0.004718 0.007827 -0.001758 0.000000 0.000000 0.000000
# 3 -0.001758 -0.001758 0.007915 0.000000 0.000000 0.000000
# 4 0.000000 0.000000 0.000000 0.025547 0.000000 0.000000
# 5 0.000000 0.000000 0.000000 0.000000 0.025546 0.000000
# 6 0.000000 0.000000 0.000000 0.000000 0.000000 -0.187535
#
#
# Mechanical properties :
#
#
# Convention : Reuss Voigt Hill
#
# Bulk Modulus (GPa) = 38.49859 42.24752 40.37306
# Shear Modulus (GPa) = -46.89585 56.05386 4.57901
#
# Velocity S-wave (km/s) = -4.90049 5.35766 1.53129
# Velocity P-wave (km/s) = 3.50786 7.73997 4.87863
#
# Compressibility (1/GPa) = 0.02597498
#
# Stress axis : x y z
#
# Youngs Moduli (GPa) = 127.75771 127.75897 126.33533
#
# Poissons Ratio (x) = -0.60280 0.22208
# Poissons Ratio (y) = -0.60280 0.22209
# Poissons Ratio (z) = 0.22458 0.22459
#
# Static dielectric constant tensor:
#      x y z
#    x 1.676370 0.000000 0.000000 
#    y 0.000000 1.676370 0.000000 
#    z 0.000000 0.000000 1.476830 
# 
# From -- ./inp_files/3176.got.cif
#   From: 2010.05.17/outbox.cif.g08.bks.cpg/sg134_2_cif.got.tgz:3176.got - 2010.05.20 12:42:49.
