data_PCOD9568168
_publ_section_title
;
Structure prediction by ZEFSAII (Michael W. Deem and Ramdas Pophale) SiO2 
 PCOD9568168
Probable space group: P 42/N N M
;
_chemical_formula_sum "Si O2"
_cell_formula_units_Z 96
_cell_length_a 27.173932
_cell_length_b 27.173932
_cell_length_c 8.529018
_cell_angle_alpha 90.000000
_cell_angle_beta 90.000000
_cell_angle_gamma 90.000000
_cell_volume 6298.019479
_symmetry_space_group_name_H-M "P 42/N N M"
_symmetry_group_IT_number 134
_space_group.IT_coordinate_system_code '2'
_symmetry_cell_setting 'tetragonal'
loop_
_space_group_symop_operation_xyz
x,y,z
1/2-y,x,1/2+z
1/2-x,1/2-y,z
y,1/2-x,1/2+z
x,1/2-y,1/2-z
1/2-x,y,1/2-z
y,x,-z
1/2-y,1/2-x,-z
-x,-y,-z
1/2+y,-x,1/2-z
1/2+x,1/2+y,-z
-y,1/2+x,1/2-z
-x,1/2+y,1/2+z
1/2+x,-y,1/2+z
-y,-x,z
1/2+y,1/2+x,z
loop_
_atom_site_type_symbol
_atom_site_label
_atom_site_fract_x
_atom_site_fract_y
_atom_site_fract_z
Si Si1 0.471634 0.395036 0.661800
Si Si2 0.226148 0.074265 0.903318
Si Si3 0.300651 0.317259 0.827087
Si Si4 0.999974 0.081892 0.328189
Si Si5 0.114549 0.183393 0.605374
Si Si6 0.462989 0.377408 0.003275
O O1 0.501022 0.390179 0.497120
O O2 0.451207 0.450600 0.663017
O O3 0.426646 0.356508 0.647998
O O4 0.491314 0.387564 0.839144
O O5 0.250000 0.048309 0.750000
O O6 0.201026 0.123555 0.833196
O O7 0.270698 0.090478 0.016306
O O8 0.180603 0.048978 0.989127
O O9 0.250000 0.302261 0.750000
O O10 0.351903 0.302345 0.751805
O O11 0.298127 0.298127 0.000000
O O12 0.008630 0.111183 0.165936
O O13 0.953047 0.046954 0.316119
O O14 0.154919 0.154919 0.500000
O O15 0.413980 0.413980 0.000000
#
# Coordination Sequence:
#
# PCOD9568168 Si02
#       6
#    16  16  16  16  16  16
#     4  10  19  31  50  66  95 111 144 177 237 296
#     4  11  21  34  53  63  83 116 156 195 244 287
#     4  11  23  37  46  57  75 101 142 194 246 289
#     4  10  19  32  51  73  93 113 138 179 240 312
#     4  12  20  37  50  65  84 117 155 198 240 294
#     4  10  21  34  49  68  89 118 147 187 237 304
#
# _framework density 15.242887
#
# number of rings (size 3 to 8) (size 9 to 14) (size 15 to 20)
#    0.000    1.333    5.000    5.500    0.000    6.333 
#    0.000    5.833    0.000    0.000    0.000    0.000 
#    0.000    0.000    0.000    0.000    0.000    0.000 
#
# Total GULP energy -535178.007838 kJ/mol
# GULP energy per Si atom -5574.770915 kJ/mol
# Density = 1.520819 g / cm^3
# Si number density = 15.242887 Si / 1000 Ang^3
#
#
#
# Elastic Constant Matrix: (Units=GPa)
#
#
# Indices 1 2 3 4 5 6 
#
# 1 35.8199 26.1719 25.1237 0.0000 0.0000 0.0000
# 2 26.1719 35.8199 25.1237 0.0000 0.0000 0.0000
# 3 25.1237 25.1237 138.3810 0.0000 0.0000 0.0000
# 4 0.0000 0.0000 0.0000 20.5210 0.0000 0.0000
# 5 0.0000 0.0000 0.0000 0.0000 20.5210 0.0000
# 6 0.0000 0.0000 0.0000 0.0000 0.0000 264.7963
#
#
#
# Elastic Compliance Matrix: (Units=1/GPa)
#
#
# Indices 1 2 3 4 5 6 
#
# 1 0.061281 -0.042367 -0.003434 0.000000 0.000000 0.000000
# 2 -0.042367 0.061281 -0.003434 0.000000 0.000000 0.000000
# 3 -0.003434 -0.003434 0.008473 0.000000 0.000000 0.000000
# 4 0.000000 0.000000 0.000000 0.048731 0.000000 0.000000
# 5 0.000000 0.000000 0.000000 0.000000 0.048731 0.000000
# 6 0.000000 0.000000 0.000000 0.000000 0.000000 0.003776
#
#
# Mechanical properties :
#
#
# Convention : Reuss Voigt Hill
#
# Bulk Modulus (GPa) = 30.70641 40.31770 35.51206
# Shear Modulus (GPa) = 14.63703 70.07442 42.35573
#
# Velocity S-wave (km/s) = 3.10216 6.78761 5.27708
# Velocity P-wave (km/s) = 5.74627 9.37745 7.77677
#
# Compressibility (1/GPa) = 0.03256649
#
# Stress axis : x y z
#
# Youngs Moduli (GPa) = 16.31816 16.31816 118.01700
#
# Poissons Ratio (x) = 0.69135 0.40528
# Poissons Ratio (y) = 0.69135 0.40528
# Poissons Ratio (z) = 0.05604 0.05604
#
# Static dielectric constant tensor:
#      x y z
#    x 1.468360 0.000000 0.000000 
#    y 0.000000 1.468360 0.000000 
#    z 0.000000 0.000000 1.634790 
# 
# From -- ./inp_files/3298.got.cif
#   From: 2010.05.17/outbox.cif.g08.bks.cpg/sg134_2_cif.got.tgz:3298.got - 2010.05.20 12:42:49.
