data_PCOD9568815
_publ_section_title
;
Structure prediction by ZEFSAII (Michael W. Deem and Ramdas Pophale) SiO2 
 PCOD9568815
Probable space group: P 42/M B C
;
_chemical_formula_sum "Si O2"
_cell_formula_units_Z 112
_cell_length_a 13.722850
_cell_length_b 13.722850
_cell_length_c 24.623774
_cell_angle_alpha 90.000000
_cell_angle_beta 90.000000
_cell_angle_gamma 90.000000
_cell_volume 4637.065697
_symmetry_space_group_name_H-M "P 42/M B C"
_symmetry_group_IT_number 135
_symmetry_cell_setting 'tetragonal'
loop_
_space_group_symop_operation_xyz
x,y,z
-y,x,1/2+z
-x,-y,z
y,-x,1/2+z
1/2+x,1/2-y,-z
1/2-x,1/2+y,-z
1/2+y,1/2+x,1/2-z
1/2-y,1/2-x,1/2-z
-x,-y,-z
y,-x,1/2-z
x,y,-z
-y,x,1/2-z
1/2-x,1/2+y,z
1/2+x,1/2-y,z
1/2-y,1/2-x,1/2+z
1/2+y,1/2+x,1/2+z
loop_
_atom_site_type_symbol
_atom_site_label
_atom_site_fract_x
_atom_site_fract_y
_atom_site_fract_z
Si Si1 0.602009 0.778959 0.561029
Si Si2 0.342606 0.761341 0.675690
Si Si3 0.462494 0.241108 0.061392
Si Si4 0.173202 0.124633 0.827452
Si Si5 0.988933 0.328002 0.255130
Si Si6 0.536336 0.666081 0.172279
Si Si7 0.117606 0.340125 0.560404
O O1 0.612238 0.737191 0.500000
O O2 0.682397 0.862206 0.569411
O O3 0.607753 0.700592 0.609255
O O4 0.499297 0.836394 0.562478
O O5 0.234283 0.796494 0.687763
O O6 0.414726 0.833035 0.707834
O O7 0.360079 0.646879 0.688701
O O8 0.352584 0.775158 0.611199
O O9 0.467286 0.321594 0.107545
O O10 0.554107 0.166896 0.067046
O O11 0.465079 0.279127 0.000000
O O12 0.247081 0.064088 0.792055
O O13 0.060371 0.104968 0.814015
O O14 0.924530 0.424530 0.250000
O O15 0.987516 0.273125 0.197360
O O16 0.146205 0.304105 0.500000
#
# Coordination Sequence:
#
# PCOD9568815 Si02
#       7
#    16  16  16  16  16  16  16
#     4  10  20  40  70 101 142 190 234 299 374 442
#     4  12  25  46  74 106 144 189 243 304 371 444
#     4  10  20  38  68 105 139 182 238 299 368 442
#     4  12  25  47  73 102 144 186 247 299 367 452
#     4  12  26  49  74  98 142 190 240 305 367 436
#     4  12  26  42  70 105 139 186 240 296 366 446
#     4  10  21  40  69 107 145 187 243 303 367 442
#
# _framework density 24.153205
#
# number of rings (size 3 to 8) (size 9 to 14) (size 15 to 20)
#    0.000    0.857    5.714    1.286    0.000    4.000 
#    0.000    2.857    0.000    1.714    0.000    0.000 
#    0.000    0.000    0.000    0.000    0.000    0.000 
#
# Total GULP energy -626731.070173 kJ/mol
# GULP energy per Si atom -5595.813127 kJ/mol
# Density = 2.409823 g / cm^3
# Si number density = 24.153205 Si / 1000 Ang^3
#
#
#
# Elastic Constant Matrix: (Units=GPa)
#
#
# Indices 1 2 3 4 5 6 
#
# 1 94.0928 10.0039 26.8274 0.0000 0.0000 0.0000
# 2 10.0039 94.0928 26.8274 0.0000 0.0000 0.0000
# 3 26.8274 26.8274 117.6855 0.0000 0.0000 0.0000
# 4 0.0000 0.0000 0.0000 27.1856 0.0000 0.0000
# 5 0.0000 0.0000 0.0000 0.0000 27.1856 0.0000
# 6 0.0000 0.0000 0.0000 0.0000 0.0000 39.2677
#
#
#
# Elastic Compliance Matrix: (Units=1/GPa)
#
#
# Indices 1 2 3 4 5 6 
#
# 1 0.011389 -0.000503 -0.002481 0.000000 0.000000 0.000000
# 2 -0.000503 0.011389 -0.002481 0.000000 0.000000 0.000000
# 3 -0.002481 -0.002481 0.009629 0.000000 0.000000 0.000000
# 4 0.000000 0.000000 0.000000 0.036784 0.000000 0.000000
# 5 0.000000 0.000000 0.000000 0.000000 0.036784 0.000000
# 6 0.000000 0.000000 0.000000 0.000000 0.000000 0.025466
#
#
# Mechanical properties :
#
#
# Convention : Reuss Voigt Hill
#
# Bulk Modulus (GPa) = 46.56848 48.13205 47.35026
# Shear Modulus (GPa) = 33.43787 34.87528 34.15658
#
# Velocity S-wave (km/s) = 3.72480 3.80402 3.76462
# Velocity P-wave (km/s) = 6.14989 6.26619 6.20831
#
# Compressibility (1/GPa) = 0.02147375
#
# Stress axis : x y z
#
# Youngs Moduli (GPa) = 87.80537 87.80537 103.85781
#
# Poissons Ratio (x) = 0.04420 0.25772
# Poissons Ratio (y) = 0.04420 0.25772
# Poissons Ratio (z) = 0.21788 0.21788
#
# Static dielectric constant tensor:
#      x y z
#    x 1.979770 0.000000 0.000000 
#    y 0.000000 1.979770 0.000000 
#    z 0.000000 0.000000 1.969090 
# 
# From -- ./inp_files/6136.got.cif
#   From: 2010.05.17/outbox.cif.g08.bks.cpg/sg135_4_cif.got.tgz:6136.got - 2010.05.20 12:50:20.
