data_PCOD9568409
_publ_section_title
;
Structure prediction by ZEFSAII (Michael W. Deem and Ramdas Pophale) SiO2 
 PCOD9568409
Probable space group: P 42/N N M
;
_chemical_formula_sum "Si O2"
_cell_formula_units_Z 112
_cell_length_a 14.995592
_cell_length_b 14.995592
_cell_length_c 25.399512
_cell_angle_alpha 90.000000
_cell_angle_beta 90.000000
_cell_angle_gamma 90.000000
_cell_volume 5711.531862
_symmetry_space_group_name_H-M "P 42/N N M"
_symmetry_group_IT_number 134
_space_group.IT_coordinate_system_code '2'
_symmetry_cell_setting 'tetragonal'
loop_
_space_group_symop_operation_xyz
x,y,z
1/2-y,x,1/2+z
1/2-x,1/2-y,z
y,1/2-x,1/2+z
x,1/2-y,1/2-z
1/2-x,y,1/2-z
y,x,-z
1/2-y,1/2-x,-z
-x,-y,-z
1/2+y,-x,1/2-z
1/2+x,1/2+y,-z
-y,1/2+x,1/2-z
-x,1/2+y,1/2+z
1/2+x,-y,1/2+z
-y,-x,z
1/2+y,1/2+x,z
loop_
_atom_site_type_symbol
_atom_site_label
_atom_site_fract_x
_atom_site_fract_y
_atom_site_fract_z
Si Si1 0.743390 0.392843 0.486775
Si Si2 0.239920 0.022823 0.190212
Si Si3 0.188681 0.170591 0.937782
Si Si4 0.417522 0.059983 0.816117
Si Si5 0.499406 0.257886 0.384907
Si Si6 0.955546 0.897195 0.803110
Si Si7 0.169344 0.519223 0.415799
O O1 0.645854 0.354147 0.497511
O O2 0.814891 0.314891 0.494082
O O3 0.748570 0.420186 0.425699
O O4 0.772345 0.460810 0.532313
O O5 0.250000 0.984439 0.250000
O O6 0.219037 0.960763 0.139671
O O7 0.333078 0.073731 0.179357
O O8 0.150391 0.083477 0.192410
O O9 0.250000 0.250000 0.915256
O O10 0.241403 0.082916 0.923472
O O11 0.087721 0.157636 0.917491
O O12 0.182276 0.182276 0.000000
O O13 0.352782 0.015383 0.858129
O O14 0.378595 0.034168 0.758840
O O15 0.515053 0.015053 0.819083
O O16 0.491304 0.181113 0.340433
O O17 0.013028 0.986973 0.814781
O O18 0.078716 0.578716 0.418629
#
# Coordination Sequence:
#
# PCOD9568409 Si02
#       7
#    16  16  16  16  16  16  16
#     4  10  23  41  60  87 122 161 208 261 312 369
#     4  10  21  38  61  88 122 162 200 255 316 371
#     4  11  23  38  58  92 131 160 195 256 319 373
#     4  10  23  40  57  86 127 167 207 250 306 378
#     4  12  21  36  64  89 120 163 209 246 314 377
#     4  10  21  37  60  92 125 156 203 264 315 367
#     4  11  22  40  64  91 122 162 212 265 316 372
#
# _framework density 19.609451
#
# number of rings (size 3 to 8) (size 9 to 14) (size 15 to 20)
#    0.000    1.429    2.857    2.571    0.000    2.000 
#    0.000    2.143    0.000    3.857    0.000   14.000 
#    0.000    0.000    0.000    0.000    0.000    0.000 
#
# Total GULP energy -623894.229574 kJ/mol
# GULP energy per Si atom -5570.484193 kJ/mol
# Density = 1.956482 g / cm^3
# Si number density = 19.609451 Si / 1000 Ang^3
#
#
#
# Elastic Constant Matrix: (Units=GPa)
#
#
# Indices 1 2 3 4 5 6 
#
# 1 55.0341 19.0177 20.6634 0.0000 0.0000 0.0000
# 2 19.0177 55.0341 20.6634 0.0000 0.0000 0.0000
# 3 20.6634 20.6634 114.4482 0.0000 0.0000 0.0000
# 4 0.0000 0.0000 0.0000 23.8818 0.0000 0.0000
# 5 0.0000 0.0000 0.0000 0.0000 23.8818 0.0000
# 6 0.0000 0.0000 0.0000 0.0000 0.0000 19.1736
#
#
#
# Elastic Compliance Matrix: (Units=1/GPa)
#
#
# Indices 1 2 3 4 5 6 
#
# 1 0.021391 -0.006374 -0.002711 0.000000 0.000000 0.000000
# 2 -0.006374 0.021391 -0.002711 0.000000 0.000000 0.000000
# 3 -0.002711 -0.002711 0.009717 0.000000 0.000000 0.000000
# 4 0.000000 0.000000 0.000000 0.041873 0.000000 0.000000
# 5 0.000000 0.000000 0.000000 0.000000 0.041873 0.000000
# 6 0.000000 0.000000 0.000000 0.000000 0.000000 0.052155
#
#
# Mechanical properties :
#
#
# Convention : Reuss Voigt Hill
#
# Bulk Modulus (GPa) = 34.59525 38.35617 36.47571
# Shear Modulus (GPa) = 22.56031 24.33224 23.44627
#
# Velocity S-wave (km/s) = 3.39555 3.52638 3.46159
# Velocity P-wave (km/s) = 5.74922 6.01523 5.88373
#
# Compressibility (1/GPa) = 0.02890570
#
# Stress axis : x y z
#
# Youngs Moduli (GPa) = 46.74831 46.74831 102.91633
#
# Poissons Ratio (x) = 0.29797 0.27904
# Poissons Ratio (y) = 0.29797 0.27904
# Poissons Ratio (z) = 0.12675 0.12675
#
# Static dielectric constant tensor:
#      x y z
#    x 1.146960 0.000000 0.000000 
#    y 0.000000 1.146960 0.000000 
#    z 0.000000 0.000000 1.725920 
# 
# From -- ./inp_files/10857.got.cif
#   From: 2010.05.17/outbox.cif.g08.bks.cpg/sg134_6_cif.got.tgz:10857.got - 2010.05.20 12:42:49.
