data_PCOD9568786
_publ_section_title
;
Structure prediction by ZEFSAII (Michael W. Deem and Ramdas Pophale) SiO2 
 PCOD9568786
Probable space group: P 42/M B C
;
_chemical_formula_sum "Si O2"
_cell_formula_units_Z 116
_cell_length_a 18.498575
_cell_length_b 18.498575
_cell_length_c 17.413179
_cell_angle_alpha 90.000000
_cell_angle_beta 90.000000
_cell_angle_gamma 90.000000
_cell_volume 5958.742438
_symmetry_space_group_name_H-M "P 42/M B C"
_symmetry_group_IT_number 135
_symmetry_cell_setting 'tetragonal'
loop_
_space_group_symop_operation_xyz
x,y,z
-y,x,1/2+z
-x,-y,z
y,-x,1/2+z
1/2+x,1/2-y,-z
1/2-x,1/2+y,-z
1/2+y,1/2+x,1/2-z
1/2-y,1/2-x,1/2-z
-x,-y,-z
y,-x,1/2-z
x,y,-z
-y,x,1/2-z
1/2-x,1/2+y,z
1/2+x,1/2-y,z
1/2-y,1/2-x,1/2+z
1/2+y,1/2+x,1/2+z
loop_
_atom_site_type_symbol
_atom_site_label
_atom_site_fract_x
_atom_site_fract_y
_atom_site_fract_z
Si Si1 0.281202 0.035014 0.772526
Si Si2 0.000000 0.000000 0.750000
Si Si3 0.919092 0.649160 0.176397
Si Si4 0.605425 0.300789 0.091133
Si Si5 0.249783 0.691384 0.177870
Si Si6 0.144349 0.035170 0.666091
Si Si7 0.186445 0.816296 0.089340
Si Si8 0.187093 0.433440 0.089496
O O1 0.285731 0.119112 0.789847
O O2 0.203884 0.021764 0.732372
O O3 0.339668 0.997848 0.714973
O O4 0.286198 0.994944 0.853512
O O5 0.969561 0.064610 0.801116
O O6 0.867551 0.632450 0.250000
O O7 0.904941 0.721613 0.128248
O O8 0.893686 0.587825 0.117142
O O9 0.672849 0.329521 0.141546
O O10 0.530555 0.342818 0.106479
O O11 0.621302 0.297552 0.000000
O O12 0.247190 0.747190 0.250000
O O13 0.206509 0.735075 0.113479
O O14 0.159037 0.115273 0.634351
O O15 0.257368 0.866159 0.102422
O O16 0.169655 0.820498 0.000000
O O17 0.189185 0.451623 0.000000
#
# Coordination Sequence:
#
# PCOD9568786 Si02
#       8
#    16   4  16  16  16  16  16  16
#     4  10  22  37  58  90 122 157 203 254 311 369
#     4  12  24  40  62  88 124 180 218 256 292 376
#     4   9  18  34  58  85 114 153 205 250 299 369
#     4  11  22  36  59  89 122 160 205 256 310 367
#     4  12  23  38  61  92 122 162 210 260 314 369
#     4  11  23  40  60  89 128 168 216 255 308 373
#     4  11  23  39  61  93 128 165 209 264 319 369
#     4  10  20  36  62  92 123 158 202 256 312 373
#
# _framework density 19.467196000000001
#
# number of rings (size 3 to 8) (size 9 to 14) (size 15 to 20)
#    0.000    1.379    2.759    3.310    3.862    1.103 
#    0.000    2.759    0.000    3.724    0.000    0.966 
#    0.000    0.000    0.000    0.000    0.000    0.000 
#
# Total GULP energy -646873.292162 kJ/mol
# GULP energy per Si atom -5576.493898 kJ/mol
# Density = 1.942289 g / cm^3
# Si number density = 19.467196 Si / 1000 Ang^3
#
#
#
# Elastic Constant Matrix: (Units=GPa)
#
#
# Indices 1 2 3 4 5 6 
#
# 1 51.2966 20.7944 12.0695 0.0000 0.0000 0.0000
# 2 20.7944 51.2972 12.0713 0.0000 0.0000 0.0000
# 3 12.0695 12.0713 95.4392 0.0000 0.0000 0.0000
# 4 0.0000 0.0000 0.0000 22.8925 0.0000 0.0000
# 5 0.0000 0.0000 0.0000 0.0000 22.8926 0.0000
# 6 0.0000 0.0000 0.0000 0.0000 0.0000 8.4599
#
#
#
# Elastic Compliance Matrix: (Units=1/GPa)
#
#
# Indices 1 2 3 4 5 6 
#
# 1 0.023635 -0.009150 -0.001832 0.000000 0.000000 0.000000
# 2 -0.009150 0.023634 -0.001832 0.000000 0.000000 0.000000
# 3 -0.001832 -0.001832 0.010941 0.000000 0.000000 0.000000
# 4 0.000000 0.000000 0.000000 0.043682 0.000000 0.000000
# 5 0.000000 0.000000 0.000000 0.000000 0.043682 0.000000
# 6 0.000000 0.000000 0.000000 0.000000 0.000000 0.118205
#
#
# Mechanical properties :
#
#
# Convention : Reuss Voigt Hill
#
# Bulk Modulus (GPa) = 30.69079 31.98927 31.34003
# Shear Modulus (GPa) = 16.65180 21.05552 18.85366
#
# Velocity S-wave (km/s) = 2.92786 3.29232 3.11542
# Velocity P-wave (km/s) = 5.21818 5.56063 5.39212
#
# Compressibility (1/GPa) = 0.03258306
#
# Stress axis : x y z
#
# Youngs Moduli (GPa) = 42.31102 42.31114 91.39730
#
# Poissons Ratio (x) = 0.38714 0.16740
# Poissons Ratio (y) = 0.38713 0.16746
# Poissons Ratio (z) = 0.07750 0.07752
#
# Static dielectric constant tensor:
#      x y z
#    x 1.704020 0.000000 0.000000 
#    y 0.000000 1.704020 0.000000 
#    z 0.000000 0.000000 1.694840 
# 
# From -- ./inp_files/4601.got.cif
#   From: 2010.05.17/outbox.cif.g08.bks.cpg/sg135_3_cif.got.tgz:4601.got - 2010.05.20 12:50:20.
