data_PCOD9568238
_publ_section_title
;
Structure prediction by ZEFSAII (Michael W. Deem and Ramdas Pophale) SiO2 
 PCOD9568238
Probable space group: P 42/N N M
;
_chemical_formula_sum "Si O2"
_cell_formula_units_Z 64
_cell_length_a 13.902779
_cell_length_b 13.902779
_cell_length_c 19.750708
_cell_angle_alpha 90.000000
_cell_angle_beta 90.000000
_cell_angle_gamma 90.000000
_cell_volume 3817.560310
_symmetry_space_group_name_H-M "P 42/N N M"
_symmetry_group_IT_number 134
_space_group.IT_coordinate_system_code '2'
_symmetry_cell_setting 'tetragonal'
loop_
_space_group_symop_operation_xyz
x,y,z
1/2-y,x,1/2+z
1/2-x,1/2-y,z
y,1/2-x,1/2+z
x,1/2-y,1/2-z
1/2-x,y,1/2-z
y,x,-z
1/2-y,1/2-x,-z
-x,-y,-z
1/2+y,-x,1/2-z
1/2+x,1/2+y,-z
-y,1/2+x,1/2-z
-x,1/2+y,1/2+z
1/2+x,-y,1/2+z
-y,-x,z
1/2+y,1/2+x,z
loop_
_atom_site_type_symbol
_atom_site_label
_atom_site_fract_x
_atom_site_fract_y
_atom_site_fract_z
Si Si1 0.695441 0.648262 0.683841
Si Si2 0.474105 0.815120 0.810060
Si Si3 0.020743 0.359065 0.944075
Si Si4 0.744067 0.091319 0.450395
O O1 0.750000 0.750000 0.668586
O O2 0.750000 0.607393 0.750000
O O3 0.584998 0.665417 0.704423
O O4 0.683525 0.580067 0.618603
O O5 0.432593 0.750000 0.750000
O O6 0.412285 0.912285 0.815773
O O7 0.466762 0.759802 0.881326
O O8 0.940230 0.440230 0.924461
O O9 0.088404 0.411597 0.000000
O O10 0.969182 0.273518 0.984547
O O11 0.823597 0.176404 0.446701
O O12 0.641228 0.141228 0.453832
#
# Coordination Sequence:
#
# PCOD9568238 Si02
#       4
#    16  16  16  16
#     4  11  22  38  55  80 117 154 191 231 283 348
#     4  11  20  35  58  85 115 149 188 234 291 347
#     4  10  19  36  62  84 104 144 199 239 278 342
#     4   9  18  33  55  84 113 138 177 236 290 336
#
# _framework density 16.764633
#
# number of rings (size 3 to 8) (size 9 to 14) (size 15 to 20)
#    0.000    1.750    5.000    1.500    0.000    1.750 
#    0.000    2.500    0.000    1.500    0.000    0.000 
#    0.000    0.000    0.000    0.000    0.000    0.000 
#
# Total GULP energy -356632.378856 kJ/mol
# GULP energy per Si atom -5572.380920 kJ/mol
# Density = 1.672648 g / cm^3
# Si number density = 16.764633 Si / 1000 Ang^3
#
#
#
# Elastic Constant Matrix: (Units=GPa)
#
#
# Indices 1 2 3 4 5 6 
#
# 1 87.6878 37.4725 50.2321 0.0000 0.0000 0.0000
# 2 37.4725 87.6879 50.2320 0.0000 0.0000 0.0000
# 3 50.2321 50.2320 137.2289 0.0000 0.0000 0.0000
# 4 0.0000 0.0000 0.0000 25.8494 0.0000 0.0000
# 5 0.0000 0.0000 0.0000 0.0000 25.8487 0.0000
# 6 0.0000 0.0000 0.0000 0.0000 0.0000 10.9493
#
#
#
# Elastic Compliance Matrix: (Units=1/GPa)
#
#
# Indices 1 2 3 4 5 6 
#
# 1 0.015614 -0.004300 -0.004141 0.000000 0.000000 0.000000
# 2 -0.004300 0.015614 -0.004141 0.000000 0.000000 0.000000
# 3 -0.004141 -0.004141 0.010319 0.000000 0.000000 0.000000
# 4 0.000000 0.000000 0.000000 0.038686 0.000000 0.000000
# 5 0.000000 0.000000 0.000000 0.000000 0.038687 0.000000
# 6 0.000000 0.000000 0.000000 0.000000 0.000000 0.091330
#
#
# Mechanical properties :
#
#
# Convention : Reuss Voigt Hill
#
# Bulk Modulus (GPa) = 61.04536 65.38642 63.21589
# Shear Modulus (GPa) = 20.75755 24.17400 22.46578
#
# Velocity S-wave (km/s) = 3.52259 3.80144 3.66467
# Velocity P-wave (km/s) = 7.28266 7.63906 7.46298
#
# Compressibility (1/GPa) = 0.01638126
#
# Stress axis : x y z
#
# Youngs Moduli (GPa) = 64.04446 64.04468 96.90843
#
# Poissons Ratio (x) = 0.27540 0.40134
# Poissons Ratio (y) = 0.27540 0.40134
# Poissons Ratio (z) = 0.26524 0.26524
#
# Static dielectric constant tensor:
#      x y z
#    x 1.571520 0.000000 0.000000 
#    y 0.000000 1.571520 0.000000 
#    z 0.000000 0.000000 1.607810 
# 
# From -- ./inp_files/7410.got.cif
#   From: 2010.05.17/outbox.cif.g08.bks.cpg/sg134_4_cif.got.tgz:7410.got - 2010.05.20 12:42:49.
