data_PCOD9568010
_publ_section_title
;
Structure prediction by ZEFSAII (Michael W. Deem and Ramdas Pophale) SiO2 
 PCOD9568010
Probable space group: P 42/N B C
;
_chemical_formula_sum "Si O2"
_cell_formula_units_Z 48
_cell_length_a 15.440069
_cell_length_b 15.440069
_cell_length_c 9.439263
_cell_angle_alpha 90.000000
_cell_angle_beta 90.000000
_cell_angle_gamma 90.000000
_cell_volume 2250.280000
_symmetry_space_group_name_H-M "P 42/N B C"
_symmetry_group_IT_number 133
_space_group.IT_coordinate_system_code '2'
_symmetry_cell_setting 'tetragonal'
loop_
_space_group_symop_operation_xyz
x,y,z
1/2-y,x,1/2+z
1/2-x,1/2-y,z
y,1/2-x,1/2+z
x,1/2-y,-z
1/2-x,y,-z
y,x,1/2-z
1/2-y,1/2-x,1/2-z
-x,-y,-z
1/2+y,-x,1/2-z
1/2+x,1/2+y,-z
-y,1/2+x,1/2-z
-x,1/2+y,z
1/2+x,-y,z
-y,-x,1/2+z
1/2+y,1/2+x,1/2+z
loop_
_atom_site_type_symbol
_atom_site_label
_atom_site_fract_x
_atom_site_fract_y
_atom_site_fract_z
Si Si1 0.362604 0.838241 0.233371
Si Si2 0.838509 0.669903 0.583085
Si Si3 0.901175 0.023685 0.472411
O O1 0.361343 0.739367 0.291381
O O2 0.394481 0.908303 0.345616
O O3 0.426736 0.850724 0.099808
O O4 0.888016 0.750000 0.500000
O O5 0.750000 0.668144 0.500000
O O6 0.820448 0.679553 0.750000
O O7 0.868775 0.571603 0.565840
O O8 0.000000 0.000000 0.500000
#
# Coordination Sequence:
#
# PCOD9568010 Si02
#       3
#    16  16  16
#     4  11  24  45  72  99 133 182 239 299 357 418
#     4  11  24  43  67  96 131 177 226 277 342 421
#     4  12  26  42  65 100 138 177 226 284 352 426
#
# _framework density 21.330679
#
# number of rings (size 3 to 8) (size 9 to 14) (size 15 to 20)
#    0.000    0.667    0.000    9.000    0.000   13.333 
#    0.000    0.000    0.000    0.000    0.000    0.000 
#    0.000    0.000    0.000    0.000    0.000    0.000 
#
# Total GULP energy -267561.307857 kJ/mol
# GULP energy per Si atom -5574.193914 kJ/mol
# Density = 2.128213 g / cm^3
# Si number density = 21.330679 Si / 1000 Ang^3
#
#
#
# Elastic Constant Matrix: (Units=GPa)
#
#
# Indices 1 2 3 4 5 6 
#
# 1 136.5891 31.0973 60.5010 0.0000 0.0000 0.0000
# 2 31.0973 136.5895 60.5012 0.0000 0.0000 0.0000
# 3 60.5010 60.5012 172.1640 0.0000 0.0000 0.0000
# 4 0.0000 0.0000 0.0000 36.9672 0.0000 0.0000
# 5 0.0000 0.0000 0.0000 0.0000 36.9671 0.0000
# 6 0.0000 0.0000 0.0000 0.0000 0.0000 44.2302
#
#
#
# Elastic Compliance Matrix: (Units=1/GPa)
#
#
# Indices 1 2 3 4 5 6 
#
# 1 0.008734 -0.000745 -0.002808 0.000000 0.000000 0.000000
# 2 -0.000745 0.008734 -0.002808 0.000000 0.000000 0.000000
# 3 -0.002808 -0.002808 0.007782 0.000000 0.000000 0.000000
# 4 0.000000 0.000000 0.000000 0.027051 0.000000 0.000000
# 5 0.000000 0.000000 0.000000 0.000000 0.027051 0.000000
# 6 0.000000 0.000000 0.000000 0.000000 0.000000 0.022609
#
#
# Mechanical properties :
#
#
# Convention : Reuss Voigt Hill
#
# Bulk Modulus (GPa) = 79.80747 83.28241 81.54494
# Shear Modulus (GPa) = 42.06672 43.18244 42.62458
#
# Velocity S-wave (km/s) = 4.44568 4.50425 4.47506
# Velocity P-wave (km/s) = 7.99047 8.13506 8.06309
#
# Compressibility (1/GPa) = 0.01253016
#
# Stress axis : x y z
#
# Youngs Moduli (GPa) = 114.48925 114.48942 128.50658
#
# Poissons Ratio (x) = 0.08529 0.36080
# Poissons Ratio (y) = 0.08529 0.36080
# Poissons Ratio (z) = 0.32144 0.32144
#
# Static dielectric constant tensor:
#      x y z
#    x 2.650020 0.000000 0.000000 
#    y 0.000000 2.649960 0.000000 
#    z 0.000000 0.000000 2.160070 
# 
# From -- ./inp_files/1102.got.cif
#   From: 2010.05.17/outbox.cif.g08.bks.cpg/sg133_1_cif.got.tgz:1102.got - 2010.05.20 12:37:36.
