data_PCOD9568952
_publ_section_title
;
Structure prediction by ZEFSAII (Michael W. Deem and Ramdas Pophale) SiO2 
 PCOD9568952
Probable space group: P 42/M B C
;
_chemical_formula_sum "Si O2"
_cell_formula_units_Z 36
_cell_length_a 9.544774
_cell_length_b 9.544774
_cell_length_c 20.954470
_cell_angle_alpha 90.000000
_cell_angle_beta 90.000000
_cell_angle_gamma 90.000000
_cell_volume 1909.009019
_symmetry_space_group_name_H-M "P 42/M B C"
_symmetry_group_IT_number 135
_symmetry_cell_setting 'tetragonal'
loop_
_space_group_symop_operation_xyz
x,y,z
-y,x,1/2+z
-x,-y,z
y,-x,1/2+z
1/2+x,1/2-y,-z
1/2-x,1/2+y,-z
1/2+y,1/2+x,1/2-z
1/2-y,1/2-x,1/2-z
-x,-y,-z
y,-x,1/2-z
x,y,-z
-y,x,1/2-z
1/2-x,1/2+y,z
1/2+x,1/2-y,z
1/2-y,1/2-x,1/2+z
1/2+y,1/2+x,1/2+z
loop_
_atom_site_type_symbol
_atom_site_label
_atom_site_fract_x
_atom_site_fract_y
_atom_site_fract_z
Si Si1 0.584148 0.144664 0.427215
Si Si2 0.500000 0.500000 0.250000
Si Si3 0.397461 0.381531 0.373381
O O1 0.590145 0.200155 0.500000
O O2 0.488723 0.243546 0.383699
O O3 0.743053 0.128156 0.402338
O O4 0.500000 0.000000 0.429010
O O5 0.394319 0.424195 0.298716
O O6 0.500000 0.500000 0.403493
#
# Coordination Sequence:
#
# PCOD9568952 Si02
#       3
#    16   4  16
#     4  11  23  39  65  99 129 168 217 272 339 387
#     4   8  24  44  62  88 132 164 224 250 324 392
#     4  10  22  43  62  91 130 171 216 271 320 398
#
# _framework density 18.857952000000001
#
# number of rings (size 3 to 8) (size 9 to 14) (size 15 to 20)
#    1.333    0.444    0.000    4.000    0.000    8.889 
#    0.000    2.222    0.000    0.000    0.000    0.000 
#    0.000    0.000    0.000    0.000    0.000    0.000 
#
# Total GULP energy -200421.185066 kJ/mol
# GULP energy per Si atom -5567.255141 kJ/mol
# Density = 1.881503 g / cm^3
# Si number density = 18.857952 Si / 1000 Ang^3
#
#
#
# Elastic Constant Matrix: (Units=GPa)
#
#
# Indices 1 2 3 4 5 6 
#
# 1 115.9926 24.4854 14.2597 0.0000 0.0000 0.0000
# 2 24.4854 115.9926 14.2597 0.0000 0.0000 0.0000
# 3 14.2597 14.2597 70.2201 0.0000 0.0000 0.0000
# 4 0.0000 0.0000 0.0000 9.6155 0.0000 0.0000
# 5 0.0000 0.0000 0.0000 0.0000 9.6155 0.0000
# 6 0.0000 0.0000 0.0000 0.0000 0.0000 23.0029
#
#
#
# Elastic Compliance Matrix: (Units=1/GPa)
#
#
# Indices 1 2 3 4 5 6 
#
# 1 0.009176 -0.001752 -0.001508 0.000000 0.000000 0.000000
# 2 -0.001752 0.009176 -0.001508 0.000000 0.000000 0.000000
# 3 -0.001508 -0.001508 0.014853 0.000000 0.000000 0.000000
# 4 0.000000 0.000000 0.000000 0.103999 0.000000 0.000000
# 5 0.000000 0.000000 0.000000 0.000000 0.103999 0.000000
# 6 0.000000 0.000000 0.000000 0.000000 0.000000 0.043473
#
#
# Mechanical properties :
#
#
# Convention : Reuss Voigt Hill
#
# Bulk Modulus (GPa) = 42.24464 45.35722 43.80093
# Shear Modulus (GPa) = 16.55076 25.06015 20.80546
#
# Velocity S-wave (km/s) = 2.96574 3.64935 3.32516
# Velocity P-wave (km/s) = 5.84616 6.47003 6.16599
#
# Compressibility (1/GPa) = 0.02367164
#
# Stress axis : x y z
#
# Youngs Moduli (GPa) = 108.97555 108.97555 67.32516
#
# Poissons Ratio (x) = 0.19090 0.10151
# Poissons Ratio (y) = 0.19090 0.10151
# Poissons Ratio (z) = 0.16431 0.16431
#
# Static dielectric constant tensor:
#      x y z
#    x 1.802460 0.000000 0.000000 
#    y 0.000000 1.802460 0.000000 
#    z 0.000000 0.000000 1.651920 
# 
# From -- ./inp_files/4804.got.cif
#   From: 2010.05.17/outbox.cif.g08.bks.cpg/sg135_3_cif.got.tgz:4804.got - 2010.05.20 12:50:20.
