data_PCOD9568943
_publ_section_title
;
Structure prediction by ZEFSAII (Michael W. Deem and Ramdas Pophale) SiO2 
 PCOD9568943
Probable space group: P 42/M B C
;
_chemical_formula_sum "Si O2"
_cell_formula_units_Z 112
_cell_length_a 13.541303
_cell_length_b 13.541303
_cell_length_c 27.912305
_cell_angle_alpha 90.000000
_cell_angle_beta 90.000000
_cell_angle_gamma 90.000000
_cell_volume 5118.192475
_symmetry_space_group_name_H-M "P 42/M B C"
_symmetry_group_IT_number 135
_symmetry_cell_setting 'tetragonal'
loop_
_space_group_symop_operation_xyz
x,y,z
-y,x,1/2+z
-x,-y,z
y,-x,1/2+z
1/2+x,1/2-y,-z
1/2-x,1/2+y,-z
1/2+y,1/2+x,1/2-z
1/2-y,1/2-x,1/2-z
-x,-y,-z
y,-x,1/2-z
x,y,-z
-y,x,1/2-z
1/2-x,1/2+y,z
1/2+x,1/2-y,z
1/2-y,1/2-x,1/2+z
1/2+y,1/2+x,1/2+z
loop_
_atom_site_type_symbol
_atom_site_label
_atom_site_fract_x
_atom_site_fract_y
_atom_site_fract_z
Si Si1 0.756208 0.297480 0.369534
Si Si2 0.093103 0.379144 0.625800
Si Si3 0.484644 0.656055 0.759742
Si Si4 0.432915 0.161488 0.295854
Si Si5 0.566662 0.807305 0.445024
Si Si6 0.280315 0.486060 0.635050
Si Si7 0.581059 0.584560 0.446672
O O1 0.676255 0.208695 0.369551
O O2 0.833494 0.305057 0.324589
O O3 0.830606 0.303586 0.415202
O O4 0.695426 0.398999 0.368836
O O5 0.163619 0.473903 0.626391
O O6 0.014797 0.382259 0.668789
O O7 0.022336 0.365779 0.580108
O O8 0.584487 0.593151 0.764953
O O9 0.512407 0.744557 0.725912
O O10 0.450681 0.692070 0.811784
O O11 0.403355 0.096646 0.250000
O O12 0.582822 0.837186 0.500000
O O13 0.533567 0.692374 0.443855
O O14 0.340197 0.427843 0.595130
O O15 0.500000 0.500000 0.441585
O O16 0.626525 0.575845 0.500000
#
# Coordination Sequence:
#
# PCOD9568943 Si02
#       7
#    16  16  16  16  16  16  16
#     4  11  23  45  67  98 136 181 225 281 339 407
#     4  11  25  43  69  97 136 184 223 281 342 404
#     4  11  25  42  67 100 129 179 229 285 340 396
#     4  11  24  45  63  93 138 175 230 275 334 412
#     4  10  23  43  69 100 137 179 225 282 346 411
#     4  12  24  42  69  98 134 178 225 273 343 410
#     4  10  22  41  69 102 132 170 227 287 339 395
#
# _framework density 21.882725000000001
#
# number of rings (size 3 to 8) (size 9 to 14) (size 15 to 20)
#    0.000    1.143    2.857    2.571    4.000    4.571 
#    2.571    0.714    0.000    0.000    0.000    0.000 
#    0.000    0.000    0.000    0.000    0.000    0.000 
#
# Total GULP energy -626103.685226 kJ/mol
# GULP energy per Si atom -5590.211475 kJ/mol
# Density = 2.183292 g / cm^3
# Si number density = 21.882725 Si / 1000 Ang^3
#
#
#
# Elastic Constant Matrix: (Units=GPa)
#
#
# Indices 1 2 3 4 5 6 
#
# 1 68.5937 3.7415 33.7230 0.0000 0.0000 0.0000
# 2 3.7415 68.5931 33.7236 0.0000 0.0000 0.0000
# 3 33.7230 33.7236 156.0513 0.0000 0.0000 0.0000
# 4 0.0000 0.0000 0.0000 -0.5072 0.0000 0.0000
# 5 0.0000 0.0000 0.0000 0.0000 -0.5059 0.0000
# 6 0.0000 0.0000 0.0000 0.0000 0.0000 11.3719
#
#
#
# Elastic Compliance Matrix: (Units=1/GPa)
#
#
# Indices 1 2 3 4 5 6 
#
# 1 0.016366 0.000947 -0.003741 0.000000 0.000000 0.000000
# 2 0.000947 0.016367 -0.003741 0.000000 0.000000 0.000000
# 3 -0.003741 -0.003741 0.008025 0.000000 0.000000 0.000000
# 4 0.000000 0.000000 0.000000 -1.971683 0.000000 0.000000
# 5 0.000000 0.000000 0.000000 0.000000 -1.976490 0.000000
# 6 0.000000 0.000000 0.000000 0.000000 0.000000 0.087936
#
#
# Mechanical properties :
#
#
# Convention : Reuss Voigt Hill
#
# Bulk Modulus (GPa) = 36.11956 48.40157 42.26056
# Shear Modulus (GPa) = -1.31677 16.87510 7.77917
#
# Velocity S-wave (km/s) = -0.77656 2.77999 1.88750
# Velocity P-wave (km/s) = 3.96708 5.69834 4.90963
#
# Compressibility (1/GPa) = 0.02768583
#
# Stress axis : x y z
#
# Youngs Moduli (GPa) = 61.10096 61.10012 124.60702
#
# Poissons Ratio (x) = -0.05785 0.46620
# Poissons Ratio (y) = -0.05785 0.46622
# Poissons Ratio (z) = 0.22860 0.22861
#
# Static dielectric constant tensor:
#      x y z
#    x 1.832070 0.000000 0.000000 
#    y 0.000000 1.832080 0.000000 
#    z 0.000000 0.000000 1.814570 
# 
# From -- ./inp_files/6110.got.cif
#   From: 2010.05.17/outbox.cif.g08.bks.cpg/sg135_4_cif.got.tgz:6110.got - 2010.05.20 12:50:20.
