data_PCOD9568837
_publ_section_title
;
Structure prediction by ZEFSAII (Michael W. Deem and Ramdas Pophale) SiO2 
 PCOD9568837
Probable space group: P 42/M B C
;
_chemical_formula_sum "Si O2"
_cell_formula_units_Z 72
_cell_length_a 20.867138
_cell_length_b 20.867138
_cell_length_c 8.980040
_cell_angle_alpha 90.000000
_cell_angle_beta 90.000000
_cell_angle_gamma 90.000000
_cell_volume 3910.245703
_symmetry_space_group_name_H-M "P 42/M B C"
_symmetry_group_IT_number 135
_symmetry_cell_setting 'tetragonal'
loop_
_space_group_symop_operation_xyz
x,y,z
-y,x,1/2+z
-x,-y,z
y,-x,1/2+z
1/2+x,1/2-y,-z
1/2-x,1/2+y,-z
1/2+y,1/2+x,1/2-z
1/2-y,1/2-x,1/2-z
-x,-y,-z
y,-x,1/2-z
x,y,-z
-y,x,1/2-z
1/2-x,1/2+y,z
1/2+x,1/2-y,z
1/2-y,1/2-x,1/2+z
1/2+y,1/2+x,1/2+z
loop_
_atom_site_type_symbol
_atom_site_label
_atom_site_fract_x
_atom_site_fract_y
_atom_site_fract_z
Si Si1 0.762277 0.905383 0.828034
Si Si2 0.892307 0.522371 0.338272
Si Si3 0.957617 0.750238 0.818158
Si Si4 0.882323 0.382323 0.250000
Si Si5 0.321422 0.720011 0.679828
O O1 0.686097 0.889709 0.827322
O O2 0.792430 0.848025 0.732208
O O3 0.773670 0.974710 0.751086
O O4 0.784398 0.905266 0.000000
O O5 0.951544 0.548457 0.250000
O O6 0.897683 0.551590 0.500000
O O7 0.824830 0.544851 0.273831
O O8 0.887897 0.446205 0.347071
O O9 0.893104 0.778383 0.748008
O O10 0.958930 0.755085 0.000000
O O11 0.276458 0.776458 0.750000
O O12 0.321666 0.725750 0.500000
#
# Coordination Sequence:
#
# PCOD9568837 Si02
#       5
#    16  16  16   8  16
#     4  11  22  38  61  87 118 155 198 248 306 360
#     4  10  21  34  50  75 109 152 196 238 284 341
#     4  10  22  40  59  83 118 155 198 250 305 362
#     4  10  21  34  54  78 114 152 198 239 290 344
#     4  12  24  39  62  91 122 158 204 253 306 363
#
# _framework density 18.413163999999998
#
# number of rings (size 3 to 8) (size 9 to 14) (size 15 to 20)
#    0.000    1.333    1.111    5.000    0.000    9.778 
#    0.000    0.000    0.000    0.667    0.000    4.667 
#    0.000    0.000    0.000    0.000    0.000    0.000 
#
# Total GULP energy -401450.928826 kJ/mol
# GULP energy per Si atom -5575.707345 kJ/mol
# Density = 1.837125 g / cm^3
# Si number density = 18.413164 Si / 1000 Ang^3
#
#
#
# Elastic Constant Matrix: (Units=GPa)
#
#
# Indices 1 2 3 4 5 6 
#
# 1 120.0416 39.0209 41.1424 0.0000 0.0000 0.0000
# 2 39.0209 120.0465 41.1261 0.0000 0.0000 0.0000
# 3 41.1424 41.1261 112.4129 0.0000 0.0000 0.0000
# 4 0.0000 0.0000 0.0000 24.6894 0.0000 0.0000
# 5 0.0000 0.0000 0.0000 0.0000 24.6915 0.0000
# 6 0.0000 0.0000 0.0000 0.0000 0.0000 34.1376
#
#
#
# Elastic Compliance Matrix: (Units=1/GPa)
#
#
# Indices 1 2 3 4 5 6 
#
# 1 0.010049 -0.002294 -0.002839 0.000000 0.000000 0.000000
# 2 -0.002294 0.010047 -0.002836 0.000000 0.000000 0.000000
# 3 -0.002839 -0.002836 0.010972 0.000000 0.000000 0.000000
# 4 0.000000 0.000000 0.000000 0.040503 0.000000 0.000000
# 5 0.000000 0.000000 0.000000 0.000000 0.040500 0.000000
# 6 0.000000 0.000000 0.000000 0.000000 0.000000 0.029293
#
#
# Mechanical properties :
#
#
# Convention : Reuss Voigt Hill
#
# Bulk Modulus (GPa) = 66.08915 66.11999 66.10457
# Shear Modulus (GPa) = 30.79834 32.11779 31.45806
#
# Velocity S-wave (km/s) = 4.09421 4.18099 4.13783
# Velocity P-wave (km/s) = 7.63678 7.70030 7.66860
#
# Compressibility (1/GPa) = 0.01513108
#
# Stress axis : x y z
#
# Youngs Moduli (GPa) = 99.51220 99.52813 91.13822
#
# Poissons Ratio (x) = 0.22831 0.25871
# Poissons Ratio (y) = 0.22828 0.25849
# Poissons Ratio (z) = 0.28248 0.28229
#
# Static dielectric constant tensor:
#      x y z
#    x 1.602820 0.000000 0.000000 
#    y 0.000000 1.602810 0.000000 
#    z 0.000000 0.000000 1.668750 
# 
# From -- ./inp_files/1038.got.cif
#   From: 2010.05.17/outbox.cif.g08.bks.cpg/sg135_1_cif.got.tgz:1038.got - 2010.05.20 12:50:20.
