data_PCOD9568973
_publ_section_title
;
Structure prediction by ZEFSAII (Michael W. Deem and Ramdas Pophale) SiO2 
 PCOD9568973
Probable space group: P 42/M B C
;
_chemical_formula_sum "Si O2"
_cell_formula_units_Z 36
_cell_length_a 10.309904
_cell_length_b 10.309904
_cell_length_c 13.928334
_cell_angle_alpha 90.000000
_cell_angle_beta 90.000000
_cell_angle_gamma 90.000000
_cell_volume 1480.500012
_symmetry_space_group_name_H-M "P 42/M B C"
_symmetry_group_IT_number 135
_symmetry_cell_setting 'tetragonal'
loop_
_space_group_symop_operation_xyz
x,y,z
-y,x,1/2+z
-x,-y,z
y,-x,1/2+z
1/2+x,1/2-y,-z
1/2-x,1/2+y,-z
1/2+y,1/2+x,1/2-z
1/2-y,1/2-x,1/2-z
-x,-y,-z
y,-x,1/2-z
x,y,-z
-y,x,1/2-z
1/2-x,1/2+y,z
1/2+x,1/2-y,z
1/2-y,1/2-x,1/2+z
1/2+y,1/2+x,1/2+z
loop_
_atom_site_type_symbol
_atom_site_label
_atom_site_fract_x
_atom_site_fract_y
_atom_site_fract_z
Si Si1 0.034529 0.854935 0.615778
Si Si2 0.500000 0.000000 0.250000
Si Si3 0.828059 0.633329 0.615178
O O1 0.032850 0.856423 0.500000
O O2 0.182791 0.828040 0.642479
O O3 0.928420 0.747721 0.640393
O O4 0.000000 0.000000 0.647023
O O5 0.488506 0.879703 0.176235
O O6 0.833022 0.607744 0.500000
#
# Coordination Sequence:
#
# PCOD9568973 Si02
#       3
#    16   4  16
#     4   9  20  41  69  98 134 182 232 285 348 417
#     4  12  26  40  64  98 134 178 238 280 360 418
#     4  10  23  43  68  97 136 180 230 288 351 421
#
# _framework density 24.316109999999998
#
# number of rings (size 3 to 8) (size 9 to 14) (size 15 to 20)
#    0.000    2.222    0.000    0.667    6.222    1.778 
#    0.000    0.000    0.000    0.000    0.000    0.000 
#    0.000    0.000    0.000    0.000    0.000    0.000 
#
# Total GULP energy -201343.948837 kJ/mol
# GULP energy per Si atom -5592.887468 kJ/mol
# Density = 2.426076 g / cm^3
# Si number density = 24.316110 Si / 1000 Ang^3
#
#
#
# Elastic Constant Matrix: (Units=GPa)
#
#
# Indices 1 2 3 4 5 6 
#
# 1 184.5818 102.7877 42.9530 0.0000 0.0000 0.0000
# 2 102.7877 184.5818 42.9530 0.0000 0.0000 0.0000
# 3 42.9530 42.9530 134.3914 0.0000 0.0000 0.0000
# 4 0.0000 0.0000 0.0000 3.1037 0.0000 0.0000
# 5 0.0000 0.0000 0.0000 0.0000 3.1037 0.0000
# 6 0.0000 0.0000 0.0000 0.0000 0.0000 48.7024
#
#
#
# Elastic Compliance Matrix: (Units=1/GPa)
#
#
# Indices 1 2 3 4 5 6 
#
# 1 0.008037 -0.004189 -0.001230 0.000000 0.000000 0.000000
# 2 -0.004189 0.008037 -0.001230 0.000000 0.000000 0.000000
# 3 -0.001230 -0.001230 0.008227 0.000000 0.000000 0.000000
# 4 0.000000 0.000000 0.000000 0.322196 0.000000 0.000000
# 5 0.000000 0.000000 0.000000 0.000000 0.322196 0.000000
# 6 0.000000 0.000000 0.000000 0.000000 0.000000 0.020533
#
#
# Mechanical properties :
#
#
# Convention : Reuss Voigt Hill
#
# Bulk Modulus (GPa) = 90.88317 97.88248 94.38283
# Shear Modulus (GPa) = 7.08024 31.97270 19.52647
#
# Velocity S-wave (km/s) = 1.70824 3.63006 2.83685
# Velocity P-wave (km/s) = 6.43021 7.60995 7.04482
#
# Compressibility (1/GPa) = 0.01100314
#
# Stress axis : x y z
#
# Youngs Moduli (GPa) = 124.43020 124.43020 121.55102
#
# Poissons Ratio (x) = 0.52126 0.14947
# Poissons Ratio (y) = 0.52126 0.14947
# Poissons Ratio (z) = 0.15301 0.15301
#
# Static dielectric constant tensor:
#      x y z
#    x 1.942900 0.000000 0.000000 
#    y 0.000000 1.942900 0.000000 
#    z 0.000000 0.000000 1.938580 
# 
# From -- ./inp_files/2804.got.cif
#   From: 2010.05.17/outbox.cif.g08.bks.cpg/sg135_2_cif.got.tgz:2804.got - 2010.05.20 12:50:20.
