data_PCOD9568540
_publ_section_title
;
Structure prediction by ZEFSAII (Michael W. Deem and Ramdas Pophale) SiO2 
 PCOD9568540
Probable space group: P 42/N N M
;
_chemical_formula_sum "Si O2"
_cell_formula_units_Z 56
_cell_length_a 20.499018
_cell_length_b 20.499018
_cell_length_c 7.754673
_cell_angle_alpha 90.000000
_cell_angle_beta 90.000000
_cell_angle_gamma 90.000000
_cell_volume 3258.589117
_symmetry_space_group_name_H-M "P 42/N N M"
_symmetry_group_IT_number 134
_space_group.IT_coordinate_system_code '2'
_symmetry_cell_setting 'tetragonal'
loop_
_space_group_symop_operation_xyz
x,y,z
1/2-y,x,1/2+z
1/2-x,1/2-y,z
y,1/2-x,1/2+z
x,1/2-y,1/2-z
1/2-x,y,1/2-z
y,x,-z
1/2-y,1/2-x,-z
-x,-y,-z
1/2+y,-x,1/2-z
1/2+x,1/2+y,-z
-y,1/2+x,1/2-z
-x,1/2+y,1/2+z
1/2+x,-y,1/2+z
-y,-x,z
1/2+y,1/2+x,z
loop_
_atom_site_type_symbol
_atom_site_label
_atom_site_fract_x
_atom_site_fract_y
_atom_site_fract_z
Si Si1 0.952398 0.250000 0.750000
Si Si2 0.198289 0.911903 0.897124
Si Si3 0.399196 0.492481 0.740375
Si Si4 0.999859 0.609378 0.175808
O O1 0.913069 0.262730 0.575544
O O2 0.991634 0.316919 0.767885
O O3 0.250000 0.896557 0.750000
O O4 0.141773 0.858228 0.903548
O O5 0.163292 0.981109 0.844336
O O6 0.455374 0.544627 0.782888
O O7 0.388980 0.496496 0.533115
O O8 0.435776 0.423458 0.760076
O O9 0.062350 0.562350 0.218085
#
# Coordination Sequence:
#
# PCOD9568540 Si02
#       4
#     8  16  16  16
#     4  12  22  32  54  85 111 136 180 224 274 332
#     4  11  23  38  55  77 110 149 187 225 268 321
#     4   8  16  34  57  76 102 140 180 229 277 313
#     4   9  17  32  55  81 108 137 175 225 276 326
#
# _framework density 17.185352000000002
#
# number of rings (size 3 to 8) (size 9 to 14) (size 15 to 20)
#    0.000    2.286    2.857    2.571    0.000    2.571 
#    0.000    4.286    0.000    3.857    0.000    1.000 
#    0.000    0.000    0.000    0.000    0.000    0.000 
#
# Total GULP energy -311850.498972 kJ/mol
# GULP energy per Si atom -5568.758910 kJ/mol
# Density = 1.714624 g / cm^3
# Si number density = 17.185352 Si / 1000 Ang^3
#
#
#
# Elastic Constant Matrix: (Units=GPa)
#
#
# Indices 1 2 3 4 5 6 
#
# 1 346.0802 351.0700 67.2868 0.0000 0.0000 0.0000
# 2 351.0700 346.0802 67.2868 0.0000 0.0000 0.0000
# 3 67.2868 67.2868 104.7071 0.0000 0.0000 0.0000
# 4 0.0000 0.0000 0.0000 420.0721 0.0000 0.0000
# 5 0.0000 0.0000 0.0000 0.0000 420.0721 0.0000
# 6 0.0000 0.0000 0.0000 0.0000 0.0000 20.8517
#
#
#
# Elastic Compliance Matrix: (Units=1/GPa)
#
#
# Indices 1 2 3 4 5 6 
#
# 1 -0.099386 0.101023 -0.001052 0.000000 0.000000 0.000000
# 2 0.101023 -0.099386 -0.001052 0.000000 0.000000 0.000000
# 3 -0.001052 -0.001052 0.010903 0.000000 0.000000 0.000000
# 4 0.000000 0.000000 0.000000 0.002381 0.000000 0.000000
# 5 0.000000 0.000000 0.000000 0.000000 0.002381 0.000000
# 6 0.000000 0.000000 0.000000 0.000000 0.000000 0.047958
#
#
# Mechanical properties :
#
#
# Convention : Reuss Voigt Hill
#
# Bulk Modulus (GPa) = 100.31350 196.46162 148.38756
# Shear Modulus (GPa) = -15.16697 192.94743 88.89023
#
# Velocity S-wave (km/s) = -2.97400 10.60745 7.19977
# Velocity P-wave (km/s) = 6.83413 16.26627 12.47591
#
# Compressibility (1/GPa) = 0.00996875
#
# Stress axis : x y z
#
# Youngs Moduli (GPa) = -10.06181 -10.06181 91.71847
#
# Poissons Ratio (x) = 1.01648 0.09652
# Poissons Ratio (y) = 1.01648 0.09652
# Poissons Ratio (z) = -0.01059 -0.01059
#
# Static dielectric constant tensor:
#      x y z
#    x 1.686800 0.000000 0.000000 
#    y 0.000000 1.686800 0.000000 
#    z 0.000000 0.000000 1.676600 
# 
# From -- ./inp_files/2622.got.cif
#   From: 2010.05.17/outbox.cif.g08.bks.cpg/sg134_2_cif.got.tgz:2622.got - 2010.05.20 12:42:49.
