data_PCOD9568876
_publ_section_title
;
Structure prediction by ZEFSAII (Michael W. Deem and Ramdas Pophale) SiO2 
 PCOD9568876
Probable space group: P 42/M B C
;
_chemical_formula_sum "Si O2"
_cell_formula_units_Z 52
_cell_length_a 13.007237
_cell_length_b 13.007237
_cell_length_c 14.623061
_cell_angle_alpha 90.000000
_cell_angle_beta 90.000000
_cell_angle_gamma 90.000000
_cell_volume 2474.049579
_symmetry_space_group_name_H-M "P 42/M B C"
_symmetry_group_IT_number 135
_symmetry_cell_setting 'tetragonal'
loop_
_space_group_symop_operation_xyz
x,y,z
-y,x,1/2+z
-x,-y,z
y,-x,1/2+z
1/2+x,1/2-y,-z
1/2-x,1/2+y,-z
1/2+y,1/2+x,1/2-z
1/2-y,1/2-x,1/2-z
-x,-y,-z
y,-x,1/2-z
x,y,-z
-y,x,1/2-z
1/2-x,1/2+y,z
1/2+x,1/2-y,z
1/2-y,1/2-x,1/2+z
1/2+y,1/2+x,1/2+z
loop_
_atom_site_type_symbol
_atom_site_label
_atom_site_fract_x
_atom_site_fract_y
_atom_site_fract_z
Si Si1 0.354697 0.084331 0.153076
Si Si2 0.129938 0.415920 0.604012
Si Si3 0.372647 0.634588 0.895222
Si Si4 0.500000 0.500000 0.250000
O O1 0.359586 0.140414 0.250000
O O2 0.460617 0.117790 0.105105
O O3 0.367177 0.961260 0.163485
O O4 0.248161 0.109416 0.106110
O O5 0.110673 0.379713 0.500000
O O6 0.245504 0.387511 0.628271
O O7 0.429472 0.567333 0.818414
O O8 0.411568 0.618599 0.000000
#
# Coordination Sequence:
#
# PCOD9568876 Si02
#       4
#    16  16  16   4
#     4  11  22  38  63  93 126 162 208 260 312 377
#     4  10  21  39  63  90 121 161 209 261 319 379
#     4  11  25  44  66  94 131 172 214 267 326 382
#     4  12  26  44  64  94 128 168 218 268 324 390
#
# _framework density 21.018170999999999
#
# number of rings (size 3 to 8) (size 9 to 14) (size 15 to 20)
#    0.000    1.231    0.000    7.846    0.000    7.385 
#    0.000    3.077    0.000    0.000    0.000    0.000 
#    0.000    0.000    0.000    0.000    0.000    0.000 
#
# Total GULP energy -290612.871475 kJ/mol
# GULP energy per Si atom -5588.709067 kJ/mol
# Density = 2.097033 g / cm^3
# Si number density = 21.018171 Si / 1000 Ang^3
#
#
#
# Elastic Constant Matrix: (Units=GPa)
#
#
# Indices 1 2 3 4 5 6 
#
# 1 128.7829 81.8921 29.8621 0.0000 0.0000 0.0000
# 2 81.8921 128.7824 29.8621 0.0000 0.0000 0.0000
# 3 29.8621 29.8621 100.8417 0.0000 0.0000 0.0000
# 4 0.0000 0.0000 0.0000 37.2424 0.0000 0.0000
# 5 0.0000 0.0000 0.0000 0.0000 37.2423 0.0000
# 6 0.0000 0.0000 0.0000 0.0000 0.0000 24.4716
#
#
#
# Elastic Compliance Matrix: (Units=1/GPa)
#
#
# Indices 1 2 3 4 5 6 
#
# 1 0.013254 -0.008072 -0.001534 0.000000 0.000000 0.000000
# 2 -0.008072 0.013254 -0.001534 0.000000 0.000000 0.000000
# 3 -0.001534 -0.001534 0.010825 0.000000 0.000000 0.000000
# 4 0.000000 0.000000 0.000000 0.026851 0.000000 0.000000
# 5 0.000000 0.000000 0.000000 0.000000 0.026851 0.000000
# 6 0.000000 0.000000 0.000000 0.000000 0.000000 0.040864
#
#
# Mechanical properties :
#
#
# Convention : Reuss Voigt Hill
#
# Bulk Modulus (GPa) = 66.44132 71.29328 68.86730
# Shear Modulus (GPa) = 31.40733 34.24398 32.82566
#
# Velocity S-wave (km/s) = 3.86980 4.04078 3.95622
# Velocity P-wave (km/s) = 7.18660 7.46753 7.32841
#
# Compressibility (1/GPa) = 0.01505088
#
# Stress axis : x y z
#
# Youngs Moduli (GPa) = 75.44935 75.44900 92.37607
#
# Poissons Ratio (x) = 0.60905 0.14174
# Poissons Ratio (y) = 0.60905 0.14175
# Poissons Ratio (z) = 0.11577 0.11577
#
# Static dielectric constant tensor:
#      x y z
#    x 1.719420 0.000000 0.000000 
#    y 0.000000 1.719420 0.000000 
#    z 0.000000 0.000000 1.796000 
# 
# From -- ./inp_files/3020.got.cif
#   From: 2010.05.17/outbox.cif.g08.bks.cpg/sg135_2_cif.got.tgz:3020.got - 2010.05.20 12:50:20.
