data_PCOD9568697
_publ_section_title
;
Structure prediction by ZEFSAII (Michael W. Deem and Ramdas Pophale) SiO2 
 PCOD9568697
Probable space group: P 42/M B C
;
_chemical_formula_sum "Si O2"
_cell_formula_units_Z 96
_cell_length_a 23.597157
_cell_length_b 23.597157
_cell_length_c 8.441341
_cell_angle_alpha 90.000000
_cell_angle_beta 90.000000
_cell_angle_gamma 90.000000
_cell_volume 4700.356611
_symmetry_space_group_name_H-M "P 42/M B C"
_symmetry_group_IT_number 135
_symmetry_cell_setting 'tetragonal'
loop_
_space_group_symop_operation_xyz
x,y,z
-y,x,1/2+z
-x,-y,z
y,-x,1/2+z
1/2+x,1/2-y,-z
1/2-x,1/2+y,-z
1/2+y,1/2+x,1/2-z
1/2-y,1/2-x,1/2-z
-x,-y,-z
y,-x,1/2-z
x,y,-z
-y,x,1/2-z
1/2-x,1/2+y,z
1/2+x,1/2-y,z
1/2-y,1/2-x,1/2+z
1/2+y,1/2+x,1/2+z
loop_
_atom_site_type_symbol
_atom_site_label
_atom_site_fract_x
_atom_site_fract_y
_atom_site_fract_z
Si Si1 0.174867 0.585078 0.192372
Si Si2 0.128068 0.797552 0.809082
Si Si3 0.656859 0.247237 0.692376
Si Si4 0.490247 0.326942 0.676099
Si Si5 0.200911 0.463693 0.820615
Si Si6 0.424576 0.466426 0.323152
O O1 0.122501 0.622501 0.250000
O O2 0.232229 0.616539 0.255681
O O3 0.168499 0.518925 0.248841
O O4 0.178408 0.584067 0.000000
O O5 0.188078 0.825914 0.761115
O O6 0.074458 0.829672 0.732806
O O7 0.124127 0.799823 0.000000
O O8 0.707803 0.207803 0.750000
O O9 0.652792 0.248454 0.500000
O O10 0.598153 0.216774 0.749789
O O11 0.496840 0.349934 0.500000
O O12 0.507456 0.262369 0.669812
O O13 0.535331 0.359193 0.783684
O O14 0.178731 0.453690 0.000000
O O15 0.438059 0.533122 0.299165
O O16 0.436699 0.450025 0.500000
#
# Coordination Sequence:
#
# PCOD9568697 Si02
#       6
#    16  16  16  16  16  16
#     4  10  19  34  57  81 109 141 180 229 277 331
#     4  10  20  33  53  81 112 146 184 224 270 328
#     4  10  21  37  56  80 109 146 182 218 270 327
#     4  10  20  35  55  78 107 143 184 231 280 328
#     4   8  18  36  55  76 106 144 177 214 273 334
#     4  11  22  36  51  71  99 138 187 236 282 328
#
# _framework density 20.423981999999999
#
# number of rings (size 3 to 8) (size 9 to 14) (size 15 to 20)
#    0.000    2.167    0.000    5.000    2.333    2.667 
#    0.000    5.000    0.000    0.500    0.000    3.500 
#    0.000    0.000    0.000    0.000    0.000    0.000 
#
# Total GULP energy -534427.145262 kJ/mol
# GULP energy per Si atom -5566.949430 kJ/mol
# Density = 2.037750 g / cm^3
# Si number density = 20.423982 Si / 1000 Ang^3
#
#
#
# Elastic Constant Matrix: (Units=GPa)
#
#
# Indices 1 2 3 4 5 6 
#
# 1 65.5263 2.7756 -4.4036 0.0000 0.0000 0.0000
# 2 2.7756 65.5263 -4.4036 0.0000 0.0000 0.0000
# 3 -4.4036 -4.4036 39.4041 0.0000 0.0000 0.0000
# 4 0.0000 0.0000 0.0000 27.2682 0.0000 0.0000
# 5 0.0000 0.0000 0.0000 0.0000 27.2682 0.0000
# 6 0.0000 0.0000 0.0000 0.0000 0.0000 22.3371
#
#
#
# Elastic Compliance Matrix: (Units=1/GPa)
#
#
# Indices 1 2 3 4 5 6 
#
# 1 0.015396 -0.000541 0.001660 0.000000 0.000000 0.000000
# 2 -0.000541 0.015396 0.001660 0.000000 0.000000 0.000000
# 3 0.001660 0.001660 0.025749 0.000000 0.000000 0.000000
# 4 0.000000 0.000000 0.000000 0.036673 0.000000 0.000000
# 5 0.000000 0.000000 0.000000 0.000000 0.036673 0.000000
# 6 0.000000 0.000000 0.000000 0.000000 0.000000 0.044769
#
#
# Mechanical properties :
#
#
# Convention : Reuss Voigt Hill
#
# Bulk Modulus (GPa) = 16.10321 17.59929 16.85125
# Shear Modulus (GPa) = 26.34425 27.14057 26.74241
#
# Velocity S-wave (km/s) = 3.59537 3.64931 3.62244
# Velocity P-wave (km/s) = 5.01370 5.13734 5.07589
#
# Compressibility (1/GPa) = 0.06209940
#
# Stress axis : x y z
#
# Youngs Moduli (GPa) = 64.95396 64.95396 38.83630
#
# Poissons Ratio (x) = 0.03511 -0.06447
# Poissons Ratio (y) = 0.03511 -0.06447
# Poissons Ratio (z) = -0.10783 -0.10783
#
# Static dielectric constant tensor:
#      x y z
#    x 1.791610 0.000000 0.000000 
#    y 0.000000 1.791610 0.000000 
#    z 0.000000 0.000000 1.767050 
# 
# From -- ./inp_files/1267.got.cif
#   From: 2010.05.17/outbox.cif.g08.bks.cpg/sg135_1_cif.got.tgz:1267.got - 2010.05.20 12:50:20.
