data_PCOD9568637
_publ_section_title
;
Structure prediction by ZEFSAII (Michael W. Deem and Ramdas Pophale) SiO2 
 PCOD9568637
Probable space group: P 42/M B C
;
_chemical_formula_sum "Si O2"
_cell_formula_units_Z 64
_cell_length_a 10.092604
_cell_length_b 10.092604
_cell_length_c 22.848805
_cell_angle_alpha 90.000000
_cell_angle_beta 90.000000
_cell_angle_gamma 90.000000
_cell_volume 2327.394255
_symmetry_space_group_name_H-M "P 42/M B C"
_symmetry_group_IT_number 135
_symmetry_cell_setting 'tetragonal'
loop_
_space_group_symop_operation_xyz
x,y,z
-y,x,1/2+z
-x,-y,z
y,-x,1/2+z
1/2+x,1/2-y,-z
1/2-x,1/2+y,-z
1/2+y,1/2+x,1/2-z
1/2-y,1/2-x,1/2-z
-x,-y,-z
y,-x,1/2-z
x,y,-z
-y,x,1/2-z
1/2-x,1/2+y,z
1/2+x,1/2-y,z
1/2-y,1/2-x,1/2+z
1/2+y,1/2+x,1/2+z
loop_
_atom_site_type_symbol
_atom_site_label
_atom_site_fract_x
_atom_site_fract_y
_atom_site_fract_z
Si Si1 0.730748 0.499503 0.374091
Si Si2 0.989689 0.212979 0.378371
Si Si3 0.402545 0.740273 0.500000
Si Si4 0.224291 0.002281 0.752179
Si Si5 0.992831 0.735867 0.000000
O O1 0.651409 0.638300 0.380638
O O2 0.609746 0.394112 0.372565
O O3 0.795720 0.493831 0.310247
O O4 0.812007 0.475916 0.433573
O O5 0.019765 0.273429 0.441142
O O6 0.998797 0.287358 0.316398
O O7 0.272442 0.833114 0.500000
O O8 0.367802 0.583899 0.500000
O O9 0.128730 0.874196 0.747162
#
# Coordination Sequence:
#
# PCOD9568637 Si02
#       5
#    16  16   8  16   8
#     4   8  13  23  41  62  81 104 138 180 225 272
#     4   8  13  23  41  62  81 104 138 180 225 272
#     4  10  19  29  41  59  85 116 148 184 228 280
#     4   7  10  18  35  60  84 100 123 173 232 270
#     4  10  19  29  41  59  85 116 148 184 228 280
#
# _framework density 27.498564999999999
#
# number of rings (size 3 to 8) (size 9 to 14) (size 15 to 20)
#    0.000    3.750    0.000    3.750    0.000    3.000 
#    0.000    1.250    0.000    3.000    0.000    0.000 
#    0.000    0.000    0.000   50.000    0.000    3.000 
#
# Total GULP energy -356681.359509 kJ/mol
# GULP energy per Si atom -5573.146242 kJ/mol
# Density = 2.743598 g / cm^3
# Si number density = 27.498565 Si / 1000 Ang^3
#
#
#
# Elastic Constant Matrix: (Units=GPa)
#
#
# Indices 1 2 3 4 5 6 
#
# 1 61.7614 81.5050 33.9034 0.0000 0.0000 0.0000
# 2 81.5050 61.7614 33.9034 0.0000 0.0000 0.0000
# 3 33.9034 33.9034 432.3735 0.0000 0.0000 0.0000
# 4 0.0000 0.0000 0.0000 -49.6198 0.0000 0.0000
# 5 0.0000 0.0000 0.0000 0.0000 -49.6198 0.0000
# 6 0.0000 0.0000 0.0000 0.0000 0.0000 65.1657
#
#
#
# Elastic Compliance Matrix: (Units=1/GPa)
#
#
# Indices 1 2 3 4 5 6 
#
# 1 -0.021700 0.028949 -0.000568 0.000000 0.000000 0.000000
# 2 0.028949 -0.021700 -0.000568 0.000000 0.000000 0.000000
# 3 -0.000568 -0.000568 0.002402 0.000000 0.000000 0.000000
# 4 0.000000 0.000000 0.000000 -0.020153 0.000000 0.000000
# 5 0.000000 0.000000 0.000000 0.000000 -0.020153 0.000000
# 6 0.000000 0.000000 0.000000 0.000000 0.000000 0.015345
#
#
# Mechanical properties :
#
#
# Convention : Reuss Voigt Hill
#
# Bulk Modulus (GPa) = 68.36969 94.94665 81.65817
# Shear Modulus (GPa) = -42.84190 20.29085 -11.27552
#
# Velocity S-wave (km/s) = -3.95139 2.71936 -2.02714
# Velocity P-wave (km/s) = 2.02459 6.66803 4.92756
#
# Compressibility (1/GPa) = 0.01462636
#
# Stress axis : x y z
#
# Youngs Moduli (GPa) = -46.08285 -46.08285 416.32734
#
# Poissons Ratio (x) = 1.33406 0.23665
# Poissons Ratio (y) = 1.33406 0.23665
# Poissons Ratio (z) = -0.02619 -0.02619
#
# Static dielectric constant tensor:
#      x y z
#    x 2.077320 0.000000 0.000000 
#    y 0.000000 2.077320 0.000000 
#    z 0.000000 0.000000 2.163480 
# 
# From -- ./inp_files/5133.got.cif
#   From: 2010.05.17/outbox.cif.g08.bks.cpg/sg135_3_cif.got.tgz:5133.got - 2010.05.20 12:50:20.
