data_PCOD9568107
_publ_section_title
;
Structure prediction by ZEFSAII (Michael W. Deem and Ramdas Pophale) SiO2 
 PCOD9568107
Probable space group: P 42/N N M
;
_chemical_formula_sum "Si O2"
_cell_formula_units_Z 112
_cell_length_a 14.316810
_cell_length_b 14.316810
_cell_length_c 26.453976
_cell_angle_alpha 90.000000
_cell_angle_beta 90.000000
_cell_angle_gamma 90.000000
_cell_volume 5422.299200
_symmetry_space_group_name_H-M "P 42/N N M"
_symmetry_group_IT_number 134
_space_group.IT_coordinate_system_code '2'
_symmetry_cell_setting 'tetragonal'
loop_
_space_group_symop_operation_xyz
x,y,z
1/2-y,x,1/2+z
1/2-x,1/2-y,z
y,1/2-x,1/2+z
x,1/2-y,1/2-z
1/2-x,y,1/2-z
y,x,-z
1/2-y,1/2-x,-z
-x,-y,-z
1/2+y,-x,1/2-z
1/2+x,1/2+y,-z
-y,1/2+x,1/2-z
-x,1/2+y,1/2+z
1/2+x,-y,1/2+z
-y,-x,z
1/2+y,1/2+x,z
loop_
_atom_site_type_symbol
_atom_site_label
_atom_site_fract_x
_atom_site_fract_y
_atom_site_fract_z
Si Si1 0.093104 0.437161 0.371457
Si Si2 0.464109 0.118779 0.850446
Si Si3 0.593279 0.561536 0.762471
Si Si4 0.276417 0.452590 0.611157
Si Si5 0.727605 0.076138 0.588796
Si Si6 0.899140 0.248319 0.028547
Si Si7 0.292717 0.937338 0.700215
O O1 0.142950 0.449824 0.316554
O O2 0.089356 0.327640 0.382274
O O3 0.152196 0.493013 0.411893
O O4 0.993548 0.493548 0.368333
O O5 0.432679 0.139770 0.792279
O O6 0.367873 0.110626 0.882275
O O7 0.537360 0.191536 0.874855
O O8 0.519082 0.019082 0.851349
O O9 0.529879 0.470122 0.757965
O O10 0.523707 0.647381 0.775922
O O11 0.270663 0.508176 0.559050
O O12 0.278288 0.524948 0.658693
O O13 0.669047 0.169047 0.605237
O O14 0.759729 0.090928 0.531593
O O15 0.854539 0.145462 0.037645
O O16 0.822401 0.322401 0.046337
O O17 0.250000 0.894237 0.750000
O O18 0.363202 0.863202 0.676202
#
# Coordination Sequence:
#
# PCOD9568107 Si02
#       7
#    16  16  16  16  16  16  16
#     4   9  19  37  61  87 119 159 201 247 300 361
#     4  11  22  36  59  87 120 161 198 245 308 366
#     4   8  16  32  53  81 116 153 195 241 292 354
#     4  11  21  35  58  88 124 157 197 239 293 363
#     4  10  23  42  61  82 110 151 209 264 311 357
#     4  10  21  38  60  86 119 159 204 255 302 352
#     4  10  18  30  49  78 121 165 201 236 283 349
#
# _framework density 20.655443999999999
#
# number of rings (size 3 to 8) (size 9 to 14) (size 15 to 20)
#    0.000    2.143    1.429    3.000    0.000    3.857 
#    0.000    3.571    0.000    4.286    0.000    8.000 
#    0.000    0.000    0.000    0.000    0.000    0.000 
#
# Total GULP energy -623705.271563 kJ/mol
# GULP energy per Si atom -5568.797068 kJ/mol
# Density = 2.060843 g / cm^3
# Si number density = 20.655444 Si / 1000 Ang^3
#
#
#
# Elastic Constant Matrix: (Units=GPa)
#
#
# Indices 1 2 3 4 5 6 
#
# 1 75.6893 38.0709 28.5344 0.0000 0.0000 0.0000
# 2 38.0709 75.6893 28.5344 0.0000 0.0000 0.0000
# 3 28.5344 28.5344 78.0916 0.0000 0.0000 0.0000
# 4 0.0000 0.0000 0.0000 14.2429 0.0000 0.0000
# 5 0.0000 0.0000 0.0000 0.0000 14.2429 0.0000
# 6 0.0000 0.0000 0.0000 0.0000 0.0000 25.8167
#
#
#
# Elastic Compliance Matrix: (Units=1/GPa)
#
#
# Indices 1 2 3 4 5 6 
#
# 1 0.018673 -0.007910 -0.003933 0.000000 0.000000 0.000000
# 2 -0.007910 0.018673 -0.003933 0.000000 0.000000 0.000000
# 3 -0.003933 -0.003933 0.015680 0.000000 0.000000 0.000000
# 4 0.000000 0.000000 0.000000 0.070211 0.000000 0.000000
# 5 0.000000 0.000000 0.000000 0.000000 0.070211 0.000000
# 6 0.000000 0.000000 0.000000 0.000000 0.000000 0.038735
#
#
# Mechanical properties :
#
#
# Convention : Reuss Voigt Hill
#
# Bulk Modulus (GPa) = 46.56625 46.63885 46.60255
# Shear Modulus (GPa) = 18.45761 19.81584 19.13673
#
# Velocity S-wave (km/s) = 2.99255 3.10070 3.04711
# Velocity P-wave (km/s) = 5.87654 5.95379 5.91529
#
# Compressibility (1/GPa) = 0.02147478
#
# Stress axis : x y z
#
# Youngs Moduli (GPa) = 53.55310 53.55310 63.77703
#
# Poissons Ratio (x) = 0.42359 0.25083
# Poissons Ratio (y) = 0.42359 0.25083
# Poissons Ratio (z) = 0.21062 0.21062
#
# Static dielectric constant tensor:
#      x y z
#    x 1.785430 0.000000 0.000000 
#    y 0.000000 1.785430 0.000000 
#    z 0.000000 0.000000 1.756960 
# 
# From -- ./inp_files/10159.got.cif
#   From: 2010.05.17/outbox.cif.g08.bks.cpg/sg134_6_cif.got.tgz:10159.got - 2010.05.20 12:42:49.
