data_PCOD9568537
_publ_section_title
;
Structure prediction by ZEFSAII (Michael W. Deem and Ramdas Pophale) SiO2 
 PCOD9568537
Probable space group: P 42/N N M
;
_chemical_formula_sum "Si O2"
_cell_formula_units_Z 64
_cell_length_a 12.440376
_cell_length_b 12.440376
_cell_length_c 19.996988
_cell_angle_alpha 90.000000
_cell_angle_beta 90.000000
_cell_angle_gamma 90.000000
_cell_volume 3094.792954
_symmetry_space_group_name_H-M "P 42/N N M"
_symmetry_group_IT_number 134
_space_group.IT_coordinate_system_code '2'
_symmetry_cell_setting 'tetragonal'
loop_
_space_group_symop_operation_xyz
x,y,z
1/2-y,x,1/2+z
1/2-x,1/2-y,z
y,1/2-x,1/2+z
x,1/2-y,1/2-z
1/2-x,y,1/2-z
y,x,-z
1/2-y,1/2-x,-z
-x,-y,-z
1/2+y,-x,1/2-z
1/2+x,1/2+y,-z
-y,1/2+x,1/2-z
-x,1/2+y,1/2+z
1/2+x,-y,1/2+z
-y,-x,z
1/2+y,1/2+x,z
loop_
_atom_site_type_symbol
_atom_site_label
_atom_site_fract_x
_atom_site_fract_y
_atom_site_fract_z
Si Si1 0.527274 0.305167 0.314295
Si Si2 0.027482 0.352953 0.430035
Si Si3 0.231686 0.420534 0.047075
Si Si4 0.025896 0.153651 0.695923
O O1 0.576444 0.250000 0.250000
O O2 0.606808 0.393193 0.344509
O O3 0.502742 0.213003 0.365841
O O4 0.421206 0.370005 0.291978
O O5 0.994819 0.282696 0.494869
O O6 0.157374 0.360463 0.431553
O O7 0.966712 0.466712 0.430274
O O8 0.184961 0.463288 0.116951
O O9 0.149215 0.350786 0.000000
O O10 0.024370 0.250000 0.750000
O O11 0.921109 0.078892 0.705036
#
# Coordination Sequence:
#
# PCOD9568537 Si02
#       4
#    16  16  16  16
#     4  11  24  41  63  93 131 174 219 272 334 404
#     4  11  23  39  65  99 133 170 223 282 333 398
#     4  11  22  41  70  97 131 177 227 280 339 406
#     4  11  26  45  68  98 133 175 225 281 343 411
#
# _framework density 20.679897
#
# number of rings (size 3 to 8) (size 9 to 14) (size 15 to 20)
#    0.000    1.000    2.500    5.250    0.000   10.000 
#    0.000    0.000    0.000    0.000    0.000    0.000 
#    0.000    0.000    0.000    0.000    0.000    0.000 
#
# Total GULP energy -356815.226190 kJ/mol
# GULP energy per Si atom -5575.237909 kJ/mol
# Density = 2.063283 g / cm^3
# Si number density = 20.679897 Si / 1000 Ang^3
#
#
#
# Elastic Constant Matrix: (Units=GPa)
#
#
# Indices 1 2 3 4 5 6 
#
# 1 72.6418 46.7530 44.5173 0.0000 0.0000 0.0000
# 2 46.7530 72.6423 44.5172 0.0000 0.0000 0.0000
# 3 44.5173 44.5172 136.6363 0.0000 0.0000 0.0000
# 4 0.0000 0.0000 0.0000 8.3794 0.0000 0.0000
# 5 0.0000 0.0000 0.0000 0.0000 8.3797 0.0000
# 6 0.0000 0.0000 0.0000 0.0000 0.0000 13.0689
#
#
#
# Elastic Compliance Matrix: (Units=1/GPa)
#
#
# Indices 1 2 3 4 5 6 
#
# 1 0.024845 -0.013781 -0.003605 0.000000 0.000000 0.000000
# 2 -0.013781 0.024845 -0.003605 0.000000 0.000000 0.000000
# 3 -0.003605 -0.003605 0.009668 0.000000 0.000000 0.000000
# 4 0.000000 0.000000 0.000000 0.119341 0.000000 0.000000
# 5 0.000000 0.000000 0.000000 0.000000 0.119335 0.000000
# 6 0.000000 0.000000 0.000000 0.000000 0.000000 0.076517
#
#
# Mechanical properties :
#
#
# Convention : Reuss Voigt Hill
#
# Bulk Modulus (GPa) = 57.54988 61.49949 59.52468
# Shear Modulus (GPa) = 11.83925 15.70780 13.77352
#
# Velocity S-wave (km/s) = 2.39529 2.75902 2.58356
# Velocity P-wave (km/s) = 5.96148 6.32083 6.14378
#
# Compressibility (1/GPa) = 0.01737623
#
# Stress axis : x y z
#
# Youngs Moduli (GPa) = 40.24943 40.24976 103.43915
#
# Poissons Ratio (x) = 0.55470 0.37286
# Poissons Ratio (y) = 0.55469 0.37285
# Poissons Ratio (z) = 0.14508 0.14508
#
# Static dielectric constant tensor:
#      x y z
#    x 1.766180 0.000000 0.000000 
#    y 0.000000 1.766180 0.000000 
#    z 0.000000 0.000000 1.782320 
# 
# From -- ./inp_files/8702.got.cif
#   From: 2010.05.17/outbox.cif.g08.bks.cpg/sg134_5_cif.got.tgz:8702.got - 2010.05.20 12:42:49.
