data_PCOD9568501
_publ_section_title
;
Structure prediction by ZEFSAII (Michael W. Deem and Ramdas Pophale) SiO2 
 PCOD9568501
Probable space group: P 42/N N M
;
_chemical_formula_sum "Si O2"
_cell_formula_units_Z 48
_cell_length_a 10.807682
_cell_length_b 10.807682
_cell_length_c 18.751799
_cell_angle_alpha 90.000000
_cell_angle_beta 90.000000
_cell_angle_gamma 90.000000
_cell_volume 2190.322450
_symmetry_space_group_name_H-M "P 42/N N M"
_symmetry_group_IT_number 134
_space_group.IT_coordinate_system_code '2'
_symmetry_cell_setting 'tetragonal'
loop_
_space_group_symop_operation_xyz
x,y,z
1/2-y,x,1/2+z
1/2-x,1/2-y,z
y,1/2-x,1/2+z
x,1/2-y,1/2-z
1/2-x,y,1/2-z
y,x,-z
1/2-y,1/2-x,-z
-x,-y,-z
1/2+y,-x,1/2-z
1/2+x,1/2+y,-z
-y,1/2+x,1/2-z
-x,1/2+y,1/2+z
1/2+x,-y,1/2+z
-y,-x,z
1/2+y,1/2+x,z
loop_
_atom_site_type_symbol
_atom_site_label
_atom_site_fract_x
_atom_site_fract_y
_atom_site_fract_z
Si Si1 0.899718 0.763942 0.334660
Si Si2 0.641950 0.358051 0.903706
Si Si3 0.496229 0.698271 0.673695
Si Si4 0.643601 0.143601 0.430394
O O1 0.750000 0.750000 0.350220
O O2 0.919071 0.750000 0.250000
O O3 0.010961 0.688725 0.371008
O O4 0.904097 0.908526 0.353033
O O5 0.750000 0.250000 0.894662
O O6 0.618768 0.381233 0.987547
O O7 0.539105 0.750000 0.750000
O O8 0.367239 0.632762 0.689663
O O9 0.470088 0.801945 0.614977
O O10 0.750000 0.250000 0.431783
#
# Coordination Sequence:
#
# PCOD9568501 Si02
#       4
#    16   8  16   8
#     4  11  25  42  67 100 138 186 245 299 354 430
#     4  11  26  47  71 103 148 194 237 294 374 448
#     4  11  20  37  69  99 134 182 243 303 357 422
#     4   9  22  41  67 107 139 181 240 297 372 444
#
# _framework density 21.914581999999999
#
# number of rings (size 3 to 8) (size 9 to 14) (size 15 to 20)
#    0.000    1.333    5.000    1.000    4.667    2.667 
#    0.000   10.000    0.000    0.000    0.000    0.000 
#    0.000    0.000    0.000    0.000    0.000    0.000 
#
# Total GULP energy -267312.283334 kJ/mol
# GULP energy per Si atom -5569.005903 kJ/mol
# Density = 2.186470 g / cm^3
# Si number density = 21.914582 Si / 1000 Ang^3
#
#
#
# Elastic Constant Matrix: (Units=GPa)
#
#
# Indices 1 2 3 4 5 6 
#
# 1 145.5754 82.8732 80.0433 0.0000 0.0000 0.0000
# 2 82.8732 145.5754 80.0433 0.0000 0.0000 0.0000
# 3 80.0433 80.0433 161.7416 0.0000 0.0000 0.0000
# 4 0.0000 0.0000 0.0000 4.3147 0.0000 0.0000
# 5 0.0000 0.0000 0.0000 0.0000 4.3147 0.0000
# 6 0.0000 0.0000 0.0000 0.0000 0.0000 110.8261
#
#
#
# Elastic Compliance Matrix: (Units=1/GPa)
#
#
# Indices 1 2 3 4 5 6 
#
# 1 0.011325 -0.004624 -0.003316 0.000000 0.000000 0.000000
# 2 -0.004624 0.011325 -0.003316 0.000000 0.000000 0.000000
# 3 -0.003316 -0.003316 0.009465 0.000000 0.000000 0.000000
# 4 0.000000 0.000000 0.000000 0.231764 0.000000 0.000000
# 5 0.000000 0.000000 0.000000 0.000000 0.231764 0.000000
# 6 0.000000 0.000000 0.000000 0.000000 0.000000 0.009023
#
#
# Mechanical properties :
#
#
# Convention : Reuss Voigt Hill
#
# Bulk Modulus (GPa) = 104.14193 104.31248 104.22720
# Shear Modulus (GPa) = 9.42723 37.88662 23.65693
#
# Velocity S-wave (km/s) = 2.07633 4.16243 3.28915
# Velocity P-wave (km/s) = 7.30569 8.41451 7.87963
#
# Compressibility (1/GPa) = 0.00960228
#
# Stress axis : x y z
#
# Youngs Moduli (GPa) = 88.30131 88.30131 105.65080
#
# Poissons Ratio (x) = 0.40826 0.35038
# Poissons Ratio (y) = 0.40826 0.35038
# Poissons Ratio (z) = 0.29284 0.29284
#
# Static dielectric constant tensor:
#      x y z
#    x 2.005530 0.000000 0.000000 
#    y 0.000000 2.005530 0.000000 
#    z 0.000000 0.000000 1.750280 
# 
# From -- ./inp_files/7240.got.cif
#   From: 2010.05.17/outbox.cif.g08.bks.cpg/sg134_4_cif.got.tgz:7240.got - 2010.05.20 12:42:49.
