data_PCOD9568164
_publ_section_title
;
Structure prediction by ZEFSAII (Michael W. Deem and Ramdas Pophale) SiO2 
 PCOD9568164
Probable space group: P 42/N N M
;
_chemical_formula_sum "Si O2"
_cell_formula_units_Z 72
_cell_length_a 23.890031
_cell_length_b 23.890031
_cell_length_c 7.931928
_cell_angle_alpha 90.000000
_cell_angle_beta 90.000000
_cell_angle_gamma 90.000000
_cell_volume 4527.017673
_symmetry_space_group_name_H-M "P 42/N N M"
_symmetry_group_IT_number 134
_space_group.IT_coordinate_system_code '2'
_symmetry_cell_setting 'tetragonal'
loop_
_space_group_symop_operation_xyz
x,y,z
1/2-y,x,1/2+z
1/2-x,1/2-y,z
y,1/2-x,1/2+z
x,1/2-y,1/2-z
1/2-x,y,1/2-z
y,x,-z
1/2-y,1/2-x,-z
-x,-y,-z
1/2+y,-x,1/2-z
1/2+x,1/2+y,-z
-y,1/2+x,1/2-z
-x,1/2+y,1/2+z
1/2+x,-y,1/2+z
-y,-x,z
1/2+y,1/2+x,z
loop_
_atom_site_type_symbol
_atom_site_label
_atom_site_fract_x
_atom_site_fract_y
_atom_site_fract_z
Si Si1 0.367152 0.539534 0.727709
Si Si2 0.131495 0.538174 0.172174
Si Si3 0.953816 0.544847 0.298156
Si Si4 0.750000 0.078313 0.750000
Si Si5 0.787175 0.380274 0.405933
O O1 0.416647 0.583354 0.774496
O O2 0.358968 0.544010 0.527754
O O3 0.392392 0.477856 0.755101
O O4 0.315126 0.561650 0.836681
O O5 0.088695 0.588695 0.224152
O O6 0.101080 0.480221 0.222218
O O7 0.191954 0.544643 0.254629
O O8 0.955362 0.544639 0.500000
O O9 0.997755 0.497755 0.233226
O O10 0.748150 0.112638 0.575900
O O11 0.750000 0.359775 0.250000
O O12 0.836764 0.336764 0.439181
#
# Coordination Sequence:
#
# PCOD9568164 Si02
#       5
#    16  16  16   8  16
#     4   9  17  32  51  70  93 120 156 204 253 301
#     4  10  19  31  48  70  95 127 165 200 241 295
#     4   9  16  27  46  72  96 118 151 194 243 302
#     4  12  22  34  52  71  96 130 167 204 250 294
#     4  11  23  38  53  69  93 127 170 217 258 294
#
# _framework density 15.90451
#
# number of rings (size 3 to 8) (size 9 to 14) (size 15 to 20)
#    0.000    2.000    2.222    2.667    0.000    7.333 
#    0.000    0.000    0.000    3.000    0.000    0.000 
#    0.000    0.000    0.000    1.000    7.556    3.111 
#
# Total GULP energy -400974.081486 kJ/mol
# GULP energy per Si atom -5569.084465 kJ/mol
# Density = 1.586831 g / cm^3
# Si number density = 15.904510 Si / 1000 Ang^3
#
#
#
# Elastic Constant Matrix: (Units=GPa)
#
#
# Indices 1 2 3 4 5 6 
#
# 1 33.3797 27.2375 13.2562 0.0000 0.0000 0.0000
# 2 27.2375 33.3799 13.2566 0.0000 0.0000 0.0000
# 3 13.2562 13.2566 73.2195 0.0000 0.0000 0.0000
# 4 0.0000 0.0000 0.0000 21.6700 0.0000 0.0000
# 5 0.0000 0.0000 0.0000 0.0000 21.6698 0.0000
# 6 0.0000 0.0000 0.0000 0.0000 0.0000 9.4112
#
#
#
# Elastic Compliance Matrix: (Units=1/GPa)
#
#
# Indices 1 2 3 4 5 6 
#
# 1 0.090361 -0.072446 -0.003243 0.000000 0.000000 0.000000
# 2 -0.072446 0.090361 -0.003244 0.000000 0.000000 0.000000
# 3 -0.003243 -0.003244 0.014832 0.000000 0.000000 0.000000
# 4 0.000000 0.000000 0.000000 0.046147 0.000000 0.000000
# 5 0.000000 0.000000 0.000000 0.000000 0.046147 0.000000
# 6 0.000000 0.000000 0.000000 0.000000 0.000000 0.106257
#
#
# Mechanical properties :
#
#
# Convention : Reuss Voigt Hill
#
# Bulk Modulus (GPa) = 26.53306 27.49775 27.01541
# Shear Modulus (GPa) = 8.85687 16.29879 12.57783
#
# Velocity S-wave (km/s) = 2.36239 3.20471 2.81523
# Velocity P-wave (km/s) = 4.91529 5.56959 5.25264
#
# Compressibility (1/GPa) = 0.03768883
#
# Stress axis : x y z
#
# Youngs Moduli (GPa) = 11.06668 11.06671 67.42143
#
# Poissons Ratio (x) = 0.80173 0.21866
# Poissons Ratio (y) = 0.80173 0.21872
# Poissons Ratio (z) = 0.03589 0.03590
#
# Static dielectric constant tensor:
#      x y z
#    x 1.557360 0.000000 0.000000 
#    y 0.000000 1.557360 0.000000 
#    z 0.000000 0.000000 1.578460 
# 
# From -- ./inp_files/3052.got.cif
#   From: 2010.05.17/outbox.cif.g08.bks.cpg/sg134_2_cif.got.tgz:3052.got - 2010.05.20 12:42:49.
