data_PCOD9568219
_publ_section_title
;
Structure prediction by ZEFSAII (Michael W. Deem and Ramdas Pophale) SiO2 
 PCOD9568219
Probable space group: P 42/N N M
;
_chemical_formula_sum "Si O2"
_cell_formula_units_Z 72
_cell_length_a 13.256821
_cell_length_b 13.256821
_cell_length_c 19.826213
_cell_angle_alpha 90.000000
_cell_angle_beta 90.000000
_cell_angle_gamma 90.000000
_cell_volume 3484.324159
_symmetry_space_group_name_H-M "P 42/N N M"
_symmetry_group_IT_number 134
_space_group.IT_coordinate_system_code '2'
_symmetry_cell_setting 'tetragonal'
loop_
_space_group_symop_operation_xyz
x,y,z
1/2-y,x,1/2+z
1/2-x,1/2-y,z
y,1/2-x,1/2+z
x,1/2-y,1/2-z
1/2-x,y,1/2-z
y,x,-z
1/2-y,1/2-x,-z
-x,-y,-z
1/2+y,-x,1/2-z
1/2+x,1/2+y,-z
-y,1/2+x,1/2-z
-x,1/2+y,1/2+z
1/2+x,-y,1/2+z
-y,-x,z
1/2+y,1/2+x,z
loop_
_atom_site_type_symbol
_atom_site_label
_atom_site_fract_x
_atom_site_fract_y
_atom_site_fract_z
Si Si1 0.808310 0.561134 0.856124
Si Si2 0.393983 0.052733 0.286350
Si Si3 0.479636 0.750000 0.750000
Si Si4 0.491164 0.827050 0.889887
Si Si5 0.245559 0.584261 0.476767
O O1 0.852010 0.515646 0.786270
O O2 0.696624 0.592816 0.832499
O O3 0.786823 0.483072 0.915649
O O4 0.891627 0.644006 0.877340
O O5 0.459740 0.149317 0.268029
O O6 0.464224 0.964224 0.315493
O O7 0.437995 0.778907 0.823670
O O8 0.432666 0.932666 0.902908
O O9 0.477335 0.754692 0.953651
O O10 0.325007 0.674994 0.484658
O O11 0.137328 0.637328 0.465782
#
# Coordination Sequence:
#
# PCOD9568219 Si02
#       5
#    16  16   8  16  16
#     4  10  19  34  57  80 113 149 186 236 291 349
#     4  10  21  35  56  86 113 146 192 237 289 352
#     4  10  20  37  58  77 110 148 186 235 284 331
#     4  10  21  36  57  83 110 149 196 236 286 356
#     4  10  20  34  54  82 115 150 190 238 292 349
#
# _framework density 20.663979000000001
#
# number of rings (size 3 to 8) (size 9 to 14) (size 15 to 20)
#    0.000    2.000    0.000    5.333    0.000   10.667 
#    0.000    1.111    0.000   19.000    0.000    0.000 
#    0.000    0.000    0.000    0.000    0.000    0.000 
#
# Total GULP energy -400805.318742 kJ/mol
# GULP energy per Si atom -5566.740538 kJ/mol
# Density = 2.061695 g / cm^3
# Si number density = 20.663979 Si / 1000 Ang^3
#
#
#
# Elastic Constant Matrix: (Units=GPa)
#
#
# Indices 1 2 3 4 5 6 
#
# 1 57.2082 8.3437 42.1322 0.0000 0.0000 0.0000
# 2 8.3437 57.2082 42.1322 0.0000 0.0000 0.0000
# 3 42.1322 42.1322 110.2475 0.0000 0.0000 0.0000
# 4 0.0000 0.0000 0.0000 33.7219 0.0000 0.0000
# 5 0.0000 0.0000 0.0000 0.0000 33.7219 0.0000
# 6 0.0000 0.0000 0.0000 0.0000 0.0000 -11.0641
#
#
#
# Elastic Compliance Matrix: (Units=1/GPa)
#
#
# Indices 1 2 3 4 5 6 
#
# 1 0.025225 0.004760 -0.011459 0.000000 0.000000 0.000000
# 2 0.004760 0.025225 -0.011459 0.000000 0.000000 0.000000
# 3 -0.011459 -0.011459 0.017829 0.000000 0.000000 0.000000
# 4 0.000000 0.000000 0.000000 0.029654 0.000000 0.000000
# 5 0.000000 0.000000 0.000000 0.000000 0.029654 0.000000
# 6 0.000000 0.000000 0.000000 0.000000 0.000000 -0.090383
#
#
# Mechanical properties :
#
#
# Convention : Reuss Voigt Hill
#
# Bulk Modulus (GPa) = 31.28616 45.54224 38.41420
# Shear Modulus (GPa) = 59.39945 20.07966 39.73955
#
# Velocity S-wave (km/s) = 5.36729 3.12063 4.39011
# Velocity P-wave (km/s) = 7.32009 5.92214 6.65791
#
# Compressibility (1/GPa) = 0.03196301
#
# Stress axis : x y z
#
# Youngs Moduli (GPa) = 39.64300 39.64300 56.08824
#
# Poissons Ratio (x) = -0.18872 0.64273
# Poissons Ratio (y) = -0.18872 0.64273
# Poissons Ratio (z) = 0.45428 0.45428
#
# Static dielectric constant tensor:
#      x y z
#    x 1.746400 0.000000 0.000000 
#    y 0.000000 1.746400 0.000000 
#    z 0.000000 0.000000 1.783550 
# 
# From -- ./inp_files/7630.got.cif
#   From: 2010.05.17/outbox.cif.g08.bks.cpg/sg134_4_cif.got.tgz:7630.got - 2010.05.20 12:42:49.
