data_PCOD9568372
_publ_section_title
;
Structure prediction by ZEFSAII (Michael W. Deem and Ramdas Pophale) SiO2 
 PCOD9568372
Probable space group: P 42/N N M
;
_chemical_formula_sum "Si O2"
_cell_formula_units_Z 88
_cell_length_a 12.411570
_cell_length_b 12.411570
_cell_length_c 29.912921
_cell_angle_alpha 90.000000
_cell_angle_beta 90.000000
_cell_angle_gamma 90.000000
_cell_volume 4607.997831
_symmetry_space_group_name_H-M "P 42/N N M"
_symmetry_group_IT_number 134
_space_group.IT_coordinate_system_code '2'
_symmetry_cell_setting 'tetragonal'
loop_
_space_group_symop_operation_xyz
x,y,z
1/2-y,x,1/2+z
1/2-x,1/2-y,z
y,1/2-x,1/2+z
x,1/2-y,1/2-z
1/2-x,y,1/2-z
y,x,-z
1/2-y,1/2-x,-z
-x,-y,-z
1/2+y,-x,1/2-z
1/2+x,1/2+y,-z
-y,1/2+x,1/2-z
-x,1/2+y,1/2+z
1/2+x,-y,1/2+z
-y,-x,z
1/2+y,1/2+x,z
loop_
_atom_site_type_symbol
_atom_site_label
_atom_site_fract_x
_atom_site_fract_y
_atom_site_fract_z
Si Si1 0.536656 0.633011 0.397204
Si Si2 0.994369 0.313755 0.543744
Si Si3 0.629891 0.950813 0.392990
Si Si4 0.750000 0.064218 0.750000
Si Si5 0.770978 0.631039 0.679366
Si Si6 0.508777 0.186895 0.047449
O O1 0.463308 0.536693 0.379769
O O2 0.463668 0.726703 0.418445
O O3 0.610931 0.681434 0.358966
O O4 0.606587 0.586839 0.438290
O O5 0.904242 0.404242 0.537355
O O6 0.010524 0.254270 0.497156
O O7 0.098236 0.369718 0.566298
O O8 0.639691 0.882303 0.348107
O O9 0.531100 0.031100 0.388089
O O10 0.733087 0.014850 0.410349
O O11 0.645866 0.145866 0.754554
O O12 0.733102 0.977245 0.709595
O O13 0.750000 0.750000 0.699799
O O14 0.614952 0.114952 0.041487
#
# Coordination Sequence:
#
# PCOD9568372 Si02
#       6
#    16  16  16   8  16  16
#     4  10  21  36  55  82 117 155 198 244 294 346
#     4  10  21  34  52  77 111 157 208 258 305 345
#     4  10  21  37  56  82 116 155 200 248 296 346
#     4  11  25  44  70 102 127 149 184 238 302 363
#     4  11  21  41  65  91 120 156 191 232 286 366
#     4  11  21  34  52  77 112 156 205 254 294 340
#
# _framework density 19.097232000000002
#
# number of rings (size 3 to 8) (size 9 to 14) (size 15 to 20)
#    0.000    1.545    1.818    3.545    0.000    6.182 
#    0.000    1.818    0.000    0.000    0.000    0.000 
#    0.000    2.909    0.000    0.000    0.000    0.000 
#
# Total GULP energy -490607.658400 kJ/mol
# GULP energy per Si atom -5575.087027 kJ/mol
# Density = 1.905377 g / cm^3
# Si number density = 19.097232 Si / 1000 Ang^3
#
#
#
# Elastic Constant Matrix: (Units=GPa)
#
#
# Indices 1 2 3 4 5 6 
#
# 1 70.2424 23.0942 33.1769 0.0000 0.0000 0.0000
# 2 23.0942 70.2424 33.1769 0.0000 0.0000 0.0000
# 3 33.1769 33.1769 79.1994 0.0000 0.0000 0.0000
# 4 0.0000 0.0000 0.0000 10.8787 0.0000 0.0000
# 5 0.0000 0.0000 0.0000 0.0000 10.8787 0.0000
# 6 0.0000 0.0000 0.0000 0.0000 0.0000 2.1617
#
#
#
# Elastic Compliance Matrix: (Units=1/GPa)
#
#
# Indices 1 2 3 4 5 6 
#
# 1 0.018234 -0.002976 -0.006392 0.000000 0.000000 0.000000
# 2 -0.002976 0.018234 -0.006392 0.000000 0.000000 0.000000
# 3 -0.006392 -0.006392 0.017981 0.000000 0.000000 0.000000
# 4 0.000000 0.000000 0.000000 0.091922 0.000000 0.000000
# 5 0.000000 0.000000 0.000000 0.000000 0.091922 0.000000
# 6 0.000000 0.000000 0.000000 0.000000 0.000000 0.462597
#
#
# Mechanical properties :
#
#
# Convention : Reuss Voigt Hill
#
# Bulk Modulus (GPa) = 43.60990 44.28670 43.94830
# Shear Modulus (GPa) = 6.75628 13.46624 10.11126
#
# Velocity S-wave (km/s) = 1.88295 2.65833 2.30350
# Velocity P-wave (km/s) = 5.25477 5.71513 5.48978
#
# Compressibility (1/GPa) = 0.02293057
#
# Stress axis : x y z
#
# Youngs Moduli (GPa) = 54.84346 54.84346 55.61357
#
# Poissons Ratio (x) = 0.16322 0.35545
# Poissons Ratio (y) = 0.16322 0.35545
# Poissons Ratio (z) = 0.35053 0.35053
#
# Static dielectric constant tensor:
#      x y z
#    x 1.694230 0.000000 0.000000 
#    y 0.000000 1.694230 0.000000 
#    z 0.000000 0.000000 1.667130 
# 
# From -- ./inp_files/11480.got.cif
#   From: 2010.05.17/outbox.cif.g08.bks.cpg/sg134_6_cif.got.tgz:11480.got - 2010.05.20 12:42:49.
