data_PCOD9568008
_publ_section_title
;
Structure prediction by ZEFSAII (Michael W. Deem and Ramdas Pophale) SiO2 
 PCOD9568008
Probable space group: P 42/N B C
;
_chemical_formula_sum "Si O2"
_cell_formula_units_Z 64
_cell_length_a 10.853540
_cell_length_b 10.853540
_cell_length_c 22.079030
_cell_angle_alpha 90.000000
_cell_angle_beta 90.000000
_cell_angle_gamma 90.000000
_cell_volume 2600.894953
_symmetry_space_group_name_H-M "P 42/N B C"
_symmetry_group_IT_number 133
_space_group.IT_coordinate_system_code '2'
_symmetry_cell_setting 'tetragonal'
loop_
_space_group_symop_operation_xyz
x,y,z
1/2-y,x,1/2+z
1/2-x,1/2-y,z
y,1/2-x,1/2+z
x,1/2-y,-z
1/2-x,y,-z
y,x,1/2-z
1/2-y,1/2-x,1/2-z
-x,-y,-z
1/2+y,-x,1/2-z
1/2+x,1/2+y,-z
-y,1/2+x,1/2-z
-x,1/2+y,z
1/2+x,-y,z
-y,-x,1/2+z
1/2+y,1/2+x,1/2+z
loop_
_atom_site_type_symbol
_atom_site_label
_atom_site_fract_x
_atom_site_fract_y
_atom_site_fract_z
Si Si1 0.714359 0.930883 0.366396
Si Si2 0.452074 0.307843 0.615553
Si Si3 0.389364 0.587933 0.471085
Si Si4 0.054503 0.768546 0.255835
O O1 0.631520 0.812121 0.376301
O O2 0.850041 0.913284 0.394499
O O3 0.644533 0.031070 0.405241
O O4 0.730943 0.958691 0.295583
O O5 0.542195 0.292274 0.558393
O O6 0.506395 0.325464 0.682471
O O7 0.250000 0.599564 0.500000
O O8 0.500000 0.500000 0.500000
O O9 0.148721 0.865980 0.226655
#
# Coordination Sequence:
#
# PCOD9568008 Si02
#       4
#    16  16  16  16
#     4  11  25  47  73 110 154 201 264 330 408 486
#     4  11  25  46  76 111 148 207 263 328 407 489
#     4  12  26  50  78 110 157 210 265 331 402 491
#     4  11  24  42  73 114 157 197 258 331 407 487
#
# _framework density 24.606914
#
# number of rings (size 3 to 8) (size 9 to 14) (size 15 to 20)
#    0.000    0.750    5.000    1.500    3.500    5.000 
#    0.000    3.750    0.000    0.000    0.000    0.000 
#    0.000    0.000    0.000    0.000    0.000    0.000 
#
# Total GULP energy -357011.940115 kJ/mol
# GULP energy per Si atom -5578.311564 kJ/mol
# Density = 2.455091 g / cm^3
# Si number density = 24.606914 Si / 1000 Ang^3
#
#
#
# Elastic Constant Matrix: (Units=GPa)
#
#
# Indices 1 2 3 4 5 6 
#
# 1 87.2984 34.4064 50.7266 0.0000 0.0000 0.0000
# 2 34.4064 87.2984 50.7266 0.0000 0.0000 0.0000
# 3 50.7266 50.7266 147.1676 0.0000 0.0000 0.0000
# 4 0.0000 0.0000 0.0000 41.2440 0.0000 0.0000
# 5 0.0000 0.0000 0.0000 0.0000 41.2440 0.0000
# 6 0.0000 0.0000 0.0000 0.0000 0.0000 20.6796
#
#
#
# Elastic Compliance Matrix: (Units=1/GPa)
#
#
# Indices 1 2 3 4 5 6 
#
# 1 0.015218 -0.003689 -0.003974 0.000000 0.000000 0.000000
# 2 -0.003689 0.015218 -0.003974 0.000000 0.000000 0.000000
# 3 -0.003974 -0.003974 0.009535 0.000000 0.000000 0.000000
# 4 0.000000 0.000000 0.000000 0.024246 0.000000 0.000000
# 5 0.000000 0.000000 0.000000 0.000000 0.024246 0.000000
# 6 0.000000 0.000000 0.000000 0.000000 0.000000 0.048357
#
#
# Mechanical properties :
#
#
# Convention : Reuss Voigt Hill
#
# Bulk Modulus (GPa) = 59.89029 65.94265 62.91647
# Shear Modulus (GPa) = 30.18269 33.02717 31.60493
#
# Velocity S-wave (km/s) = 3.50608 3.66757 3.58773
# Velocity P-wave (km/s) = 6.38606 6.69263 6.54114
#
# Compressibility (1/GPa) = 0.01669720
#
# Stress axis : x y z
#
# Youngs Moduli (GPa) = 65.71211 65.71211 104.88182
#
# Poissons Ratio (x) = 0.24238 0.41680
# Poissons Ratio (y) = 0.24238 0.41680
# Poissons Ratio (z) = 0.26114 0.26114
#
# Static dielectric constant tensor:
#      x y z
#    x 2.040790 0.000000 0.000000 
#    y 0.000000 2.040790 0.000000 
#    z 0.000000 0.000000 2.566070 
# 
# From -- ./inp_files/6170.got.cif
#   From: 2010.05.17/outbox.cif.g08.bks.cpg/sg133_4_cif.got.tgz:6170.got - 2010.05.20 12:37:36.
