data_PCOD9568602
_publ_section_title
;
Structure prediction by ZEFSAII (Michael W. Deem and Ramdas Pophale) SiO2 
 PCOD9568602
Probable space group: P 42/M B C
;
_chemical_formula_sum "Si O2"
_cell_formula_units_Z 116
_cell_length_a 29.634063
_cell_length_b 29.634063
_cell_length_c 9.398348
_cell_angle_alpha 90.000000
_cell_angle_beta 90.000000
_cell_angle_gamma 90.000000
_cell_volume 8253.419535
_symmetry_space_group_name_H-M "P 42/M B C"
_symmetry_group_IT_number 135
_symmetry_cell_setting 'tetragonal'
loop_
_space_group_symop_operation_xyz
x,y,z
-y,x,1/2+z
-x,-y,z
y,-x,1/2+z
1/2+x,1/2-y,-z
1/2-x,1/2+y,-z
1/2+y,1/2+x,1/2-z
1/2-y,1/2-x,1/2-z
-x,-y,-z
y,-x,1/2-z
x,y,-z
-y,x,1/2-z
1/2-x,1/2+y,z
1/2+x,1/2-y,z
1/2-y,1/2-x,1/2+z
1/2+y,1/2+x,1/2+z
loop_
_atom_site_type_symbol
_atom_site_label
_atom_site_fract_x
_atom_site_fract_y
_atom_site_fract_z
Si Si1 0.905268 0.220197 0.336358
Si Si2 0.000000 0.000000 0.250000
Si Si3 0.028959 0.903770 0.162012
Si Si4 0.006002 0.802537 0.169375
Si Si5 0.405274 0.717147 0.828964
Si Si6 0.756820 0.676870 0.831269
Si Si7 0.247186 0.680661 0.330815
Si Si8 0.884149 0.113852 0.339067
O O1 0.907312 0.236315 0.500000
O O2 0.867303 0.245098 0.243999
O O3 0.890808 0.167604 0.341543
O O4 0.953584 0.218923 0.259172
O O5 0.996307 0.048473 0.172634
O O6 0.003662 0.856839 0.203347
O O7 0.074370 0.905795 0.253126
O O8 0.042733 0.897294 0.000000
O O9 0.958529 0.778172 0.196386
O O10 0.015146 0.799323 0.000000
O O11 0.371175 0.748223 0.742304
O O12 0.395372 0.665587 0.783518
O O13 0.396720 0.720640 0.000000
O O14 0.796120 0.703881 0.750000
O O15 0.711822 0.707929 0.813537
O O16 0.765595 0.673327 0.000000
O O17 0.207875 0.707875 0.250000
O O18 0.238692 0.676704 0.500000
O O19 0.885888 0.095675 0.500000
#
# Coordination Sequence:
#
# PCOD9568602 Si02
#       8
#    16   4  16  16  16  16  16  16
#     4  10  18  30  47  65  87 113 142 180 220 262
#     4  12  22  32  44  58  74  96 128 178 234 276
#     4  10  21  34  46  58  75  99 134 175 221 273
#     4   9  19  33  47  62  82 110 143 178 218 266
#     4  10  18  31  48  64  86 114 142 177 221 266
#     4  10  20  31  46  68  92 115 142 177 217 266
#     4  10  19  30  46  68  93 117 143 175 216 267
#     4   9  18  31  47  63  81 104 133 173 223 268
#
# _framework density 14.054779999999999
#
# number of rings (size 3 to 8) (size 9 to 14) (size 15 to 20)
#    0.000    2.207    1.379    2.276    0.000    4.966 
#    0.000    2.759    0.000    0.000    0.000    0.000 
#    0.000    0.000    0.000    0.000    0.000    0.690 
#
# Total GULP energy -646477.047479 kJ/mol
# GULP energy per Si atom -5573.077996 kJ/mol
# Density = 1.402279 g / cm^3
# Si number density = 14.054780 Si / 1000 Ang^3
#
#
#
# Elastic Constant Matrix: (Units=GPa)
#
#
# Indices 1 2 3 4 5 6 
#
# 1 72.2371 41.4304 50.6814 0.0000 0.0000 0.0000
# 2 41.4304 72.2364 50.6815 0.0000 0.0000 0.0000
# 3 50.6814 50.6815 84.5063 0.0000 0.0000 0.0000
# 4 0.0000 0.0000 0.0000 18.5163 0.0000 0.0000
# 5 0.0000 0.0000 0.0000 0.0000 18.5162 0.0000
# 6 0.0000 0.0000 0.0000 0.0000 0.0000 20.6406
#
#
#
# Elastic Compliance Matrix: (Units=1/GPa)
#
#
# Indices 1 2 3 4 5 6 
#
# 1 0.025686 -0.006774 -0.011342 0.000000 0.000000 0.000000
# 2 -0.006774 0.025687 -0.011342 0.000000 0.000000 0.000000
# 3 -0.011342 -0.011342 0.025438 0.000000 0.000000 0.000000
# 4 0.000000 0.000000 0.000000 0.054006 0.000000 0.000000
# 5 0.000000 0.000000 0.000000 0.000000 0.054007 0.000000
# 6 0.000000 0.000000 0.000000 0.000000 0.000000 0.048448
#
#
# Mechanical properties :
#
#
# Convention : Reuss Voigt Hill
#
# Bulk Modulus (GPa) = 55.88680 57.17403 56.53041
# Shear Modulus (GPa) = 16.76982 17.28039 17.02511
#
# Velocity S-wave (km/s) = 3.45799 3.51023 3.48421
# Velocity P-wave (km/s) = 7.46950 7.56285 7.51632
#
# Compressibility (1/GPa) = 0.01789331
#
# Stress axis : x y z
#
# Youngs Moduli (GPa) = 38.93141 38.93067 39.31110
#
# Poissons Ratio (x) = 0.26373 0.44587
# Poissons Ratio (y) = 0.26374 0.44588
# Poissons Ratio (z) = 0.44156 0.44157
#
# Static dielectric constant tensor:
#      x y z
#    x 1.456080 0.000000 0.000000 
#    y 0.000000 1.456080 0.000000 
#    z 0.000000 0.000000 1.477880 
# 
# From -- ./inp_files/1514.got.cif
#   From: 2010.05.17/outbox.cif.g08.bks.cpg/sg135_1_cif.got.tgz:1514.got - 2010.05.20 12:50:20.
