data_PCOD9568944
_publ_section_title
;
Structure prediction by ZEFSAII (Michael W. Deem and Ramdas Pophale) SiO2 
 PCOD9568944
Probable space group: P 42/M B C
;
_chemical_formula_sum "Si O2"
_cell_formula_units_Z 96
_cell_length_a 15.968162
_cell_length_b 15.968162
_cell_length_c 18.587665
_cell_angle_alpha 90.000000
_cell_angle_beta 90.000000
_cell_angle_gamma 90.000000
_cell_volume 4739.523671
_symmetry_space_group_name_H-M "P 42/M B C"
_symmetry_group_IT_number 135
_symmetry_cell_setting 'tetragonal'
loop_
_space_group_symop_operation_xyz
x,y,z
-y,x,1/2+z
-x,-y,z
y,-x,1/2+z
1/2+x,1/2-y,-z
1/2-x,1/2+y,-z
1/2+y,1/2+x,1/2-z
1/2-y,1/2-x,1/2-z
-x,-y,-z
y,-x,1/2-z
x,y,-z
-y,x,1/2-z
1/2-x,1/2+y,z
1/2+x,1/2-y,z
1/2-y,1/2-x,1/2+z
1/2+y,1/2+x,1/2+z
loop_
_atom_site_type_symbol
_atom_site_label
_atom_site_fract_x
_atom_site_fract_y
_atom_site_fract_z
Si Si1 0.441773 0.245594 0.847095
Si Si2 0.598351 0.486532 0.917762
Si Si3 0.287996 0.384323 0.419481
Si Si4 0.421843 0.053998 0.163963
Si Si5 0.522302 0.253049 0.690118
Si Si6 0.212740 0.238117 0.678434
O O1 0.521788 0.270268 0.893259
O O2 0.425114 0.148292 0.862592
O O3 0.471048 0.262203 0.764398
O O4 0.352455 0.289095 0.858993
O O5 0.500000 0.500000 0.898252
O O6 0.619639 0.388196 0.919520
O O7 0.664937 0.518962 0.859741
O O8 0.608669 0.519690 0.000000
O O9 0.255788 0.372380 0.500000
O O10 0.249058 0.312184 0.369973
O O11 0.436616 0.063385 0.250000
O O12 0.500000 0.000000 0.135732
O O13 0.331251 0.012633 0.152755
O O14 0.620158 0.239061 0.705610
O O15 0.269665 0.230336 0.750000
#
# Coordination Sequence:
#
# PCOD9568944 Si02
#       6
#    16  16  16  16  16  16
#     4  11  22  39  61  93 127 164 216 274 324 387
#     4  10  22  42  62  86 125 169 210 260 327 394
#     4  11  24  42  64  93 131 174 217 269 338 403
#     4   9  18  33  57  83 118 158 200 250 319 380
#     4  11  22  37  63  92 123 166 212 268 328 382
#     4  12  23  40  64  95 132 167 222 280 330 392
#
# _framework density 20.255201
#
# number of rings (size 3 to 8) (size 9 to 14) (size 15 to 20)
#    0.000    1.333    1.667    5.500    2.333    1.333 
#    0.000    0.833    0.000    2.000    0.000    0.000 
#    0.000    0.000    0.000    0.000    0.000    0.000 
#
# Total GULP energy -536005.674792 kJ/mol
# GULP energy per Si atom -5583.392446 kJ/mol
# Density = 2.020910 g / cm^3
# Si number density = 20.255201 Si / 1000 Ang^3
#
#
#
# Elastic Constant Matrix: (Units=GPa)
#
#
# Indices 1 2 3 4 5 6 
#
# 1 111.3647 22.4875 33.8790 0.0000 0.0000 0.0000
# 2 22.4875 111.3659 33.8790 0.0000 0.0000 0.0000
# 3 33.8790 33.8790 73.4128 0.0000 0.0000 0.0000
# 4 0.0000 0.0000 0.0000 18.1421 0.0000 0.0000
# 5 0.0000 0.0000 0.0000 0.0000 18.1420 0.0000
# 6 0.0000 0.0000 0.0000 0.0000 0.0000 39.9241
#
#
#
# Elastic Compliance Matrix: (Units=1/GPa)
#
#
# Indices 1 2 3 4 5 6 
#
# 1 0.010500 -0.000752 -0.004499 0.000000 0.000000 0.000000
# 2 -0.000752 0.010500 -0.004499 0.000000 0.000000 0.000000
# 3 -0.004499 -0.004499 0.017774 0.000000 0.000000 0.000000
# 4 0.000000 0.000000 0.000000 0.055120 0.000000 0.000000
# 5 0.000000 0.000000 0.000000 0.000000 0.055121 0.000000
# 6 0.000000 0.000000 0.000000 0.000000 0.000000 0.025048
#
#
# Mechanical properties :
#
#
# Convention : Reuss Voigt Hill
#
# Bulk Modulus (GPa) = 51.87939 52.95939 52.41939
# Shear Modulus (GPa) = 25.00191 28.96819 26.98505
#
# Velocity S-wave (km/s) = 3.51714 3.78585 3.65396
# Velocity P-wave (km/s) = 6.49324 6.73150 6.61344
#
# Compressibility (1/GPa) = 0.01927548
#
# Stress axis : x y z
#
# Youngs Moduli (GPa) = 95.23950 95.24064 56.26280
#
# Poissons Ratio (x) = 0.07158 0.25311
# Poissons Ratio (y) = 0.07158 0.25310
# Poissons Ratio (z) = 0.42845 0.42845
#
# Static dielectric constant tensor:
#      x y z
#    x 1.737430 0.000000 0.000000 
#    y 0.000000 1.737430 0.000000 
#    z 0.000000 0.000000 1.725980 
# 
# From -- ./inp_files/5468.got.cif
#   From: 2010.05.17/outbox.cif.g08.bks.cpg/sg135_3_cif.got.tgz:5468.got - 2010.05.20 12:50:20.
