data_PCOD9568499
_publ_section_title
;
Structure prediction by ZEFSAII (Michael W. Deem and Ramdas Pophale) SiO2 
 PCOD9568499
Probable space group: P 42/N N M
;
_chemical_formula_sum "Si O2"
_cell_formula_units_Z 48
_cell_length_a 17.462659
_cell_length_b 17.462659
_cell_length_c 7.658112
_cell_angle_alpha 90.000000
_cell_angle_beta 90.000000
_cell_angle_gamma 90.000000
_cell_volume 2335.298823
_symmetry_space_group_name_H-M "P 42/N N M"
_symmetry_group_IT_number 134
_space_group.IT_coordinate_system_code '2'
_symmetry_cell_setting 'tetragonal'
loop_
_space_group_symop_operation_xyz
x,y,z
1/2-y,x,1/2+z
1/2-x,1/2-y,z
y,1/2-x,1/2+z
x,1/2-y,1/2-z
1/2-x,y,1/2-z
y,x,-z
1/2-y,1/2-x,-z
-x,-y,-z
1/2+y,-x,1/2-z
1/2+x,1/2+y,-z
-y,1/2+x,1/2-z
-x,1/2+y,1/2+z
1/2+x,-y,1/2+z
-y,-x,z
1/2+y,1/2+x,z
loop_
_atom_site_type_symbol
_atom_site_label
_atom_site_fract_x
_atom_site_fract_y
_atom_site_fract_z
Si Si1 0.580914 0.580914 0.000000
Si Si2 0.750000 0.377856 0.750000
Si Si3 0.561657 0.314564 0.102936
Si Si4 0.834223 0.838857 0.297181
O O1 0.499747 0.617246 0.936862
O O2 0.629181 0.602182 0.829512
O O3 0.822245 0.322245 0.785672
O O4 0.770213 0.426287 0.579408
O O5 0.544172 0.250000 0.250000
O O6 0.640761 0.359240 0.148406
O O7 0.829850 0.750000 0.250000
O O8 0.750000 0.871109 0.250000
O O9 0.849853 0.849853 0.500000
#
# Coordination Sequence:
#
# PCOD9568499 Si02
#       4
#     8   8  16  16
#     4  12  25  37  62  96 138 168 213 272 339 400
#     4   9  20  42  72 100 125 164 226 286 331 390
#     4  11  25  44  68  98 132 174 223 277 341 407
#     4  11  20  35  56  85 124 175 227 266 312 385
#
# _framework density 20.554116
#
# number of rings (size 3 to 8) (size 9 to 14) (size 15 to 20)
#    0.000    1.167    3.333    3.500    2.333    1.667 
#    0.000    0.000    0.000    8.000    0.000    0.000 
#    0.000    0.000    0.000    0.000    0.000    0.000 
#
# Total GULP energy -267470.476239 kJ/mol
# GULP energy per Si atom -5572.301588 kJ/mol
# Density = 2.050733 g / cm^3
# Si number density = 20.554116 Si / 1000 Ang^3
#
#
#
# Elastic Constant Matrix: (Units=GPa)
#
#
# Indices 1 2 3 4 5 6 
#
# 1 97.1743 49.4295 65.8238 0.0000 0.0000 0.0000
# 2 49.4295 97.1743 65.8238 0.0000 0.0000 0.0000
# 3 65.8238 65.8238 167.3837 0.0000 0.0000 0.0000
# 4 0.0000 0.0000 0.0000 24.9815 0.0000 0.0000
# 5 0.0000 0.0000 0.0000 0.0000 24.9815 0.0000
# 6 0.0000 0.0000 0.0000 0.0000 0.0000 23.0456
#
#
#
# Elastic Compliance Matrix: (Units=1/GPa)
#
#
# Indices 1 2 3 4 5 6 
#
# 1 0.015745 -0.005200 -0.004147 0.000000 0.000000 0.000000
# 2 -0.005200 0.015745 -0.004147 0.000000 0.000000 0.000000
# 3 -0.004147 -0.004147 0.009236 0.000000 0.000000 0.000000
# 4 0.000000 0.000000 0.000000 0.040030 0.000000 0.000000
# 5 0.000000 0.000000 0.000000 0.000000 0.040030 0.000000
# 6 0.000000 0.000000 0.000000 0.000000 0.000000 0.043392
#
#
# Mechanical properties :
#
#
# Convention : Reuss Voigt Hill
#
# Bulk Modulus (GPa) = 72.78902 80.43182 76.61042
# Shear Modulus (GPa) = 25.54369 26.64540 26.09455
#
# Velocity S-wave (km/s) = 3.52909 3.60440 3.56694
# Velocity P-wave (km/s) = 7.21777 7.51924 7.37005
#
# Compressibility (1/GPa) = 0.01373834
#
# Stress axis : x y z
#
# Youngs Moduli (GPa) = 63.51315 63.51315 108.27508
#
# Poissons Ratio (x) = 0.33026 0.44899
# Poissons Ratio (y) = 0.33026 0.44899
# Poissons Ratio (z) = 0.26337 0.26337
#
# Static dielectric constant tensor:
#      x y z
#    x 1.911650 0.000000 0.000000 
#    y 0.000000 1.911650 0.000000 
#    z 0.000000 0.000000 1.665730 
# 
# From -- ./inp_files/2150.got.cif
#   From: 2010.05.17/outbox.cif.g08.bks.cpg/sg134_2_cif.got.tgz:2150.got - 2010.05.20 12:42:49.
