data_PCOD9568863
_publ_section_title
;
Structure prediction by ZEFSAII (Michael W. Deem and Ramdas Pophale) SiO2 
 PCOD9568863
Probable space group: P 42/M B C
;
_chemical_formula_sum "Si O2"
_cell_formula_units_Z 56
_cell_length_a 17.759013
_cell_length_b 17.759013
_cell_length_c 8.669660
_cell_angle_alpha 90.000000
_cell_angle_beta 90.000000
_cell_angle_gamma 90.000000
_cell_volume 2734.259415
_symmetry_space_group_name_H-M "P 42/M B C"
_symmetry_group_IT_number 135
_symmetry_cell_setting 'tetragonal'
loop_
_space_group_symop_operation_xyz
x,y,z
-y,x,1/2+z
-x,-y,z
y,-x,1/2+z
1/2+x,1/2-y,-z
1/2-x,1/2+y,-z
1/2+y,1/2+x,1/2-z
1/2-y,1/2-x,1/2-z
-x,-y,-z
y,-x,1/2-z
x,y,-z
-y,x,1/2-z
1/2-x,1/2+y,z
1/2+x,1/2-y,z
1/2-y,1/2-x,1/2+z
1/2+y,1/2+x,1/2+z
loop_
_atom_site_type_symbol
_atom_site_label
_atom_site_fract_x
_atom_site_fract_y
_atom_site_fract_z
Si Si1 0.133334 0.526002 0.671356
Si Si2 0.356657 0.856657 0.750000
Si Si3 0.694240 0.613980 0.684400
Si Si4 0.455076 0.292507 0.317495
O O1 0.059795 0.559795 0.750000
O O2 0.140961 0.557457 0.500000
O O3 0.134790 0.435491 0.658999
O O4 0.204837 0.549877 0.772899
O O5 0.363739 0.767581 0.713768
O O6 0.712127 0.622394 0.500000
O O7 0.677781 0.526935 0.722511
O O8 0.622003 0.664555 0.719089
O O9 0.469290 0.300491 0.500000
#
# Coordination Sequence:
#
# PCOD9568863 Si02
#       4
#    16   8  16  16
#     4  11  24  41  62  92 126 162 206 252 304 365
#     4  10  21  38  62  86 120 159 198 246 300 356
#     4  10  23  42  62  90 124 159 205 253 305 366
#     4  10  22  40  63  92 123 163 208 252 307 363
#
# _framework density 20.480864
#
# number of rings (size 3 to 8) (size 9 to 14) (size 15 to 20)
#    0.000    1.714    0.000    4.714    2.000   15.429 
#    0.000    2.857    0.000    0.000    0.000    0.000 
#    0.000    0.000    0.000    0.000    0.000    0.000 
#
# Total GULP energy -311796.105219 kJ/mol
# GULP energy per Si atom -5567.787593 kJ/mol
# Density = 2.043425 g / cm^3
# Si number density = 20.480864 Si / 1000 Ang^3
#
#
#
# Elastic Constant Matrix: (Units=GPa)
#
#
# Indices 1 2 3 4 5 6 
#
# 1 117.5205 95.4912 27.3860 0.0000 0.0000 0.0000
# 2 95.4912 117.5205 27.3860 0.0000 0.0000 0.0000
# 3 27.3860 27.3860 34.5354 0.0000 0.0000 0.0000
# 4 0.0000 0.0000 0.0000 -24.0531 0.0000 0.0000
# 5 0.0000 0.0000 0.0000 0.0000 -24.0531 0.0000
# 6 0.0000 0.0000 0.0000 0.0000 0.0000 47.1899
#
#
#
# Elastic Compliance Matrix: (Units=1/GPa)
#
#
# Indices 1 2 3 4 5 6 
#
# 1 0.025645 -0.019749 -0.004676 0.000000 0.000000 0.000000
# 2 -0.019749 0.025645 -0.004676 0.000000 0.000000 0.000000
# 3 -0.004676 -0.004676 0.036372 0.000000 0.000000 0.000000
# 4 0.000000 0.000000 0.000000 -0.041575 0.000000 0.000000
# 5 0.000000 0.000000 0.000000 0.000000 -0.041575 0.000000
# 6 0.000000 0.000000 0.000000 0.000000 0.000000 0.021191
#
#
# Mechanical properties :
#
#
# Convention : Reuss Voigt Hill
#
# Bulk Modulus (GPa) = 33.94293 63.34474 48.64383
# Shear Modulus (GPa) = 53.34648 7.77096 30.55872
#
# Velocity S-wave (km/s) = 5.10916 1.95000 3.86691
# Velocity P-wave (km/s) = 7.17033 6.00549 6.61361
#
# Compressibility (1/GPa) = 0.02946122
#
# Stress axis : x y z
#
# Youngs Moduli (GPa) = 38.99322 38.99322 27.49365
#
# Poissons Ratio (x) = 0.77006 0.12857
# Poissons Ratio (y) = 0.77006 0.12857
# Poissons Ratio (z) = 0.18234 0.18234
#
# Static dielectric constant tensor:
#      x y z
#    x 1.717910 0.000000 0.000000 
#    y 0.000000 1.717910 0.000000 
#    z 0.000000 0.000000 1.461590 
# 
# From -- ./inp_files/759.got.cif
#   From: 2010.05.17/outbox.cif.g08.bks.cpg/sg135_1_cif.got.tgz:759.got - 2010.05.20 12:50:20.
