data_PCOD9568507
_publ_section_title
;
Structure prediction by ZEFSAII (Michael W. Deem and Ramdas Pophale) SiO2 
 PCOD9568507
Probable space group: P 42/N N M
;
_chemical_formula_sum "Si O2"
_cell_formula_units_Z 88
_cell_length_a 17.634197
_cell_length_b 17.634197
_cell_length_c 16.343759
_cell_angle_alpha 90.000000
_cell_angle_beta 90.000000
_cell_angle_gamma 90.000000
_cell_volume 5082.335446
_symmetry_space_group_name_H-M "P 42/N N M"
_symmetry_group_IT_number 134
_space_group.IT_coordinate_system_code '2'
_symmetry_cell_setting 'tetragonal'
loop_
_space_group_symop_operation_xyz
x,y,z
1/2-y,x,1/2+z
1/2-x,1/2-y,z
y,1/2-x,1/2+z
x,1/2-y,1/2-z
1/2-x,y,1/2-z
y,x,-z
1/2-y,1/2-x,-z
-x,-y,-z
1/2+y,-x,1/2-z
1/2+x,1/2+y,-z
-y,1/2+x,1/2-z
-x,1/2+y,1/2+z
1/2+x,-y,1/2+z
-y,-x,z
1/2+y,1/2+x,z
loop_
_atom_site_type_symbol
_atom_site_label
_atom_site_fract_x
_atom_site_fract_y
_atom_site_fract_z
Si Si1 0.373906 0.745539 0.663919
Si Si2 0.339187 0.660814 0.250105
Si Si3 0.919326 0.419326 0.899810
Si Si4 0.582844 0.082844 0.597764
Si Si5 0.684269 0.484836 0.043311
Si Si6 0.042476 0.957525 0.654303
Si Si7 0.461454 0.538547 0.846509
Si Si8 0.154712 0.031716 0.526347
O O1 0.418827 0.750000 0.750000
O O2 0.335519 0.664482 0.653692
O O3 0.307193 0.807193 0.676460
O O4 0.414891 0.770144 0.582540
O O5 0.353214 0.750000 0.250000
O O6 0.375447 0.624554 0.330286
O O7 0.374327 0.625673 0.168941
O O8 0.978158 0.478158 0.859316
O O9 0.863771 0.469311 0.956546
O O10 0.642021 0.037579 0.539901
O O11 0.524474 0.024474 0.637864
O O12 0.614911 0.491872 0.108183
O O13 0.754443 0.543342 0.034547
O O14 0.053617 0.946384 0.750990
O O15 0.005637 0.884946 0.607143
O O16 0.106100 0.106100 0.500000
#
# Coordination Sequence:
#
# PCOD9568507 Si02
#       8
#    16   8   8   8  16   8   8  16
#     4   9  18  30  43  71 115 149 170 203 269 339
#     4  11  22  36  56  84 111 142 189 229 275 337
#     4   9  17  38  53  72 108 154 183 227 281 333
#     4  11  23  42  54  79 114 154 187 223 280 341
#     4  11  21  33  54  80 110 148 186 228 273 338
#     4   9  19  35  57  80 110 151 181 234 277 340
#     4  11  23  37  57  78 116 152 193 220 278 350
#     4   9  20  34  55  82 111 142 193 239 291 323
#
# _framework density 17.314875000000001
#
# number of rings (size 3 to 8) (size 9 to 14) (size 15 to 20)
#    0.000    2.091    2.727    3.818    5.091    0.000 
#    3.273    0.000    0.000    2.182    0.000    0.000 
#    0.000    0.000    0.000    0.000    0.000    0.000 
#
# Total GULP energy -490364.116676 kJ/mol
# GULP energy per Si atom -5572.319508 kJ/mol
# Density = 1.727547 g / cm^3
# Si number density = 17.314875 Si / 1000 Ang^3
#
#
#
# Elastic Constant Matrix: (Units=GPa)
#
#
# Indices 1 2 3 4 5 6 
#
# 1 75.4139 36.1572 39.0062 0.0000 0.0000 0.0000
# 2 36.1572 75.4139 39.0062 0.0000 0.0000 0.0000
# 3 39.0062 39.0062 127.1246 0.0000 0.0000 0.0000
# 4 0.0000 0.0000 0.0000 21.1557 0.0000 0.0000
# 5 0.0000 0.0000 0.0000 0.0000 21.1557 0.0000
# 6 0.0000 0.0000 0.0000 0.0000 0.0000 25.3729
#
#
#
# Elastic Compliance Matrix: (Units=1/GPa)
#
#
# Indices 1 2 3 4 5 6 
#
# 1 0.018442 -0.007031 -0.003501 0.000000 0.000000 0.000000
# 2 -0.007031 0.018442 -0.003501 0.000000 0.000000 0.000000
# 3 -0.003501 -0.003501 0.010015 0.000000 0.000000 0.000000
# 4 0.000000 0.000000 0.000000 0.047269 0.000000 0.000000
# 5 0.000000 0.000000 0.000000 0.000000 0.047269 0.000000
# 6 0.000000 0.000000 0.000000 0.000000 0.000000 0.039412
#
#
# Mechanical properties :
#
#
# Convention : Reuss Voigt Hill
#
# Bulk Modulus (GPa) = 53.10156 56.25465 54.67810
# Shear Modulus (GPa) = 23.23488 24.45569 23.84528
#
# Velocity S-wave (km/s) = 3.66717 3.76228 3.71503
# Velocity P-wave (km/s) = 6.97608 7.17166 7.07454
#
# Compressibility (1/GPa) = 0.01883184
#
# Stress axis : x y z
#
# Youngs Moduli (GPa) = 54.22336 54.22336 99.85075
#
# Poissons Ratio (x) = 0.38125 0.34961
# Poissons Ratio (y) = 0.38125 0.34961
# Poissons Ratio (z) = 0.18985 0.18985
#
# Static dielectric constant tensor:
#      x y z
#    x 1.628990 0.000000 0.000000 
#    y 0.000000 1.628990 0.000000 
#    z 0.000000 0.000000 1.600550 
# 
# From -- ./inp_files/6552.got.cif
#   From: 2010.05.17/outbox.cif.g08.bks.cpg/sg134_4_cif.got.tgz:6552.got - 2010.05.20 12:42:49.
