data_PCOD9568999
_publ_section_title
;
Structure prediction by ZEFSAII (Michael W. Deem and Ramdas Pophale) SiO2 
 PCOD9568999
Probable space group: P 42/M B C
;
_chemical_formula_sum "Si O2"
_cell_formula_units_Z 96
_cell_length_a 14.361337
_cell_length_b 14.361337
_cell_length_c 22.070331
_cell_angle_alpha 90.000000
_cell_angle_beta 90.000000
_cell_angle_gamma 90.000000
_cell_volume 4551.961638
_symmetry_space_group_name_H-M "P 42/M B C"
_symmetry_group_IT_number 135
_symmetry_cell_setting 'tetragonal'
loop_
_space_group_symop_operation_xyz
x,y,z
-y,x,1/2+z
-x,-y,z
y,-x,1/2+z
1/2+x,1/2-y,-z
1/2-x,1/2+y,-z
1/2+y,1/2+x,1/2-z
1/2-y,1/2-x,1/2-z
-x,-y,-z
y,-x,1/2-z
x,y,-z
-y,x,1/2-z
1/2-x,1/2+y,z
1/2+x,1/2-y,z
1/2-y,1/2-x,1/2+z
1/2+y,1/2+x,1/2+z
loop_
_atom_site_type_symbol
_atom_site_label
_atom_site_fract_x
_atom_site_fract_y
_atom_site_fract_z
Si Si1 0.495782 0.759307 0.874009
Si Si2 0.544842 0.737500 0.621171
Si Si3 0.252865 0.297912 0.427823
Si Si4 0.658118 0.000359 0.245693
Si Si5 0.576679 0.932446 0.930653
Si Si6 0.887071 0.876617 0.571878
O O1 0.398221 0.784086 0.906107
O O2 0.491793 0.772512 0.802456
O O3 0.570006 0.835991 0.896396
O O4 0.535328 0.662170 0.897456
O O5 0.653737 0.716923 0.611662
O O6 0.514359 0.781955 0.684991
O O7 0.524945 0.821797 0.574220
O O8 0.483954 0.649783 0.602548
O O9 0.275642 0.299999 0.500000
O O10 0.179516 0.214453 0.419007
O O11 0.588117 0.911884 0.250000
O O12 0.590910 0.090910 0.250000
O O13 0.500000 0.000000 0.902239
O O14 0.551761 0.914961 0.000000
O O15 0.896238 0.891641 0.500000
#
# Coordination Sequence:
#
# PCOD9568999 Si02
#       6
#    16  16  16  16  16  16
#     4  12  24  40  63  94 131 174 221 267 335 396
#     4  12  24  40  63  94 131 174 221 267 335 396
#     4  11  23  41  65  95 132 173 222 280 340 399
#     4  11  22  40  66  95 130 171 223 280 335 389
#     4  11  20  35  61  91 121 157 215 280 330 370
#     4  11  23  41  65  95 132 173 222 280 340 399
#
# _framework density 21.089808999999999
#
# number of rings (size 3 to 8) (size 9 to 14) (size 15 to 20)
#    0.000    0.667    3.333    6.000    0.000    4.667 
#    0.000    5.000    0.000    2.000    0.000    0.000 
#    0.000    0.000    0.000    0.000    0.000    0.000 
#
# Total GULP energy -536794.743972 kJ/mol
# GULP energy per Si atom -5591.611916 kJ/mol
# Density = 2.104181 g / cm^3
# Si number density = 21.089809 Si / 1000 Ang^3
#
#
#
# Elastic Constant Matrix: (Units=GPa)
#
#
# Indices 1 2 3 4 5 6 
#
# 1 47.1800 -6.5832 16.5562 0.0000 0.0000 0.0000
# 2 -6.5832 47.1802 16.5562 0.0000 0.0000 0.0000
# 3 16.5562 16.5562 123.8987 0.0000 0.0000 0.0000
# 4 0.0000 0.0000 0.0000 -2.2001 0.0000 0.0000
# 5 0.0000 0.0000 0.0000 0.0000 -2.1996 0.0000
# 6 0.0000 0.0000 0.0000 0.0000 0.0000 39.8610
#
#
#
# Elastic Compliance Matrix: (Units=1/GPa)
#
#
# Indices 1 2 3 4 5 6 
#
# 1 0.023123 0.004523 -0.003694 0.000000 0.000000 0.000000
# 2 0.004523 0.023123 -0.003694 0.000000 0.000000 0.000000
# 3 -0.003694 -0.003694 0.009058 0.000000 0.000000 0.000000
# 4 0.000000 0.000000 0.000000 -0.454516 0.000000 0.000000
# 5 0.000000 0.000000 0.000000 0.000000 -0.454626 0.000000
# 6 0.000000 0.000000 0.000000 0.000000 0.000000 0.025087
#
#
# Mechanical properties :
#
#
# Convention : Reuss Voigt Hill
#
# Bulk Modulus (GPa) = 20.17239 30.14637 25.15938
# Shear Modulus (GPa) = -6.19966 19.87424 6.83729
#
# Velocity S-wave (km/s) = -1.71640 3.07312 1.80250
# Velocity P-wave (km/s) = 2.37860 5.18820 4.03579
#
# Compressibility (1/GPa) = 0.04957271
#
# Stress axis : x y z
#
# Youngs Moduli (GPa) = 43.24732 43.24747 110.39486
#
# Poissons Ratio (x) = -0.19560 0.40782
# Poissons Ratio (y) = -0.19560 0.40782
# Poissons Ratio (z) = 0.15976 0.15976
#
# Static dielectric constant tensor:
#      x y z
#    x 1.795240 0.000000 0.000000 
#    y 0.000000 1.795230 0.000000 
#    z 0.000000 0.000000 1.725280 
# 
# From -- ./inp_files/5473.got.cif
#   From: 2010.05.17/outbox.cif.g08.bks.cpg/sg135_3_cif.got.tgz:5473.got - 2010.05.20 12:50:20.
