data_PCOD9568548
_publ_section_title
;
Structure prediction by ZEFSAII (Michael W. Deem and Ramdas Pophale) SiO2 
 PCOD9568548
Probable space group: P 42/N N M
;
_chemical_formula_sum "Si O2"
_cell_formula_units_Z 56
_cell_length_a 17.297032
_cell_length_b 17.297032
_cell_length_c 8.331597
_cell_angle_alpha 90.000000
_cell_angle_beta 90.000000
_cell_angle_gamma 90.000000
_cell_volume 2492.708144
_symmetry_space_group_name_H-M "P 42/N N M"
_symmetry_group_IT_number 134
_space_group.IT_coordinate_system_code '2'
_symmetry_cell_setting 'tetragonal'
loop_
_space_group_symop_operation_xyz
x,y,z
1/2-y,x,1/2+z
1/2-x,1/2-y,z
y,1/2-x,1/2+z
x,1/2-y,1/2-z
1/2-x,y,1/2-z
y,x,-z
1/2-y,1/2-x,-z
-x,-y,-z
1/2+y,-x,1/2-z
1/2+x,1/2+y,-z
-y,1/2+x,1/2-z
-x,1/2+y,1/2+z
1/2+x,-y,1/2+z
-y,-x,z
1/2+y,1/2+x,z
loop_
_atom_site_type_symbol
_atom_site_label
_atom_site_fract_x
_atom_site_fract_y
_atom_site_fract_z
Si Si1 0.798576 0.421562 0.412817
Si Si2 0.060096 0.750000 0.250000
Si Si3 0.534710 0.595157 0.331191
Si Si4 0.398638 0.184926 0.376591
O O1 0.750000 0.404273 0.250000
O O2 0.882540 0.382540 0.390087
O O3 0.767510 0.393510 0.585756
O O4 0.796337 0.514475 0.434467
O O5 0.008340 0.823869 0.302626
O O6 0.577792 0.577792 0.500000
O O7 0.470916 0.529085 0.311897
O O8 0.601721 0.590372 0.202843
O O9 0.377282 0.250000 0.250000
O O10 0.329909 0.170091 0.500000
#
# Coordination Sequence:
#
# PCOD9568548 Si02
#       4
#    16   8  16  16
#     4  11  25  45  71 104 143 184 238 303 364 431
#     4  12  24  42  71 103 142 184 248 298 354 433
#     4  11  24  42  69  99 136 187 237 291 357 428
#     4  11  23  43  73 104 134 180 233 295 355 427
#
# _framework density 22.465526000000001
#
# number of rings (size 3 to 8) (size 9 to 14) (size 15 to 20)
#    0.000    0.857    2.857    5.143    0.000    6.000 
#    0.000    0.714    6.286    3.857    0.000    0.000 
#    0.000    0.000    0.000    0.000    0.000    0.000 
#
# Total GULP energy -312709.167295 kJ/mol
# GULP energy per Si atom -5584.092273 kJ/mol
# Density = 2.241439 g / cm^3
# Si number density = 22.465526 Si / 1000 Ang^3
#
#
#
# Elastic Constant Matrix: (Units=GPa)
#
#
# Indices 1 2 3 4 5 6 
#
# 1 59.2172 29.9645 60.1883 0.0000 0.0000 0.0000
# 2 29.9645 59.2163 60.1867 0.0000 0.0000 0.0000
# 3 60.1883 60.1867 155.0778 0.0000 0.0000 0.0000
# 4 0.0000 0.0000 0.0000 10.4746 0.0000 0.0000
# 5 0.0000 0.0000 0.0000 0.0000 10.4732 0.0000
# 6 0.0000 0.0000 0.0000 0.0000 0.0000 32.3309
#
#
#
# Elastic Compliance Matrix: (Units=1/GPa)
#
#
# Indices 1 2 3 4 5 6 
#
# 1 0.028868 -0.005318 -0.009140 0.000000 0.000000 0.000000
# 2 -0.005318 0.028868 -0.009140 0.000000 0.000000 0.000000
# 3 -0.009140 -0.009140 0.013543 0.000000 0.000000 0.000000
# 4 0.000000 0.000000 0.000000 0.095469 0.000000 0.000000
# 5 0.000000 0.000000 0.000000 0.000000 0.095482 0.000000
# 6 0.000000 0.000000 0.000000 0.000000 0.000000 0.030930
#
#
# Mechanical properties :
#
#
# Convention : Reuss Voigt Hill
#
# Bulk Modulus (GPa) = 41.52274 63.79894 52.66084
# Shear Modulus (GPa) = 14.35200 18.86718 16.60959
#
# Velocity S-wave (km/s) = 2.53028 2.90112 2.72202
# Velocity P-wave (km/s) = 5.20187 6.29939 5.77675
#
# Compressibility (1/GPa) = 0.02408319
#
# Stress axis : x y z
#
# Youngs Moduli (GPa) = 34.64044 34.64080 73.83784
#
# Poissons Ratio (x) = 0.18420 0.67491
# Poissons Ratio (y) = 0.18420 0.67487
# Poissons Ratio (z) = 0.31663 0.31661
#
# Static dielectric constant tensor:
#      x y z
#    x 1.840900 0.000000 0.000000 
#    y 0.000000 1.840900 0.000000 
#    z 0.000000 0.000000 1.725690 
# 
# From -- ./inp_files/2411.got.cif
#   From: 2010.05.17/outbox.cif.g08.bks.cpg/sg134_2_cif.got.tgz:2411.got - 2010.05.20 12:42:49.
