data_PCOD9568563
_publ_section_title
;
Structure prediction by ZEFSAII (Michael W. Deem and Ramdas Pophale) SiO2 
 PCOD9568563
Probable space group: P 42/N N M
;
_chemical_formula_sum "Si O2"
_cell_formula_units_Z 48
_cell_length_a 13.786482
_cell_length_b 13.786482
_cell_length_c 11.623525
_cell_angle_alpha 90.000000
_cell_angle_beta 90.000000
_cell_angle_gamma 90.000000
_cell_volume 2209.249525
_symmetry_space_group_name_H-M "P 42/N N M"
_symmetry_group_IT_number 134
_space_group.IT_coordinate_system_code '2'
_symmetry_cell_setting 'tetragonal'
loop_
_space_group_symop_operation_xyz
x,y,z
1/2-y,x,1/2+z
1/2-x,1/2-y,z
y,1/2-x,1/2+z
x,1/2-y,1/2-z
1/2-x,y,1/2-z
y,x,-z
1/2-y,1/2-x,-z
-x,-y,-z
1/2+y,-x,1/2-z
1/2+x,1/2+y,-z
-y,1/2+x,1/2-z
-x,1/2+y,1/2+z
1/2+x,-y,1/2+z
-y,-x,z
1/2+y,1/2+x,z
loop_
_atom_site_type_symbol
_atom_site_label
_atom_site_fract_x
_atom_site_fract_y
_atom_site_fract_z
Si Si1 0.844329 0.576074 0.112509
Si Si2 0.150600 0.010389 0.193258
Si Si3 0.835039 0.664962 0.500000
Si Si4 0.906831 0.250000 0.250000
O O1 0.910335 0.607267 0.218862
O O2 0.794621 0.475357 0.150321
O O3 0.912678 0.587323 0.000000
O O4 0.755735 0.649649 0.086096
O O5 0.250000 0.974596 0.250000
O O6 0.170194 0.068392 0.076534
O O7 0.074443 0.925558 0.175848
O O8 0.836664 0.163337 0.208249
#
# Coordination Sequence:
#
# PCOD9568563 Si02
#       4
#    16  16   8   8
#     4  12  25  44  75 105 144 183 241 299 361 428
#     4  12  27  46  71 102 143 190 240 295 360 429
#     4  12  24  46  72 106 139 183 238 298 360 426
#     4  11  26  48  73 106 150 196 245 298 361 436
#
# _framework density 21.726835000000001
#
# number of rings (size 3 to 8) (size 9 to 14) (size 15 to 20)
#    0.000    0.167    6.667    2.000    0.000    5.667 
#    0.000    0.000    0.000    0.000    0.000    0.000 
#    0.000    0.000    0.000    0.000    0.000    0.000 
#
# Total GULP energy -268329.974063 kJ/mol
# GULP energy per Si atom -5590.207793 kJ/mol
# Density = 2.167738 g / cm^3
# Si number density = 21.726835 Si / 1000 Ang^3
#
#
#
# Elastic Constant Matrix: (Units=GPa)
#
#
# Indices 1 2 3 4 5 6 
#
# 1 95.3815 44.9878 4.0198 0.0000 0.0000 0.0000
# 2 44.9878 95.3804 4.0187 0.0000 0.0000 0.0000
# 3 4.0198 4.0187 66.3234 0.0000 0.0000 0.0000
# 4 0.0000 0.0000 0.0000 16.6427 0.0000 0.0000
# 5 0.0000 0.0000 0.0000 0.0000 16.6432 0.0000
# 6 0.0000 0.0000 0.0000 0.0000 0.0000 34.6169
#
#
#
# Elastic Compliance Matrix: (Units=1/GPa)
#
#
# Indices 1 2 3 4 5 6 
#
# 1 0.013496 -0.006348 -0.000433 0.000000 0.000000 0.000000
# 2 -0.006348 0.013496 -0.000433 0.000000 0.000000 0.000000
# 3 -0.000433 -0.000433 0.015130 0.000000 0.000000 0.000000
# 4 0.000000 0.000000 0.000000 0.060087 0.000000 0.000000
# 5 0.000000 0.000000 0.000000 0.000000 0.060085 0.000000
# 6 0.000000 0.000000 0.000000 0.000000 0.000000 0.028888
#
#
# Mechanical properties :
#
#
# Convention : Reuss Voigt Hill
#
# Bulk Modulus (GPa) = 36.10756 40.34865 38.22810
# Shear Modulus (GPa) = 23.27297 27.18448 25.22873
#
# Velocity S-wave (km/s) = 3.27641 3.54106 3.41130
# Velocity P-wave (km/s) = 5.56490 5.94390 5.75752
#
# Compressibility (1/GPa) = 0.02769503
#
# Stress axis : x y z
#
# Youngs Moduli (GPa) = 74.09403 74.09332 66.09324
#
# Poissons Ratio (x) = 0.47031 0.02864
# Poissons Ratio (y) = 0.47031 0.02862
# Poissons Ratio (z) = 0.03211 0.03209
#
# Static dielectric constant tensor:
#      x y z
#    x 1.838920 0.000000 0.000000 
#    y 0.000000 1.838920 0.000000 
#    z 0.000000 0.000000 1.802240 
# 
# From -- ./inp_files/4203.got.cif
#   From: 2010.05.17/outbox.cif.g08.bks.cpg/sg134_3_cif.got.tgz:4203.got - 2010.05.20 12:42:49.
