data_PCOD9568279
_publ_section_title
;
Structure prediction by ZEFSAII (Michael W. Deem and Ramdas Pophale) SiO2 
 PCOD9568279
Probable space group: P 42/N N M
;
_chemical_formula_sum "Si O2"
_cell_formula_units_Z 72
_cell_length_a 11.662674
_cell_length_b 11.662674
_cell_length_c 27.683952
_cell_angle_alpha 90.000000
_cell_angle_beta 90.000000
_cell_angle_gamma 90.000000
_cell_volume 3765.514809
_symmetry_space_group_name_H-M "P 42/N N M"
_symmetry_group_IT_number 134
_space_group.IT_coordinate_system_code '2'
_symmetry_cell_setting 'tetragonal'
loop_
_space_group_symop_operation_xyz
x,y,z
1/2-y,x,1/2+z
1/2-x,1/2-y,z
y,1/2-x,1/2+z
x,1/2-y,1/2-z
1/2-x,y,1/2-z
y,x,-z
1/2-y,1/2-x,-z
-x,-y,-z
1/2+y,-x,1/2-z
1/2+x,1/2+y,-z
-y,1/2+x,1/2-z
-x,1/2+y,1/2+z
1/2+x,-y,1/2+z
-y,-x,z
1/2+y,1/2+x,z
loop_
_atom_site_type_symbol
_atom_site_label
_atom_site_fract_x
_atom_site_fract_y
_atom_site_fract_z
Si Si1 0.750546 0.440169 0.518692
Si Si2 0.304503 0.988068 0.910886
Si Si3 0.059984 0.121653 0.163094
Si Si4 0.620458 0.729261 0.398902
Si Si5 0.440521 0.750000 0.750000
O O1 0.647231 0.352770 0.531359
O O2 0.862571 0.362571 0.510772
O O3 0.715660 0.498033 0.468164
O O4 0.767447 0.529288 0.561554
O O5 0.367953 0.867953 0.902275
O O6 0.186635 0.002898 0.882573
O O7 0.384117 0.092673 0.892773
O O8 0.193227 0.111804 0.149096
O O9 0.020757 0.200151 0.207828
O O10 0.000900 0.999101 0.169309
O O11 0.750000 0.750000 0.417380
O O12 0.353999 0.646002 0.734882
#
# Coordination Sequence:
#
# PCOD9568279 Si02
#       5
#    16  16  16  16   8
#     4  10  20  34  53  75 102 142 190 230 258 296
#     4  10  20  34  51  73 104 143 183 217 255 307
#     4  10  20  34  54  78 103 130 166 216 268 317
#     4  10  21  34  48  73 106 141 172 206 260 316
#     4   9  18  34  57  82 106 134 169 213 268 324
#
# _framework density 19.120891
#
# number of rings (size 3 to 8) (size 9 to 14) (size 15 to 20)
#    0.000    2.111    0.000    3.333    0.000   10.222 
#    0.000   10.556    0.000    0.000    0.000    0.000 
#    0.000    0.000    0.000   54.000    0.000    0.000 
#
# Total GULP energy -401618.056714 kJ/mol
# GULP energy per Si atom -5578.028565 kJ/mol
# Density = 1.907737 g / cm^3
# Si number density = 19.120891 Si / 1000 Ang^3
#
#
#
# Elastic Constant Matrix: (Units=GPa)
#
#
# Indices 1 2 3 4 5 6 
#
# 1 75.6161 18.3661 32.6122 0.0000 0.0000 0.0000
# 2 18.3661 75.6161 32.6122 0.0000 0.0000 0.0000
# 3 32.6122 32.6122 71.7083 0.0000 0.0000 0.0000
# 4 0.0000 0.0000 0.0000 28.4066 0.0000 0.0000
# 5 0.0000 0.0000 0.0000 0.0000 28.4066 0.0000
# 6 0.0000 0.0000 0.0000 0.0000 0.0000 16.0706
#
#
#
# Elastic Compliance Matrix: (Units=1/GPa)
#
#
# Indices 1 2 3 4 5 6 
#
# 1 0.016507 -0.000960 -0.007071 0.000000 0.000000 0.000000
# 2 -0.000960 0.016507 -0.007071 0.000000 0.000000 0.000000
# 3 -0.007071 -0.007071 0.020377 0.000000 0.000000 0.000000
# 4 0.000000 0.000000 0.000000 0.035203 0.000000 0.000000
# 5 0.000000 0.000000 0.000000 0.000000 0.035203 0.000000
# 6 0.000000 0.000000 0.000000 0.000000 0.000000 0.062226
#
#
# Mechanical properties :
#
#
# Convention : Reuss Voigt Hill
#
# Bulk Modulus (GPa) = 43.12478 43.34685 43.23581
# Shear Modulus (GPa) = 22.32579 23.86673 23.09626
#
# Velocity S-wave (km/s) = 3.42074 3.53682 3.47927
# Velocity P-wave (km/s) = 6.18099 6.27678 6.22907
#
# Compressibility (1/GPa) = 0.02318853
#
# Stress axis : x y z
#
# Youngs Moduli (GPa) = 60.57891 60.57891 49.07513
#
# Poissons Ratio (x) = 0.05815 0.34700
# Poissons Ratio (y) = 0.05815 0.34700
# Poissons Ratio (z) = 0.42835 0.42835
#
# Static dielectric constant tensor:
#      x y z
#    x 1.694680 0.000000 0.000000 
#    y 0.000000 1.694680 0.000000 
#    z 0.000000 0.000000 1.640590 
# 
# From -- ./inp_files/10627.got.cif
#   From: 2010.05.17/outbox.cif.g08.bks.cpg/sg134_6_cif.got.tgz:10627.got - 2010.05.20 12:42:49.
