data_PCOD9568530
_publ_section_title
;
Structure prediction by ZEFSAII (Michael W. Deem and Ramdas Pophale) SiO2 
 PCOD9568530
Probable space group: P 42/N N M
;
_chemical_formula_sum "Si O2"
_cell_formula_units_Z 48
_cell_length_a 20.876260
_cell_length_b 20.876260
_cell_length_c 5.072537
_cell_angle_alpha 90.000000
_cell_angle_beta 90.000000
_cell_angle_gamma 90.000000
_cell_volume 2210.704105
_symmetry_space_group_name_H-M "P 42/N N M"
_symmetry_group_IT_number 134
_space_group.IT_coordinate_system_code '2'
_symmetry_cell_setting 'tetragonal'
loop_
_space_group_symop_operation_xyz
x,y,z
1/2-y,x,1/2+z
1/2-x,1/2-y,z
y,1/2-x,1/2+z
x,1/2-y,1/2-z
1/2-x,y,1/2-z
y,x,-z
1/2-y,1/2-x,-z
-x,-y,-z
1/2+y,-x,1/2-z
1/2+x,1/2+y,-z
-y,1/2+x,1/2-z
-x,1/2+y,1/2+z
1/2+x,-y,1/2+z
-y,-x,z
1/2+y,1/2+x,z
loop_
_atom_site_type_symbol
_atom_site_label
_atom_site_fract_x
_atom_site_fract_y
_atom_site_fract_z
Si Si1 0.250000 0.957140 0.250000
Si Si2 0.120737 0.879264 0.313912
Si Si3 0.629309 0.870692 0.000000
Si Si4 0.420790 0.079211 0.500000
Si Si5 0.250000 0.446449 0.750000
Si Si6 0.558814 0.058814 0.311542
O O1 0.192358 0.906994 0.305956
O O2 0.261758 0.003973 0.504184
O O3 0.090113 0.909888 0.567123
O O4 0.088052 0.911949 0.068455
O O5 0.584254 0.870648 0.262468
O O6 0.693798 0.897514 0.148796
O O7 0.484668 0.075308 0.326142
#
# Coordination Sequence:
#
# PCOD9568530 Si02
#       6
#     8   8   8   8   8   8
#     4  12  26  45  72 103 142 188 234 290 350 416
#     4  12  24  42  66  98 139 182 233 279 340 417
#     4  12  24  43  70 101 138 182 236 285 348 423
#     4  11  22  38  66 101 136 174 224 295 362 413
#     4  12  26  46  74 104 140 186 236 294 352 416
#     4  11  22  38  64  99 135 172 223 291 356 411
#
# _framework density 21.712537999999999
#
# number of rings (size 3 to 8) (size 9 to 14) (size 15 to 20)
#    0.000    0.333    0.000   12.000    0.000    3.000 
#    0.000    1.667    0.000   26.000    0.000    0.000 
#    0.000    0.000    0.000    0.000    0.000    0.000 
#
# Total GULP energy -267206.493404 kJ/mol
# GULP energy per Si atom -5566.801946 kJ/mol
# Density = 2.166312 g / cm^3
# Si number density = 21.712538 Si / 1000 Ang^3
#
#
#
# Elastic Constant Matrix: (Units=GPa)
#
#
# Indices 1 2 3 4 5 6 
#
# 1 128.9215 103.5789 68.7698 0.0000 0.0000 0.0000
# 2 103.5789 128.9261 68.7688 0.0000 0.0000 0.0000
# 3 68.7698 68.7688 209.9143 0.0000 0.0000 0.0000
# 4 0.0000 0.0000 0.0000 56.2472 0.0000 0.0000
# 5 0.0000 0.0000 0.0000 0.0000 56.2491 0.0000
# 6 0.0000 0.0000 0.0000 0.0000 0.0000 39.7256
#
#
#
# Elastic Compliance Matrix: (Units=1/GPa)
#
#
# Indices 1 2 3 4 5 6 
#
# 1 0.022396 -0.017060 -0.001748 0.000000 0.000000 0.000000
# 2 -0.017060 0.022395 -0.001747 0.000000 0.000000 0.000000
# 3 -0.001748 -0.001747 0.005909 0.000000 0.000000 0.000000
# 4 0.000000 0.000000 0.000000 0.017779 0.000000 0.000000
# 5 0.000000 0.000000 0.000000 0.000000 0.017778 0.000000
# 6 0.000000 0.000000 0.000000 0.000000 0.000000 0.025173
#
#
# Mechanical properties :
#
#
# Convention : Reuss Voigt Hill
#
# Bulk Modulus (GPa) = 104.29896 105.55521 104.92709
# Shear Modulus (GPa) = 32.10545 45.55401 38.82973
#
# Velocity S-wave (km/s) = 3.84951 4.58542 4.23348
# Velocity P-wave (km/s) = 8.24007 8.76100 8.50453
#
# Compressibility (1/GPa) = 0.00958782
#
# Stress axis : x y z
#
# Youngs Moduli (GPa) = 44.65108 44.65329 169.23333
#
# Poissons Ratio (x) = 0.76180 0.29583
# Poissons Ratio (y) = 0.76177 0.29573
# Poissons Ratio (z) = 0.07805 0.07803
#
# Static dielectric constant tensor:
#      x y z
#    x 2.287980 0.000000 0.000000 
#    y 0.000000 2.287500 0.000000 
#    z 0.000000 0.000000 1.759340 
# 
# From -- ./inp_files/692.got.cif
#   From: 2010.05.17/outbox.cif.g08.bks.cpg/sg134_1_cif.got.tgz:692.got - 2010.05.20 12:42:49.
