data_PCOD9568285
_publ_section_title
;
Structure prediction by ZEFSAII (Michael W. Deem and Ramdas Pophale) SiO2 
 PCOD9568285
Probable space group: P 42/N N M
;
_chemical_formula_sum "Si O2"
_cell_formula_units_Z 80
_cell_length_a 11.051488
_cell_length_b 11.051488
_cell_length_c 32.829038
_cell_angle_alpha 90.000000
_cell_angle_beta 90.000000
_cell_angle_gamma 90.000000
_cell_volume 4009.587261
_symmetry_space_group_name_H-M "P 42/N N M"
_symmetry_group_IT_number 134
_space_group.IT_coordinate_system_code '2'
_symmetry_cell_setting 'tetragonal'
loop_
_space_group_symop_operation_xyz
x,y,z
1/2-y,x,1/2+z
1/2-x,1/2-y,z
y,1/2-x,1/2+z
x,1/2-y,1/2-z
1/2-x,y,1/2-z
y,x,-z
1/2-y,1/2-x,-z
-x,-y,-z
1/2+y,-x,1/2-z
1/2+x,1/2+y,-z
-y,1/2+x,1/2-z
-x,1/2+y,1/2+z
1/2+x,-y,1/2+z
-y,-x,z
1/2+y,1/2+x,z
loop_
_atom_site_type_symbol
_atom_site_label
_atom_site_fract_x
_atom_site_fract_y
_atom_site_fract_z
Si Si1 0.520700 0.288025 0.404134
Si Si2 0.755051 0.449105 0.797391
Si Si3 0.823423 0.993449 0.576074
Si Si4 0.835464 0.867545 0.865007
Si Si5 0.698078 0.002331 0.495986
O O1 0.644750 0.355251 0.392888
O O2 0.420140 0.393956 0.409285
O O3 0.468085 0.188044 0.373083
O O4 0.526666 0.234134 0.449606
O O5 0.750000 0.486484 0.750000
O O6 0.658577 0.341424 0.801678
O O7 0.886468 0.386468 0.806325
O O8 0.706603 0.555152 0.826219
O O9 0.699151 0.953992 0.597050
O O10 0.806674 0.990983 0.527724
O O11 0.876949 0.123052 0.588452
O O12 0.750000 0.750000 0.865770
O O13 0.618950 0.881051 0.500000
O O14 0.613090 0.113090 0.509787
#
# Coordination Sequence:
#
# PCOD9568285 Si02
#       5
#    16  16  16  16  16
#     4  10  21  36  53  74 105 148 193 235 279 332
#     4   9  19  37  61  89 119 146 174 219 283 348
#     4  10  20  34  53  75  99 138 189 236 282 328
#     4  10  20  34  55  81 112 144 183 229 274 336
#     4  11  22  34  49  71 102 141 189 241 289 337
#
# _framework density 19.952176999999999
#
# number of rings (size 3 to 8) (size 9 to 14) (size 15 to 20)
#    0.000    2.000    2.000    2.400    0.000    6.800 
#    0.000    0.000    0.000    0.000    0.000    0.000 
#    0.000    1.600    0.000    0.000    0.000    0.000 
#
# Total GULP energy -446177.071774 kJ/mol
# GULP energy per Si atom -5577.213397 kJ/mol
# Density = 1.990676 g / cm^3
# Si number density = 19.952177 Si / 1000 Ang^3
#
#
#
# Elastic Constant Matrix: (Units=GPa)
#
#
# Indices 1 2 3 4 5 6 
#
# 1 71.5371 66.5155 47.7089 0.0000 0.0000 0.0000
# 2 66.5155 71.5374 47.7089 0.0000 0.0000 0.0000
# 3 47.7089 47.7089 96.8833 0.0000 0.0000 0.0000
# 4 0.0000 0.0000 0.0000 -79.3480 0.0000 0.0000
# 5 0.0000 0.0000 0.0000 0.0000 -79.2734 0.0000
# 6 0.0000 0.0000 0.0000 0.0000 0.0000 20.6713
#
#
#
# Elastic Compliance Matrix: (Units=1/GPa)
#
#
# Indices 1 2 3 4 5 6 
#
# 1 0.105058 -0.094076 -0.005408 0.000000 0.000000 0.000000
# 2 -0.094076 0.105057 -0.005407 0.000000 0.000000 0.000000
# 3 -0.005408 -0.005407 0.015647 0.000000 0.000000 0.000000
# 4 0.000000 0.000000 0.000000 -0.012603 0.000000 0.000000
# 5 0.000000 0.000000 0.000000 0.000000 -0.012615 0.000000
# 6 0.000000 0.000000 0.000000 0.000000 0.000000 0.048376
#
#
# Mechanical properties :
#
#
# Convention : Reuss Voigt Hill
#
# Bulk Modulus (GPa) = 62.57975 62.64716 62.61346
# Shear Modulus (GPa) = 10.77515 -22.38838 -5.80662
#
# Velocity S-wave (km/s) = 2.32642 -3.35341 -1.70780
# Velocity P-wave (km/s) = 6.21685 4.05869 5.24987
#
# Compressibility (1/GPa) = 0.01597961
#
# Stress axis : x y z
#
# Youngs Moduli (GPa) = 9.51856 9.51862 63.90842
#
# Poissons Ratio (x) = 0.89548 0.34560
# Poissons Ratio (y) = 0.89547 0.34557
# Poissons Ratio (z) = 0.05147 0.05147
#
# Static dielectric constant tensor:
#      x y z
#    x 1.781290 0.000000 0.000000 
#    y 0.000000 1.781290 0.000000 
#    z 0.000000 0.000000 1.703740 
# 
# From -- ./inp_files/11259.got.cif
#   From: 2010.05.17/outbox.cif.g08.bks.cpg/sg134_6_cif.got.tgz:11259.got - 2010.05.20 12:42:49.
