data_PCOD9568191
_publ_section_title
;
Structure prediction by ZEFSAII (Michael W. Deem and Ramdas Pophale) SiO2 
 PCOD9568191
Probable space group: P 42/N N M
;
_chemical_formula_sum "Si O2"
_cell_formula_units_Z 112
_cell_length_a 14.122430
_cell_length_b 14.122430
_cell_length_c 26.054963
_cell_angle_alpha 90.000000
_cell_angle_beta 90.000000
_cell_angle_gamma 90.000000
_cell_volume 5196.480744
_symmetry_space_group_name_H-M "P 42/N N M"
_symmetry_group_IT_number 134
_space_group.IT_coordinate_system_code '2'
_symmetry_cell_setting 'tetragonal'
loop_
_space_group_symop_operation_xyz
x,y,z
1/2-y,x,1/2+z
1/2-x,1/2-y,z
y,1/2-x,1/2+z
x,1/2-y,1/2-z
1/2-x,y,1/2-z
y,x,-z
1/2-y,1/2-x,-z
-x,-y,-z
1/2+y,-x,1/2-z
1/2+x,1/2+y,-z
-y,1/2+x,1/2-z
-x,1/2+y,1/2+z
1/2+x,-y,1/2+z
-y,-x,z
1/2+y,1/2+x,z
loop_
_atom_site_type_symbol
_atom_site_label
_atom_site_fract_x
_atom_site_fract_y
_atom_site_fract_z
Si Si1 0.570096 0.591433 0.233550
Si Si2 0.389440 0.455750 0.347784
Si Si3 0.429295 0.085127 0.556684
Si Si4 0.276735 0.569000 0.913315
Si Si5 0.465996 0.693182 0.142832
Si Si6 0.206967 0.550917 0.695865
Si Si7 0.111890 0.044618 0.550444
O O1 0.498405 0.501596 0.237377
O O2 0.589725 0.624144 0.291501
O O3 0.515104 0.661890 0.196232
O O4 0.663847 0.552302 0.205973
O O5 0.487504 0.512497 0.344822
O O6 0.306023 0.532319 0.356558
O O7 0.396465 0.386444 0.396567
O O8 0.390566 0.109435 0.500000
O O9 0.463342 0.163468 0.596581
O O10 0.525659 0.025659 0.547917
O O11 0.356180 0.012974 0.583105
O O12 0.332413 0.667588 0.923585
O O13 0.233429 0.564065 0.855697
O O14 0.195052 0.533295 0.950792
O O15 0.368758 0.631243 0.138395
O O16 0.250000 0.581066 0.750000
O O17 0.119818 0.619818 0.683762
O O18 0.108823 0.108823 0.500000
O O19 0.013672 0.986328 0.551567
#
# Coordination Sequence:
#
# PCOD9568191 Si02
#       7
#    16  16  16  16  16  16  16
#     4   9  17  33  54  77 109 149 190 228 284 352
#     4  10  21  36  56  80 111 156 193 228 289 353
#     4   9  18  33  56  84 111 142 182 235 297 342
#     4  10  20  37  63  89 112 146 198 247 287 344
#     4  10  19  34  58  85 112 144 188 243 288 341
#     4  10  19  32  54  83 115 151 191 238 292 352
#     4  10  23  42  59  80 117 158 191 230 287 351
#
# _framework density 21.553046999999999
#
# number of rings (size 3 to 8) (size 9 to 14) (size 15 to 20)
#    0.000    2.286    1.429    1.286    2.000    2.429 
#    0.000    2.143    0.000    6.000    0.000    0.000 
#    0.000    0.000    0.000    0.000    0.000    0.000 
#
# Total GULP energy -623873.954359 kJ/mol
# GULP energy per Si atom -5570.303164 kJ/mol
# Density = 2.150399 g / cm^3
# Si number density = 21.553047 Si / 1000 Ang^3
#
#
#
# Elastic Constant Matrix: (Units=GPa)
#
#
# Indices 1 2 3 4 5 6 
#
# 1 71.2802 -23.1415 21.9390 0.0000 0.0000 0.0000
# 2 -23.1415 71.2798 21.9390 0.0000 0.0000 0.0000
# 3 21.9390 21.9390 147.4188 0.0000 0.0000 0.0000
# 4 0.0000 0.0000 0.0000 12.9800 0.0000 0.0000
# 5 0.0000 0.0000 0.0000 0.0000 12.9801 0.0000
# 6 0.0000 0.0000 0.0000 0.0000 0.0000 22.4290
#
#
#
# Elastic Compliance Matrix: (Units=1/GPa)
#
#
# Indices 1 2 3 4 5 6 
#
# 1 0.017312 0.006721 -0.003577 0.000000 0.000000 0.000000
# 2 0.006721 0.017312 -0.003577 0.000000 0.000000 0.000000
# 3 -0.003577 -0.003577 0.007848 0.000000 0.000000 0.000000
# 4 0.000000 0.000000 0.000000 0.077041 0.000000 0.000000
# 5 0.000000 0.000000 0.000000 0.000000 0.077041 0.000000
# 6 0.000000 0.000000 0.000000 0.000000 0.000000 0.044585
#
#
# Mechanical properties :
#
#
# Convention : Reuss Voigt Hill
#
# Bulk Modulus (GPa) = 24.03369 36.82798 30.43083
# Shear Modulus (GPa) = 19.54091 27.62730 23.58411
#
# Velocity S-wave (km/s) = 3.01432 3.58415 3.31151
# Velocity P-wave (km/s) = 4.82597 5.85255 5.36388
#
# Compressibility (1/GPa) = 0.04160827
#
# Stress axis : x y z
#
# Youngs Moduli (GPa) = 57.76302 57.76264 127.42153
#
# Poissons Ratio (x) = -0.38824 0.45575
# Poissons Ratio (y) = -0.38825 0.45575
# Poissons Ratio (z) = 0.20660 0.20660
#
# Static dielectric constant tensor:
#      x y z
#    x 1.783270 0.000000 0.000000 
#    y 0.000000 1.783270 0.000000 
#    z 0.000000 0.000000 1.898130 
# 
# From -- ./inp_files/10138.got.cif
#   From: 2010.05.17/outbox.cif.g08.bks.cpg/sg134_6_cif.got.tgz:10138.got - 2010.05.20 12:42:49.
