data_PCOD9568585
_publ_section_title
;
Structure prediction by ZEFSAII (Michael W. Deem and Ramdas Pophale) SiO2 
 PCOD9568585
Probable space group: P 42/N N M
;
_chemical_formula_sum "Si O2"
_cell_formula_units_Z 88
_cell_length_a 12.000000
_cell_length_b 12.000000
_cell_length_c 30.000000
_cell_angle_alpha 90.000000
_cell_angle_beta 90.000000
_cell_angle_gamma 90.000000
_cell_volume 4320.000000
_symmetry_space_group_name_H-M "P 42/N N M"
_symmetry_group_IT_number 134
_space_group.IT_coordinate_system_code '2'
_symmetry_cell_setting 'tetragonal'
loop_
_space_group_symop_operation_xyz
x,y,z
1/2-y,x,1/2+z
1/2-x,1/2-y,z
y,1/2-x,1/2+z
x,1/2-y,1/2-z
1/2-x,y,1/2-z
y,x,-z
1/2-y,1/2-x,-z
-x,-y,-z
1/2+y,-x,1/2-z
1/2+x,1/2+y,-z
-y,1/2+x,1/2-z
-x,1/2+y,1/2+z
1/2+x,-y,1/2+z
-y,-x,z
1/2+y,1/2+x,z
loop_
_atom_site_type_symbol
_atom_site_label
_atom_site_fract_x
_atom_site_fract_y
_atom_site_fract_z
Si Si1 0.910729 0.771394 0.801563
Si Si2 0.456950 0.358962 0.565971
Si Si3 0.843405 0.156596 0.072279
Si Si4 0.841995 0.158006 0.179369
Si Si5 0.786779 0.574320 0.835536
Si Si6 0.734042 0.942552 0.479767
Si Si7 0.750000 0.427241 0.750000
O O1 0.877758 0.750000 0.750000
O O2 0.890034 0.658125 0.828423
O O3 0.827045 0.858403 0.824985
O O4 0.036874 0.809637 0.802988
O O5 0.526884 0.473117 0.569188
O O6 0.465435 0.296520 0.613499
O O7 0.330052 0.382758 0.549867
O O8 0.499538 0.289297 0.523426
O O9 0.750000 0.250000 0.060703
O O10 0.847855 0.152146 0.125729
O O11 0.962639 0.186099 0.051723
O O12 0.750000 0.250000 0.191734
O O13 0.791326 0.491733 0.793627
O O14 0.644317 0.855684 0.500000
O O15 0.850171 0.350171 0.733756
#
# Coordination Sequence:
#
# PCOD9568585 Si02
#       7
#    16  16   8   8  16  16   8
#     4  11  24  42  67  96 134 179 227 285 342 423
#     4  11  23  41  68  98 127 174 226 283 335 408
#     4  11  23  45  65  93 136 178 222 280 343 418
#     4  11  28  43  69 105 139 182 232 291 364 425
#     4  11  23  43  69  97 131 179 233 276 348 410
#     4  11  24  41  67  97 136 176 222 279 344 410
#     4  11  24  43  64  96 136 177 230 289 342 406
#
# _framework density 20.370370000000001
#
# number of rings (size 3 to 8) (size 9 to 14) (size 15 to 20)
#    0.000    1.000    1.818    5.727   10.182    2.909 
#    1.636    0.000    0.000    0.000    0.000    0.000 
#    0.000    0.000    0.000    0.000    0.000    0.000 
#
# Total GULP energy -491512.328477 kJ/mol
# GULP energy per Si atom -5585.367369 kJ/mol
# Density = 2.032401 g / cm^3
# Si number density = 20.370370 Si / 1000 Ang^3
#
#
#
# Elastic Constant Matrix: (Units=GPa)
#
#
# Indices 1 2 3 4 5 6 
#
# 1 90.9418 45.7796 19.4589 0.0000 0.0000 0.0000
# 2 45.7796 90.9409 19.4584 0.0000 0.0000 0.0000
# 3 19.4589 19.4584 122.7592 0.0000 0.0000 0.0000
# 4 0.0000 0.0000 0.0000 28.0279 0.0000 0.0000
# 5 0.0000 0.0000 0.0000 0.0000 28.0280 0.0000
# 6 0.0000 0.0000 0.0000 0.0000 0.0000 31.0990
#
#
#
# Elastic Compliance Matrix: (Units=1/GPa)
#
#
# Indices 1 2 3 4 5 6 
#
# 1 0.014901 -0.007241 -0.001214 0.000000 0.000000 0.000000
# 2 -0.007241 0.014901 -0.001214 0.000000 0.000000 0.000000
# 3 -0.001214 -0.001214 0.008531 0.000000 0.000000 0.000000
# 4 0.000000 0.000000 0.000000 0.035679 0.000000 0.000000
# 5 0.000000 0.000000 0.000000 0.000000 0.035679 0.000000
# 6 0.000000 0.000000 0.000000 0.000000 0.000000 0.032155
#
#
# Mechanical properties :
#
#
# Convention : Reuss Voigt Hill
#
# Bulk Modulus (GPa) = 52.64856 52.67062 52.65959
# Shear Modulus (GPa) = 29.84774 32.09398 30.97086
#
# Velocity S-wave (km/s) = 3.83201 3.97359 3.90344
# Velocity P-wave (km/s) = 6.74395 6.85312 6.79875
#
# Compressibility (1/GPa) = 0.01899387
#
# Stress axis : x y z
#
# Youngs Moduli (GPa) = 67.10895 67.10835 117.22036
#
# Poissons Ratio (x) = 0.48596 0.14233
# Poissons Ratio (y) = 0.48597 0.14232
# Poissons Ratio (z) = 0.08148 0.08148
#
# Static dielectric constant tensor:
#      x y z
#    x 1.762350 0.000000 0.000000 
#    y 0.000000 1.762350 0.000000 
#    z 0.000000 0.000000 1.689070 
# 
# From -- ./inp_files/11486.got.cif
#   From: 2010.05.17/outbox.ucp.g08.bks.cvg/sg134_6_cif.got.tgz:11486.got - 2010.06.11 11:39:54.
