data_PCOD9568319
_publ_section_title
;
Structure prediction by ZEFSAII (Michael W. Deem and Ramdas Pophale) SiO2 
 PCOD9568319
Probable space group: P 42/N N M
;
_chemical_formula_sum "Si O2"
_cell_formula_units_Z 34
_cell_length_a 9.825837
_cell_length_b 9.825837
_cell_length_c 17.461427
_cell_angle_alpha 90.000000
_cell_angle_beta 90.000000
_cell_angle_gamma 90.000000
_cell_volume 1685.849663
_symmetry_space_group_name_H-M "P 42/N N M"
_symmetry_group_IT_number 134
_space_group.IT_coordinate_system_code '2'
_symmetry_cell_setting 'tetragonal'
loop_
_space_group_symop_operation_xyz
x,y,z
1/2-y,x,1/2+z
1/2-x,1/2-y,z
y,1/2-x,1/2+z
x,1/2-y,1/2-z
1/2-x,y,1/2-z
y,x,-z
1/2-y,1/2-x,-z
-x,-y,-z
1/2+y,-x,1/2-z
1/2+x,1/2+y,-z
-y,1/2+x,1/2-z
-x,1/2+y,1/2+z
1/2+x,-y,1/2+z
-y,-x,z
1/2+y,1/2+x,z
loop_
_atom_site_type_symbol
_atom_site_label
_atom_site_fract_x
_atom_site_fract_y
_atom_site_fract_z
Si Si1 0.599724 0.099724 0.650713
Si Si2 0.410310 0.910310 0.165125
Si Si3 0.250000 0.750000 0.750000
Si Si4 0.583671 0.083671 0.062581
Si Si5 0.384767 0.884767 0.603977
O O1 0.563561 0.257163 0.634929
O O2 0.590407 0.090407 0.743082
O O3 0.498271 0.998271 0.609739
O O4 0.519701 0.019701 0.139120
O O5 0.338973 0.838973 0.690257
O O6 0.565200 0.246283 0.063402
O O7 0.500000 0.000000 0.000000
#
# Coordination Sequence:
#
# PCOD9568319 Si02
#       5
#     8   8   2   8   8
#     4   9  18  35  58  87 109 143 184 225 279 325
#     4   9  19  35  57  82 119 145 174 228 278 327
#     4   8  16  32  56  84 108 132 172 238 288 312
#     4  10  22  39  54  76 110 148 182 230 283 329
#     4  10  20  35  58  82 108 143 189 233 277 340
#
# _framework density 20.167873
#
# number of rings (size 3 to 8) (size 9 to 14) (size 15 to 20)
#    0.000    2.824    0.000    4.235    0.000    5.647 
#    0.000   11.765    0.000    0.000    0.000    0.000 
#    0.000    0.000    0.000    0.000    0.000    0.000 
#
# Total GULP energy -189729.040639 kJ/mol
# GULP energy per Si atom -5580.265901 kJ/mol
# Density = 2.012197 g / cm^3
# Si number density = 20.167873 Si / 1000 Ang^3
#
#
#
# Elastic Constant Matrix: (Units=GPa)
#
#
# Indices 1 2 3 4 5 6 
#
# 1 136.3102 127.5879 26.7910 0.0000 0.0000 0.0000
# 2 127.5879 136.3102 26.7910 0.0000 0.0000 0.0000
# 3 26.7910 26.7910 68.2418 0.0000 0.0000 0.0000
# 4 0.0000 0.0000 0.0000 12.8505 0.0000 0.0000
# 5 0.0000 0.0000 0.0000 0.0000 12.8505 0.0000
# 6 0.0000 0.0000 0.0000 0.0000 0.0000 50.7710
#
#
#
# Elastic Compliance Matrix: (Units=1/GPa)
#
#
# Indices 1 2 3 4 5 6 
#
# 1 0.059383 -0.055266 -0.001617 0.000000 0.000000 0.000000
# 2 -0.055266 0.059383 -0.001617 0.000000 0.000000 0.000000
# 3 -0.001617 -0.001617 0.015923 0.000000 0.000000 0.000000
# 4 0.000000 0.000000 0.000000 0.077818 0.000000 0.000000
# 5 0.000000 0.000000 0.000000 0.000000 0.077818 0.000000
# 6 0.000000 0.000000 0.000000 0.000000 0.000000 0.019696
#
#
# Mechanical properties :
#
#
# Convention : Reuss Voigt Hill
#
# Bulk Modulus (GPa) = 56.52238 78.13353 67.32796
# Shear Modulus (GPa) = 11.54958 25.94057 18.74507
#
# Velocity S-wave (km/s) = 2.39565 3.59030 3.05200
# Velocity P-wave (km/s) = 5.97821 7.48416 6.77317
#
# Compressibility (1/GPa) = 0.01769211
#
# Stress axis : x y z
#
# Youngs Moduli (GPa) = 16.83974 16.83974 62.80216
#
# Poissons Ratio (x) = 0.93066 0.10152
# Poissons Ratio (y) = 0.93066 0.10152
# Poissons Ratio (z) = 0.02722 0.02722
#
# Static dielectric constant tensor:
#      x y z
#    x 1.679070 0.000000 0.000000 
#    y 0.000000 1.679070 0.000000 
#    z 0.000000 0.000000 1.817770 
# 
# From -- ./inp_files/8346.got.cif
#   From: 2010.05.17/outbox.cif.g08.bks.cpg/sg134_5_cif.got.tgz:8346.got - 2010.05.20 12:42:49.
