data_PCOD9568206
_publ_section_title
;
Structure prediction by ZEFSAII (Michael W. Deem and Ramdas Pophale) SiO2 
 PCOD9568206
Probable space group: P 42/N N M
;
_chemical_formula_sum "Si O2"
_cell_formula_units_Z 72
_cell_length_a 13.336241
_cell_length_b 13.336241
_cell_length_c 21.727731
_cell_angle_alpha 90.000000
_cell_angle_beta 90.000000
_cell_angle_gamma 90.000000
_cell_volume 3864.392637
_symmetry_space_group_name_H-M "P 42/N N M"
_symmetry_group_IT_number 134
_space_group.IT_coordinate_system_code '2'
_symmetry_cell_setting 'tetragonal'
loop_
_space_group_symop_operation_xyz
x,y,z
1/2-y,x,1/2+z
1/2-x,1/2-y,z
y,1/2-x,1/2+z
x,1/2-y,1/2-z
1/2-x,y,1/2-z
y,x,-z
1/2-y,1/2-x,-z
-x,-y,-z
1/2+y,-x,1/2-z
1/2+x,1/2+y,-z
-y,1/2+x,1/2-z
-x,1/2+y,1/2+z
1/2+x,-y,1/2+z
-y,-x,z
1/2+y,1/2+x,z
loop_
_atom_site_type_symbol
_atom_site_label
_atom_site_fract_x
_atom_site_fract_y
_atom_site_fract_z
Si Si1 0.551788 0.613380 0.302309
Si Si2 0.375048 0.456483 0.936123
Si Si3 0.750000 0.417322 0.250000
Si Si4 0.312325 0.142459 0.320469
Si Si5 0.024719 0.812753 0.619640
O O1 0.451248 0.548753 0.291079
O O2 0.619841 0.618593 0.239763
O O3 0.553012 0.730101 0.319051
O O4 0.608210 0.559485 0.359152
O O5 0.456264 0.543737 0.922697
O O6 0.368307 0.375025 0.881988
O O7 0.262932 0.501462 0.934846
O O8 0.406253 0.406253 0.000000
O O9 0.848144 0.348144 0.247892
O O10 0.750029 0.466918 0.183196
O O11 0.250000 0.250000 0.318520
O O12 0.126025 0.873976 0.608770
#
# Coordination Sequence:
#
# PCOD9568206 Si02
#       5
#    16  16   8  16  16
#     4  10  20  34  58  90 119 149 188 238 298 355
#     4  11  24  40  58  83 116 161 208 249 294 349
#     4   9  16  24  42  75 112 144 168 205 278 359
#     4  11  21  37  60  87 122 157 196 239 295 354
#     4  10  19  33  55  87 122 152 185 238 305 365
#
# _framework density 18.631647000000001
#
# number of rings (size 3 to 8) (size 9 to 14) (size 15 to 20)
#    0.000    1.667    2.222    4.000    0.000    3.556 
#    0.000    1.111    0.000   15.333    0.000    0.000 
#    0.000    0.000    0.000    0.000    0.000    0.000 
#
# Total GULP energy -400846.244714 kJ/mol
# GULP energy per Si atom -5567.308954 kJ/mol
# Density = 1.858924 g / cm^3
# Si number density = 18.631647 Si / 1000 Ang^3
#
#
#
# Elastic Constant Matrix: (Units=GPa)
#
#
# Indices 1 2 3 4 5 6 
#
# 1 91.8383 55.2465 41.1141 0.0000 0.0000 0.0000
# 2 55.2465 91.8383 41.1141 0.0000 0.0000 0.0000
# 3 41.1141 41.1141 71.4781 0.0000 0.0000 0.0000
# 4 0.0000 0.0000 0.0000 29.4414 0.0000 0.0000
# 5 0.0000 0.0000 0.0000 0.0000 29.4414 0.0000
# 6 0.0000 0.0000 0.0000 0.0000 0.0000 39.9384
#
#
#
# Elastic Compliance Matrix: (Units=1/GPa)
#
#
# Indices 1 2 3 4 5 6 
#
# 1 0.018675 -0.008654 -0.005764 0.000000 0.000000 0.000000
# 2 -0.008654 0.018675 -0.005764 0.000000 0.000000 0.000000
# 3 -0.005764 -0.005764 0.020621 0.000000 0.000000 0.000000
# 4 0.000000 0.000000 0.000000 0.033966 0.000000 0.000000
# 5 0.000000 0.000000 0.000000 0.000000 0.033966 0.000000
# 6 0.000000 0.000000 0.000000 0.000000 0.000000 0.025039
#
#
# Mechanical properties :
#
#
# Convention : Reuss Voigt Hill
#
# Bulk Modulus (GPa) = 56.79519 58.90043 57.84781
# Shear Modulus (GPa) = 25.35824 27.60957 26.48390
#
# Velocity S-wave (km/s) = 3.69322 3.85368 3.77430
# Velocity P-wave (km/s) = 6.98110 7.17515 7.07879
#
# Compressibility (1/GPa) = 0.01760712
#
# Stress axis : x y z
#
# Youngs Moduli (GPa) = 53.54780 53.54780 48.49321
#
# Poissons Ratio (x) = 0.46338 0.27953
# Poissons Ratio (y) = 0.46338 0.27953
# Poissons Ratio (z) = 0.30866 0.30866
#
# Static dielectric constant tensor:
#      x y z
#    x 1.715210 0.000000 0.000000 
#    y 0.000000 1.715210 0.000000 
#    z 0.000000 0.000000 1.623810 
# 
# From -- ./inp_files/7644.got.cif
#   From: 2010.05.17/outbox.cif.g08.bks.cpg/sg134_4_cif.got.tgz:7644.got - 2010.05.20 12:42:49.
