data_PCOD9568230
_publ_section_title
;
Structure prediction by ZEFSAII (Michael W. Deem and Ramdas Pophale) SiO2 
 PCOD9568230
Probable space group: P 42/N N M
;
_chemical_formula_sum "Si O2"
_cell_formula_units_Z 96
_cell_length_a 15.293801
_cell_length_b 15.293801
_cell_length_c 20.180225
_cell_angle_alpha 90.000000
_cell_angle_beta 90.000000
_cell_angle_gamma 90.000000
_cell_volume 4720.161671
_symmetry_space_group_name_H-M "P 42/N N M"
_symmetry_group_IT_number 134
_space_group.IT_coordinate_system_code '2'
_symmetry_cell_setting 'tetragonal'
loop_
_space_group_symop_operation_xyz
x,y,z
1/2-y,x,1/2+z
1/2-x,1/2-y,z
y,1/2-x,1/2+z
x,1/2-y,1/2-z
1/2-x,y,1/2-z
y,x,-z
1/2-y,1/2-x,-z
-x,-y,-z
1/2+y,-x,1/2-z
1/2+x,1/2+y,-z
-y,1/2+x,1/2-z
-x,1/2+y,1/2+z
1/2+x,-y,1/2+z
-y,-x,z
1/2+y,1/2+x,z
loop_
_atom_site_type_symbol
_atom_site_label
_atom_site_fract_x
_atom_site_fract_y
_atom_site_fract_z
Si Si1 0.110424 0.750994 0.839405
Si Si2 0.493432 0.854127 0.235865
Si Si3 0.640005 0.498134 0.443920
Si Si4 0.830674 0.682805 0.422652
Si Si5 0.166123 0.453833 0.089476
Si Si6 0.567157 0.671996 0.796520
O O1 0.178975 0.821026 0.866521
O O2 0.173983 0.673983 0.808280
O O3 0.055443 0.702241 0.896051
O O4 0.036501 0.807338 0.800751
O O5 0.492351 0.750000 0.250000
O O6 0.500266 0.861654 0.156349
O O7 0.579916 0.902104 0.265636
O O8 0.408095 0.908095 0.258886
O O9 0.544837 0.455164 0.436499
O O10 0.626140 0.598312 0.423691
O O11 0.665268 0.493550 0.520776
O O12 0.750000 0.750000 0.417710
O O13 0.840916 0.659085 0.500000
O O14 0.914788 0.738202 0.401256
O O15 0.821232 0.605379 0.370467
O O16 0.604112 0.750000 0.750000
#
# Coordination Sequence:
#
# PCOD9568230 Si02
#       6
#    16  16  16  16  16  16
#     4  10  22  41  64  94 132 171 209 253 318 404
#     4  12  26  45  66  91 127 176 230 282 330 380
#     4  10  19  35  63  97 127 164 206 261 326 391
#     4  11  21  35  60  94 130 164 203 259 330 394
#     4  11  20  37  61  94 126 161 209 268 326 384
#     4  12  25  41  66  96 134 170 216 265 330 399
#
# _framework density 20.338287000000001
#
# number of rings (size 3 to 8) (size 9 to 14) (size 15 to 20)
#    0.000    1.000    1.667    8.500    0.000    2.833 
#    0.000    1.667    0.000    4.000    0.000    0.000 
#    0.000    0.000    0.000    0.000    0.000    0.000 
#
# Total GULP energy -535811.697660 kJ/mol
# GULP energy per Si atom -5581.371851 kJ/mol
# Density = 2.029200 g / cm^3
# Si number density = 20.338287 Si / 1000 Ang^3
#
#
#
# Elastic Constant Matrix: (Units=GPa)
#
#
# Indices 1 2 3 4 5 6 
#
# 1 121.0878 59.9273 31.4599 0.0000 0.0000 0.0000
# 2 59.9273 121.0877 31.4598 0.0000 0.0000 0.0000
# 3 31.4599 31.4598 80.0831 0.0000 0.0000 0.0000
# 4 0.0000 0.0000 0.0000 13.2803 0.0000 0.0000
# 5 0.0000 0.0000 0.0000 0.0000 13.2804 0.0000
# 6 0.0000 0.0000 0.0000 0.0000 0.0000 34.7900
#
#
#
# Elastic Compliance Matrix: (Units=1/GPa)
#
#
# Indices 1 2 3 4 5 6 
#
# 1 0.011374 -0.004976 -0.002513 0.000000 0.000000 0.000000
# 2 -0.004976 0.011374 -0.002513 0.000000 0.000000 0.000000
# 3 -0.002513 -0.002513 0.014462 0.000000 0.000000 0.000000
# 4 0.000000 0.000000 0.000000 0.075299 0.000000 0.000000
# 5 0.000000 0.000000 0.000000 0.000000 0.075299 0.000000
# 6 0.000000 0.000000 0.000000 0.000000 0.000000 0.028744
#
#
# Mechanical properties :
#
#
# Convention : Reuss Voigt Hill
#
# Bulk Modulus (GPa) = 58.12525 63.10583 60.61554
# Shear Modulus (GPa) = 20.63615 25.56427 23.10021
#
# Velocity S-wave (km/s) = 3.18881 3.54920 3.37382
# Velocity P-wave (km/s) = 6.49609 6.92035 6.71157
#
# Compressibility (1/GPa) = 0.01720423
#
# Stress axis : x y z
#
# Youngs Moduli (GPa) = 87.91804 87.91801 69.14787
#
# Poissons Ratio (x) = 0.43750 0.17380
# Poissons Ratio (y) = 0.43750 0.17380
# Poissons Ratio (z) = 0.22097 0.22097
#
# Static dielectric constant tensor:
#      x y z
#    x 1.729640 0.000000 0.000000 
#    y 0.000000 1.729640 0.000000 
#    z 0.000000 0.000000 1.747950 
# 
# From -- ./inp_files/9127.got.cif
#   From: 2010.05.17/outbox.cif.g08.bks.cpg/sg134_5_cif.got.tgz:9127.got - 2010.05.20 12:42:49.
