data_PCOD9568137
_publ_section_title
;
Structure prediction by ZEFSAII (Michael W. Deem and Ramdas Pophale) SiO2 
 PCOD9568137
Probable space group: P 42/N N M
;
_chemical_formula_sum "Si O2"
_cell_formula_units_Z 96
_cell_length_a 22.562277
_cell_length_b 22.562277
_cell_length_c 9.362567
_cell_angle_alpha 90.000000
_cell_angle_beta 90.000000
_cell_angle_gamma 90.000000
_cell_volume 4766.074122
_symmetry_space_group_name_H-M "P 42/N N M"
_symmetry_group_IT_number 134
_space_group.IT_coordinate_system_code '2'
_symmetry_cell_setting 'tetragonal'
loop_
_space_group_symop_operation_xyz
x,y,z
1/2-y,x,1/2+z
1/2-x,1/2-y,z
y,1/2-x,1/2+z
x,1/2-y,1/2-z
1/2-x,y,1/2-z
y,x,-z
1/2-y,1/2-x,-z
-x,-y,-z
1/2+y,-x,1/2-z
1/2+x,1/2+y,-z
-y,1/2+x,1/2-z
-x,1/2+y,1/2+z
1/2+x,-y,1/2+z
-y,-x,z
1/2+y,1/2+x,z
loop_
_atom_site_type_symbol
_atom_site_label
_atom_site_fract_x
_atom_site_fract_y
_atom_site_fract_z
Si Si1 0.606071 0.484535 0.667883
Si Si2 0.652309 0.809875 0.350929
Si Si3 0.915746 0.987978 0.261125
Si Si4 0.478460 0.143758 0.537347
Si Si5 0.734421 0.520776 0.582310
Si Si6 0.671247 0.596232 0.388750
O O1 0.572080 0.427921 0.611053
O O2 0.559529 0.538903 0.668572
O O3 0.617705 0.482145 0.836582
O O4 0.669155 0.493411 0.594927
O O5 0.652927 0.750000 0.250000
O O6 0.689298 0.810703 0.500000
O O7 0.586728 0.838090 0.395416
O O8 0.678256 0.859985 0.243543
O O9 0.854374 0.965883 0.329626
O O10 0.900822 0.977320 0.094429
O O11 0.948917 0.051084 0.277037
O O12 0.507010 0.208489 0.506376
O O13 0.750000 0.526873 0.750000
O O14 0.725788 0.580609 0.490299
O O15 0.626841 0.626841 0.500000
#
# Coordination Sequence:
#
# PCOD9568137 Si02
#       6
#    16  16  16  16  16  16
#     4  10  18  33  57  85 119 154 194 249 307 363
#     4  12  24  44  66  87 113 157 215 270 321 368
#     4  11  22  34  57  93 128 157 199 250 309 379
#     4  11  19  37  58  85 118 162 201 241 302 382
#     4  10  22  38  58  83 116 160 206 249 304 377
#     4  12  21  40  60  87 114 157 205 254 312 367
#
# _framework density 20.142364000000001
#
# number of rings (size 3 to 8) (size 9 to 14) (size 15 to 20)
#    0.000    1.000    5.000    4.500    0.000    3.000 
#    3.000    0.833    0.000    9.500    0.000    0.000 
#    0.000   39.667    0.000    1.667    0.000    0.000 
#
# Total GULP energy -534502.434512 kJ/mol
# GULP energy per Si atom -5567.733693 kJ/mol
# Density = 2.009652 g / cm^3
# Si number density = 20.142364 Si / 1000 Ang^3
#
#
#
# Elastic Constant Matrix: (Units=GPa)
#
#
# Indices 1 2 3 4 5 6 
#
# 1 72.4549 40.3796 45.7804 0.0000 0.0000 0.0000
# 2 40.3796 72.4549 45.7804 0.0000 0.0000 0.0000
# 3 45.7804 45.7804 135.2178 0.0000 0.0000 0.0000
# 4 0.0000 0.0000 0.0000 14.1792 0.0000 0.0000
# 5 0.0000 0.0000 0.0000 0.0000 14.1791 0.0000
# 6 0.0000 0.0000 0.0000 0.0000 0.0000 11.7952
#
#
#
# Elastic Compliance Matrix: (Units=1/GPa)
#
#
# Indices 1 2 3 4 5 6 
#
# 1 0.021698 -0.009478 -0.004137 0.000000 0.000000 0.000000
# 2 -0.009478 0.021698 -0.004137 0.000000 0.000000 0.000000
# 3 -0.004137 -0.004137 0.010197 0.000000 0.000000 0.000000
# 4 0.000000 0.000000 0.000000 0.070526 0.000000 0.000000
# 5 0.000000 0.000000 0.000000 0.000000 0.070526 0.000000
# 6 0.000000 0.000000 0.000000 0.000000 0.000000 0.084780
#
#
# Mechanical properties :
#
#
# Convention : Reuss Voigt Hill
#
# Bulk Modulus (GPa) = 55.28668 60.44538 57.86603
# Shear Modulus (GPa) = 15.57823 17.90984 16.74403
#
# Velocity S-wave (km/s) = 2.78403 2.98512 2.88633
# Velocity P-wave (km/s) = 6.15159 6.47730 6.31654
#
# Compressibility (1/GPa) = 0.01808754
#
# Stress axis : x y z
#
# Youngs Moduli (GPa) = 46.08678 46.08678 98.06878
#
# Poissons Ratio (x) = 0.43683 0.40573
# Poissons Ratio (y) = 0.43683 0.40573
# Poissons Ratio (z) = 0.19067 0.19067
#
# Static dielectric constant tensor:
#      x y z
#    x 1.800730 0.000000 0.000000 
#    y 0.000000 1.800730 0.000000 
#    z 0.000000 0.000000 1.807200 
# 
# From -- ./inp_files/3227.got.cif
#   From: 2010.05.17/outbox.cif.g08.bks.cpg/sg134_2_cif.got.tgz:3227.got - 2010.05.20 12:42:49.
