data_PCOD9568601
_publ_section_title
;
Structure prediction by ZEFSAII (Michael W. Deem and Ramdas Pophale) SiO2 
 PCOD9568601
Probable space group: P 42/M B C
;
_chemical_formula_sum "Si O2"
_cell_formula_units_Z 80
_cell_length_a 17.236482
_cell_length_b 17.236482
_cell_length_c 15.645783
_cell_angle_alpha 90.000000
_cell_angle_beta 90.000000
_cell_angle_gamma 90.000000
_cell_volume 4648.304424
_symmetry_space_group_name_H-M "P 42/M B C"
_symmetry_group_IT_number 135
_symmetry_cell_setting 'tetragonal'
loop_
_space_group_symop_operation_xyz
x,y,z
-y,x,1/2+z
-x,-y,z
y,-x,1/2+z
1/2+x,1/2-y,-z
1/2-x,1/2+y,-z
1/2+y,1/2+x,1/2-z
1/2-y,1/2-x,1/2-z
-x,-y,-z
y,-x,1/2-z
x,y,-z
-y,x,1/2-z
1/2-x,1/2+y,z
1/2+x,1/2-y,z
1/2-y,1/2-x,1/2+z
1/2+y,1/2+x,1/2+z
loop_
_atom_site_type_symbol
_atom_site_label
_atom_site_fract_x
_atom_site_fract_y
_atom_site_fract_z
Si Si1 0.234527 0.479398 0.776212
Si Si2 0.835142 0.757469 0.822116
Si Si3 0.111787 0.398700 0.096923
Si Si4 0.106680 0.734406 0.400242
Si Si5 0.443494 0.114948 0.835779
O O1 0.282805 0.411623 0.731316
O O2 0.162092 0.440590 0.829042
O O3 0.269621 0.535134 0.846810
O O4 0.199286 0.534285 0.702256
O O5 0.781910 0.718091 0.750000
O O6 0.866439 0.691131 0.886455
O O7 0.783049 0.819371 0.870025
O O8 0.019462 0.409084 0.111103
O O9 0.131930 0.422619 0.000000
O O10 0.094765 0.741704 0.500000
O O11 0.113936 0.641616 0.378490
O O12 0.435615 0.064385 0.750000
#
# Coordination Sequence:
#
# PCOD9568601 Si02
#       5
#    16  16  16  16  16
#     4   9  19  32  47  67  98 137 169 192 235 298
#     4   9  18  33  50  67  95 133 166 194 237 293
#     4  10  18  30  46  69 100 137 170 200 236 282
#     4  11  20  31  50  78  98 116 157 212 245 274
#     4   9  18  30  44  66 100 134 161 190 235 291
#
# _framework density 17.210576
#
# number of rings (size 3 to 8) (size 9 to 14) (size 15 to 20)
#    0.000    2.400    0.000    5.400    0.000    5.600 
#    0.000    5.000    0.000    0.600    0.000    1.400 
#    0.000    0.000    0.000    0.000    0.000    0.000 
#
# Total GULP energy -445435.726720 kJ/mol
# GULP energy per Si atom -5567.946584 kJ/mol
# Density = 1.717140 g / cm^3
# Si number density = 17.210576 Si / 1000 Ang^3
#
#
#
# Elastic Constant Matrix: (Units=GPa)
#
#
# Indices 1 2 3 4 5 6 
#
# 1 45.8676 25.0247 0.8369 0.0000 0.0000 0.0000
# 2 25.0247 45.8658 0.8365 0.0000 0.0000 0.0000
# 3 0.8369 0.8365 60.0471 0.0000 0.0000 0.0000
# 4 0.0000 0.0000 0.0000 19.2887 0.0000 0.0000
# 5 0.0000 0.0000 0.0000 0.0000 19.2887 0.0000
# 6 0.0000 0.0000 0.0000 0.0000 0.0000 22.9679
#
#
#
# Elastic Compliance Matrix: (Units=1/GPa)
#
#
# Indices 1 2 3 4 5 6 
#
# 1 0.031045 -0.016935 -0.000197 0.000000 0.000000 0.000000
# 2 -0.016935 0.031046 -0.000196 0.000000 0.000000 0.000000
# 3 -0.000197 -0.000196 0.016659 0.000000 0.000000 0.000000
# 4 0.000000 0.000000 0.000000 0.051844 0.000000 0.000000
# 5 0.000000 0.000000 0.000000 0.000000 0.051844 0.000000
# 6 0.000000 0.000000 0.000000 0.000000 0.000000 0.043539
#
#
# Mechanical properties :
#
#
# Convention : Reuss Voigt Hill
#
# Bulk Modulus (GPa) = 22.67879 22.79740 22.73810
# Shear Modulus (GPa) = 18.16001 20.64788 19.40395
#
# Velocity S-wave (km/s) = 3.25186 3.46746 3.36138
# Velocity P-wave (km/s) = 5.22544 5.41349 5.32030
#
# Compressibility (1/GPa) = 0.04409405
#
# Stress axis : x y z
#
# Youngs Moduli (GPa) = 32.21154 32.21028 60.02732
#
# Poissons Ratio (x) = 0.54547 0.01181
# Poissons Ratio (y) = 0.54549 0.01179
# Poissons Ratio (z) = 0.00634 0.00633
#
# Static dielectric constant tensor:
#      x y z
#    x 1.613150 0.000000 0.000000 
#    y 0.000000 1.613150 0.000000 
#    z 0.000000 0.000000 1.596480 
# 
# From -- ./inp_files/3402.got.cif
#   From: 2010.05.17/outbox.cif.g08.bks.cpg/sg135_2_cif.got.tgz:3402.got - 2010.05.20 12:50:20.
