data_PCOD9568239
_publ_section_title
;
Structure prediction by ZEFSAII (Michael W. Deem and Ramdas Pophale) SiO2 
 PCOD9568239
Probable space group: P 42/N N M
;
_chemical_formula_sum "Si O2"
_cell_formula_units_Z 96
_cell_length_a 14.809640
_cell_length_b 14.809640
_cell_length_c 21.131213
_cell_angle_alpha 90.000000
_cell_angle_beta 90.000000
_cell_angle_gamma 90.000000
_cell_volume 4634.612524
_symmetry_space_group_name_H-M "P 42/N N M"
_symmetry_group_IT_number 134
_space_group.IT_coordinate_system_code '2'
_symmetry_cell_setting 'tetragonal'
loop_
_space_group_symop_operation_xyz
x,y,z
1/2-y,x,1/2+z
1/2-x,1/2-y,z
y,1/2-x,1/2+z
x,1/2-y,1/2-z
1/2-x,y,1/2-z
y,x,-z
1/2-y,1/2-x,-z
-x,-y,-z
1/2+y,-x,1/2-z
1/2+x,1/2+y,-z
-y,1/2+x,1/2-z
-x,1/2+y,1/2+z
1/2+x,-y,1/2+z
-y,-x,z
1/2+y,1/2+x,z
loop_
_atom_site_type_symbol
_atom_site_label
_atom_site_fract_x
_atom_site_fract_y
_atom_site_fract_z
Si Si1 0.006679 0.852610 0.270778
Si Si2 0.437391 0.703397 0.562215
Si Si3 0.699644 0.051307 0.315685
Si Si4 0.423071 0.432936 0.139671
Si Si5 0.575465 0.716876 0.029429
Si Si6 0.556531 0.909405 0.092428
O O1 0.008796 0.750000 0.250000
O O2 0.106067 0.893934 0.279680
O O3 0.963309 0.900418 0.210360
O O4 0.954068 0.877344 0.334930
O O5 0.355538 0.644463 0.532871
O O6 0.403067 0.744908 0.628064
O O7 0.488295 0.775927 0.517243
O O8 0.515801 0.632970 0.582618
O O9 0.750000 0.037171 0.250000
O O10 0.612323 0.112323 0.301316
O O11 0.667596 0.959031 0.349232
O O12 0.504133 0.495868 0.114510
O O13 0.340959 0.443678 0.092257
O O14 0.582530 0.820748 0.052494
O O15 0.662580 0.662580 0.000000
O O16 0.462662 0.962662 0.075184
#
# Coordination Sequence:
#
# PCOD9568239 Si02
#       6
#    16  16  16  16  16  16
#     4  10  19  36  63  89 118 158 204 257 314 371
#     4  11  24  41  62  92 128 167 213 262 319 379
#     4  11  23  42  67  93 123 161 212 267 321 376
#     4  10  22  41  64  92 127 166 206 254 315 382
#     4  12  23  40  63  93 126 172 217 255 308 380
#     4  10  22  41  65  91 126 168 211 261 321 380
#
# _framework density 20.713705999999998
#
# number of rings (size 3 to 8) (size 9 to 14) (size 15 to 20)
#    0.000    1.333    3.333    2.500    0.000    7.667 
#    0.000    0.000    0.000    1.500    0.000    0.000 
#    0.000    0.000    0.000    0.000    0.000    0.000 
#
# Total GULP energy -535261.327035 kJ/mol
# GULP energy per Si atom -5575.638823 kJ/mol
# Density = 2.066656 g / cm^3
# Si number density = 20.713706 Si / 1000 Ang^3
#
#
#
# Elastic Constant Matrix: (Units=GPa)
#
#
# Indices 1 2 3 4 5 6 
#
# 1 82.6822 32.0461 36.7577 0.0000 0.0000 0.0000
# 2 32.0461 82.6822 36.7577 0.0000 0.0000 0.0000
# 3 36.7577 36.7577 134.0520 0.0000 0.0000 0.0000
# 4 0.0000 0.0000 0.0000 25.9553 0.0000 0.0000
# 5 0.0000 0.0000 0.0000 0.0000 25.9553 0.0000
# 6 0.0000 0.0000 0.0000 0.0000 0.0000 25.6923
#
#
#
# Elastic Compliance Matrix: (Units=1/GPa)
#
#
# Indices 1 2 3 4 5 6 
#
# 1 0.015161 -0.004587 -0.002899 0.000000 0.000000 0.000000
# 2 -0.004587 0.015161 -0.002899 0.000000 0.000000 0.000000
# 3 -0.002899 -0.002899 0.009050 0.000000 0.000000 0.000000
# 4 0.000000 0.000000 0.000000 0.038528 0.000000 0.000000
# 5 0.000000 0.000000 0.000000 0.000000 0.038528 0.000000
# 6 0.000000 0.000000 0.000000 0.000000 0.000000 0.038922
#
#
# Mechanical properties :
#
#
# Convention : Reuss Voigt Hill
#
# Bulk Modulus (GPa) = 53.76259 56.72660 55.24459
# Shear Modulus (GPa) = 27.42384 28.44425 27.93404
#
# Velocity S-wave (km/s) = 3.64255 3.70970 3.67628
# Velocity P-wave (km/s) = 6.61078 6.76718 6.68943
#
# Compressibility (1/GPa) = 0.01860029
#
# Stress axis : x y z
#
# Youngs Moduli (GPa) = 65.95667 65.95667 110.49853
#
# Poissons Ratio (x) = 0.30256 0.32039
# Poissons Ratio (y) = 0.30256 0.32039
# Poissons Ratio (z) = 0.19124 0.19124
#
# Static dielectric constant tensor:
#      x y z
#    x 1.786360 0.000000 0.000000 
#    y 0.000000 1.786360 0.000000 
#    z 0.000000 0.000000 1.760590 
# 
# From -- ./inp_files/9109.got.cif
#   From: 2010.05.17/outbox.cif.g08.bks.cpg/sg134_5_cif.got.tgz:9109.got - 2010.05.20 12:42:49.
