data_PCOD9568196
_publ_section_title
;
Structure prediction by ZEFSAII (Michael W. Deem and Ramdas Pophale) SiO2 
 PCOD9568196
Probable space group: P 42/N N M
;
_chemical_formula_sum "Si O2"
_cell_formula_units_Z 96
_cell_length_a 18.333271
_cell_length_b 18.333271
_cell_length_c 18.333261
_cell_angle_alpha 90.000000
_cell_angle_beta 90.000000
_cell_angle_gamma 90.000000
_cell_volume 6161.970823
_symmetry_space_group_name_H-M "P 42/N N M"
_symmetry_group_IT_number 134
_space_group.IT_coordinate_system_code '2'
_symmetry_cell_setting 'tetragonal'
loop_
_space_group_symop_operation_xyz
x,y,z
1/2-y,x,1/2+z
1/2-x,1/2-y,z
y,1/2-x,1/2+z
x,1/2-y,1/2-z
1/2-x,y,1/2-z
y,x,-z
1/2-y,1/2-x,-z
-x,-y,-z
1/2+y,-x,1/2-z
1/2+x,1/2+y,-z
-y,1/2+x,1/2-z
-x,1/2+y,1/2+z
1/2+x,-y,1/2+z
-y,-x,z
1/2+y,1/2+x,z
loop_
_atom_site_type_symbol
_atom_site_label
_atom_site_fract_x
_atom_site_fract_y
_atom_site_fract_z
Si Si1 0.324806 0.205836 0.916187
Si Si2 0.205835 0.583813 0.824806
Si Si3 0.175194 0.416187 0.794164
Si Si4 0.430830 0.169964 0.550549
Si Si5 0.050549 0.430829 0.330035
Si Si6 0.949451 0.330035 0.430829
O O1 0.250000 0.250000 0.900980
O O2 0.330555 0.139321 0.860680
O O3 0.392085 0.261672 0.912125
O O4 0.320218 0.179783 0.000000
O O5 0.250000 0.599020 0.750000
O O6 0.139320 0.639320 0.830554
O O7 0.179782 0.500000 0.820218
O O8 0.261671 0.587875 0.892085
O O9 0.250000 0.400980 0.750000
O O10 0.107915 0.412125 0.738329
O O11 0.369183 0.130818 0.500000
O O12 0.453495 0.109924 0.609924
O O13 0.497218 0.189347 0.497218
O O14 0.997216 0.497216 0.310653
O O15 0.000000 0.369181 0.369182
O O16 0.890076 0.390076 0.453494
#
# Coordination Sequence:
#
# PCOD9568196 Si02
#       6
#    16  16  16  16  16  16
#     4  11  21  33  51  75 106 140 175 214 258 311
#     4  11  21  33  51  75 106 140 175 214 258 311
#     4  11  21  33  51  75 106 140 175 214 258 311
#     4  10  19  33  52  75 101 131 168 214 265 311
#     4  10  19  33  52  75 101 131 168 214 265 311
#     4  10  19  33  52  75 101 131 168 214 265 311
#
# _framework density 15.579431
#
# number of rings (size 3 to 8) (size 9 to 14) (size 15 to 20)
#    0.000    1.500    5.000    3.500    0.000    5.500 
#    0.000    0.000    0.000    9.000    0.000    0.000 
#    0.000    0.000    0.000    0.000    0.000    0.000 
#
# Total GULP energy -535997.386354 kJ/mol
# GULP energy per Si atom -5583.306108 kJ/mol
# Density = 1.554397 g / cm^3
# Si number density = 15.579431 Si / 1000 Ang^3
#
#
#
# Elastic Constant Matrix: (Units=GPa)
#
#
# Indices 1 2 3 4 5 6 
#
# 1 78.4308 58.5729 58.5742 0.0000 0.0000 0.0000
# 2 58.5729 78.4311 58.5740 0.0000 0.0000 0.0000
# 3 58.5742 58.5740 78.4314 0.0000 0.0000 0.0000
# 4 0.0000 0.0000 0.0000 19.2544 0.0000 0.0000
# 5 0.0000 0.0000 0.0000 0.0000 19.2546 0.0000
# 6 0.0000 0.0000 0.0000 0.0000 0.0000 19.2542
#
#
#
# Elastic Compliance Matrix: (Units=1/GPa)
#
#
# Indices 1 2 3 4 5 6 
#
# 1 0.035277 -0.015081 -0.015083 0.000000 0.000000 0.000000
# 2 -0.015081 0.035276 -0.015082 0.000000 0.000000 0.000000
# 3 -0.015083 -0.015082 0.035278 0.000000 0.000000 0.000000
# 4 0.000000 0.000000 0.000000 0.051936 0.000000 0.000000
# 5 0.000000 0.000000 0.000000 0.000000 0.051936 0.000000
# 6 0.000000 0.000000 0.000000 0.000000 0.000000 0.051937
#
#
# Mechanical properties :
#
#
# Convention : Reuss Voigt Hill
#
# Bulk Modulus (GPa) = 65.19281 65.19281 65.19281
# Shear Modulus (GPa) = 13.99600 15.52411 14.76006
#
# Velocity S-wave (km/s) = 3.00052 3.16008 3.08134
# Velocity P-wave (km/s) = 7.34442 7.43311 7.38890
#
# Compressibility (1/GPa) = 0.01533911
#
# Stress axis : x y z
#
# Youngs Moduli (GPa) = 28.34713 28.34762 28.34633
#
# Poissons Ratio (x) = 0.42751 0.42754
# Poissons Ratio (y) = 0.42750 0.42753
# Poissons Ratio (z) = 0.42756 0.42755
#
# Static dielectric constant tensor:
#      x y z
#    x 1.516170 0.000000 0.000000 
#    y 0.000000 1.516170 0.000000 
#    z 0.000000 0.000000 1.516170 
# 
# From -- ./inp_files/7858.got.cif
#   From: 2010.05.17/outbox.cif.g08.bks.cpg/sg134_4_cif.got.tgz:7858.got - 2010.05.20 12:42:49.
