data_PCOD9568041
_publ_section_title
;
Structure prediction by ZEFSAII (Michael W. Deem and Ramdas Pophale) SiO2 
 PCOD9568041
Probable space group: P 42/N B C
;
_chemical_formula_sum "Si O2"
_cell_formula_units_Z 48
_cell_length_a 9.147476
_cell_length_b 9.147476
_cell_length_c 22.523570
_cell_angle_alpha 90.000000
_cell_angle_beta 90.000000
_cell_angle_gamma 90.000000
_cell_volume 1884.689387
_symmetry_space_group_name_H-M "P 42/N B C"
_symmetry_group_IT_number 133
_space_group.IT_coordinate_system_code '2'
_symmetry_cell_setting 'tetragonal'
loop_
_space_group_symop_operation_xyz
x,y,z
1/2-y,x,1/2+z
1/2-x,1/2-y,z
y,1/2-x,1/2+z
x,1/2-y,-z
1/2-x,y,-z
y,x,1/2-z
1/2-y,1/2-x,1/2-z
-x,-y,-z
1/2+y,-x,1/2-z
1/2+x,1/2+y,-z
-y,1/2+x,1/2-z
-x,1/2+y,z
1/2+x,-y,z
-y,-x,1/2+z
1/2+y,1/2+x,1/2+z
loop_
_atom_site_type_symbol
_atom_site_label
_atom_site_fract_x
_atom_site_fract_y
_atom_site_fract_z
Si Si1 0.871450 0.350347 0.940797
Si Si2 0.699254 0.034900 0.770080
Si Si3 0.589371 0.689543 0.608144
O O1 0.750000 0.250000 0.908158
O O2 0.784895 0.503196 0.940637
O O3 0.022948 0.392245 0.911196
O O4 0.900068 0.250000 0.000000
O O5 0.589272 0.173427 0.774515
O O6 0.603542 0.896459 0.750000
O O7 0.782246 0.994174 0.830279
O O8 0.750000 0.750000 0.615820
#
# Coordination Sequence:
#
# PCOD9568041 Si02
#       3
#    16  16  16
#     4  11  28  53  85 120 167 221 290 365 436 530
#     4  11  28  50  85 126 173 223 287 354 434 525
#     4  12  28  50  85 123 170 228 288 361 444 526
#
# _framework density 25.468388000000001
#
# number of rings (size 3 to 8) (size 9 to 14) (size 15 to 20)
#    0.000    0.667    0.000    4.000   14.000   12.667 
#    0.000    1.667    0.000    0.000    0.000    0.000 
#    0.000    0.000    0.000    0.000    0.000    0.000 
#
# Total GULP energy -268595.708789 kJ/mol
# GULP energy per Si atom -5595.743933 kJ/mol
# Density = 2.541042 g / cm^3
# Si number density = 25.468388 Si / 1000 Ang^3
#
#
#
# Elastic Constant Matrix: (Units=GPa)
#
#
# Indices 1 2 3 4 5 6 
#
# 1 224.8502 99.4564 100.4154 0.0000 0.0000 0.0000
# 2 99.4564 224.8522 100.4137 0.0000 0.0000 0.0000
# 3 100.4154 100.4137 157.9411 0.0000 0.0000 0.0000
# 4 0.0000 0.0000 0.0000 0.5668 0.0000 0.0000
# 5 0.0000 0.0000 0.0000 0.0000 0.5652 0.0000
# 6 0.0000 0.0000 0.0000 0.0000 0.0000 44.2806
#
#
#
# Elastic Compliance Matrix: (Units=1/GPa)
#
#
# Indices 1 2 3 4 5 6 
#
# 1 0.006530 -0.001445 -0.003233 0.000000 0.000000 0.000000
# 2 -0.001445 0.006530 -0.003233 0.000000 0.000000 0.000000
# 3 -0.003233 -0.003233 0.010443 0.000000 0.000000 0.000000
# 4 0.000000 0.000000 0.000000 1.764203 0.000000 0.000000
# 5 0.000000 0.000000 0.000000 0.000000 1.769162 0.000000
# 6 0.000000 0.000000 0.000000 0.000000 0.000000 0.022583
#
#
# Mechanical properties :
#
#
# Convention : Reuss Voigt Hill
#
# Bulk Modulus (GPa) = 130.19378 134.24604 132.21991
# Shear Modulus (GPa) = 1.38972 29.57308 15.48140
#
# Velocity S-wave (km/s) = 0.73949 3.41129 2.46817
# Velocity P-wave (km/s) = 7.20832 8.26687 7.75568
#
# Compressibility (1/GPa) = 0.00768086
#
# Stress axis : x y z
#
# Youngs Moduli (GPa) = 153.13032 153.13420 95.75896
#
# Poissons Ratio (x) = 0.22120 0.30964
# Poissons Ratio (y) = 0.22120 0.30962
# Poissons Ratio (z) = 0.49515 0.49513
#
# Static dielectric constant tensor:
#      x y z
#    x 1.905160 0.000000 0.000000 
#    y 0.000000 1.905150 0.000000 
#    z 0.000000 0.000000 2.251570 
# 
# From -- ./inp_files/7747.got.cif
#   From: 2010.05.17/outbox.cif.g08.bks.cpg/sg133_4_cif.got.tgz:7747.got - 2010.05.20 12:37:36.
