data_PCOD9568320
_publ_section_title
;
Structure prediction by ZEFSAII (Michael W. Deem and Ramdas Pophale) SiO2 
 PCOD9568320
Probable space group: P 42/N N M
;
_chemical_formula_sum "Si O2"
_cell_formula_units_Z 80
_cell_length_a 11.129973
_cell_length_b 11.129973
_cell_length_c 28.553199
_cell_angle_alpha 90.000000
_cell_angle_beta 90.000000
_cell_angle_gamma 90.000000
_cell_volume 3537.064616
_symmetry_space_group_name_H-M "P 42/N N M"
_symmetry_group_IT_number 134
_space_group.IT_coordinate_system_code '2'
_symmetry_cell_setting 'tetragonal'
loop_
_space_group_symop_operation_xyz
x,y,z
1/2-y,x,1/2+z
1/2-x,1/2-y,z
y,1/2-x,1/2+z
x,1/2-y,1/2-z
1/2-x,y,1/2-z
y,x,-z
1/2-y,1/2-x,-z
-x,-y,-z
1/2+y,-x,1/2-z
1/2+x,1/2+y,-z
-y,1/2+x,1/2-z
-x,1/2+y,1/2+z
1/2+x,-y,1/2+z
-y,-x,z
1/2+y,1/2+x,z
loop_
_atom_site_type_symbol
_atom_site_label
_atom_site_fract_x
_atom_site_fract_y
_atom_site_fract_z
Si Si1 0.803997 0.494074 0.638961
Si Si2 0.755103 0.048730 0.537492
Si Si3 0.368671 0.060008 0.218302
Si Si4 0.753949 0.049224 0.064176
Si Si5 0.234729 0.393028 0.654018
O O1 0.864012 0.364012 0.640816
O O2 0.775391 0.521676 0.584619
O O3 0.687786 0.502493 0.671031
O O4 0.898546 0.591672 0.658309
O O5 0.881353 0.118648 0.543823
O O6 0.653204 0.153204 0.533697
O O7 0.750826 0.986796 0.486789
O O8 0.250000 0.079150 0.250000
O O9 0.423178 0.184965 0.199130
O O10 0.467327 0.967327 0.237338
O O11 0.881382 0.118619 0.069947
O O12 0.652970 0.152970 0.062044
O O13 0.729221 0.966519 0.108413
O O14 0.250000 0.250000 0.647027
#
# Coordination Sequence:
#
# PCOD9568320 Si02
#       5
#    16  16  16  16  16
#     4  10  20  35  58  87 119 155 194 239 289 343
#     4   8  15  29  52  84 120 159 205 252 288 322
#     4  11  24  42  63  85 108 140 186 241 300 357
#     4   9  17  33  59  86 115 159 211 252 283 327
#     4  10  22  37  54  81 120 156 185 226 291 358
#
# _framework density 22.617622999999998
#
# number of rings (size 3 to 8) (size 9 to 14) (size 15 to 20)
#    0.000    2.400    0.000    3.600    0.000    6.600 
#    0.000   10.000    0.000   10.800    0.000    0.000 
#    0.000   28.800    0.000    0.000    0.000    0.000 
#
# Total GULP energy -446452.467118 kJ/mol
# GULP energy per Si atom -5580.655839 kJ/mol
# Density = 2.256614 g / cm^3
# Si number density = 22.617623 Si / 1000 Ang^3
#
#
#
# Elastic Constant Matrix: (Units=GPa)
#
#
# Indices 1 2 3 4 5 6 
#
# 1 52.5257 15.6719 34.8678 0.0000 0.0000 0.0000
# 2 15.6719 52.5257 34.8678 0.0000 0.0000 0.0000
# 3 34.8678 34.8678 144.0783 0.0000 0.0000 0.0000
# 4 0.0000 0.0000 0.0000 38.0726 0.0000 0.0000
# 5 0.0000 0.0000 0.0000 0.0000 38.0726 0.0000
# 6 0.0000 0.0000 0.0000 0.0000 0.0000 19.4232
#
#
#
# Elastic Compliance Matrix: (Units=1/GPa)
#
#
# Indices 1 2 3 4 5 6 
#
# 1 0.023310 -0.003825 -0.004716 0.000000 0.000000 0.000000
# 2 -0.003825 0.023310 -0.004716 0.000000 0.000000 0.000000
# 3 -0.004716 -0.004716 0.009223 0.000000 0.000000 0.000000
# 4 0.000000 0.000000 0.000000 0.026266 0.000000 0.000000
# 5 0.000000 0.000000 0.000000 0.000000 0.026266 0.000000
# 6 0.000000 0.000000 0.000000 0.000000 0.000000 0.051485
#
#
# Mechanical properties :
#
#
# Convention : Reuss Voigt Hill
#
# Bulk Modulus (GPa) = 34.09335 46.66052 40.37694
# Shear Modulus (GPa) = 25.49111 30.02850 27.75980
#
# Velocity S-wave (km/s) = 3.36079 3.64766 3.50716
# Velocity P-wave (km/s) = 5.49240 6.19802 5.85585
#
# Compressibility (1/GPa) = 0.02933123
#
# Stress axis : x y z
#
# Youngs Moduli (GPa) = 42.90058 42.90058 108.42415
#
# Poissons Ratio (x) = 0.16408 0.51128
# Poissons Ratio (y) = 0.16408 0.51128
# Poissons Ratio (z) = 0.20230 0.20230
#
# Static dielectric constant tensor:
#      x y z
#    x 1.886720 0.000000 0.000000 
#    y 0.000000 1.886720 0.000000 
#    z 0.000000 0.000000 1.885390 
# 
# From -- ./inp_files/11306.got.cif
#   From: 2010.05.17/outbox.cif.g08.bks.cpg/sg134_6_cif.got.tgz:11306.got - 2010.05.20 12:42:49.
