data_PCOD9568912
_publ_section_title
;
Structure prediction by ZEFSAII (Michael W. Deem and Ramdas Pophale) SiO2 
 PCOD9568912
Probable space group: P 42/M B C
;
_chemical_formula_sum "Si O2"
_cell_formula_units_Z 96
_cell_length_a 24.004918
_cell_length_b 24.004918
_cell_length_c 8.706286
_cell_angle_alpha 90.000000
_cell_angle_beta 90.000000
_cell_angle_gamma 90.000000
_cell_volume 5016.876187
_symmetry_space_group_name_H-M "P 42/M B C"
_symmetry_group_IT_number 135
_symmetry_cell_setting 'tetragonal'
loop_
_space_group_symop_operation_xyz
x,y,z
-y,x,1/2+z
-x,-y,z
y,-x,1/2+z
1/2+x,1/2-y,-z
1/2-x,1/2+y,-z
1/2+y,1/2+x,1/2-z
1/2-y,1/2-x,1/2-z
-x,-y,-z
y,-x,1/2-z
x,y,-z
-y,x,1/2-z
1/2-x,1/2+y,z
1/2+x,1/2-y,z
1/2-y,1/2-x,1/2+z
1/2+y,1/2+x,1/2+z
loop_
_atom_site_type_symbol
_atom_site_label
_atom_site_fract_x
_atom_site_fract_y
_atom_site_fract_z
Si Si1 0.722713 0.862564 0.183573
Si Si2 0.354783 0.517883 0.671825
Si Si3 0.827158 0.793883 0.678411
Si Si4 0.186098 0.396926 0.184667
Si Si5 0.274247 0.012455 0.322472
Si Si6 0.398481 0.619357 0.827235
O O1 0.668960 0.831041 0.250000
O O2 0.775422 0.824260 0.237503
O O3 0.723214 0.925990 0.246830
O O4 0.722367 0.863759 0.000000
O O5 0.363841 0.541741 0.500000
O O6 0.291343 0.497910 0.677573
O O7 0.365069 0.563326 0.799263
O O8 0.391977 0.463568 0.690991
O O9 0.811624 0.787548 0.500000
O O10 0.854315 0.736043 0.735497
O O11 0.877141 0.837283 0.702828
O O12 0.129793 0.370208 0.250000
O O13 0.196241 0.459912 0.242572
O O14 0.186388 0.396895 0.000000
O O15 0.292501 0.016896 0.500000
O O16 0.389241 0.641232 0.000000
#
# Coordination Sequence:
#
# PCOD9568912 Si02
#       6
#    16  16  16  16  16  16
#     4  12  25  41  63  92 125 160 202 246 299 359
#     4  10  22  38  56  81 115 156 202 251 302 354
#     4  11  22  37  59  89 124 160 199 247 302 356
#     4  11  24  40  62  92 125 162 203 248 300 358
#     4  11  22  40  64  89 122 159 197 244 301 360
#     4  11  22  36  57  82 112 156 205 253 300 353
#
# _framework density 19.135413
#
# number of rings (size 3 to 8) (size 9 to 14) (size 15 to 20)
#    0.000    1.000    3.333    4.000    0.000    5.667 
#    0.000    1.667    0.000    0.500    0.000    3.500 
#    0.000    0.000    0.000    0.000    0.000    0.000 
#
# Total GULP energy -535794.435421 kJ/mol
# GULP energy per Si atom -5581.192036 kJ/mol
# Density = 1.909186 g / cm^3
# Si number density = 19.135413 Si / 1000 Ang^3
#
#
#
# Elastic Constant Matrix: (Units=GPa)
#
#
# Indices 1 2 3 4 5 6 
#
# 1 -19.0384 131.1534 34.5886 0.0000 0.0000 0.0000
# 2 131.1534 -19.0795 34.5689 0.0000 0.0000 0.0000
# 3 34.5886 34.5689 87.1140 0.0000 0.0000 0.0000
# 4 0.0000 0.0000 0.0000 24.8442 0.0000 0.0000
# 5 0.0000 0.0000 0.0000 0.0000 24.8443 0.0000
# 6 0.0000 0.0000 0.0000 0.0000 0.0000 30.0707
#
#
#
# Elastic Compliance Matrix: (Units=1/GPa)
#
#
# Indices 1 2 3 4 5 6 
#
# 1 0.002580 0.009236 -0.004689 0.000000 0.000000 0.000000
# 2 0.009236 0.002578 -0.004690 0.000000 0.000000 0.000000
# 3 -0.004689 -0.004690 0.015202 0.000000 0.000000 0.000000
# 4 0.000000 0.000000 0.000000 0.040251 0.000000 0.000000
# 5 0.000000 0.000000 0.000000 0.000000 0.040251 0.000000
# 6 0.000000 0.000000 0.000000 0.000000 0.000000 0.033255
#
#
# Mechanical properties :
#
#
# Convention : Reuss Voigt Hill
#
# Bulk Modulus (GPa) = 49.81921 49.95753 49.88837
# Shear Modulus (GPa) = 35.43758 5.86418 20.65088
#
# Velocity S-wave (km/s) = 4.30808 1.75249 3.28868
# Velocity P-wave (km/s) = 7.13006 5.50082 6.36776
#
# Compressibility (1/GPa) = 0.02007258
#
# Stress axis : x y z
#
# Youngs Moduli (GPa) = 387.66890 387.96938 65.78039
#
# Poissons Ratio (x) = -3.58319 0.30846
# Poissons Ratio (y) = -3.58042 0.30850
# Poissons Ratio (z) = 1.81784 1.81953
#
# Static dielectric constant tensor:
#      x y z
#    x 1.681700 0.000000 0.000000 
#    y 0.000000 1.681700 0.000000 
#    z 0.000000 0.000000 1.676980 
# 
# From -- ./inp_files/1252.got.cif
#   From: 2010.05.17/outbox.cif.g08.bks.cpg/sg135_1_cif.got.tgz:1252.got - 2010.05.20 12:50:20.
