data_PCOD9568155
_publ_section_title
;
Structure prediction by ZEFSAII (Michael W. Deem and Ramdas Pophale) SiO2 
 PCOD9568155
Probable space group: P 42/N N M
;
_chemical_formula_sum "Si O2"
_cell_formula_units_Z 104
_cell_length_a 20.673329
_cell_length_b 20.673329
_cell_length_c 15.522102
_cell_angle_alpha 90.000000
_cell_angle_beta 90.000000
_cell_angle_gamma 90.000000
_cell_volume 6633.937342
_symmetry_space_group_name_H-M "P 42/N N M"
_symmetry_group_IT_number 134
_space_group.IT_coordinate_system_code '2'
_symmetry_cell_setting 'tetragonal'
loop_
_space_group_symop_operation_xyz
x,y,z
1/2-y,x,1/2+z
1/2-x,1/2-y,z
y,1/2-x,1/2+z
x,1/2-y,1/2-z
1/2-x,y,1/2-z
y,x,-z
1/2-y,1/2-x,-z
-x,-y,-z
1/2+y,-x,1/2-z
1/2+x,1/2+y,-z
-y,1/2+x,1/2-z
-x,1/2+y,1/2+z
1/2+x,-y,1/2+z
-y,-x,z
1/2+y,1/2+x,z
loop_
_atom_site_type_symbol
_atom_site_label
_atom_site_fract_x
_atom_site_fract_y
_atom_site_fract_z
Si Si1 0.895329 0.993646 0.037871
Si Si2 0.322271 0.567924 0.106586
Si Si3 0.671282 0.439575 0.372509
Si Si4 0.382845 0.993584 0.229099
Si Si5 0.142430 0.750000 0.750000
Si Si6 0.823059 0.433286 0.931115
Si Si7 0.097548 0.014330 0.766738
O O1 0.874656 0.984385 0.136593
O O2 0.929537 0.929537 0.000000
O O3 0.952215 0.047786 0.038802
O O4 0.842439 0.022190 0.973359
O O5 0.370845 0.629155 0.106578
O O6 0.335913 0.527630 0.193575
O O7 0.248230 0.587931 0.097538
O O8 0.613547 0.386454 0.373351
O O9 0.731980 0.402095 0.330949
O O10 0.680325 0.458852 0.471162
O O11 0.648369 0.494458 0.306328
O O12 0.439988 0.939988 0.230885
O O13 0.348822 0.985657 0.137214
O O14 0.418975 0.060761 0.246385
O O15 0.189123 0.810878 0.768447
O O16 0.873161 0.373161 0.928899
O O17 0.042176 0.957825 0.766425
#
# Coordination Sequence:
#
# PCOD9568155 Si02
#       7
#    16  16  16  16   8  16  16
#     4   9  15  26  45  69  89 107 146 199 250 292
#     4  10  19  30  47  68  91 124 163 205 241 267
#     4   9  19  31  43  63  88 121 164 198 228 268
#     4   9  17  31  48  64  85 116 157 203 247 284
#     4   9  18  32  46  60  90 134 171 196 218 256
#     4  10  21  33  43  62  94 132 170 191 215 277
#     4   9  16  28  47  67  87 111 149 202 248 289
#
# _framework density 15.676964999999999
#
# number of rings (size 3 to 8) (size 9 to 14) (size 15 to 20)
#    0.000    2.692    1.538    0.462    2.154    1.538 
#    0.000    4.615    0.000    2.769    0.000    0.000 
#    0.000    0.000    0.000   13.846    0.615    2.308 
#
# Total GULP energy -579301.631613 kJ/mol
# GULP energy per Si atom -5570.207996 kJ/mol
# Density = 1.564128 g / cm^3
# Si number density = 15.676965 Si / 1000 Ang^3
#
#
#
# Elastic Constant Matrix: (Units=GPa)
#
#
# Indices 1 2 3 4 5 6 
#
# 1 26.6048 21.0062 36.6880 0.0000 0.0000 0.0000
# 2 21.0062 26.6048 36.6880 0.0000 0.0000 0.0000
# 3 36.6880 36.6880 156.6841 0.0000 0.0000 0.0000
# 4 0.0000 0.0000 0.0000 18.3384 0.0000 0.0000
# 5 0.0000 0.0000 0.0000 0.0000 18.3384 0.0000
# 6 0.0000 0.0000 0.0000 0.0000 0.0000 10.0056
#
#
#
# Elastic Compliance Matrix: (Units=1/GPa)
#
#
# Indices 1 2 3 4 5 6 
#
# 1 0.105740 -0.072878 -0.007695 0.000000 0.000000 0.000000
# 2 -0.072878 0.105740 -0.007695 0.000000 0.000000 0.000000
# 3 -0.007695 -0.007695 0.009986 0.000000 0.000000 0.000000
# 4 0.000000 0.000000 0.000000 0.054530 0.000000 0.000000
# 5 0.000000 0.000000 0.000000 0.000000 0.054530 0.000000
# 6 0.000000 0.000000 0.000000 0.000000 0.000000 0.099944
#
#
# Mechanical properties :
#
#
# Convention : Reuss Voigt Hill
#
# Bulk Modulus (GPa) = 22.25612 44.29533 33.27573
# Shear Modulus (GPa) = 8.03880 17.03724 12.53802
#
# Velocity S-wave (km/s) = 2.26692 3.30019 2.83109
# Velocity P-wave (km/s) = 4.59123 6.54508 5.65321
#
# Compressibility (1/GPa) = 0.04493147
#
# Stress axis : x y z
#
# Youngs Moduli (GPa) = 9.45713 9.45713 100.14216
#
# Poissons Ratio (x) = 0.68921 0.77058
# Poissons Ratio (y) = 0.68921 0.77058
# Poissons Ratio (z) = 0.07277 0.07277
#
# Static dielectric constant tensor:
#      x y z
#    x 1.510410 0.000000 0.000000 
#    y 0.000000 1.510410 0.000000 
#    z 0.000000 0.000000 1.547610 
# 
# From -- ./inp_files/6681.got.cif
#   From: 2010.05.17/outbox.cif.g08.bks.cpg/sg134_4_cif.got.tgz:6681.got - 2010.05.20 12:42:49.
