data_PCOD9568495
_publ_section_title
;
Structure prediction by ZEFSAII (Michael W. Deem and Ramdas Pophale) SiO2 
 PCOD9568495
Probable space group: P 42/N N M
;
_chemical_formula_sum "Si O2"
_cell_formula_units_Z 112
_cell_length_a 19.507378
_cell_length_b 19.507378
_cell_length_c 16.435078
_cell_angle_alpha 90.000000
_cell_angle_beta 90.000000
_cell_angle_gamma 90.000000
_cell_volume 6254.168366
_symmetry_space_group_name_H-M "P 42/N N M"
_symmetry_group_IT_number 134
_space_group.IT_coordinate_system_code '2'
_symmetry_cell_setting 'tetragonal'
loop_
_space_group_symop_operation_xyz
x,y,z
1/2-y,x,1/2+z
1/2-x,1/2-y,z
y,1/2-x,1/2+z
x,1/2-y,1/2-z
1/2-x,y,1/2-z
y,x,-z
1/2-y,1/2-x,-z
-x,-y,-z
1/2+y,-x,1/2-z
1/2+x,1/2+y,-z
-y,1/2+x,1/2-z
-x,1/2+y,1/2+z
1/2+x,-y,1/2+z
-y,-x,z
1/2+y,1/2+x,z
loop_
_atom_site_type_symbol
_atom_site_label
_atom_site_fract_x
_atom_site_fract_y
_atom_site_fract_z
Si Si1 0.753706 0.549561 0.407273
Si Si2 0.997776 0.388942 0.321499
Si Si3 0.610863 0.000610 0.874695
Si Si4 0.253706 0.450439 0.092727
Si Si5 0.611059 0.497776 0.821497
Si Si6 0.807396 0.807396 0.402790
Si Si7 0.499389 0.889136 0.874694
O O1 0.815738 0.515673 0.358846
O O2 0.776799 0.563266 0.500000
O O3 0.723617 0.621041 0.370819
O O4 0.686870 0.501871 0.407956
O O5 0.058404 0.441597 0.344843
O O6 0.998286 0.384865 0.223484
O O7 0.926513 0.426513 0.345547
O O8 0.564906 0.064906 0.900050
O O9 0.615137 0.001713 0.776517
O O10 0.686869 0.998128 0.907959
O O11 0.567349 0.932650 0.897877
O O12 0.315736 0.484329 0.141154
O O13 0.223617 0.378960 0.129181
O O14 0.573488 0.426513 0.845543
O O15 0.750000 0.750000 0.392253
O O16 0.818542 0.818542 0.500000
O O17 0.435093 0.935093 0.900050
#
# Coordination Sequence:
#
# PCOD9568495 Si02
#       7
#    16  16  16  16  16  16  16
#     4  11  20  31  50  76 107 138 169 213 262 312
#     4   9  19  35  54  74  99 138 182 219 255 300
#     4   9  18  34  54  74 100 134 174 218 259 308
#     4  11  20  31  50  76 107 138 169 213 262 312
#     4   9  19  35  54  74  99 138 182 219 255 300
#     4   9  18  30  43  67 105 143 167 192 246 310
#     4   9  18  34  54  74 100 134 174 218 259 308
#
# _framework density 17.908056999999999
#
# number of rings (size 3 to 8) (size 9 to 14) (size 15 to 20)
#    0.000    2.429    1.429    3.429    0.000    2.857 
#    0.000    2.857    0.000    0.857    0.000    6.000 
#    0.000    0.000    0.000    0.000    0.000    0.000 
#
# Total GULP energy -624679.750232 kJ/mol
# GULP energy per Si atom -5577.497770 kJ/mol
# Density = 1.786730 g / cm^3
# Si number density = 17.908057 Si / 1000 Ang^3
#
#
#
# Elastic Constant Matrix: (Units=GPa)
#
#
# Indices 1 2 3 4 5 6 
#
# 1 116.8928 59.9167 31.6112 0.0000 0.0000 0.0000
# 2 59.9167 116.8928 31.6112 0.0000 0.0000 0.0000
# 3 31.6112 31.6112 41.8716 0.0000 0.0000 0.0000
# 4 0.0000 0.0000 0.0000 14.0847 0.0000 0.0000
# 5 0.0000 0.0000 0.0000 0.0000 14.0847 0.0000
# 6 0.0000 0.0000 0.0000 0.0000 0.0000 24.6777
#
#
#
# Elastic Compliance Matrix: (Units=1/GPa)
#
#
# Indices 1 2 3 4 5 6 
#
# 1 0.012649 -0.004902 -0.005849 0.000000 0.000000 0.000000
# 2 -0.004902 0.012649 -0.005849 0.000000 0.000000 0.000000
# 3 -0.005849 -0.005849 0.032714 0.000000 0.000000 0.000000
# 4 0.000000 0.000000 0.000000 0.070999 0.000000 0.000000
# 5 0.000000 0.000000 0.000000 0.000000 0.070999 0.000000
# 6 0.000000 0.000000 0.000000 0.000000 0.000000 0.040522
#
#
# Mechanical properties :
#
#
# Convention : Reuss Voigt Hill
#
# Bulk Modulus (GPa) = 40.30156 57.99280 49.14718
# Shear Modulus (GPa) = 17.73036 20.73732 19.23384
#
# Velocity S-wave (km/s) = 3.14996 3.40661 3.28080
# Velocity P-wave (km/s) = 5.98191 6.92295 6.46957
#
# Compressibility (1/GPa) = 0.02481293
#
# Stress axis : x y z
#
# Youngs Moduli (GPa) = 79.05647 79.05647 30.56827
#
# Poissons Ratio (x) = 0.38754 0.17879
# Poissons Ratio (y) = 0.38754 0.17879
# Poissons Ratio (z) = 0.46238 0.46238
#
# Static dielectric constant tensor:
#      x y z
#    x 1.610470 0.000000 0.000000 
#    y 0.000000 1.610470 0.000000 
#    z 0.000000 0.000000 1.648850 
# 
# From -- ./inp_files/9328.got.cif
#   From: 2010.05.17/outbox.cif.g08.bks.cpg/sg134_5_cif.got.tgz:9328.got - 2010.05.20 12:42:49.
