data_PCOD9568705
_publ_section_title
;
Structure prediction by ZEFSAII (Michael W. Deem and Ramdas Pophale) SiO2 
 PCOD9568705
Probable space group: P 42/M B C
;
_chemical_formula_sum "Si O2"
_cell_formula_units_Z 96
_cell_length_a 24.008675
_cell_length_b 24.008675
_cell_length_c 9.375467
_cell_angle_alpha 90.000000
_cell_angle_beta 90.000000
_cell_angle_gamma 90.000000
_cell_volume 5404.173642
_symmetry_space_group_name_H-M "P 42/M B C"
_symmetry_group_IT_number 135
_symmetry_cell_setting 'tetragonal'
loop_
_space_group_symop_operation_xyz
x,y,z
-y,x,1/2+z
-x,-y,z
y,-x,1/2+z
1/2+x,1/2-y,-z
1/2-x,1/2+y,-z
1/2+y,1/2+x,1/2-z
1/2-y,1/2-x,1/2-z
-x,-y,-z
y,-x,1/2-z
x,y,-z
-y,x,1/2-z
1/2-x,1/2+y,z
1/2+x,1/2-y,z
1/2-y,1/2-x,1/2+z
1/2+y,1/2+x,1/2+z
loop_
_atom_site_type_symbol
_atom_site_label
_atom_site_fract_x
_atom_site_fract_y
_atom_site_fract_z
Si Si1 0.781190 0.638111 0.327795
Si Si2 0.897667 0.899200 0.156390
Si Si3 0.211624 0.171148 0.163419
Si Si4 0.346924 0.488150 0.837879
Si Si5 0.236642 0.491396 0.329426
Si Si6 0.610616 0.810756 0.828171
O O1 0.832431 0.667570 0.250000
O O2 0.786554 0.639812 0.500000
O O3 0.726386 0.676223 0.293961
O O4 0.776791 0.572727 0.285447
O O5 0.835062 0.876637 0.156944
O O6 0.930871 0.871154 0.281813
O O7 0.894307 0.965092 0.170163
O O8 0.921612 0.883631 0.000000
O O9 0.259851 0.148620 0.266295
O O10 0.232800 0.179644 0.000000
O O11 0.296419 0.504069 0.736798
O O12 0.327243 0.485069 0.000000
O O13 0.239753 0.490219 0.500000
O O14 0.199003 0.545157 0.292050
O O15 0.635184 0.864817 0.750000
O O16 0.615891 0.813379 0.000000
#
# Coordination Sequence:
#
# PCOD9568705 Si02
#       6
#    16  16  16  16  16  16
#     4  10  21  37  57  82 112 145 180 222 274 329
#     4  10  21  37  54  76 111 149 186 236 285 324
#     4  10  19  35  57  81 115 150 181 226 279 329
#     4  11  22  35  56  81 105 145 197 238 274 328
#     4  10  21  39  59  80 111 150 182 223 282 334
#     4  11  23  37  58  85 115 148 185 227 275 335
#
# _framework density 17.764047000000001
#
# number of rings (size 3 to 8) (size 9 to 14) (size 15 to 20)
#    0.000    1.667    3.333    1.500    0.000    5.667 
#    0.000    1.667    0.000    0.500    0.000    3.500 
#    0.000    0.000    0.000    0.000    0.000    0.000 
#
# Total GULP energy -535125.439447 kJ/mol
# GULP energy per Si atom -5574.223328 kJ/mol
# Density = 1.772362 g / cm^3
# Si number density = 17.764047 Si / 1000 Ang^3
#
#
#
# Elastic Constant Matrix: (Units=GPa)
#
#
# Indices 1 2 3 4 5 6 
#
# 1 44.1824 63.9053 24.5084 0.0000 0.0000 0.0000
# 2 63.9053 44.1818 24.5136 0.0000 0.0000 0.0000
# 3 24.5084 24.5136 15.7384 0.0000 0.0000 0.0000
# 4 0.0000 0.0000 0.0000 23.2462 0.0000 0.0000
# 5 0.0000 0.0000 0.0000 0.0000 23.2455 0.0000
# 6 0.0000 0.0000 0.0000 0.0000 0.0000 16.6354
#
#
#
# Elastic Compliance Matrix: (Units=1/GPa)
#
#
# Indices 1 2 3 4 5 6 
#
# 1 -0.009585 0.041104 -0.049096 0.000000 0.000000 0.000000
# 2 0.041104 -0.009612 -0.049037 0.000000 0.000000 0.000000
# 3 -0.049096 -0.049037 0.216372 0.000000 0.000000 0.000000
# 4 0.000000 0.000000 0.000000 0.043018 0.000000 0.000000
# 5 0.000000 0.000000 0.000000 0.000000 0.043019 0.000000
# 6 0.000000 0.000000 0.000000 0.000000 0.000000 0.060113
#
#
# Mechanical properties :
#
#
# Convention : Reuss Voigt Hill
#
# Bulk Modulus (GPa) = 12.03135 36.66192 24.34664
# Shear Modulus (GPa) = 10.30733 12.03711 11.17222
#
# Velocity S-wave (km/s) = 2.41142 2.60592 2.51055
# Velocity P-wave (km/s) = 3.81325 5.45321 4.70523
#
# Compressibility (1/GPa) = 0.08311617
#
# Stress axis : x y z
#
# Youngs Moduli (GPa) = -104.33496 -104.04123 4.62166
#
# Poissons Ratio (x) = 4.27647 0.22691
# Poissons Ratio (y) = 4.28855 0.22663
# Poissons Ratio (z) = -5.12247 -5.10191
#
# Static dielectric constant tensor:
#      x y z
#    x 1.625260 0.000000 0.000000 
#    y 0.000000 1.625250 0.000000 
#    z 0.000000 0.000000 1.619120 
# 
# From -- ./inp_files/1202.got.cif
#   From: 2010.05.17/outbox.cif.g08.bks.cpg/sg135_1_cif.got.tgz:1202.got - 2010.05.20 12:50:20.
