data_PCOD9568847
_publ_section_title
;
Structure prediction by ZEFSAII (Michael W. Deem and Ramdas Pophale) SiO2 
 PCOD9568847
Probable space group: P 42/M B C
;
_chemical_formula_sum "Si O2"
_cell_formula_units_Z 112
_cell_length_a 12.751513
_cell_length_b 12.751513
_cell_length_c 29.462484
_cell_angle_alpha 90.000000
_cell_angle_beta 90.000000
_cell_angle_gamma 90.000000
_cell_volume 4790.631830
_symmetry_space_group_name_H-M "P 42/M B C"
_symmetry_group_IT_number 135
_symmetry_cell_setting 'tetragonal'
loop_
_space_group_symop_operation_xyz
x,y,z
-y,x,1/2+z
-x,-y,z
y,-x,1/2+z
1/2+x,1/2-y,-z
1/2-x,1/2+y,-z
1/2+y,1/2+x,1/2-z
1/2-y,1/2-x,1/2-z
-x,-y,-z
y,-x,1/2-z
x,y,-z
-y,x,1/2-z
1/2-x,1/2+y,z
1/2+x,1/2-y,z
1/2-y,1/2-x,1/2+z
1/2+y,1/2+x,1/2+z
loop_
_atom_site_type_symbol
_atom_site_label
_atom_site_fract_x
_atom_site_fract_y
_atom_site_fract_z
Si Si1 0.272159 0.084443 0.800806
Si Si2 0.102968 0.182438 0.052024
Si Si3 0.866136 0.639865 0.800091
Si Si4 0.614086 0.180850 0.402646
Si Si5 0.905534 0.163201 0.889104
Si Si6 0.723530 0.426732 0.706611
Si Si7 0.610810 0.801779 0.399689
O O1 0.331705 0.193895 0.795656
O O2 0.191054 0.068810 0.759568
O O3 0.237348 0.089270 0.852685
O O4 0.355008 0.987311 0.796280
O O5 0.122632 0.303569 0.066088
O O6 0.216109 0.132207 0.062215
O O7 0.012092 0.140843 0.084830
O O8 0.072685 0.171424 0.000000
O O9 0.825496 0.674505 0.750000
O O10 0.820132 0.656532 0.850457
O O11 0.974168 0.702074 0.803195
O O12 0.608699 0.305344 0.411849
O O13 0.497355 0.136820 0.406026
O O14 0.915672 0.143684 0.834862
O O15 0.875782 0.287991 0.893894
#
# Coordination Sequence:
#
# PCOD9568847 Si02
#       7
#    16  16  16  16  16  16  16
#     4   8  15  26  49  84 116 151 189 232 286 356
#     4  11  24  42  63  86 115 156 203 253 304 352
#     4   9  15  27  51  83 116 153 190 231 286 352
#     4  10  21  40  60  88 120 153 196 248 301 357
#     4  10  21  37  57  85 119 158 198 251 294 358
#     4   9  14  27  48  81 118 154 189 230 287 348
#     4   9  21  40  60  86 121 151 193 252 304 357
#
# _framework density 23.378961
#
# number of rings (size 3 to 8) (size 9 to 14) (size 15 to 20)
#    0.000    2.571    1.429    0.429    0.000    5.714 
#    7.714    1.429    0.000    0.000    0.000    2.000 
#    0.000    0.000    0.000    0.000    0.000    0.000 
#
# Total GULP energy -624480.276162 kJ/mol
# GULP energy per Si atom -5575.716751 kJ/mol
# Density = 2.332575 g / cm^3
# Si number density = 23.378961 Si / 1000 Ang^3
#
#
#
# Elastic Constant Matrix: (Units=GPa)
#
#
# Indices 1 2 3 4 5 6 
#
# 1 49.4722 -12.1332 -1.1883 0.0000 0.0000 0.0000
# 2 -12.1332 49.4719 -1.1883 0.0000 0.0000 0.0000
# 3 -1.1883 -1.1883 95.1979 0.0000 0.0000 0.0000
# 4 0.0000 0.0000 0.0000 19.2543 0.0000 0.0000
# 5 0.0000 0.0000 0.0000 0.0000 19.2543 0.0000
# 6 0.0000 0.0000 0.0000 0.0000 0.0000 5.5497
#
#
#
# Elastic Compliance Matrix: (Units=1/GPa)
#
#
# Indices 1 2 3 4 5 6 
#
# 1 0.021518 0.005285 0.000335 0.000000 0.000000 0.000000
# 2 0.005285 0.021518 0.000335 0.000000 0.000000 0.000000
# 3 0.000335 0.000335 0.010513 0.000000 0.000000 0.000000
# 4 0.000000 0.000000 0.000000 0.051937 0.000000 0.000000
# 5 0.000000 0.000000 0.000000 0.000000 0.051936 0.000000
# 6 0.000000 0.000000 0.000000 0.000000 0.000000 0.180188
#
#
# Mechanical properties :
#
#
# Convention : Reuss Voigt Hill
#
# Bulk Modulus (GPa) = 15.27717 18.34694 16.81206
# Shear Modulus (GPa) = 14.38767 22.72178 18.55472
#
# Velocity S-wave (km/s) = 2.48344 3.12090 2.82024
# Velocity P-wave (km/s) = 3.84344 4.56633 4.22039
#
# Compressibility (1/GPa) = 0.06545714
#
# Stress axis : x y z
#
# Youngs Moduli (GPa) = 46.47350 46.47318 95.12223
#
# Poissons Ratio (x) = -0.24563 -0.03182
# Poissons Ratio (y) = -0.24563 -0.03182
# Poissons Ratio (z) = -0.01555 -0.01555
#
# Static dielectric constant tensor:
#      x y z
#    x 1.905890 0.000000 0.000000 
#    y 0.000000 1.905890 0.000000 
#    z 0.000000 0.000000 1.893170 
# 
# From -- ./inp_files/6481.got.cif
#   From: 2010.05.17/outbox.cif.g08.bks.cpg/sg135_4_cif.got.tgz:6481.got - 2010.05.20 12:50:20.
