data_PCOD9569131
_publ_section_title
;
Structure prediction by ZEFSAII (Michael W. Deem and Ramdas Pophale) SiO2 
 PCOD9569131
Probable space group: P 42/M N M
;
_chemical_formula_sum "Si O2"
_cell_formula_units_Z 96
_cell_length_a 21.319830
_cell_length_b 21.319830
_cell_length_c 14.878999
_cell_angle_alpha 90.000000
_cell_angle_beta 90.000000
_cell_angle_gamma 90.000000
_cell_volume 6763.028061
_symmetry_space_group_name_H-M "P 42/M N M"
_symmetry_group_IT_number 136
_symmetry_cell_setting 'tetragonal'
loop_
_space_group_symop_operation_xyz
x,y,z
1/2-y,1/2+x,1/2+z
-x,-y,z
1/2+y,1/2-x,1/2+z
1/2+x,1/2-y,1/2-z
1/2-x,1/2+y,1/2-z
y,x,-z
-y,-x,-z
-x,-y,-z
1/2+y,1/2-x,1/2-z
x,y,-z
1/2-y,1/2+x,1/2-z
1/2-x,1/2+y,1/2+z
1/2+x,1/2-y,1/2+z
-y,-x,z
y,x,z
loop_
_atom_site_type_symbol
_atom_site_label
_atom_site_fract_x
_atom_site_fract_y
_atom_site_fract_z
Si Si1 0.733825 0.627832 0.601062
Si Si2 0.821625 0.988839 0.897433
Si Si3 0.687819 0.579686 0.103793
Si Si4 0.897686 0.995525 0.280955
Si Si5 0.253591 0.640914 0.395676
Si Si6 0.167349 0.725082 0.286485
O O1 0.758700 0.637403 0.500000
O O2 0.671657 0.671657 0.609648
O O3 0.712476 0.555943 0.610418
O O4 0.778544 0.647202 0.682731
O O5 0.873011 0.986157 0.819817
O O6 0.774831 0.930511 0.883926
O O7 0.846350 0.983860 0.000000
O O8 0.633597 0.633597 0.104504
O O9 0.658302 0.520938 0.156667
O O10 0.746244 0.609986 0.156253
O O11 0.701941 0.565854 0.000000
O O12 0.932793 0.932793 0.313114
O O13 0.949737 0.050264 0.280124
O O14 0.234952 0.650652 0.500000
O O15 0.314463 0.685538 0.380535
O O16 0.198439 0.664489 0.331157
O O17 0.221995 0.778006 0.291455
#
# Coordination Sequence:
#
# PCOD9569131 Si02
#       6
#    16  16  16  16  16  16
#     4   9  16  26  43  65  86 111 144 177 208 247
#     4  10  18  28  41  59  87 116 142 173 210 251
#     4   9  16  26  40  56  74 100 138 183 220 243
#     4  10  19  28  38  55  81 115 152 179 202 241
#     4   9  17  27  40  60  84 111 141 174 216 258
#     4   9  15  26  43  61  79 102 139 183 217 247
#
# _framework density 14.194825
#
# number of rings (size 3 to 8) (size 9 to 14) (size 15 to 20)
#    0.000    2.667    1.667    1.500    0.000    4.333 
#    0.000    2.500    0.000    1.000    0.000    2.333 
#    0.000    0.667    0.000    6.000    0.000    0.000 
#
# Total GULP energy -534464.809055 kJ/mol
# GULP energy per Si atom -5567.341761 kJ/mol
# Density = 1.416252 g / cm^3
# Si number density = 14.194825 Si / 1000 Ang^3
#
#
#
# Elastic Constant Matrix: (Units=GPa)
#
#
# Indices 1 2 3 4 5 6 
#
# 1 26.1640 13.8486 25.8538 0.0000 0.0000 0.0000
# 2 13.8486 26.1640 25.8538 0.0000 0.0000 0.0000
# 3 25.8538 25.8538 89.5428 0.0000 0.0000 0.0000
# 4 0.0000 0.0000 0.0000 17.6029 0.0000 0.0000
# 5 0.0000 0.0000 0.0000 0.0000 17.6029 0.0000
# 6 0.0000 0.0000 0.0000 0.0000 0.0000 7.6191
#
#
#
# Elastic Compliance Matrix: (Units=1/GPa)
#
#
# Indices 1 2 3 4 5 6 
#
# 1 0.060534 -0.020666 -0.011511 0.000000 0.000000 0.000000
# 2 -0.020666 0.060534 -0.011511 0.000000 0.000000 0.000000
# 3 -0.011511 -0.011511 0.017815 0.000000 0.000000 0.000000
# 4 0.000000 0.000000 0.000000 0.056809 0.000000 0.000000
# 5 0.000000 0.000000 0.000000 0.000000 0.056809 0.000000
# 6 0.000000 0.000000 0.000000 0.000000 0.000000 0.131250
#
#
# Mechanical properties :
#
#
# Convention : Reuss Voigt Hill
#
# Bulk Modulus (GPa) = 19.41513 30.33145 24.87329
# Shear Modulus (GPa) = 10.23972 13.65261 11.94617
#
# Velocity S-wave (km/s) = 2.68875 3.10466 2.90416
# Velocity P-wave (km/s) = 4.83182 5.85374 5.36715
#
# Compressibility (1/GPa) = 0.05150621
#
# Stress axis : x y z
#
# Youngs Moduli (GPa) = 16.51975 16.51975 56.13247
#
# Poissons Ratio (x) = 0.34140 0.64614
# Poissons Ratio (y) = 0.34140 0.64614
# Poissons Ratio (z) = 0.19016 0.19016
#
# Static dielectric constant tensor:
#      x y z
#    x 1.454750 0.000000 0.000000 
#    y 0.000000 1.454750 0.000000 
#    z 0.000000 0.000000 1.490730 
# 
# From -- ./inp_files/5190.got.cif
#   From: 2010.05.17/outbox.cif.g08.bks.cpg/sg136_3_cif.got.tgz:5190.got - 2010.05.20 12:54:53.
