data_PCOD9569453
_publ_section_title
;
Structure prediction by ZEFSAII (Michael W. Deem and Ramdas Pophale) SiO2 
 PCOD9569453
Probable space group: P 42/M N M
;
_chemical_formula_sum "Si O2"
_cell_formula_units_Z 96
_cell_length_a 16.384089
_cell_length_b 16.384089
_cell_length_c 17.094095
_cell_angle_alpha 90.000000
_cell_angle_beta 90.000000
_cell_angle_gamma 90.000000
_cell_volume 4588.711039
_symmetry_space_group_name_H-M "P 42/M N M"
_symmetry_group_IT_number 136
_symmetry_cell_setting 'tetragonal'
loop_
_space_group_symop_operation_xyz
x,y,z
1/2-y,1/2+x,1/2+z
-x,-y,z
1/2+y,1/2-x,1/2+z
1/2+x,1/2-y,1/2-z
1/2-x,1/2+y,1/2-z
y,x,-z
-y,-x,-z
-x,-y,-z
1/2+y,1/2-x,1/2-z
x,y,-z
1/2-y,1/2+x,1/2-z
1/2-x,1/2+y,1/2+z
1/2+x,1/2-y,1/2+z
-y,-x,z
y,x,z
loop_
_atom_site_type_symbol
_atom_site_label
_atom_site_fract_x
_atom_site_fract_y
_atom_site_fract_z
Si Si1 0.654543 0.474079 0.638686
Si Si2 0.785270 0.346079 0.591995
Si Si3 0.875473 0.252688 0.909261
Si Si4 0.130063 0.003408 0.321685
Si Si5 0.541259 0.791231 0.910999
Si Si6 0.057645 0.574244 0.089643
O O1 0.576620 0.423381 0.607389
O O2 0.729881 0.410738 0.636287
O O3 0.684663 0.553799 0.594754
O O4 0.636800 0.496891 0.728012
O O5 0.782940 0.369174 0.500000
O O6 0.741059 0.258942 0.599351
O O7 0.877705 0.337301 0.618469
O O8 0.793227 0.206774 0.876804
O O9 0.919350 0.335723 0.875964
O O10 0.857553 0.272637 0.000000
O O11 0.089844 0.089844 0.344633
O O12 0.215613 0.984047 0.359487
O O13 0.066402 0.933599 0.345254
O O14 0.468783 0.855141 0.914131
O O15 0.560655 0.764334 0.000000
O O16 0.000000 0.500000 0.122790
O O17 0.025459 0.588264 0.000000
#
# Coordination Sequence:
#
# PCOD9569453 Si02
#       6
#    16  16  16  16  16  16
#     4  10  20  36  56  79 112 152 187 226 285 351
#     4   9  17  31  56  88 115 140 181 238 288 335
#     4  10  20  33  52  81 113 145 186 234 280 336
#     4  10  22  39  56  78 113 154 194 237 288 346
#     4  10  20  36  60  85 111 147 192 243 292 337
#     4   9  18  34  57  82 110 145 181 225 286 345
#
# _framework density 20.920909000000002
#
# number of rings (size 3 to 8) (size 9 to 14) (size 15 to 20)
#    0.000    2.333    0.000    2.500    0.000    6.667 
#    3.000    3.333    0.000    0.000    0.000    0.000 
#    0.000    0.000    0.000    0.000    0.000    0.000 
#
# Total GULP energy -534947.758340 kJ/mol
# GULP energy per Si atom -5572.372483 kJ/mol
# Density = 2.087329 g / cm^3
# Si number density = 20.920909 Si / 1000 Ang^3
#
#
#
# Elastic Constant Matrix: (Units=GPa)
#
#
# Indices 1 2 3 4 5 6 
#
# 1 109.8586 50.5646 9.3739 0.0000 0.0000 0.0000
# 2 50.5646 109.8586 9.3739 0.0000 0.0000 0.0000
# 3 9.3739 9.3739 7.5084 0.0000 0.0000 0.0000
# 4 0.0000 0.0000 0.0000 26.4808 0.0000 0.0000
# 5 0.0000 0.0000 0.0000 0.0000 26.4808 0.0000
# 6 0.0000 0.0000 0.0000 0.0000 0.0000 36.6159
#
#
#
# Elastic Compliance Matrix: (Units=1/GPa)
#
#
# Indices 1 2 3 4 5 6 
#
# 1 0.012082 -0.004783 -0.009112 0.000000 0.000000 0.000000
# 2 -0.004783 0.012082 -0.009112 0.000000 0.000000 0.000000
# 3 -0.009112 -0.009112 0.155935 0.000000 0.000000 0.000000
# 4 0.000000 0.000000 0.000000 0.037763 0.000000 0.000000
# 5 0.000000 0.000000 0.000000 0.000000 0.037763 0.000000
# 6 0.000000 0.000000 0.000000 0.000000 0.000000 0.027311
#
#
# Mechanical properties :
#
#
# Convention : Reuss Voigt Hill
#
# Bulk Modulus (GPa) = 7.45796 40.65006 24.05401
# Shear Modulus (GPa) = 13.38173 28.44306 20.91240
#
# Velocity S-wave (km/s) = 2.53184 3.69121 3.16506
# Velocity P-wave (km/s) = 3.48131 6.13508 4.98792
#
# Compressibility (1/GPa) = 0.13408492
#
# Stress axis : x y z
#
# Youngs Moduli (GPa) = 82.76956 82.76956 6.41293
#
# Poissons Ratio (x) = 0.39592 0.05843
# Poissons Ratio (y) = 0.39592 0.05843
# Poissons Ratio (z) = 0.75417 0.75417
#
# Static dielectric constant tensor:
#      x y z
#    x 1.778100 0.000000 0.000000 
#    y 0.000000 1.778100 0.000000 
#    z 0.000000 0.000000 1.725580 
# 
# From -- ./inp_files/7502.got.cif
#   From: 2010.05.17/outbox.cif.g08.bks.cpg/sg136_4_cif.got.tgz:7502.got - 2010.05.20 12:54:53.
