data_PCOD9569814
_publ_section_title
;
Structure prediction by ZEFSAII (Michael W. Deem and Ramdas Pophale) SiO2 
 PCOD9569814
Probable space group: P 42/M N M
;
_chemical_formula_sum "Si O2"
_cell_formula_units_Z 88
_cell_length_a 15.496199
_cell_length_b 15.496199
_cell_length_c 17.486121
_cell_angle_alpha 90.000000
_cell_angle_beta 90.000000
_cell_angle_gamma 90.000000
_cell_volume 4198.980416
_symmetry_space_group_name_H-M "P 42/M N M"
_symmetry_group_IT_number 136
_symmetry_cell_setting 'tetragonal'
loop_
_space_group_symop_operation_xyz
x,y,z
1/2-y,1/2+x,1/2+z
-x,-y,z
1/2+y,1/2-x,1/2+z
1/2+x,1/2-y,1/2-z
1/2-x,1/2+y,1/2-z
y,x,-z
-y,-x,-z
-x,-y,-z
1/2+y,1/2-x,1/2-z
x,y,-z
1/2-y,1/2+x,1/2-z
1/2-x,1/2+y,1/2+z
1/2+x,1/2-y,1/2+z
-y,-x,z
y,x,z
loop_
_atom_site_type_symbol
_atom_site_label
_atom_site_fract_x
_atom_site_fract_y
_atom_site_fract_z
Si Si1 0.660686 0.660686 0.877971
Si Si2 0.254747 0.013364 0.412916
Si Si3 0.500074 0.708955 0.649598
Si Si4 0.361337 0.988530 0.269738
Si Si5 0.562835 0.562835 0.248237
Si Si6 0.187177 0.812824 0.914991
Si Si7 0.185053 0.185053 0.668905
Si Si8 0.806703 0.806703 0.146002
O O1 0.573045 0.697109 0.914387
O O2 0.626588 0.626588 0.796084
O O3 0.734401 0.734401 0.872971
O O4 0.275693 0.038359 0.500000
O O5 0.210489 0.092671 0.367486
O O6 0.334413 0.988901 0.358066
O O7 0.515772 0.781592 0.713035
O O8 0.505242 0.621348 0.697510
O O9 0.585046 0.705419 0.596676
O O10 0.403210 0.717712 0.617019
O O11 0.423940 0.910581 0.250133
O O12 0.500000 0.500000 0.200296
O O13 0.244268 0.755733 0.857646
O O14 0.213073 0.786928 0.000000
O O15 0.185897 0.185897 0.761070
#
# Coordination Sequence:
#
# PCOD9569814 Si02
#       8
#     8  16  16  16   8   8   8   8
#     4  12  25  39  66  99 141 184 226 271 344 414
#     4  12  26  43  64 100 142 179 221 283 352 413
#     4  11  22  39  68  96 134 171 226 283 338 398
#     4  11  23  41  66  98 128 175 235 279 331 410
#     4  11  20  36  60  98 126 169 216 288 333 399
#     4  11  26  46  68 103 137 178 231 288 353 403
#     4  12  24  42  74 100 139 175 227 290 346 406
#     4  12  22  42  69 107 128 180 239 285 332 407
#
# _framework density 20.957469
#
# number of rings (size 3 to 8) (size 9 to 14) (size 15 to 20)
#    0.000    0.545    4.545    4.364    1.273    0.000 
#    0.000    8.182    0.000    0.000    0.000    0.000 
#    0.000    0.000    0.000    0.000    0.000    0.000 
#
# Total GULP energy -491678.807920 kJ/mol
# GULP energy per Si atom -5587.259181 kJ/mol
# Density = 2.090977 g / cm^3
# Si number density = 20.957469 Si / 1000 Ang^3
#
#
#
# Elastic Constant Matrix: (Units=GPa)
#
#
# Indices 1 2 3 4 5 6 
#
# 1 1169.8434-1018.5833 7.4166 0.0000 0.0000 0.0000
# 2 -1018.5833 1169.8490 7.4208 0.0000 0.0000 0.0000
# 3 7.4166 7.4208 50.9318 0.0000 0.0000 0.0000
# 4 0.0000 0.0000 0.0000 80.1289 0.0000 0.0000
# 5 0.0000 0.0000 0.0000 0.0000 80.1305 0.0000
# 6 0.0000 0.0000 0.0000 0.0000 0.0000 73.7130
#
#
#
# Elastic Compliance Matrix: (Units=1/GPa)
#
#
# Indices 1 2 3 4 5 6 
#
# 1 0.003582 0.003125 -0.000977 0.000000 0.000000 0.000000
# 2 0.003125 0.003582 -0.000977 0.000000 0.000000 0.000000
# 3 -0.000977 -0.000977 0.019919 0.000000 0.000000 0.000000
# 4 0.000000 0.000000 0.000000 0.012480 0.000000 0.000000
# 5 0.000000 0.000000 0.000000 0.000000 0.012480 0.000000
# 6 0.000000 0.000000 0.000000 0.000000 0.000000 0.013566
#
#
# Mechanical properties :
#
#
# Convention : Reuss Voigt Hill
#
# Bulk Modulus (GPa) = 33.98506 42.57027 38.27767
# Shear Modulus (GPa) = 68.42369 273.08583 170.75476
#
# Velocity S-wave (km/s) = 5.72011 11.42750 9.03624
# Velocity P-wave (km/s) = 7.73807 13.94538 11.27722
#
# Compressibility (1/GPa) = 0.02942469
#
# Stress axis : x y z
#
# Youngs Moduli (GPa) = 279.18173 279.18277 50.20414
#
# Poissons Ratio (x) = -0.87243 0.04904
# Poissons Ratio (y) = -0.87243 0.04905
# Poissons Ratio (z) = 0.27273 0.27274
#
# Static dielectric constant tensor:
#      x y z
#    x 1.799680 0.000000 0.000000 
#    y 0.000000 1.799680 0.000000 
#    z 0.000000 0.000000 1.734760 
# 
# From -- ./inp_files/7460.got.cif
#   From: 2010.05.17/outbox.cif.g08.bks.cpg/sg136_4_cif.got.tgz:7460.got - 2010.05.20 12:54:53.
