data_PCOD9569641
_publ_section_title
;
Structure prediction by ZEFSAII (Michael W. Deem and Ramdas Pophale) SiO2 
 PCOD9569641
Probable space group: P 42/M N M
;
_chemical_formula_sum "Si O2"
_cell_formula_units_Z 80
_cell_length_a 12.464840
_cell_length_b 12.464840
_cell_length_c 28.785863
_cell_angle_alpha 90.000000
_cell_angle_beta 90.000000
_cell_angle_gamma 90.000000
_cell_volume 4472.523906
_symmetry_space_group_name_H-M "P 42/M N M"
_symmetry_group_IT_number 136
_symmetry_cell_setting 'tetragonal'
loop_
_space_group_symop_operation_xyz
x,y,z
1/2-y,1/2+x,1/2+z
-x,-y,z
1/2+y,1/2-x,1/2+z
1/2+x,1/2-y,1/2-z
1/2-x,1/2+y,1/2-z
y,x,-z
-y,-x,-z
-x,-y,-z
1/2+y,1/2-x,1/2-z
x,y,-z
1/2-y,1/2+x,1/2-z
1/2-x,1/2+y,1/2+z
1/2+x,1/2-y,1/2+z
-y,-x,z
y,x,z
loop_
_atom_site_type_symbol
_atom_site_label
_atom_site_fract_x
_atom_site_fract_y
_atom_site_fract_z
Si Si1 0.903306 0.732932 0.709946
Si Si2 0.874687 0.485866 0.125122
Si Si3 0.858481 0.678709 0.946242
Si Si4 0.427665 0.249559 0.598943
Si Si5 0.550130 0.723394 0.705428
O O1 0.834463 0.834463 0.693427
O O2 0.988533 0.697536 0.671101
O O3 0.819926 0.634662 0.713411
O O4 0.954244 0.758521 0.759425
O O5 0.849215 0.577373 0.087988
O O6 0.868376 0.365728 0.103893
O O7 0.000000 0.500000 0.138540
O O8 0.763941 0.763941 0.938379
O O9 0.972783 0.734463 0.935200
O O10 0.856281 0.644654 0.000000
O O11 0.342855 0.342855 0.587736
O O12 0.474594 0.273528 0.650627
O O13 0.613431 0.613431 0.715346
#
# Coordination Sequence:
#
# PCOD9569641 Si02
#       5
#    16  16  16  16  16
#     4  10  21  34  52  79 110 143 183 223 263 321
#     4   9  19  35  56  80 105 142 182 230 271 319
#     4  10  22  38  56  82 113 143 180 228 281 334
#     4   9  19  37  57  80 110 143 182 229 277 328
#     4   9  20  34  50  76 110 144 179 221 267 317
#
# _framework density 17.886991999999999
#
# number of rings (size 3 to 8) (size 9 to 14) (size 15 to 20)
#    0.000    2.600    0.000    1.800    8.400    6.400 
#    0.000    3.000    0.000    3.600    0.000    5.600 
#    0.000    0.000    0.000    0.000    0.000    0.000 
#
# Total GULP energy -446227.958545 kJ/mol
# GULP energy per Si atom -5577.849482 kJ/mol
# Density = 1.784628 g / cm^3
# Si number density = 17.886992 Si / 1000 Ang^3
#
#
#
# Elastic Constant Matrix: (Units=GPa)
#
#
# Indices 1 2 3 4 5 6 
#
# 1 48.7163 30.9655 35.8817 0.0000 0.0000 0.0000
# 2 30.9655 48.7163 35.8817 0.0000 0.0000 0.0000
# 3 35.8817 35.8817 54.1832 0.0000 0.0000 0.0000
# 4 0.0000 0.0000 0.0000 12.6219 0.0000 0.0000
# 5 0.0000 0.0000 0.0000 0.0000 12.6219 0.0000
# 6 0.0000 0.0000 0.0000 0.0000 0.0000 13.5840
#
#
#
# Elastic Compliance Matrix: (Units=1/GPa)
#
#
# Indices 1 2 3 4 5 6 
#
# 1 0.043716 -0.012620 -0.020593 0.000000 0.000000 0.000000
# 2 -0.012620 0.043716 -0.020593 0.000000 0.000000 0.000000
# 3 -0.020593 -0.020593 0.045730 0.000000 0.000000 0.000000
# 4 0.000000 0.000000 0.000000 0.079227 0.000000 0.000000
# 5 0.000000 0.000000 0.000000 0.000000 0.079227 0.000000
# 6 0.000000 0.000000 0.000000 0.000000 0.000000 0.073616
#
#
# Mechanical properties :
#
#
# Convention : Reuss Voigt Hill
#
# Bulk Modulus (GPa) = 39.13674 39.67485 39.40580
# Shear Modulus (GPa) = 10.38720 11.02469 10.70594
#
# Velocity S-wave (km/s) = 2.41241 2.48534 2.44915
# Velocity P-wave (km/s) = 5.44859 5.51950 5.48416
#
# Compressibility (1/GPa) = 0.02555144
#
# Stress axis : x y z
#
# Youngs Moduli (GPa) = 22.87485 22.87485 21.86727
#
# Poissons Ratio (x) = 0.28867 0.45031
# Poissons Ratio (y) = 0.28867 0.45031
# Poissons Ratio (z) = 0.47106 0.47106
#
# Static dielectric constant tensor:
#      x y z
#    x 1.619060 0.000000 0.000000 
#    y 0.000000 1.619060 0.000000 
#    z 0.000000 0.000000 1.608970 
# 
# From -- ./inp_files/9521.got.cif
#   From: 2010.05.17/outbox.cif.g08.bks.cpg/sg136_5_cif.got.tgz:9521.got - 2010.05.20 12:54:53.
