data_PCOD9569518
_publ_section_title
;
Structure prediction by ZEFSAII (Michael W. Deem and Ramdas Pophale) SiO2 
 PCOD9569518
Probable space group: P 42/M N M
;
_chemical_formula_sum "Si O2"
_cell_formula_units_Z 96
_cell_length_a 24.609598
_cell_length_b 24.609598
_cell_length_c 8.294480
_cell_angle_alpha 90.000000
_cell_angle_beta 90.000000
_cell_angle_gamma 90.000000
_cell_volume 5023.405114
_symmetry_space_group_name_H-M "P 42/M N M"
_symmetry_group_IT_number 136
_symmetry_cell_setting 'tetragonal'
loop_
_space_group_symop_operation_xyz
x,y,z
1/2-y,1/2+x,1/2+z
-x,-y,z
1/2+y,1/2-x,1/2+z
1/2+x,1/2-y,1/2-z
1/2-x,1/2+y,1/2-z
y,x,-z
-y,-x,-z
-x,-y,-z
1/2+y,1/2-x,1/2-z
x,y,-z
1/2-y,1/2+x,1/2-z
1/2-x,1/2+y,1/2+z
1/2+x,1/2-y,1/2+z
-y,-x,z
y,x,z
loop_
_atom_site_type_symbol
_atom_site_label
_atom_site_fract_x
_atom_site_fract_y
_atom_site_fract_z
Si Si1 0.860858 0.630097 0.691854
Si Si2 0.930526 0.265794 0.307734
Si Si3 0.654730 0.432681 0.305184
Si Si4 0.723194 0.945289 0.693887
Si Si5 0.444451 0.356291 0.304809
Si Si6 0.071183 0.465965 0.821367
O O1 0.867469 0.626413 0.500000
O O2 0.797670 0.620929 0.732775
O O3 0.899086 0.680125 0.747510
O O4 0.884332 0.577102 0.778685
O O5 0.929060 0.272904 0.500000
O O6 0.928351 0.202273 0.264627
O O7 0.991734 0.284702 0.249665
O O8 0.656284 0.430728 0.500000
O O9 0.614752 0.385249 0.247893
O O10 0.716217 0.428233 0.243316
O O11 0.633839 0.492732 0.258581
O O12 0.719926 0.947441 0.500000
O O13 0.442625 0.352884 0.500000
O O14 0.403631 0.403631 0.253128
O O15 0.065716 0.514282 0.694952
O O16 0.078816 0.488897 0.000000
#
# Coordination Sequence:
#
# PCOD9569518 Si02
#       6
#    16  16  16  16  16  16
#     4  11  21  34  52  74 100 135 181 225 267 320
#     4  10  20  35  54  77 106 139 177 222 269 315
#     4   9  18  33  55  83 111 137 168 209 257 311
#     4   9  20  36  53  74 103 139 176 216 262 313
#     4   9  18  34  56  81 110 142 173 208 256 315
#     4  11  21  33  48  69  98 132 171 220 276 326
#
# _framework density 19.110543
#
# number of rings (size 3 to 8) (size 9 to 14) (size 15 to 20)
#    0.000    2.167    0.000    4.000    0.000    4.333 
#    0.000    2.500    0.000    1.000    0.000    4.667 
#    0.000    0.000    0.000    0.000    0.000    0.000 
#
# Total GULP energy -535269.468658 kJ/mol
# GULP energy per Si atom -5575.723632 kJ/mol
# Density = 1.906705 g / cm^3
# Si number density = 19.110543 Si / 1000 Ang^3
#
#
#
# Elastic Constant Matrix: (Units=GPa)
#
#
# Indices 1 2 3 4 5 6 
#
# 1 87.3047 89.1933 10.8181 0.0000 0.0000 0.0000
# 2 89.1933 87.3047 10.8181 0.0000 0.0000 0.0000
# 3 10.8181 10.8181 30.2806 0.0000 0.0000 0.0000
# 4 0.0000 0.0000 0.0000 21.8631 0.0000 0.0000
# 5 0.0000 0.0000 0.0000 0.0000 21.8631 0.0000
# 6 0.0000 0.0000 0.0000 0.0000 0.0000 40.0682
#
#
#
# Elastic Compliance Matrix: (Units=1/GPa)
#
#
# Indices 1 2 3 4 5 6 
#
# 1 -0.261781 0.267707 -0.002117 0.000000 0.000000 0.000000
# 2 0.267707 -0.261781 -0.002117 0.000000 0.000000 0.000000
# 3 -0.002117 -0.002117 0.034537 0.000000 0.000000 0.000000
# 4 0.000000 0.000000 0.000000 0.045739 0.000000 0.000000
# 5 0.000000 0.000000 0.000000 0.000000 0.045739 0.000000
# 6 0.000000 0.000000 0.000000 0.000000 0.000000 0.024957
#
#
# Mechanical properties :
#
#
# Convention : Reuss Voigt Hill
#
# Bulk Modulus (GPa) = 26.37125 47.39431 36.88278
# Shear Modulus (GPa) = -5.63764 23.02959 8.69597
#
# Velocity S-wave (km/s) = -1.71942 3.47518 2.13547
# Velocity P-wave (km/s) = 3.14442 6.39972 5.04201
#
# Compressibility (1/GPa) = 0.03792009
#
# Stress axis : x y z
#
# Youngs Moduli (GPa) = -3.81998 -3.81998 28.95446
#
# Poissons Ratio (x) = 1.02263 0.06129
# Poissons Ratio (y) = 1.02263 0.06129
# Poissons Ratio (z) = -0.00809 -0.00809
#
# Static dielectric constant tensor:
#      x y z
#    x 1.699470 0.000000 0.000000 
#    y 0.000000 1.699470 0.000000 
#    z 0.000000 0.000000 1.668870 
# 
# From -- ./inp_files/1966.got.cif
#   From: 2010.05.17/outbox.cif.g08.bks.cpg/sg136_1_cif.got.tgz:1966.got - 2010.05.20 12:54:53.
