data_PCOD9569049
_publ_section_title
;
Structure prediction by ZEFSAII (Michael W. Deem and Ramdas Pophale) SiO2 
 PCOD9569049
Probable space group: P 42/M B C
;
_chemical_formula_sum "Si O2"
_cell_formula_units_Z 56
_cell_length_a 10.104460
_cell_length_b 10.104460
_cell_length_c 23.262556
_cell_angle_alpha 90.000000
_cell_angle_beta 90.000000
_cell_angle_gamma 90.000000
_cell_volume 2375.109570
_symmetry_space_group_name_H-M "P 42/M B C"
_symmetry_group_IT_number 135
_symmetry_cell_setting 'tetragonal'
loop_
_space_group_symop_operation_xyz
x,y,z
-y,x,1/2+z
-x,-y,z
y,-x,1/2+z
1/2+x,1/2-y,-z
1/2-x,1/2+y,-z
1/2+y,1/2+x,1/2-z
1/2-y,1/2-x,1/2-z
-x,-y,-z
y,-x,1/2-z
x,y,-z
-y,x,1/2-z
1/2-x,1/2+y,z
1/2+x,1/2-y,z
1/2-y,1/2-x,1/2+z
1/2+y,1/2+x,1/2+z
loop_
_atom_site_type_symbol
_atom_site_label
_atom_site_fract_x
_atom_site_fract_y
_atom_site_fract_z
Si Si1 0.812432 0.312432 0.250000
Si Si2 0.500000 0.500000 0.897077
Si Si3 0.500000 0.000000 0.901472
Si Si4 0.615141 0.622642 0.500000
Si Si5 0.109473 0.678107 0.000000
Si Si6 0.437271 0.757518 0.175321
O O1 0.703521 0.285514 0.200708
O O2 0.791543 0.458905 0.274423
O O3 0.381565 0.527455 0.942527
O O4 0.500120 0.367412 0.859162
O O5 0.412065 0.087628 0.944227
O O6 0.572986 0.109880 0.862824
O O7 0.719402 0.739754 0.500000
O O8 0.704293 0.492501 0.500000
#
# Coordination Sequence:
#
# PCOD9569049 Si02
#       6
#     8   8   8   8   8  16
#     4  12  28  48  72 106 140 188 252 306 355 433
#     4  11  26  45  74 108 146 191 234 295 368 436
#     4  11  26  45  74 108 146 191 234 299 372 430
#     4  11  26  47  74 116 149 191 248 300 364 467
#     4  11  26  47  74 116 149 193 244 304 362 471
#     4  12  26  47  74 102 144 189 243 303 366 425
#
# _framework density 23.577859
#
# number of rings (size 3 to 8) (size 9 to 14) (size 15 to 20)
#    0.000    0.571    2.857    3.429    8.000    4.571 
#    0.000    0.000    0.000    0.000    0.000    0.000 
#    0.000    0.000    0.000    0.000    0.000    0.000 
#
# Total GULP energy -313284.677688 kJ/mol
# GULP energy per Si atom -5594.369244 kJ/mol
# Density = 2.352419 g / cm^3
# Si number density = 23.577859 Si / 1000 Ang^3
#
#
#
# Elastic Constant Matrix: (Units=GPa)
#
#
# Indices 1 2 3 4 5 6 
#
# 1 95.1691 5.2719 8.5108 0.0000 0.0000 0.0000
# 2 5.2719 95.1691 8.5108 0.0000 0.0000 0.0000
# 3 8.5108 8.5108 80.6295 0.0000 0.0000 0.0000
# 4 0.0000 0.0000 0.0000 65.6374 0.0000 0.0000
# 5 0.0000 0.0000 0.0000 0.0000 65.6374 0.0000
# 6 0.0000 0.0000 0.0000 0.0000 0.0000 29.1013
#
#
#
# Elastic Compliance Matrix: (Units=1/GPa)
#
#
# Indices 1 2 3 4 5 6 
#
# 1 0.010631 -0.000493 -0.001070 0.000000 0.000000 0.000000
# 2 -0.000493 0.010631 -0.001070 0.000000 0.000000 0.000000
# 3 -0.001070 -0.001070 0.012628 0.000000 0.000000 0.000000
# 4 0.000000 0.000000 0.000000 0.015235 0.000000 0.000000
# 5 0.000000 0.000000 0.000000 0.000000 0.015235 0.000000
# 6 0.000000 0.000000 0.000000 0.000000 0.000000 0.034363
#
#
# Mechanical properties :
#
#
# Convention : Reuss Voigt Hill
#
# Bulk Modulus (GPa) = 34.93696 35.06162 34.99929
# Shear Modulus (GPa) = 44.04112 48.65351 46.34731
#
# Velocity S-wave (km/s) = 4.32661 4.54753 4.43845
# Velocity P-wave (km/s) = 6.30946 6.51738 6.41426
#
# Compressibility (1/GPa) = 0.02862298
#
# Stress axis : x y z
#
# Youngs Moduli (GPa) = 94.06784 94.06784 79.18724
#
# Poissons Ratio (x) = 0.04639 0.08473
# Poissons Ratio (y) = 0.04639 0.08473
# Poissons Ratio (z) = 0.10066 0.10066
#
# Static dielectric constant tensor:
#      x y z
#    x 1.873360 0.000000 0.000000 
#    y 0.000000 1.873360 0.000000 
#    z 0.000000 0.000000 1.931620 
# 
# From -- ./inp_files/5023.got.cif
#   From: 2010.05.17/outbox.cif.g08.bks.cpg/sg135_3_cif.got.tgz:5023.got - 2010.05.20 12:50:20.
