data_PCOD9569456
_publ_section_title
;
Structure prediction by ZEFSAII (Michael W. Deem and Ramdas Pophale) SiO2 
 PCOD9569456
Probable space group: P 42/M N M
;
_chemical_formula_sum "Si O2"
_cell_formula_units_Z 96
_cell_length_a 24.528545
_cell_length_b 24.528545
_cell_length_c 8.527527
_cell_angle_alpha 90.000000
_cell_angle_beta 90.000000
_cell_angle_gamma 90.000000
_cell_volume 5130.582525
_symmetry_space_group_name_H-M "P 42/M N M"
_symmetry_group_IT_number 136
_symmetry_cell_setting 'tetragonal'
loop_
_space_group_symop_operation_xyz
x,y,z
1/2-y,1/2+x,1/2+z
-x,-y,z
1/2+y,1/2-x,1/2+z
1/2+x,1/2-y,1/2-z
1/2-x,1/2+y,1/2-z
y,x,-z
-y,-x,-z
-x,-y,-z
1/2+y,1/2-x,1/2-z
x,y,-z
1/2-y,1/2+x,1/2-z
1/2-x,1/2+y,1/2+z
1/2+x,1/2-y,1/2+z
-y,-x,z
y,x,z
loop_
_atom_site_type_symbol
_atom_site_label
_atom_site_fract_x
_atom_site_fract_y
_atom_site_fract_z
Si Si1 0.288713 0.516339 0.810350
Si Si2 0.186446 0.726057 0.313347
Si Si3 0.500230 0.588057 0.808808
Si Si4 0.567834 0.800101 0.312935
Si Si5 0.728772 0.359861 0.812323
Si Si6 0.921180 0.533412 0.688447
O O1 0.349671 0.500951 0.755441
O O2 0.242863 0.475175 0.753724
O O3 0.275220 0.577972 0.760554
O O4 0.289624 0.515926 0.000000
O O5 0.180011 0.729725 0.500000
O O6 0.220705 0.779296 0.259708
O O7 0.128014 0.718094 0.236868
O O8 0.224328 0.674596 0.270860
O O9 0.446850 0.553151 0.762213
O O10 0.552888 0.552888 0.759814
O O11 0.500254 0.588699 0.000000
O O12 0.564000 0.800243 0.500000
O O13 0.554322 0.861874 0.259371
O O14 0.672179 0.327822 0.785127
O O15 0.738929 0.358486 0.000000
O O16 0.924681 0.536665 0.500000
O O17 0.931899 0.471041 0.740162
#
# Coordination Sequence:
#
# PCOD9569456 Si02
#       6
#    16  16  16  16  16  16
#     4  10  20  33  53  83 115 149 188 231 276 328
#     4  10  22  40  61  83 108 144 190 236 282 335
#     4   8  14  27  50  80 112 145 184 231 276 318
#     4  11  25  40  56  84 117 153 190 230 284 341
#     4   9  18  34  57  84 114 148 186 232 285 335
#     4  10  22  40  62  86 112 145 186 233 286 343
#
# _framework density 18.711327000000001
#
# number of rings (size 3 to 8) (size 9 to 14) (size 15 to 20)
#    0.000    2.333    0.000    3.000    2.333    7.000 
#    0.000    1.667    0.000    1.500    0.000    1.167 
#    0.000    0.000    0.000    0.000    0.000    0.000 
#
# Total GULP energy -535920.475743 kJ/mol
# GULP energy per Si atom -5582.504956 kJ/mol
# Density = 1.866874 g / cm^3
# Si number density = 18.711327 Si / 1000 Ang^3
#
#
#
# Elastic Constant Matrix: (Units=GPa)
#
#
# Indices 1 2 3 4 5 6 
#
# 1 81.9897 104.6009 8.8276 0.0000 0.0000 0.0000
# 2 104.6009 81.9897 8.8276 0.0000 0.0000 0.0000
# 3 8.8276 8.8276 8.0710 0.0000 0.0000 0.0000
# 4 0.0000 0.0000 0.0000 8.7695 0.0000 0.0000
# 5 0.0000 0.0000 0.0000 0.0000 8.7695 0.0000
# 6 0.0000 0.0000 0.0000 0.0000 0.0000 12.3223
#
#
#
# Elastic Compliance Matrix: (Units=1/GPa)
#
#
# Indices 1 2 3 4 5 6 
#
# 1 -0.019124 0.025102 -0.006538 0.000000 0.000000 0.000000
# 2 0.025102 -0.019124 -0.006538 0.000000 0.000000 0.000000
# 3 -0.006538 -0.006538 0.138203 0.000000 0.000000 0.000000
# 4 0.000000 0.000000 0.000000 0.114031 0.000000 0.000000
# 5 0.000000 0.000000 0.000000 0.000000 0.114031 0.000000
# 6 0.000000 0.000000 0.000000 0.000000 0.000000 0.081154
#
#
# Mechanical properties :
#
#
# Convention : Reuss Voigt Hill
#
# Bulk Modulus (GPa) = 8.06417 46.28474 27.17446
# Shear Modulus (GPa) = 11.72455 9.29189 10.50822
#
# Velocity S-wave (km/s) = 2.50592 2.23085 2.37237
# Velocity P-wave (km/s) = 3.56258 5.60585 4.69667
#
# Compressibility (1/GPa) = 0.12400538
#
# Stress axis : x y z
#
# Youngs Moduli (GPa) = -52.29047 -52.29047 7.23574
#
# Poissons Ratio (x) = 1.31259 0.04731
# Poissons Ratio (y) = 1.31259 0.04731
# Poissons Ratio (z) = -0.34190 -0.34190
#
# Static dielectric constant tensor:
#      x y z
#    x 1.628370 0.000000 0.000000 
#    y 0.000000 1.628370 0.000000 
#    z 0.000000 0.000000 1.646030 
# 
# From -- ./inp_files/1941.got.cif
#   From: 2010.05.17/outbox.cif.g08.bks.cpg/sg136_1_cif.got.tgz:1941.got - 2010.05.20 12:54:53.
