data_PCOD9569971
_publ_section_title
;
Structure prediction by ZEFSAII (Michael W. Deem and Ramdas Pophale) SiO2 
 PCOD9569971
Probable space group: P 42/N M C
;
_chemical_formula_sum "Si O2"
_cell_formula_units_Z 120
_cell_length_a 25.752375
_cell_length_b 25.752375
_cell_length_c 9.940643
_cell_angle_alpha 90.000000
_cell_angle_beta 90.000000
_cell_angle_gamma 90.000000
_cell_volume 6592.483520
_symmetry_space_group_name_H-M "P 42/N M C"
_symmetry_group_IT_number 137
_space_group.IT_coordinate_system_code '2'
_symmetry_cell_setting 'tetragonal'
loop_
_space_group_symop_operation_xyz
x,y,z
1/2-y,x,1/2+z
1/2-x,1/2-y,z
y,1/2-x,1/2+z
1/2+x,-y,-z
-x,1/2+y,-z
1/2+y,1/2+x,1/2-z
-y,-x,1/2-z
-x,-y,-z
1/2+y,-x,1/2-z
1/2+x,1/2+y,-z
-y,1/2+x,1/2-z
1/2-x,y,z
x,1/2-y,z
1/2-y,1/2-x,1/2+z
y,x,1/2+z
loop_
_atom_site_type_symbol
_atom_site_label
_atom_site_fract_x
_atom_site_fract_y
_atom_site_fract_z
Si Si1 0.811549 0.311549 0.750000
Si Si2 0.385622 0.811030 0.468201
Si Si3 0.599589 0.580975 0.473654
Si Si4 0.041063 0.812431 0.692037
Si Si5 0.333820 0.521530 0.234065
Si Si6 0.690914 0.943373 0.992918
Si Si7 0.526335 0.942919 0.230719
Si Si8 0.689993 0.996139 0.469069
O O1 0.820629 0.250000 0.753804
O O2 0.836663 0.333205 0.612394
O O3 0.375212 0.750000 0.494355
O O4 0.410506 0.833767 0.604667
O O5 0.430529 0.816029 0.355721
O O6 0.595787 0.642566 0.499108
O O7 0.565621 0.550189 0.584135
O O8 0.573148 0.566883 0.333011
O O9 0.656227 0.556037 0.478968
O O10 0.048592 0.750000 0.698196
O O11 0.989189 0.819960 0.601824
O O12 0.030279 0.830552 0.843340
O O13 0.395915 0.513980 0.239534
O O14 0.314810 0.523492 0.386591
O O15 0.312562 0.471433 0.152878
O O16 0.750000 0.924508 0.013837
O O17 0.496828 0.996828 0.250000
O O18 0.750000 0.984383 0.441876
#
# Coordination Sequence:
#
# PCOD9569971 Si02
#       8
#     8  16  16  16  16  16  16  16
#     4   9  18  30  48  76 102 124 156 202 250 300
#     4   9  16  29  48  70  95 123 158 199 243 294
#     4  10  20  32  49  73  99 135 170 198 251 302
#     4   8  15  27  46  69  93 124 159 203 248 282
#     4   9  18  29  48  73  94 123 163 204 249 289
#     4   9  16  30  49  71  98 129 170 211 244 287
#     4  10  20  33  48  69 100 131 160 198 243 309
#     4  10  18  30  48  72 102 129 165 212 253 294
#
# _framework density 18.202546999999999
#
# number of rings (size 3 to 8) (size 9 to 14) (size 15 to 20)
#    0.000    2.733    0.000    3.200    0.933    0.000 
#    0.000    0.000    0.000    0.400    0.000    0.933 
#    0.000   15.200    0.000    0.000    0.000    8.667 
#
# Total GULP energy -668409.900128 kJ/mol
# GULP energy per Si atom -5570.082501 kJ/mol
# Density = 1.816112 g / cm^3
# Si number density = 18.202547 Si / 1000 Ang^3
#
#
#
# Elastic Constant Matrix: (Units=GPa)
#
#
# Indices 1 2 3 4 5 6 
#
# 1 22.9253 35.4933 2.7367 0.0000 0.0000 0.0000
# 2 35.4933 22.9253 2.7367 0.0000 0.0000 0.0000
# 3 2.7367 2.7367 105.4771 0.0000 0.0000 0.0000
# 4 0.0000 0.0000 0.0000 15.2356 0.0000 0.0000
# 5 0.0000 0.0000 0.0000 0.0000 15.2356 0.0000
# 6 0.0000 0.0000 0.0000 0.0000 0.0000 16.2657
#
#
#
# Elastic Compliance Matrix: (Units=1/GPa)
#
#
# Indices 1 2 3 4 5 6 
#
# 1 -0.031204 0.048363 -0.000445 0.000000 0.000000 0.000000
# 2 0.048363 -0.031204 -0.000445 0.000000 0.000000 0.000000
# 3 -0.000445 -0.000445 0.009504 0.000000 0.000000 0.000000
# 4 0.000000 0.000000 0.000000 0.065636 0.000000 0.000000
# 5 0.000000 0.000000 0.000000 0.000000 0.065636 0.000000
# 6 0.000000 0.000000 0.000000 0.000000 0.000000 0.061479
#
#
# Mechanical properties :
#
#
# Convention : Reuss Voigt Hill
#
# Bulk Modulus (GPa) = 23.78573 25.91791 24.85182
# Shear Modulus (GPa) = 84.86782 16.70479 50.78631
#
# Velocity S-wave (km/s) = 6.83560 3.03267 5.28784
# Velocity P-wave (km/s) = 8.68309 5.15095 7.13892
#
# Compressibility (1/GPa) = 0.04204202
#
# Stress axis : x y z
#
# Youngs Moduli (GPa) = -32.04750 -32.04750 105.22068
#
# Poissons Ratio (x) = 1.54992 0.04685
# Poissons Ratio (y) = 1.54992 0.04685
# Poissons Ratio (z) = -0.01427 -0.01427
#
# Static dielectric constant tensor:
#      x y z
#    x 1.635610 0.000000 0.000000 
#    y 0.000000 1.635610 0.000000 
#    z 0.000000 0.000000 1.658000 
# 
# From -- ./inp_files/2360.got.cif
#   From: 2010.05.17/outbox.cif.g08.bks.cpg/sg137_2_cif.got.tgz:2360.got - 2010.05.20 13:01:12.
