data_PCOD9569483
_publ_section_title
;
Structure prediction by ZEFSAII (Michael W. Deem and Ramdas Pophale) SiO2 
 PCOD9569483
Probable space group: P 42/M N M
;
_chemical_formula_sum "Si O2"
_cell_formula_units_Z 32
_cell_length_a 8.986673
_cell_length_b 8.986673
_cell_length_c 21.758529
_cell_angle_alpha 90.000000
_cell_angle_beta 90.000000
_cell_angle_gamma 90.000000
_cell_volume 1757.225147
_symmetry_space_group_name_H-M "P 42/M N M"
_symmetry_group_IT_number 136
_symmetry_cell_setting 'tetragonal'
loop_
_space_group_symop_operation_xyz
x,y,z
1/2-y,1/2+x,1/2+z
-x,-y,z
1/2+y,1/2-x,1/2+z
1/2+x,1/2-y,1/2-z
1/2-x,1/2+y,1/2-z
y,x,-z
-y,-x,-z
-x,-y,-z
1/2+y,1/2-x,1/2-z
x,y,-z
1/2-y,1/2+x,1/2-z
1/2-x,1/2+y,1/2+z
1/2+x,1/2-y,1/2+z
-y,-x,z
y,x,z
loop_
_atom_site_type_symbol
_atom_site_label
_atom_site_fract_x
_atom_site_fract_y
_atom_site_fract_z
Si Si1 0.000000 0.500000 0.102577
Si Si2 0.749497 0.501576 0.000000
Si Si3 0.201071 0.561645 0.285522
O O1 0.986724 0.641936 0.147730
O O2 0.856187 0.494170 0.059206
O O3 0.651696 0.651696 0.000000
O O4 0.634749 0.365252 0.000000
O O5 0.179204 0.421480 0.240594
O O6 0.359100 0.640901 0.285965
#
# Coordination Sequence:
#
# PCOD9569483 Si02
#       3
#     8   8  16
#     4   9  19  34  52  74 105 133 164 210 254 293
#     4  10  20  34  54  76  98 132 174 210 248 296
#     4   9  19  34  52  75 102 132 166 204 248 299
#
# _framework density 18.210529000000001
#
# number of rings (size 3 to 8) (size 9 to 14) (size 15 to 20)
#    0.000    3.250    0.000    1.500    0.000    9.000 
#    0.000    0.000    0.000   25.500    0.000    0.000 
#    0.000    0.000    0.000    0.000    0.000    0.000 
#
# Total GULP energy -178374.393625 kJ/mol
# GULP energy per Si atom -5574.199801 kJ/mol
# Density = 1.816908 g / cm^3
# Si number density = 18.210529 Si / 1000 Ang^3
#
#
#
# Elastic Constant Matrix: (Units=GPa)
#
#
# Indices 1 2 3 4 5 6 
#
# 1 80.3768 52.9580 42.9717 0.0000 0.0000 0.0000
# 2 52.9580 80.3767 42.9716 0.0000 0.0000 0.0000
# 3 42.9717 42.9716 130.6848 0.0000 0.0000 0.0000
# 4 0.0000 0.0000 0.0000 -30.1370 0.0000 0.0000
# 5 0.0000 0.0000 0.0000 0.0000 -30.1637 0.0000
# 6 0.0000 0.0000 0.0000 0.0000 0.0000 44.8961
#
#
#
# Elastic Compliance Matrix: (Units=1/GPa)
#
#
# Indices 1 2 3 4 5 6 
#
# 1 0.022994 -0.013477 -0.003129 0.000000 0.000000 0.000000
# 2 -0.013477 0.022994 -0.003129 0.000000 0.000000 0.000000
# 3 -0.003129 -0.003129 0.009710 0.000000 0.000000 0.000000
# 4 0.000000 0.000000 0.000000 -0.033182 0.000000 0.000000
# 5 0.000000 0.000000 0.000000 0.000000 -0.033152 0.000000
# 6 0.000000 0.000000 0.000000 0.000000 0.000000 0.022274
#
#
# Mechanical properties :
#
#
# Convention : Reuss Voigt Hill
#
# Bulk Modulus (GPa) = 61.62750 63.24899 62.43825
# Shear Modulus (GPa) = 88.46626 7.08820 47.77723
#
# Velocity S-wave (km/s) = 6.97748 1.97505 5.12767
# Velocity P-wave (km/s) = 9.94126 6.32523 8.33179
#
# Compressibility (1/GPa) = 0.01622652
#
# Stress axis : x y z
#
# Youngs Moduli (GPa) = 43.48916 43.48915 102.98659
#
# Poissons Ratio (x) = 0.58611 0.32229
# Poissons Ratio (y) = 0.58611 0.32228
# Poissons Ratio (z) = 0.13609 0.13609
#
# Static dielectric constant tensor:
#      x y z
#    x 1.649200 0.000000 0.000000 
#    y 0.000000 1.649200 0.000000 
#    z 0.000000 0.000000 1.609380 
# 
# From -- ./inp_files/6715.got.cif
#   From: 2010.05.17/outbox.cif.g08.bks.cpg/sg136_4_cif.got.tgz:6715.got - 2010.05.20 12:54:53.
