data_PCOD9569104
_publ_section_title
;
Structure prediction by ZEFSAII (Michael W. Deem and Ramdas Pophale) SiO2 
 PCOD9569104
Probable space group: P 42/M N M
;
_chemical_formula_sum "Si O2"
_cell_formula_units_Z 104
_cell_length_a 26.939932
_cell_length_b 26.939932
_cell_length_c 8.997937
_cell_angle_alpha 90.000000
_cell_angle_beta 90.000000
_cell_angle_gamma 90.000000
_cell_volume 6530.342183
_symmetry_space_group_name_H-M "P 42/M N M"
_symmetry_group_IT_number 136
_symmetry_cell_setting 'tetragonal'
loop_
_space_group_symop_operation_xyz
x,y,z
1/2-y,1/2+x,1/2+z
-x,-y,z
1/2+y,1/2-x,1/2+z
1/2+x,1/2-y,1/2-z
1/2-x,1/2+y,1/2-z
y,x,-z
-y,-x,-z
-x,-y,-z
1/2+y,1/2-x,1/2-z
x,y,-z
1/2-y,1/2+x,1/2-z
1/2-x,1/2+y,1/2+z
1/2+x,1/2-y,1/2+z
-y,-x,z
y,x,z
loop_
_atom_site_type_symbol
_atom_site_label
_atom_site_fract_x
_atom_site_fract_y
_atom_site_fract_z
Si Si1 0.352089 0.647912 0.660774
Si Si2 0.458394 0.541607 0.823386
Si Si3 0.598568 0.108554 0.322013
Si Si4 0.283531 0.716470 0.174779
Si Si5 0.529912 0.353247 0.669499
Si Si6 0.139304 0.293877 0.679952
Si Si7 0.498017 0.144010 0.178520
Si Si8 0.247336 0.032478 0.677517
O O1 0.333147 0.666854 0.500000
O O2 0.325228 0.674773 0.794807
O O3 0.410726 0.654798 0.665572
O O4 0.500000 0.500000 0.796129
O O5 0.475527 0.594344 0.753802
O O6 0.451904 0.548097 0.000000
O O7 0.597981 0.113277 0.500000
O O8 0.631009 0.152764 0.251793
O O9 0.543327 0.116372 0.258451
O O10 0.620752 0.054903 0.283255
O O11 0.234062 0.689299 0.232110
O O12 0.276212 0.723789 0.000000
O O13 0.511983 0.357680 0.500000
O O14 0.512323 0.302562 0.746806
O O15 0.139984 0.297912 0.500000
O O16 0.089808 0.261566 0.717341
O O17 0.502306 0.202583 0.215240
O O18 0.505383 0.140154 0.000000
O O19 0.240122 0.031519 0.500000
#
# Coordination Sequence:
#
# PCOD9569104 Si02
#       8
#     8   8  16   8  16  16  16  16
#     4   9  17  25  36  62  99 126 147 185 225 271
#     4  10  21  35  50  69  95 133 175 205 239 295
#     4  10  20  34  52  73  97 130 167 209 254 299
#     4  10  17  27  44  66  94 131 159 180 223 280
#     4  10  19  29  44  70 100 126 156 198 244 285
#     4   9  18  30  46  70 101 131 160 194 236 287
#     4   9  20  36  51  71 100 130 165 206 253 303
#     4   9  16  29  48  68  93 127 160 195 234 289
#
# _framework density 15.925658
#
# number of rings (size 3 to 8) (size 9 to 14) (size 15 to 20)
#    0.000    2.538    1.538    2.538    0.000    6.462 
#    0.000    1.538    0.000    0.000    2.000    0.000 
#    0.000    0.000    0.000    0.000    0.000    0.000 
#
# Total GULP energy -579065.178085 kJ/mol
# GULP energy per Si atom -5567.934405 kJ/mol
# Density = 1.588941 g / cm^3
# Si number density = 15.925658 Si / 1000 Ang^3
#
#
#
# Elastic Constant Matrix: (Units=GPa)
#
#
# Indices 1 2 3 4 5 6 
#
# 1 105.7726 73.1138 48.4294 0.0000 0.0000 0.0000
# 2 73.1138 105.7728 48.4292 0.0000 0.0000 0.0000
# 3 48.4294 48.4292 43.2442 0.0000 0.0000 0.0000
# 4 0.0000 0.0000 0.0000 16.6724 0.0000 0.0000
# 5 0.0000 0.0000 0.0000 0.0000 16.6725 0.0000
# 6 0.0000 0.0000 0.0000 0.0000 0.0000 23.4784
#
#
#
# Elastic Compliance Matrix: (Units=1/GPa)
#
#
# Indices 1 2 3 4 5 6 
#
# 1 0.022411 -0.008209 -0.015905 0.000000 0.000000 0.000000
# 2 -0.008209 0.022410 -0.015904 0.000000 0.000000 0.000000
# 3 -0.015905 -0.015904 0.058747 0.000000 0.000000 0.000000
# 4 0.000000 0.000000 0.000000 0.059979 0.000000 0.000000
# 5 0.000000 0.000000 0.000000 0.000000 0.059979 0.000000
# 6 0.000000 0.000000 0.000000 0.000000 0.000000 0.042592
#
#
# Mechanical properties :
#
#
# Convention : Reuss Voigt Hill
#
# Bulk Modulus (GPa) = 42.49382 66.08160 54.28771
# Shear Modulus (GPa) = 14.12432 17.01914 15.57173
#
# Velocity S-wave (km/s) = 2.98130 3.27259 3.13033
# Velocity P-wave (km/s) = 6.21220 7.47420 6.87223
#
# Compressibility (1/GPa) = 0.02353283
#
# Stress axis : x y z
#
# Youngs Moduli (GPa) = 44.62142 44.62206 17.02203
#
# Poissons Ratio (x) = 0.36630 0.27073
# Poissons Ratio (y) = 0.36629 0.27072
# Poissons Ratio (z) = 0.70969 0.70968
#
# Static dielectric constant tensor:
#      x y z
#    x 1.534890 0.000000 0.000000 
#    y 0.000000 1.534890 0.000000 
#    z 0.000000 0.000000 1.555110 
# 
# From -- ./inp_files/2272.got.cif
#   From: 2010.05.17/outbox.cif.g08.bks.cpg/sg136_2_cif.got.tgz:2272.got - 2010.05.20 12:54:53.
