data_PCOD9569989
_publ_section_title
;
Structure prediction by ZEFSAII (Michael W. Deem and Ramdas Pophale) SiO2 
 PCOD9569989
Probable space group: P 42/N M C
;
_chemical_formula_sum "Si O2"
_cell_formula_units_Z 80
_cell_length_a 13.112600
_cell_length_b 13.112600
_cell_length_c 28.184362
_cell_angle_alpha 90.000000
_cell_angle_beta 90.000000
_cell_angle_gamma 90.000000
_cell_volume 4846.027059
_symmetry_space_group_name_H-M "P 42/N M C"
_symmetry_group_IT_number 137
_space_group.IT_coordinate_system_code '2'
_symmetry_cell_setting 'tetragonal'
loop_
_space_group_symop_operation_xyz
x,y,z
1/2-y,x,1/2+z
1/2-x,1/2-y,z
y,1/2-x,1/2+z
1/2+x,-y,-z
-x,1/2+y,-z
1/2+y,1/2+x,1/2-z
-y,-x,1/2-z
-x,-y,-z
1/2+y,-x,1/2-z
1/2+x,1/2+y,-z
-y,1/2+x,1/2-z
1/2-x,y,z
x,1/2-y,z
1/2-y,1/2-x,1/2+z
y,x,1/2+z
loop_
_atom_site_type_symbol
_atom_site_label
_atom_site_fract_x
_atom_site_fract_y
_atom_site_fract_z
Si Si1 0.250000 0.125288 0.633063
Si Si2 0.866812 0.473269 0.611932
Si Si3 0.371358 0.475657 0.277229
Si Si4 0.750000 0.626617 0.257584
Si Si5 0.370861 0.058713 0.071606
Si Si6 0.129428 0.367474 0.471289
O O1 0.250000 0.250000 0.633497
O O2 0.250000 0.092841 0.687624
O O3 0.149752 0.089989 0.605039
O O4 0.750000 0.437636 0.605764
O O5 0.879798 0.504539 0.666545
O O6 0.883164 0.567751 0.576149
O O7 0.951394 0.393751 0.595547
O O8 0.443294 0.556707 0.250000
O O9 0.250000 0.487798 0.264342
O O10 0.402518 0.358552 0.265634
O O11 0.750000 0.750000 0.256407
O O12 0.250000 0.073737 0.067999
O O13 0.408479 0.071433 0.017671
O O14 0.250000 0.369093 0.483691
O O15 0.100462 0.250000 0.462556
#
# Coordination Sequence:
#
# PCOD9569989 Si02
#       6
#     8  16  16   8  16  16
#     4   9  16  28  50  74  92 124 168 214 254 282
#     4  10  21  32  48  74 103 136 167 200 253 311
#     4  10  21  36  53  77 107 139 176 216 264 314
#     4   9  18  32  52  73 101 133 177 224 253 296
#     4  10  18  31  50  73 103 130 166 208 251 303
#     4   9  17  31  51  74 100 130 165 210 254 296
#
# _framework density 16.508368000000001
#
# number of rings (size 3 to 8) (size 9 to 14) (size 15 to 20)
#    0.000    2.400    1.000    1.800    1.400    3.000 
#    0.000    2.000    0.000    0.300    0.000    0.000 
#    0.000    0.000    0.000    0.000    0.000    0.000 
#
# Total GULP energy -445595.043160 kJ/mol
# GULP energy per Si atom -5569.938040 kJ/mol
# Density = 1.647079 g / cm^3
# Si number density = 16.508368 Si / 1000 Ang^3
#
#
#
# Elastic Constant Matrix: (Units=GPa)
#
#
# Indices 1 2 3 4 5 6 
#
# 1 51.0136 20.1019 34.4845 0.0000 0.0000 0.0000
# 2 20.1019 51.0129 34.4855 0.0000 0.0000 0.0000
# 3 34.4845 34.4855 105.4204 0.0000 0.0000 0.0000
# 4 0.0000 0.0000 0.0000 21.0275 0.0000 0.0000
# 5 0.0000 0.0000 0.0000 0.0000 21.0276 0.0000
# 6 0.0000 0.0000 0.0000 0.0000 0.0000 21.3516
#
#
#
# Elastic Compliance Matrix: (Units=1/GPa)
#
#
# Indices 1 2 3 4 5 6 
#
# 1 0.026473 -0.005877 -0.006737 0.000000 0.000000 0.000000
# 2 -0.005877 0.026474 -0.006738 0.000000 0.000000 0.000000
# 3 -0.006737 -0.006738 0.013894 0.000000 0.000000 0.000000
# 4 0.000000 0.000000 0.000000 0.047557 0.000000 0.000000
# 5 0.000000 0.000000 0.000000 0.000000 0.047557 0.000000
# 6 0.000000 0.000000 0.000000 0.000000 0.000000 0.046835
#
#
# Mechanical properties :
#
#
# Convention : Reuss Voigt Hill
#
# Bulk Modulus (GPa) = 35.54159 42.84342 39.19251
# Shear Modulus (GPa) = 19.46506 20.57301 20.01903
#
# Velocity S-wave (km/s) = 3.43753 3.53401 3.48610
# Velocity P-wave (km/s) = 6.10996 6.53155 6.32427
#
# Compressibility (1/GPa) = 0.02813605
#
# Stress axis : x y z
#
# Youngs Moduli (GPa) = 37.77482 37.77345 71.97555
#
# Poissons Ratio (x) = 0.22201 0.48490
# Poissons Ratio (y) = 0.22202 0.48494
# Poissons Ratio (z) = 0.25449 0.25450
#
# Static dielectric constant tensor:
#      x y z
#    x 1.553430 0.000000 0.000000 
#    y 0.000000 1.553430 0.000000 
#    z 0.000000 0.000000 1.559950 
# 
# From -- ./inp_files/10347.got.cif
#   From: 2010.05.17/outbox.cif.g08.bks.cpg/sg137_6_cif.got.tgz:10347.got - 2010.05.20 13:01:12.
