data_PCOD9569724
_publ_section_title
;
Structure prediction by ZEFSAII (Michael W. Deem and Ramdas Pophale) SiO2 
 PCOD9569724
Probable space group: P 42/M N M
;
_chemical_formula_sum "Si O2"
_cell_formula_units_Z 84
_cell_length_a 12.361321
_cell_length_b 12.361321
_cell_length_c 27.104159
_cell_angle_alpha 90.000000
_cell_angle_beta 90.000000
_cell_angle_gamma 90.000000
_cell_volume 4141.576666
_symmetry_space_group_name_H-M "P 42/M N M"
_symmetry_group_IT_number 136
_symmetry_cell_setting 'tetragonal'
loop_
_space_group_symop_operation_xyz
x,y,z
1/2-y,1/2+x,1/2+z
-x,-y,z
1/2+y,1/2-x,1/2+z
1/2+x,1/2-y,1/2-z
1/2-x,1/2+y,1/2-z
y,x,-z
-y,-x,-z
-x,-y,-z
1/2+y,1/2-x,1/2-z
x,y,-z
1/2-y,1/2+x,1/2-z
1/2-x,1/2+y,1/2+z
1/2+x,1/2-y,1/2+z
-y,-x,z
y,x,z
loop_
_atom_site_type_symbol
_atom_site_label
_atom_site_fract_x
_atom_site_fract_y
_atom_site_fract_z
Si Si1 0.822313 0.004819 0.616842
Si Si2 0.073328 0.743943 0.810385
Si Si3 0.357709 0.642292 0.500000
Si Si4 0.248526 0.570715 0.784287
Si Si5 0.888134 0.450191 0.056961
Si Si6 0.216043 0.964687 0.077645
O O1 0.898376 0.898376 0.611829
O O2 0.790462 0.011589 0.674237
O O3 0.715124 0.991516 0.585717
O O4 0.893790 0.106211 0.601373
O O5 0.153041 0.846960 0.801082
O O6 0.150629 0.638587 0.808630
O O7 0.019707 0.764929 0.863708
O O8 0.988830 0.726588 0.766647
O O9 0.430996 0.702789 0.543516
O O10 0.342944 0.657057 0.775129
O O11 0.897658 0.321003 0.060782
O O12 0.000000 0.500000 0.076931
O O13 0.879032 0.482907 0.000000
O O14 0.108514 0.891486 0.071064
#
# Coordination Sequence:
#
# PCOD9569724 Si02
#       6
#    16  16   4  16  16  16
#     4  10  21  41  69  95 124 168 224 281 336 398
#     4  10  22  38  61  91 125 165 212 266 327 392
#     4  12  25  40  70 104 128 174 233 274 339 408
#     4  10  21  39  60  89 126 168 213 266 332 397
#     4  11  24  42  62  93 130 171 213 264 342 405
#     4  11  22  41  65  93 128 167 219 276 327 399
#
# _framework density 20.282133000000002
#
# number of rings (size 3 to 8) (size 9 to 14) (size 15 to 20)
#    0.000    1.524    2.857    2.000    1.333    4.571 
#    1.714    0.952    0.000    0.000    0.000    0.000 
#    0.000    0.000    0.000    0.000    0.000    0.000 
#
# Total GULP energy -468245.376970 kJ/mol
# GULP energy per Si atom -5574.349726 kJ/mol
# Density = 2.023597 g / cm^3
# Si number density = 20.282133 Si / 1000 Ang^3
#
#
#
# Elastic Constant Matrix: (Units=GPa)
#
#
# Indices 1 2 3 4 5 6 
#
# 1 71.8596 25.0854 45.1072 0.0000 0.0000 0.0000
# 2 25.0854 71.8591 45.1069 0.0000 0.0000 0.0000
# 3 45.1072 45.1069 113.1834 0.0000 0.0000 0.0000
# 4 0.0000 0.0000 0.0000 29.0304 0.0000 0.0000
# 5 0.0000 0.0000 0.0000 0.0000 29.0303 0.0000
# 6 0.0000 0.0000 0.0000 0.0000 0.0000 8.9927
#
#
#
# Elastic Compliance Matrix: (Units=1/GPa)
#
#
# Indices 1 2 3 4 5 6 
#
# 1 0.018887 -0.002492 -0.006534 0.000000 0.000000 0.000000
# 2 -0.002492 0.018888 -0.006534 0.000000 0.000000 0.000000
# 3 -0.006534 -0.006534 0.014043 0.000000 0.000000 0.000000
# 4 0.000000 0.000000 0.000000 0.034447 0.000000 0.000000
# 5 0.000000 0.000000 0.000000 0.000000 0.034447 0.000000
# 6 0.000000 0.000000 0.000000 0.000000 0.000000 0.111201
#
#
# Mechanical properties :
#
#
# Convention : Reuss Voigt Hill
#
# Bulk Modulus (GPa) = 48.31387 54.16679 51.24033
# Shear Modulus (GPa) = 18.52315 22.85087 20.68701
#
# Velocity S-wave (km/s) = 3.02532 3.36020 3.19715
# Velocity P-wave (km/s) = 6.00633 6.46678 6.24080
#
# Compressibility (1/GPa) = 0.02069799
#
# Stress axis : x y z
#
# Youngs Moduli (GPa) = 52.94508 52.94483 71.20813
#
# Poissons Ratio (x) = 0.13193 0.46529
# Poissons Ratio (y) = 0.13193 0.46528
# Poissons Ratio (z) = 0.34595 0.34595
#
# Static dielectric constant tensor:
#      x y z
#    x 1.731030 0.000000 0.000000 
#    y 0.000000 1.731030 0.000000 
#    z 0.000000 0.000000 1.714410 
# 
# From -- ./inp_files/9758.got.cif
#   From: 2010.05.17/outbox.cif.g08.bks.cpg/sg136_5_cif.got.tgz:9758.got - 2010.05.20 12:54:53.
