data_PCOD9569732
_publ_section_title
;
Structure prediction by ZEFSAII (Michael W. Deem and Ramdas Pophale) SiO2 
 PCOD9569732
Probable space group: P 42/M N M
;
_chemical_formula_sum "Si O2"
_cell_formula_units_Z 88
_cell_length_a 18.397023
_cell_length_b 18.397023
_cell_length_c 13.565677
_cell_angle_alpha 90.000000
_cell_angle_beta 90.000000
_cell_angle_gamma 90.000000
_cell_volume 4591.309557
_symmetry_space_group_name_H-M "P 42/M N M"
_symmetry_group_IT_number 136
_symmetry_cell_setting 'tetragonal'
loop_
_space_group_symop_operation_xyz
x,y,z
1/2-y,1/2+x,1/2+z
-x,-y,z
1/2+y,1/2-x,1/2+z
1/2+x,1/2-y,1/2-z
1/2-x,1/2+y,1/2-z
y,x,-z
-y,-x,-z
-x,-y,-z
1/2+y,1/2-x,1/2-z
x,y,-z
1/2-y,1/2+x,1/2-z
1/2-x,1/2+y,1/2+z
1/2+x,1/2-y,1/2+z
-y,-x,z
y,x,z
loop_
_atom_site_type_symbol
_atom_site_label
_atom_site_fract_x
_atom_site_fract_y
_atom_site_fract_z
Si Si1 0.181073 0.073068 0.500000
Si Si2 0.077357 0.351305 0.500000
Si Si3 0.888842 0.484298 0.213320
Si Si4 0.631317 0.754662 0.000000
Si Si5 0.500220 0.742453 0.338056
Si Si6 0.335820 0.457335 0.152687
Si Si7 0.750701 0.874896 0.000000
Si Si8 0.125274 0.749220 0.000000
O O1 0.155480 0.155480 0.500000
O O2 0.266274 0.061958 0.500000
O O3 0.150277 0.029812 0.407836
O O4 0.044107 0.384195 0.600805
O O5 0.164630 0.353327 0.500000
O O6 0.928971 0.561382 0.223639
O O7 0.811929 0.491006 0.266847
O O8 0.583386 0.732560 0.096431
O O9 0.672258 0.832512 0.000000
O O10 0.696849 0.696849 0.000000
O O11 0.517314 0.678291 0.262794
O O12 0.428651 0.740264 0.406381
O O13 0.571389 0.744233 0.406767
O O14 0.401001 0.401001 0.144683
O O15 0.813455 0.813455 0.000000
O O16 0.191379 0.808622 0.000000
#
# Coordination Sequence:
#
# PCOD9569732 Si02
#       8
#     8   8  16   8  16  16   8   8
#     4  11  23  38  60  91 126 161 207 268 327 385
#     4  12  23  43  66  96 136 168 217 268 314 390
#     4  11  25  42  66 100 134 173 210 254 324 392
#     4   8  18  37  62  90 116 152 202 255 313 373
#     4  11  23  41  63  93 127 167 219 265 316 386
#     4  10  21  39  64  91 120 161 212 265 320 383
#     4  10  24  41  62  91 127 171 215 267 321 381
#     4  11  24  43  67  92 125 172 223 268 324 378
#
# _framework density 19.166646
#
# number of rings (size 3 to 8) (size 9 to 14) (size 15 to 20)
#    0.000    1.455    3.636    1.636    2.545    4.364 
#    0.000    0.000    0.000    9.273    0.000    0.000 
#    0.000    0.000    0.000    0.000    0.000    0.000 
#
# Total GULP energy -490671.213780 kJ/mol
# GULP energy per Si atom -5575.809247 kJ/mol
# Density = 1.912302 g / cm^3
# Si number density = 19.166646 Si / 1000 Ang^3
#
#
#
# Elastic Constant Matrix: (Units=GPa)
#
#
# Indices 1 2 3 4 5 6 
#
# 1 78.6214 28.0674 34.7463 0.0000 0.0000 0.0000
# 2 28.0674 78.6230 34.7452 0.0000 0.0000 0.0000
# 3 34.7463 34.7452 124.2282 0.0000 0.0000 0.0000
# 4 0.0000 0.0000 0.0000 9.2024 0.0000 0.0000
# 5 0.0000 0.0000 0.0000 0.0000 9.2015 0.0000
# 6 0.0000 0.0000 0.0000 0.0000 0.0000 28.3035
#
#
#
# Elastic Compliance Matrix: (Units=1/GPa)
#
#
# Indices 1 2 3 4 5 6 
#
# 1 0.015621 -0.004160 -0.003206 0.000000 0.000000 0.000000
# 2 -0.004160 0.015620 -0.003205 0.000000 0.000000 0.000000
# 3 -0.003206 -0.003205 0.009843 0.000000 0.000000 0.000000
# 4 0.000000 0.000000 0.000000 0.108667 0.000000 0.000000
# 5 0.000000 0.000000 0.000000 0.000000 0.108678 0.000000
# 6 0.000000 0.000000 0.000000 0.000000 0.000000 0.035331
#
#
# Mechanical properties :
#
#
# Convention : Reuss Voigt Hill
#
# Bulk Modulus (GPa) = 50.14421 52.95449 51.54935
# Shear Modulus (GPa) = 15.54966 21.60239 18.57603
#
# Velocity S-wave (km/s) = 2.85140 3.36085 3.11655
# Velocity P-wave (km/s) = 6.08767 6.53826 6.31698
#
# Compressibility (1/GPa) = 0.01994248
#
# Stress axis : x y z
#
# Youngs Moduli (GPa) = 64.01660 64.01860 101.59684
#
# Poissons Ratio (x) = 0.26631 0.32569
# Poissons Ratio (y) = 0.26630 0.32566
# Poissons Ratio (z) = 0.20522 0.20520
#
# Static dielectric constant tensor:
#      x y z
#    x 1.679470 0.000000 0.000000 
#    y 0.000000 1.679470 0.000000 
#    z 0.000000 0.000000 1.656590 
# 
# From -- ./inp_files/5121.got.cif
#   From: 2010.05.17/outbox.cif.g08.bks.cpg/sg136_3_cif.got.tgz:5121.got - 2010.05.20 12:54:53.
