data_PCOD9569777
_publ_section_title
;
Structure prediction by ZEFSAII (Michael W. Deem and Ramdas Pophale) SiO2 
 PCOD9569777
Probable space group: P 42/M N M
;
_chemical_formula_sum "Si O2"
_cell_formula_units_Z 52
_cell_length_a 11.959998
_cell_length_b 11.959998
_cell_length_c 19.382158
_cell_angle_alpha 90.000000
_cell_angle_beta 90.000000
_cell_angle_gamma 90.000000
_cell_volume 2772.453965
_symmetry_space_group_name_H-M "P 42/M N M"
_symmetry_group_IT_number 136
_symmetry_cell_setting 'tetragonal'
loop_
_space_group_symop_operation_xyz
x,y,z
1/2-y,1/2+x,1/2+z
-x,-y,z
1/2+y,1/2-x,1/2+z
1/2+x,1/2-y,1/2-z
1/2-x,1/2+y,1/2-z
y,x,-z
-y,-x,-z
-x,-y,-z
1/2+y,1/2-x,1/2-z
x,y,-z
1/2-y,1/2+x,1/2-z
1/2-x,1/2+y,1/2+z
1/2+x,1/2-y,1/2+z
-y,-x,z
y,x,z
loop_
_atom_site_type_symbol
_atom_site_label
_atom_site_fract_x
_atom_site_fract_y
_atom_site_fract_z
Si Si1 0.246767 0.064838 0.722550
Si Si2 0.629132 0.039190 0.851672
Si Si3 0.963811 0.632918 0.000000
Si Si4 0.199023 0.800978 0.500000
Si Si5 0.404459 0.404459 0.137965
O O1 0.146622 0.146622 0.740914
O O2 0.332429 0.125950 0.671188
O O3 0.308831 0.027503 0.791521
O O4 0.194143 0.960325 0.682138
O O5 0.500000 0.000000 0.850416
O O6 0.675487 0.014853 0.927783
O O7 0.000000 0.500000 0.000000
O O8 0.831470 0.664914 0.000000
O O9 0.143686 0.856315 0.567375
O O10 0.500000 0.500000 0.126325
#
# Coordination Sequence:
#
# PCOD9569777 Si02
#       5
#    16  16   8   4   8
#     4  11  23  37  65  89 121 165 204 259 310 369
#     4  11  21  39  58  87 122 154 209 257 300 372
#     4  10  24  37  56  91 121 158 211 257 307 384
#     4  12  23  36  72  84 127 168 192 270 332 359
#     4  10  23  40  56  95 124 155 207 254 315 376
#
# _framework density 18.755948
#
# number of rings (size 3 to 8) (size 9 to 14) (size 15 to 20)
#    0.000    1.231    3.077    3.923    4.308    0.000 
#    0.000    2.308    0.000    0.000    0.000    4.308 
#    0.000    0.000    0.000    0.000    0.000    0.000 
#
# Total GULP energy -290331.802227 kJ/mol
# GULP energy per Si atom -5583.303889 kJ/mol
# Density = 1.871326 g / cm^3
# Si number density = 18.755948 Si / 1000 Ang^3
#
#
#
# Elastic Constant Matrix: (Units=GPa)
#
#
# Indices 1 2 3 4 5 6 
#
# 1 83.4784 19.7273 67.7558 0.0000 0.0000 0.0000
# 2 19.7273 83.4778 67.7558 0.0000 0.0000 0.0000
# 3 67.7558 67.7558 216.1863 0.0000 0.0000 0.0000
# 4 0.0000 0.0000 0.0000 4.1855 0.0000 0.0000
# 5 0.0000 0.0000 0.0000 0.0000 4.1856 0.0000
# 6 0.0000 0.0000 0.0000 0.0000 0.0000 28.8085
#
#
#
# Elastic Compliance Matrix: (Units=1/GPa)
#
#
# Indices 1 2 3 4 5 6 
#
# 1 0.016076 0.000390 -0.005160 0.000000 0.000000 0.000000
# 2 0.000390 0.016076 -0.005160 0.000000 0.000000 0.000000
# 3 -0.005160 -0.005160 0.007860 0.000000 0.000000 0.000000
# 4 0.000000 0.000000 0.000000 0.238922 0.000000 0.000000
# 5 0.000000 0.000000 0.000000 0.000000 0.238912 0.000000
# 6 0.000000 0.000000 0.000000 0.000000 0.000000 0.034712
#
#
# Mechanical properties :
#
#
# Convention : Reuss Voigt Hill
#
# Bulk Modulus (GPa) = 49.63013 77.06893 63.34953
# Shear Modulus (GPa) = 8.63355 22.62950 15.63153
#
# Velocity S-wave (km/s) = 2.14781 3.47727 2.89003
# Velocity P-wave (km/s) = 5.71570 7.56978 6.70711
#
# Compressibility (1/GPa) = 0.02014905
#
# Stress axis : x y z
#
# Youngs Moduli (GPa) = 62.20618 62.20565 127.22093
#
# Poissons Ratio (x) = -0.02423 0.65651
# Poissons Ratio (y) = -0.02423 0.65652
# Poissons Ratio (z) = 0.32101 0.32101
#
# Static dielectric constant tensor:
#      x y z
#    x 1.645190 0.000000 0.000000 
#    y 0.000000 1.645190 0.000000 
#    z 0.000000 0.000000 1.641690 
# 
# From -- ./inp_files/6969.got.cif
#   From: 2010.05.17/outbox.cif.g08.bks.cpg/sg136_4_cif.got.tgz:6969.got - 2010.05.20 12:54:53.
