data_PCOD9569662
_publ_section_title
;
Structure prediction by ZEFSAII (Michael W. Deem and Ramdas Pophale) SiO2 
 PCOD9569662
Probable space group: P 42/M N M
;
_chemical_formula_sum "Si O2"
_cell_formula_units_Z 72
_cell_length_a 21.502698
_cell_length_b 21.502698
_cell_length_c 9.125874
_cell_angle_alpha 90.000000
_cell_angle_beta 90.000000
_cell_angle_gamma 90.000000
_cell_volume 4219.494052
_symmetry_space_group_name_H-M "P 42/M N M"
_symmetry_group_IT_number 136
_symmetry_cell_setting 'tetragonal'
loop_
_space_group_symop_operation_xyz
x,y,z
1/2-y,1/2+x,1/2+z
-x,-y,z
1/2+y,1/2-x,1/2+z
1/2+x,1/2-y,1/2-z
1/2-x,1/2+y,1/2-z
y,x,-z
-y,-x,-z
-x,-y,-z
1/2+y,1/2-x,1/2-z
x,y,-z
1/2-y,1/2+x,1/2-z
1/2-x,1/2+y,1/2+z
1/2+x,1/2-y,1/2+z
-y,-x,z
y,x,z
loop_
_atom_site_type_symbol
_atom_site_label
_atom_site_fract_x
_atom_site_fract_y
_atom_site_fract_z
Si Si1 0.145558 0.397075 0.173508
Si Si2 0.730945 0.627445 0.329814
Si Si3 0.961258 0.681469 0.674999
Si Si4 0.690329 0.486808 0.674250
Si Si5 0.448766 0.551235 0.678665
O O1 0.210358 0.367078 0.224821
O O2 0.154125 0.470159 0.209800
O O3 0.090065 0.363651 0.257590
O O4 0.136612 0.391149 0.000000
O O5 0.752132 0.627909 0.500000
O O6 0.681912 0.681912 0.308916
O O7 0.697800 0.561041 0.305504
O O8 0.955421 0.685152 0.500000
O O9 0.957341 0.750732 0.743077
O O10 0.695928 0.473952 0.500000
O O11 0.621704 0.465768 0.722997
O O12 0.500000 0.500000 0.726931
O O13 0.449988 0.550013 0.500000
#
# Coordination Sequence:
#
# PCOD9569662 Si02
#       5
#    16  16  16  16   8
#     4  10  21  36  55  78 103 134 172 215 261 314
#     4   9  17  31  52  77 104 136 174 214 258 305
#     4  10  21  37  55  76 104 136 172 215 265 316
#     4   9  17  31  52  77 107 140 173 214 259 305
#     4   9  16  28  51  83 111 139 179 219 257 304
#
# _framework density 17.063656999999999
#
# number of rings (size 3 to 8) (size 9 to 14) (size 15 to 20)
#    0.000    2.556    0.000    2.000    0.000    6.222 
#    2.000    2.778    0.000    2.667    0.000    0.000 
#    0.000    0.000    0.000    0.000    0.000    0.000 
#
# Total GULP energy -401531.839449 kJ/mol
# GULP energy per Si atom -5576.831103 kJ/mol
# Density = 1.702482 g / cm^3
# Si number density = 17.063657 Si / 1000 Ang^3
#
#
#
# Elastic Constant Matrix: (Units=GPa)
#
#
# Indices 1 2 3 4 5 6 
#
# 1 100.1857 81.8879 52.7103 0.0000 0.0000 0.0000
# 2 81.8879 100.1857 52.7102 0.0000 0.0000 0.0000
# 3 52.7103 52.7102 42.9734 0.0000 0.0000 0.0000
# 4 0.0000 0.0000 0.0000 20.7598 0.0000 0.0000
# 5 0.0000 0.0000 0.0000 0.0000 20.7598 0.0000
# 6 0.0000 0.0000 0.0000 0.0000 0.0000 27.0792
#
#
#
# Elastic Compliance Matrix: (Units=1/GPa)
#
#
# Indices 1 2 3 4 5 6 
#
# 1 0.036801 -0.017850 -0.023245 0.000000 0.000000 0.000000
# 2 -0.017850 0.036801 -0.023245 0.000000 0.000000 0.000000
# 3 -0.023245 -0.023245 0.080295 0.000000 0.000000 0.000000
# 4 0.000000 0.000000 0.000000 0.048170 0.000000 0.000000
# 5 0.000000 0.000000 0.000000 0.000000 0.048170 0.000000
# 6 0.000000 0.000000 0.000000 0.000000 0.000000 0.036929
#
#
# Mechanical properties :
#
#
# Convention : Reuss Voigt Hill
#
# Bulk Modulus (GPa) = 39.65723 68.66239 54.15981
# Shear Modulus (GPa) = 11.78545 17.45552 14.62049
#
# Velocity S-wave (km/s) = 2.63092 3.20185 2.93032
# Velocity P-wave (km/s) = 5.70265 7.34816 6.57707
#
# Compressibility (1/GPa) = 0.02521608
#
# Stress axis : x y z
#
# Youngs Moduli (GPa) = 27.17294 27.17307 12.45415
#
# Poissons Ratio (x) = 0.48504 0.28950
# Poissons Ratio (y) = 0.48504 0.28950
# Poissons Ratio (z) = 0.63165 0.63164
#
# Static dielectric constant tensor:
#      x y z
#    x 1.558910 0.000000 0.000000 
#    y 0.000000 1.558910 0.000000 
#    z 0.000000 0.000000 1.572380 
# 
# From -- ./inp_files/1531.got.cif
#   From: 2010.05.17/outbox.cif.g08.bks.cpg/sg136_1_cif.got.tgz:1531.got - 2010.05.20 12:54:53.
