data_PCOD9569495
_publ_section_title
;
Structure prediction by ZEFSAII (Michael W. Deem and Ramdas Pophale) SiO2 
 PCOD9569495
Probable space group: P 42/M N M
;
_chemical_formula_sum "Si O2"
_cell_formula_units_Z 72
_cell_length_a 17.341743
_cell_length_b 17.341743
_cell_length_c 13.858375
_cell_angle_alpha 90.000000
_cell_angle_beta 90.000000
_cell_angle_gamma 90.000000
_cell_volume 4167.712961
_symmetry_space_group_name_H-M "P 42/M N M"
_symmetry_group_IT_number 136
_symmetry_cell_setting 'tetragonal'
loop_
_space_group_symop_operation_xyz
x,y,z
1/2-y,1/2+x,1/2+z
-x,-y,z
1/2+y,1/2-x,1/2+z
1/2+x,1/2-y,1/2-z
1/2-x,1/2+y,1/2-z
y,x,-z
-y,-x,-z
-x,-y,-z
1/2+y,1/2-x,1/2-z
x,y,-z
1/2-y,1/2+x,1/2-z
1/2-x,1/2+y,1/2+z
1/2+x,1/2-y,1/2+z
-y,-x,z
y,x,z
loop_
_atom_site_type_symbol
_atom_site_label
_atom_site_fract_x
_atom_site_fract_y
_atom_site_fract_z
Si Si1 0.871943 0.995777 0.000000
Si Si2 0.694503 0.568338 0.686428
Si Si3 0.318158 0.805635 0.115059
Si Si4 0.014216 0.316171 0.708654
Si Si5 0.576832 0.947490 0.111055
O O1 0.824229 0.013616 0.904119
O O2 0.939256 0.060745 0.000000
O O3 0.913636 0.913636 0.000000
O O4 0.618778 0.618778 0.709917
O O5 0.760181 0.629201 0.654325
O O6 0.731597 0.518369 0.770704
O O7 0.275774 0.724227 0.135464
O O8 0.401914 0.814023 0.160857
O O9 0.323484 0.814760 0.000000
O O10 0.022872 0.361657 0.810843
O O11 0.954073 0.364042 0.643834
O O12 0.500000 0.000000 0.117855
O O13 0.603919 0.949330 0.000000
#
# Coordination Sequence:
#
# PCOD9569495 Si02
#       5
#     8  16  16  16  16
#     4   9  18  34  56  82 109 142 185 227 275 330
#     4  10  20  34  55  79 110 147 183 227 277 329
#     4  10  20  36  59  83 108 146 194 236 274 325
#     4  12  20  35  55  80 111 146 184 226 281 336
#     4  11  21  33  51  81 113 141 178 226 278 333
#
# _framework density 17.275663000000002
#
# number of rings (size 3 to 8) (size 9 to 14) (size 15 to 20)
#    0.000    1.444    5.556    0.667    1.556    2.667 
#    0.000    0.000    0.000    4.000    0.000    1.556 
#    0.000    0.000    0.000    0.000    0.000    0.000 
#
# Total GULP energy -401952.195265 kJ/mol
# GULP energy per Si atom -5582.669379 kJ/mol
# Density = 1.723634 g / cm^3
# Si number density = 17.275663 Si / 1000 Ang^3
#
#
#
# Elastic Constant Matrix: (Units=GPa)
#
#
# Indices 1 2 3 4 5 6 
#
# 1 42.7563 13.4242 -0.4961 0.0000 0.0000 0.0000
# 2 13.4242 42.7566 -0.4961 0.0000 0.0000 0.0000
# 3 -0.4961 -0.4961 35.5889 0.0000 0.0000 0.0000
# 4 0.0000 0.0000 0.0000 22.2153 0.0000 0.0000
# 5 0.0000 0.0000 0.0000 0.0000 22.2150 0.0000
# 6 0.0000 0.0000 0.0000 0.0000 0.0000 26.7179
#
#
#
# Elastic Compliance Matrix: (Units=1/GPa)
#
#
# Indices 1 2 3 4 5 6 
#
# 1 0.025948 -0.008144 0.000248 0.000000 0.000000 0.000000
# 2 -0.008144 0.025948 0.000248 0.000000 0.000000 0.000000
# 3 0.000248 0.000248 0.028106 0.000000 0.000000 0.000000
# 4 0.000000 0.000000 0.000000 0.045014 0.000000 0.000000
# 5 0.000000 0.000000 0.000000 0.000000 0.045015 0.000000
# 6 0.000000 0.000000 0.000000 0.000000 0.000000 0.037428
#
#
# Mechanical properties :
#
#
# Convention : Reuss Voigt Hill
#
# Bulk Modulus (GPa) = 15.45442 16.21844 15.83643
# Shear Modulus (GPa) = 20.46472 21.47428 20.96950
#
# Velocity S-wave (km/s) = 3.44553 3.52950 3.48777
# Velocity P-wave (km/s) = 4.97937 5.10080 5.04045
#
# Compressibility (1/GPa) = 0.06470642
#
# Stress axis : x y z
#
# Youngs Moduli (GPa) = 38.53830 38.53855 35.58016
#
# Poissons Ratio (x) = 0.31386 -0.00883
# Poissons Ratio (y) = 0.31386 -0.00883
# Poissons Ratio (z) = -0.00956 -0.00956
#
# Static dielectric constant tensor:
#      x y z
#    x 1.599100 0.000000 0.000000 
#    y 0.000000 1.599100 0.000000 
#    z 0.000000 0.000000 1.577580 
# 
# From -- ./inp_files/3427.got.cif
#   From: 2010.05.17/outbox.cif.g08.bks.cpg/sg136_2_cif.got.tgz:3427.got - 2010.05.20 12:54:53.
