data_PCOD9569006
_publ_section_title
;
Structure prediction by ZEFSAII (Michael W. Deem and Ramdas Pophale) SiO2 
 PCOD9569006
Probable space group: P 42/M B C
;
_chemical_formula_sum "Si O2"
_cell_formula_units_Z 48
_cell_length_a 13.030395
_cell_length_b 13.030395
_cell_length_c 13.866308
_cell_angle_alpha 90.000000
_cell_angle_beta 90.000000
_cell_angle_gamma 90.000000
_cell_volume 2354.376990
_symmetry_space_group_name_H-M "P 42/M B C"
_symmetry_group_IT_number 135
_symmetry_cell_setting 'tetragonal'
loop_
_space_group_symop_operation_xyz
x,y,z
-y,x,1/2+z
-x,-y,z
y,-x,1/2+z
1/2+x,1/2-y,-z
1/2-x,1/2+y,-z
1/2+y,1/2+x,1/2-z
1/2-y,1/2-x,1/2-z
-x,-y,-z
y,-x,1/2-z
x,y,-z
-y,x,1/2-z
1/2-x,1/2+y,z
1/2+x,1/2-y,z
1/2-y,1/2-x,1/2+z
1/2+y,1/2+x,1/2+z
loop_
_atom_site_type_symbol
_atom_site_label
_atom_site_fract_x
_atom_site_fract_y
_atom_site_fract_z
Si Si1 0.207285 0.937042 0.609162
Si Si2 0.755819 0.911524 0.784951
Si Si3 0.099162 0.439385 0.862469
O O1 0.173925 0.964248 0.500000
O O2 0.139836 0.849373 0.659252
O O3 0.324138 0.894725 0.600733
O O4 0.210920 0.029236 0.687200
O O5 0.673050 0.826951 0.750000
O O6 0.698998 0.989511 0.859043
O O7 0.077035 0.422966 0.750000
O O8 0.000000 0.500000 0.900407
#
# Coordination Sequence:
#
# PCOD9569006 Si02
#       3
#    16  16  16
#     4  11  25  41  66 100 128 172 228 271 324 392
#     4  11  21  43  67  93 138 175 211 269 333 384
#     4   9  16  38  67  92 125 169 210 261 321 378
#
# _framework density 20.387560000000001
#
# number of rings (size 3 to 8) (size 9 to 14) (size 15 to 20)
#    0.000    1.667    6.667    3.000    0.000    4.000 
#    0.000    3.333    0.000    0.000    0.000    0.000 
#    0.000    0.000    0.000    0.000    0.000    0.000 
#
# Total GULP energy -267673.578618 kJ/mol
# GULP energy per Si atom -5576.532888 kJ/mol
# Density = 2.034116 g / cm^3
# Si number density = 20.387560 Si / 1000 Ang^3
#
#
#
# Elastic Constant Matrix: (Units=GPa)
#
#
# Indices 1 2 3 4 5 6 
#
# 1 95.0581 87.0446 62.2500 0.0000 0.0000 0.0000
# 2 87.0446 95.0582 62.2512 0.0000 0.0000 0.0000
# 3 62.2500 62.2512 163.4012 0.0000 0.0000 0.0000
# 4 0.0000 0.0000 0.0000 0.3399 0.0000 0.0000
# 5 0.0000 0.0000 0.0000 0.0000 0.3340 0.0000
# 6 0.0000 0.0000 0.0000 0.0000 0.0000 59.1672
#
#
#
# Elastic Compliance Matrix: (Units=1/GPa)
#
#
# Indices 1 2 3 4 5 6 
#
# 1 0.066107 -0.058681 -0.002828 0.000000 0.000000 0.000000
# 2 -0.058681 0.066107 -0.002829 0.000000 0.000000 0.000000
# 3 -0.002828 -0.002829 0.008275 0.000000 0.000000 0.000000
# 4 0.000000 0.000000 0.000000 2.942017 0.000000 0.000000
# 5 0.000000 0.000000 0.000000 0.000000 2.993857 0.000000
# 6 0.000000 0.000000 0.000000 0.000000 0.000000 0.016901
#
#
# Mechanical properties :
#
#
# Convention : Reuss Voigt Hill
#
# Bulk Modulus (GPa) = 84.66831 86.28988 85.47909
# Shear Modulus (GPa) = 0.80310 21.43301 11.11806
#
# Velocity S-wave (km/s) = 0.62831 3.24586 2.33777
# Velocity P-wave (km/s) = 6.49199 7.51426 7.02175
#
# Compressibility (1/GPa) = 0.01181079
#
# Stress axis : x y z
#
# Youngs Moduli (GPa) = 15.12710 15.12692 120.84131
#
# Poissons Ratio (x) = 0.88767 0.34177
# Poissons Ratio (y) = 0.88768 0.34192
# Poissons Ratio (z) = 0.04278 0.04280
#
# Static dielectric constant tensor:
#      x y z
#    x 1.752700 0.000000 0.000000 
#    y 0.000000 1.752690 0.000000 
#    z 0.000000 0.000000 1.839580 
# 
# From -- ./inp_files/2959.got.cif
#   From: 2010.05.17/outbox.cif.g08.bks.cpg/sg135_2_cif.got.tgz:2959.got - 2010.05.20 12:50:20.
