data_PCOD9569688
_publ_section_title
;
Structure prediction by ZEFSAII (Michael W. Deem and Ramdas Pophale) SiO2 
 PCOD9569688
Probable space group: P 42/M N M
;
_chemical_formula_sum "Si O2"
_cell_formula_units_Z 72
_cell_length_a 18.732128
_cell_length_b 18.732128
_cell_length_c 12.015581
_cell_angle_alpha 90.000000
_cell_angle_beta 90.000000
_cell_angle_gamma 90.000000
_cell_volume 4216.178691
_symmetry_space_group_name_H-M "P 42/M N M"
_symmetry_group_IT_number 136
_symmetry_cell_setting 'tetragonal'
loop_
_space_group_symop_operation_xyz
x,y,z
1/2-y,1/2+x,1/2+z
-x,-y,z
1/2+y,1/2-x,1/2+z
1/2+x,1/2-y,1/2-z
1/2-x,1/2+y,1/2-z
y,x,-z
-y,-x,-z
-x,-y,-z
1/2+y,1/2-x,1/2-z
x,y,-z
1/2-y,1/2+x,1/2-z
1/2-x,1/2+y,1/2+z
1/2+x,1/2-y,1/2+z
-y,-x,z
y,x,z
loop_
_atom_site_type_symbol
_atom_site_label
_atom_site_fract_x
_atom_site_fract_y
_atom_site_fract_z
Si Si1 0.711916 0.402772 0.500000
Si Si2 0.847391 0.275499 0.750048
Si Si3 0.060185 0.939816 0.869195
Si Si4 0.168008 0.717922 0.500000
Si Si5 0.494208 0.289215 0.706889
Si Si6 0.761525 0.881003 0.367375
O O1 0.633705 0.366296 0.500000
O O2 0.768438 0.339497 0.500000
O O3 0.722706 0.450619 0.392689
O O4 0.792217 0.207784 0.755105
O O5 0.866603 0.290082 0.620587
O O6 0.922388 0.256674 0.805759
O O7 0.803792 0.340122 0.806219
O O8 0.031147 0.870572 0.806399
O O9 0.077231 0.922770 0.000000
O O10 0.000000 0.000000 0.870317
O O11 0.204066 0.795935 0.500000
O O12 0.540655 0.273740 0.816743
O O13 0.750328 0.882210 0.500000
O O14 0.831422 0.831422 0.344467
#
# Coordination Sequence:
#
# PCOD9569688 Si02
#       6
#     8  16   8   8  16  16
#     4  11  20  35  60  86 114 155 201 239 290 345
#     4  10  21  37  57  84 113 147 194 247 284 337
#     4  11  22  34  53  85 125 157 190 234 285 350
#     4   9  18  36  59  79 107 147 197 248 282 329
#     4  12  22  35  57  88 118 152 193 238 294 345
#     4  10  22  39  58  79 116 158 195 234 290 349
#
# _framework density 17.077075000000001
#
# number of rings (size 3 to 8) (size 9 to 14) (size 15 to 20)
#    0.000    1.444    4.444    2.000    3.111    0.000 
#    0.000    0.556    0.000    2.667    0.000    3.111 
#    0.000    0.000    0.000    0.000    0.000    0.000 
#
# Total GULP energy -401515.442038 kJ/mol
# GULP energy per Si atom -5576.603362 kJ/mol
# Density = 1.703821 g / cm^3
# Si number density = 17.077075 Si / 1000 Ang^3
#
#
#
# Elastic Constant Matrix: (Units=GPa)
#
#
# Indices 1 2 3 4 5 6 
#
# 1 -30.0503 139.6246 23.2258 0.0000 0.0000 0.0000
# 2 139.6246 -30.0384 23.2232 0.0000 0.0000 0.0000
# 3 23.2258 23.2232 75.1285 0.0000 0.0000 0.0000
# 4 0.0000 0.0000 0.0000 3.5262 0.0000 0.0000
# 5 0.0000 0.0000 0.0000 0.0000 3.5285 0.0000
# 6 0.0000 0.0000 0.0000 0.0000 0.0000 30.0499
#
#
#
# Elastic Compliance Matrix: (Units=1/GPa)
#
#
# Indices 1 2 3 4 5 6 
#
# 1 0.002304 0.008198 -0.003246 0.000000 0.000000 0.000000
# 2 0.008198 0.002304 -0.003247 0.000000 0.000000 0.000000
# 3 -0.003246 -0.003247 0.015318 0.000000 0.000000 0.000000
# 4 0.000000 0.000000 0.000000 0.283589 0.000000 0.000000
# 5 0.000000 0.000000 0.000000 0.000000 0.283407 0.000000
# 6 0.000000 0.000000 0.000000 0.000000 0.000000 0.033278
#
#
# Mechanical properties :
#
#
# Convention : Reuss Voigt Hill
#
# Bulk Modulus (GPa) = 42.85298 43.02078 42.93688
# Shear Modulus (GPa) = 8.00553 -3.98132 2.01211
#
# Velocity S-wave (km/s) = 2.16750 -1.52854 1.08665
# Velocity P-wave (km/s) = 5.60468 4.70442 5.17417
#
# Compressibility (1/GPa) = 0.02333560
#
# Stress axis : x y z
#
# Youngs Moduli (GPa) = 434.10645 433.94887 65.28411
#
# Poissons Ratio (x) = -3.55744 0.21193
# Poissons Ratio (y) = -3.55873 0.21196
# Poissons Ratio (z) = 1.40920 1.40889
#
# Static dielectric constant tensor:
#      x y z
#    x 1.563980 0.000000 0.000000 
#    y 0.000000 1.563980 0.000000 
#    z 0.000000 0.000000 1.628760 
# 
# From -- ./inp_files/3486.got.cif
#   From: 2010.05.17/outbox.cif.g08.bks.cpg/sg136_2_cif.got.tgz:3486.got - 2010.05.20 12:54:53.
