data_PCOD9569827
_publ_section_title
;
Structure prediction by ZEFSAII (Michael W. Deem and Ramdas Pophale) SiO2 
 PCOD9569827
Probable space group: P 42/M N M
;
_chemical_formula_sum "Si O2"
_cell_formula_units_Z 52
_cell_length_a 13.432170
_cell_length_b 13.432170
_cell_length_c 13.741060
_cell_angle_alpha 90.000000
_cell_angle_beta 90.000000
_cell_angle_gamma 90.000000
_cell_volume 2479.205892
_symmetry_space_group_name_H-M "P 42/M N M"
_symmetry_group_IT_number 136
_symmetry_cell_setting 'tetragonal'
loop_
_space_group_symop_operation_xyz
x,y,z
1/2-y,1/2+x,1/2+z
-x,-y,z
1/2+y,1/2-x,1/2+z
1/2+x,1/2-y,1/2-z
1/2-x,1/2+y,1/2-z
y,x,-z
-y,-x,-z
-x,-y,-z
1/2+y,1/2-x,1/2-z
x,y,-z
1/2-y,1/2+x,1/2-z
1/2-x,1/2+y,1/2+z
1/2+x,1/2-y,1/2+z
-y,-x,z
y,x,z
loop_
_atom_site_type_symbol
_atom_site_label
_atom_site_fract_x
_atom_site_fract_y
_atom_site_fract_z
Si Si1 0.238423 0.761578 0.500000
Si Si2 0.371039 0.919750 0.786653
Si Si3 0.778881 0.778881 0.786691
Si Si4 0.598908 0.066990 0.000000
Si Si5 0.421114 0.578887 0.164868
Si Si6 0.004533 0.777949 0.500000
O O1 0.282865 0.717136 0.402342
O O2 0.119090 0.746029 0.500000
O O3 0.483799 0.876105 0.781863
O O4 0.303011 0.832487 0.748176
O O5 0.347567 0.951467 0.897102
O O6 0.855890 0.855890 0.738387
O O7 0.500000 0.000000 0.000000
O O8 0.567380 0.182799 0.000000
O O9 0.500000 0.500000 0.207021
O O10 0.345581 0.519926 0.093635
#
# Coordination Sequence:
#
# PCOD9569827 Si02
#       6
#     4  16   8   8   8   8
#     4  12  26  41  67 100 136 186 224 286 336 430
#     4  11  24  42  65  97 135 185 229 284 354 417
#     4  12  27  42  67 102 140 173 242 282 341 421
#     4  12  21  38  69  91 133 172 226 285 348 415
#     4  11  22  42  69 104 134 173 222 291 351 409
#     4  11  21  42  69 100 129 172 228 281 351 401
#
# _framework density 20.974457999999998
#
# number of rings (size 3 to 8) (size 9 to 14) (size 15 to 20)
#    0.000    0.615    7.692    2.308    0.000    0.615 
#    0.000    0.385    0.000    0.000    0.000    0.000 
#    0.000    0.000    0.000    0.000    0.000    0.000 
#
# Total GULP energy -291037.271523 kJ/mol
# GULP energy per Si atom -5596.870606 kJ/mol
# Density = 2.092672 g / cm^3
# Si number density = 20.974458 Si / 1000 Ang^3
#
#
#
# Elastic Constant Matrix: (Units=GPa)
#
#
# Indices 1 2 3 4 5 6 
#
# 1 65.5280 13.2964 18.0549 0.0000 0.0000 0.0000
# 2 13.2964 65.5281 18.0548 0.0000 0.0000 0.0000
# 3 18.0549 18.0548 174.8193 0.0000 0.0000 0.0000
# 4 0.0000 0.0000 0.0000 22.5109 0.0000 0.0000
# 5 0.0000 0.0000 0.0000 0.0000 22.5108 0.0000
# 6 0.0000 0.0000 0.0000 0.0000 0.0000 40.1477
#
#
#
# Elastic Compliance Matrix: (Units=1/GPa)
#
#
# Indices 1 2 3 4 5 6 
#
# 1 0.016231 -0.002915 -0.001375 0.000000 0.000000 0.000000
# 2 -0.002915 0.016231 -0.001375 0.000000 0.000000 0.000000
# 3 -0.001375 -0.001375 0.006004 0.000000 0.000000 0.000000
# 4 0.000000 0.000000 0.000000 0.044423 0.000000 0.000000
# 5 0.000000 0.000000 0.000000 0.000000 0.044423 0.000000
# 6 0.000000 0.000000 0.000000 0.000000 0.000000 0.024908
#
#
# Mechanical properties :
#
#
# Convention : Reuss Voigt Hill
#
# Bulk Modulus (GPa) = 36.85141 44.96530 40.90835
# Shear Modulus (GPa) = 28.96940 34.13183 31.55061
#
# Velocity S-wave (km/s) = 3.72045 4.03836 3.88266
# Velocity P-wave (km/s) = 6.00529 6.57489 6.29653
#
# Compressibility (1/GPa) = 0.02713600
#
# Stress axis : x y z
#
# Youngs Moduli (GPa) = 61.61057 61.61070 166.54837
#
# Poissons Ratio (x) = 0.17957 0.22905
# Poissons Ratio (y) = 0.17957 0.22905
# Poissons Ratio (z) = 0.08473 0.08473
#
# Static dielectric constant tensor:
#      x y z
#    x 1.752830 0.000000 0.000000 
#    y 0.000000 1.752830 0.000000 
#    z 0.000000 0.000000 1.760440 
# 
# From -- ./inp_files/3152.got.cif
#   From: 2010.05.17/outbox.cif.g08.bks.cpg/sg136_2_cif.got.tgz:3152.got - 2010.05.20 12:54:53.
