data_PCOD9569459
_publ_section_title
;
Structure prediction by ZEFSAII (Michael W. Deem and Ramdas Pophale) SiO2 
 PCOD9569459
Probable space group: P 42/M N M
;
_chemical_formula_sum "Si O2"
_cell_formula_units_Z 112
_cell_length_a 14.246494
_cell_length_b 14.246494
_cell_length_c 27.355188
_cell_angle_alpha 90.000000
_cell_angle_beta 90.000000
_cell_angle_gamma 90.000000
_cell_volume 5552.079842
_symmetry_space_group_name_H-M "P 42/M N M"
_symmetry_group_IT_number 136
_symmetry_cell_setting 'tetragonal'
loop_
_space_group_symop_operation_xyz
x,y,z
1/2-y,1/2+x,1/2+z
-x,-y,z
1/2+y,1/2-x,1/2+z
1/2+x,1/2-y,1/2-z
1/2-x,1/2+y,1/2-z
y,x,-z
-y,-x,-z
-x,-y,-z
1/2+y,1/2-x,1/2-z
x,y,-z
1/2-y,1/2+x,1/2-z
1/2-x,1/2+y,1/2+z
1/2+x,1/2-y,1/2+z
-y,-x,z
y,x,z
loop_
_atom_site_type_symbol
_atom_site_label
_atom_site_fract_x
_atom_site_fract_y
_atom_site_fract_z
Si Si1 0.321012 0.476324 0.443258
Si Si2 0.085183 0.230349 0.843688
Si Si3 0.149509 0.534448 0.259397
Si Si4 0.620268 0.767370 0.124502
Si Si5 0.264072 0.584799 0.168141
Si Si6 0.474886 0.098240 0.053325
Si Si7 0.831545 0.685173 0.573348
O O1 0.320117 0.512351 0.500000
O O2 0.419405 0.419405 0.436226
O O3 0.296344 0.544799 0.397671
O O4 0.240752 0.396888 0.438729
O O5 0.134486 0.134486 0.824796
O O6 0.015336 0.286832 0.807536
O O7 0.168711 0.307269 0.845474
O O8 0.103941 0.440200 0.236247
O O9 0.219183 0.583021 0.221221
O O10 0.675057 0.675057 0.108795
O O11 0.522535 0.739084 0.149518
O O12 0.596807 0.837070 0.080643
O O13 0.364804 0.635197 0.167315
O O14 0.199227 0.644053 0.130544
O O15 0.569992 0.157310 0.050643
O O16 0.500000 0.000000 0.079541
O O17 0.437646 0.072769 0.000000
O O18 0.781677 0.781677 0.557531
#
# Coordination Sequence:
#
# PCOD9569459 Si02
#       7
#    16  16  16  16  16  16  16
#     4  10  21  38  61  90 125 165 208 256 318 391
#     4  11  23  40  60  86 124 162 205 258 309 374
#     4  11  22  38  64  96 123 156 199 258 323 386
#     4  10  22  39  57  83 120 162 206 257 313 374
#     4  10  20  38  61  86 119 162 208 257 317 382
#     4  10  20  33  54  84 116 153 200 254 307 366
#     4   9  18  33  56  84 114 150 195 250 305 364
#
# _framework density 20.172619999999998
#
# number of rings (size 3 to 8) (size 9 to 14) (size 15 to 20)
#    0.000    1.857    1.429    2.571    0.000    4.857 
#    0.000    3.571    0.000    1.714    0.000    4.000 
#    0.000    0.000    0.000    0.000    0.000    0.000 
#
# Total GULP energy -623783.695107 kJ/mol
# GULP energy per Si atom -5569.497278 kJ/mol
# Density = 2.012671 g / cm^3
# Si number density = 20.172620 Si / 1000 Ang^3
#
#
#
# Elastic Constant Matrix: (Units=GPa)
#
#
# Indices 1 2 3 4 5 6 
#
# 1 41.2844 50.3151 25.3016 0.0000 0.0000 0.0000
# 2 50.3151 41.2844 25.3016 0.0000 0.0000 0.0000
# 3 25.3016 25.3016 87.5557 0.0000 0.0000 0.0000
# 4 0.0000 0.0000 0.0000 -518.9321 0.0000 0.0000
# 5 0.0000 0.0000 0.0000 0.0000 -518.9321 0.0000
# 6 0.0000 0.0000 0.0000 0.0000 0.0000 36.7897
#
#
#
# Elastic Compliance Matrix: (Units=1/GPa)
#
#
# Indices 1 2 3 4 5 6 
#
# 1 -0.048871 0.061862 -0.003754 0.000000 0.000000 0.000000
# 2 0.061862 -0.048871 -0.003754 0.000000 0.000000 0.000000
# 3 -0.003754 -0.003754 0.013591 0.000000 0.000000 0.000000
# 4 0.000000 0.000000 0.000000 -0.001927 0.000000 0.000000
# 5 0.000000 0.000000 0.000000 0.000000 -0.001927 0.000000
# 6 0.000000 0.000000 0.000000 0.000000 0.000000 0.027182
#
#
# Mechanical properties :
#
#
# Convention : Reuss Voigt Hill
#
# Bulk Modulus (GPa) = 40.72222 41.32898 41.02560
# Shear Modulus (GPa) = -30.98917 -195.60115 -113.29516
#
# Velocity S-wave (km/s) = -3.92369 -9.85770 -7.50232
# Velocity P-wave (km/s) = 0.54445 10.44191 7.39357
#
# Compressibility (1/GPa) = 0.02455662
#
# Stress axis : x y z
#
# Youngs Moduli (GPa) = -20.46192 -20.46192 73.57812
#
# Poissons Ratio (x) = 1.26582 0.27622
# Poissons Ratio (y) = 1.26582 0.27622
# Poissons Ratio (z) = -0.07682 -0.07682
#
# Static dielectric constant tensor:
#      x y z
#    x 1.726740 0.000000 0.000000 
#    y 0.000000 1.726740 0.000000 
#    z 0.000000 0.000000 1.782180 
# 
# From -- ./inp_files/8510.got.cif
#   From: 2010.05.17/outbox.cif.g08.bks.cpg/sg136_5_cif.got.tgz:8510.got - 2010.05.20 12:54:53.
