data_PCOD9569743
_publ_section_title
;
Structure prediction by ZEFSAII (Michael W. Deem and Ramdas Pophale) SiO2 
 PCOD9569743
Probable space group: P 42/M N M
;
_chemical_formula_sum "Si O2"
_cell_formula_units_Z 80
_cell_length_a 16.480110
_cell_length_b 16.480110
_cell_length_c 13.384736
_cell_angle_alpha 90.000000
_cell_angle_beta 90.000000
_cell_angle_gamma 90.000000
_cell_volume 3635.214332
_symmetry_space_group_name_H-M "P 42/M N M"
_symmetry_group_IT_number 136
_symmetry_cell_setting 'tetragonal'
loop_
_space_group_symop_operation_xyz
x,y,z
1/2-y,1/2+x,1/2+z
-x,-y,z
1/2+y,1/2-x,1/2+z
1/2+x,1/2-y,1/2-z
1/2-x,1/2+y,1/2-z
y,x,-z
-y,-x,-z
-x,-y,-z
1/2+y,1/2-x,1/2-z
x,y,-z
1/2-y,1/2+x,1/2-z
1/2-x,1/2+y,1/2+z
1/2+x,1/2-y,1/2+z
-y,-x,z
y,x,z
loop_
_atom_site_type_symbol
_atom_site_label
_atom_site_fract_x
_atom_site_fract_y
_atom_site_fract_z
Si Si1 0.678031 0.195703 0.880398
Si Si2 0.041466 0.588466 0.615105
Si Si3 0.867861 0.005068 0.815028
Si Si4 0.039925 0.174887 0.390569
Si Si5 0.816004 0.510944 0.316304
O O1 0.760680 0.239321 0.842375
O O2 0.604499 0.256861 0.855265
O O3 0.665245 0.103245 0.850502
O O4 0.681191 0.197019 0.000000
O O5 0.025441 0.613003 0.500000
O O6 0.016069 0.652303 0.700283
O O7 0.133766 0.561464 0.633255
O O8 0.000000 0.500000 0.631103
O O9 0.925194 0.925194 0.823867
O O10 0.847946 0.020061 0.697476
O O11 0.776546 0.997236 0.851046
O O12 0.920590 0.079411 0.856140
O O13 0.006579 0.195162 0.500000
O O14 0.095487 0.095487 0.401164
#
# Coordination Sequence:
#
# PCOD9569743 Si02
#       5
#    16  16  16  16  16
#     4   9  18  32  56  91 122 156 209 262 304 358
#     4  11  24  41  62  94 128 158 200 253 313 385
#     4  10  22  37  56  85 120 162 210 253 298 358
#     4   8  15  29  49  75 108 144 187 244 300 345
#     4  12  20  39  62  88 121 168 203 247 317 371
#
# _framework density 22.006955000000001
#
# number of rings (size 3 to 8) (size 9 to 14) (size 15 to 20)
#    0.000    2.000    2.000    3.600    0.000    1.200 
#    0.000    3.000    0.000    6.600    0.000    7.000 
#    0.000    0.000    0.000    0.000    0.000    0.000 
#
# Total GULP energy -445895.319274 kJ/mol
# GULP energy per Si atom -5573.691491 kJ/mol
# Density = 2.195687 g / cm^3
# Si number density = 22.006955 Si / 1000 Ang^3
#
#
#
# Elastic Constant Matrix: (Units=GPa)
#
#
# Indices 1 2 3 4 5 6 
#
# 1 76.3167 8.2899 5.8501 0.0000 0.0000 0.0000
# 2 8.2899 76.3167 5.8501 0.0000 0.0000 0.0000
# 3 5.8501 5.8501 41.8779 0.0000 0.0000 0.0000
# 4 0.0000 0.0000 0.0000 14.3048 0.0000 0.0000
# 5 0.0000 0.0000 0.0000 0.0000 14.3048 0.0000
# 6 0.0000 0.0000 0.0000 0.0000 0.0000 34.0767
#
#
#
# Elastic Compliance Matrix: (Units=1/GPa)
#
#
# Indices 1 2 3 4 5 6 
#
# 1 0.013376 -0.001324 -0.001684 0.000000 0.000000 0.000000
# 2 -0.001324 0.013376 -0.001684 0.000000 0.000000 0.000000
# 3 -0.001684 -0.001684 0.024349 0.000000 0.000000 0.000000
# 4 0.000000 0.000000 0.000000 0.069907 0.000000 0.000000
# 5 0.000000 0.000000 0.000000 0.000000 0.069907 0.000000
# 6 0.000000 0.000000 0.000000 0.000000 0.000000 0.029346
#
#
# Mechanical properties :
#
#
# Convention : Reuss Voigt Hill
#
# Bulk Modulus (GPa) = 23.96971 26.05459 25.01215
# Shear Modulus (GPa) = 20.52974 24.17201 22.35088
#
# Velocity S-wave (km/s) = 3.05761 3.31778 3.19035
# Velocity P-wave (km/s) = 4.83538 5.15188 4.99613
#
# Compressibility (1/GPa) = 0.04171933
#
# Stress axis : x y z
#
# Youngs Moduli (GPa) = 74.75981 74.75981 41.06887
#
# Poissons Ratio (x) = 0.09898 0.06914
# Poissons Ratio (y) = 0.09898 0.06914
# Poissons Ratio (z) = 0.12587 0.12587
#
# Static dielectric constant tensor:
#      x y z
#    x 1.867560 0.000000 0.000000 
#    y 0.000000 1.867560 0.000000 
#    z 0.000000 0.000000 1.929300 
# 
# From -- ./inp_files/4907.got.cif
#   From: 2010.05.17/outbox.cif.g08.bks.cpg/sg136_3_cif.got.tgz:4907.got - 2010.05.20 12:54:53.
