data_PCOD9569762
_publ_section_title
;
Structure prediction by ZEFSAII (Michael W. Deem and Ramdas Pophale) SiO2 
 PCOD9569762
Probable space group: P 42/M N M
;
_chemical_formula_sum "Si O2"
_cell_formula_units_Z 96
_cell_length_a 24.345414
_cell_length_b 24.345414
_cell_length_c 8.822169
_cell_angle_alpha 90.000000
_cell_angle_beta 90.000000
_cell_angle_gamma 90.000000
_cell_volume 5228.892357
_symmetry_space_group_name_H-M "P 42/M N M"
_symmetry_group_IT_number 136
_symmetry_cell_setting 'tetragonal'
loop_
_space_group_symop_operation_xyz
x,y,z
1/2-y,1/2+x,1/2+z
-x,-y,z
1/2+y,1/2-x,1/2+z
1/2+x,1/2-y,1/2-z
1/2-x,1/2+y,1/2-z
y,x,-z
-y,-x,-z
-x,-y,-z
1/2+y,1/2-x,1/2-z
x,y,-z
1/2-y,1/2+x,1/2-z
1/2-x,1/2+y,1/2+z
1/2+x,1/2-y,1/2+z
-y,-x,z
y,x,z
loop_
_atom_site_type_symbol
_atom_site_label
_atom_site_fract_x
_atom_site_fract_y
_atom_site_fract_z
Si Si1 0.311908 0.222715 0.180801
Si Si2 0.798376 0.569532 0.681343
Si Si3 0.078786 0.468897 0.682657
Si Si4 0.209389 0.012569 0.318428
Si Si5 0.861519 0.771903 0.319827
Si Si6 0.500746 0.410117 0.682478
O O1 0.276810 0.276810 0.225871
O O2 0.370380 0.217229 0.259101
O O3 0.274592 0.171197 0.230162
O O4 0.318437 0.223556 0.000000
O O5 0.795041 0.568452 0.500000
O O6 0.860979 0.553412 0.723372
O O7 0.755454 0.526637 0.749912
O O8 0.073520 0.469838 0.500000
O O9 0.068070 0.529950 0.747754
O O10 0.210020 0.008713 0.500000
O O11 0.222289 0.075509 0.275306
O O12 0.148884 0.998267 0.258539
O O13 0.858524 0.759520 0.500000
O O14 0.828661 0.828661 0.295183
O O15 0.501745 0.404096 0.500000
O O16 0.555117 0.444884 0.726459
O O17 0.448867 0.448867 0.720447
#
# Coordination Sequence:
#
# PCOD9569762 Si02
#       6
#    16  16  16  16  16  16
#     4  10  22  40  62  87 114 149 194 241 289 341
#     4  11  25  41  59  87 119 158 199 238 293 353
#     4  10  22  40  63  89 117 151 193 239 293 351
#     4  11  23  37  57  87 120 154 194 241 289 341
#     4   9  19  37  60  86 117 152 189 233 287 343
#     4   9  19  37  60  85 116 156 198 241 293 350
#
# _framework density 18.359529999999999
#
# number of rings (size 3 to 8) (size 9 to 14) (size 15 to 20)
#    0.000    2.000    0.000    3.500    2.333    7.000 
#    0.000    2.500    0.000    0.000    0.000    0.000 
#    0.000    0.000    0.000    0.000    0.000    0.000 
#
# Total GULP energy -536314.763648 kJ/mol
# GULP energy per Si atom -5586.612121 kJ/mol
# Density = 1.831774 g / cm^3
# Si number density = 18.359530 Si / 1000 Ang^3
#
#
#
# Elastic Constant Matrix: (Units=GPa)
#
#
# Indices 1 2 3 4 5 6 
#
# 1 253.8613 -5.6464 56.8551 0.0000 0.0000 0.0000
# 2 -5.6464 253.8613 56.8551 0.0000 0.0000 0.0000
# 3 56.8551 56.8551 49.8909 0.0000 0.0000 0.0000
# 4 0.0000 0.0000 0.0000 28.4031 0.0000 0.0000
# 5 0.0000 0.0000 0.0000 0.0000 28.4031 0.0000
# 6 0.0000 0.0000 0.0000 0.0000 0.0000 11.8268
#
#
#
# Elastic Compliance Matrix: (Units=1/GPa)
#
#
# Indices 1 2 3 4 5 6 
#
# 1 0.006141 0.002288 -0.009606 0.000000 0.000000 0.000000
# 2 0.002288 0.006141 -0.009606 0.000000 0.000000 0.000000
# 3 -0.009606 -0.009606 0.041938 0.000000 0.000000 0.000000
# 4 0.000000 0.000000 0.000000 0.035207 0.000000 0.000000
# 5 0.000000 0.000000 0.000000 0.000000 0.035207 0.000000
# 6 0.000000 0.000000 0.000000 0.000000 0.000000 0.084554
#
#
# Mechanical properties :
#
#
# Convention : Reuss Voigt Hill
#
# Bulk Modulus (GPa) = 49.08642 85.97124 67.52883
# Shear Modulus (GPa) = 20.01371 43.69655 31.85513
#
# Velocity S-wave (km/s) = 3.30525 4.88387 4.16994
# Velocity P-wave (km/s) = 6.43121 8.87305 7.74892
#
# Compressibility (1/GPa) = 0.02037223
#
# Stress axis : x y z
#
# Youngs Moduli (GPa) = 162.82812 162.82812 23.84486
#
# Poissons Ratio (x) = -0.37255 0.22906
# Poissons Ratio (y) = -0.37255 0.22906
# Poissons Ratio (z) = 1.56414 1.56414
#
# Static dielectric constant tensor:
#      x y z
#    x 1.608020 0.000000 0.000000 
#    y 0.000000 1.608020 0.000000 
#    z 0.000000 0.000000 1.614680 
# 
# From -- ./inp_files/2005.got.cif
#   From: 2010.05.17/outbox.cif.g08.bks.cpg/sg136_2_cif.got.tgz:2005.got - 2010.05.20 12:54:53.
