data_PCOD9569506
_publ_section_title
;
Structure prediction by ZEFSAII (Michael W. Deem and Ramdas Pophale) SiO2 
 PCOD9569506
Probable space group: P 42/M N M
;
_chemical_formula_sum "Si O2"
_cell_formula_units_Z 112
_cell_length_a 13.880651
_cell_length_b 13.880651
_cell_length_c 33.684984
_cell_angle_alpha 90.000000
_cell_angle_beta 90.000000
_cell_angle_gamma 90.000000
_cell_volume 6490.169143
_symmetry_space_group_name_H-M "P 42/M N M"
_symmetry_group_IT_number 136
_symmetry_cell_setting 'tetragonal'
loop_
_space_group_symop_operation_xyz
x,y,z
1/2-y,1/2+x,1/2+z
-x,-y,z
1/2+y,1/2-x,1/2+z
1/2+x,1/2-y,1/2-z
1/2-x,1/2+y,1/2-z
y,x,-z
-y,-x,-z
-x,-y,-z
1/2+y,1/2-x,1/2-z
x,y,-z
1/2-y,1/2+x,1/2-z
1/2-x,1/2+y,1/2+z
1/2+x,1/2-y,1/2+z
-y,-x,z
y,x,z
loop_
_atom_site_type_symbol
_atom_site_label
_atom_site_fract_x
_atom_site_fract_y
_atom_site_fract_z
Si Si1 0.751084 0.589826 0.160974
Si Si2 0.357001 0.802404 0.543975
Si Si3 0.268042 0.107825 0.616064
Si Si4 0.848762 0.556531 0.245780
Si Si5 0.258753 0.896817 0.828194
Si Si6 0.597482 0.243596 0.627459
Si Si7 0.887931 0.478437 0.954269
O O1 0.656135 0.656135 0.163721
O O2 0.736640 0.493765 0.135228
O O3 0.792071 0.563438 0.204459
O O4 0.833405 0.655505 0.140314
O O5 0.397650 0.783106 0.500000
O O6 0.259296 0.740705 0.548026
O O7 0.422448 0.770358 0.580653
O O8 0.339290 0.915947 0.546511
O O9 0.177991 0.177991 0.607701
O O10 0.334816 0.161071 0.648562
O O11 0.332982 0.087105 0.577247
O O12 0.881506 0.447269 0.255295
O O13 0.786133 0.595031 0.282219
O O14 0.158901 0.841100 0.833284
O O15 0.256083 0.001837 0.847215
O O16 0.660078 0.339923 0.633174
O O17 0.000000 0.500000 0.943774
O O18 0.886344 0.442994 0.000000
#
# Coordination Sequence:
#
# PCOD9569506 Si02
#       7
#    16  16  16  16  16  16  16
#     4  11  22  38  59  83 114 150 191 240 289 346
#     4   9  17  31  54  84 112 139 181 237 285 327
#     4  11  24  38  57  84 117 157 197 235 286 349
#     4  11  21  36  61  87 111 144 188 242 293 341
#     4  11  23  39  57  82 117 151 185 236 291 343
#     4  10  20  35  59  86 110 145 190 234 286 347
#     4  10  20  34  57  86 115 152 196 241 289 341
#
# _framework density 17.256868000000001
#
# number of rings (size 3 to 8) (size 9 to 14) (size 15 to 20)
#    0.000    1.571    4.286    1.286    0.000    0.857 
#    0.000    0.714    0.000    3.000    0.000    5.000 
#    0.000    0.000    0.000    0.000    0.000    0.000 
#
# Total GULP energy -625008.421235 kJ/mol
# GULP energy per Si atom -5580.432332 kJ/mol
# Density = 1.721759 g / cm^3
# Si number density = 17.256868 Si / 1000 Ang^3
#
#
#
# Elastic Constant Matrix: (Units=GPa)
#
#
# Indices 1 2 3 4 5 6 
#
# 1 86.8339 48.3499 46.2978 0.0000 0.0000 0.0000
# 2 48.3499 86.8339 46.2978 0.0000 0.0000 0.0000
# 3 46.2978 46.2978 122.8279 0.0000 0.0000 0.0000
# 4 0.0000 0.0000 0.0000 23.6977 0.0000 0.0000
# 5 0.0000 0.0000 0.0000 0.0000 23.6977 0.0000
# 6 0.0000 0.0000 0.0000 0.0000 0.0000 15.3978
#
#
#
# Elastic Compliance Matrix: (Units=1/GPa)
#
#
# Indices 1 2 3 4 5 6 
#
# 1 0.017978 -0.008006 -0.003759 0.000000 0.000000 0.000000
# 2 -0.008006 0.017978 -0.003759 0.000000 0.000000 0.000000
# 3 -0.003759 -0.003759 0.010975 0.000000 0.000000 0.000000
# 4 0.000000 0.000000 0.000000 0.042198 0.000000 0.000000
# 5 0.000000 0.000000 0.000000 0.000000 0.042198 0.000000
# 6 0.000000 0.000000 0.000000 0.000000 0.000000 0.064944
#
#
# Mechanical properties :
#
#
# Convention : Reuss Voigt Hill
#
# Bulk Modulus (GPa) = 62.95668 64.26520 63.61094
# Shear Modulus (GPa) = 21.49476 22.92868 22.21172
#
# Velocity S-wave (km/s) = 3.53310 3.64905 3.59154
# Velocity P-wave (km/s) = 7.29418 7.42127 7.35800
#
# Compressibility (1/GPa) = 0.01588394
#
# Stress axis : x y z
#
# Youngs Moduli (GPa) = 55.62241 55.62241 91.11578
#
# Poissons Ratio (x) = 0.44534 0.34248
# Poissons Ratio (y) = 0.44534 0.34248
# Poissons Ratio (z) = 0.20907 0.20907
#
# Static dielectric constant tensor:
#      x y z
#    x 1.568520 0.000000 0.000000 
#    y 0.000000 1.568520 0.000000 
#    z 0.000000 0.000000 1.600330 
# 
# From -- ./inp_files/9978.got.cif
#   From: 2010.05.17/outbox.cif.g08.bks.cpg/sg136_5_cif.got.tgz:9978.got - 2010.05.20 12:54:53.
