data_PCOD9569708
_publ_section_title
;
Structure prediction by ZEFSAII (Michael W. Deem and Ramdas Pophale) SiO2 
 PCOD9569708
Probable space group: P 42/M N M
;
_chemical_formula_sum "Si O2"
_cell_formula_units_Z 72
_cell_length_a 21.554011
_cell_length_b 21.554011
_cell_length_c 8.820630
_cell_angle_alpha 90.000000
_cell_angle_beta 90.000000
_cell_angle_gamma 90.000000
_cell_volume 4097.847624
_symmetry_space_group_name_H-M "P 42/M N M"
_symmetry_group_IT_number 136
_symmetry_cell_setting 'tetragonal'
loop_
_space_group_symop_operation_xyz
x,y,z
1/2-y,1/2+x,1/2+z
-x,-y,z
1/2+y,1/2-x,1/2+z
1/2+x,1/2-y,1/2-z
1/2-x,1/2+y,1/2-z
y,x,-z
-y,-x,-z
-x,-y,-z
1/2+y,1/2-x,1/2-z
x,y,-z
1/2-y,1/2+x,1/2-z
1/2-x,1/2+y,1/2+z
1/2+x,1/2-y,1/2+z
-y,-x,z
y,x,z
loop_
_atom_site_type_symbol
_atom_site_label
_atom_site_fract_x
_atom_site_fract_y
_atom_site_fract_z
Si Si1 0.947996 0.052005 0.817608
Si Si2 0.614865 0.283376 0.676938
Si Si3 0.356412 0.099810 0.820342
Si Si4 0.315712 0.961338 0.180894
Si Si5 0.815682 0.013528 0.679172
O O1 0.879812 0.034725 0.755903
O O2 0.946861 0.053140 0.000000
O O3 0.000000 0.000000 0.772548
O O4 0.593955 0.288331 0.500000
O O5 0.673967 0.326034 0.697101
O O6 0.628921 0.211546 0.704095
O O7 0.558898 0.306312 0.780590
O O8 0.407848 0.137677 0.731626
O O9 0.346116 0.027861 0.775949
O O10 0.370764 0.101733 0.000000
O O11 0.247615 0.955849 0.255857
O O12 0.307636 0.961897 0.000000
O O13 0.819263 0.023530 0.500000
#
# Coordination Sequence:
#
# PCOD9569708 Si02
#       5
#     8  16  16  16  16
#     4  11  23  39  59  83 113 151 191 229 277 336
#     4   9  18  35  57  80 109 147 185 224 274 329
#     4   9  19  35  55  80 109 144 186 231 277 331
#     4  10  21  38  58  80 111 148 184 228 283 336
#     4  11  22  36  56  82 113 146 182 231 278 325
#
# _framework density 17.570198000000001
#
# number of rings (size 3 to 8) (size 9 to 14) (size 15 to 20)
#    0.000    2.111    0.000    5.000    0.000    8.889 
#    2.000    2.222    0.000    0.000    0.000    0.000 
#    0.000    0.000    0.000    0.000    0.000    0.000 
#
# Total GULP energy -401766.944769 kJ/mol
# GULP energy per Si atom -5580.096455 kJ/mol
# Density = 1.753021 g / cm^3
# Si number density = 17.570198 Si / 1000 Ang^3
#
#
#
# Elastic Constant Matrix: (Units=GPa)
#
#
# Indices 1 2 3 4 5 6 
#
# 1 99.4608 86.1775 57.3008 0.0000 0.0000 0.0000
# 2 86.1775 99.4610 57.3008 0.0000 0.0000 0.0000
# 3 57.3008 57.3008 82.0157 0.0000 0.0000 0.0000
# 4 0.0000 0.0000 0.0000 31.1043 0.0000 0.0000
# 5 0.0000 0.0000 0.0000 0.0000 31.1042 0.0000
# 6 0.0000 0.0000 0.0000 0.0000 0.0000 33.2222
#
#
#
# Elastic Compliance Matrix: (Units=1/GPa)
#
#
# Indices 1 2 3 4 5 6 
#
# 1 0.042377 -0.032905 -0.006618 0.000000 0.000000 0.000000
# 2 -0.032905 0.042377 -0.006618 0.000000 0.000000 0.000000
# 3 -0.006618 -0.006618 0.021440 0.000000 0.000000 0.000000
# 4 0.000000 0.000000 0.000000 0.032150 0.000000 0.000000
# 5 0.000000 0.000000 0.000000 0.000000 0.032150 0.000000
# 6 0.000000 0.000000 0.000000 0.000000 0.000000 0.030100
#
#
# Mechanical properties :
#
#
# Convention : Reuss Voigt Hill
#
# Bulk Modulus (GPa) = 71.87470 75.83286 73.85378
# Shear Modulus (GPa) = 16.80595 24.43004 20.61799
#
# Velocity S-wave (km/s) = 3.09609 3.73289 3.42930
# Velocity P-wave (km/s) = 7.33328 7.86339 7.60296
#
# Compressibility (1/GPa) = 0.01391310
#
# Stress axis : x y z
#
# Youngs Moduli (GPa) = 23.59754 23.59762 46.64178
#
# Poissons Ratio (x) = 0.77648 0.30867
# Poissons Ratio (y) = 0.77648 0.30867
# Poissons Ratio (z) = 0.15617 0.15616
#
# Static dielectric constant tensor:
#      x y z
#    x 1.580610 0.000000 0.000000 
#    y 0.000000 1.580610 0.000000 
#    z 0.000000 0.000000 1.605070 
# 
# From -- ./inp_files/1578.got.cif
#   From: 2010.05.17/outbox.cif.g08.bks.cpg/sg136_1_cif.got.tgz:1578.got - 2010.05.20 12:54:53.
