data_PCOD9569372
_publ_section_title
;
Structure prediction by ZEFSAII (Michael W. Deem and Ramdas Pophale) SiO2 
 PCOD9569372
Probable space group: P 42/M N M
;
_chemical_formula_sum "Si O2"
_cell_formula_units_Z 48
_cell_length_a 14.288592
_cell_length_b 14.288592
_cell_length_c 14.365367
_cell_angle_alpha 90.000000
_cell_angle_beta 90.000000
_cell_angle_gamma 90.000000
_cell_volume 2932.888796
_symmetry_space_group_name_H-M "P 42/M N M"
_symmetry_group_IT_number 136
_symmetry_cell_setting 'tetragonal'
loop_
_space_group_symop_operation_xyz
x,y,z
1/2-y,1/2+x,1/2+z
-x,-y,z
1/2+y,1/2-x,1/2+z
1/2+x,1/2-y,1/2-z
1/2-x,1/2+y,1/2-z
y,x,-z
-y,-x,-z
-x,-y,-z
1/2+y,1/2-x,1/2-z
x,y,-z
1/2-y,1/2+x,1/2-z
1/2-x,1/2+y,1/2+z
1/2+x,1/2-y,1/2+z
-y,-x,z
y,x,z
loop_
_atom_site_type_symbol
_atom_site_label
_atom_site_fract_x
_atom_site_fract_y
_atom_site_fract_z
Si Si1 0.155109 0.999149 0.696300
Si Si2 0.427023 0.275000 0.000000
Si Si3 0.853969 0.492249 0.291123
Si Si4 0.598791 0.947849 0.000000
O O1 0.091085 0.091085 0.701890
O O2 0.248235 0.005721 0.756599
O O3 0.189191 0.980676 0.591040
O O4 0.088327 0.911674 0.722441
O O5 0.415828 0.163796 0.000000
O O6 0.326281 0.326281 0.000000
O O7 0.909095 0.585939 0.258152
O O8 0.855642 0.477448 0.402114
O O9 0.500000 0.000000 0.000000
#
# Coordination Sequence:
#
# PCOD9569372 Si02
#       4
#    16   8  16   8
#     4  10  21  37  57  83 115 149 187 231 280 333
#     4  10  19  34  58  84 111 144 188 236 277 324
#     4  11  21  36  58  84 112 148 181 233 280 332
#     4  12  20  35  58  86 114 142 190 229 278 332
#
# _framework density 16.366116000000002
#
# number of rings (size 3 to 8) (size 9 to 14) (size 15 to 20)
#    0.000    1.333    6.667    0.500    0.000    4.667 
#    0.000    0.833    0.000    2.000    0.000    0.000 
#    0.000    0.000    0.000    0.000    0.000    0.000 
#
# Total GULP energy -267835.757477 kJ/mol
# GULP energy per Si atom -5579.911614 kJ/mol
# Density = 1.632887 g / cm^3
# Si number density = 16.366116 Si / 1000 Ang^3
#
#
#
# Elastic Constant Matrix: (Units=GPa)
#
#
# Indices 1 2 3 4 5 6 
#
# 1 151.1528 75.2159 89.4441 0.0000 0.0000 0.0000
# 2 75.2159 151.1528 89.4441 0.0000 0.0000 0.0000
# 3 89.4441 89.4441 141.4580 0.0000 0.0000 0.0000
# 4 0.0000 0.0000 0.0000 18.6514 0.0000 0.0000
# 5 0.0000 0.0000 0.0000 0.0000 18.6514 0.0000
# 6 0.0000 0.0000 0.0000 0.0000 0.0000 6.4098
#
#
#
# Elastic Compliance Matrix: (Units=1/GPa)
#
#
# Indices 1 2 3 4 5 6 
#
# 1 0.010999 -0.002170 -0.005583 0.000000 0.000000 0.000000
# 2 -0.002170 0.010999 -0.005583 0.000000 0.000000 0.000000
# 3 -0.005583 -0.005583 0.014129 0.000000 0.000000 0.000000
# 4 0.000000 0.000000 0.000000 0.053615 0.000000 0.000000
# 5 0.000000 0.000000 0.000000 0.000000 0.053615 0.000000
# 6 0.000000 0.000000 0.000000 0.000000 0.000000 0.156011
#
#
# Mechanical properties :
#
#
# Convention : Reuss Voigt Hill
#
# Bulk Modulus (GPa) = 105.74452 105.77466 105.75959
# Shear Modulus (GPa) = 15.18870 21.38648 18.28759
#
# Velocity S-wave (km/s) = 3.04971 3.61883 3.34639
# Velocity P-wave (km/s) = 8.78368 9.06817 8.92706
#
# Compressibility (1/GPa) = 0.00945676
#
# Stress axis : x y z
#
# Youngs Moduli (GPa) = 90.91618 90.91618 70.77466
#
# Poissons Ratio (x) = 0.19726 0.39513
# Poissons Ratio (y) = 0.19726 0.39513
# Poissons Ratio (z) = 0.50757 0.50757
#
# Static dielectric constant tensor:
#      x y z
#    x 1.536360 0.000000 0.000000 
#    y 0.000000 1.536360 0.000000 
#    z 0.000000 0.000000 1.771960 
# 
# From -- ./inp_files/2981.got.cif
#   From: 2010.05.17/outbox.cif.g08.bks.cpg/sg136_2_cif.got.tgz:2981.got - 2010.05.20 12:54:53.
