data_PCOD9569992
_publ_section_title
;
Structure prediction by ZEFSAII (Michael W. Deem and Ramdas Pophale) SiO2 
 PCOD9569992
Probable space group: P 42/N M C
;
_chemical_formula_sum "Si O2"
_cell_formula_units_Z 96
_cell_length_a 23.435630
_cell_length_b 23.435630
_cell_length_c 10.126180
_cell_angle_alpha 90.000000
_cell_angle_beta 90.000000
_cell_angle_gamma 90.000000
_cell_volume 5561.589219
_symmetry_space_group_name_H-M "P 42/N M C"
_symmetry_group_IT_number 137
_space_group.IT_coordinate_system_code '2'
_symmetry_cell_setting 'tetragonal'
loop_
_space_group_symop_operation_xyz
x,y,z
1/2-y,x,1/2+z
1/2-x,1/2-y,z
y,1/2-x,1/2+z
1/2+x,-y,-z
-x,1/2+y,-z
1/2+y,1/2+x,1/2-z
-y,-x,1/2-z
-x,-y,-z
1/2+y,-x,1/2-z
1/2+x,1/2+y,-z
-y,1/2+x,1/2-z
1/2-x,y,z
x,1/2-y,z
1/2-y,1/2-x,1/2+z
y,x,1/2+z
loop_
_atom_site_type_symbol
_atom_site_label
_atom_site_fract_x
_atom_site_fract_y
_atom_site_fract_z
Si Si1 0.594393 0.182814 0.206793
Si Si2 0.017902 0.818087 0.539454
Si Si3 0.412122 0.819084 0.284801
Si Si4 0.318904 0.982105 0.472033
Si Si5 0.391913 0.180907 0.391740
Si Si6 0.318893 0.105253 0.580927
O O1 0.650314 0.150314 0.250000
O O2 0.605394 0.250000 0.195923
O O3 0.547441 0.173551 0.319865
O O4 0.567088 0.161000 0.071562
O O5 0.013293 0.750000 0.518211
O O6 0.059719 0.837633 0.423282
O O7 0.953173 0.839014 0.550174
O O8 0.356084 0.856084 0.250000
O O9 0.400673 0.750000 0.285220
O O10 0.460732 0.830854 0.174732
O O11 0.250000 0.983813 0.484791
O O12 0.338406 0.043940 0.521879
O O13 0.389324 0.250000 0.397400
O O14 0.344546 0.152987 0.484825
O O15 0.388094 0.165076 0.235898
O O16 0.250000 0.106794 0.576525
#
# Coordination Sequence:
#
# PCOD9569992 Si02
#       6
#    16  16  16  16  16  16
#     4  10  18  31  53  77 104 138 176 220 270 318
#     4   9  18  34  53  75 104 144 186 216 254 316
#     4  10  20  33  53  81 110 142 182 226 272 322
#     4   9  18  34  53  75 104 144 186 216 254 316
#     4  10  21  37  58  84 112 141 175 218 265 315
#     4  10  21  37  58  84 112 141 175 218 265 315
#
# _framework density 17.261251999999999
#
# number of rings (size 3 to 8) (size 9 to 14) (size 15 to 20)
#    0.000    2.333    1.667    1.000    2.333    1.333 
#    0.000    1.667    0.000   12.000    0.000    0.000 
#    0.000    0.000    0.000    0.000    0.000    0.000 
#
# Total GULP energy -534701.831020 kJ/mol
# GULP energy per Si atom -5569.810740 kJ/mol
# Density = 1.722196 g / cm^3
# Si number density = 17.261252 Si / 1000 Ang^3
#
#
#
# Elastic Constant Matrix: (Units=GPa)
#
#
# Indices 1 2 3 4 5 6 
#
# 1 50.8356 17.7109 12.4963 0.0000 0.0000 0.0000
# 2 17.7109 50.8356 12.4963 0.0000 0.0000 0.0000
# 3 12.4963 12.4963 91.0199 0.0000 0.0000 0.0000
# 4 0.0000 0.0000 0.0000 51.7535 0.0000 0.0000
# 5 0.0000 0.0000 0.0000 0.0000 51.7535 0.0000
# 6 0.0000 0.0000 0.0000 0.0000 0.0000 -11.9318
#
#
#
# Elastic Compliance Matrix: (Units=1/GPa)
#
#
# Indices 1 2 3 4 5 6 
#
# 1 0.022773 -0.007416 -0.002108 0.000000 0.000000 0.000000
# 2 -0.007416 0.022773 -0.002108 0.000000 0.000000 0.000000
# 3 -0.002108 -0.002108 0.011566 0.000000 0.000000 0.000000
# 4 0.000000 0.000000 0.000000 0.019322 0.000000 0.000000
# 5 0.000000 0.000000 0.000000 0.000000 0.019322 0.000000
# 6 0.000000 0.000000 0.000000 0.000000 0.000000 -0.083809
#
#
# Mechanical properties :
#
#
# Convention : Reuss Voigt Hill
#
# Bulk Modulus (GPa) = 29.54512 30.89981 30.22247
# Shear Modulus (GPa) = 107.53940 28.31421 67.92681
#
# Velocity S-wave (km/s) = 7.90166 4.05450 6.27994
# Velocity P-wave (km/s) = 10.02008 6.31338 8.37439
#
# Compressibility (1/GPa) = 0.03384653
#
# Stress axis : x y z
#
# Youngs Moduli (GPa) = 43.91136 43.91136 86.46367
#
# Poissons Ratio (x) = 0.32564 0.18230
# Poissons Ratio (y) = 0.32564 0.18230
# Poissons Ratio (z) = 0.09258 0.09258
#
# Static dielectric constant tensor:
#      x y z
#    x 1.582200 0.000000 0.000000 
#    y 0.000000 1.582200 0.000000 
#    z 0.000000 0.000000 1.519040 
# 
# From -- ./inp_files/2130.got.cif
#   From: 2010.05.17/outbox.cif.g08.bks.cpg/sg137_2_cif.got.tgz:2130.got - 2010.05.20 13:01:12.
