data_PCOD9569515
_publ_section_title
;
Structure prediction by ZEFSAII (Michael W. Deem and Ramdas Pophale) SiO2 
 PCOD9569515
Probable space group: P 42/M N M
;
_chemical_formula_sum "Si O2"
_cell_formula_units_Z 96
_cell_length_a 24.555498
_cell_length_b 24.555498
_cell_length_c 8.606614
_cell_angle_alpha 90.000000
_cell_angle_beta 90.000000
_cell_angle_gamma 90.000000
_cell_volume 5189.551405
_symmetry_space_group_name_H-M "P 42/M N M"
_symmetry_group_IT_number 136
_symmetry_cell_setting 'tetragonal'
loop_
_space_group_symop_operation_xyz
x,y,z
1/2-y,1/2+x,1/2+z
-x,-y,z
1/2+y,1/2-x,1/2+z
1/2+x,1/2-y,1/2-z
1/2-x,1/2+y,1/2-z
y,x,-z
-y,-x,-z
-x,-y,-z
1/2+y,1/2-x,1/2-z
x,y,-z
1/2-y,1/2+x,1/2-z
1/2-x,1/2+y,1/2+z
1/2+x,1/2-y,1/2+z
-y,-x,z
y,x,z
loop_
_atom_site_type_symbol
_atom_site_label
_atom_site_fract_x
_atom_site_fract_y
_atom_site_fract_z
Si Si1 0.548414 0.634613 0.312385
Si Si2 0.918380 0.484808 0.815675
Si Si3 0.201412 0.488082 0.186833
Si Si4 0.261075 0.261075 0.311440
Si Si5 0.743751 0.614121 0.686852
Si Si6 0.809041 0.946272 0.313874
Si Si7 0.674248 0.325753 0.315310
O O1 0.544292 0.635741 0.500000
O O2 0.579462 0.579462 0.266875
O O3 0.587681 0.685501 0.266039
O O4 0.489162 0.645238 0.241785
O O5 0.943253 0.544151 0.778628
O O6 0.855749 0.485876 0.767353
O O7 0.922936 0.473759 0.000000
O O8 0.211220 0.427984 0.253726
O O9 0.252193 0.525412 0.234708
O O10 0.201927 0.484127 0.000000
O O11 0.259585 0.259585 0.500000
O O12 0.323568 0.249379 0.261802
O O13 0.217729 0.217729 0.250019
O O14 0.744140 0.614535 0.500000
O O15 0.810455 0.942200 0.500000
O O16 0.813226 0.886710 0.242865
O O17 0.675976 0.324025 0.500000
#
# Coordination Sequence:
#
# PCOD9569515 Si02
#       7
#    16  16  16   8  16  16   8
#     4   9  16  31  57  87 116 143 174 219 270 321
#     4  10  20  35  53  75 104 138 178 224 272 321
#     4   9  20  36  55  81 112 143 180 227 276 327
#     4  10  20  36  56  81 113 149 185 226 276 331
#     4   9  17  31  54  83 113 144 180 219 267 326
#     4  10  21  39  59  80 109 146 184 224 276 334
#     4  12  26  42  57  77 108 150 195 236 276 326
#
# _framework density 18.498708000000001
#
# number of rings (size 3 to 8) (size 9 to 14) (size 15 to 20)
#    0.000    2.333    0.833    2.250    0.000    4.333 
#    0.000    5.417    0.000    2.500    0.000    0.000 
#    0.000    0.000    0.000    0.000    0.000    0.000 
#
# Total GULP energy -535628.555734 kJ/mol
# GULP energy per Si atom -5579.464122 kJ/mol
# Density = 1.845660 g / cm^3
# Si number density = 18.498708 Si / 1000 Ang^3
#
#
#
# Elastic Constant Matrix: (Units=GPa)
#
#
# Indices 1 2 3 4 5 6 
#
# 1 98.3907 42.5606 19.7812 0.0000 0.0000 0.0000
# 2 42.5606 98.3914 19.7814 0.0000 0.0000 0.0000
# 3 19.7812 19.7814 25.7533 0.0000 0.0000 0.0000
# 4 0.0000 0.0000 0.0000 26.8419 0.0000 0.0000
# 5 0.0000 0.0000 0.0000 0.0000 26.8417 0.0000
# 6 0.0000 0.0000 0.0000 0.0000 0.0000 15.9891
#
#
#
# Elastic Compliance Matrix: (Units=1/GPa)
#
#
# Indices 1 2 3 4 5 6 
#
# 1 0.013478 -0.004433 -0.006947 0.000000 0.000000 0.000000
# 2 -0.004433 0.013478 -0.006947 0.000000 0.000000 0.000000
# 3 -0.006947 -0.006947 0.049503 0.000000 0.000000 0.000000
# 4 0.000000 0.000000 0.000000 0.037255 0.000000 0.000000
# 5 0.000000 0.000000 0.000000 0.000000 0.037256 0.000000
# 6 0.000000 0.000000 0.000000 0.000000 0.000000 0.062543
#
#
# Mechanical properties :
#
#
# Convention : Reuss Voigt Hill
#
# Bulk Modulus (GPa) = 25.12389 42.97576 34.04982
# Shear Modulus (GPa) = 18.98001 23.29533 21.13767
#
# Velocity S-wave (km/s) = 3.20663 3.55250 3.38399
# Velocity P-wave (km/s) = 5.22693 6.33319 5.80647
#
# Compressibility (1/GPa) = 0.03980276
#
# Stress axis : x y z
#
# Youngs Moduli (GPa) = 74.19495 74.19516 20.20099
#
# Poissons Ratio (x) = 0.32894 0.14034
# Poissons Ratio (y) = 0.32894 0.14034
# Poissons Ratio (z) = 0.51544 0.51546
#
# Static dielectric constant tensor:
#      x y z
#    x 1.633090 0.000000 0.000000 
#    y 0.000000 1.633090 0.000000 
#    z 0.000000 0.000000 1.625680 
# 
# From -- ./inp_files/2058.got.cif
#   From: 2010.05.17/outbox.cif.g08.bks.cpg/sg136_2_cif.got.tgz:2058.got - 2010.05.20 12:54:53.
