data_PCOD9569228
_publ_section_title
;
Structure prediction by ZEFSAII (Michael W. Deem and Ramdas Pophale) SiO2 
 PCOD9569228
Probable space group: P 42/M N M
;
_chemical_formula_sum "Si O2"
_cell_formula_units_Z 112
_cell_length_a 18.793345
_cell_length_b 18.793345
_cell_length_c 20.706997
_cell_angle_alpha 90.000000
_cell_angle_beta 90.000000
_cell_angle_gamma 90.000000
_cell_volume 7313.500466
_symmetry_space_group_name_H-M "P 42/M N M"
_symmetry_group_IT_number 136
_symmetry_cell_setting 'tetragonal'
loop_
_space_group_symop_operation_xyz
x,y,z
1/2-y,1/2+x,1/2+z
-x,-y,z
1/2+y,1/2-x,1/2+z
1/2+x,1/2-y,1/2-z
1/2-x,1/2+y,1/2-z
y,x,-z
-y,-x,-z
-x,-y,-z
1/2+y,1/2-x,1/2-z
x,y,-z
1/2-y,1/2+x,1/2-z
1/2-x,1/2+y,1/2+z
1/2+x,1/2-y,1/2+z
-y,-x,z
y,x,z
loop_
_atom_site_type_symbol
_atom_site_label
_atom_site_fract_x
_atom_site_fract_y
_atom_site_fract_z
Si Si1 0.111655 0.672355 0.769018
Si Si2 0.807149 0.075349 0.312268
Si Si3 0.647050 0.238705 0.141471
Si Si4 0.172418 0.547850 0.679687
Si Si5 0.555726 0.939124 0.923006
Si Si6 0.683154 0.431533 0.738015
Si Si7 0.780203 0.499872 0.075440
O O1 0.114831 0.743359 0.725803
O O2 0.164803 0.675772 0.829676
O O3 0.135096 0.605160 0.726376
O O4 0.030618 0.663760 0.791049
O O5 0.870856 0.129145 0.325696
O O6 0.831514 0.009786 0.266546
O O7 0.772814 0.041721 0.376886
O O8 0.709947 0.290054 0.118196
O O9 0.609746 0.277952 0.202750
O O10 0.583816 0.226561 0.091013
O O11 0.130558 0.552104 0.612833
O O12 0.256800 0.563807 0.682511
O O13 0.524188 0.860865 0.909006
O O14 0.500000 0.000000 0.901250
O O15 0.563816 0.945614 0.000000
O O16 0.613924 0.386077 0.720489
O O17 0.766519 0.513822 0.000000
#
# Coordination Sequence:
#
# PCOD9569228 Si02
#       7
#    16  16  16  16  16  16  16
#     4  10  19  29  46  74  96 124 161 209 248 296
#     4  10  19  32  50  72  98 130 165 205 253 300
#     4   9  17  31  48  66  91 124 162 207 251 285
#     4  10  19  29  47  70  97 126 163 198 244 294
#     4  10  20  32  46  66  99 137 168 200 239 291
#     4   8  17  32  48  69  93 120 156 205 256 294
#     4  10  20  34  47  68 100 133 172 206 240 291
#
# _framework density 15.314144000000001
#
# number of rings (size 3 to 8) (size 9 to 14) (size 15 to 20)
#    0.000    2.429    1.429    2.143    2.000    1.429 
#    0.000    0.000    0.000    0.429    0.000    4.000 
#    0.000    5.143    0.000    5.143    0.000    0.000 
#
# Total GULP energy -624135.206771 kJ/mol
# GULP energy per Si atom -5572.635775 kJ/mol
# Density = 1.527929 g / cm^3
# Si number density = 15.314144 Si / 1000 Ang^3
#
#
#
# Elastic Constant Matrix: (Units=GPa)
#
#
# Indices 1 2 3 4 5 6 
#
# 1 95.4256 74.4480 41.3451 0.0000 0.0000 0.0000
# 2 74.4480 95.4256 41.3451 0.0000 0.0000 0.0000
# 3 41.3451 41.3451 45.9642 0.0000 0.0000 0.0000
# 4 0.0000 0.0000 0.0000 16.8951 0.0000 0.0000
# 5 0.0000 0.0000 0.0000 0.0000 16.8951 0.0000
# 6 0.0000 0.0000 0.0000 0.0000 0.0000 32.8191
#
#
#
# Elastic Compliance Matrix: (Units=1/GPa)
#
#
# Indices 1 2 3 4 5 6 
#
# 1 0.029071 -0.018599 -0.009420 0.000000 0.000000 0.000000
# 2 -0.018599 0.029071 -0.009420 0.000000 0.000000 0.000000
# 3 -0.009420 -0.009420 0.038702 0.000000 0.000000 0.000000
# 4 0.000000 0.000000 0.000000 0.059189 0.000000 0.000000
# 5 0.000000 0.000000 0.000000 0.000000 0.059189 0.000000
# 6 0.000000 0.000000 0.000000 0.000000 0.000000 0.030470
#
#
# Mechanical properties :
#
#
# Convention : Reuss Voigt Hill
#
# Bulk Modulus (GPa) = 45.52161 61.23244 53.37702
# Shear Modulus (GPa) = 15.24900 18.63366 16.94133
#
# Velocity S-wave (km/s) = 3.15897 3.49199 3.32965
# Velocity P-wave (km/s) = 6.56469 7.50531 7.05071
#
# Compressibility (1/GPa) = 0.02196759
#
# Stress axis : x y z
#
# Youngs Moduli (GPa) = 34.39869 34.39869 25.83836
#
# Poissons Ratio (x) = 0.63978 0.24339
# Poissons Ratio (y) = 0.63978 0.24339
# Poissons Ratio (z) = 0.32402 0.32402
#
# Static dielectric constant tensor:
#      x y z
#    x 1.509800 0.000000 0.000000 
#    y 0.000000 1.509800 0.000000 
#    z 0.000000 0.000000 1.499010 
# 
# From -- ./inp_files/7783.got.cif
#   From: 2010.05.17/outbox.cif.g08.bks.cpg/sg136_4_cif.got.tgz:7783.got - 2010.05.20 12:54:53.
