data_PCOD9569962
_publ_section_title
;
Structure prediction by ZEFSAII (Michael W. Deem and Ramdas Pophale) SiO2 
 PCOD9569962
Probable space group: P 42/N M C
;
_chemical_formula_sum "Si O2"
_cell_formula_units_Z 96
_cell_length_a 20.375472
_cell_length_b 20.375472
_cell_length_c 13.541382
_cell_angle_alpha 90.000000
_cell_angle_beta 90.000000
_cell_angle_gamma 90.000000
_cell_volume 5621.838245
_symmetry_space_group_name_H-M "P 42/N M C"
_symmetry_group_IT_number 137
_space_group.IT_coordinate_system_code '2'
_symmetry_cell_setting 'tetragonal'
loop_
_space_group_symop_operation_xyz
x,y,z
1/2-y,x,1/2+z
1/2-x,1/2-y,z
y,1/2-x,1/2+z
1/2+x,-y,-z
-x,1/2+y,-z
1/2+y,1/2+x,1/2-z
-y,-x,1/2-z
-x,-y,-z
1/2+y,-x,1/2-z
1/2+x,1/2+y,-z
-y,1/2+x,1/2-z
1/2-x,y,z
x,1/2-y,z
1/2-y,1/2-x,1/2+z
y,x,1/2+z
loop_
_atom_site_type_symbol
_atom_site_label
_atom_site_fract_x
_atom_site_fract_y
_atom_site_fract_z
Si Si1 0.462374 0.170840 0.680501
Si Si2 0.673297 0.545991 0.046330
Si Si3 0.522829 0.050317 0.363572
Si Si4 0.827471 0.888166 0.625191
Si Si5 0.089210 0.673514 0.194608
Si Si6 0.894666 0.013815 0.542675
O O1 0.462775 0.250000 0.675943
O O2 0.455397 0.148528 0.568025
O O3 0.406567 0.154571 0.760977
O O4 0.530440 0.150729 0.731913
O O5 0.750000 0.527444 0.050368
O O6 0.624402 0.499412 0.108074
O O7 0.664030 0.620412 0.085296
O O8 0.538749 0.038749 0.250000
O O9 0.582964 0.027295 0.432057
O O10 0.460048 0.007519 0.397924
O O11 0.750000 0.872557 0.619048
O O12 0.843619 0.954566 0.562894
O O13 0.155207 0.655207 0.250000
O O14 0.081542 0.750000 0.178350
O O15 0.077730 0.635785 0.093159
#
# Coordination Sequence:
#
# PCOD9569962 Si02
#       6
#    16  16  16  16  16  16
#     4   8  16  32  49  65  89 125 161 191 231 282
#     4  10  20  33  50  71  99 135 169 197 235 295
#     4  10  20  33  50  72  98 126 164 211 247 281
#     4   9  18  32  51  75 102 128 160 204 249 293
#     4  10  18  29  48  71  96 122 151 191 242 298
#     4   9  18  32  51  71  94 126 162 201 250 294
#
# _framework density 17.076266
#
# number of rings (size 3 to 8) (size 9 to 14) (size 15 to 20)
#    0.000    2.667    0.000    3.000    0.000   11.167 
#    0.000    4.167    0.000    3.000    0.000    0.000 
#    0.000    3.000    0.000    0.000    0.000    0.000 
#
# Total GULP energy -534923.660652 kJ/mol
# GULP energy per Si atom -5572.121465 kJ/mol
# Density = 1.703740 g / cm^3
# Si number density = 17.076266 Si / 1000 Ang^3
#
#
#
# Elastic Constant Matrix: (Units=GPa)
#
#
# Indices 1 2 3 4 5 6 
#
# 1 41.6072 13.1062 34.1161 0.0000 0.0000 0.0000
# 2 13.1062 41.6072 34.1161 0.0000 0.0000 0.0000
# 3 34.1161 34.1161 146.4508 0.0000 0.0000 0.0000
# 4 0.0000 0.0000 0.0000 21.2321 0.0000 0.0000
# 5 0.0000 0.0000 0.0000 0.0000 21.2321 0.0000
# 6 0.0000 0.0000 0.0000 0.0000 0.0000 21.0619
#
#
#
# Elastic Compliance Matrix: (Units=1/GPa)
#
#
# Indices 1 2 3 4 5 6 
#
# 1 0.030424 -0.004663 -0.006001 0.000000 0.000000 0.000000
# 2 -0.004663 0.030424 -0.006001 0.000000 0.000000 0.000000
# 3 -0.006001 -0.006001 0.009624 0.000000 0.000000 0.000000
# 4 0.000000 0.000000 0.000000 0.047099 0.000000 0.000000
# 5 0.000000 0.000000 0.000000 0.000000 0.047099 0.000000
# 6 0.000000 0.000000 0.000000 0.000000 0.000000 0.047479
#
#
# Mechanical properties :
#
#
# Convention : Reuss Voigt Hill
#
# Bulk Modulus (GPa) = 26.92392 43.59357 35.25875
# Shear Modulus (GPa) = 19.39051 22.59366 20.99208
#
# Velocity S-wave (km/s) = 3.37341 3.64139 3.50996
# Velocity P-wave (km/s) = 5.56545 6.57753 6.09254
#
# Compressibility (1/GPa) = 0.03714169
#
# Stress axis : x y z
#
# Youngs Moduli (GPa) = 32.86916 32.86916 103.90513
#
# Poissons Ratio (x) = 0.15326 0.62354
# Poissons Ratio (y) = 0.15326 0.62354
# Poissons Ratio (z) = 0.19725 0.19725
#
# Static dielectric constant tensor:
#      x y z
#    x 1.597310 0.000000 0.000000 
#    y 0.000000 1.597310 0.000000 
#    z 0.000000 0.000000 1.595600 
# 
# From -- ./inp_files/3765.got.cif
#   From: 2010.05.17/outbox.cif.g08.bks.cpg/sg137_2_cif.got.tgz:3765.got - 2010.05.20 13:01:12.
