data_PCOD9569820
_publ_section_title
;
Structure prediction by ZEFSAII (Michael W. Deem and Ramdas Pophale) SiO2 
 PCOD9569820
Probable space group: P 42/M N M
;
_chemical_formula_sum "Si O2"
_cell_formula_units_Z 104
_cell_length_a 16.397589
_cell_length_b 16.397589
_cell_length_c 22.943252
_cell_angle_alpha 90.000000
_cell_angle_beta 90.000000
_cell_angle_gamma 90.000000
_cell_volume 6169.002821
_symmetry_space_group_name_H-M "P 42/M N M"
_symmetry_group_IT_number 136
_symmetry_cell_setting 'tetragonal'
loop_
_space_group_symop_operation_xyz
x,y,z
1/2-y,1/2+x,1/2+z
-x,-y,z
1/2+y,1/2-x,1/2+z
1/2+x,1/2-y,1/2-z
1/2-x,1/2+y,1/2-z
y,x,-z
-y,-x,-z
-x,-y,-z
1/2+y,1/2-x,1/2-z
x,y,-z
1/2-y,1/2+x,1/2-z
1/2-x,1/2+y,1/2+z
1/2+x,1/2-y,1/2+z
-y,-x,z
y,x,z
loop_
_atom_site_type_symbol
_atom_site_label
_atom_site_fract_x
_atom_site_fract_y
_atom_site_fract_z
Si Si1 0.785160 0.351910 0.857773
Si Si2 0.666968 0.803502 0.141216
Si Si3 0.288965 0.584344 0.431173
Si Si4 0.936975 0.063025 0.570191
Si Si5 0.089802 0.395461 0.749869
Si Si6 0.486487 0.254033 0.929887
Si Si7 0.898070 0.234279 0.932797
O O1 0.705840 0.294161 0.844498
O O2 0.833908 0.388760 0.802865
O O3 0.763343 0.426957 0.900226
O O4 0.848728 0.294861 0.892042
O O5 0.718774 0.718774 0.152166
O O6 0.729385 0.861031 0.106820
O O7 0.635028 0.851474 0.197975
O O8 0.588365 0.793253 0.099652
O O9 0.269633 0.593509 0.500000
O O10 0.379530 0.620471 0.423071
O O11 0.277918 0.490877 0.415230
O O12 0.940876 0.059125 0.500000
O O13 0.963070 0.153262 0.584710
O O14 0.000000 0.000000 0.596465
O O15 0.108094 0.491889 0.737197
O O16 0.489361 0.242827 0.000000
O O17 0.851395 0.148606 0.931199
O O18 0.895144 0.263682 0.000000
#
# Coordination Sequence:
#
# PCOD9569820 Si02
#       7
#    16  16  16   8  16  16  16
#     4  11  22  38  58  82 113 150 191 234 283 341
#     4  11  21  37  58  82 113 149 190 235 284 340
#     4   9  18  32  53  81 111 143 180 226 281 340
#     4   9  18  32  52  82 118 152 183 223 278 338
#     4  11  23  40  60  80 109 145 194 244 282 332
#     4  11  21  35  57  86 118 151 188 232 284 343
#     4   9  18  33  53  79 111 144 180 226 281 341
#
# _framework density 16.858478999999999
#
# number of rings (size 3 to 8) (size 9 to 14) (size 15 to 20)
#    0.000    1.769    2.308    2.769    0.000    2.462 
#    0.000    1.538    0.000    3.692    0.000    0.000 
#    0.000    0.000    0.000    0.000    0.000    0.000 
#
# Total GULP energy -579464.988604 kJ/mol
# GULP energy per Si atom -5571.778737 kJ/mol
# Density = 1.682011 g / cm^3
# Si number density = 16.858479 Si / 1000 Ang^3
#
#
#
# Elastic Constant Matrix: (Units=GPa)
#
#
# Indices 1 2 3 4 5 6 
#
# 1 120.0566 44.1823 55.4577 0.0000 0.0000 0.0000
# 2 44.1823 120.0565 55.4580 0.0000 0.0000 0.0000
# 3 55.4577 55.4580 81.1540 0.0000 0.0000 0.0000
# 4 0.0000 0.0000 0.0000 27.9263 0.0000 0.0000
# 5 0.0000 0.0000 0.0000 0.0000 27.9263 0.0000
# 6 0.0000 0.0000 0.0000 0.0000 0.0000 22.4380
#
#
#
# Elastic Compliance Matrix: (Units=1/GPa)
#
#
# Indices 1 2 3 4 5 6 
#
# 1 0.012243 -0.000936 -0.007727 0.000000 0.000000 0.000000
# 2 -0.000936 0.012243 -0.007727 0.000000 0.000000 0.000000
# 3 -0.007727 -0.007727 0.022882 0.000000 0.000000 0.000000
# 4 0.000000 0.000000 0.000000 0.035809 0.000000 0.000000
# 5 0.000000 0.000000 0.000000 0.000000 0.035809 0.000000
# 6 0.000000 0.000000 0.000000 0.000000 0.000000 0.044567
#
#
# Mechanical properties :
#
#
# Convention : Reuss Voigt Hill
#
# Bulk Modulus (GPa) = 68.54283 70.16256 69.35270
# Shear Modulus (GPa) = 24.85141 26.73607 25.79374
#
# Velocity S-wave (km/s) = 3.84359 3.98667 3.91579
# Velocity P-wave (km/s) = 7.77455 7.93097 7.85315
#
# Compressibility (1/GPa) = 0.01458942
#
# Stress axis : x y z
#
# Youngs Moduli (GPa) = 81.67813 81.67763 43.70156
#
# Poissons Ratio (x) = 0.07649 0.33766
# Poissons Ratio (y) = 0.07649 0.33767
# Poissons Ratio (z) = 0.63109 0.63110
#
# Static dielectric constant tensor:
#      x y z
#    x 1.570730 0.000000 0.000000 
#    y 0.000000 1.570730 0.000000 
#    z 0.000000 0.000000 1.558010 
# 
# From -- ./inp_files/8522.got.cif
#   From: 2010.05.17/outbox.cif.g08.bks.cpg/sg136_5_cif.got.tgz:8522.got - 2010.05.20 12:54:53.
