data_PCOD9569583
_publ_section_title
;
Structure prediction by ZEFSAII (Michael W. Deem and Ramdas Pophale) SiO2 
 PCOD9569583
Probable space group: P 42/M N M
;
_chemical_formula_sum "Si O2"
_cell_formula_units_Z 48
_cell_length_a 11.002591
_cell_length_b 11.002591
_cell_length_c 19.048059
_cell_angle_alpha 90.000000
_cell_angle_beta 90.000000
_cell_angle_gamma 90.000000
_cell_volume 2305.901044
_symmetry_space_group_name_H-M "P 42/M N M"
_symmetry_group_IT_number 136
_symmetry_cell_setting 'tetragonal'
loop_
_space_group_symop_operation_xyz
x,y,z
1/2-y,1/2+x,1/2+z
-x,-y,z
1/2+y,1/2-x,1/2+z
1/2+x,1/2-y,1/2-z
1/2-x,1/2+y,1/2-z
y,x,-z
-y,-x,-z
-x,-y,-z
1/2+y,1/2-x,1/2-z
x,y,-z
1/2-y,1/2+x,1/2-z
1/2-x,1/2+y,1/2+z
1/2+x,1/2-y,1/2+z
-y,-x,z
y,x,z
loop_
_atom_site_type_symbol
_atom_site_label
_atom_site_fract_x
_atom_site_fract_y
_atom_site_fract_z
Si Si1 0.240728 0.759273 0.920280
Si Si2 0.903637 0.903637 0.315135
Si Si3 0.680785 0.962632 0.773919
Si Si4 0.551116 0.252292 0.422089
O O1 0.323411 0.676590 0.869507
O O2 0.094215 0.747178 0.914534
O O3 0.274245 0.725756 0.000000
O O4 0.970297 0.809902 0.262864
O O5 0.000000 0.000000 0.345415
O O6 0.593923 0.880298 0.726365
O O7 0.685685 0.905707 0.851611
O O8 0.581973 0.202811 0.500000
O O9 0.614337 0.385664 0.419751
#
# Coordination Sequence:
#
# PCOD9569583 Si02
#       4
#     8   8  16  16
#     4  10  21  41  62  92 136 169 212 271 328 390
#     4  12  26  38  66  96 128 173 219 262 324 396
#     4  11  24  42  63  92 129 169 216 269 325 386
#     4  10  20  36  64  97 126 164 214 273 331 379
#
# _framework density 20.816158000000001
#
# number of rings (size 3 to 8) (size 9 to 14) (size 15 to 20)
#    0.000    1.333    5.000    0.500    4.667    2.333 
#    0.000    5.000    0.000    0.000    0.000    0.000 
#    0.000    0.000    0.000    0.000    0.000    0.000 
#
# Total GULP energy -267409.904215 kJ/mol
# GULP energy per Si atom -5571.039671 kJ/mol
# Density = 2.076878 g / cm^3
# Si number density = 20.816158 Si / 1000 Ang^3
#
#
#
# Elastic Constant Matrix: (Units=GPa)
#
#
# Indices 1 2 3 4 5 6 
#
# 1 93.9767 12.4627 29.0015 0.0000 0.0000 0.0000
# 2 12.4627 93.9773 29.0021 0.0000 0.0000 0.0000
# 3 29.0015 29.0021 154.4754 0.0000 0.0000 0.0000
# 4 0.0000 0.0000 0.0000 23.6126 0.0000 0.0000
# 5 0.0000 0.0000 0.0000 0.0000 23.6124 0.0000
# 6 0.0000 0.0000 0.0000 0.0000 0.0000 35.0691
#
#
#
# Elastic Compliance Matrix: (Units=1/GPa)
#
#
# Indices 1 2 3 4 5 6 
#
# 1 0.011367 -0.000901 -0.001965 0.000000 0.000000 0.000000
# 2 -0.000901 0.011367 -0.001965 0.000000 0.000000 0.000000
# 3 -0.001965 -0.001965 0.007211 0.000000 0.000000 0.000000
# 4 0.000000 0.000000 0.000000 0.042350 0.000000 0.000000
# 5 0.000000 0.000000 0.000000 0.000000 0.042351 0.000000
# 6 0.000000 0.000000 0.000000 0.000000 0.000000 0.028515
#
#
# Mechanical properties :
#
#
# Convention : Reuss Voigt Hill
#
# Bulk Modulus (GPa) = 49.30170 53.70689 51.50429
# Shear Modulus (GPa) = 31.33155 34.58969 32.96062
#
# Velocity S-wave (km/s) = 3.88384 4.08079 3.98353
# Velocity P-wave (km/s) = 6.62179 6.93256 6.77895
#
# Compressibility (1/GPa) = 0.02028328
#
# Stress axis : x y z
#
# Youngs Moduli (GPa) = 87.97559 87.97597 138.67099
#
# Poissons Ratio (x) = 0.07927 0.27247
# Poissons Ratio (y) = 0.07927 0.27247
# Poissons Ratio (z) = 0.17286 0.17286
#
# Static dielectric constant tensor:
#      x y z
#    x 1.763960 0.000000 0.000000 
#    y 0.000000 1.763960 0.000000 
#    z 0.000000 0.000000 1.803290 
# 
# From -- ./inp_files/5744.got.cif
#   From: 2010.05.17/outbox.cif.g08.bks.cpg/sg136_3_cif.got.tgz:5744.got - 2010.05.20 12:54:53.
