data_PCOD9569508
_publ_section_title
;
Structure prediction by ZEFSAII (Michael W. Deem and Ramdas Pophale) SiO2 
 PCOD9569508
Probable space group: P 42/M N M
;
_chemical_formula_sum "Si O2"
_cell_formula_units_Z 76
_cell_length_a 11.328993
_cell_length_b 11.328993
_cell_length_c 30.617037
_cell_angle_alpha 90.000000
_cell_angle_beta 90.000000
_cell_angle_gamma 90.000000
_cell_volume 3929.576753
_symmetry_space_group_name_H-M "P 42/M N M"
_symmetry_group_IT_number 136
_symmetry_cell_setting 'tetragonal'
loop_
_space_group_symop_operation_xyz
x,y,z
1/2-y,1/2+x,1/2+z
-x,-y,z
1/2+y,1/2-x,1/2+z
1/2+x,1/2-y,1/2-z
1/2-x,1/2+y,1/2-z
y,x,-z
-y,-x,-z
-x,-y,-z
1/2+y,1/2-x,1/2-z
x,y,-z
1/2-y,1/2+x,1/2-z
1/2-x,1/2+y,1/2+z
1/2+x,1/2-y,1/2+z
-y,-x,z
y,x,z
loop_
_atom_site_type_symbol
_atom_site_label
_atom_site_fract_x
_atom_site_fract_y
_atom_site_fract_z
Si Si1 0.022128 0.641245 0.596089
Si Si2 0.302010 0.697991 0.404942
Si Si3 0.020906 0.641023 0.500000
Si Si4 0.731307 0.931993 0.313317
Si Si5 0.933720 0.259277 0.231623
Si Si6 0.898935 0.898935 0.183065
Si Si7 0.299496 0.700504 0.500000
O O1 0.161931 0.670967 0.598389
O O2 0.976985 0.681327 0.547821
O O3 0.000000 0.500000 0.599469
O O4 0.959655 0.703478 0.636748
O O5 0.367556 0.632444 0.366052
O O6 0.343797 0.656204 0.453140
O O7 0.159635 0.673633 0.500000
O O8 0.000000 0.500000 0.500000
O O9 0.842189 0.842189 0.309853
O O10 0.616125 0.877347 0.289270
O O11 0.750618 0.045818 0.283153
O O12 0.834754 0.165247 0.219007
O O13 0.052514 0.214990 0.208417
O O14 0.000000 0.000000 0.184902
#
# Coordination Sequence:
#
# PCOD9569508 Si02
#       7
#    16   8   8  16  16   8   4
#     4  10  21  36  58  86 110 146 187 236 275 335
#     4  10  20  34  60  84 110 147 189 225 284 328
#     4   8  16  34  55  78 113 142 178 226 290 326
#     4  11  24  37  54  81 112 141 188 228 270 330
#     4  10  23  38  53  74 110 148 180 226 278 327
#     4  10  20  38  53  73 109 151 178 222 282 329
#     4   8  16  32  51  84 113 136 180 236 266 334
#
# _framework density 19.340502999999998
#
# number of rings (size 3 to 8) (size 9 to 14) (size 15 to 20)
#    0.000    2.105    1.053    1.263    7.368    0.000 
#    0.000    0.789    0.000    0.000    0.000   17.684 
#    0.000    0.000    0.000    0.000    0.000    0.000 
#
# Total GULP energy -423466.842877 kJ/mol
# GULP energy per Si atom -5571.932143 kJ/mol
# Density = 1.929648 g / cm^3
# Si number density = 19.340503 Si / 1000 Ang^3
#
#
#
# Elastic Constant Matrix: (Units=GPa)
#
#
# Indices 1 2 3 4 5 6 
#
# 1 34.9111 28.5151 1.8811 0.0000 0.0000 0.0000
# 2 28.5151 34.9117 1.8811 0.0000 0.0000 0.0000
# 3 1.8811 1.8811 155.6183 0.0000 0.0000 0.0000
# 4 0.0000 0.0000 0.0000 19.8887 0.0000 0.0000
# 5 0.0000 0.0000 0.0000 0.0000 19.8885 0.0000
# 6 0.0000 0.0000 0.0000 0.0000 0.0000 27.2229
#
#
#
# Elastic Compliance Matrix: (Units=1/GPa)
#
#
# Indices 1 2 3 4 5 6 
#
# 1 0.086059 -0.070281 -0.000191 0.000000 0.000000 0.000000
# 2 -0.070281 0.086058 -0.000191 0.000000 0.000000 0.000000
# 3 -0.000191 -0.000191 0.006431 0.000000 0.000000 0.000000
# 4 0.000000 0.000000 0.000000 0.050280 0.000000 0.000000
# 5 0.000000 0.000000 0.000000 0.000000 0.050280 0.000000
# 6 0.000000 0.000000 0.000000 0.000000 0.000000 0.036734
#
#
# Mechanical properties :
#
#
# Convention : Reuss Voigt Hill
#
# Bulk Modulus (GPa) = 26.86518 32.22174 29.54346
# Shear Modulus (GPa) = 10.64794 26.27762 18.46278
#
# Velocity S-wave (km/s) = 2.34893 3.69003 3.09304
# Velocity P-wave (km/s) = 4.61274 5.90352 5.29759
#
# Compressibility (1/GPa) = 0.03722290
#
# Stress axis : x y z
#
# Youngs Moduli (GPa) = 11.61988 11.62006 155.50668
#
# Poissons Ratio (x) = 0.81667 0.02966
# Poissons Ratio (y) = 0.81666 0.02966
# Poissons Ratio (z) = 0.00222 0.00222
#
# Static dielectric constant tensor:
#      x y z
#    x 1.706210 0.000000 0.000000 
#    y 0.000000 1.706210 0.000000 
#    z 0.000000 0.000000 1.699670 
# 
# From -- ./inp_files/9643.got.cif
#   From: 2010.05.17/outbox.cif.g08.bks.cpg/sg136_5_cif.got.tgz:9643.got - 2010.05.20 12:54:53.
