data_PCOD9569567
_publ_section_title
;
Structure prediction by ZEFSAII (Michael W. Deem and Ramdas Pophale) SiO2 
 PCOD9569567
Probable space group: P 42/M N M
;
_chemical_formula_sum "Si O2"
_cell_formula_units_Z 72
_cell_length_a 20.453840
_cell_length_b 20.453840
_cell_length_c 8.047363
_cell_angle_alpha 90.000000
_cell_angle_beta 90.000000
_cell_angle_gamma 90.000000
_cell_volume 3366.691330
_symmetry_space_group_name_H-M "P 42/M N M"
_symmetry_group_IT_number 136
_symmetry_cell_setting 'tetragonal'
loop_
_space_group_symop_operation_xyz
x,y,z
1/2-y,1/2+x,1/2+z
-x,-y,z
1/2+y,1/2-x,1/2+z
1/2+x,1/2-y,1/2-z
1/2-x,1/2+y,1/2-z
y,x,-z
-y,-x,-z
-x,-y,-z
1/2+y,1/2-x,1/2-z
x,y,-z
1/2-y,1/2+x,1/2-z
1/2-x,1/2+y,1/2+z
1/2+x,1/2-y,1/2+z
-y,-x,z
y,x,z
loop_
_atom_site_type_symbol
_atom_site_label
_atom_site_fract_x
_atom_site_fract_y
_atom_site_fract_z
Si Si1 0.906637 0.713404 0.203423
Si Si2 0.071520 0.570354 0.691353
Si Si3 0.231442 0.231442 0.203423
Si Si4 0.553627 0.446374 0.199419
Si Si5 0.837408 0.162593 0.696878
Si Si6 0.688057 0.513630 0.697443
O O1 0.899288 0.638359 0.255149
O O2 0.841748 0.751117 0.255119
O O3 0.972301 0.749753 0.262024
O O4 0.908975 0.712197 0.000000
O O5 0.083316 0.492297 0.701145
O O6 0.058931 0.589090 0.500000
O O7 0.284725 0.284725 0.262920
O O8 0.232352 0.232352 0.000000
O O9 0.500000 0.500000 0.254005
O O10 0.529030 0.376222 0.260792
O O11 0.554605 0.445396 0.000000
O O12 0.833357 0.166644 0.500000
O O13 0.912243 0.179418 0.742338
O O14 0.693682 0.517117 0.500000
#
# Coordination Sequence:
#
# PCOD9569567 Si02
#       6
#    16  16   8   8   8  16
#     4   9  20  37  60  87 114 152 198 239 285 348
#     4  10  20  36  58  85 115 148 191 242 291 342
#     4   9  19  38  59  82 116 155 195 236 290 355
#     4  11  22  37  57  83 119 151 190 243 288 337
#     4  11  23  37  59  90 123 155 191 241 298 355
#     4  11  22  38  62  88 116 154 199 242 287 348
#
# _framework density 21.385981000000001
#
# number of rings (size 3 to 8) (size 9 to 14) (size 15 to 20)
#    0.000    1.889    1.111    3.333    3.111    2.222 
#    0.000    3.333    0.000    8.000    0.000    0.000 
#    0.000    0.000    0.000    0.000    0.000    0.000 
#
# Total GULP energy -402212.183016 kJ/mol
# GULP energy per Si atom -5586.280320 kJ/mol
# Density = 2.133731 g / cm^3
# Si number density = 21.385981 Si / 1000 Ang^3
#
#
#
# Elastic Constant Matrix: (Units=GPa)
#
#
# Indices 1 2 3 4 5 6 
#
# 1 52.4068 19.4837 -4.4515 0.0000 0.0000 0.0000
# 2 19.4837 52.4067 -4.4518 0.0000 0.0000 0.0000
# 3 -4.4515 -4.4518 29.6414 0.0000 0.0000 0.0000
# 4 0.0000 0.0000 0.0000 2.0979 0.0000 0.0000
# 5 0.0000 0.0000 0.0000 0.0000 2.0977 0.0000
# 6 0.0000 0.0000 0.0000 0.0000 0.0000 39.5510
#
#
#
# Elastic Compliance Matrix: (Units=1/GPa)
#
#
# Indices 1 2 3 4 5 6 
#
# 1 0.022274 -0.008100 0.002128 0.000000 0.000000 0.000000
# 2 -0.008100 0.022274 0.002129 0.000000 0.000000 0.000000
# 3 0.002128 0.002129 0.034376 0.000000 0.000000 0.000000
# 4 0.000000 0.000000 0.000000 0.476659 0.000000 0.000000
# 5 0.000000 0.000000 0.000000 0.000000 0.476718 0.000000
# 6 0.000000 0.000000 0.000000 0.000000 0.000000 0.025284
#
#
# Mechanical properties :
#
#
# Convention : Reuss Voigt Hill
#
# Bulk Modulus (GPa) = 14.03747 17.29063 15.66405
# Shear Modulus (GPa) = 4.59130 17.00762 10.79946
#
# Velocity S-wave (km/s) = 1.46681 2.82311 2.24961
# Velocity P-wave (km/s) = 3.07357 4.32772 3.75340
#
# Compressibility (1/GPa) = 0.07123791
#
# Stress axis : x y z
#
# Youngs Moduli (GPa) = 44.89596 44.89581 29.09011
#
# Poissons Ratio (x) = 0.36366 -0.06192
# Poissons Ratio (y) = 0.36366 -0.06193
# Poissons Ratio (z) = -0.09556 -0.09557
#
# Static dielectric constant tensor:
#      x y z
#    x 2.285300 0.000000 0.000000 
#    y 0.000000 2.285290 0.000000 
#    z 0.000000 0.000000 1.739960 
# 
# From -- ./inp_files/1622.got.cif
#   From: 2010.05.17/outbox.cif.g08.bks.cpg/sg136_1_cif.got.tgz:1622.got - 2010.05.20 12:54:53.
