data_PCOD9569956
_publ_section_title
;
Structure prediction by ZEFSAII (Michael W. Deem and Ramdas Pophale) SiO2 
 PCOD9569956
Probable space group: P 42/N M C
;
_chemical_formula_sum "Si O2"
_cell_formula_units_Z 80
_cell_length_a 14.060999
_cell_length_b 14.060999
_cell_length_c 26.876848
_cell_angle_alpha 90.000000
_cell_angle_beta 90.000000
_cell_angle_gamma 90.000000
_cell_volume 5313.867117
_symmetry_space_group_name_H-M "P 42/N M C"
_symmetry_group_IT_number 137
_space_group.IT_coordinate_system_code '2'
_symmetry_cell_setting 'tetragonal'
loop_
_space_group_symop_operation_xyz
x,y,z
1/2-y,x,1/2+z
1/2-x,1/2-y,z
y,1/2-x,1/2+z
1/2+x,-y,-z
-x,1/2+y,-z
1/2+y,1/2+x,1/2-z
-y,-x,1/2-z
-x,-y,-z
1/2+y,-x,1/2-z
1/2+x,1/2+y,-z
-y,1/2+x,1/2-z
1/2-x,y,z
x,1/2-y,z
1/2-y,1/2-x,1/2+z
y,x,1/2+z
loop_
_atom_site_type_symbol
_atom_site_label
_atom_site_fract_x
_atom_site_fract_y
_atom_site_fract_z
Si Si1 0.863120 0.022076 0.999610
Si Si2 0.864874 0.143013 0.098339
Si Si3 0.023271 0.361667 0.955614
Si Si4 0.359891 0.358736 0.854213
Si Si5 0.136353 0.953534 0.798356
O O1 0.750000 0.022407 0.991862
O O2 0.886169 0.074898 0.052127
O O3 0.906432 0.917080 0.006517
O O4 0.923491 0.082572 0.959941
O O5 0.750000 0.146402 0.100181
O O6 0.900263 0.250000 0.090040
O O7 0.894728 0.102739 0.151779
O O8 0.012474 0.250000 0.966856
O O9 0.071604 0.369824 0.901418
O O10 0.250000 0.375862 0.871269
O O11 0.366068 0.250000 0.836747
O O12 0.379176 0.436279 0.812167
O O13 0.250000 0.938217 0.791497
O O14 0.082598 0.917403 0.750000
#
# Coordination Sequence:
#
# PCOD9569956 Si02
#       5
#    16  16  16  16  16
#     4  10  19  31  46  69 100 129 160 197 239 282
#     4   9  16  26  40  61  93 126 150 179 227 281
#     4  10  19  30  48  71  93 124 166 201 233 278
#     4   9  17  31  50  70  92 119 155 198 236 272
#     4  10  18  28  44  69  94 118 148 185 231 282
#
# _framework density 15.054949000000001
#
# number of rings (size 3 to 8) (size 9 to 14) (size 15 to 20)
#    0.000    2.400    2.000    1.800    0.000    3.400 
#    0.000    0.000    0.000    1.200    0.000    0.000 
#    0.000    0.000    0.000    0.000    0.000    0.000 
#
# Total GULP energy -445658.630265 kJ/mol
# GULP energy per Si atom -5570.732878 kJ/mol
# Density = 1.502068 g / cm^3
# Si number density = 15.054949 Si / 1000 Ang^3
#
#
#
# Elastic Constant Matrix: (Units=GPa)
#
#
# Indices 1 2 3 4 5 6 
#
# 1 83.7913 35.3763 21.8908 0.0000 0.0000 0.0000
# 2 35.3763 83.7920 21.8909 0.0000 0.0000 0.0000
# 3 21.8908 21.8909 49.4465 0.0000 0.0000 0.0000
# 4 0.0000 0.0000 0.0000 24.3621 0.0000 0.0000
# 5 0.0000 0.0000 0.0000 0.0000 24.3624 0.0000
# 6 0.0000 0.0000 0.0000 0.0000 0.0000 17.6761
#
#
#
# Elastic Compliance Matrix: (Units=1/GPa)
#
#
# Indices 1 2 3 4 5 6 
#
# 1 0.015338 -0.005317 -0.004437 0.000000 0.000000 0.000000
# 2 -0.005317 0.015338 -0.004437 0.000000 0.000000 0.000000
# 3 -0.004437 -0.004437 0.024152 0.000000 0.000000 0.000000
# 4 0.000000 0.000000 0.000000 0.041047 0.000000 0.000000
# 5 0.000000 0.000000 0.000000 0.000000 0.041047 0.000000
# 6 0.000000 0.000000 0.000000 0.000000 0.000000 0.056574
#
#
# Mechanical properties :
#
#
# Convention : Reuss Voigt Hill
#
# Bulk Modulus (GPa) = 37.80933 41.70513 39.75723
# Shear Modulus (GPa) = 21.67388 22.47157 22.07272
#
# Velocity S-wave (km/s) = 3.79839 3.86766 3.83318
# Velocity P-wave (km/s) = 6.66377 6.90703 6.78649
#
# Compressibility (1/GPa) = 0.02644850
#
# Stress axis : x y z
#
# Youngs Moduli (GPa) = 65.19697 65.19750 41.40393
#
# Poissons Ratio (x) = 0.34662 0.18370
# Poissons Ratio (y) = 0.34662 0.18370
# Poissons Ratio (z) = 0.28926 0.28926
#
# Static dielectric constant tensor:
#      x y z
#    x 1.520980 0.000000 0.000000 
#    y 0.000000 1.520980 0.000000 
#    z 0.000000 0.000000 1.479690 
# 
# From -- ./inp_files/7545.got.cif
#   From: 2010.05.17/outbox.cif.g08.bks.cpg/sg137_4_cif.got.tgz:7545.got - 2010.05.20 13:01:12.
