data_PCOD9569100
_publ_section_title
;
Structure prediction by ZEFSAII (Michael W. Deem and Ramdas Pophale) SiO2 
 PCOD9569100
Probable space group: P 42/M N M
;
_chemical_formula_sum "Si O2"
_cell_formula_units_Z 72
_cell_length_a 24.036957
_cell_length_b 24.036957
_cell_length_c 7.414978
_cell_angle_alpha 90.000000
_cell_angle_beta 90.000000
_cell_angle_gamma 90.000000
_cell_volume 4284.191152
_symmetry_space_group_name_H-M "P 42/M N M"
_symmetry_group_IT_number 136
_symmetry_cell_setting 'tetragonal'
loop_
_space_group_symop_operation_xyz
x,y,z
1/2-y,1/2+x,1/2+z
-x,-y,z
1/2+y,1/2-x,1/2+z
1/2+x,1/2-y,1/2-z
1/2-x,1/2+y,1/2-z
y,x,-z
-y,-x,-z
-x,-y,-z
1/2+y,1/2-x,1/2-z
x,y,-z
1/2-y,1/2+x,1/2-z
1/2-x,1/2+y,1/2+z
1/2+x,1/2-y,1/2+z
-y,-x,z
y,x,z
loop_
_atom_site_type_symbol
_atom_site_label
_atom_site_fract_x
_atom_site_fract_y
_atom_site_fract_z
Si Si1 0.789205 0.306423 0.209412
Si Si2 0.045636 0.954365 0.720608
Si Si3 0.011478 0.832072 0.286660
Si Si4 0.798777 0.890301 0.720896
Si Si5 0.781809 0.127987 0.782700
O O1 0.741527 0.258474 0.212052
O O2 0.757901 0.360313 0.285128
O O3 0.843029 0.274878 0.285618
O O4 0.801624 0.318932 0.000000
O O5 0.047058 0.952943 0.500000
O O6 0.106992 0.971674 0.784236
O O7 0.000000 0.000000 0.771943
O O8 0.002908 0.839529 0.500000
O O9 0.064228 0.792173 0.262446
O O10 0.952985 0.808986 0.216696
O O11 0.796662 0.889592 0.500000
O O12 0.850708 0.850708 0.770609
O O13 0.834244 0.165757 0.719870
O O14 0.780920 0.132481 0.000000
#
# Coordination Sequence:
#
# PCOD9569100 Si02
#       5
#    16   8  16  16  16
#     4   7  11  21  37  54  69  89 122 159 188 216
#     4   9  16  24  33  49  75 105 131 151 175 208
#     4  10  17  24  37  57  78  98 123 157 189 218
#     4   8  13  22  37  56  74  94 125 161 189 212
#     4   9  16  26  39  53  72  99 127 154 185 221
#
# _framework density 16.805972000000001
#
# number of rings (size 3 to 8) (size 9 to 14) (size 15 to 20)
#    0.000    3.444    1.111    3.333    0.000    2.667 
#    0.000    0.000    0.000    4.667    0.000    3.111 
#    0.000    0.889    0.000   11.111    0.000    0.000 
#
# Total GULP energy -400952.833118 kJ/mol
# GULP energy per Si atom -5568.789349 kJ/mol
# Density = 1.676772 g / cm^3
# Si number density = 16.805972 Si / 1000 Ang^3
#
#
#
# Elastic Constant Matrix: (Units=GPa)
#
#
# Indices 1 2 3 4 5 6 
#
# 1 117.9210 100.7639 0.5900 0.0000 0.0000 0.0000
# 2 100.7639 117.9209 0.5899 0.0000 0.0000 0.0000
# 3 0.5900 0.5899 51.6126 0.0000 0.0000 0.0000
# 4 0.0000 0.0000 0.0000 6.4951 0.0000 0.0000
# 5 0.0000 0.0000 0.0000 0.0000 6.4950 0.0000
# 6 0.0000 0.0000 0.0000 0.0000 0.0000 25.7921
#
#
#
# Elastic Compliance Matrix: (Units=1/GPa)
#
#
# Indices 1 2 3 4 5 6 
#
# 1 0.031429 -0.026856 -0.000052 0.000000 0.000000 0.000000
# 2 -0.026856 0.031429 -0.000052 0.000000 0.000000 0.000000
# 3 -0.000052 -0.000052 0.019376 0.000000 0.000000 0.000000
# 4 0.000000 0.000000 0.000000 0.153963 0.000000 0.000000
# 5 0.000000 0.000000 0.000000 0.000000 0.153964 0.000000
# 6 0.000000 0.000000 0.000000 0.000000 0.000000 0.038772
#
#
# Mechanical properties :
#
#
# Convention : Reuss Voigt Hill
#
# Bulk Modulus (GPa) = 35.31901 54.59355 44.95628
# Shear Modulus (GPa) = 10.15658 20.12383 15.14021
#
# Velocity S-wave (km/s) = 2.46101 3.46413 3.00473
# Velocity P-wave (km/s) = 5.39785 6.96817 6.23266
#
# Compressibility (1/GPa) = 0.02831337
#
# Stress axis : x y z
#
# Youngs Moduli (GPa) = 31.81775 31.81771 51.60944
#
# Poissons Ratio (x) = 0.85449 0.00270
# Poissons Ratio (y) = 0.85450 0.00270
# Poissons Ratio (z) = 0.00166 0.00166
#
# Static dielectric constant tensor:
#      x y z
#    x 1.573820 0.000000 0.000000 
#    y 0.000000 1.573820 0.000000 
#    z 0.000000 0.000000 1.667790 
# 
# From -- ./inp_files/1708.got.cif
#   From: 2010.05.17/outbox.cif.g08.bks.cpg/sg136_1_cif.got.tgz:1708.got - 2010.05.20 12:54:53.
