data_PCOD9569519
_publ_section_title
;
Structure prediction by ZEFSAII (Michael W. Deem and Ramdas Pophale) SiO2 
 PCOD9569519
Probable space group: P 42/M N M
;
_chemical_formula_sum "Si O2"
_cell_formula_units_Z 120
_cell_length_a 13.527071
_cell_length_b 13.527071
_cell_length_c 34.948512
_cell_angle_alpha 90.000000
_cell_angle_beta 90.000000
_cell_angle_gamma 90.000000
_cell_volume 6394.936385
_symmetry_space_group_name_H-M "P 42/M N M"
_symmetry_group_IT_number 136
_symmetry_cell_setting 'tetragonal'
loop_
_space_group_symop_operation_xyz
x,y,z
1/2-y,1/2+x,1/2+z
-x,-y,z
1/2+y,1/2-x,1/2+z
1/2+x,1/2-y,1/2-z
1/2-x,1/2+y,1/2-z
y,x,-z
-y,-x,-z
-x,-y,-z
1/2+y,1/2-x,1/2-z
x,y,-z
1/2-y,1/2+x,1/2-z
1/2-x,1/2+y,1/2+z
1/2+x,1/2-y,1/2+z
-y,-x,z
y,x,z
loop_
_atom_site_type_symbol
_atom_site_label
_atom_site_fract_x
_atom_site_fract_y
_atom_site_fract_z
Si Si1 0.448344 0.840529 0.457111
Si Si2 0.083800 0.916201 0.542970
Si Si3 0.004798 0.836347 0.900967
Si Si4 0.957844 0.653503 0.543049
Si Si5 0.428543 0.738609 0.676258
Si Si6 0.597730 0.764784 0.170608
Si Si7 0.958092 0.796121 0.602272
Si Si8 0.163948 0.488643 0.750738
O O1 0.422823 0.805371 0.500000
O O2 0.467606 0.749864 0.429077
O O3 0.550541 0.900641 0.459322
O O4 0.370776 0.927386 0.446693
O O5 0.114070 0.885931 0.500000
O O6 0.034182 0.835070 0.569903
O O7 0.000000 0.000000 0.538769
O O8 0.921613 0.921613 0.902266
O O9 0.000278 0.792496 0.858079
O O10 0.108644 0.891357 0.909647
O O11 0.954318 0.698313 0.500000
O O12 0.905496 0.713149 0.576902
O O13 0.350385 0.649616 0.682895
O O14 0.361818 0.833838 0.664353
O O15 0.484982 0.767497 0.714892
O O16 0.671771 0.671771 0.170626
O O17 0.516857 0.747230 0.137938
O O18 0.546300 0.778586 0.211667
O O19 0.884835 0.884835 0.613217
O O20 0.097857 0.585782 0.759424
#
# Coordination Sequence:
#
# PCOD9569519 Si02
#       8
#    16   8  16  16  16  16  16  16
#     4   9  19  37  57  77 105 139 179 228 280 328
#     4   9  18  32  48  68 104 148 181 215 257 307
#     4  10  21  36  55  80 110 143 181 226 275 329
#     4   9  19  36  56  77 104 142 184 226 271 323
#     4   9  19  36  56  77 104 141 179 218 266 330
#     4  10  20  35  54  77 107 143 178 221 272 326
#     4  11  21  33  51  78 111 144 182 221 266 320
#     4   9  19  36  57  80 105 135 176 224 276 330
#
# _framework density 18.764845000000001
#
# number of rings (size 3 to 8) (size 9 to 14) (size 15 to 20)
#    0.000    2.467    0.667    2.000    0.000    4.000 
#    1.200    4.667    0.000    0.000    0.000    0.000 
#    0.000    0.000    0.000    0.000    0.000    0.000 
#
# Total GULP energy -668765.303809 kJ/mol
# GULP energy per Si atom -5573.044198 kJ/mol
# Density = 1.872214 g / cm^3
# Si number density = 18.764845 Si / 1000 Ang^3
#
#
#
# Elastic Constant Matrix: (Units=GPa)
#
#
# Indices 1 2 3 4 5 6 
#
# 1 52.7359 4.5372 31.0452 0.0000 0.0000 0.0000
# 2 4.5372 52.7359 31.0452 0.0000 0.0000 0.0000
# 3 31.0452 31.0452 85.6107 0.0000 0.0000 0.0000
# 4 0.0000 0.0000 0.0000 42.3140 0.0000 0.0000
# 5 0.0000 0.0000 0.0000 0.0000 42.3141 0.0000
# 6 0.0000 0.0000 0.0000 0.0000 0.0000 6.9983
#
#
#
# Elastic Compliance Matrix: (Units=1/GPa)
#
#
# Indices 1 2 3 4 5 6 
#
# 1 0.024759 0.004012 -0.010433 0.000000 0.000000 0.000000
# 2 0.004012 0.024759 -0.010433 0.000000 0.000000 0.000000
# 3 -0.010433 -0.010433 0.019248 0.000000 0.000000 0.000000
# 4 0.000000 0.000000 0.000000 0.023633 0.000000 0.000000
# 5 0.000000 0.000000 0.000000 0.000000 0.023633 0.000000
# 6 0.000000 0.000000 0.000000 0.000000 0.000000 0.142891
#
#
# Mechanical properties :
#
#
# Convention : Reuss Voigt Hill
#
# Bulk Modulus (GPa) = 28.52532 36.03751 32.28141
# Shear Modulus (GPa) = 16.43019 26.62228 21.52623
#
# Velocity S-wave (km/s) = 2.96224 3.77069 3.39065
# Velocity P-wave (km/s) = 5.18982 6.18094 5.70694
#
# Compressibility (1/GPa) = 0.03505658
#
# Stress axis : x y z
#
# Youngs Moduli (GPa) = 40.38897 40.38892 51.95435
#
# Poissons Ratio (x) = -0.16203 0.54205
# Poissons Ratio (y) = -0.16203 0.54206
# Poissons Ratio (z) = 0.42139 0.42139
#
# Static dielectric constant tensor:
#      x y z
#    x 1.243180 0.000000 0.000000 
#    y 0.000000 1.243190 0.000000 
#    z 0.000000 0.000000 1.629970 
# 
# From -- ./inp_files/10017.got.cif
#   From: 2010.05.17/outbox.cif.g08.bks.cpg/sg136_6_cif.got.tgz:10017.got - 2010.05.20 12:54:53.
