data_PCOD9569155
_publ_section_title
;
Structure prediction by ZEFSAII (Michael W. Deem and Ramdas Pophale) SiO2 
 PCOD9569155
Probable space group: P 42/M N M
;
_chemical_formula_sum "Si O2"
_cell_formula_units_Z 104
_cell_length_a 22.109577
_cell_length_b 22.109577
_cell_length_c 13.956416
_cell_angle_alpha 90.000000
_cell_angle_beta 90.000000
_cell_angle_gamma 90.000000
_cell_volume 6822.362217
_symmetry_space_group_name_H-M "P 42/M N M"
_symmetry_group_IT_number 136
_symmetry_cell_setting 'tetragonal'
loop_
_space_group_symop_operation_xyz
x,y,z
1/2-y,1/2+x,1/2+z
-x,-y,z
1/2+y,1/2-x,1/2+z
1/2+x,1/2-y,1/2-z
1/2-x,1/2+y,1/2-z
y,x,-z
-y,-x,-z
-x,-y,-z
1/2+y,1/2-x,1/2-z
x,y,-z
1/2-y,1/2+x,1/2-z
1/2-x,1/2+y,1/2+z
1/2+x,1/2-y,1/2+z
-y,-x,z
y,x,z
loop_
_atom_site_type_symbol
_atom_site_label
_atom_site_fract_x
_atom_site_fract_y
_atom_site_fract_z
Si Si1 0.534843 0.372813 0.385586
Si Si2 0.189611 0.293243 0.891912
Si Si3 0.384524 0.714938 0.741748
Si Si4 0.282938 0.386584 0.188738
Si Si5 0.519164 0.313328 0.113587
Si Si6 0.951231 0.951231 0.383402
Si Si7 0.910588 0.189680 0.107042
O O1 0.540762 0.368500 0.500000
O O2 0.561612 0.438389 0.357406
O O3 0.577598 0.323468 0.336304
O O4 0.466115 0.354843 0.365487
O O5 0.237702 0.237702 0.893701
O O6 0.141465 0.273282 0.812194
O O7 0.228372 0.351406 0.861749
O O8 0.165153 0.299292 0.000000
O O9 0.328572 0.671429 0.772740
O O10 0.430967 0.724750 0.828364
O O11 0.341601 0.341601 0.183480
O O12 0.297081 0.450607 0.140119
O O13 0.268872 0.399725 0.300772
O O14 0.531798 0.383046 0.144340
O O15 0.527821 0.308782 0.000000
O O16 0.952409 0.952409 0.500000
O O17 0.000000 0.000000 0.349712
O O18 0.851499 0.148502 0.099456
O O19 0.922569 0.215309 0.000000
#
# Coordination Sequence:
#
# PCOD9569155 Si02
#       7
#    16  16  16  16  16   8  16
#     4   9  16  26  41  60  83 115 154 192 230 267
#     4   9  18  32  50  69  88 115 160 210 248 285
#     4  10  18  30  45  64  89 119 156 202 246 284
#     4  10  19  32  48  68  94 128 164 201 241 283
#     4  11  20  30  44  66  96 129 166 201 239 285
#     4   9  18  30  42  60  91 133 173 201 224 271
#     4   9  17  28  41  60  89 122 156 192 229 275
#
# _framework density 15.243987000000001
#
# number of rings (size 3 to 8) (size 9 to 14) (size 15 to 20)
#    0.000    2.385    2.308    1.385    0.000    3.692 
#    0.000    2.308    0.000    2.769    0.000    0.000 
#    0.000    0.615    0.000    2.923    0.000    0.000 
#
# Total GULP energy -579301.028000 kJ/mol
# GULP energy per Si atom -5570.202192 kJ/mol
# Density = 1.520929 g / cm^3
# Si number density = 15.243987 Si / 1000 Ang^3
#
#
#
# Elastic Constant Matrix: (Units=GPa)
#
#
# Indices 1 2 3 4 5 6 
#
# 1 47.2084 34.0392 38.1611 0.0000 0.0000 0.0000
# 2 34.0392 47.2084 38.1611 0.0000 0.0000 0.0000
# 3 38.1611 38.1611 86.6895 0.0000 0.0000 0.0000
# 4 0.0000 0.0000 0.0000 20.7953 0.0000 0.0000
# 5 0.0000 0.0000 0.0000 0.0000 20.7953 0.0000
# 6 0.0000 0.0000 0.0000 0.0000 0.0000 19.2877
#
#
#
# Elastic Compliance Matrix: (Units=1/GPa)
#
#
# Indices 1 2 3 4 5 6 
#
# 1 0.048461 -0.027474 -0.009238 0.000000 0.000000 0.000000
# 2 -0.027474 0.048461 -0.009238 0.000000 0.000000 0.000000
# 3 -0.009238 -0.009238 0.019669 0.000000 0.000000 0.000000
# 4 0.000000 0.000000 0.000000 0.048088 0.000000 0.000000
# 5 0.000000 0.000000 0.000000 0.000000 0.048088 0.000000
# 6 0.000000 0.000000 0.000000 0.000000 0.000000 0.051847
#
#
# Mechanical properties :
#
#
# Convention : Reuss Voigt Hill
#
# Bulk Modulus (GPa) = 40.50486 44.64766 42.57626
# Shear Modulus (GPa) = 13.70826 16.89195 15.30011
#
# Velocity S-wave (km/s) = 3.00201 3.33243 3.17153
# Velocity P-wave (km/s) = 6.21650 6.64523 6.43444
#
# Compressibility (1/GPa) = 0.02468840
#
# Stress axis : x y z
#
# Youngs Moduli (GPa) = 20.63532 20.63532 50.84180
#
# Poissons Ratio (x) = 0.56694 0.46969
# Poissons Ratio (y) = 0.56694 0.46969
# Poissons Ratio (z) = 0.19063 0.19063
#
# Static dielectric constant tensor:
#      x y z
#    x 1.497460 0.000000 0.000000 
#    y 0.000000 1.497460 0.000000 
#    z 0.000000 0.000000 1.564030 
# 
# From -- ./inp_files/5280.got.cif
#   From: 2010.05.17/outbox.cif.g08.bks.cpg/sg136_3_cif.got.tgz:5280.got - 2010.05.20 12:54:53.
