data_PCOD9569760
_publ_section_title
;
Structure prediction by ZEFSAII (Michael W. Deem and Ramdas Pophale) SiO2 
 PCOD9569760
Probable space group: P 42/M N M
;
_chemical_formula_sum "Si O2"
_cell_formula_units_Z 96
_cell_length_a 24.167445
_cell_length_b 24.167445
_cell_length_c 8.577178
_cell_angle_alpha 90.000000
_cell_angle_beta 90.000000
_cell_angle_gamma 90.000000
_cell_volume 5009.632881
_symmetry_space_group_name_H-M "P 42/M N M"
_symmetry_group_IT_number 136
_symmetry_cell_setting 'tetragonal'
loop_
_space_group_symop_operation_xyz
x,y,z
1/2-y,1/2+x,1/2+z
-x,-y,z
1/2+y,1/2-x,1/2+z
1/2+x,1/2-y,1/2-z
1/2-x,1/2+y,1/2-z
y,x,-z
-y,-x,-z
-x,-y,-z
1/2+y,1/2-x,1/2-z
x,y,-z
1/2-y,1/2+x,1/2-z
1/2-x,1/2+y,1/2+z
1/2+x,1/2-y,1/2+z
-y,-x,z
y,x,z
loop_
_atom_site_type_symbol
_atom_site_label
_atom_site_fract_x
_atom_site_fract_y
_atom_site_fract_z
Si Si1 0.620453 0.901119 0.675220
Si Si2 0.018344 0.647121 0.677400
Si Si3 0.668320 0.208693 0.320932
Si Si4 0.236925 0.990841 0.813249
Si Si5 0.227464 0.861017 0.186985
Si Si6 0.899210 0.811070 0.314181
O O1 0.642722 0.892424 0.500000
O O2 0.565699 0.866346 0.701589
O O3 0.664081 0.880438 0.800369
O O4 0.607858 0.965585 0.692728
O O5 0.039402 0.644503 0.500000
O O6 0.996368 0.707790 0.715999
O O7 0.678609 0.222447 0.500000
O O8 0.721694 0.175583 0.254603
O O9 0.644158 0.262595 0.235269
O O10 0.224673 0.926222 0.770596
O O11 0.196515 0.041217 0.767709
O O12 0.245861 0.992640 0.000000
O O13 0.171567 0.828434 0.229883
O O14 0.233853 0.859293 0.000000
O O15 0.906974 0.807518 0.500000
O O16 0.868492 0.868492 0.275981
#
# Coordination Sequence:
#
# PCOD9569760 Si02
#       6
#    16  16  16  16  16  16
#     4  11  23  38  57  80 113 155 199 244 294 345
#     4  11  23  38  58  82 113 154 200 248 293 343
#     4  12  23  35  58  89 120 154 194 242 292 346
#     4  11  22  37  62  88 115 153 193 238 288 349
#     4  10  22  40  61  87 121 157 191 233 292 354
#     4  11  24  41  61  86 120 158 194 239 296 352
#
# _framework density 19.163080999999998
#
# number of rings (size 3 to 8) (size 9 to 14) (size 15 to 20)
#    0.000    1.000    3.333    4.000    0.000    6.667 
#    0.000    1.667    0.000    0.500    0.000    3.500 
#    0.000    0.000    0.000    0.000    0.000    0.000 
#
# Total GULP energy -535726.990365 kJ/mol
# GULP energy per Si atom -5580.489483 kJ/mol
# Density = 1.911946 g / cm^3
# Si number density = 19.163081 Si / 1000 Ang^3
#
#
#
# Elastic Constant Matrix: (Units=GPa)
#
#
# Indices 1 2 3 4 5 6 
#
# 1 10.7418 99.8956 16.1244 0.0000 0.0000 0.0000
# 2 99.8956 10.7418 16.1244 0.0000 0.0000 0.0000
# 3 16.1244 16.1244 46.8055 0.0000 0.0000 0.0000
# 4 0.0000 0.0000 0.0000 21.0352 0.0000 0.0000
# 5 0.0000 0.0000 0.0000 0.0000 21.0352 0.0000
# 6 0.0000 0.0000 0.0000 0.0000 0.0000 27.8407
#
#
#
# Elastic Compliance Matrix: (Units=1/GPa)
#
#
# Indices 1 2 3 4 5 6 
#
# 1 -0.000585 0.010632 -0.003461 0.000000 0.000000 0.000000
# 2 0.010632 -0.000585 -0.003461 0.000000 0.000000 0.000000
# 3 -0.003461 -0.003461 0.023750 0.000000 0.000000 0.000000
# 4 0.000000 0.000000 0.000000 0.047539 0.000000 0.000000
# 5 0.000000 0.000000 0.000000 0.000000 0.047539 0.000000
# 6 0.000000 0.000000 0.000000 0.000000 0.000000 0.035919
#
#
# Mechanical properties :
#
#
# Convention : Reuss Voigt Hill
#
# Bulk Modulus (GPa) = 33.33396 36.95312 35.14354
# Shear Modulus (GPa) = 32.01861 9.72521 20.87191
#
# Velocity S-wave (km/s) = 4.09204 2.25521 3.30384
# Velocity P-wave (km/s) = 6.30547 5.10947 5.73871
#
# Compressibility (1/GPa) = 0.02999944
#
# Stress axis : x y z
#
# Youngs Moduli (GPa) = -1710.68213 -1710.68213 42.10547
#
# Poissons Ratio (x) = 18.18800 0.14574
# Poissons Ratio (y) = 18.18800 0.14574
# Poissons Ratio (z) = -5.92125 -5.92125
#
# Static dielectric constant tensor:
#      x y z
#    x 1.696810 0.000000 0.000000 
#    y 0.000000 1.696810 0.000000 
#    z 0.000000 0.000000 1.646190 
# 
# From -- ./inp_files/2008.got.cif
#   From: 2010.05.17/outbox.cif.g08.bks.cpg/sg136_2_cif.got.tgz:2008.got - 2010.05.20 12:54:53.
