data_PCOD9569915
_publ_section_title
;
Structure prediction by ZEFSAII (Michael W. Deem and Ramdas Pophale) SiO2 
 PCOD9569915
Probable space group: P 42/M N M
;
_chemical_formula_sum "Si O2"
_cell_formula_units_Z 104
_cell_length_a 27.000000
_cell_length_b 27.000000
_cell_length_c 9.000000
_cell_angle_alpha 90.000000
_cell_angle_beta 90.000000
_cell_angle_gamma 90.000000
_cell_volume 6561.000000
_symmetry_space_group_name_H-M "P 42/M N M"
_symmetry_group_IT_number 136
_symmetry_cell_setting 'tetragonal'
loop_
_space_group_symop_operation_xyz
x,y,z
1/2-y,1/2+x,1/2+z
-x,-y,z
1/2+y,1/2-x,1/2+z
1/2+x,1/2-y,1/2-z
1/2-x,1/2+y,1/2-z
y,x,-z
-y,-x,-z
-x,-y,-z
1/2+y,1/2-x,1/2-z
x,y,-z
1/2-y,1/2+x,1/2-z
1/2-x,1/2+y,1/2+z
1/2+x,1/2-y,1/2+z
-y,-x,z
y,x,z
loop_
_atom_site_type_symbol
_atom_site_label
_atom_site_fract_x
_atom_site_fract_y
_atom_site_fract_z
Si Si1 0.413642 0.222195 0.669090
Si Si2 0.486216 0.653177 0.178087
Si Si3 0.572515 0.877292 0.823730
Si Si4 0.531667 0.245360 0.671654
Si Si5 0.098993 0.818317 0.328167
Si Si6 0.041160 0.041160 0.318803
Si Si7 0.642443 0.957827 0.677682
O O1 0.400985 0.209905 0.500000
O O2 0.405346 0.175381 0.773558
O O3 0.472256 0.235545 0.675539
O O4 0.388197 0.271784 0.726739
O O5 0.460416 0.700843 0.253906
O O6 0.544790 0.660097 0.207728
O O7 0.471159 0.597750 0.226313
O O8 0.478689 0.656438 0.000000
O O9 0.602097 0.920303 0.741528
O O10 0.514180 0.873834 0.783416
O O11 0.576284 0.883895 0.000000
O O12 0.547327 0.245909 0.500000
O O13 0.552590 0.197088 0.755447
O O14 0.096496 0.801328 0.500000
O O15 0.138782 0.861219 0.315428
O O16 0.040058 0.040058 0.500000
O O17 0.000000 0.000000 0.270839
O O18 0.645165 0.954739 0.500000
#
# Coordination Sequence:
#
# PCOD9569915 Si02
#       7
#    16  16  16  16  16   8  16
#     4   9  17  29  45  65  90 119 153 193 232 274
#     4   9  16  27  44  66  93 125 162 200 236 278
#     4  10  20  33  49  70  97 127 157 190 230 276
#     4   9  17  30  47  66  89 119 157 197 234 273
#     4   9  16  26  42  65  92 122 155 193 237 283
#     4   9  16  26  43  69  99 131 165 201 241 285
#     4  10  20  33  50  72  97 125 157 192 230 276
#
# _framework density 15.851241999999999
#
# number of rings (size 3 to 8) (size 9 to 14) (size 15 to 20)
#    0.000    2.692    0.000    2.308    0.000    8.000 
#    0.000    1.923    0.000    1.846    2.000    0.000 
#    0.000    0.000    0.000    0.000    0.000    0.000 
#
# Total GULP energy -579253.462562 kJ/mol
# GULP energy per Si atom -5569.744832 kJ/mol
# Density = 1.581516 g / cm^3
# Si number density = 15.851242 Si / 1000 Ang^3
#
#
#
# Elastic Constant Matrix: (Units=GPa)
#
#
# Indices 1 2 3 4 5 6 
#
# 1 83.7604 49.3986 39.7935 0.0000 0.0000 0.0000
# 2 49.3986 83.7604 39.7935 0.0000 0.0000 0.0000
# 3 39.7935 39.7935 42.5742 0.0000 0.0000 0.0000
# 4 0.0000 0.0000 0.0000 21.4788 0.0000 0.0000
# 5 0.0000 0.0000 0.0000 0.0000 21.4788 0.0000
# 6 0.0000 0.0000 0.0000 0.0000 0.0000 8.3010
#
#
#
# Elastic Compliance Matrix: (Units=1/GPa)
#
#
# Indices 1 2 3 4 5 6 
#
# 1 0.023059 -0.006043 -0.015904 0.000000 0.000000 0.000000
# 2 -0.006043 0.023059 -0.015904 0.000000 0.000000 0.000000
# 3 -0.015904 -0.015904 0.053219 0.000000 0.000000 0.000000
# 4 0.000000 0.000000 0.000000 0.046558 0.000000 0.000000
# 5 0.000000 0.000000 0.000000 0.000000 0.046558 0.000000
# 6 0.000000 0.000000 0.000000 0.000000 0.000000 0.120467
#
#
# Mechanical properties :
#
#
# Convention : Reuss Voigt Hill
#
# Bulk Modulus (GPa) = 42.31269 52.00734 47.16001
# Shear Modulus (GPa) = 12.61036 15.65902 14.13469
#
# Velocity S-wave (km/s) = 2.82360 3.14645 2.98939
# Velocity P-wave (km/s) = 6.11407 6.78831 6.45999
#
# Compressibility (1/GPa) = 0.02363357
#
# Stress axis : x y z
#
# Youngs Moduli (GPa) = 43.36751 43.36751 18.79034
#
# Poissons Ratio (x) = 0.26209 0.29884
# Poissons Ratio (y) = 0.26209 0.29884
# Poissons Ratio (z) = 0.68972 0.68972
#
# Static dielectric constant tensor:
#      x y z
#    x 1.516840 0.000000 0.000000 
#    y 0.000000 1.516840 0.000000 
#    z 0.000000 0.000000 1.542080 
# 
# From -- ./inp_files/2232.got.cif
#   From: 2010.05.17/outbox.ucp.g08.bks.cvg/sg136_2_cif.got.tgz:2232.got - 2010.06.11 11:40:42.
