data_PCOD9569706
_publ_section_title
;
Structure prediction by ZEFSAII (Michael W. Deem and Ramdas Pophale) SiO2 
 PCOD9569706
Probable space group: P 42/M N M
;
_chemical_formula_sum "Si O2"
_cell_formula_units_Z 96
_cell_length_a 15.707344
_cell_length_b 15.707344
_cell_length_c 19.351166
_cell_angle_alpha 90.000000
_cell_angle_beta 90.000000
_cell_angle_gamma 90.000000
_cell_volume 4774.332361
_symmetry_space_group_name_H-M "P 42/M N M"
_symmetry_group_IT_number 136
_symmetry_cell_setting 'tetragonal'
loop_
_space_group_symop_operation_xyz
x,y,z
1/2-y,1/2+x,1/2+z
-x,-y,z
1/2+y,1/2-x,1/2+z
1/2+x,1/2-y,1/2-z
1/2-x,1/2+y,1/2-z
y,x,-z
-y,-x,-z
-x,-y,-z
1/2+y,1/2-x,1/2-z
x,y,-z
1/2-y,1/2+x,1/2-z
1/2-x,1/2+y,1/2+z
1/2+x,1/2-y,1/2+z
-y,-x,z
y,x,z
loop_
_atom_site_type_symbol
_atom_site_label
_atom_site_fract_x
_atom_site_fract_y
_atom_site_fract_z
Si Si1 0.724187 0.087194 0.923479
Si Si2 0.253029 0.887896 0.582501
Si Si3 0.681117 0.822156 0.287952
Si Si4 0.487659 0.247276 0.787066
Si Si5 0.552125 0.076686 0.578927
Si Si6 0.993757 0.864876 0.843310
O O1 0.705019 0.156160 0.865543
O O2 0.806594 0.034426 0.901682
O O3 0.651199 0.015918 0.921203
O O4 0.729537 0.122826 0.000000
O O5 0.243428 0.906371 0.500000
O O6 0.199135 0.800866 0.594833
O O7 0.220868 0.959201 0.636922
O O8 0.354835 0.888707 0.599606
O O9 0.762354 0.762354 0.266930
O O10 0.596798 0.799370 0.243441
O O11 0.696176 0.923553 0.288780
O O12 0.507232 0.317976 0.729798
O O13 0.569043 0.046990 0.500000
O O14 0.500000 0.000000 0.615594
O O15 0.059436 0.940565 0.834730
O O16 0.902189 0.902189 0.861757
#
# Coordination Sequence:
#
# PCOD9569706 Si02
#       6
#    16  16  16  16  16  16
#     4  10  21  38  60  90 126 160 203 259 315 382
#     4  10  21  37  61  92 126 167 213 263 322 387
#     4  11  25  42  63  93 125 167 215 260 323 389
#     4  11  23  41  63  89 127 165 212 264 318 382
#     4   9  18  33  54  84 123 162 198 244 309 380
#     4  10  22  40  61  86 118 164 216 261 309 363
#
# _framework density 20.107523
#
# number of rings (size 3 to 8) (size 9 to 14) (size 15 to 20)
#    0.000    1.833    0.000    4.500    4.667    4.667 
#    0.000    2.500    0.000    1.500    0.000    5.833 
#    0.000    0.000    0.000    0.000    0.000    0.000 
#
# Total GULP energy -534766.576827 kJ/mol
# GULP energy per Si atom -5570.485175 kJ/mol
# Density = 2.006176 g / cm^3
# Si number density = 20.107523 Si / 1000 Ang^3
#
#
#
# Elastic Constant Matrix: (Units=GPa)
#
#
# Indices 1 2 3 4 5 6 
#
# 1 107.0712 51.6590 31.2538 0.0000 0.0000 0.0000
# 2 51.6590 107.0712 31.2538 0.0000 0.0000 0.0000
# 3 31.2538 31.2538 99.6849 0.0000 0.0000 0.0000
# 4 0.0000 0.0000 0.0000 3.3865 0.0000 0.0000
# 5 0.0000 0.0000 0.0000 0.0000 3.3865 0.0000
# 6 0.0000 0.0000 0.0000 0.0000 0.0000 10.6117
#
#
#
# Elastic Compliance Matrix: (Units=1/GPa)
#
#
# Indices 1 2 3 4 5 6 
#
# 1 0.012617 -0.005430 -0.002253 0.000000 0.000000 0.000000
# 2 -0.005430 0.012617 -0.002253 0.000000 0.000000 0.000000
# 3 -0.002253 -0.002253 0.011445 0.000000 0.000000 0.000000
# 4 0.000000 0.000000 0.000000 0.295291 0.000000 0.000000
# 5 0.000000 0.000000 0.000000 0.000000 0.295291 0.000000
# 6 0.000000 0.000000 0.000000 0.000000 0.000000 0.094236
#
#
# Mechanical properties :
#
#
# Convention : Reuss Voigt Hill
#
# Bulk Modulus (GPa) = 59.50368 60.24005 59.87186
# Shear Modulus (GPa) = 6.69370 16.78764 11.74067
#
# Velocity S-wave (km/s) = 1.82652 2.89259 2.41901
# Velocity P-wave (km/s) = 5.83997 6.41717 6.13536
#
# Compressibility (1/GPa) = 0.01680568
#
# Stress axis : x y z
#
# Youngs Moduli (GPa) = 79.25820 79.25820 87.37724
#
# Poissons Ratio (x) = 0.43034 0.19690
# Poissons Ratio (y) = 0.43034 0.19690
# Poissons Ratio (z) = 0.17860 0.17860
#
# Static dielectric constant tensor:
#      x y z
#    x 2.012610 0.000000 0.000000 
#    y 0.000000 2.012610 0.000000 
#    z 0.000000 0.000000 1.752440 
# 
# From -- ./inp_files/7508.got.cif
#   From: 2010.05.17/outbox.cif.g08.bks.cpg/sg136_4_cif.got.tgz:7508.got - 2010.05.20 12:54:53.
