data_PCOD9569669
_publ_section_title
;
Structure prediction by ZEFSAII (Michael W. Deem and Ramdas Pophale) SiO2 
 PCOD9569669
Probable space group: P 42/M N M
;
_chemical_formula_sum "Si O2"
_cell_formula_units_Z 104
_cell_length_a 15.415611
_cell_length_b 15.415611
_cell_length_c 24.583111
_cell_angle_alpha 90.000000
_cell_angle_beta 90.000000
_cell_angle_gamma 90.000000
_cell_volume 5841.956618
_symmetry_space_group_name_H-M "P 42/M N M"
_symmetry_group_IT_number 136
_symmetry_cell_setting 'tetragonal'
loop_
_space_group_symop_operation_xyz
x,y,z
1/2-y,1/2+x,1/2+z
-x,-y,z
1/2+y,1/2-x,1/2+z
1/2+x,1/2-y,1/2-z
1/2-x,1/2+y,1/2-z
y,x,-z
-y,-x,-z
-x,-y,-z
1/2+y,1/2-x,1/2-z
x,y,-z
1/2-y,1/2+x,1/2-z
1/2-x,1/2+y,1/2+z
1/2+x,1/2-y,1/2+z
-y,-x,z
y,x,z
loop_
_atom_site_type_symbol
_atom_site_label
_atom_site_fract_x
_atom_site_fract_y
_atom_site_fract_z
Si Si1 0.983411 0.737818 0.434183
Si Si2 0.197138 0.339757 0.437920
Si Si3 0.105496 0.249511 0.166342
Si Si4 0.673761 0.819069 0.062896
Si Si5 0.071341 0.071341 0.433650
Si Si6 0.589730 0.732968 0.671156
Si Si7 0.594226 0.895346 0.249518
O O1 0.988354 0.744174 0.500000
O O2 0.902773 0.675364 0.422587
O O3 0.958832 0.833997 0.414134
O O4 0.076950 0.703289 0.417109
O O5 0.203108 0.372476 0.500000
O O6 0.246275 0.246275 0.437755
O O7 0.243651 0.395199 0.392096
O O8 0.180438 0.180438 0.177714
O O9 0.115201 0.280036 0.103809
O O10 0.117383 0.335231 0.202633
O O11 0.011014 0.210795 0.178301
O O12 0.731114 0.731114 0.064080
O O13 0.670690 0.848627 0.000000
O O14 0.075298 0.075298 0.500000
O O15 0.000000 0.000000 0.419288
O O16 0.657099 0.657099 0.686013
O O17 0.606370 0.820203 0.705979
O O18 0.494114 0.891850 0.229559
#
# Coordination Sequence:
#
# PCOD9569669 Si02
#       7
#    16  16  16  16   8  16  16
#     4   9  15  25  41  65  98 137 176 213 255 304
#     4   9  17  30  47  72 106 139 172 213 261 309
#     4  10  21  37  57  79 105 139 178 221 265 308
#     4   9  18  31  47  71 105 142 177 214 260 313
#     4   9  14  20  36  62  94 136 183 219 247 295
#     4  10  21  36  57  81 105 138 177 219 267 314
#     4   9  19  36  58  84 110 134 167 211 260 319
#
# _framework density 17.802254000000001
#
# number of rings (size 3 to 8) (size 9 to 14) (size 15 to 20)
#    0.000    2.692    0.769    0.923    2.154    2.769 
#    0.000    0.000    0.000    2.769    0.000    4.308 
#    0.000    0.000    0.000    0.000    0.000    0.000 
#
# Total GULP energy -579447.401018 kJ/mol
# GULP energy per Si atom -5571.609625 kJ/mol
# Density = 1.776174 g / cm^3
# Si number density = 17.802254 Si / 1000 Ang^3
#
#
#
# Elastic Constant Matrix: (Units=GPa)
#
#
# Indices 1 2 3 4 5 6 
#
# 1 85.9441 57.1228 32.9410 0.0000 0.0000 0.0000
# 2 57.1228 85.9441 32.9410 0.0000 0.0000 0.0000
# 3 32.9410 32.9410 52.6852 0.0000 0.0000 0.0000
# 4 0.0000 0.0000 0.0000 20.5056 0.0000 0.0000
# 5 0.0000 0.0000 0.0000 0.0000 20.5056 0.0000
# 6 0.0000 0.0000 0.0000 0.0000 0.0000 20.6178
#
#
#
# Elastic Compliance Matrix: (Units=1/GPa)
#
#
# Indices 1 2 3 4 5 6 
#
# 1 0.022256 -0.012440 -0.006137 0.000000 0.000000 0.000000
# 2 -0.012440 0.022256 -0.006137 0.000000 0.000000 0.000000
# 3 -0.006137 -0.006137 0.026655 0.000000 0.000000 0.000000
# 4 0.000000 0.000000 0.000000 0.048767 0.000000 0.000000
# 5 0.000000 0.000000 0.000000 0.000000 0.048767 0.000000
# 6 0.000000 0.000000 0.000000 0.000000 0.000000 0.048502
#
#
# Mechanical properties :
#
#
# Convention : Reuss Voigt Hill
#
# Bulk Modulus (GPa) = 46.00272 52.28698 49.14485
# Shear Modulus (GPa) = 18.25619 19.09705 18.67662
#
# Velocity S-wave (km/s) = 3.20581 3.27881 3.24252
# Velocity P-wave (km/s) = 6.29286 6.61581 6.45635
#
# Compressibility (1/GPa) = 0.02173785
#
# Stress axis : x y z
#
# Youngs Moduli (GPa) = 44.93121 44.93121 37.51599
#
# Poissons Ratio (x) = 0.55896 0.23025
# Poissons Ratio (y) = 0.55896 0.23025
# Poissons Ratio (z) = 0.27576 0.27576
#
# Static dielectric constant tensor:
#      x y z
#    x 1.603320 0.000000 0.000000 
#    y 0.000000 1.603320 0.000000 
#    z 0.000000 0.000000 1.603620 
# 
# From -- ./inp_files/8488.got.cif
#   From: 2010.05.17/outbox.cif.g08.bks.cpg/sg136_5_cif.got.tgz:8488.got - 2010.05.20 12:54:53.
