data_PCOD9569203
_publ_section_title
;
Structure prediction by ZEFSAII (Michael W. Deem and Ramdas Pophale) SiO2 
 PCOD9569203
Probable space group: P 42/M N M
;
_chemical_formula_sum "Si O2"
_cell_formula_units_Z 104
_cell_length_a 17.147750
_cell_length_b 17.147750
_cell_length_c 18.456097
_cell_angle_alpha 90.000000
_cell_angle_beta 90.000000
_cell_angle_gamma 90.000000
_cell_volume 5426.929134
_symmetry_space_group_name_H-M "P 42/M N M"
_symmetry_group_IT_number 136
_symmetry_cell_setting 'tetragonal'
loop_
_space_group_symop_operation_xyz
x,y,z
1/2-y,1/2+x,1/2+z
-x,-y,z
1/2+y,1/2-x,1/2+z
1/2+x,1/2-y,1/2-z
1/2-x,1/2+y,1/2-z
y,x,-z
-y,-x,-z
-x,-y,-z
1/2+y,1/2-x,1/2-z
x,y,-z
1/2-y,1/2+x,1/2-z
1/2-x,1/2+y,1/2+z
1/2+x,1/2-y,1/2+z
-y,-x,z
y,x,z
loop_
_atom_site_type_symbol
_atom_site_label
_atom_site_fract_x
_atom_site_fract_y
_atom_site_fract_z
Si Si1 0.953211 0.177107 0.813237
Si Si2 0.912166 0.784557 0.083365
Si Si3 0.911445 0.631267 0.177784
Si Si4 0.631836 0.497309 0.841003
Si Si5 0.593627 0.849206 0.676393
Si Si6 0.131885 0.997322 0.500000
Si Si7 0.489677 0.905288 0.080674
O O1 0.895349 0.104652 0.816881
O O2 0.985438 0.182098 0.730534
O O3 0.910110 0.257202 0.834383
O O4 0.024098 0.169829 0.869074
O O5 0.832667 0.832667 0.084412
O O6 0.902884 0.701720 0.121939
O O7 0.937526 0.775192 0.000000
O O8 0.869257 0.644146 0.253550
O O9 0.880264 0.553787 0.138925
O O10 0.004024 0.624620 0.193502
O O11 0.582401 0.417600 0.831224
O O12 0.566167 0.566167 0.843897
O O13 0.671478 0.496458 0.920779
O O14 0.614947 0.903587 0.608909
O O15 0.065678 0.065678 0.500000
O O16 0.083696 0.916305 0.500000
O O17 0.500000 0.000000 0.077598
O O18 0.504347 0.875477 0.000000
#
# Coordination Sequence:
#
# PCOD9569203 Si02
#       7
#    16  16  16  16  16   8  16
#     4  10  21  34  51  77 111 149 192 232 266 315
#     4  10  22  38  56  80 111 149 190 229 271 319
#     4  10  18  33  57  82 108 140 175 223 273 338
#     4   8  13  24  44  68  95 131 175 219 262 309
#     4  10  19  31  54  80 111 139 179 221 275 333
#     4   7  10  18  38  66  90 118 163 216 262 304
#     4   9  17  29  52  82 107 134 172 223 276 328
#
# _framework density 19.163692999999999
#
# number of rings (size 3 to 8) (size 9 to 14) (size 15 to 20)
#    0.000    2.692    1.538    1.846    0.000    5.538 
#    0.000    0.769    3.385    0.000    0.000    0.000 
#    0.000    0.000    0.000    0.000    0.000    0.000 
#
# Total GULP energy -579600.277346 kJ/mol
# GULP energy per Si atom -5573.079590 kJ/mol
# Density = 1.912008 g / cm^3
# Si number density = 19.163693 Si / 1000 Ang^3
#
#
#
# Elastic Constant Matrix: (Units=GPa)
#
#
# Indices 1 2 3 4 5 6 
#
# 1 30.1854 13.3472 26.7800 0.0000 0.0000 0.0000
# 2 13.3472 30.1856 26.7800 0.0000 0.0000 0.0000
# 3 26.7800 26.7800 136.3314 0.0000 0.0000 0.0000
# 4 0.0000 0.0000 0.0000 22.3328 0.0000 0.0000
# 5 0.0000 0.0000 0.0000 0.0000 22.3328 0.0000
# 6 0.0000 0.0000 0.0000 0.0000 0.0000 10.8604
#
#
#
# Elastic Compliance Matrix: (Units=1/GPa)
#
#
# Indices 1 2 3 4 5 6 
#
# 1 0.044841 -0.014548 -0.005950 0.000000 0.000000 0.000000
# 2 -0.014548 0.044840 -0.005950 0.000000 0.000000 0.000000
# 3 -0.005950 -0.005950 0.009673 0.000000 0.000000 0.000000
# 4 0.000000 0.000000 0.000000 0.044777 0.000000 0.000000
# 5 0.000000 0.000000 0.000000 0.000000 0.044777 0.000000
# 6 0.000000 0.000000 0.000000 0.000000 0.000000 0.092078
#
#
# Mechanical properties :
#
#
# Convention : Reuss Voigt Hill
#
# Bulk Modulus (GPa) = 21.52588 36.72407 29.12498
# Shear Modulus (GPa) = 14.31153 19.75821 17.03487
#
# Velocity S-wave (km/s) = 2.73574 3.21444 2.98470
# Velocity P-wave (km/s) = 4.60826 5.74298 5.20662
#
# Compressibility (1/GPa) = 0.04645571
#
# Stress axis : x y z
#
# Youngs Moduli (GPa) = 22.30126 22.30139 103.38294
#
# Poissons Ratio (x) = 0.32444 0.61517
# Poissons Ratio (y) = 0.32444 0.61517
# Poissons Ratio (z) = 0.13270 0.13270
#
# Static dielectric constant tensor:
#      x y z
#    x 1.679530 0.000000 0.000000 
#    y 0.000000 1.679530 0.000000 
#    z 0.000000 0.000000 1.683700 
# 
# From -- ./inp_files/6411.got.cif
#   From: 2010.05.17/outbox.cif.g08.bks.cpg/sg136_4_cif.got.tgz:6411.got - 2010.05.20 12:54:53.
