data_PCOD9569136
_publ_section_title
;
Structure prediction by ZEFSAII (Michael W. Deem and Ramdas Pophale) SiO2 
 PCOD9569136
Probable space group: P 42/M N M
;
_chemical_formula_sum "Si O2"
_cell_formula_units_Z 128
_cell_length_a 23.963356
_cell_length_b 23.963356
_cell_length_c 13.311285
_cell_angle_alpha 90.000000
_cell_angle_beta 90.000000
_cell_angle_gamma 90.000000
_cell_volume 7643.904655
_symmetry_space_group_name_H-M "P 42/M N M"
_symmetry_group_IT_number 136
_symmetry_cell_setting 'tetragonal'
loop_
_space_group_symop_operation_xyz
x,y,z
1/2-y,1/2+x,1/2+z
-x,-y,z
1/2+y,1/2-x,1/2+z
1/2+x,1/2-y,1/2-z
1/2-x,1/2+y,1/2-z
y,x,-z
-y,-x,-z
-x,-y,-z
1/2+y,1/2-x,1/2-z
x,y,-z
1/2-y,1/2+x,1/2-z
1/2-x,1/2+y,1/2+z
1/2+x,1/2-y,1/2+z
-y,-x,z
y,x,z
loop_
_atom_site_type_symbol
_atom_site_label
_atom_site_fract_x
_atom_site_fract_y
_atom_site_fract_z
Si Si1 0.391612 0.301069 0.617993
Si Si2 0.571573 0.340131 0.883428
Si Si3 0.144286 0.471137 0.240805
Si Si4 0.609544 0.230052 0.385218
Si Si5 0.748873 0.336809 0.819988
Si Si6 0.326732 0.869993 0.885924
Si Si7 0.497525 0.730162 0.733583
Si Si8 0.103856 0.568936 0.384522
O O1 0.404152 0.310064 0.500000
O O2 0.349575 0.349575 0.651418
O O3 0.363991 0.239984 0.625925
O O4 0.448105 0.293963 0.679826
O O5 0.601450 0.398551 0.853906
O O6 0.619917 0.293838 0.869293
O O7 0.524053 0.315452 0.812398
O O8 0.555461 0.343632 0.000000
O O9 0.151471 0.417676 0.313302
O O10 0.208224 0.490357 0.218904
O O11 0.113104 0.519235 0.304267
O O12 0.108004 0.447541 0.148921
O O13 0.622194 0.245765 0.500000
O O14 0.652593 0.248989 0.299743
O O15 0.550693 0.256470 0.348444
O O16 0.602440 0.162835 0.381267
O O17 0.724211 0.275790 0.841947
O O18 0.809601 0.350190 0.861295
O O19 0.338298 0.886559 0.000000
O O20 0.097479 0.549219 0.500000
#
# Coordination Sequence:
#
# PCOD9569136 Si02
#       8
#    16  16  16  16  16  16  16  16
#     4   9  17  29  48  75 103 131 163 199 244 296
#     4   9  18  32  50  74 101 128 161 205 254 298
#     4  10  20  35  51  73  99 129 175 210 246 297
#     4   9  17  31  49  68  95 131 168 201 242 294
#     4  10  18  28  45  74 104 128 160 203 252 304
#     4  10  18  30  48  72 101 133 166 202 246 296
#     4   9  18  31  52  75  98 130 165 204 246 298
#     4  10  20  36  54  69  93 130 168 214 255 287
#
# _framework density 16.745369
#
# number of rings (size 3 to 8) (size 9 to 14) (size 15 to 20)
#    0.000    2.500    1.250    1.500    0.000    5.250 
#    0.000    1.875    0.000    1.875    0.000    1.750 
#    0.000    0.000    0.000    0.000    0.000    0.000 
#
# Total GULP energy -713020.259771 kJ/mol
# GULP energy per Si atom -5570.470779 kJ/mol
# Density = 1.670726 g / cm^3
# Si number density = 16.745369 Si / 1000 Ang^3
#
#
#
# Elastic Constant Matrix: (Units=GPa)
#
#
# Indices 1 2 3 4 5 6 
#
# 1 41.2093 14.9651 8.1259 0.0000 0.0000 0.0000
# 2 14.9651 41.2093 8.1259 0.0000 0.0000 0.0000
# 3 8.1259 8.1259 41.8117 0.0000 0.0000 0.0000
# 4 0.0000 0.0000 0.0000 16.2264 0.0000 0.0000
# 5 0.0000 0.0000 0.0000 0.0000 16.2264 0.0000
# 6 0.0000 0.0000 0.0000 0.0000 0.0000 19.7277
#
#
#
# Elastic Compliance Matrix: (Units=1/GPa)
#
#
# Indices 1 2 3 4 5 6 
#
# 1 0.028483 -0.009621 -0.003666 0.000000 0.000000 0.000000
# 2 -0.009621 0.028483 -0.003666 0.000000 0.000000 0.000000
# 3 -0.003666 -0.003666 0.025342 0.000000 0.000000 0.000000
# 4 0.000000 0.000000 0.000000 0.061628 0.000000 0.000000
# 5 0.000000 0.000000 0.000000 0.000000 0.061628 0.000000
# 6 0.000000 0.000000 0.000000 0.000000 0.000000 0.050690
#
#
# Mechanical properties :
#
#
# Convention : Reuss Voigt Hill
#
# Bulk Modulus (GPa) = 20.65992 20.74048 20.70020
# Shear Modulus (GPa) = 16.32427 16.63699 16.48063
#
# Velocity S-wave (km/s) = 3.12565 3.15545 3.14058
# Velocity P-wave (km/s) = 5.03892 5.06838 5.05367
#
# Compressibility (1/GPa) = 0.04840290
#
# Stress axis : x y z
#
# Youngs Moduli (GPa) = 35.10875 35.10875 39.46074
#
# Poissons Ratio (x) = 0.33777 0.14466
# Poissons Ratio (y) = 0.33777 0.14466
# Poissons Ratio (z) = 0.12870 0.12870
#
# Static dielectric constant tensor:
#      x y z
#    x 1.567030 0.000000 0.000000 
#    y 0.000000 1.567030 0.000000 
#    z 0.000000 0.000000 1.568040 
# 
# From -- ./inp_files/4090.got.cif
#   From: 2010.05.17/outbox.cif.g08.bks.cpg/sg136_3_cif.got.tgz:4090.got - 2010.05.20 12:54:53.
