data_PCOD9569699
_publ_section_title
;
Structure prediction by ZEFSAII (Michael W. Deem and Ramdas Pophale) SiO2 
 PCOD9569699
Probable space group: P 42/M N M
;
_chemical_formula_sum "Si O2"
_cell_formula_units_Z 64
_cell_length_a 12.251721
_cell_length_b 12.251721
_cell_length_c 24.043045
_cell_angle_alpha 90.000000
_cell_angle_beta 90.000000
_cell_angle_gamma 90.000000
_cell_volume 3608.973274
_symmetry_space_group_name_H-M "P 42/M N M"
_symmetry_group_IT_number 136
_symmetry_cell_setting 'tetragonal'
loop_
_space_group_symop_operation_xyz
x,y,z
1/2-y,1/2+x,1/2+z
-x,-y,z
1/2+y,1/2-x,1/2+z
1/2+x,1/2-y,1/2-z
1/2-x,1/2+y,1/2-z
y,x,-z
-y,-x,-z
-x,-y,-z
1/2+y,1/2-x,1/2-z
x,y,-z
1/2-y,1/2+x,1/2-z
1/2-x,1/2+y,1/2+z
1/2+x,1/2-y,1/2+z
-y,-x,z
y,x,z
loop_
_atom_site_type_symbol
_atom_site_label
_atom_site_fract_x
_atom_site_fract_y
_atom_site_fract_z
Si Si1 0.249207 0.431475 0.231506
Si Si2 0.417116 0.230815 0.438520
Si Si3 0.077537 0.396185 0.669354
Si Si4 0.905752 0.905752 0.083991
Si Si5 0.091384 0.091384 0.206917
O O1 0.330682 0.330682 0.221362
O O2 0.200916 0.490143 0.177210
O O3 0.157439 0.396574 0.276638
O O4 0.315671 0.528870 0.260857
O O5 0.406575 0.179487 0.500000
O O6 0.322197 0.322197 0.432866
O O7 0.402942 0.149561 0.386514
O O8 0.531209 0.298741 0.437678
O O9 0.000000 0.500000 0.672373
O O10 0.872954 0.872954 0.146434
O O11 0.000000 0.000000 0.079842
O O12 0.000000 0.000000 0.196240
#
# Coordination Sequence:
#
# PCOD9569699 Si02
#       5
#    16  16  16   8   8
#     4  11  22  37  57  84 119 154 189 235 292 357
#     4  10  21  37  59  85 116 156 198 241 288 342
#     4  12  23  38  56  87 117 150 189 233 296 354
#     4   9  15  30  57  88 116 145 190 241 290 343
#     4   9  18  31  54  87 113 143 185 231 289 351
#
# _framework density 17.733575999999999
#
# number of rings (size 3 to 8) (size 9 to 14) (size 15 to 20)
#    0.000    1.500    5.000    1.125    3.500    2.000 
#    2.250    0.000    0.000    0.750    0.000    1.750 
#    0.000    0.000    0.000    0.000    0.000    0.000 
#
# Total GULP energy -356504.228725 kJ/mol
# GULP energy per Si atom -5570.378574 kJ/mol
# Density = 1.769321 g / cm^3
# Si number density = 17.733576 Si / 1000 Ang^3
#
#
#
# Elastic Constant Matrix: (Units=GPa)
#
#
# Indices 1 2 3 4 5 6 
#
# 1 85.7690 48.6383 51.2905 0.0000 0.0000 0.0000
# 2 48.6383 85.7690 51.2905 0.0000 0.0000 0.0000
# 3 51.2905 51.2905 107.0430 0.0000 0.0000 0.0000
# 4 0.0000 0.0000 0.0000 51.8986 0.0000 0.0000
# 5 0.0000 0.0000 0.0000 0.0000 51.8986 0.0000
# 6 0.0000 0.0000 0.0000 0.0000 0.0000 41.5512
#
#
#
# Elastic Compliance Matrix: (Units=1/GPa)
#
#
# Indices 1 2 3 4 5 6 
#
# 1 0.019331 -0.007601 -0.005620 0.000000 0.000000 0.000000
# 2 -0.007601 0.019331 -0.005620 0.000000 0.000000 0.000000
# 3 -0.005620 -0.005620 0.014728 0.000000 0.000000 0.000000
# 4 0.000000 0.000000 0.000000 0.019268 0.000000 0.000000
# 5 0.000000 0.000000 0.000000 0.000000 0.019268 0.000000
# 6 0.000000 0.000000 0.000000 0.000000 0.000000 0.024067
#
#
# Mechanical properties :
#
#
# Convention : Reuss Voigt Hill
#
# Bulk Modulus (GPa) = 63.67017 64.55772 64.11395
# Shear Modulus (GPa) = 31.46400 37.56047 34.51223
#
# Velocity S-wave (km/s) = 4.21677 4.60721 4.41631
# Velocity P-wave (km/s) = 7.72592 8.04892 7.88907
#
# Compressibility (1/GPa) = 0.01570594
#
# Stress axis : x y z
#
# Youngs Moduli (GPa) = 51.73112 51.73112 67.89758
#
# Poissons Ratio (x) = 0.39322 0.38160
# Poissons Ratio (y) = 0.39322 0.38160
# Poissons Ratio (z) = 0.29074 0.29074
#
# Static dielectric constant tensor:
#      x y z
#    x 1.608240 0.000000 0.000000 
#    y 0.000000 1.608240 0.000000 
#    z 0.000000 0.000000 1.633730 
# 
# From -- ./inp_files/8183.got.cif
#   From: 2010.05.17/outbox.cif.g08.bks.cpg/sg136_5_cif.got.tgz:8183.got - 2010.05.20 12:54:53.
