data_PCOD9569514
_publ_section_title
;
Structure prediction by ZEFSAII (Michael W. Deem and Ramdas Pophale) SiO2 
 PCOD9569514
Probable space group: P 42/M N M
;
_chemical_formula_sum "Si O2"
_cell_formula_units_Z 96
_cell_length_a 24.717870
_cell_length_b 24.717870
_cell_length_c 7.828425
_cell_angle_alpha 90.000000
_cell_angle_beta 90.000000
_cell_angle_gamma 90.000000
_cell_volume 4782.957070
_symmetry_space_group_name_H-M "P 42/M N M"
_symmetry_group_IT_number 136
_symmetry_cell_setting 'tetragonal'
loop_
_space_group_symop_operation_xyz
x,y,z
1/2-y,1/2+x,1/2+z
-x,-y,z
1/2+y,1/2-x,1/2+z
1/2+x,1/2-y,1/2-z
1/2-x,1/2+y,1/2-z
y,x,-z
-y,-x,-z
-x,-y,-z
1/2+y,1/2-x,1/2-z
x,y,-z
1/2-y,1/2+x,1/2-z
1/2-x,1/2+y,1/2+z
1/2+x,1/2-y,1/2+z
-y,-x,z
y,x,z
loop_
_atom_site_type_symbol
_atom_site_label
_atom_site_fract_x
_atom_site_fract_y
_atom_site_fract_z
Si Si1 0.895168 0.809648 0.290955
Si Si2 0.707944 0.825775 0.301539
Si Si3 0.390169 0.092304 0.301770
Si Si4 0.776858 0.137740 0.795033
Si Si5 0.011433 0.777098 0.307751
Si Si6 0.988835 0.339413 0.195553
O O1 0.897305 0.803871 0.500000
O O2 0.866238 0.866238 0.251677
O O3 0.853760 0.762195 0.229473
O O4 0.957185 0.803760 0.227405
O O5 0.720480 0.812022 0.500000
O O6 0.664476 0.873611 0.299093
O O7 0.675041 0.773665 0.229659
O O8 0.403365 0.079755 0.500000
O O9 0.436497 0.131105 0.233573
O O10 0.380973 0.037748 0.201744
O O11 0.831350 0.168651 0.740766
O O12 0.778452 0.073689 0.756096
O O13 0.772502 0.140429 0.000000
O O14 0.014395 0.797821 0.500000
O O15 0.997048 0.713532 0.300631
O O16 0.977826 0.322136 0.000000
#
# Coordination Sequence:
#
# PCOD9569514 Si02
#       6
#    16  16  16  16  16  16
#     4   9  17  30  52  81 106 132 171 217 264 313
#     4   9  15  29  52  79 107 134 170 218 266 313
#     4  10  20  35  53  74 103 139 185 229 266 313
#     4  10  20  35  57  83 110 143 182 221 266 323
#     4  11  21  34  55  81 110 142 175 218 270 326
#     4  11  22  36  54  75 105 145 186 227 269 318
#
# _framework density 20.071266000000001
#
# number of rings (size 3 to 8) (size 9 to 14) (size 15 to 20)
#    0.000    2.000    3.333    1.500    0.000    4.000 
#    0.000    1.667    0.000    2.500    0.000    3.500 
#    0.000    0.000    0.000    0.000    0.000    0.000 
#
# Total GULP energy -534861.052838 kJ/mol
# GULP energy per Si atom -5571.469300 kJ/mol
# Density = 2.002558 g / cm^3
# Si number density = 20.071266 Si / 1000 Ang^3
#
#
#
# Elastic Constant Matrix: (Units=GPa)
#
#
# Indices 1 2 3 4 5 6 
#
# 1 46.2202 83.5897 6.9872 0.0000 0.0000 0.0000
# 2 83.5897 46.2202 6.9872 0.0000 0.0000 0.0000
# 3 6.9872 6.9872 21.7356 0.0000 0.0000 0.0000
# 4 0.0000 0.0000 0.0000 17.4748 0.0000 0.0000
# 5 0.0000 0.0000 0.0000 0.0000 17.4748 0.0000
# 6 0.0000 0.0000 0.0000 0.0000 0.0000 31.8242
#
#
#
# Elastic Compliance Matrix: (Units=1/GPa)
#
#
# Indices 1 2 3 4 5 6 
#
# 1 -0.009390 0.017370 -0.002565 0.000000 0.000000 0.000000
# 2 0.017370 -0.009390 -0.002565 0.000000 0.000000 0.000000
# 3 -0.002565 -0.002565 0.047657 0.000000 0.000000 0.000000
# 4 0.000000 0.000000 0.000000 0.057225 0.000000 0.000000
# 5 0.000000 0.000000 0.000000 0.000000 0.057225 0.000000
# 6 0.000000 0.000000 0.000000 0.000000 0.000000 0.031423
#
#
# Mechanical properties :
#
#
# Convention : Reuss Voigt Hill
#
# Bulk Modulus (GPa) = 18.74226 34.36714 26.55470
# Shear Modulus (GPa) = 29.75193 14.46220 22.10707
#
# Velocity S-wave (km/s) = 3.85426 2.68720 3.32238
# Velocity P-wave (km/s) = 5.40048 5.17570 5.28928
#
# Compressibility (1/GPa) = 0.05335536
#
# Stress axis : x y z
#
# Youngs Moduli (GPa) = -106.49581 -106.49581 20.98343
#
# Poissons Ratio (x) = 1.84981 0.05383
# Poissons Ratio (y) = 1.84981 0.05383
# Poissons Ratio (z) = -0.27318 -0.27318
#
# Static dielectric constant tensor:
#      x y z
#    x 1.720930 0.000000 0.000000 
#    y 0.000000 1.720930 0.000000 
#    z 0.000000 0.000000 1.783880 
# 
# From -- ./inp_files/1922.got.cif
#   From: 2010.05.17/outbox.cif.g08.bks.cpg/sg136_1_cif.got.tgz:1922.got - 2010.05.20 12:54:53.
