data_PCOD9569345
_publ_section_title
;
Structure prediction by ZEFSAII (Michael W. Deem and Ramdas Pophale) SiO2 
 PCOD9569345
Probable space group: P 42/M N M
;
_chemical_formula_sum "Si O2"
_cell_formula_units_Z 88
_cell_length_a 14.395148
_cell_length_b 14.395148
_cell_length_c 24.389733
_cell_angle_alpha 90.000000
_cell_angle_beta 90.000000
_cell_angle_gamma 90.000000
_cell_volume 5054.047446
_symmetry_space_group_name_H-M "P 42/M N M"
_symmetry_group_IT_number 136
_symmetry_cell_setting 'tetragonal'
loop_
_space_group_symop_operation_xyz
x,y,z
1/2-y,1/2+x,1/2+z
-x,-y,z
1/2+y,1/2-x,1/2+z
1/2+x,1/2-y,1/2-z
1/2-x,1/2+y,1/2-z
y,x,-z
-y,-x,-z
-x,-y,-z
1/2+y,1/2-x,1/2-z
x,y,-z
1/2-y,1/2+x,1/2-z
1/2-x,1/2+y,1/2+z
1/2+x,1/2-y,1/2+z
-y,-x,z
y,x,z
loop_
_atom_site_type_symbol
_atom_site_label
_atom_site_fract_x
_atom_site_fract_y
_atom_site_fract_z
Si Si1 0.573692 0.925532 0.437824
Si Si2 0.270839 0.882862 0.354813
Si Si3 0.101788 0.387015 0.749092
Si Si4 0.924146 0.924146 0.066834
Si Si5 0.785523 0.412184 0.437691
Si Si6 0.757816 0.400714 0.143425
O O1 0.595862 0.958728 0.500000
O O2 0.509895 0.836137 0.440591
O O3 0.665093 0.899653 0.404743
O O4 0.500000 0.000000 0.412431
O O5 0.184281 0.815720 0.354822
O O6 0.330532 0.870602 0.299665
O O7 0.339692 0.846764 0.402970
O O8 0.235416 0.989021 0.357099
O O9 0.117873 0.494281 0.731466
O O10 0.117134 0.315053 0.699769
O O11 0.817013 0.936247 0.084029
O O12 0.927864 0.927864 0.000000
O O13 0.000000 0.000000 0.086268
O O14 0.777343 0.375870 0.500000
O O15 0.672559 0.327442 0.137824
#
# Coordination Sequence:
#
# PCOD9569345 Si02
#       6
#    16  16  16   8  16  16
#     4  10  20  35  58  84 111 143 184 230 279 338
#     4  11  21  35  57  81 108 151 197 232 276 339
#     4   9  19  35  59  85 109 141 185 237 285 337
#     4   9  18  32  50  78 115 145 175 221 281 339
#     4  10  19  33  56  83 109 144 187 229 275 336
#     4  11  23  37  55  83 117 147 184 238 290 337
#
# _framework density 17.411788999999999
#
# number of rings (size 3 to 8) (size 9 to 14) (size 15 to 20)
#    0.000    1.909    2.727    1.636    2.545    1.455 
#    0.000    1.818    0.000    1.091    0.000    2.545 
#    0.000    0.000    0.000    0.000    0.000    0.000 
#
# Total GULP energy -489972.656760 kJ/mol
# GULP energy per Si atom -5567.871100 kJ/mol
# Density = 1.737216 g / cm^3
# Si number density = 17.411789 Si / 1000 Ang^3
#
#
#
# Elastic Constant Matrix: (Units=GPa)
#
#
# Indices 1 2 3 4 5 6 
#
# 1 117.5603 74.8015 53.2281 0.0000 0.0000 0.0000
# 2 74.8015 117.5603 53.2281 0.0000 0.0000 0.0000
# 3 53.2281 53.2281 73.3027 0.0000 0.0000 0.0000
# 4 0.0000 0.0000 0.0000 57.0217 0.0000 0.0000
# 5 0.0000 0.0000 0.0000 0.0000 57.0217 0.0000
# 6 0.0000 0.0000 0.0000 0.0000 0.0000 47.1461
#
#
#
# Elastic Compliance Matrix: (Units=1/GPa)
#
#
# Indices 1 2 3 4 5 6 
#
# 1 0.016039 -0.007348 -0.006311 0.000000 0.000000 0.000000
# 2 -0.007348 0.016039 -0.006311 0.000000 0.000000 0.000000
# 3 -0.006311 -0.006311 0.022807 0.000000 0.000000 0.000000
# 4 0.000000 0.000000 0.000000 0.017537 0.000000 0.000000
# 5 0.000000 0.000000 0.000000 0.000000 0.017537 0.000000
# 6 0.000000 0.000000 0.000000 0.000000 0.000000 0.021211
#
#
# Mechanical properties :
#
#
# Convention : Reuss Voigt Hill
#
# Bulk Modulus (GPa) = 66.90882 74.54875 70.72879
# Shear Modulus (GPa) = 32.03230 40.71560 36.37395
#
# Velocity S-wave (km/s) = 4.29381 4.84094 4.57556
# Velocity P-wave (km/s) = 7.94312 8.61129 8.28394
#
# Compressibility (1/GPa) = 0.01494571
#
# Stress axis : x y z
#
# Youngs Moduli (GPa) = 62.34773 62.34773 43.84530
#
# Poissons Ratio (x) = 0.45813 0.27671
# Poissons Ratio (y) = 0.45813 0.27671
# Poissons Ratio (z) = 0.39348 0.39348
#
# Static dielectric constant tensor:
#      x y z
#    x 2.152630 0.000000 0.000000 
#    y 0.000000 2.152630 0.000000 
#    z 0.000000 0.000000 1.637360 
# 
# From -- ./inp_files/7389.got.cif
#   From: 2010.05.17/outbox.cif.g08.bks.cpg/sg136_4_cif.got.tgz:7389.got - 2010.05.20 12:54:53.
