data_PCOD9569094
_publ_section_title
;
Structure prediction by ZEFSAII (Michael W. Deem and Ramdas Pophale) SiO2 
 PCOD9569094
Probable space group: P 42/M N M
;
_chemical_formula_sum "Si O2"
_cell_formula_units_Z 96
_cell_length_a 25.880894
_cell_length_b 25.880894
_cell_length_c 7.647920
_cell_angle_alpha 90.000000
_cell_angle_beta 90.000000
_cell_angle_gamma 90.000000
_cell_volume 5122.734931
_symmetry_space_group_name_H-M "P 42/M N M"
_symmetry_group_IT_number 136
_symmetry_cell_setting 'tetragonal'
loop_
_space_group_symop_operation_xyz
x,y,z
1/2-y,1/2+x,1/2+z
-x,-y,z
1/2+y,1/2-x,1/2+z
1/2+x,1/2-y,1/2-z
1/2-x,1/2+y,1/2-z
y,x,-z
-y,-x,-z
-x,-y,-z
1/2+y,1/2-x,1/2-z
x,y,-z
1/2-y,1/2+x,1/2-z
1/2-x,1/2+y,1/2+z
1/2+x,1/2-y,1/2+z
-y,-x,z
y,x,z
loop_
_atom_site_type_symbol
_atom_site_label
_atom_site_fract_x
_atom_site_fract_y
_atom_site_fract_z
Si Si1 0.419110 0.419110 0.294701
Si Si2 0.080164 0.629680 0.289525
Si Si3 0.465079 0.617930 0.789391
Si Si4 0.267304 0.518436 0.787099
Si Si5 0.664779 0.664779 0.796928
Si Si6 0.153304 0.534435 0.208711
Si Si7 0.599351 0.756878 0.786520
O O1 0.412204 0.412204 0.500000
O O2 0.404658 0.477992 0.249139
O O3 0.379322 0.379322 0.206683
O O4 0.078402 0.630752 0.500000
O O5 0.114288 0.580773 0.241850
O O6 0.104741 0.684007 0.230161
O O7 0.020668 0.631227 0.225743
O O8 0.420940 0.579061 0.723047
O O9 0.461105 0.677229 0.724932
O O10 0.460735 0.619593 0.000000
O O11 0.212472 0.542446 0.727312
O O12 0.262800 0.457898 0.739826
O O13 0.268405 0.521447 0.000000
O O14 0.641155 0.716656 0.718765
O O15 0.676043 0.676043 0.000000
O O16 0.157906 0.528936 0.000000
O O17 0.600598 0.756215 0.000000
#
# Coordination Sequence:
#
# PCOD9569094 Si02
#       7
#     8  16  16  16   8  16  16
#     4  12  23  31  42  69 108 136 152 192 258 306
#     4   9  18  32  49  73 100 125 158 196 235 287
#     4  10  19  32  52  72  89 122 174 214 235 276
#     4   8  14  28  49  71  91 115 157 204 238 271
#     4  10  16  29  55  74  88 121 170 212 242 273
#     4   9  18  32  51  72  98 129 156 192 242 290
#     4   8  14  26  49  73  90 114 155 204 240 270
#
# _framework density 18.739992000000001
#
# number of rings (size 3 to 8) (size 9 to 14) (size 15 to 20)
#    0.000    2.833    1.667    3.000    0.000    2.333 
#    0.000    3.333    1.833    0.000    0.000    0.000 
#    0.000    0.000    0.000    0.000    0.000    0.000 
#
# Total GULP energy -535049.603757 kJ/mol
# GULP energy per Si atom -5573.433372 kJ/mol
# Density = 1.869734 g / cm^3
# Si number density = 18.739992 Si / 1000 Ang^3
#
#
#
# Elastic Constant Matrix: (Units=GPa)
#
#
# Indices 1 2 3 4 5 6 
#
# 1 147.8093 110.9232 -0.8366 0.0000 0.0000 0.0000
# 2 110.9232 147.8093 -0.8366 0.0000 0.0000 0.0000
# 3 -0.8366 -0.8366 35.1470 0.0000 0.0000 0.0000
# 4 0.0000 0.0000 0.0000 24.2877 0.0000 0.0000
# 5 0.0000 0.0000 0.0000 0.0000 24.2877 0.0000
# 6 0.0000 0.0000 0.0000 0.0000 0.0000 28.7349
#
#
#
# Elastic Compliance Matrix: (Units=1/GPa)
#
#
# Indices 1 2 3 4 5 6 
#
# 1 0.015488 -0.011622 0.000092 0.000000 0.000000 0.000000
# 2 -0.011622 0.015488 0.000092 0.000000 0.000000 0.000000
# 3 0.000092 0.000092 0.028456 0.000000 0.000000 0.000000
# 4 0.000000 0.000000 0.000000 0.041173 0.000000 0.000000
# 5 0.000000 0.000000 0.000000 0.000000 0.041173 0.000000
# 6 0.000000 0.000000 0.000000 0.000000 0.000000 0.034801
#
#
# Mechanical properties :
#
#
# Convention : Reuss Voigt Hill
#
# Bulk Modulus (GPa) = 27.35560 61.02951 44.19256
# Shear Modulus (GPa) = 23.62486 30.22978 26.92732
#
# Velocity S-wave (km/s) = 3.55444 4.02072 3.79475
# Velocity P-wave (km/s) = 5.61021 7.36153 6.54471
#
# Compressibility (1/GPa) = 0.03655558
#
# Stress axis : x y z
#
# Youngs Moduli (GPa) = 64.56595 64.56595 35.14156
#
# Poissons Ratio (x) = 0.75041 -0.00323
# Poissons Ratio (y) = 0.75041 -0.00323
# Poissons Ratio (z) = -0.00594 -0.00594
#
# Static dielectric constant tensor:
#      x y z
#    x 1.650180 0.000000 0.000000 
#    y 0.000000 1.650180 0.000000 
#    z 0.000000 0.000000 1.724800 
# 
# From -- ./inp_files/2073.got.cif
#   From: 2010.05.17/outbox.cif.g08.bks.cpg/sg136_2_cif.got.tgz:2073.got - 2010.05.20 12:54:53.
