data_PCOD9569118
_publ_section_title
;
Structure prediction by ZEFSAII (Michael W. Deem and Ramdas Pophale) SiO2 
 PCOD9569118
Probable space group: P 42/M N M
;
_chemical_formula_sum "Si O2"
_cell_formula_units_Z 120
_cell_length_a 15.043818
_cell_length_b 15.043818
_cell_length_c 28.846508
_cell_angle_alpha 90.000000
_cell_angle_beta 90.000000
_cell_angle_gamma 90.000000
_cell_volume 6528.439574
_symmetry_space_group_name_H-M "P 42/M N M"
_symmetry_group_IT_number 136
_symmetry_cell_setting 'tetragonal'
loop_
_space_group_symop_operation_xyz
x,y,z
1/2-y,1/2+x,1/2+z
-x,-y,z
1/2+y,1/2-x,1/2+z
1/2+x,1/2-y,1/2-z
1/2-x,1/2+y,1/2-z
y,x,-z
-y,-x,-z
-x,-y,-z
1/2+y,1/2-x,1/2-z
x,y,-z
1/2-y,1/2+x,1/2-z
1/2-x,1/2+y,1/2+z
1/2+x,1/2-y,1/2+z
-y,-x,z
y,x,z
loop_
_atom_site_type_symbol
_atom_site_label
_atom_site_fract_x
_atom_site_fract_y
_atom_site_fract_z
Si Si1 0.050055 0.412237 0.553699
Si Si2 0.702666 0.013802 0.629524
Si Si3 0.125561 0.267376 0.246514
Si Si4 0.566762 0.916254 0.694952
Si Si5 0.497553 0.762004 0.445640
Si Si6 0.410648 0.812228 0.646501
Si Si7 0.570643 0.570643 0.444400
Si Si8 0.504460 0.645649 0.802466
O O1 0.024867 0.407390 0.500000
O O2 0.153570 0.436559 0.557067
O O3 0.000000 0.500000 0.574247
O O4 0.018587 0.323093 0.578532
O O5 0.658273 0.108477 0.638400
O O6 0.643641 0.947338 0.660440
O O7 0.801255 0.013894 0.649368
O O8 0.212582 0.212582 0.263889
O O9 0.119271 0.371925 0.262202
O O10 0.124050 0.260087 0.191113
O O11 0.038455 0.216243 0.266513
O O12 0.504792 0.847648 0.667376
O O13 0.500000 0.000000 0.703409
O O14 0.466057 0.758887 0.500000
O O15 0.426347 0.772516 0.404475
O O16 0.546530 0.671017 0.433630
O O17 0.500000 0.500000 0.424589
O O18 0.564525 0.564525 0.500000
O O19 0.430946 0.569055 0.806843
O O20 0.596520 0.596520 0.789297
#
# Coordination Sequence:
#
# PCOD9569118 Si02
#       8
#    16  16  16  16  16  16   8  16
#     4  10  17  31  56  85 119 149 179 232 298 353
#     4  10  18  33  55  85 114 143 188 231 285 345
#     4  10  23  38  53  81 116 145 191 251 284 336
#     4   9  19  33  54  79 110 152 187 222 284 356
#     4  10  20  37  59  85 114 151 195 240 290 352
#     4  11  21  33  54  87 116 149 183 233 295 352
#     4   9  20  40  60  76 106 156 203 237 281 349
#     4   9  20  41  62  78 107 156 200 235 286 350
#
# _framework density 18.381114
#
# number of rings (size 3 to 8) (size 9 to 14) (size 15 to 20)
#    0.000    2.200    2.667    0.400    5.600    1.067 
#    3.600    0.000    0.000    0.400    0.000    0.933 
#    0.000    0.000    0.000    0.000    0.000    0.000 
#
# Total GULP energy -668024.986521 kJ/mol
# GULP energy per Si atom -5566.874888 kJ/mol
# Density = 1.833928 g / cm^3
# Si number density = 18.381114 Si / 1000 Ang^3
#
#
#
# Elastic Constant Matrix: (Units=GPa)
#
#
# Indices 1 2 3 4 5 6 
#
# 1 62.4564 29.8060 16.6280 0.0000 0.0000 0.0000
# 2 29.8060 62.4564 16.6280 0.0000 0.0000 0.0000
# 3 16.6280 16.6280 98.5426 0.0000 0.0000 0.0000
# 4 0.0000 0.0000 0.0000 15.0227 0.0000 0.0000
# 5 0.0000 0.0000 0.0000 0.0000 15.0227 0.0000
# 6 0.0000 0.0000 0.0000 0.0000 0.0000 8.5059
#
#
#
# Elastic Compliance Matrix: (Units=1/GPa)
#
#
# Indices 1 2 3 4 5 6 
#
# 1 0.021084 -0.009543 -0.001947 0.000000 0.000000 0.000000
# 2 -0.009543 0.021084 -0.001947 0.000000 0.000000 0.000000
# 3 -0.001947 -0.001947 0.010805 0.000000 0.000000 0.000000
# 4 0.000000 0.000000 0.000000 0.066566 0.000000 0.000000
# 5 0.000000 0.000000 0.000000 0.000000 0.066566 0.000000
# 6 0.000000 0.000000 0.000000 0.000000 0.000000 0.117566
#
#
# Mechanical properties :
#
#
# Convention : Reuss Voigt Hill
#
# Bulk Modulus (GPa) = 38.31880 38.84214 38.58047
# Shear Modulus (GPa) = 14.73859 18.40317 16.57088
#
# Velocity S-wave (km/s) = 2.83474 3.16761 3.00578
# Velocity P-wave (km/s) = 5.62196 5.87841 5.75161
#
# Compressibility (1/GPa) = 0.02609685
#
# Stress axis : x y z
#
# Youngs Moduli (GPa) = 47.42925 47.42925 92.54904
#
# Poissons Ratio (x) = 0.45264 0.18022
# Poissons Ratio (y) = 0.45264 0.18022
# Poissons Ratio (z) = 0.09236 0.09236
#
# Static dielectric constant tensor:
#      x y z
#    x 1.562330 0.000000 0.000000 
#    y 0.000000 1.562330 0.000000 
#    z 0.000000 0.000000 1.695750 
# 
# From -- ./inp_files/10034.got.cif
#   From: 2010.05.17/outbox.cif.g08.bks.cpg/sg136_6_cif.got.tgz:10034.got - 2010.05.20 12:54:53.
