data_PCOD9569942
_publ_section_title
;
Structure prediction by ZEFSAII (Michael W. Deem and Ramdas Pophale) SiO2 
 PCOD9569942
Probable space group: P 42/N M C
;
_chemical_formula_sum "Si O2"
_cell_formula_units_Z 96
_cell_length_a 19.807733
_cell_length_b 19.807733
_cell_length_c 15.056093
_cell_angle_alpha 90.000000
_cell_angle_beta 90.000000
_cell_angle_gamma 90.000000
_cell_volume 5907.202179
_symmetry_space_group_name_H-M "P 42/N M C"
_symmetry_group_IT_number 137
_space_group.IT_coordinate_system_code '2'
_symmetry_cell_setting 'tetragonal'
loop_
_space_group_symop_operation_xyz
x,y,z
1/2-y,x,1/2+z
1/2-x,1/2-y,z
y,1/2-x,1/2+z
1/2+x,-y,-z
-x,1/2+y,-z
1/2+y,1/2+x,1/2-z
-y,-x,1/2-z
-x,-y,-z
1/2+y,-x,1/2-z
1/2+x,1/2+y,-z
-y,1/2+x,1/2-z
1/2-x,y,z
x,1/2-y,z
1/2-y,1/2-x,1/2+z
y,x,1/2+z
loop_
_atom_site_type_symbol
_atom_site_label
_atom_site_fract_x
_atom_site_fract_y
_atom_site_fract_z
Si Si1 0.418235 0.172220 0.366589
Si Si2 0.173191 0.533757 0.012331
Si Si3 0.409257 0.011347 0.713201
Si Si4 0.973250 0.422864 0.018127
Si Si5 0.824951 0.954331 0.617287
Si Si6 0.976634 0.127246 0.714499
O O1 0.398531 0.250000 0.355104
O O2 0.464373 0.167315 0.455463
O O3 0.462276 0.146340 0.282242
O O4 0.356532 0.120228 0.373841
O O5 0.250000 0.558785 0.996865
O O6 0.160680 0.527089 0.117875
O O7 0.107960 0.575814 0.981027
O O8 0.468910 0.066715 0.710141
O O9 0.443282 0.943282 0.750000
O O10 0.392871 0.999569 0.610686
O O11 0.000000 0.500000 0.000000
O O12 0.002785 0.377520 0.940341
O O13 0.750000 0.952418 0.579282
O O14 0.824534 0.991722 0.711847
O O15 0.907459 0.092542 0.750000
#
# Coordination Sequence:
#
# PCOD9569942 Si02
#       6
#    16  16  16  16  16  16
#     4  10  21  35  52  79 113 150 186 223 279 338
#     4  11  20  32  53  81 110 142 180 224 280 338
#     4  10  17  29  53  78 105 137 181 235 277 317
#     4  12  18  35  57  81 108 144 185 240 286 322
#     4  11  22  34  53  82 113 147 186 229 278 333
#     4  10  17  31  53  76 103 137 177 224 272 320
#
# _framework density 16.251348
#
# number of rings (size 3 to 8) (size 9 to 14) (size 15 to 20)
#    0.000    1.333    6.667    1.500    0.000    1.000 
#    0.000    0.000    0.000    0.500    0.000    5.833 
#    0.000    0.333    0.000    0.000    0.000    0.000 
#
# Total GULP energy -534871.083650 kJ/mol
# GULP energy per Si atom -5571.573788 kJ/mol
# Density = 1.621436 g / cm^3
# Si number density = 16.251348 Si / 1000 Ang^3
#
#
#
# Elastic Constant Matrix: (Units=GPa)
#
#
# Indices 1 2 3 4 5 6 
#
# 1 95.1516 37.9072 17.0179 0.0000 0.0000 0.0000
# 2 37.9072 95.1502 17.0179 0.0000 0.0000 0.0000
# 3 17.0179 17.0179 88.7854 0.0000 0.0000 0.0000
# 4 0.0000 0.0000 0.0000 13.3792 0.0000 0.0000
# 5 0.0000 0.0000 0.0000 0.0000 13.3796 0.0000
# 6 0.0000 0.0000 0.0000 0.0000 0.0000 6.6317
#
#
#
# Elastic Compliance Matrix: (Units=1/GPa)
#
#
# Indices 1 2 3 4 5 6 
#
# 1 0.012686 -0.004783 -0.001515 0.000000 0.000000 0.000000
# 2 -0.004783 0.012686 -0.001515 0.000000 0.000000 0.000000
# 3 -0.001515 -0.001515 0.011844 0.000000 0.000000 0.000000
# 4 0.000000 0.000000 0.000000 0.074743 0.000000 0.000000
# 5 0.000000 0.000000 0.000000 0.000000 0.074741 0.000000
# 6 0.000000 0.000000 0.000000 0.000000 0.000000 0.150792
#
#
# Mechanical properties :
#
#
# Convention : Reuss Voigt Hill
#
# Bulk Modulus (GPa) = 46.31647 46.99702 46.65675
# Shear Modulus (GPa) = 13.87680 20.48772 17.18226
#
# Velocity S-wave (km/s) = 2.92530 3.55445 3.25511
# Velocity P-wave (km/s) = 6.32233 6.76958 6.54977
#
# Compressibility (1/GPa) = 0.02159059
#
# Stress axis : x y z
#
# Youngs Moduli (GPa) = 78.82716 78.82601 84.43227
#
# Poissons Ratio (x) = 0.37703 0.12790
# Poissons Ratio (y) = 0.37704 0.12790
# Poissons Ratio (z) = 0.11941 0.11941
#
# Static dielectric constant tensor:
#      x y z
#    x 1.542670 0.000000 0.000000 
#    y 0.000000 1.542670 0.000000 
#    z 0.000000 0.000000 1.588190 
# 
# From -- ./inp_files/5265.got.cif
#   From: 2010.05.17/outbox.cif.g08.bks.cpg/sg137_3_cif.got.tgz:5265.got - 2010.05.20 13:01:12.
