data_PCOD9569764
_publ_section_title
;
Structure prediction by ZEFSAII (Michael W. Deem and Ramdas Pophale) SiO2 
 PCOD9569764
Probable space group: P 42/M N M
;
_chemical_formula_sum "Si O2"
_cell_formula_units_Z 64
_cell_length_a 11.029485
_cell_length_b 11.029485
_cell_length_c 23.972506
_cell_angle_alpha 90.000000
_cell_angle_beta 90.000000
_cell_angle_gamma 90.000000
_cell_volume 2916.244312
_symmetry_space_group_name_H-M "P 42/M N M"
_symmetry_group_IT_number 136
_symmetry_cell_setting 'tetragonal'
loop_
_space_group_symop_operation_xyz
x,y,z
1/2-y,1/2+x,1/2+z
-x,-y,z
1/2+y,1/2-x,1/2+z
1/2+x,1/2-y,1/2-z
1/2-x,1/2+y,1/2-z
y,x,-z
-y,-x,-z
-x,-y,-z
1/2+y,1/2-x,1/2-z
x,y,-z
1/2-y,1/2+x,1/2-z
1/2-x,1/2+y,1/2+z
1/2+x,1/2-y,1/2+z
-y,-x,z
y,x,z
loop_
_atom_site_type_symbol
_atom_site_label
_atom_site_fract_x
_atom_site_fract_y
_atom_site_fract_z
Si Si1 0.730900 0.464380 0.351507
Si Si2 0.504213 0.701047 0.223782
Si Si3 0.808237 0.383743 0.119166
Si Si4 0.620973 0.808155 0.061630
O O1 0.595674 0.404327 0.356334
O O2 0.752737 0.478525 0.285315
O O3 0.778714 0.592573 0.374492
O O4 0.811779 0.374938 0.388214
O O5 0.409392 0.590609 0.218153
O O6 0.638172 0.638172 0.220346
O O7 0.464610 0.793734 0.175647
O O8 0.681319 0.318682 0.109483
O O9 0.829752 0.479946 0.070874
O O10 0.668793 0.668793 0.064948
O O11 0.657641 0.852472 0.000000
#
# Coordination Sequence:
#
# PCOD9569764 Si02
#       4
#    16  16  16  16
#     4  10  22  40  63  90 126 172 216 262 319 386
#     4   9  19  36  58  87 127 168 208 262 326 388
#     4  11  23  37  61  96 128 166 215 266 326 395
#     4  10  23  44  67  91 124 168 218 272 327 388
#
# _framework density 21.946034000000001
#
# number of rings (size 3 to 8) (size 9 to 14) (size 15 to 20)
#    0.000    2.000    0.000    2.250    3.500    5.500 
#    0.000    1.250    0.000    2.250    0.000   17.500 
#    0.000    0.000    0.000    0.000    0.000    0.000 
#
# Total GULP energy -356461.069896 kJ/mol
# GULP energy per Si atom -5569.704217 kJ/mol
# Density = 2.189608 g / cm^3
# Si number density = 21.946034 Si / 1000 Ang^3
#
#
#
# Elastic Constant Matrix: (Units=GPa)
#
#
# Indices 1 2 3 4 5 6 
#
# 1 197.8585 -78.0440 41.4527 0.0000 0.0000 0.0000
# 2 -78.0440 197.8585 41.4527 0.0000 0.0000 0.0000
# 3 41.4527 41.4527 71.1554 0.0000 0.0000 0.0000
# 4 0.0000 0.0000 0.0000 12.2336 0.0000 0.0000
# 5 0.0000 0.0000 0.0000 0.0000 12.2336 0.0000
# 6 0.0000 0.0000 0.0000 0.0000 0.0000 21.8287
#
#
#
# Elastic Compliance Matrix: (Units=1/GPa)
#
#
# Indices 1 2 3 4 5 6 
#
# 1 0.008804 0.005179 -0.008146 0.000000 0.000000 0.000000
# 2 0.005179 0.008804 -0.008146 0.000000 0.000000 0.000000
# 3 -0.008146 -0.008146 0.023545 0.000000 0.000000 0.000000
# 4 0.000000 0.000000 0.000000 0.081742 0.000000 0.000000
# 5 0.000000 0.000000 0.000000 0.000000 0.081742 0.000000
# 6 0.000000 0.000000 0.000000 0.000000 0.000000 0.045811
#
#
# Mechanical properties :
#
#
# Convention : Reuss Voigt Hill
#
# Bulk Modulus (GPa) = 52.83520 52.95502 52.89511
# Shear Modulus (GPa) = 17.92230 40.05989 28.99110
#
# Velocity S-wave (km/s) = 2.86082 4.27708 3.63852
# Velocity P-wave (km/s) = 5.91943 6.96945 6.46579
#
# Compressibility (1/GPa) = 0.01892678
#
# Stress axis : x y z
#
# Youngs Moduli (GPa) = 113.58965 113.58965 42.47228
#
# Poissons Ratio (x) = -0.58830 0.34597
# Poissons Ratio (y) = -0.58830 0.34597
# Poissons Ratio (z) = 0.92529 0.92529
#
# Static dielectric constant tensor:
#      x y z
#    x 1.833240 0.000000 0.000000 
#    y 0.000000 1.833240 0.000000 
#    z 0.000000 0.000000 1.779180 
# 
# From -- ./inp_files/7042.got.cif
#   From: 2010.05.17/outbox.cif.g08.bks.cpg/sg136_4_cif.got.tgz:7042.got - 2010.05.20 12:54:53.
