data_PCOD9569696
_publ_section_title
;
Structure prediction by ZEFSAII (Michael W. Deem and Ramdas Pophale) SiO2 
 PCOD9569696
Probable space group: P 42/M N M
;
_chemical_formula_sum "Si O2"
_cell_formula_units_Z 80
_cell_length_a 14.302997
_cell_length_b 14.302997
_cell_length_c 22.963472
_cell_angle_alpha 90.000000
_cell_angle_beta 90.000000
_cell_angle_gamma 90.000000
_cell_volume 4697.768891
_symmetry_space_group_name_H-M "P 42/M N M"
_symmetry_group_IT_number 136
_symmetry_cell_setting 'tetragonal'
loop_
_space_group_symop_operation_xyz
x,y,z
1/2-y,1/2+x,1/2+z
-x,-y,z
1/2+y,1/2-x,1/2+z
1/2+x,1/2-y,1/2-z
1/2-x,1/2+y,1/2-z
y,x,-z
-y,-x,-z
-x,-y,-z
1/2+y,1/2-x,1/2-z
x,y,-z
1/2-y,1/2+x,1/2-z
1/2-x,1/2+y,1/2+z
1/2+x,1/2-y,1/2+z
-y,-x,z
y,x,z
loop_
_atom_site_type_symbol
_atom_site_label
_atom_site_fract_x
_atom_site_fract_y
_atom_site_fract_z
Si Si1 0.870486 0.279640 0.130648
Si Si2 0.606858 0.976635 0.569648
Si Si3 0.804037 0.954418 0.069344
Si Si4 0.343837 0.192159 0.876911
Si Si5 0.912624 0.370952 0.252103
O O1 0.772916 0.227085 0.127827
O O2 0.869912 0.375710 0.094877
O O3 0.895241 0.305708 0.196822
O O4 0.949948 0.213699 0.102855
O O5 0.607383 0.975527 0.500000
O O6 0.500000 0.000000 0.589249
O O7 0.676544 0.056452 0.592522
O O8 0.903043 0.903043 0.079183
O O9 0.725170 0.882896 0.092802
O O10 0.792113 0.967442 0.000000
O O11 0.291734 0.291734 0.882143
O O12 0.360489 0.165203 0.809586
O O13 0.878579 0.476041 0.237361
#
# Coordination Sequence:
#
# PCOD9569696 Si02
#       5
#    16  16  16  16  16
#     4  12  24  38  59  90 122 154 196 242 294 350
#     4  11  21  37  59  86 120 154 190 237 287 339
#     4  10  21  37  58  87 123 159 193 233 289 356
#     4  11  21  36  60  88 115 148 195 242 286 342
#     4  11  20  37  62  86 115 150 190 244 297 342
#
# _framework density 17.02936
#
# number of rings (size 3 to 8) (size 9 to 14) (size 15 to 20)
#    0.000    1.000    6.000    1.800    0.000    3.200 
#    0.000    1.000    0.000    0.600    0.000    1.400 
#    0.000    0.000    0.000    0.000    0.000    0.000 
#
# Total GULP energy -446915.937916 kJ/mol
# GULP energy per Si atom -5586.449224 kJ/mol
# Density = 1.699060 g / cm^3
# Si number density = 17.029360 Si / 1000 Ang^3
#
#
#
# Elastic Constant Matrix: (Units=GPa)
#
#
# Indices 1 2 3 4 5 6 
#
# 1 86.9992 51.8641 36.7076 0.0000 0.0000 0.0000
# 2 51.8641 86.9992 36.7076 0.0000 0.0000 0.0000
# 3 36.7076 36.7076 87.7990 0.0000 0.0000 0.0000
# 4 0.0000 0.0000 0.0000 12.8900 0.0000 0.0000
# 5 0.0000 0.0000 0.0000 0.0000 12.8900 0.0000
# 6 0.0000 0.0000 0.0000 0.0000 0.0000 32.4739
#
#
#
# Elastic Compliance Matrix: (Units=1/GPa)
#
#
# Indices 1 2 3 4 5 6 
#
# 1 0.018853 -0.009608 -0.003865 0.000000 0.000000 0.000000
# 2 -0.009608 0.018853 -0.003865 0.000000 0.000000 0.000000
# 3 -0.003865 -0.003865 0.014622 0.000000 0.000000 0.000000
# 4 0.000000 0.000000 0.000000 0.077580 0.000000 0.000000
# 5 0.000000 0.000000 0.000000 0.000000 0.077580 0.000000
# 6 0.000000 0.000000 0.000000 0.000000 0.000000 0.030794
#
#
# Mechanical properties :
#
#
# Convention : Reuss Voigt Hill
#
# Bulk Modulus (GPa) = 56.65524 56.92848 56.79186
# Shear Modulus (GPa) = 17.93131 20.75197 19.34164
#
# Velocity S-wave (km/s) = 3.24846 3.49463 3.37379
# Velocity P-wave (km/s) = 6.88559 7.05588 6.97126
#
# Compressibility (1/GPa) = 0.01765062
#
# Stress axis : x y z
#
# Youngs Moduli (GPa) = 53.04153 53.04153 68.39217
#
# Poissons Ratio (x) = 0.50964 0.26434
# Poissons Ratio (y) = 0.50964 0.26434
# Poissons Ratio (z) = 0.20501 0.20501
#
# Static dielectric constant tensor:
#      x y z
#    x 1.568210 0.000000 0.000000 
#    y 0.000000 1.568210 0.000000 
#    z 0.000000 0.000000 1.571580 
# 
# From -- ./inp_files/7217.got.cif
#   From: 2010.05.17/outbox.cif.g08.bks.cpg/sg136_4_cif.got.tgz:7217.got - 2010.05.20 12:54:53.
