data_PCOD9569712
_publ_section_title
;
Structure prediction by ZEFSAII (Michael W. Deem and Ramdas Pophale) SiO2 
 PCOD9569712
Probable space group: P 42/M N M
;
_chemical_formula_sum "Si O2"
_cell_formula_units_Z 88
_cell_length_a 13.027572
_cell_length_b 13.027572
_cell_length_c 28.864155
_cell_angle_alpha 90.000000
_cell_angle_beta 90.000000
_cell_angle_gamma 90.000000
_cell_volume 4898.756042
_symmetry_space_group_name_H-M "P 42/M N M"
_symmetry_group_IT_number 136
_symmetry_cell_setting 'tetragonal'
loop_
_space_group_symop_operation_xyz
x,y,z
1/2-y,1/2+x,1/2+z
-x,-y,z
1/2+y,1/2-x,1/2+z
1/2+x,1/2-y,1/2-z
1/2-x,1/2+y,1/2-z
y,x,-z
-y,-x,-z
-x,-y,-z
1/2+y,1/2-x,1/2-z
x,y,-z
1/2-y,1/2+x,1/2-z
1/2-x,1/2+y,1/2+z
1/2+x,1/2-y,1/2+z
-y,-x,z
y,x,z
loop_
_atom_site_type_symbol
_atom_site_label
_atom_site_fract_x
_atom_site_fract_y
_atom_site_fract_z
Si Si1 0.106232 0.280094 0.097473
Si Si2 0.694305 0.134216 0.894263
Si Si3 0.275583 0.883065 0.789906
Si Si4 0.582983 0.582983 0.056308
Si Si5 0.120701 0.279173 0.202491
Si Si6 0.811262 0.517368 0.054959
O O1 0.182025 0.182025 0.086656
O O2 0.136108 0.315817 0.149782
O O3 0.125753 0.378598 0.065263
O O4 0.982478 0.262325 0.098373
O O5 0.779529 0.220472 0.907500
O O6 0.673784 0.147414 0.839018
O O7 0.586240 0.149639 0.920424
O O8 0.161154 0.838847 0.793433
O O9 0.323871 0.838545 0.743462
O O10 0.280679 0.002817 0.787084
O O11 0.500000 0.500000 0.071411
O O12 0.695914 0.547378 0.070948
O O13 0.584999 0.584999 0.000000
O O14 0.164686 0.164686 0.202836
O O15 0.810034 0.498289 0.000000
#
# Coordination Sequence:
#
# PCOD9569712 Si02
#       6
#    16  16  16   8  16  16
#     4  10  21  38  59  85 115 150 194 238 286 345
#     4  10  22  38  58  85 115 150 193 240 288 341
#     4   9  19  35  54  78 110 145 184 230 278 331
#     4   9  18  34  58  84 111 151 193 231 284 340
#     4   9  19  34  54  80 109 145 185 229 277 330
#     4  11  22  38  59  84 117 151 190 239 286 342
#
# _framework density 17.963744999999999
#
# number of rings (size 3 to 8) (size 9 to 14) (size 15 to 20)
#    0.000    2.273    0.909    1.091    2.545    3.636 
#    0.000    3.636    0.000    0.000    0.000    2.545 
#    0.000    0.000    0.000    0.000    0.000    0.000 
#
# Total GULP energy -489929.999842 kJ/mol
# GULP energy per Si atom -5567.386362 kJ/mol
# Density = 1.792286 g / cm^3
# Si number density = 17.963745 Si / 1000 Ang^3
#
#
#
# Elastic Constant Matrix: (Units=GPa)
#
#
# Indices 1 2 3 4 5 6 
#
# 1 80.0134 17.5740 21.5700 0.0000 0.0000 0.0000
# 2 17.5740 80.0134 21.5700 0.0000 0.0000 0.0000
# 3 21.5700 21.5700 41.6773 0.0000 0.0000 0.0000
# 4 0.0000 0.0000 0.0000 24.1475 0.0000 0.0000
# 5 0.0000 0.0000 0.0000 0.0000 24.1475 0.0000
# 6 0.0000 0.0000 0.0000 0.0000 0.0000 19.6769
#
#
#
# Elastic Compliance Matrix: (Units=1/GPa)
#
#
# Indices 1 2 3 4 5 6 
#
# 1 0.014651 -0.001364 -0.006877 0.000000 0.000000 0.000000
# 2 -0.001364 0.014651 -0.006877 0.000000 0.000000 0.000000
# 3 -0.006877 -0.006877 0.031112 0.000000 0.000000 0.000000
# 4 0.000000 0.000000 0.000000 0.041412 0.000000 0.000000
# 5 0.000000 0.000000 0.000000 0.000000 0.041412 0.000000
# 6 0.000000 0.000000 0.000000 0.000000 0.000000 0.050821
#
#
# Mechanical properties :
#
#
# Convention : Reuss Voigt Hill
#
# Bulk Modulus (GPa) = 33.13523 35.90354 34.51939
# Shear Modulus (GPa) = 21.33512 22.99371 22.16442
#
# Velocity S-wave (km/s) = 3.45001 3.58160 3.51642
# Velocity P-wave (km/s) = 5.86138 6.09376 5.97869
#
# Compressibility (1/GPa) = 0.03017936
#
# Stress axis : x y z
#
# Youngs Moduli (GPa) = 68.25309 68.25309 32.14198
#
# Poissons Ratio (x) = 0.09311 0.22103
# Poissons Ratio (y) = 0.09311 0.22103
# Poissons Ratio (z) = 0.46936 0.46936
#
# Static dielectric constant tensor:
#      x y z
#    x 1.619230 0.000000 0.000000 
#    y 0.000000 1.619230 0.000000 
#    z 0.000000 0.000000 1.647160 
# 
# From -- ./inp_files/9701.got.cif
#   From: 2010.05.17/outbox.cif.g08.bks.cpg/sg136_5_cif.got.tgz:9701.got - 2010.05.20 12:54:53.
