data_PCOD9569342
_publ_section_title
;
Structure prediction by ZEFSAII (Michael W. Deem and Ramdas Pophale) SiO2 
 PCOD9569342
Probable space group: P 42/M N M
;
_chemical_formula_sum "Si O2"
_cell_formula_units_Z 96
_cell_length_a 24.507759
_cell_length_b 24.507759
_cell_length_c 7.464454
_cell_angle_alpha 90.000000
_cell_angle_beta 90.000000
_cell_angle_gamma 90.000000
_cell_volume 4483.376881
_symmetry_space_group_name_H-M "P 42/M N M"
_symmetry_group_IT_number 136
_symmetry_cell_setting 'tetragonal'
loop_
_space_group_symop_operation_xyz
x,y,z
1/2-y,1/2+x,1/2+z
-x,-y,z
1/2+y,1/2-x,1/2+z
1/2+x,1/2-y,1/2-z
1/2-x,1/2+y,1/2-z
y,x,-z
-y,-x,-z
-x,-y,-z
1/2+y,1/2-x,1/2-z
x,y,-z
1/2-y,1/2+x,1/2-z
1/2-x,1/2+y,1/2+z
1/2+x,1/2-y,1/2+z
-y,-x,z
y,x,z
loop_
_atom_site_type_symbol
_atom_site_label
_atom_site_fract_x
_atom_site_fract_y
_atom_site_fract_z
Si Si1 0.742151 0.742151 0.718171
Si Si2 0.346074 0.346074 0.719541
Si Si3 0.923377 0.634022 0.716632
Si Si4 0.153135 0.069843 0.715719
Si Si5 0.711877 0.544089 0.287292
Si Si6 0.635113 0.242070 0.218275
Si Si7 0.337908 0.956006 0.210952
O O1 0.741488 0.741488 0.500000
O O2 0.698466 0.698466 0.775664
O O3 0.729966 0.803602 0.775577
O O4 0.347903 0.347903 0.500000
O O5 0.404494 0.323224 0.780970
O O6 0.922433 0.632201 0.500000
O O7 0.903930 0.693711 0.775799
O O8 0.878980 0.590268 0.783195
O O9 0.986322 0.631274 0.769999
O O10 0.151921 0.070710 0.500000
O O11 0.095114 0.095114 0.777291
O O12 0.200152 0.111785 0.776623
O O13 0.176338 0.010551 0.762511
O O14 0.717437 0.551718 0.500000
O O15 0.775026 0.541265 0.217461
O O16 0.635637 0.243215 0.000000
O O17 0.332142 0.944254 0.000000
#
# Coordination Sequence:
#
# PCOD9569342 Si02
#       7
#     8   8  16  16  16  16  16
#     4   9  14  24  48  80 106 126 163 224 271 307
#     4   9  18  32  52  78 107 140 177 215 264 323
#     4  10  20  34  52  73 101 140 180 218 265 319
#     4  10  19  33  55  83 108 135 176 218 259 313
#     4  10  20  36  56  80 110 141 173 217 270 322
#     4   9  15  26  47  75 102 128 163 211 265 313
#     4  10  21  35  52  77 106 137 179 225 267 315
#
# _framework density 21.412431000000002
#
# number of rings (size 3 to 8) (size 9 to 14) (size 15 to 20)
#    0.000    2.333    2.500    1.000    0.000    5.333 
#    0.000    2.500    0.000    2.500    0.000    2.333 
#    0.000    0.000    0.000    0.000    0.000    0.000 
#
# Total GULP energy -535538.911637 kJ/mol
# GULP energy per Si atom -5578.530330 kJ/mol
# Density = 2.136370 g / cm^3
# Si number density = 21.412431 Si / 1000 Ang^3
#
#
#
# Elastic Constant Matrix: (Units=GPa)
#
#
# Indices 1 2 3 4 5 6 
#
# 1 148.6120 68.7429 1.6828 0.0000 0.0000 0.0000
# 2 68.7429 148.6120 1.6828 0.0000 0.0000 0.0000
# 3 1.6828 1.6828 61.0214 0.0000 0.0000 0.0000
# 4 0.0000 0.0000 0.0000 7.5214 0.0000 0.0000
# 5 0.0000 0.0000 0.0000 0.0000 7.5214 0.0000
# 6 0.0000 0.0000 0.0000 0.0000 0.0000 32.2241
#
#
#
# Elastic Compliance Matrix: (Units=1/GPa)
#
#
# Indices 1 2 3 4 5 6 
#
# 1 0.008562 -0.003959 -0.000127 0.000000 0.000000 0.000000
# 2 -0.003959 0.008562 -0.000127 0.000000 0.000000 0.000000
# 3 -0.000127 -0.000127 0.016395 0.000000 0.000000 0.000000
# 4 0.000000 0.000000 0.000000 0.132953 0.000000 0.000000
# 5 0.000000 0.000000 0.000000 0.000000 0.132953 0.000000
# 6 0.000000 0.000000 0.000000 0.000000 0.000000 0.031033
#
#
# Mechanical properties :
#
#
# Convention : Reuss Voigt Hill
#
# Bulk Modulus (GPa) = 39.85264 55.82915 47.84089
# Shear Modulus (GPa) = 14.39898 28.52919 21.46408
#
# Velocity S-wave (km/s) = 2.59599 3.65412 3.16952
# Velocity P-wave (km/s) = 5.25718 6.62822 5.98211
#
# Compressibility (1/GPa) = 0.02509244
#
# Stress axis : x y z
#
# Youngs Moduli (GPa) = 116.80039 116.80039 60.99538
#
# Poissons Ratio (x) = 0.46240 0.00774
# Poissons Ratio (y) = 0.46240 0.00774
# Poissons Ratio (z) = 0.01483 0.01483
#
# Static dielectric constant tensor:
#      x y z
#    x 1.779520 0.000000 0.000000 
#    y 0.000000 1.779520 0.000000 
#    z 0.000000 0.000000 1.848820 
# 
# From -- ./inp_files/2086.got.cif
#   From: 2010.05.17/outbox.cif.g08.bks.cpg/sg136_2_cif.got.tgz:2086.got - 2010.05.20 12:54:53.
