data_PCOD9569061
_publ_section_title
;
Structure prediction by ZEFSAII (Michael W. Deem and Ramdas Pophale) SiO2 
 PCOD9569061
Probable space group: P 42/M B C
;
_chemical_formula_sum "Si O2"
_cell_formula_units_Z 64
_cell_length_a 9.979626
_cell_length_b 9.979626
_cell_length_c 22.865832
_cell_angle_alpha 90.000000
_cell_angle_beta 90.000000
_cell_angle_gamma 90.000000
_cell_volume 2277.275322
_symmetry_space_group_name_H-M "P 42/M B C"
_symmetry_group_IT_number 135
_symmetry_cell_setting 'tetragonal'
loop_
_space_group_symop_operation_xyz
x,y,z
-y,x,1/2+z
-x,-y,z
y,-x,1/2+z
1/2+x,1/2-y,-z
1/2-x,1/2+y,-z
1/2+y,1/2+x,1/2-z
1/2-y,1/2-x,1/2-z
-x,-y,-z
y,-x,1/2-z
x,y,-z
-y,x,1/2-z
1/2-x,1/2+y,z
1/2+x,1/2-y,z
1/2-y,1/2-x,1/2+z
1/2+y,1/2+x,1/2+z
loop_
_atom_site_type_symbol
_atom_site_label
_atom_site_fract_x
_atom_site_fract_y
_atom_site_fract_z
Si Si1 0.208696 0.016260 0.816493
Si Si2 0.288021 0.414267 0.937838
Si Si3 0.286676 0.983708 0.565263
Si Si4 0.495646 0.260974 0.808881
O O1 0.252921 0.999705 0.882627
O O2 0.292928 0.009267 0.757162
O O3 0.109454 0.886467 0.809934
O O4 0.135113 0.159130 0.815134
O O5 0.436907 0.353671 0.934246
O O6 0.176954 0.296012 0.937174
O O7 0.277595 0.484842 0.000000
O O8 0.344419 0.022398 0.500000
O O9 0.328646 0.017595 0.632954
#
# Coordination Sequence:
#
# PCOD9569061 Si02
#       4
#    16  16  16  16
#     4   8  14  25  41  62  86 109 140 188 239 282
#     4   9  17  28  42  61  86 117 152 190 234 287
#     4   9  17  28  42  61  86 117 152 190 234 287
#     4   8  14  25  41  62  86 109 140 188 239 282
#
# _framework density 28.103757999999999
#
# number of rings (size 3 to 8) (size 9 to 14) (size 15 to 20)
#    0.000    3.500    0.000    1.500    0.000    2.000 
#    0.000    5.000    0.000    1.500    0.000    7.000 
#    0.000   12.000    0.000    0.500    0.000    0.000 
#
# Total GULP energy -356492.688147 kJ/mol
# GULP energy per Si atom -5570.198252 kJ/mol
# Density = 2.803979 g / cm^3
# Si number density = 28.103758 Si / 1000 Ang^3
#
#
#
# Elastic Constant Matrix: (Units=GPa)
#
#
# Indices 1 2 3 4 5 6 
#
# 1 63.6054 63.0102 36.5526 0.0000 0.0000 0.0000
# 2 63.0102 63.6054 36.5526 0.0000 0.0000 0.0000
# 3 36.5526 36.5526 428.0255 0.0000 0.0000 0.0000
# 4 0.0000 0.0000 0.0000 -34.0407 0.0000 0.0000
# 5 0.0000 0.0000 0.0000 0.0000 -34.0407 0.0000
# 6 0.0000 0.0000 0.0000 0.0000 0.0000 58.0270
#
#
#
# Elastic Compliance Matrix: (Units=1/GPa)
#
#
# Indices 1 2 3 4 5 6 
#
# 1 0.844164 -0.835856 -0.000709 0.000000 0.000000 0.000000
# 2 -0.835856 0.844164 -0.000709 0.000000 0.000000 0.000000
# 3 -0.000709 -0.000709 0.002457 0.000000 0.000000 0.000000
# 4 0.000000 0.000000 0.000000 -0.029377 0.000000 0.000000
# 5 0.000000 0.000000 0.000000 0.000000 -0.029377 0.000000
# 6 0.000000 0.000000 0.000000 0.000000 0.000000 0.017233
#
#
# Mechanical properties :
#
#
# Convention : Reuss Voigt Hill
#
# Bulk Modulus (GPa) = 61.59620 91.94077 76.76849
# Shear Modulus (GPa) = 1.50185 25.93053 13.71619
#
# Velocity S-wave (km/s) = 0.73182 3.04085 2.21159
# Velocity P-wave (km/s) = 4.76226 6.71675 5.82211
#
# Compressibility (1/GPa) = 0.01623477
#
# Stress axis : x y z
#
# Youngs Moduli (GPa) = 1.18460 1.18460 406.92082
#
# Poissons Ratio (x) = 0.99016 0.28869
# Poissons Ratio (y) = 0.99016 0.28869
# Poissons Ratio (z) = 0.00084 0.00084
#
# Static dielectric constant tensor:
#      x y z
#    x 2.142660 0.000000 0.000000 
#    y 0.000000 2.142660 0.000000 
#    z 0.000000 0.000000 2.241900 
# 
# From -- ./inp_files/5869.got.cif
#   From: 2010.05.17/outbox.cif.g08.bks.cpg/sg135_3_cif.got.tgz:5869.got - 2010.05.20 12:50:20.
