data_PCOD9569484
_publ_section_title
;
Structure prediction by ZEFSAII (Michael W. Deem and Ramdas Pophale) SiO2 
 PCOD9569484
Probable space group: P 42/M N M
;
_chemical_formula_sum "Si O2"
_cell_formula_units_Z 80
_cell_length_a 16.852509
_cell_length_b 16.852509
_cell_length_c 13.641377
_cell_angle_alpha 90.000000
_cell_angle_beta 90.000000
_cell_angle_gamma 90.000000
_cell_volume 3874.247371
_symmetry_space_group_name_H-M "P 42/M N M"
_symmetry_group_IT_number 136
_symmetry_cell_setting 'tetragonal'
loop_
_space_group_symop_operation_xyz
x,y,z
1/2-y,1/2+x,1/2+z
-x,-y,z
1/2+y,1/2-x,1/2+z
1/2+x,1/2-y,1/2-z
1/2-x,1/2+y,1/2-z
y,x,-z
-y,-x,-z
-x,-y,-z
1/2+y,1/2-x,1/2-z
x,y,-z
1/2-y,1/2+x,1/2-z
1/2-x,1/2+y,1/2+z
1/2+x,1/2-y,1/2+z
-y,-x,z
y,x,z
loop_
_atom_site_type_symbol
_atom_site_label
_atom_site_fract_x
_atom_site_fract_y
_atom_site_fract_z
Si Si1 0.172502 0.700669 0.812514
Si Si2 0.008307 0.758314 0.112608
Si Si3 0.891478 0.242085 0.606748
Si Si4 0.505447 0.369525 0.210507
Si Si5 0.950257 0.618335 0.755849
O O1 0.255634 0.744367 0.829476
O O2 0.147681 0.712022 0.697801
O O3 0.162133 0.606630 0.822419
O O4 0.103016 0.744969 0.872005
O O5 0.968662 0.678834 0.156567
O O6 0.983380 0.830136 0.183130
O O7 0.989185 0.770751 0.000000
O O8 0.897495 0.281473 0.500000
O O9 0.831612 0.168388 0.596342
O O10 0.973131 0.201421 0.642393
O O11 0.583641 0.416360 0.177779
O O12 0.435152 0.435152 0.216699
O O13 0.035707 0.591718 0.714537
#
# Coordination Sequence:
#
# PCOD9569484 Si02
#       5
#    16  16  16  16  16
#     4   9  18  33  53  77 106 137 170 215 267 318
#     4  10  20  34  54  78 104 139 181 219 262 322
#     4   8  14  26  46  72 101 136 179 223 267 315
#     4   9  18  31  47  73 111 149 183 223 268 313
#     4   9  19  37  56  76 103 137 178 225 274 316
#
# _framework density 20.649173000000001
#
# number of rings (size 3 to 8) (size 9 to 14) (size 15 to 20)
#    0.000    3.000    0.000    1.800    0.000    4.000 
#    0.000   11.000    0.000   19.200    0.000   16.800 
#    0.000    0.000    0.000    0.000    0.000    0.000 
#
# Total GULP energy -445621.507648 kJ/mol
# GULP energy per Si atom -5570.268846 kJ/mol
# Density = 2.060217 g / cm^3
# Si number density = 20.649173 Si / 1000 Ang^3
#
#
#
# Elastic Constant Matrix: (Units=GPa)
#
#
# Indices 1 2 3 4 5 6 
#
# 1 64.5717 30.7451 -24.8854 0.0000 0.0000 0.0000
# 2 30.7451 64.5717 -24.8854 0.0000 0.0000 0.0000
# 3 -24.8854 -24.8854 26.2366 0.0000 0.0000 0.0000
# 4 0.0000 0.0000 0.0000 5.9178 0.0000 0.0000
# 5 0.0000 0.0000 0.0000 0.0000 5.9178 0.0000
# 6 0.0000 0.0000 0.0000 0.0000 0.0000 -16.6982
#
#
#
# Elastic Compliance Matrix: (Units=1/GPa)
#
#
# Indices 1 2 3 4 5 6 
#
# 1 0.025174 -0.004388 0.019716 0.000000 0.000000 0.000000
# 2 -0.004388 0.025174 0.019716 0.000000 0.000000 0.000000
# 3 0.019716 0.019716 0.075515 0.000000 0.000000 0.000000
# 4 0.000000 0.000000 0.000000 0.168983 0.000000 0.000000
# 5 0.000000 0.000000 0.000000 0.000000 0.168983 0.000000
# 6 0.000000 0.000000 0.000000 0.000000 0.000000 -0.059887
#
#
# Mechanical properties :
#
#
# Convention : Reuss Voigt Hill
#
# Bulk Modulus (GPa) = 5.10334 13.03649 9.06992
# Shear Modulus (GPa) = 12.52589 10.65451 11.59020
#
# Velocity S-wave (km/s) = 2.46561 2.27398 2.37173
# Velocity P-wave (km/s) = 3.25307 3.63616 3.44994
#
# Compressibility (1/GPa) = 0.19594992
#
# Stress axis : x y z
#
# Youngs Moduli (GPa) = 39.72303 39.72303 13.24236
#
# Poissons Ratio (x) = 0.17431 -0.26108
# Poissons Ratio (y) = 0.17431 -0.26108
# Poissons Ratio (z) = -0.78316 -0.78316
#
# Static dielectric constant tensor:
#      x y z
#    x 1.788320 0.000000 0.000000 
#    y 0.000000 1.788320 0.000000 
#    z 0.000000 0.000000 1.748540 
# 
# From -- ./inp_files/4903.got.cif
#   From: 2010.05.17/outbox.cif.g08.bks.cpg/sg136_3_cif.got.tgz:4903.got - 2010.05.20 12:54:53.
