data_PCOD9569125
_publ_section_title
;
Structure prediction by ZEFSAII (Michael W. Deem and Ramdas Pophale) SiO2 
 PCOD9569125
Probable space group: P 42/M N M
;
_chemical_formula_sum "Si O2"
_cell_formula_units_Z 104
_cell_length_a 27.783946
_cell_length_b 27.783946
_cell_length_c 7.600877
_cell_angle_alpha 90.000000
_cell_angle_beta 90.000000
_cell_angle_gamma 90.000000
_cell_volume 5867.479179
_symmetry_space_group_name_H-M "P 42/M N M"
_symmetry_group_IT_number 136
_symmetry_cell_setting 'tetragonal'
loop_
_space_group_symop_operation_xyz
x,y,z
1/2-y,1/2+x,1/2+z
-x,-y,z
1/2+y,1/2-x,1/2+z
1/2+x,1/2-y,1/2-z
1/2-x,1/2+y,1/2-z
y,x,-z
-y,-x,-z
-x,-y,-z
1/2+y,1/2-x,1/2-z
x,y,-z
1/2-y,1/2+x,1/2-z
1/2-x,1/2+y,1/2+z
1/2+x,1/2-y,1/2+z
-y,-x,z
y,x,z
loop_
_atom_site_type_symbol
_atom_site_label
_atom_site_fract_x
_atom_site_fract_y
_atom_site_fract_z
Si Si1 0.580755 0.500851 0.000000
Si Si2 0.205103 0.644426 0.790613
Si Si3 0.359462 0.640539 0.707915
Si Si4 0.960756 0.741249 0.212294
Si Si5 0.846438 0.972566 0.790246
Si Si6 0.358819 0.997943 0.788302
Si Si7 0.104091 0.602367 0.788717
Si Si8 0.282259 0.717742 0.798451
O O1 0.614321 0.498215 0.828566
O O2 0.547250 0.547250 0.000000
O O3 0.545403 0.454598 0.000000
O O4 0.235094 0.594999 0.765429
O O5 0.151571 0.631095 0.721574
O O6 0.235730 0.689916 0.719546
O O7 0.200766 0.651989 0.000000
O O8 0.351408 0.648593 0.500000
O O9 0.350486 0.584651 0.743953
O O10 0.323427 0.676574 0.801820
O O11 0.983850 0.791757 0.263865
O O12 0.989503 0.694757 0.276865
O O13 0.960364 0.740803 0.000000
O O14 0.853181 0.980286 0.000000
O O15 0.389412 0.045702 0.747811
O O16 0.378816 0.947203 0.721686
O O17 0.356635 0.994437 0.000000
O O18 0.104600 0.607866 0.000000
O O19 0.269672 0.730329 0.000000
#
# Coordination Sequence:
#
# PCOD9569125 Si02
#       8
#     8  16   8  16  16  16  16   8
#     4  11  24  36  50  72 100 136 174 207 252 306
#     4   9  17  27  41  65  95 121 147 185 233 289
#     4  10  18  26  40  67  98 127 153 187 244 303
#     4   9  17  29  46  69  92 118 155 196 240 290
#     4  10  20  33  50  72 100 131 166 208 252 303
#     4   9  18  32  49  68  94 127 160 198 245 293
#     4   9  18  32  47  66  94 125 160 201 240 287
#     4  10  18  24  40  66  95 125 147 181 237 300
#
# _framework density 17.724817000000002
#
# number of rings (size 3 to 8) (size 9 to 14) (size 15 to 20)
#    0.000    2.538    2.308    0.000    2.154    1.231 
#    0.000    2.308    0.000    0.000    2.000    0.000 
#    0.000    0.000    0.000    0.000    0.000    0.000 
#
# Total GULP energy -579611.897322 kJ/mol
# GULP energy per Si atom -5573.191320 kJ/mol
# Density = 1.768447 g / cm^3
# Si number density = 17.724817 Si / 1000 Ang^3
#
#
#
# Elastic Constant Matrix: (Units=GPa)
#
#
# Indices 1 2 3 4 5 6 
#
# 1 118.9895 89.1227 21.7111 0.0000 0.0000 0.0000
# 2 89.1227 118.9906 21.7109 0.0000 0.0000 0.0000
# 3 21.7111 21.7109 42.1510 0.0000 0.0000 0.0000
# 4 0.0000 0.0000 0.0000 -1.7441 0.0000 0.0000
# 5 0.0000 0.0000 0.0000 0.0000 -1.7444 0.0000
# 6 0.0000 0.0000 0.0000 0.0000 0.0000 29.3720
#
#
#
# Elastic Compliance Matrix: (Units=1/GPa)
#
#
# Indices 1 2 3 4 5 6 
#
# 1 0.019433 -0.014049 -0.002773 0.000000 0.000000 0.000000
# 2 -0.014049 0.019432 -0.002773 0.000000 0.000000 0.000000
# 3 -0.002773 -0.002773 0.026581 0.000000 0.000000 0.000000
# 4 0.000000 0.000000 0.000000 -0.573373 0.000000 0.000000
# 5 0.000000 0.000000 0.000000 0.000000 -0.573277 0.000000
# 6 0.000000 0.000000 0.000000 0.000000 0.000000 0.034046
#
#
# Mechanical properties :
#
#
# Convention : Reuss Voigt Hill
#
# Bulk Modulus (GPa) = 38.08629 60.58006 49.33317
# Shear Modulus (GPa) = -5.00392 15.01581 5.00595
#
# Velocity S-wave (km/s) = -1.68204 2.91376 1.68238
# Velocity P-wave (km/s) = 4.21448 6.75073 5.62735
#
# Compressibility (1/GPa) = 0.02625617
#
# Stress axis : x y z
#
# Youngs Moduli (GPa) = 51.45971 51.46035 37.62110
#
# Poissons Ratio (x) = 0.72296 0.10433
# Poissons Ratio (y) = 0.72295 0.10432
# Poissons Ratio (z) = 0.14270 0.14269
#
# Static dielectric constant tensor:
#      x y z
#    x 1.612210 0.000000 0.000000 
#    y 0.000000 1.612210 0.000000 
#    z 0.000000 0.000000 1.664360 
# 
# From -- ./inp_files/2258.got.cif
#   From: 2010.05.17/outbox.cif.g08.bks.cpg/sg136_2_cif.got.tgz:2258.got - 2010.05.20 12:54:53.
