data_PCOD9569703
_publ_section_title
;
Structure prediction by ZEFSAII (Michael W. Deem and Ramdas Pophale) SiO2 
 PCOD9569703
Probable space group: P 42/M N M
;
_chemical_formula_sum "Si O2"
_cell_formula_units_Z 80
_cell_length_a 12.324818
_cell_length_b 12.324818
_cell_length_c 22.648214
_cell_angle_alpha 90.000000
_cell_angle_beta 90.000000
_cell_angle_gamma 90.000000
_cell_volume 3440.289497
_symmetry_space_group_name_H-M "P 42/M N M"
_symmetry_group_IT_number 136
_symmetry_cell_setting 'tetragonal'
loop_
_space_group_symop_operation_xyz
x,y,z
1/2-y,1/2+x,1/2+z
-x,-y,z
1/2+y,1/2-x,1/2+z
1/2+x,1/2-y,1/2-z
1/2-x,1/2+y,1/2-z
y,x,-z
-y,-x,-z
-x,-y,-z
1/2+y,1/2-x,1/2-z
x,y,-z
1/2-y,1/2+x,1/2-z
1/2-x,1/2+y,1/2+z
1/2+x,1/2-y,1/2+z
-y,-x,z
y,x,z
loop_
_atom_site_type_symbol
_atom_site_label
_atom_site_fract_x
_atom_site_fract_y
_atom_site_fract_z
Si Si1 0.327174 0.162182 0.071430
Si Si2 0.913661 0.913661 0.403396
Si Si3 0.411716 0.588285 0.241112
Si Si4 0.069535 0.331571 0.597651
Si Si5 0.714907 0.545807 0.568215
Si Si6 0.550674 0.165347 0.234347
O O1 0.279028 0.279028 0.091046
O O2 0.447831 0.126762 0.088681
O O3 0.244954 0.070154 0.094316
O O4 0.326041 0.161624 0.000000
O O5 0.915216 0.915216 0.331336
O O6 0.792362 0.938825 0.422932
O O7 0.000000 0.000000 0.424902
O O8 0.500000 0.500000 0.261747
O O9 0.440059 0.712341 0.257684
O O10 0.171256 0.389301 0.568372
O O11 0.092513 0.333670 0.667290
O O12 0.684620 0.526277 0.500000
O O13 0.621181 0.621181 0.595224
O O14 0.622013 0.073255 0.266310
#
# Coordination Sequence:
#
# PCOD9569703 Si02
#       6
#    16   8   8  16  16  16
#     4  10  22  38  59  90 122 156 199 247 301 362
#     4   9  18  34  57  88 115 153 195 232 304 362
#     4   9  20  40  64  84 117 158 201 254 309 370
#     4  11  20  38  62  85 119 157 196 248 302 367
#     4  10  21  37  60  88 118 158 203 243 295 361
#     4  10  24  40  60  91 119 160 208 260 314 364
#
# _framework density 23.253858999999999
#
# number of rings (size 3 to 8) (size 9 to 14) (size 15 to 20)
#    0.000    2.000    1.000    1.800    7.000    2.800 
#    0.000    2.000    0.000    2.400    0.000    0.000 
#    0.000    0.000    0.000    0.000    0.000    0.000 
#
# Total GULP energy -446898.319929 kJ/mol
# GULP energy per Si atom -5586.228999 kJ/mol
# Density = 2.320093 g / cm^3
# Si number density = 23.253859 Si / 1000 Ang^3
#
#
#
# Elastic Constant Matrix: (Units=GPa)
#
#
# Indices 1 2 3 4 5 6 
#
# 1 107.2855 38.2408 -11.5520 0.0000 0.0000 0.0000
# 2 38.2408 107.2855 -11.5520 0.0000 0.0000 0.0000
# 3 -11.5520 -11.5520 45.4689 0.0000 0.0000 0.0000
# 4 0.0000 0.0000 0.0000 -330.0538 0.0000 0.0000
# 5 0.0000 0.0000 0.0000 0.0000 -330.0538 0.0000
# 6 0.0000 0.0000 0.0000 0.0000 0.0000 41.6139
#
#
#
# Elastic Compliance Matrix: (Units=1/GPa)
#
#
# Indices 1 2 3 4 5 6 
#
# 1 0.010822 -0.003661 0.001819 0.000000 0.000000 0.000000
# 2 -0.003661 0.010822 0.001819 0.000000 0.000000 0.000000
# 3 0.001819 0.001819 0.022917 0.000000 0.000000 0.000000
# 4 0.000000 0.000000 0.000000 -0.003030 0.000000 0.000000
# 5 0.000000 0.000000 0.000000 0.000000 -0.003030 0.000000
# 6 0.000000 0.000000 0.000000 0.000000 0.000000 0.024030
#
#
# Mechanical properties :
#
#
# Convention : Reuss Voigt Hill
#
# Bulk Modulus (GPa) = 22.46429 32.25707 27.36068
# Shear Modulus (GPa) = 64.58562 -107.37190 -21.39314
#
# Velocity S-wave (km/s) = 5.27584 -6.80250 -3.03641
# Velocity P-wave (km/s) = 6.84062 6.91353 0.70812
#
# Compressibility (1/GPa) = 0.04451510
#
# Stress axis : x y z
#
# Youngs Moduli (GPa) = 92.40513 92.40513 43.63490
#
# Poissons Ratio (x) = 0.33834 -0.07938
# Poissons Ratio (y) = 0.33834 -0.07938
# Poissons Ratio (z) = -0.16810 -0.16810
#
# Static dielectric constant tensor:
#      x y z
#    x 1.882790 0.000000 0.000000 
#    y 0.000000 1.882790 0.000000 
#    z 0.000000 0.000000 1.869440 
# 
# From -- ./inp_files/9601.got.cif
#   From: 2010.05.17/outbox.cif.g08.bks.cpg/sg136_5_cif.got.tgz:9601.got - 2010.05.20 12:54:53.
