data_PCOD9569088
_publ_section_title
;
Structure prediction by ZEFSAII (Michael W. Deem and Ramdas Pophale) SiO2 
 PCOD9569088
Probable space group: P 42/M N M
;
_chemical_formula_sum "Si O2"
_cell_formula_units_Z 96
_cell_length_a 25.896530
_cell_length_b 25.896530
_cell_length_c 7.756710
_cell_angle_alpha 90.000000
_cell_angle_beta 90.000000
_cell_angle_gamma 90.000000
_cell_volume 5201.884491
_symmetry_space_group_name_H-M "P 42/M N M"
_symmetry_group_IT_number 136
_symmetry_cell_setting 'tetragonal'
loop_
_space_group_symop_operation_xyz
x,y,z
1/2-y,1/2+x,1/2+z
-x,-y,z
1/2+y,1/2-x,1/2+z
1/2+x,1/2-y,1/2-z
1/2-x,1/2+y,1/2-z
y,x,-z
-y,-x,-z
-x,-y,-z
1/2+y,1/2-x,1/2-z
x,y,-z
1/2-y,1/2+x,1/2-z
1/2-x,1/2+y,1/2+z
1/2+x,1/2-y,1/2+z
-y,-x,z
y,x,z
loop_
_atom_site_type_symbol
_atom_site_label
_atom_site_fract_x
_atom_site_fract_y
_atom_site_fract_z
Si Si1 0.422094 0.422094 0.291025
Si Si2 0.080280 0.629411 0.292454
Si Si3 0.465611 0.616857 0.706219
Si Si4 0.267137 0.517003 0.207449
Si Si5 0.663449 0.663449 0.206125
Si Si6 0.152972 0.534332 0.793526
Si Si7 0.599682 0.756948 0.210682
O O1 0.423259 0.423259 0.500000
O O2 0.404312 0.478840 0.229288
O O3 0.379921 0.379921 0.237342
O O4 0.078496 0.630408 0.500000
O O5 0.114682 0.580864 0.244254
O O6 0.104384 0.683916 0.233835
O O7 0.020780 0.630675 0.230021
O O8 0.467070 0.610875 0.500000
O O9 0.418924 0.581077 0.772302
O O10 0.460216 0.677887 0.739516
O O11 0.212409 0.540995 0.268567
O O12 0.263964 0.456843 0.261907
O O13 0.266701 0.517995 0.000000
O O14 0.642605 0.717583 0.274678
O O15 0.668889 0.668889 0.000000
O O16 0.156541 0.529932 0.000000
O O17 0.600133 0.756644 0.000000
#
# Coordination Sequence:
#
# PCOD9569088 Si02
#       7
#     8  16  16  16   8  16  16
#     4  10  19  30  44  68 102 132 158 198 250 292
#     4   9  18  33  51  73 101 131 161 194 238 293
#     4  10  20  32  46  67  98 133 166 200 242 290
#     4   9  17  32  51  70  93 124 162 201 240 284
#     4  10  16  27  51  73  92 122 164 208 248 285
#     4   9  19  34  52  75 102 128 157 198 244 287
#     4   8  15  28  48  72  94 119 157 202 242 281
#
# _framework density 18.454851000000001
#
# number of rings (size 3 to 8) (size 9 to 14) (size 15 to 20)
#    0.000    2.833    1.667    2.250    0.000    3.000 
#    0.000    5.000    1.833    1.500    0.000    0.000 
#    0.000    0.000    0.000    0.000    0.000    0.000 
#
# Total GULP energy -535005.738957 kJ/mol
# GULP energy per Si atom -5572.976447 kJ/mol
# Density = 1.841285 g / cm^3
# Si number density = 18.454851 Si / 1000 Ang^3
#
#
#
# Elastic Constant Matrix: (Units=GPa)
#
#
# Indices 1 2 3 4 5 6 
#
# 1 149.0751 114.1451 3.0187 0.0000 0.0000 0.0000
# 2 114.1451 149.0751 3.0187 0.0000 0.0000 0.0000
# 3 3.0187 3.0187 22.4158 0.0000 0.0000 0.0000
# 4 0.0000 0.0000 0.0000 19.0415 0.0000 0.0000
# 5 0.0000 0.0000 0.0000 0.0000 19.0415 0.0000
# 6 0.0000 0.0000 0.0000 0.0000 0.0000 28.4863
#
#
#
# Elastic Compliance Matrix: (Units=1/GPa)
#
#
# Indices 1 2 3 4 5 6 
#
# 1 0.016220 -0.012409 -0.000513 0.000000 0.000000 0.000000
# 2 -0.012409 0.016220 -0.000513 0.000000 0.000000 0.000000
# 3 -0.000513 -0.000513 0.044750 0.000000 0.000000 0.000000
# 4 0.000000 0.000000 0.000000 0.052517 0.000000 0.000000
# 5 0.000000 0.000000 0.000000 0.000000 0.052517 0.000000
# 6 0.000000 0.000000 0.000000 0.000000 0.000000 0.035105
#
#
# Mechanical properties :
#
#
# Convention : Reuss Voigt Hill
#
# Bulk Modulus (GPa) = 19.87336 62.32567 41.09951
# Shear Modulus (GPa) = 19.15922 26.67276 22.91599
#
# Velocity S-wave (km/s) = 3.22556 3.80583 3.52765
# Velocity P-wave (km/s) = 4.96632 7.29094 6.23787
#
# Compressibility (1/GPa) = 0.05031862
#
# Stress axis : x y z
#
# Youngs Moduli (GPa) = 61.65323 61.65323 22.34651
#
# Poissons Ratio (x) = 0.76505 0.01147
# Poissons Ratio (y) = 0.76505 0.01147
# Poissons Ratio (z) = 0.03164 0.03164
#
# Static dielectric constant tensor:
#      x y z
#    x 1.636810 0.000000 0.000000 
#    y 0.000000 1.636810 0.000000 
#    z 0.000000 0.000000 1.688790 
# 
# From -- ./inp_files/2076.got.cif
#   From: 2010.05.17/outbox.cif.g08.bks.cpg/sg136_2_cif.got.tgz:2076.got - 2010.05.20 12:54:53.
