data_PCOD9569747
_publ_section_title
;
Structure prediction by ZEFSAII (Michael W. Deem and Ramdas Pophale) SiO2 
 PCOD9569747
Probable space group: P 42/M N M
;
_chemical_formula_sum "Si O2"
_cell_formula_units_Z 96
_cell_length_a 24.560674
_cell_length_b 24.560674
_cell_length_c 8.567573
_cell_angle_alpha 90.000000
_cell_angle_beta 90.000000
_cell_angle_gamma 90.000000
_cell_volume 5168.188851
_symmetry_space_group_name_H-M "P 42/M N M"
_symmetry_group_IT_number 136
_symmetry_cell_setting 'tetragonal'
loop_
_space_group_symop_operation_xyz
x,y,z
1/2-y,1/2+x,1/2+z
-x,-y,z
1/2+y,1/2-x,1/2+z
1/2+x,1/2-y,1/2-z
1/2-x,1/2+y,1/2-z
y,x,-z
-y,-x,-z
-x,-y,-z
1/2+y,1/2-x,1/2-z
x,y,-z
1/2-y,1/2+x,1/2-z
1/2-x,1/2+y,1/2+z
1/2+x,1/2-y,1/2+z
-y,-x,z
y,x,z
loop_
_atom_site_type_symbol
_atom_site_label
_atom_site_fract_x
_atom_site_fract_y
_atom_site_fract_z
Si Si1 0.208513 0.987334 0.314121
Si Si2 0.588088 0.500601 0.311757
Si Si3 0.030339 0.420086 0.186666
Si Si4 0.930800 0.696447 0.310257
Si Si5 0.308476 0.777593 0.189890
Si Si6 0.632444 0.720150 0.688041
O O1 0.206377 0.990601 0.500000
O O2 0.148940 0.001561 0.249804
O O3 0.222272 0.926235 0.262933
O O4 0.256085 0.027862 0.260091
O O5 0.589711 0.501519 0.500000
O O6 0.550759 0.449242 0.264459
O O7 0.554842 0.554842 0.261965
O O8 0.067342 0.469387 0.252153
O O9 0.051400 0.361879 0.244651
O O10 0.030392 0.422456 0.000000
O O11 0.931363 0.693159 0.500000
O O12 0.869961 0.712983 0.259001
O O13 0.277193 0.722808 0.242115
O O14 0.270106 0.828424 0.233627
O O15 0.308954 0.776041 0.000000
O O16 0.627006 0.720889 0.500000
O O17 0.665125 0.665125 0.729405
#
# Coordination Sequence:
#
# PCOD9569747 Si02
#       6
#    16  16  16  16  16  16
#     4  11  23  34  50  82 120 148 179 229 285 340
#     4   9  19  37  59  80 106 146 195 242 285 337
#     4  11  23  41  64  88 116 150 191 238 290 344
#     4  10  22  38  56  85 120 154 192 233 281 339
#     4   8  16  34  59  81 103 141 191 233 271 323
#     4   9  18  34  57  81 103 137 189 237 275 326
#
# _framework density 18.575171999999998
#
# number of rings (size 3 to 8) (size 9 to 14) (size 15 to 20)
#    0.000    2.333    0.000    4.500    2.333    5.000 
#    0.000    2.500    0.000    1.500    0.000    0.000 
#    0.000    0.000    0.000    0.000    0.000    0.000 
#
# Total GULP energy -535931.762555 kJ/mol
# GULP energy per Si atom -5582.622527 kJ/mol
# Density = 1.853289 g / cm^3
# Si number density = 18.575172 Si / 1000 Ang^3
#
#
#
# Elastic Constant Matrix: (Units=GPa)
#
#
# Indices 1 2 3 4 5 6 
#
# 1 398.5788 -101.0102 37.2755 0.0000 0.0000 0.0000
# 2 -101.0102 398.5788 37.2755 0.0000 0.0000 0.0000
# 3 37.2755 37.2755 37.9926 0.0000 0.0000 0.0000
# 4 0.0000 0.0000 0.0000 13.1437 0.0000 0.0000
# 5 0.0000 0.0000 0.0000 0.0000 13.1437 0.0000
# 6 0.0000 0.0000 0.0000 0.0000 0.0000 15.4785
#
#
#
# Elastic Compliance Matrix: (Units=1/GPa)
#
#
# Indices 1 2 3 4 5 6 
#
# 1 0.003229 0.001227 -0.004372 0.000000 0.000000 0.000000
# 2 0.001227 0.003229 -0.004372 0.000000 0.000000 0.000000
# 3 -0.004372 -0.004372 0.034899 0.000000 0.000000 0.000000
# 4 0.000000 0.000000 0.000000 0.076082 0.000000 0.000000
# 5 0.000000 0.000000 0.000000 0.000000 0.076082 0.000000
# 6 0.000000 0.000000 0.000000 0.000000 0.000000 0.064606
#
#
# Mechanical properties :
#
#
# Convention : Reuss Voigt Hill
#
# Bulk Modulus (GPa) = 37.98804 86.91465 62.45135
# Shear Modulus (GPa) = 17.73464 65.79381 41.76423
#
# Velocity S-wave (km/s) = 3.09325 5.95795 4.74686
# Velocity P-wave (km/s) = 5.76654 9.70680 7.98358
#
# Compressibility (1/GPa) = 0.02632407
#
# Stress axis : x y z
#
# Youngs Moduli (GPa) = 309.71830 309.71830 28.65385
#
# Poissons Ratio (x) = -0.38005 0.12527
# Poissons Ratio (y) = -0.38005 0.12527
# Poissons Ratio (z) = 1.35400 1.35400
#
# Static dielectric constant tensor:
#      x y z
#    x 1.624790 0.000000 0.000000 
#    y 0.000000 1.624790 0.000000 
#    z 0.000000 0.000000 1.635000 
# 
# From -- ./inp_files/2020.got.cif
#   From: 2010.05.17/outbox.cif.g08.bks.cpg/sg136_2_cif.got.tgz:2020.got - 2010.05.20 12:54:53.
