data_PCOD9569794
_publ_section_title
;
Structure prediction by ZEFSAII (Michael W. Deem and Ramdas Pophale) SiO2 
 PCOD9569794
Probable space group: P 42/M N M
;
_chemical_formula_sum "Si O2"
_cell_formula_units_Z 68
_cell_length_a 11.732447
_cell_length_b 11.732447
_cell_length_c 25.498006
_cell_angle_alpha 90.000000
_cell_angle_beta 90.000000
_cell_angle_gamma 90.000000
_cell_volume 3509.808497
_symmetry_space_group_name_H-M "P 42/M N M"
_symmetry_group_IT_number 136
_symmetry_cell_setting 'tetragonal'
loop_
_space_group_symop_operation_xyz
x,y,z
1/2-y,1/2+x,1/2+z
-x,-y,z
1/2+y,1/2-x,1/2+z
1/2+x,1/2-y,1/2-z
1/2-x,1/2+y,1/2-z
y,x,-z
-y,-x,-z
-x,-y,-z
1/2+y,1/2-x,1/2-z
x,y,-z
1/2-y,1/2+x,1/2-z
1/2-x,1/2+y,1/2+z
1/2+x,1/2-y,1/2+z
-y,-x,z
y,x,z
loop_
_atom_site_type_symbol
_atom_site_label
_atom_site_fract_x
_atom_site_fract_y
_atom_site_fract_z
Si Si1 0.909327 0.090674 0.730677
Si Si2 0.310248 0.503489 0.441415
Si Si3 0.086674 0.607174 0.115581
Si Si4 0.500000 0.500000 0.873930
Si Si5 0.167843 0.167843 0.436557
Si Si6 0.558710 0.844306 0.269112
O O1 0.784008 0.064208 0.751045
O O2 0.000000 0.000000 0.753153
O O3 0.925203 0.074798 0.667788
O O4 0.259508 0.497107 0.500000
O O5 0.382097 0.617904 0.437091
O O6 0.400480 0.400480 0.437162
O O7 0.215394 0.490281 0.398752
O O8 0.204428 0.628010 0.082697
O O9 0.118702 0.623894 0.176406
O O10 0.000000 0.500000 0.107367
O O11 0.420206 0.579795 0.909403
O O12 0.165216 0.165216 0.500000
O O13 0.427788 0.883728 0.273224
#
# Coordination Sequence:
#
# PCOD9569794 Si02
#       6
#     8  16  16   4   8  16
#     4  10  25  40  70  98 129 170 223 265 329 409
#     4   9  19  39  64  92 130 170 217 282 341 391
#     4  12  24  41  70  98 132 180 230 272 340 408
#     4  10  25  46  70  98 126 182 225 266 332 402
#     4  12  26  47  70  95 138 179 225 285 332 396
#     4  11  23  44  65  94 134 174 211 277 333 385
#
# _framework density 19.374275000000001
#
# number of rings (size 3 to 8) (size 9 to 14) (size 15 to 20)
#    0.353    0.941    3.529    3.706    1.647    2.824 
#    2.118    0.000    0.000    0.000    0.000    0.000 
#    0.000    0.000    0.000    0.000    0.000    0.000 
#
# Total GULP energy -378962.683521 kJ/mol
# GULP energy per Si atom -5572.980640 kJ/mol
# Density = 1.933018 g / cm^3
# Si number density = 19.374275 Si / 1000 Ang^3
#
#
#
# Elastic Constant Matrix: (Units=GPa)
#
#
# Indices 1 2 3 4 5 6 
#
# 1 117.8932 48.7574 39.6912 0.0000 0.0000 0.0000
# 2 48.7574 117.8932 39.6912 0.0000 0.0000 0.0000
# 3 39.6912 39.6912 87.5449 0.0000 0.0000 0.0000
# 4 0.0000 0.0000 0.0000 31.4815 0.0000 0.0000
# 5 0.0000 0.0000 0.0000 0.0000 31.4815 0.0000
# 6 0.0000 0.0000 0.0000 0.0000 0.0000 14.1905
#
#
#
# Elastic Compliance Matrix: (Units=1/GPa)
#
#
# Indices 1 2 3 4 5 6 
#
# 1 0.011059 -0.003405 -0.003470 0.000000 0.000000 0.000000
# 2 -0.003405 0.011059 -0.003470 0.000000 0.000000 0.000000
# 3 -0.003470 -0.003470 0.014569 0.000000 0.000000 0.000000
# 4 0.000000 0.000000 0.000000 0.031765 0.000000 0.000000
# 5 0.000000 0.000000 0.000000 0.000000 0.031765 0.000000
# 6 0.000000 0.000000 0.000000 0.000000 0.000000 0.070469
#
#
# Mechanical properties :
#
#
# Convention : Reuss Voigt Hill
#
# Bulk Modulus (GPa) = 62.51452 64.40123 63.45787
# Shear Modulus (GPa) = 25.41835 28.44348 26.93091
#
# Velocity S-wave (km/s) = 3.62603 3.83574 3.73236
# Velocity P-wave (km/s) = 7.06170 7.27530 7.16930
#
# Compressibility (1/GPa) = 0.01599628
#
# Stress axis : x y z
#
# Youngs Moduli (GPa) = 90.42512 90.42512 68.63838
#
# Poissons Ratio (x) = 0.30794 0.23817
# Poissons Ratio (y) = 0.30794 0.23817
# Poissons Ratio (z) = 0.31377 0.31377
#
# Static dielectric constant tensor:
#      x y z
#    x 1.684250 0.000000 0.000000 
#    y 0.000000 1.684250 0.000000 
#    z 0.000000 0.000000 1.892570 
# 
# From -- ./inp_files/9020.got.cif
#   From: 2010.05.17/outbox.cif.g08.bks.cpg/sg136_5_cif.got.tgz:9020.got - 2010.05.20 12:54:53.
