data_PCOD9569352
_publ_section_title
;
Structure prediction by ZEFSAII (Michael W. Deem and Ramdas Pophale) SiO2 
 PCOD9569352
Probable space group: P 42/M N M
;
_chemical_formula_sum "Si O2"
_cell_formula_units_Z 128
_cell_length_a 20.851529
_cell_length_b 20.851529
_cell_length_c 15.756573
_cell_angle_alpha 90.000000
_cell_angle_beta 90.000000
_cell_angle_gamma 90.000000
_cell_volume 6850.741471
_symmetry_space_group_name_H-M "P 42/M N M"
_symmetry_group_IT_number 136
_symmetry_cell_setting 'tetragonal'
loop_
_space_group_symop_operation_xyz
x,y,z
1/2-y,1/2+x,1/2+z
-x,-y,z
1/2+y,1/2-x,1/2+z
1/2+x,1/2-y,1/2-z
1/2-x,1/2+y,1/2-z
y,x,-z
-y,-x,-z
-x,-y,-z
1/2+y,1/2-x,1/2-z
x,y,-z
1/2-y,1/2+x,1/2-z
1/2-x,1/2+y,1/2+z
1/2+x,1/2-y,1/2+z
-y,-x,z
y,x,z
loop_
_atom_site_type_symbol
_atom_site_label
_atom_site_fract_x
_atom_site_fract_y
_atom_site_fract_z
Si Si1 0.778203 0.621064 0.906886
Si Si2 0.347093 0.246877 0.286426
Si Si3 0.397269 0.502439 0.397057
Si Si4 0.194421 0.531052 0.097493
Si Si5 0.137811 0.239146 0.294526
Si Si6 0.246548 0.967602 0.902314
Si Si7 0.693091 0.901244 0.141089
Si Si8 0.409609 0.048484 0.729033
O O1 0.749635 0.641513 0.815445
O O2 0.791451 0.544872 0.898101
O O3 0.843407 0.663086 0.910987
O O4 0.745777 0.630000 0.000000
O O5 0.313374 0.313374 0.313893
O O6 0.295550 0.190987 0.306242
O O7 0.411808 0.232904 0.337938
O O8 0.397236 0.504415 0.500000
O O9 0.432436 0.567565 0.367642
O O10 0.443674 0.443674 0.371950
O O11 0.324438 0.489592 0.372975
O O12 0.243392 0.574869 0.151500
O O13 0.124546 0.541670 0.138881
O O14 0.196012 0.551038 0.000000
O O15 0.172889 0.172889 0.315529
O O16 0.121100 0.245079 0.194818
O O17 0.290391 0.031018 0.900262
O O18 0.243460 0.944109 0.000000
O O19 0.638787 0.913751 0.211615
O O20 0.478357 0.081059 0.730381
#
# Coordination Sequence:
#
# PCOD9569352 Si02
#       8
#    16  16  16  16  16  16  16  16
#     4  10  20  38  58  79 107 141 187 238 283 331
#     4  10  21  37  56  79 107 144 185 225 271 329
#     4   8  15  30  50  71 101 140 175 208 254 317
#     4  10  20  34  54  79 107 142 184 234 287 334
#     4   9  20  36  54  75 104 145 186 226 278 332
#     4  11  22  33  51  82 114 144 176 219 274 331
#     4  10  20  34  55  77 109 142 184 225 278 336
#     4  10  19  34  53  71 100 142 184 230 276 326
#
# _framework density 18.684108999999999
#
# number of rings (size 3 to 8) (size 9 to 14) (size 15 to 20)
#    0.000    2.250    1.250    2.625    3.500    2.250 
#    0.000    3.125    0.000    2.250    0.000    0.000 
#    0.000    0.000    0.000    9.125    0.000    0.125 
#
# Total GULP energy -713228.615652 kJ/mol
# GULP energy per Si atom -5572.098560 kJ/mol
# Density = 1.864158 g / cm^3
# Si number density = 18.684109 Si / 1000 Ang^3
#
#
#
# Elastic Constant Matrix: (Units=GPa)
#
#
# Indices 1 2 3 4 5 6 
#
# 1 58.6687 18.6009 17.9722 0.0000 0.0000 0.0000
# 2 18.6009 58.6687 17.9722 0.0000 0.0000 0.0000
# 3 17.9722 17.9722 72.6302 0.0000 0.0000 0.0000
# 4 0.0000 0.0000 0.0000 11.4109 0.0000 0.0000
# 5 0.0000 0.0000 0.0000 0.0000 11.4109 0.0000
# 6 0.0000 0.0000 0.0000 0.0000 0.0000 26.1458
#
#
#
# Elastic Compliance Matrix: (Units=1/GPa)
#
#
# Indices 1 2 3 4 5 6 
#
# 1 0.019791 -0.005166 -0.003619 0.000000 0.000000 0.000000
# 2 -0.005166 0.019791 -0.003619 0.000000 0.000000 0.000000
# 3 -0.003619 -0.003619 0.015559 0.000000 0.000000 0.000000
# 4 0.000000 0.000000 0.000000 0.087636 0.000000 0.000000
# 5 0.000000 0.000000 0.000000 0.000000 0.087636 0.000000
# 6 0.000000 0.000000 0.000000 0.000000 0.000000 0.038247
#
#
# Mechanical properties :
#
#
# Convention : Reuss Voigt Hill
#
# Bulk Modulus (GPa) = 32.96645 33.22869 33.09757
# Shear Modulus (GPa) = 16.47009 18.82166 17.64588
#
# Velocity S-wave (km/s) = 2.97223 3.17734 3.07650
# Velocity P-wave (km/s) = 5.42783 5.59319 5.51113
#
# Compressibility (1/GPa) = 0.03033387
#
# Stress axis : x y z
#
# Youngs Moduli (GPa) = 50.52684 50.52684 64.26991
#
# Poissons Ratio (x) = 0.26104 0.23259
# Poissons Ratio (y) = 0.26104 0.23259
# Poissons Ratio (z) = 0.18286 0.18286
#
# Static dielectric constant tensor:
#      x y z
#    x 1.665940 0.000000 0.000000 
#    y 0.000000 1.665940 0.000000 
#    z 0.000000 0.000000 1.652410 
# 
# From -- ./inp_files/6644.got.cif
#   From: 2010.05.17/outbox.cif.g08.bks.cpg/sg136_4_cif.got.tgz:6644.got - 2010.05.20 12:54:53.
