data_PCOD9569954
_publ_section_title
;
Structure prediction by ZEFSAII (Michael W. Deem and Ramdas Pophale) SiO2 
 PCOD9569954
Probable space group: P 42/N M C
;
_chemical_formula_sum "Si O2"
_cell_formula_units_Z 96
_cell_length_a 14.524433
_cell_length_b 14.524433
_cell_length_c 31.069347
_cell_angle_alpha 90.000000
_cell_angle_beta 90.000000
_cell_angle_gamma 90.000000
_cell_volume 6554.363158
_symmetry_space_group_name_H-M "P 42/N M C"
_symmetry_group_IT_number 137
_space_group.IT_coordinate_system_code '2'
_symmetry_cell_setting 'tetragonal'
loop_
_space_group_symop_operation_xyz
x,y,z
1/2-y,x,1/2+z
1/2-x,1/2-y,z
y,1/2-x,1/2+z
1/2+x,-y,-z
-x,1/2+y,-z
1/2+y,1/2+x,1/2-z
-y,-x,1/2-z
-x,-y,-z
1/2+y,-x,1/2-z
1/2+x,1/2+y,-z
-y,1/2+x,1/2-z
1/2-x,y,z
x,1/2-y,z
1/2-y,1/2-x,1/2+z
y,x,1/2+z
loop_
_atom_site_type_symbol
_atom_site_label
_atom_site_fract_x
_atom_site_fract_y
_atom_site_fract_z
Si Si1 0.151980 0.945796 0.546098
Si Si2 0.113303 0.855549 0.454555
Si Si3 0.358608 0.034724 0.921501
Si Si4 0.510998 0.143468 0.874178
Si Si5 0.353224 0.400704 0.019472
Si Si6 0.355133 0.638390 0.200558
O O1 0.250000 0.923555 0.566742
O O2 0.148594 0.898455 0.499062
O O3 0.064633 0.905128 0.570858
O O4 0.145286 0.055555 0.538344
O O5 0.143571 0.750000 0.448797
O O6 0.139121 0.919981 0.414973
O O7 0.003142 0.854209 0.460617
O O8 0.250000 0.027099 0.911834
O O9 0.419748 0.088443 0.886983
O O10 0.365686 0.086617 0.967916
O O11 0.487499 0.250000 0.866095
O O12 0.570027 0.106121 0.833901
O O13 0.250000 0.362063 0.026856
O O14 0.381101 0.618900 0.250000
O O15 0.250000 0.605930 0.192115
O O16 0.351963 0.750000 0.197137
#
# Coordination Sequence:
#
# PCOD9569954 Si02
#       6
#    16  16  16  16  16  16
#     4  11  19  30  45  60  84 120 159 194 230 264
#     4  10  18  28  42  61  86 114 151 193 225 257
#     4  10  20  33  44  60  89 118 151 192 230 265
#     4  11  19  28  45  67  90 117 150 183 219 265
#     4   9  17  30  44  57  84 121 152 189 231 266
#     4   8  15  28  45  68  97 120 137 166 213 270
#
# _framework density 14.646731000000001
#
# number of rings (size 3 to 8) (size 9 to 14) (size 15 to 20)
#    0.000    2.167    3.333    4.000    0.000    3.667 
#    0.000    1.667    0.000    0.000    0.000    1.167 
#    0.000    1.333    0.000    0.000    0.000    0.000 
#
# Total GULP energy -534947.755207 kJ/mol
# GULP energy per Si atom -5572.372450 kJ/mol
# Density = 1.461339 g / cm^3
# Si number density = 14.646731 Si / 1000 Ang^3
#
#
#
# Elastic Constant Matrix: (Units=GPa)
#
#
# Indices 1 2 3 4 5 6 
#
# 1 94.6120 40.6360 30.6929 0.0000 0.0000 0.0000
# 2 40.6360 94.6122 30.6929 0.0000 0.0000 0.0000
# 3 30.6929 30.6929 53.0659 0.0000 0.0000 0.0000
# 4 0.0000 0.0000 0.0000 15.4256 0.0000 0.0000
# 5 0.0000 0.0000 0.0000 0.0000 15.4256 0.0000
# 6 0.0000 0.0000 0.0000 0.0000 0.0000 -14.2406
#
#
#
# Elastic Compliance Matrix: (Units=1/GPa)
#
#
# Indices 1 2 3 4 5 6 
#
# 1 0.014276 -0.004250 -0.005799 0.000000 0.000000 0.000000
# 2 -0.004250 0.014276 -0.005799 0.000000 0.000000 0.000000
# 3 -0.005799 -0.005799 0.025552 0.000000 0.000000 0.000000
# 4 0.000000 0.000000 0.000000 0.064827 0.000000 0.000000
# 5 0.000000 0.000000 0.000000 0.000000 0.064827 0.000000
# 6 0.000000 0.000000 0.000000 0.000000 0.000000 -0.070222
#
#
# Mechanical properties :
#
#
# Convention : Reuss Voigt Hill
#
# Bulk Modulus (GPa) = 44.62549 49.59263 47.10906
# Shear Modulus (GPa) = 32.74323 12.67336 22.70829
#
# Velocity S-wave (km/s) = 4.73327 2.94474 3.94178
# Velocity P-wave (km/s) = 7.77212 6.74497 7.27669
#
# Compressibility (1/GPa) = 0.02240872
#
# Stress axis : x y z
#
# Youngs Moduli (GPa) = 70.04639 70.04658 39.13519
#
# Poissons Ratio (x) = 0.29773 0.22694
# Poissons Ratio (y) = 0.29773 0.22694
# Poissons Ratio (z) = 0.40619 0.40619
#
# Static dielectric constant tensor:
#      x y z
#    x 1.507830 0.000000 0.000000 
#    y 0.000000 1.507830 0.000000 
#    z 0.000000 0.000000 1.455730 
# 
# From -- ./inp_files/10583.got.cif
#   From: 2010.05.17/outbox.cif.g08.bks.cpg/sg137_6_cif.got.tgz:10583.got - 2010.05.20 13:01:12.
