data_PCOD9569244
_publ_section_title
;
Structure prediction by ZEFSAII (Michael W. Deem and Ramdas Pophale) SiO2 
 PCOD9569244
Probable space group: P 42/M N M
;
_chemical_formula_sum "Si O2"
_cell_formula_units_Z 96
_cell_length_a 24.609827
_cell_length_b 24.609827
_cell_length_c 7.442324
_cell_angle_alpha 90.000000
_cell_angle_beta 90.000000
_cell_angle_gamma 90.000000
_cell_volume 4507.395788
_symmetry_space_group_name_H-M "P 42/M N M"
_symmetry_group_IT_number 136
_symmetry_cell_setting 'tetragonal'
loop_
_space_group_symop_operation_xyz
x,y,z
1/2-y,1/2+x,1/2+z
-x,-y,z
1/2+y,1/2-x,1/2+z
1/2+x,1/2-y,1/2-z
1/2-x,1/2+y,1/2-z
y,x,-z
-y,-x,-z
-x,-y,-z
1/2+y,1/2-x,1/2-z
x,y,-z
1/2-y,1/2+x,1/2-z
1/2-x,1/2+y,1/2+z
1/2+x,1/2-y,1/2+z
-y,-x,z
y,x,z
loop_
_atom_site_type_symbol
_atom_site_label
_atom_site_fract_x
_atom_site_fract_y
_atom_site_fract_z
Si Si1 0.999180 0.087653 0.280670
Si Si2 0.804021 0.428787 0.779474
Si Si3 0.693319 0.220604 0.781329
Si Si4 0.042233 0.423896 0.295141
Si Si5 0.781552 0.132136 0.783011
Si Si6 0.492901 0.290475 0.208920
O O1 0.997980 0.088707 0.500000
O O2 0.050507 0.050507 0.229269
O O3 0.001727 0.149201 0.214188
O O4 0.945089 0.054912 0.224192
O O5 0.786617 0.368375 0.724228
O O6 0.865146 0.442604 0.719554
O O7 0.759078 0.471879 0.716536
O O8 0.805606 0.430683 0.000000
O O9 0.724906 0.275095 0.724040
O O10 0.731046 0.169815 0.726879
O O11 0.693138 0.220985 0.000000
O O12 0.061912 0.425947 0.500000
O O13 0.067578 0.477175 0.205079
O O14 0.836188 0.163813 0.725129
O O15 0.778378 0.070954 0.718612
O O16 0.781723 0.131006 0.000000
O O17 0.508910 0.294447 0.000000
#
# Coordination Sequence:
#
# PCOD9569244 Si02
#       6
#    16  16  16  16  16  16
#     4   8  14  25  42  66  96 127 156 188 232 286
#     4   9  19  31  46  73 103 128 160 204 246 290
#     4   8  15  30  50  70  95 129 164 197 238 288
#     4  10  20  35  53  73  98 128 164 205 249 295
#     4   9  18  32  51  73  96 127 167 204 238 285
#     4  10  19  30  47  74 102 126 156 200 249 288
#
# _framework density 21.298328999999999
#
# number of rings (size 3 to 8) (size 9 to 14) (size 15 to 20)
#    0.000    3.000    0.000    3.000    2.333    1.667 
#    0.000    4.167    0.000    1.500    0.000    2.333 
#    0.000    0.000    0.000    0.000    0.000    0.000 
#
# Total GULP energy -535878.471483 kJ/mol
# GULP energy per Si atom -5582.067411 kJ/mol
# Density = 2.124985 g / cm^3
# Si number density = 21.298329 Si / 1000 Ang^3
#
#
#
# Elastic Constant Matrix: (Units=GPa)
#
#
# Indices 1 2 3 4 5 6 
#
# 1 134.9336 130.8378 -7.0992 0.0000 0.0000 0.0000
# 2 130.8378 134.9336 -7.0992 0.0000 0.0000 0.0000
# 3 -7.0992 -7.0992 62.0958 0.0000 0.0000 0.0000
# 4 0.0000 0.0000 0.0000 8.1071 0.0000 0.0000
# 5 0.0000 0.0000 0.0000 0.0000 8.1071 0.0000
# 6 0.0000 0.0000 0.0000 0.0000 0.0000 17.2298
#
#
#
# Elastic Compliance Matrix: (Units=1/GPa)
#
#
# Indices 1 2 3 4 5 6 
#
# 1 0.123970 -0.120184 0.000433 0.000000 0.000000 0.000000
# 2 -0.120184 0.123970 0.000433 0.000000 0.000000 0.000000
# 3 0.000433 0.000433 0.016203 0.000000 0.000000 0.000000
# 4 0.000000 0.000000 0.000000 0.123348 0.000000 0.000000
# 5 0.000000 0.000000 0.000000 0.000000 0.123348 0.000000
# 6 0.000000 0.000000 0.000000 0.000000 0.000000 0.058039
#
#
# Mechanical properties :
#
#
# Convention : Reuss Voigt Hill
#
# Bulk Modulus (GPa) = 39.20666 62.80466 51.00566
# Shear Modulus (GPa) = 6.12733 21.04373 13.58553
#
# Velocity S-wave (km/s) = 1.69798 3.14673 2.52835
# Velocity P-wave (km/s) = 4.72149 6.53870 5.70294
#
# Compressibility (1/GPa) = 0.02550587
#
# Stress axis : x y z
#
# Youngs Moduli (GPa) = 8.06649 8.06649 61.71655
#
# Poissons Ratio (x) = 0.96946 -0.02671
# Poissons Ratio (y) = 0.96946 -0.02671
# Poissons Ratio (z) = -0.00349 -0.00349
#
# Static dielectric constant tensor:
#      x y z
#    x 1.734180 0.000000 0.000000 
#    y 0.000000 1.734180 0.000000 
#    z 0.000000 0.000000 1.818730 
# 
# From -- ./inp_files/1918.got.cif
#   From: 2010.05.17/outbox.cif.g08.bks.cpg/sg136_1_cif.got.tgz:1918.got - 2010.05.20 12:54:53.
