data_PCOD9569501
_publ_section_title
;
Structure prediction by ZEFSAII (Michael W. Deem and Ramdas Pophale) SiO2 
 PCOD9569501
Probable space group: P 42/M N M
;
_chemical_formula_sum "Si O2"
_cell_formula_units_Z 56
_cell_length_a 11.524882
_cell_length_b 11.524882
_cell_length_c 24.279091
_cell_angle_alpha 90.000000
_cell_angle_beta 90.000000
_cell_angle_gamma 90.000000
_cell_volume 3224.819400
_symmetry_space_group_name_H-M "P 42/M N M"
_symmetry_group_IT_number 136
_symmetry_cell_setting 'tetragonal'
loop_
_space_group_symop_operation_xyz
x,y,z
1/2-y,1/2+x,1/2+z
-x,-y,z
1/2+y,1/2-x,1/2+z
1/2+x,1/2-y,1/2-z
1/2-x,1/2+y,1/2-z
y,x,-z
-y,-x,-z
-x,-y,-z
1/2+y,1/2-x,1/2-z
x,y,-z
1/2-y,1/2+x,1/2-z
1/2-x,1/2+y,1/2+z
1/2+x,1/2-y,1/2+z
-y,-x,z
y,x,z
loop_
_atom_site_type_symbol
_atom_site_label
_atom_site_fract_x
_atom_site_fract_y
_atom_site_fract_z
Si Si1 0.760110 0.431113 0.565510
Si Si2 0.842885 0.510363 0.783563
Si Si3 0.097564 0.902437 0.257407
Si Si4 0.000000 0.500000 0.116701
Si Si5 0.901818 0.098183 0.867598
O O1 0.747761 0.445456 0.500000
O O2 0.688251 0.311750 0.579837
O O3 0.894279 0.445450 0.582333
O O4 0.697848 0.535431 0.598032
O O5 0.876240 0.415747 0.736909
O O6 0.710687 0.544913 0.785688
O O7 0.896823 0.466318 0.840655
O O8 0.131598 0.868403 0.194474
O O9 0.000000 0.000000 0.255999
O O10 0.000000 0.000000 0.861733
#
# Coordination Sequence:
#
# PCOD9569501 Si02
#       5
#    16  16   8   8   8
#     4  10  20  34  56  82 108 138 186 237 279 330
#     4   9  20  36  51  77 109 145 184 228 268 329
#     4  11  22  33  56  82 108 150 182 216 273 337
#     4  10  20  36  54  76 108 154 178 220 288 324
#     4   9  17  32  53  80 106 135 174 230 286 317
#
# _framework density 17.365311999999999
#
# number of rings (size 3 to 8) (size 9 to 14) (size 15 to 20)
#    0.000    2.571    0.000    4.286    4.000    1.714 
#    2.571    0.000    0.000    0.000    0.000    0.000 
#    0.000    6.857    0.000    0.000    0.000    0.000 
#
# Total GULP energy -311784.319052 kJ/mol
# GULP energy per Si atom -5567.577126 kJ/mol
# Density = 1.732579 g / cm^3
# Si number density = 17.365312 Si / 1000 Ang^3
#
#
#
# Elastic Constant Matrix: (Units=GPa)
#
#
# Indices 1 2 3 4 5 6 
#
# 1 83.1465 47.5199 21.2861 0.0000 0.0000 0.0000
# 2 47.5199 83.1465 21.2861 0.0000 0.0000 0.0000
# 3 21.2861 21.2861 67.0328 0.0000 0.0000 0.0000
# 4 0.0000 0.0000 0.0000 20.1963 0.0000 0.0000
# 5 0.0000 0.0000 0.0000 0.0000 20.1963 0.0000
# 6 0.0000 0.0000 0.0000 0.0000 0.0000 19.8471
#
#
#
# Elastic Compliance Matrix: (Units=1/GPa)
#
#
# Indices 1 2 3 4 5 6 
#
# 1 0.018303 -0.009766 -0.002711 0.000000 0.000000 0.000000
# 2 -0.009766 0.018303 -0.002711 0.000000 0.000000 0.000000
# 3 -0.002711 -0.002711 0.016640 0.000000 0.000000 0.000000
# 4 0.000000 0.000000 0.000000 0.049514 0.000000 0.000000
# 5 0.000000 0.000000 0.000000 0.000000 0.049514 0.000000
# 6 0.000000 0.000000 0.000000 0.000000 0.000000 0.050385
#
#
# Mechanical properties :
#
#
# Convention : Reuss Voigt Hill
#
# Bulk Modulus (GPa) = 43.72649 45.94554 44.83601
# Shear Modulus (GPa) = 20.77649 21.59684 21.18666
#
# Velocity S-wave (km/s) = 3.46271 3.53041 3.49672
# Velocity P-wave (km/s) = 6.42045 6.56765 6.49447
#
# Compressibility (1/GPa) = 0.02286943
#
# Stress axis : x y z
#
# Youngs Moduli (GPa) = 54.63709 54.63709 60.09760
#
# Poissons Ratio (x) = 0.53360 0.16290
# Poissons Ratio (y) = 0.53360 0.16290
# Poissons Ratio (z) = 0.14810 0.14810
#
# Static dielectric constant tensor:
#      x y z
#    x 1.605050 0.000000 0.000000 
#    y 0.000000 1.605050 0.000000 
#    z 0.000000 0.000000 1.602860 
# 
# From -- ./inp_files/6987.got.cif
#   From: 2010.05.17/outbox.cif.g08.bks.cpg/sg136_4_cif.got.tgz:6987.got - 2010.05.20 12:54:53.
