data_PCOD9569237
_publ_section_title
;
Structure prediction by ZEFSAII (Michael W. Deem and Ramdas Pophale) SiO2 
 PCOD9569237
Probable space group: P 42/M N M
;
_chemical_formula_sum "Si O2"
_cell_formula_units_Z 72
_cell_length_a 23.544089
_cell_length_b 23.544089
_cell_length_c 8.913807
_cell_angle_alpha 90.000000
_cell_angle_beta 90.000000
_cell_angle_gamma 90.000000
_cell_volume 4941.138282
_symmetry_space_group_name_H-M "P 42/M N M"
_symmetry_group_IT_number 136
_symmetry_cell_setting 'tetragonal'
loop_
_space_group_symop_operation_xyz
x,y,z
1/2-y,1/2+x,1/2+z
-x,-y,z
1/2+y,1/2-x,1/2+z
1/2+x,1/2-y,1/2-z
1/2-x,1/2+y,1/2-z
y,x,-z
-y,-x,-z
-x,-y,-z
1/2+y,1/2-x,1/2-z
x,y,-z
1/2-y,1/2+x,1/2-z
1/2-x,1/2+y,1/2+z
1/2+x,1/2-y,1/2+z
-y,-x,z
y,x,z
loop_
_atom_site_type_symbol
_atom_site_label
_atom_site_fract_x
_atom_site_fract_y
_atom_site_fract_z
Si Si1 0.545974 0.545974 0.682372
Si Si2 0.627373 0.722424 0.178345
Si Si3 0.199597 0.105540 0.681532
Si Si4 0.693577 0.209011 0.172708
Si Si5 0.016068 0.825605 0.180170
O O1 0.500000 0.500000 0.734899
O O2 0.545386 0.545386 0.500000
O O3 0.609444 0.529361 0.728810
O O4 0.670356 0.670356 0.218145
O O5 0.658834 0.779799 0.230340
O O6 0.568023 0.711973 0.259831
O O7 0.619856 0.722012 0.000000
O O8 0.199549 0.101836 0.500000
O O9 0.147030 0.147030 0.723938
O O10 0.258196 0.137241 0.725416
O O11 0.192553 0.044266 0.753503
O O12 0.741230 0.258771 0.171779
O O13 0.686235 0.190507 0.000000
O O14 0.014458 0.823986 0.000000
#
# Coordination Sequence:
#
# PCOD9569237 Si02
#       5
#     8  16  16  16  16
#     4   9  18  30  41  57  83 119 161 197 223 252
#     4  10  19  30  45  65  89 114 147 191 233 272
#     4   9  18  32  47  65  90 119 150 188 231 273
#     4   8  15  29  48  65  84 112 145 181 228 280
#     4  11  20  30  45  63  89 122 157 193 226 268
#
# _framework density 14.571542000000001
#
# number of rings (size 3 to 8) (size 9 to 14) (size 15 to 20)
#    0.000    2.556    1.111    3.333    0.000    3.111 
#    0.000    2.222    0.000    2.667    0.000    0.000 
#    0.000    0.889    0.000    9.333    0.000    4.000 
#
# Total GULP energy -401295.772771 kJ/mol
# GULP energy per Si atom -5573.552400 kJ/mol
# Density = 1.453838 g / cm^3
# Si number density = 14.571542 Si / 1000 Ang^3
#
#
#
# Elastic Constant Matrix: (Units=GPa)
#
#
# Indices 1 2 3 4 5 6 
#
# 1 89.4368 79.2236 37.2789 0.0000 0.0000 0.0000
# 2 79.2236 89.4368 37.2789 0.0000 0.0000 0.0000
# 3 37.2789 37.2789 34.2304 0.0000 0.0000 0.0000
# 4 0.0000 0.0000 0.0000 21.8088 0.0000 0.0000
# 5 0.0000 0.0000 0.0000 0.0000 21.8088 0.0000
# 6 0.0000 0.0000 0.0000 0.0000 0.0000 25.3539
#
#
#
# Elastic Compliance Matrix: (Units=1/GPa)
#
#
# Indices 1 2 3 4 5 6 
#
# 1 0.054673 -0.043239 -0.012452 0.000000 0.000000 0.000000
# 2 -0.043239 0.054673 -0.012452 0.000000 0.000000 0.000000
# 3 -0.012452 -0.012452 0.056335 0.000000 0.000000 0.000000
# 4 0.000000 0.000000 0.000000 0.045853 0.000000 0.000000
# 5 0.000000 0.000000 0.000000 0.000000 0.045853 0.000000
# 6 0.000000 0.000000 0.000000 0.000000 0.000000 0.039442
#
#
# Mechanical properties :
#
#
# Convention : Reuss Voigt Hill
#
# Bulk Modulus (GPa) = 34.01923 57.85188 45.93556
# Shear Modulus (GPa) = 11.28891 17.74915 14.51903
#
# Velocity S-wave (km/s) = 2.78640 3.49387 3.16000
# Velocity P-wave (km/s) = 5.80940 7.48761 6.70125
#
# Compressibility (1/GPa) = 0.02939514
#
# Stress axis : x y z
#
# Youngs Moduli (GPa) = 18.29059 18.29059 17.75093
#
# Poissons Ratio (x) = 0.79087 0.22103
# Poissons Ratio (y) = 0.79087 0.22103
# Poissons Ratio (z) = 0.22775 0.22775
#
# Static dielectric constant tensor:
#      x y z
#    x 1.471280 0.000000 0.000000 
#    y 0.000000 1.471280 0.000000 
#    z 0.000000 0.000000 1.484010 
# 
# From -- ./inp_files/1566.got.cif
#   From: 2010.05.17/outbox.cif.g08.bks.cpg/sg136_1_cif.got.tgz:1566.got - 2010.05.20 12:54:53.
