data_PCOD9569075
_publ_section_title
;
Structure prediction by ZEFSAII (Michael W. Deem and Ramdas Pophale) SiO2 
 PCOD9569075
Probable space group: P 42/M B C
;
_chemical_formula_sum "Si O2"
_cell_formula_units_Z 112
_cell_length_a 15.000000
_cell_length_b 15.000000
_cell_length_c 27.000000
_cell_angle_alpha 90.000000
_cell_angle_beta 90.000000
_cell_angle_gamma 90.000000
_cell_volume 6075.000000
_symmetry_space_group_name_H-M "P 42/M B C"
_symmetry_group_IT_number 135
_symmetry_cell_setting 'tetragonal'
loop_
_space_group_symop_operation_xyz
x,y,z
-y,x,1/2+z
-x,-y,z
y,-x,1/2+z
1/2+x,1/2-y,-z
1/2-x,1/2+y,-z
1/2+y,1/2+x,1/2-z
1/2-y,1/2-x,1/2-z
-x,-y,-z
y,-x,1/2-z
x,y,-z
-y,x,1/2-z
1/2-x,1/2+y,z
1/2+x,1/2-y,z
1/2-y,1/2-x,1/2+z
1/2+y,1/2+x,1/2+z
loop_
_atom_site_type_symbol
_atom_site_label
_atom_site_fract_x
_atom_site_fract_y
_atom_site_fract_z
Si Si1 0.621300 0.315281 0.094192
Si Si2 0.263385 0.371054 0.194898
Si Si3 0.743551 0.967525 0.124695
Si Si4 0.225472 0.422242 0.305207
Si Si5 0.303673 0.119488 0.341928
Si Si6 0.789715 0.924719 0.443100
Si Si7 0.134092 0.272938 0.442142
O O1 0.685779 0.401947 0.096659
O O2 0.592832 0.295030 0.150586
O O3 0.526241 0.326213 0.065495
O O4 0.676472 0.225635 0.076353
O O5 0.284830 0.460768 0.163846
O O6 0.269669 0.397810 0.252537
O O7 0.157650 0.347158 0.187471
O O8 0.320639 0.281626 0.178976
O O9 0.676954 0.895852 0.152411
O O10 0.703064 0.041788 0.086355
O O11 0.191755 0.525338 0.311187
O O12 0.279990 0.090596 0.398425
O O13 0.756017 0.920867 0.500000
O O14 0.851527 0.835378 0.437595
O O15 0.125432 0.293720 0.500000
#
# Coordination Sequence:
#
# PCOD9569075 Si02
#       7
#    16  16  16  16  16  16  16
#     4  11  22  43  64  91 126 176 211 273 322 388
#     4  11  23  43  63  98 130 169 219 264 320 392
#     4  12  22  40  65  93 128 171 210 267 327 388
#     4  10  23  41  68  90 132 170 212 267 325 375
#     4  11  23  43  67  95 131 169 216 268 322 387
#     4  10  21  41  66  91 127 169 216 267 324 385
#     4  11  23  42  64  97 132 166 218 273 325 394
#
# _framework density 18.436214
#
# number of rings (size 3 to 8) (size 9 to 14) (size 15 to 20)
#    0.000    1.143    5.714    0.429    2.000    3.429 
#    0.000    2.857    0.000    2.571    0.000    0.000 
#    0.000    0.000    0.000    0.000    0.000    0.000 
#
# Total GULP energy -623743.778674 kJ/mol
# GULP energy per Si atom -5569.140881 kJ/mol
# Density = 1.839425 g / cm^3
# Si number density = 18.436214 Si / 1000 Ang^3
#
#
#
# Elastic Constant Matrix: (Units=GPa)
#
#
# Indices 1 2 3 4 5 6 
#
# 1 130.0538 45.7309 23.4601 0.0000 0.0000 0.0000
# 2 45.7309 130.0538 23.4601 0.0000 0.0000 0.0000
# 3 23.4601 23.4601 132.0610 0.0000 0.0000 0.0000
# 4 0.0000 0.0000 0.0000 30.9423 0.0000 0.0000
# 5 0.0000 0.0000 0.0000 0.0000 30.9423 0.0000
# 6 0.0000 0.0000 0.0000 0.0000 0.0000 25.2940
#
#
#
# Elastic Compliance Matrix: (Units=1/GPa)
#
#
# Indices 1 2 3 4 5 6 
#
# 1 0.008916 -0.002944 -0.001061 0.000000 0.000000 0.000000
# 2 -0.002944 0.008916 -0.001061 0.000000 0.000000 0.000000
# 3 -0.001061 -0.001061 0.007949 0.000000 0.000000 0.000000
# 4 0.000000 0.000000 0.000000 0.032318 0.000000 0.000000
# 5 0.000000 0.000000 0.000000 0.000000 0.032318 0.000000
# 6 0.000000 0.000000 0.000000 0.000000 0.000000 0.039535
#
#
# Mechanical properties :
#
#
# Convention : Reuss Voigt Hill
#
# Bulk Modulus (GPa) = 63.89976 64.16343 64.03160
# Shear Modulus (GPa) = 34.41178 37.40355 35.90767
#
# Velocity S-wave (km/s) = 4.32502 4.50912 4.41803
# Velocity P-wave (km/s) = 7.72504 7.87325 7.79950
#
# Compressibility (1/GPa) = 0.01564951
#
# Stress axis : x y z
#
# Youngs Moduli (GPa) = 112.16336 112.16336 125.79909
#
# Poissons Ratio (x) = 0.33017 0.13346
# Poissons Ratio (y) = 0.33017 0.13346
# Poissons Ratio (z) = 0.11899 0.11899
#
# Static dielectric constant tensor:
#      x y z
#    x 1.647820 0.000000 0.000000 
#    y 0.000000 1.647820 0.000000 
#    z 0.000000 0.000000 1.699020 
# 
# From -- ./inp_files/6514.got.cif
#   From: 2010.05.17/outbox.ucp.g08.bks.cvg/sg135_4_cif.got.tgz:6514.got - 2010.06.11 11:40:18.
