data_PCOD9569291
_publ_section_title
;
Structure prediction by ZEFSAII (Michael W. Deem and Ramdas Pophale) SiO2 
 PCOD9569291
Probable space group: P 42/M N M
;
_chemical_formula_sum "Si O2"
_cell_formula_units_Z 104
_cell_length_a 19.887992
_cell_length_b 19.887992
_cell_length_c 15.926173
_cell_angle_alpha 90.000000
_cell_angle_beta 90.000000
_cell_angle_gamma 90.000000
_cell_volume 6299.314655
_symmetry_space_group_name_H-M "P 42/M N M"
_symmetry_group_IT_number 136
_symmetry_cell_setting 'tetragonal'
loop_
_space_group_symop_operation_xyz
x,y,z
1/2-y,1/2+x,1/2+z
-x,-y,z
1/2+y,1/2-x,1/2+z
1/2+x,1/2-y,1/2-z
1/2-x,1/2+y,1/2-z
y,x,-z
-y,-x,-z
-x,-y,-z
1/2+y,1/2-x,1/2-z
x,y,-z
1/2-y,1/2+x,1/2-z
1/2-x,1/2+y,1/2+z
1/2+x,1/2-y,1/2+z
-y,-x,z
y,x,z
loop_
_atom_site_type_symbol
_atom_site_label
_atom_site_fract_x
_atom_site_fract_y
_atom_site_fract_z
Si Si1 0.887745 0.997119 0.500000
Si Si2 0.008038 0.386350 0.500000
Si Si3 0.457715 0.169848 0.828705
Si Si4 0.003186 0.891121 0.171634
Si Si5 0.063157 0.825631 0.339572
Si Si6 0.158855 0.558113 0.672489
Si Si7 0.890170 0.498943 0.500000
Si Si8 0.208518 0.096945 0.903933
O O1 0.924826 0.924826 0.500000
O O2 0.844885 0.014532 0.582734
O O3 0.948147 0.051854 0.500000
O O4 0.996311 0.344236 0.584041
O O5 0.950166 0.443809 0.500000
O O6 0.077220 0.427453 0.500000
O O7 0.429241 0.245634 0.831843
O O8 0.399750 0.113485 0.820753
O O9 0.508926 0.160923 0.751627
O O10 0.944891 0.944891 0.194518
O O11 0.968799 0.837595 0.110573
O O12 0.029512 0.854264 0.254778
O O13 0.064583 0.935418 0.135813
O O14 0.132665 0.867336 0.351797
O O15 0.148179 0.515435 0.586692
O O16 0.229931 0.594386 0.659400
O O17 0.160356 0.160356 0.889702
O O18 0.232617 0.099776 0.000000
#
# Coordination Sequence:
#
# PCOD9569291 Si02
#       8
#     8   8  16  16  16  16   8  16
#     4   9  17  30  50  76 105 137 174 212 255 313
#     4   9  19  34  51  77 101 129 169 227 271 307
#     4  11  22  35  55  77 107 139 184 227 273 321
#     4   9  17  31  53  78 104 133 168 215 265 311
#     4  10  19  32  50  75 106 139 173 213 265 321
#     4  11  21  36  55  79 104 142 182 226 273 325
#     4   9  18  34  55  73 100 129 171 223 273 312
#     4  10  20  35  55  80 109 139 174 216 273 337
#
# _framework density 16.509733000000001
#
# number of rings (size 3 to 8) (size 9 to 14) (size 15 to 20)
#    0.000    2.077    2.308    1.846    0.000    4.308 
#    0.000    1.538    0.000    0.000    0.000    0.000 
#    0.000    4.923    0.000    0.000    0.000    0.000 
#
# Total GULP energy -579753.242036 kJ/mol
# GULP energy per Si atom -5574.550404 kJ/mol
# Density = 1.647216 g / cm^3
# Si number density = 16.509733 Si / 1000 Ang^3
#
#
#
# Elastic Constant Matrix: (Units=GPa)
#
#
# Indices 1 2 3 4 5 6 
#
# 1 88.0259 41.9236 43.3805 0.0000 0.0000 0.0000
# 2 41.9236 88.0259 43.3805 0.0000 0.0000 0.0000
# 3 43.3805 43.3805 98.6318 0.0000 0.0000 0.0000
# 4 0.0000 0.0000 0.0000 22.6626 0.0000 0.0000
# 5 0.0000 0.0000 0.0000 0.0000 22.6625 0.0000
# 6 0.0000 0.0000 0.0000 0.0000 0.0000 18.5251
#
#
#
# Elastic Compliance Matrix: (Units=1/GPa)
#
#
# Indices 1 2 3 4 5 6 
#
# 1 0.016293 -0.005398 -0.004792 0.000000 0.000000 0.000000
# 2 -0.005398 0.016293 -0.004792 0.000000 0.000000 0.000000
# 3 -0.004792 -0.004792 0.014354 0.000000 0.000000 0.000000
# 4 0.000000 0.000000 0.000000 0.044125 0.000000 0.000000
# 5 0.000000 0.000000 0.000000 0.000000 0.044126 0.000000
# 6 0.000000 0.000000 0.000000 0.000000 0.000000 0.053981
#
#
# Mechanical properties :
#
#
# Convention : Reuss Voigt Hill
#
# Bulk Modulus (GPa) = 58.90655 59.11695 59.01175
# Shear Modulus (GPa) = 22.24272 22.50332 22.37302
#
# Velocity S-wave (km/s) = 3.67447 3.69593 3.68522
# Velocity P-wave (km/s) = 7.33210 7.35515 7.34364
#
# Compressibility (1/GPa) = 0.01697604
#
# Stress axis : x y z
#
# Youngs Moduli (GPa) = 61.37734 61.37735 69.66876
#
# Poissons Ratio (x) = 0.33133 0.33383
# Poissons Ratio (y) = 0.33133 0.33383
# Poissons Ratio (z) = 0.29410 0.29410
#
# Static dielectric constant tensor:
#      x y z
#    x 1.554200 0.000000 0.000000 
#    y 0.000000 1.554200 0.000000 
#    z 0.000000 0.000000 1.543300 
# 
# From -- ./inp_files/6464.got.cif
#   From: 2010.05.17/outbox.cif.g08.bks.cpg/sg136_4_cif.got.tgz:6464.got - 2010.05.20 12:54:53.
