data_PCOD9569761
_publ_section_title
;
Structure prediction by ZEFSAII (Michael W. Deem and Ramdas Pophale) SiO2 
 PCOD9569761
Probable space group: P 42/M N M
;
_chemical_formula_sum "Si O2"
_cell_formula_units_Z 96
_cell_length_a 14.607247
_cell_length_b 14.607247
_cell_length_c 23.593671
_cell_angle_alpha 90.000000
_cell_angle_beta 90.000000
_cell_angle_gamma 90.000000
_cell_volume 5034.220863
_symmetry_space_group_name_H-M "P 42/M N M"
_symmetry_group_IT_number 136
_symmetry_cell_setting 'tetragonal'
loop_
_space_group_symop_operation_xyz
x,y,z
1/2-y,1/2+x,1/2+z
-x,-y,z
1/2+y,1/2-x,1/2+z
1/2+x,1/2-y,1/2-z
1/2-x,1/2+y,1/2-z
y,x,-z
-y,-x,-z
-x,-y,-z
1/2+y,1/2-x,1/2-z
x,y,-z
1/2-y,1/2+x,1/2-z
1/2-x,1/2+y,1/2+z
1/2+x,1/2-y,1/2+z
-y,-x,z
y,x,z
loop_
_atom_site_type_symbol
_atom_site_label
_atom_site_fract_x
_atom_site_fract_y
_atom_site_fract_z
Si Si1 0.836202 0.018740 0.566172
Si Si2 0.730576 0.426283 0.650208
Si Si3 0.679059 0.169870 0.561316
Si Si4 0.276947 0.130887 0.368678
Si Si5 0.244051 0.910706 0.065126
Si Si6 0.352549 0.038215 0.743392
O O1 0.851007 0.997115 0.500000
O O2 0.926656 0.073345 0.586952
O O3 0.754313 0.092293 0.568451
O O4 0.795417 0.932902 0.598597
O O5 0.646704 0.353297 0.655865
O O6 0.816183 0.381701 0.616031
O O7 0.709841 0.510714 0.608097
O O8 0.771226 0.457015 0.710378
O O9 0.633298 0.154852 0.500000
O O10 0.735491 0.264510 0.557614
O O11 0.220667 0.220667 0.348830
O O12 0.359187 0.167010 0.408850
O O13 0.316137 0.074485 0.316370
O O14 0.166476 0.833525 0.063014
O O15 0.258897 0.941589 0.000000
O O16 0.436705 0.105155 0.760138
#
# Coordination Sequence:
#
# PCOD9569761 Si02
#       6
#    16  16  16  16  16  16
#     4   9  18  34  57  87 121 154 193 244 302 365
#     4  11  21  37  61  88 117 158 207 252 304 364
#     4   8  15  29  51  81 115 147 183 236 297 354
#     4  11  22  39  60  85 121 164 206 250 306 371
#     4  10  22  40  61  88 125 165 204 252 309 369
#     4  11  23  41  63  87 119 153 202 257 307 365
#
# _framework density 19.069485
#
# number of rings (size 3 to 8) (size 9 to 14) (size 15 to 20)
#    0.000    2.000    1.667    3.500    0.000    2.667 
#    0.000    3.333    0.000    6.000    0.000    0.000 
#    0.000    0.000    0.000    0.000    0.000    0.000 
#
# Total GULP energy -534974.135358 kJ/mol
# GULP energy per Si atom -5572.647243 kJ/mol
# Density = 1.902608 g / cm^3
# Si number density = 19.069485 Si / 1000 Ang^3
#
#
#
# Elastic Constant Matrix: (Units=GPa)
#
#
# Indices 1 2 3 4 5 6 
#
# 1 73.6798 30.0350 41.7299 0.0000 0.0000 0.0000
# 2 30.0350 73.6798 41.7299 0.0000 0.0000 0.0000
# 3 41.7299 41.7299 106.1438 0.0000 0.0000 0.0000
# 4 0.0000 0.0000 0.0000 546.9290 0.0000 0.0000
# 5 0.0000 0.0000 0.0000 0.0000 546.9290 0.0000
# 6 0.0000 0.0000 0.0000 0.0000 0.0000 32.8318
#
#
#
# Elastic Compliance Matrix: (Units=1/GPa)
#
#
# Indices 1 2 3 4 5 6 
#
# 1 0.018508 -0.004404 -0.005545 0.000000 0.000000 0.000000
# 2 -0.004404 0.018508 -0.005545 0.000000 0.000000 0.000000
# 3 -0.005545 -0.005545 0.013781 0.000000 0.000000 0.000000
# 4 0.000000 0.000000 0.000000 0.001828 0.000000 0.000000
# 5 0.000000 0.000000 0.000000 0.000000 0.001828 0.000000
# 6 0.000000 0.000000 0.000000 0.000000 0.000000 0.030458
#
#
# Mechanical properties :
#
#
# Convention : Reuss Voigt Hill
#
# Bulk Modulus (GPa) = 50.48144 53.38813 51.93479
# Shear Modulus (GPa) = 40.81533 234.67185 137.74359
#
# Velocity S-wave (km/s) = 4.63141 11.10534 8.50819
# Velocity P-wave (km/s) = 7.42494 13.87428 11.12711
#
# Compressibility (1/GPa) = 0.01980926
#
# Stress axis : x y z
#
# Youngs Moduli (GPa) = 54.03065 54.03065 72.56348
#
# Poissons Ratio (x) = 0.23796 0.40235
# Poissons Ratio (y) = 0.23796 0.40235
# Poissons Ratio (z) = 0.29959 0.29959
#
# Static dielectric constant tensor:
#      x y z
#    x 1.675590 0.000000 0.000000 
#    y 0.000000 1.675590 0.000000 
#    z 0.000000 0.000000 1.671090 
# 
# From -- ./inp_files/7474.got.cif
#   From: 2010.05.17/outbox.cif.g08.bks.cpg/sg136_4_cif.got.tgz:7474.got - 2010.05.20 12:54:53.
