data_PCOD9569499
_publ_section_title
;
Structure prediction by ZEFSAII (Michael W. Deem and Ramdas Pophale) SiO2 
 PCOD9569499
Probable space group: P 42/M N M
;
_chemical_formula_sum "Si O2"
_cell_formula_units_Z 96
_cell_length_a 20.630139
_cell_length_b 20.630139
_cell_length_c 12.412351
_cell_angle_alpha 90.000000
_cell_angle_beta 90.000000
_cell_angle_gamma 90.000000
_cell_volume 5282.729294
_symmetry_space_group_name_H-M "P 42/M N M"
_symmetry_group_IT_number 136
_symmetry_cell_setting 'tetragonal'
loop_
_space_group_symop_operation_xyz
x,y,z
1/2-y,1/2+x,1/2+z
-x,-y,z
1/2+y,1/2-x,1/2+z
1/2+x,1/2-y,1/2-z
1/2-x,1/2+y,1/2-z
y,x,-z
-y,-x,-z
-x,-y,-z
1/2+y,1/2-x,1/2-z
x,y,-z
1/2-y,1/2+x,1/2-z
1/2-x,1/2+y,1/2+z
1/2+x,1/2-y,1/2+z
-y,-x,z
y,x,z
loop_
_atom_site_type_symbol
_atom_site_label
_atom_site_fract_x
_atom_site_fract_y
_atom_site_fract_z
Si Si1 0.199881 0.099294 0.373578
Si Si2 0.559234 0.846774 0.625702
Si Si3 0.219174 0.881780 0.208523
Si Si4 0.830401 0.423825 0.256236
Si Si5 0.199219 0.299954 0.119573
Si Si6 0.636986 0.534596 0.123552
O O1 0.214741 0.107598 0.500000
O O2 0.165717 0.165717 0.335593
O O3 0.264895 0.077346 0.314520
O O4 0.147740 0.041492 0.364023
O O5 0.550689 0.864034 0.500000
O O6 0.584522 0.772270 0.633942
O O7 0.493065 0.848645 0.694618
O O8 0.612254 0.892648 0.684214
O O9 0.166664 0.833337 0.155869
O O10 0.261365 0.839087 0.291383
O O11 0.180219 0.930979 0.285487
O O12 0.812084 0.375048 0.353196
O O13 0.226691 0.226691 0.123716
O O14 0.214377 0.324414 0.000000
O O15 0.565456 0.565456 0.133421
O O16 0.658629 0.550317 0.000000
#
# Coordination Sequence:
#
# PCOD9569499 Si02
#       6
#    16  16  16  16  16  16
#     4  10  20  34  55  84 117 152 188 229 282 343
#     4  11  24  41  61  84 111 145 189 234 281 341
#     4   9  17  32  55  84 114 144 180 225 275 325
#     4  11  22  40  56  80 110 148 186 238 284 336
#     4   9  17  30  52  80 107 136 175 225 280 333
#     4   9  16  28  50  82 117 151 188 228 273 329
#
# _framework density 18.172425
#
# number of rings (size 3 to 8) (size 9 to 14) (size 15 to 20)
#    0.000    2.167    1.667    2.000    0.000    3.667 
#    0.000    5.000    0.000    0.000    0.000    0.000 
#    0.000    2.667    0.000    0.000    0.000    0.000 
#
# Total GULP energy -534780.255133 kJ/mol
# GULP energy per Si atom -5570.627658 kJ/mol
# Density = 1.813106 g / cm^3
# Si number density = 18.172425 Si / 1000 Ang^3
#
#
#
# Elastic Constant Matrix: (Units=GPa)
#
#
# Indices 1 2 3 4 5 6 
#
# 1 71.9161 69.2658 38.5896 0.0000 0.0000 0.0000
# 2 69.2658 71.9161 38.5896 0.0000 0.0000 0.0000
# 3 38.5896 38.5896 79.0622 0.0000 0.0000 0.0000
# 4 0.0000 0.0000 0.0000 17.6503 0.0000 0.0000
# 5 0.0000 0.0000 0.0000 0.0000 17.6503 0.0000
# 6 0.0000 0.0000 0.0000 0.0000 0.0000 24.0271
#
#
#
# Elastic Compliance Matrix: (Units=1/GPa)
#
#
# Indices 1 2 3 4 5 6 
#
# 1 0.193490 -0.183829 -0.004715 0.000000 0.000000 0.000000
# 2 -0.183829 0.193490 -0.004715 0.000000 0.000000 0.000000
# 3 -0.004715 -0.004715 0.017251 0.000000 0.000000 0.000000
# 4 0.000000 0.000000 0.000000 0.056656 0.000000 0.000000
# 5 0.000000 0.000000 0.000000 0.000000 0.056656 0.000000
# 6 0.000000 0.000000 0.000000 0.000000 0.000000 0.041620
#
#
# Mechanical properties :
#
#
# Convention : Reuss Voigt Hill
#
# Bulk Modulus (GPa) = 56.46054 57.30938 56.88496
# Shear Modulus (GPa) = 5.25438 16.96215 11.10827
#
# Velocity S-wave (km/s) = 1.70226 3.05847 2.47507
# Velocity P-wave (km/s) = 5.91611 6.63907 6.28799
#
# Compressibility (1/GPa) = 0.01771148
#
# Stress axis : x y z
#
# Youngs Moduli (GPa) = 5.16823 5.16823 57.96664
#
# Poissons Ratio (x) = 0.95007 0.27333
# Poissons Ratio (y) = 0.95007 0.27333
# Poissons Ratio (z) = 0.02437 0.02437
#
# Static dielectric constant tensor:
#      x y z
#    x 1.641250 0.000000 0.000000 
#    y 0.000000 1.641250 0.000000 
#    z 0.000000 0.000000 1.604840 
# 
# From -- ./inp_files/3782.got.cif
#   From: 2010.05.17/outbox.cif.g08.bks.cpg/sg136_2_cif.got.tgz:3782.got - 2010.05.20 12:54:53.
