data_PCOD9569087
_publ_section_title
;
Structure prediction by ZEFSAII (Michael W. Deem and Ramdas Pophale) SiO2 
 PCOD9569087
Probable space group: P 42/M N M
;
_chemical_formula_sum "Si O2"
_cell_formula_units_Z 112
_cell_length_a 21.354158
_cell_length_b 21.354158
_cell_length_c 17.526689
_cell_angle_alpha 90.000000
_cell_angle_beta 90.000000
_cell_angle_gamma 90.000000
_cell_volume 7992.171304
_symmetry_space_group_name_H-M "P 42/M N M"
_symmetry_group_IT_number 136
_symmetry_cell_setting 'tetragonal'
loop_
_space_group_symop_operation_xyz
x,y,z
1/2-y,1/2+x,1/2+z
-x,-y,z
1/2+y,1/2-x,1/2+z
1/2+x,1/2-y,1/2-z
1/2-x,1/2+y,1/2-z
y,x,-z
-y,-x,-z
-x,-y,-z
1/2+y,1/2-x,1/2-z
x,y,-z
1/2-y,1/2+x,1/2-z
1/2-x,1/2+y,1/2+z
1/2+x,1/2-y,1/2+z
-y,-x,z
y,x,z
loop_
_atom_site_type_symbol
_atom_site_label
_atom_site_fract_x
_atom_site_fract_y
_atom_site_fract_z
Si Si1 0.447449 0.447449 0.132380
Si Si2 0.776770 0.882240 0.911842
Si Si3 0.885361 0.222771 0.729732
Si Si4 0.552004 0.552004 0.685631
Si Si5 0.283179 0.176751 0.228943
Si Si6 0.002035 0.181247 0.176403
Si Si7 0.803875 0.908863 0.679414
Si Si8 0.192943 0.970707 0.413019
O O1 0.500000 0.500000 0.123181
O O2 0.437064 0.437064 0.223294
O O3 0.382261 0.467927 0.096002
O O4 0.840003 0.840003 0.899593
O O5 0.725556 0.854644 0.853849
O O6 0.789022 0.953599 0.887072
O O7 0.759805 0.876438 0.000000
O O8 0.834760 0.165241 0.736880
O O9 0.848122 0.287615 0.738986
O O10 0.941656 0.217236 0.790634
O O11 0.919259 0.217748 0.647287
O O12 0.500000 0.500000 0.679856
O O13 0.615202 0.525589 0.650933
O O14 0.231399 0.231399 0.231884
O O15 0.258116 0.126806 0.290658
O O16 0.049160 0.172054 0.248791
O O17 0.857599 0.857599 0.660934
O O18 0.789718 0.959264 0.614237
O O19 0.210901 0.958115 0.500000
#
# Coordination Sequence:
#
# PCOD9569087 Si02
#       8
#     8  16  16   8  16  16  16  16
#     4  11  19  26  35  55  88 128 159 169 188 234
#     4   9  17  29  43  62  84 110 142 178 217 251
#     4  10  17  29  42  61  84 113 147 176 212 252
#     4  11  16  23  39  57  79 119 155 177 199 227
#     4   8  16  28  46  60  76 105 147 188 213 245
#     4  10  16  26  41  59  83 111 143 181 209 243
#     4   9  16  28  41  57  77 111 154 183 206 232
#     4  11  20  27  37  59  92 119 141 172 207 248
#
# _framework density 14.013714
#
# number of rings (size 3 to 8) (size 9 to 14) (size 15 to 20)
#    0.000    2.286    4.286    2.786    0.000    2.000 
#    0.000    1.786    0.000    2.143    0.000    2.000 
#    0.000   46.286    0.000   23.143    0.000    0.000 
#
# Total GULP energy -623569.661883 kJ/mol
# GULP energy per Si atom -5567.586267 kJ/mol
# Density = 1.398182 g / cm^3
# Si number density = 14.013714 Si / 1000 Ang^3
#
#
#
# Elastic Constant Matrix: (Units=GPa)
#
#
# Indices 1 2 3 4 5 6 
#
# 1 59.7620 49.4513 16.9600 0.0000 0.0000 0.0000
# 2 49.4513 59.7620 16.9600 0.0000 0.0000 0.0000
# 3 16.9600 16.9600 33.7372 0.0000 0.0000 0.0000
# 4 0.0000 0.0000 0.0000 9.8043 0.0000 0.0000
# 5 0.0000 0.0000 0.0000 0.0000 9.8043 0.0000
# 6 0.0000 0.0000 0.0000 0.0000 0.0000 32.5701
#
#
#
# Elastic Compliance Matrix: (Units=1/GPa)
#
#
# Indices 1 2 3 4 5 6 
#
# 1 0.053919 -0.043068 -0.005455 0.000000 0.000000 0.000000
# 2 -0.043068 0.053919 -0.005455 0.000000 0.000000 0.000000
# 3 -0.005455 -0.005455 0.035125 0.000000 0.000000 0.000000
# 4 0.000000 0.000000 0.000000 0.101996 0.000000 0.000000
# 5 0.000000 0.000000 0.000000 0.000000 0.101996 0.000000
# 6 0.000000 0.000000 0.000000 0.000000 0.000000 0.030703
#
#
# Mechanical properties :
#
#
# Convention : Reuss Voigt Hill
#
# Bulk Modulus (GPa) = 28.56532 35.55598 32.06065
# Shear Modulus (GPa) = 10.05463 15.09505 12.57484
#
# Velocity S-wave (km/s) = 2.68150 3.28558 2.99879
# Velocity P-wave (km/s) = 5.47862 6.31037 5.90915
#
# Compressibility (1/GPa) = 0.03500748
#
# Stress axis : x y z
#
# Youngs Moduli (GPa) = 18.54637 18.54637 28.46972
#
# Poissons Ratio (x) = 0.79876 0.15529
# Poissons Ratio (y) = 0.79876 0.15529
# Poissons Ratio (z) = 0.10116 0.10116
#
# Static dielectric constant tensor:
#      x y z
#    x 2.199410 0.000000 0.000000 
#    y 0.000000 2.199410 0.000000 
#    z 0.000000 0.000000 1.477520 
# 
# From -- ./inp_files/6612.got.cif
#   From: 2010.05.17/outbox.cif.g08.bks.cpg/sg136_4_cif.got.tgz:6612.got - 2010.05.20 12:54:53.
