data_PCOD9569077
_publ_section_title
;
Structure prediction by ZEFSAII (Michael W. Deem and Ramdas Pophale) SiO2 
 PCOD9569077
Probable space group: P 42/M B C
;
_chemical_formula_sum "Si O2"
_cell_formula_units_Z 112
_cell_length_a 15.000000
_cell_length_b 15.000000
_cell_length_c 24.000000
_cell_angle_alpha 90.000000
_cell_angle_beta 90.000000
_cell_angle_gamma 90.000000
_cell_volume 5400.000000
_symmetry_space_group_name_H-M "P 42/M B C"
_symmetry_group_IT_number 135
_symmetry_cell_setting 'tetragonal'
loop_
_space_group_symop_operation_xyz
x,y,z
-y,x,1/2+z
-x,-y,z
y,-x,1/2+z
1/2+x,1/2-y,-z
1/2-x,1/2+y,-z
1/2+y,1/2+x,1/2-z
1/2-y,1/2-x,1/2-z
-x,-y,-z
y,-x,1/2-z
x,y,-z
-y,x,1/2-z
1/2-x,1/2+y,z
1/2+x,1/2-y,z
1/2-y,1/2-x,1/2+z
1/2+y,1/2+x,1/2+z
loop_
_atom_site_type_symbol
_atom_site_label
_atom_site_fract_x
_atom_site_fract_y
_atom_site_fract_z
Si Si1 0.360746 0.513527 0.745604
Si Si2 0.304981 0.104884 0.302817
Si Si3 0.956429 0.585943 0.857814
Si Si4 0.479136 0.398144 0.067219
Si Si5 0.305510 0.283835 0.106307
Si Si6 0.743577 0.113837 0.435920
Si Si7 0.894724 0.711021 0.702521
O O1 0.431251 0.578442 0.776069
O O2 0.297510 0.571184 0.705562
O O3 0.286230 0.463622 0.780610
O O4 0.337081 0.162920 0.250000
O O5 0.302048 0.153627 0.362495
O O6 0.367851 0.020354 0.312322
O O7 0.925390 0.662805 0.899560
O O8 0.870574 0.552899 0.824338
O O9 0.000000 0.500000 0.885280
O O10 0.500000 0.500000 0.087532
O O11 0.385700 0.347899 0.083982
O O12 0.561805 0.333092 0.083189
O O13 0.476705 0.403303 0.000000
O O14 0.221793 0.256054 0.067814
O O15 0.253954 0.333834 0.155696
O O16 0.729752 0.088865 0.500000
O O17 0.830258 0.669742 0.750000
#
# Coordination Sequence:
#
# PCOD9569077 Si02
#       7
#    16  16  16  16  16  16  16
#     4  11  24  39  58  89 128 175 220 273 333 389
#     4  12  24  41  64  93 134 179 222 274 331 406
#     4  11  24  42  66  96 127 177 230 274 338 410
#     4  10  22  45  73 101 133 171 220 287 355 413
#     4  11  23  41  64  97 129 178 223 275 338 409
#     4  10  23  46  71  97 136 174 224 293 351 411
#     4  11  22  40  60  87 130 179 220 269 326 401
#
# _framework density 20.740741
#
# number of rings (size 3 to 8) (size 9 to 14) (size 15 to 20)
#    0.000    1.143    4.286    1.714    0.000    1.429 
#    7.714    0.000    0.000    0.000    0.000    0.000 
#    0.000    0.000    0.000    0.000    0.000    0.000 
#
# Total GULP energy -624452.977412 kJ/mol
# GULP energy per Si atom -5575.473013 kJ/mol
# Density = 2.069353 g / cm^3
# Si number density = 20.740741 Si / 1000 Ang^3
#
#
#
# Elastic Constant Matrix: (Units=GPa)
#
#
# Indices 1 2 3 4 5 6 
#
# 1 135.1383 68.8233 33.0979 0.0000 0.0000 0.0000
# 2 68.8233 135.1379 33.0978 0.0000 0.0000 0.0000
# 3 33.0979 33.0978 65.6729 0.0000 0.0000 0.0000
# 4 0.0000 0.0000 0.0000 23.1015 0.0000 0.0000
# 5 0.0000 0.0000 0.0000 0.0000 23.1018 0.0000
# 6 0.0000 0.0000 0.0000 0.0000 0.0000 36.5261
#
#
#
# Elastic Compliance Matrix: (Units=1/GPa)
#
#
# Indices 1 2 3 4 5 6 
#
# 1 0.010471 -0.004609 -0.002954 0.000000 0.000000 0.000000
# 2 -0.004609 0.010471 -0.002954 0.000000 0.000000 0.000000
# 3 -0.002954 -0.002954 0.018205 0.000000 0.000000 0.000000
# 4 0.000000 0.000000 0.000000 0.043287 0.000000 0.000000
# 5 0.000000 0.000000 0.000000 0.000000 0.043287 0.000000
# 6 0.000000 0.000000 0.000000 0.000000 0.000000 0.027378
#
#
# Mechanical properties :
#
#
# Convention : Reuss Voigt Hill
#
# Bulk Modulus (GPa) = 55.21403 67.33191 61.27297
# Shear Modulus (GPa) = 27.75171 29.94124 28.84647
#
# Velocity S-wave (km/s) = 3.66188 3.80359 3.73341
# Velocity P-wave (km/s) = 6.67517 7.19887 6.94196
#
# Compressibility (1/GPa) = 0.01811134
#
# Stress axis : x y z
#
# Youngs Moduli (GPa) = 95.50540 95.50510 54.93097
#
# Poissons Ratio (x) = 0.44018 0.16227
# Poissons Ratio (y) = 0.44018 0.16228
# Poissons Ratio (z) = 0.28214 0.28214
#
# Static dielectric constant tensor:
#      x y z
#    x 1.811900 0.000000 0.000000 
#    y 0.000000 1.811900 0.000000 
#    z 0.000000 0.000000 1.780100 
# 
# From -- ./inp_files/6137.got.cif
#   From: 2010.05.17/outbox.ucp.g08.bks.cvg/sg135_4_cif.got.tgz:6137.got - 2010.06.11 11:40:18.
