data_PCOD9569726
_publ_section_title
;
Structure prediction by ZEFSAII (Michael W. Deem and Ramdas Pophale) SiO2 
 PCOD9569726
Probable space group: P 42/M N M
;
_chemical_formula_sum "Si O2"
_cell_formula_units_Z 120
_cell_length_a 14.046406
_cell_length_b 14.046406
_cell_length_c 31.715803
_cell_angle_alpha 90.000000
_cell_angle_beta 90.000000
_cell_angle_gamma 90.000000
_cell_volume 6257.576188
_symmetry_space_group_name_H-M "P 42/M N M"
_symmetry_group_IT_number 136
_symmetry_cell_setting 'tetragonal'
loop_
_space_group_symop_operation_xyz
x,y,z
1/2-y,1/2+x,1/2+z
-x,-y,z
1/2+y,1/2-x,1/2+z
1/2+x,1/2-y,1/2-z
1/2-x,1/2+y,1/2-z
y,x,-z
-y,-x,-z
-x,-y,-z
1/2+y,1/2-x,1/2-z
x,y,-z
1/2-y,1/2+x,1/2-z
1/2-x,1/2+y,1/2+z
1/2+x,1/2-y,1/2+z
-y,-x,z
y,x,z
loop_
_atom_site_type_symbol
_atom_site_label
_atom_site_fract_x
_atom_site_fract_y
_atom_site_fract_z
Si Si1 0.866718 0.704968 0.257686
Si Si2 0.654498 0.507523 0.798435
Si Si3 0.344287 0.506172 0.951250
Si Si4 0.175007 0.980735 0.123278
Si Si5 0.788332 0.530270 0.876937
Si Si6 0.831598 0.323829 0.151549
Si Si7 0.360634 0.794999 0.335072
Si Si8 0.580729 0.419272 0.547936
O O1 0.785741 0.785741 0.252812
O O2 0.835588 0.644899 0.298562
O O3 0.874855 0.661321 0.211515
O O4 0.962130 0.762459 0.270297
O O5 0.575722 0.424279 0.804746
O O6 0.598046 0.598046 0.780240
O O7 0.702461 0.535800 0.842569
O O8 0.397318 0.602682 0.935920
O O9 0.424252 0.424252 0.949637
O O10 0.258017 0.474366 0.922529
O O11 0.318111 0.519977 0.000000
O O12 0.076806 0.923194 0.133535
O O13 0.255610 0.900994 0.126174
O O14 0.215108 0.060147 0.155158
O O15 0.159925 0.032337 0.078247
O O16 0.833302 0.428159 0.867420
O O17 0.856686 0.618949 0.868039
O O18 0.727396 0.272605 0.150547
O O19 0.260654 0.739347 0.337699
O O20 0.500000 0.500000 0.543817
O O21 0.608400 0.391601 0.500000
#
# Coordination Sequence:
#
# PCOD9569726 Si02
#       8
#    16  16  16  16  16  16  16   8
#     4   8  17  32  47  73 111 148 190 246 287 341
#     4   9  16  28  49  75 103 144 198 246 295 343
#     4   9  17  30  50  77 109 146 188 231 273 320
#     4  10  21  39  62  84 110 146 193 249 310 368
#     4  11  20  32  51  76 115 153 188 231 276 345
#     4   9  19  36  57  81 112 155 198 231 287 349
#     4  11  22  34  52  80 114 150 200 243 298 352
#     4   9  18  38  68  96 116 134 177 255 333 383
#
# _framework density 19.176755
#
# number of rings (size 3 to 8) (size 9 to 14) (size 15 to 20)
#    0.000    2.467    0.667    3.600    0.000    4.267 
#    0.000    4.000    0.000    5.600    0.000    1.867 
#    0.000    0.000    0.000    0.000    0.000    0.000 
#
# Total GULP energy -668783.009489 kJ/mol
# GULP energy per Si atom -5573.191746 kJ/mol
# Density = 1.913311 g / cm^3
# Si number density = 19.176755 Si / 1000 Ang^3
#
#
#
# Elastic Constant Matrix: (Units=GPa)
#
#
# Indices 1 2 3 4 5 6 
#
# 1 66.9280 34.1682 29.9632 0.0000 0.0000 0.0000
# 2 34.1682 66.9280 29.9632 0.0000 0.0000 0.0000
# 3 29.9632 29.9632 100.9520 0.0000 0.0000 0.0000
# 4 0.0000 0.0000 0.0000 13.2430 0.0000 0.0000
# 5 0.0000 0.0000 0.0000 0.0000 13.2430 0.0000
# 6 0.0000 0.0000 0.0000 0.0000 0.0000 30.2301
#
#
#
# Elastic Compliance Matrix: (Units=1/GPa)
#
#
# Indices 1 2 3 4 5 6 
#
# 1 0.021264 -0.009261 -0.003563 0.000000 0.000000 0.000000
# 2 -0.009261 0.021264 -0.003563 0.000000 0.000000 0.000000
# 3 -0.003563 -0.003563 0.012021 0.000000 0.000000 0.000000
# 4 0.000000 0.000000 0.000000 0.075512 0.000000 0.000000
# 5 0.000000 0.000000 0.000000 0.000000 0.075512 0.000000
# 6 0.000000 0.000000 0.000000 0.000000 0.000000 0.033080
#
#
# Mechanical properties :
#
#
# Convention : Reuss Voigt Hill
#
# Bulk Modulus (GPa) = 45.92080 46.99968 46.46024
# Shear Modulus (GPa) = 17.94150 20.72411 19.33281
#
# Velocity S-wave (km/s) = 3.06205 3.29095 3.17856
# Velocity P-wave (km/s) = 6.04149 6.24519 6.14418
#
# Compressibility (1/GPa) = 0.02177663
#
# Stress axis : x y z
#
# Youngs Moduli (GPa) = 47.02716 47.02716 83.19077
#
# Poissons Ratio (x) = 0.43551 0.29638
# Poissons Ratio (y) = 0.43551 0.29638
# Poissons Ratio (z) = 0.16754 0.16754
#
# Static dielectric constant tensor:
#      x y z
#    x 1.703880 0.000000 0.000000 
#    y 0.000000 1.703880 0.000000 
#    z 0.000000 0.000000 1.672920 
# 
# From -- ./inp_files/10037.got.cif
#   From: 2010.05.17/outbox.cif.g08.bks.cpg/sg136_6_cif.got.tgz:10037.got - 2010.05.20 12:54:53.
