data_PCOD9569547
_publ_section_title
;
Structure prediction by ZEFSAII (Michael W. Deem and Ramdas Pophale) SiO2 
 PCOD9569547
Probable space group: P 42/M N M
;
_chemical_formula_sum "Si O2"
_cell_formula_units_Z 56
_cell_length_a 17.167750
_cell_length_b 17.167750
_cell_length_c 8.882827
_cell_angle_alpha 90.000000
_cell_angle_beta 90.000000
_cell_angle_gamma 90.000000
_cell_volume 2618.050170
_symmetry_space_group_name_H-M "P 42/M N M"
_symmetry_group_IT_number 136
_symmetry_cell_setting 'tetragonal'
loop_
_space_group_symop_operation_xyz
x,y,z
1/2-y,1/2+x,1/2+z
-x,-y,z
1/2+y,1/2-x,1/2+z
1/2+x,1/2-y,1/2-z
1/2-x,1/2+y,1/2-z
y,x,-z
-y,-x,-z
-x,-y,-z
1/2+y,1/2-x,1/2-z
x,y,-z
1/2-y,1/2+x,1/2-z
1/2-x,1/2+y,1/2+z
1/2+x,1/2-y,1/2+z
-y,-x,z
y,x,z
loop_
_atom_site_type_symbol
_atom_site_label
_atom_site_fract_x
_atom_site_fract_y
_atom_site_fract_z
Si Si1 0.932541 0.067460 0.173229
Si Si2 0.053262 0.602118 0.677798
Si Si3 0.291886 0.168071 0.819144
Si Si4 0.954142 0.820618 0.669706
O O1 0.970512 0.142330 0.252276
O O2 0.916101 0.083900 0.000000
O O3 0.000000 0.000000 0.177645
O O4 0.097392 0.520931 0.714881
O O5 0.032985 0.605265 0.500000
O O6 0.116927 0.666933 0.717674
O O7 0.243736 0.243736 0.768771
O O8 0.247136 0.093070 0.752779
O O9 0.286844 0.162883 0.000000
O O10 0.972731 0.796053 0.500000
O O11 0.891449 0.891449 0.663870
#
# Coordination Sequence:
#
# PCOD9569547 Si02
#       4
#     8  16  16  16
#     4   9  15  23  37  57  87 129 173 215 257 307
#     4  10  20  35  58  84 110 141 180 227 274 325
#     4   9  18  33  53  77 105 139 178 218 268 329
#     4   9  16  25  40  65  95 128 169 215 260 307
#
# _framework density 21.389963999999999
#
# number of rings (size 3 to 8) (size 9 to 14) (size 15 to 20)
#    0.000    2.714    0.000    3.000    0.000    7.429 
#    0.000    0.000    3.143    0.000    0.000    0.000 
#    0.000    0.000    0.000    0.000    0.000    0.000 
#
# Total GULP energy -312449.983994 kJ/mol
# GULP energy per Si atom -5579.464000 kJ/mol
# Density = 2.134128 g / cm^3
# Si number density = 21.389964 Si / 1000 Ang^3
#
#
#
# Elastic Constant Matrix: (Units=GPa)
#
#
# Indices 1 2 3 4 5 6 
#
# 1 40.6521 10.8100 5.5280 0.0000 0.0000 0.0000
# 2 10.8100 40.6519 5.5281 0.0000 0.0000 0.0000
# 3 5.5280 5.5281 40.1281 0.0000 0.0000 0.0000
# 4 0.0000 0.0000 0.0000 12.3256 0.0000 0.0000
# 5 0.0000 0.0000 0.0000 0.0000 12.3256 0.0000
# 6 0.0000 0.0000 0.0000 0.0000 0.0000 0.6207
#
#
#
# Elastic Compliance Matrix: (Units=1/GPa)
#
#
# Indices 1 2 3 4 5 6 
#
# 1 0.026767 -0.006743 -0.002759 0.000000 0.000000 0.000000
# 2 -0.006743 0.026767 -0.002759 0.000000 0.000000 0.000000
# 3 -0.002759 -0.002759 0.025680 0.000000 0.000000 0.000000
# 4 0.000000 0.000000 0.000000 0.081132 0.000000 0.000000
# 5 0.000000 0.000000 0.000000 0.000000 0.081132 0.000000
# 6 0.000000 0.000000 0.000000 0.000000 0.000000 1.611039
#
#
# Mechanical properties :
#
#
# Convention : Reuss Voigt Hill
#
# Bulk Modulus (GPa) = 18.28326 18.35160 18.31743
# Shear Modulus (GPa) = 2.63815 11.69210 7.16513
#
# Velocity S-wave (km/s) = 1.11177 2.34052 1.83222
# Velocity P-wave (km/s) = 3.19596 3.98776 3.61361
#
# Compressibility (1/GPa) = 0.05469485
#
# Stress axis : x y z
#
# Youngs Moduli (GPa) = 37.35929 37.35909 38.94048
#
# Poissons Ratio (x) = 0.25190 0.10742
# Poissons Ratio (y) = 0.25190 0.10742
# Poissons Ratio (z) = 0.10306 0.10306
#
# Static dielectric constant tensor:
#      x y z
#    x 1.810630 0.000000 0.000000 
#    y 0.000000 1.810630 0.000000 
#    z 0.000000 0.000000 1.718440 
# 
# From -- ./inp_files/1121.got.cif
#   From: 2010.05.17/outbox.cif.g08.bks.cpg/sg136_1_cif.got.tgz:1121.got - 2010.05.20 12:54:53.
