data_PCOD9569709
_publ_section_title
;
Structure prediction by ZEFSAII (Michael W. Deem and Ramdas Pophale) SiO2 
 PCOD9569709
Probable space group: P 42/M N M
;
_chemical_formula_sum "Si O2"
_cell_formula_units_Z 120
_cell_length_a 27.068893
_cell_length_b 27.068893
_cell_length_c 8.174357
_cell_angle_alpha 90.000000
_cell_angle_beta 90.000000
_cell_angle_gamma 90.000000
_cell_volume 5989.555473
_symmetry_space_group_name_H-M "P 42/M N M"
_symmetry_group_IT_number 136
_symmetry_cell_setting 'tetragonal'
loop_
_space_group_symop_operation_xyz
x,y,z
1/2-y,1/2+x,1/2+z
-x,-y,z
1/2+y,1/2-x,1/2+z
1/2+x,1/2-y,1/2-z
1/2-x,1/2+y,1/2-z
y,x,-z
-y,-x,-z
-x,-y,-z
1/2+y,1/2-x,1/2-z
x,y,-z
1/2-y,1/2+x,1/2-z
1/2-x,1/2+y,1/2+z
1/2+x,1/2-y,1/2+z
-y,-x,z
y,x,z
loop_
_atom_site_type_symbol
_atom_site_label
_atom_site_fract_x
_atom_site_fract_y
_atom_site_fract_z
Si Si1 0.459631 0.540370 0.695131
Si Si2 0.381613 0.917052 0.302137
Si Si3 0.177170 0.254734 0.199803
Si Si4 0.975337 0.646760 0.695044
Si Si5 0.250434 0.564557 0.304418
Si Si6 0.640679 0.783380 0.199646
Si Si7 0.321090 0.401643 0.799917
Si Si8 0.511053 0.349570 0.804262
O O1 0.500000 0.500000 0.758921
O O2 0.461629 0.538372 0.500000
O O3 0.472552 0.596281 0.746754
O O4 0.382362 0.916849 0.500000
O O5 0.428975 0.886417 0.246567
O O6 0.331667 0.889434 0.249551
O O7 0.377164 0.973485 0.243885
O O8 0.205391 0.205391 0.251823
O O9 0.120742 0.257665 0.256012
O O10 0.208278 0.302762 0.250160
O O11 0.176137 0.255024 0.000000
O O12 0.977781 0.647766 0.500000
O O13 0.967790 0.703409 0.750350
O O14 0.250296 0.565525 0.500000
O O15 0.303524 0.544945 0.247914
O O16 0.615689 0.732880 0.255976
O O17 0.640364 0.782052 0.000000
O O18 0.361572 0.361572 0.750641
O O19 0.336666 0.455881 0.743907
O O20 0.320098 0.402554 0.000000
O O21 0.510160 0.350795 0.000000
#
# Coordination Sequence:
#
# PCOD9569709 Si02
#       8
#     8  16  16  16  16  16  16  16
#     4  11  25  45  67  91 123 167 219 269 321 383
#     4  10  21  38  58  82 116 155 198 249 306 364
#     4   9  17  29  51  83 114 148 190 236 287 349
#     4  11  23  39  61  88 118 155 201 255 306 363
#     4  11  22  38  60  87 123 163 202 247 300 366
#     4   9  15  29  53  82 113 147 188 233 286 355
#     4   9  17  30  53  85 118 148 185 238 299 362
#     4  11  23  39  60  90 125 161 204 257 315 371
#
# _framework density 20.034876000000001
#
# number of rings (size 3 to 8) (size 9 to 14) (size 15 to 20)
#    0.000    1.933    1.333    3.000    0.933    6.133 
#    0.000    1.333    0.000    0.000    0.000    0.000 
#    0.000    0.000    0.000    0.000    0.000    0.000 
#
# Total GULP energy -670233.708842 kJ/mol
# GULP energy per Si atom -5585.280907 kJ/mol
# Density = 1.998928 g / cm^3
# Si number density = 20.034876 Si / 1000 Ang^3
#
#
#
# Elastic Constant Matrix: (Units=GPa)
#
#
# Indices 1 2 3 4 5 6 
#
# 1 137.5659 64.0312 12.2325 0.0000 0.0000 0.0000
# 2 64.0312 137.5656 12.2325 0.0000 0.0000 0.0000
# 3 12.2325 12.2325 21.6816 0.0000 0.0000 0.0000
# 4 0.0000 0.0000 0.0000 20.9197 0.0000 0.0000
# 5 0.0000 0.0000 0.0000 0.0000 20.9196 0.0000
# 6 0.0000 0.0000 0.0000 0.0000 0.0000 27.9845
#
#
#
# Elastic Compliance Matrix: (Units=1/GPa)
#
#
# Indices 1 2 3 4 5 6 
#
# 1 0.009462 -0.004137 -0.003004 0.000000 0.000000 0.000000
# 2 -0.004137 0.009462 -0.003004 0.000000 0.000000 0.000000
# 3 -0.003004 -0.003004 0.049512 0.000000 0.000000 0.000000
# 4 0.000000 0.000000 0.000000 0.047802 0.000000 0.000000
# 5 0.000000 0.000000 0.000000 0.000000 0.047802 0.000000
# 6 0.000000 0.000000 0.000000 0.000000 0.000000 0.035734
#
#
# Mechanical properties :
#
#
# Convention : Reuss Voigt Hill
#
# Bulk Modulus (GPa) = 20.77067 52.64505 36.70786
# Shear Modulus (GPa) = 21.17626 27.85255 24.51440
#
# Velocity S-wave (km/s) = 3.25463 3.73259 3.50177
# Velocity P-wave (km/s) = 4.95109 6.70149 5.89166
#
# Compressibility (1/GPa) = 0.04814481
#
# Stress axis : x y z
#
# Youngs Moduli (GPa) = 105.68591 105.68561 20.19712
#
# Poissons Ratio (x) = 0.43722 0.06068
# Poissons Ratio (y) = 0.43723 0.06068
# Poissons Ratio (z) = 0.31751 0.31751
#
# Static dielectric constant tensor:
#      x y z
#    x 1.711360 0.000000 0.000000 
#    y 0.000000 1.711360 0.000000 
#    z 0.000000 0.000000 1.713550 
# 
# From -- ./inp_files/2339.got.cif
#   From: 2010.05.17/outbox.cif.g08.bks.cpg/sg136_2_cif.got.tgz:2339.got - 2010.05.20 12:54:53.
