data_PCOD9569676
_publ_section_title
;
Structure prediction by ZEFSAII (Michael W. Deem and Ramdas Pophale) SiO2 
 PCOD9569676
Probable space group: P 42/M N M
;
_chemical_formula_sum "Si O2"
_cell_formula_units_Z 56
_cell_length_a 14.143016
_cell_length_b 14.143016
_cell_length_c 14.598410
_cell_angle_alpha 90.000000
_cell_angle_beta 90.000000
_cell_angle_gamma 90.000000
_cell_volume 2920.045523
_symmetry_space_group_name_H-M "P 42/M N M"
_symmetry_group_IT_number 136
_symmetry_cell_setting 'tetragonal'
loop_
_space_group_symop_operation_xyz
x,y,z
1/2-y,1/2+x,1/2+z
-x,-y,z
1/2+y,1/2-x,1/2+z
1/2+x,1/2-y,1/2-z
1/2-x,1/2+y,1/2-z
y,x,-z
-y,-x,-z
-x,-y,-z
1/2+y,1/2-x,1/2-z
x,y,-z
1/2-y,1/2+x,1/2-z
1/2-x,1/2+y,1/2+z
1/2+x,1/2-y,1/2+z
-y,-x,z
y,x,z
loop_
_atom_site_type_symbol
_atom_site_label
_atom_site_fract_x
_atom_site_fract_y
_atom_site_fract_z
Si Si1 0.882458 0.273659 0.602973
Si Si2 0.941677 0.216304 0.792765
Si Si3 0.006122 0.391192 0.891932
Si Si4 0.580757 0.419244 0.395408
O O1 0.922314 0.263984 0.500000
O O2 0.785520 0.214481 0.606153
O O3 0.946706 0.231339 0.683655
O O4 0.864436 0.383905 0.619459
O O5 0.849962 0.150039 0.810803
O O6 0.939647 0.319598 0.837746
O O7 0.030352 0.163633 0.839055
O O8 0.000000 0.500000 0.862847
O O9 0.983286 0.385921 0.000000
O O10 0.500000 0.500000 0.402858
O O11 0.607736 0.392265 0.500000
#
# Coordination Sequence:
#
# PCOD9569676 Si02
#       4
#    16  16  16   8
#     4   9  20  38  57  80 114 156 200 240 286 353
#     4  10  21  36  59  89 118 155 195 241 303 362
#     4  10  22  37  57  84 115 152 196 246 298 354
#     4   9  18  34  57  89 123 149 185 241 303 360
#
# _framework density 19.177782000000001
#
# number of rings (size 3 to 8) (size 9 to 14) (size 15 to 20)
#    0.000    2.429    0.000    0.857    6.000    1.714 
#    0.000    0.714    0.000    4.286    0.000    0.000 
#    0.000    0.000    0.000    0.000    0.000    0.000 
#
# Total GULP energy -312375.579344 kJ/mol
# GULP energy per Si atom -5578.135345 kJ/mol
# Density = 1.913413 g / cm^3
# Si number density = 19.177782 Si / 1000 Ang^3
#
#
#
# Elastic Constant Matrix: (Units=GPa)
#
#
# Indices 1 2 3 4 5 6 
#
# 1 84.0818 39.0940 64.6062 0.0000 0.0000 0.0000
# 2 39.0940 84.0819 64.6063 0.0000 0.0000 0.0000
# 3 64.6062 64.6063 147.4475 0.0000 0.0000 0.0000
# 4 0.0000 0.0000 0.0000 22.4850 0.0000 0.0000
# 5 0.0000 0.0000 0.0000 0.0000 22.4849 0.0000
# 6 0.0000 0.0000 0.0000 0.0000 0.0000 10.6568
#
#
#
# Elastic Compliance Matrix: (Units=1/GPa)
#
#
# Indices 1 2 3 4 5 6 
#
# 1 0.018626 -0.003602 -0.006583 0.000000 0.000000 0.000000
# 2 -0.003602 0.018626 -0.006583 0.000000 0.000000 0.000000
# 3 -0.006583 -0.006583 0.012551 0.000000 0.000000 0.000000
# 4 0.000000 0.000000 0.000000 0.044474 0.000000 0.000000
# 5 0.000000 0.000000 0.000000 0.000000 0.044474 0.000000
# 6 0.000000 0.000000 0.000000 0.000000 0.000000 0.093837
#
#
# Mechanical properties :
#
#
# Convention : Reuss Voigt Hill
#
# Bulk Modulus (GPa) = 61.47377 72.46933 66.97155
# Shear Modulus (GPa) = 18.41300 20.94566 19.67933
#
# Velocity S-wave (km/s) = 3.10194 3.30841 3.20684
# Velocity P-wave (km/s) = 6.70475 7.24322 6.97918
#
# Compressibility (1/GPa) = 0.01626710
#
# Stress axis : x y z
#
# Youngs Moduli (GPa) = 53.68786 53.68787 79.67502
#
# Poissons Ratio (x) = 0.19339 0.52450
# Poissons Ratio (y) = 0.19339 0.52450
# Poissons Ratio (z) = 0.35343 0.35343
#
# Static dielectric constant tensor:
#      x y z
#    x 1.670580 0.000000 0.000000 
#    y 0.000000 1.670580 0.000000 
#    z 0.000000 0.000000 1.690880 
# 
# From -- ./inp_files/3100.got.cif
#   From: 2010.05.17/outbox.cif.g08.bks.cpg/sg136_2_cif.got.tgz:3100.got - 2010.05.20 12:54:53.
