data_PCOD9569722
_publ_section_title
;
Structure prediction by ZEFSAII (Michael W. Deem and Ramdas Pophale) SiO2 
 PCOD9569722
Probable space group: P 42/M N M
;
_chemical_formula_sum "Si O2"
_cell_formula_units_Z 84
_cell_length_a 11.829572
_cell_length_b 11.829572
_cell_length_c 28.458409
_cell_angle_alpha 90.000000
_cell_angle_beta 90.000000
_cell_angle_gamma 90.000000
_cell_volume 3982.434857
_symmetry_space_group_name_H-M "P 42/M N M"
_symmetry_group_IT_number 136
_symmetry_cell_setting 'tetragonal'
loop_
_space_group_symop_operation_xyz
x,y,z
1/2-y,1/2+x,1/2+z
-x,-y,z
1/2+y,1/2-x,1/2+z
1/2+x,1/2-y,1/2-z
1/2-x,1/2+y,1/2-z
y,x,-z
-y,-x,-z
-x,-y,-z
1/2+y,1/2-x,1/2-z
x,y,-z
1/2-y,1/2+x,1/2-z
1/2-x,1/2+y,1/2+z
1/2+x,1/2-y,1/2+z
-y,-x,z
y,x,z
loop_
_atom_site_type_symbol
_atom_site_label
_atom_site_fract_x
_atom_site_fract_y
_atom_site_fract_z
Si Si1 0.277474 0.545330 0.933654
Si Si2 0.276102 0.459851 0.168495
Si Si3 0.539870 0.131409 0.651764
Si Si4 0.502604 0.311729 0.272648
Si Si5 0.536311 0.868355 0.550139
Si Si6 0.346187 0.346187 0.000000
O O1 0.393676 0.606325 0.946835
O O2 0.269893 0.535788 0.877599
O O3 0.171621 0.621821 0.948012
O O4 0.281420 0.424097 0.959043
O O5 0.394030 0.394030 0.166700
O O6 0.172698 0.373648 0.162361
O O7 0.268302 0.517235 0.219233
O O8 0.486266 0.210308 0.691160
O O9 0.512490 0.175700 0.599279
O O10 0.500000 0.000000 0.654547
O O11 0.610101 0.389900 0.285216
O O12 0.393989 0.393989 0.272946
O O13 0.500069 0.816665 0.500000
O O14 0.500000 0.000000 0.549494
#
# Coordination Sequence:
#
# PCOD9569722 Si02
#       6
#    16  16  16  16  16   4
#     4  12  22  36  58  87 123 163 204 247 305 369
#     4  11  23  39  61  92 123 162 204 255 311 373
#     4  11  23  41  62  94 125 161 208 257 314 374
#     4  10  24  45  67  90 123 170 216 262 315 373
#     4  10  21  39  59  82 122 161 202 247 299 365
#     4  12  25  36  58  92 130 168 195 256 313 378
#
# _framework density 21.092624000000001
#
# number of rings (size 3 to 8) (size 9 to 14) (size 15 to 20)
#    0.000    1.143    5.714    2.000    2.667    1.524 
#    0.000    0.000    0.000    1.714    0.000    1.333 
#    0.000    0.000    0.000    0.000    0.000    0.000 
#
# Total GULP energy -468018.804821 kJ/mol
# GULP energy per Si atom -5571.652438 kJ/mol
# Density = 2.104462 g / cm^3
# Si number density = 21.092624 Si / 1000 Ang^3
#
#
#
# Elastic Constant Matrix: (Units=GPa)
#
#
# Indices 1 2 3 4 5 6 
#
# 1 33.2172 16.9262 32.0070 0.0000 0.0000 0.0000
# 2 16.9262 33.2172 32.0070 0.0000 0.0000 0.0000
# 3 32.0070 32.0070 207.4328 0.0000 0.0000 0.0000
# 4 0.0000 0.0000 0.0000 26.6737 0.0000 0.0000
# 5 0.0000 0.0000 0.0000 0.0000 26.6737 0.0000
# 6 0.0000 0.0000 0.0000 0.0000 0.0000 8.6880
#
#
#
# Elastic Compliance Matrix: (Units=1/GPa)
#
#
# Indices 1 2 3 4 5 6 
#
# 1 0.043109 -0.018274 -0.003832 0.000000 0.000000 0.000000
# 2 -0.018274 0.043109 -0.003832 0.000000 0.000000 0.000000
# 3 -0.003832 -0.003832 0.006003 0.000000 0.000000 0.000000
# 4 0.000000 0.000000 0.000000 0.037490 0.000000 0.000000
# 5 0.000000 0.000000 0.000000 0.000000 0.037490 0.000000
# 6 0.000000 0.000000 0.000000 0.000000 0.000000 0.115101
#
#
# Mechanical properties :
#
#
# Convention : Reuss Voigt Hill
#
# Bulk Modulus (GPa) = 24.78625 48.41638 36.60132
# Shear Modulus (GPa) = 14.38317 25.26888 19.82602
#
# Velocity S-wave (km/s) = 2.61416 3.46496 3.06919
# Velocity P-wave (km/s) = 4.57039 6.24596 5.47268
#
# Compressibility (1/GPa) = 0.04034496
#
# Stress axis : x y z
#
# Youngs Moduli (GPa) = 23.19684 23.19684 166.57216
#
# Poissons Ratio (x) = 0.42391 0.63831
# Poissons Ratio (y) = 0.42391 0.63831
# Poissons Ratio (z) = 0.08889 0.08889
#
# Static dielectric constant tensor:
#      x y z
#    x 1.798940 0.000000 0.000000 
#    y 0.000000 1.798940 0.000000 
#    z 0.000000 0.000000 1.798680 
# 
# From -- ./inp_files/9722.got.cif
#   From: 2010.05.17/outbox.cif.g08.bks.cpg/sg136_5_cif.got.tgz:9722.got - 2010.05.20 12:54:53.
