data_PCOD9569361
_publ_section_title
;
Structure prediction by ZEFSAII (Michael W. Deem and Ramdas Pophale) SiO2 
 PCOD9569361
Probable space group: P 42/M N M
;
_chemical_formula_sum "Si O2"
_cell_formula_units_Z 116
_cell_length_a 26.450830
_cell_length_b 26.450830
_cell_length_c 7.388399
_cell_angle_alpha 90.000000
_cell_angle_beta 90.000000
_cell_angle_gamma 90.000000
_cell_volume 5169.266819
_symmetry_space_group_name_H-M "P 42/M N M"
_symmetry_group_IT_number 136
_symmetry_cell_setting 'tetragonal'
loop_
_space_group_symop_operation_xyz
x,y,z
1/2-y,1/2+x,1/2+z
-x,-y,z
1/2+y,1/2-x,1/2+z
1/2+x,1/2-y,1/2-z
1/2-x,1/2+y,1/2-z
y,x,-z
-y,-x,-z
-x,-y,-z
1/2+y,1/2-x,1/2-z
x,y,-z
1/2-y,1/2+x,1/2-z
1/2-x,1/2+y,1/2+z
1/2+x,1/2-y,1/2+z
-y,-x,z
y,x,z
loop_
_atom_site_type_symbol
_atom_site_label
_atom_site_fract_x
_atom_site_fract_y
_atom_site_fract_z
Si Si1 0.380083 0.296566 0.206920
Si Si2 0.945734 0.054267 0.000000
Si Si3 0.861758 0.024138 0.278717
Si Si4 0.892250 0.606204 0.289456
Si Si5 0.653255 0.997164 0.719039
Si Si6 0.236506 0.034131 0.709496
Si Si7 0.270567 0.651388 0.280752
Si Si8 0.828732 0.298747 0.295015
O O1 0.329598 0.329598 0.207982
O O2 0.423795 0.332796 0.276502
O O3 0.364739 0.243406 0.291856
O O4 0.396742 0.286183 0.000000
O O5 0.975245 0.087810 0.839804
O O6 0.870793 0.023673 0.500000
O O7 0.818823 0.983229 0.225983
O O8 0.890616 0.620558 0.500000
O O9 0.948131 0.620787 0.224051
O O10 0.874714 0.548438 0.273313
O O11 0.850398 0.640484 0.196256
O O12 0.655083 0.997720 0.500000
O O13 0.711533 0.990340 0.784718
O O14 0.236361 0.018910 0.500000
O O15 0.239420 0.094440 0.722034
O O16 0.268455 0.651030 0.500000
O O17 0.323603 0.676398 0.226344
O O18 0.225248 0.687436 0.214609
O O19 0.818581 0.280133 0.500000
#
# Coordination Sequence:
#
# PCOD9569361 Si02
#       8
#    16   4  16  16  16  16  16  16
#     4   9  16  31  52  74 111 154 192 234 289 362
#     4  12  22  36  60  90 129 158 206 256 316 362
#     4  10  21  37  58  87 123 166 205 251 305 373
#     4  11  23  38  57  83 111 149 200 260 309 355
#     4  10  22  41  60  80 116 157 204 255 312 369
#     4  10  21  40  63  84 118 164 206 248 305 368
#     4  10  21  36  58  90 123 154 197 248 295 361
#     4  10  19  34  56  80 113 158 198 236 302 364
#
# _framework density 22.44032
#
# number of rings (size 3 to 8) (size 9 to 14) (size 15 to 20)
#    0.000    1.931    2.069    1.862    0.966    6.069 
#    3.724    1.379    0.000    0.828    0.000    0.966 
#    0.000    2.207    0.000    0.000    0.000    0.000 
#
# Total GULP energy -646295.984944 kJ/mol
# GULP energy per Si atom -5571.517112 kJ/mol
# Density = 2.238924 g / cm^3
# Si number density = 22.440320 Si / 1000 Ang^3
#
#
#
# Elastic Constant Matrix: (Units=GPa)
#
#
# Indices 1 2 3 4 5 6 
#
# 1 -178.8048 230.6725 -4.2529 0.0000 0.0000 0.0000
# 2 230.6725 -178.8007 -4.2582 0.0000 0.0000 0.0000
# 3 -4.2529 -4.2582 93.8739 0.0000 0.0000 0.0000
# 4 0.0000 0.0000 0.0000 -0.0428 0.0000 0.0000
# 5 0.0000 0.0000 0.0000 0.0000 -0.0412 0.0000
# 6 0.0000 0.0000 0.0000 0.0000 0.0000 36.6238
#
#
#
# Elastic Compliance Matrix: (Units=1/GPa)
#
#
# Indices 1 2 3 4 5 6 
#
# 1 0.008491 0.010933 0.000881 0.000000 0.000000 0.000000
# 2 0.010933 0.008491 0.000880 0.000000 0.000000 0.000000
# 3 0.000881 0.000880 0.010732 0.000000 0.000000 0.000000
# 4 0.000000 0.000000 0.000000-23.368110 0.000000 0.000000
# 5 0.000000 0.000000 0.000000 0.000000-24.262763 0.000000
# 6 0.000000 0.000000 0.000000 0.000000 0.000000 0.027305
#
#
# Mechanical properties :
#
#
# Convention : Reuss Voigt Hill
#
# Bulk Modulus (GPa) = 18.83182 20.06567 19.44875
# Shear Modulus (GPa) = -0.10508 -25.08490 -12.59499
#
# Velocity S-wave (km/s) = -0.21663 -3.34705 -2.37168
# Velocity P-wave (km/s) = 2.88922 2.44455 1.08899
#
# Compressibility (1/GPa) = 0.05310161
#
# Stress axis : x y z
#
# Youngs Moduli (GPa) = 117.77720 117.77482 93.17557
#
# Poissons Ratio (x) = -1.28761 -0.08205
# Poissons Ratio (y) = -1.28764 -0.08204
# Poissons Ratio (z) = -0.10371 -0.10370
#
# Static dielectric constant tensor:
#      x y z
#    x 1.845970 0.000000 0.000000 
#    y 0.000000 1.845970 0.000000 
#    z 0.000000 0.000000 1.076310 
# 
# From -- ./inp_files/2335.got.cif
#   From: 2010.05.17/outbox.cif.g08.bks.cpg/sg136_2_cif.got.tgz:2335.got - 2010.05.20 12:54:53.
