data_PCOD9569776
_publ_section_title
;
Structure prediction by ZEFSAII (Michael W. Deem and Ramdas Pophale) SiO2 
 PCOD9569776
Probable space group: P 42/M N M
;
_chemical_formula_sum "Si O2"
_cell_formula_units_Z 56
_cell_length_a 14.053788
_cell_length_b 14.053788
_cell_length_c 13.233669
_cell_angle_alpha 90.000000
_cell_angle_beta 90.000000
_cell_angle_gamma 90.000000
_cell_volume 2613.768163
_symmetry_space_group_name_H-M "P 42/M N M"
_symmetry_group_IT_number 136
_symmetry_cell_setting 'tetragonal'
loop_
_space_group_symop_operation_xyz
x,y,z
1/2-y,1/2+x,1/2+z
-x,-y,z
1/2+y,1/2-x,1/2+z
1/2+x,1/2-y,1/2-z
1/2-x,1/2+y,1/2-z
y,x,-z
-y,-x,-z
-x,-y,-z
1/2+y,1/2-x,1/2-z
x,y,-z
1/2-y,1/2+x,1/2-z
1/2-x,1/2+y,1/2+z
1/2+x,1/2-y,1/2+z
-y,-x,z
y,x,z
loop_
_atom_site_type_symbol
_atom_site_label
_atom_site_fract_x
_atom_site_fract_y
_atom_site_fract_z
Si Si1 0.077920 0.077920 0.610525
Si Si2 0.042292 0.802812 0.000000
Si Si3 0.561006 0.095550 0.500000
Si Si4 0.785213 0.984639 0.217348
Si Si5 0.846335 0.308223 0.681343
O O1 0.112646 0.112646 0.500000
O O2 0.025965 0.152982 0.682631
O O3 0.000000 0.000000 0.592925
O O4 0.996522 0.834075 0.107585
O O5 0.009750 0.689219 0.000000
O O6 0.148582 0.851419 0.000000
O O7 0.633730 0.100664 0.406276
O O8 0.500000 0.000000 0.500000
O O9 0.723313 0.079305 0.233840
O O10 0.726148 0.888013 0.218590
O O11 0.783020 0.216981 0.648464
#
# Coordination Sequence:
#
# PCOD9569776 Si02
#       5
#     8   8   8  16  16
#     4  11  24  45  69 105 145 191 239 290 360 437
#     4  10  22  44  72 103 138 181 241 306 358 423
#     4  10  25  43  72 106 139 194 248 295 370 451
#     4  11  25  44  71 103 143 189 244 297 368 434
#     4  11  24  45  69 101 145 192 235 302 370 435
#
# _framework density 21.425007000000001
#
# number of rings (size 3 to 8) (size 9 to 14) (size 15 to 20)
#    0.000    1.286    1.429    3.000   10.000    0.571 
#    2.571    1.429    0.000    0.000    0.000    0.000 
#    0.000    0.000    0.000    0.000    0.000    0.000 
#
# Total GULP energy -311963.857809 kJ/mol
# GULP energy per Si atom -5570.783175 kJ/mol
# Density = 2.137624 g / cm^3
# Si number density = 21.425007 Si / 1000 Ang^3
#
#
#
# Elastic Constant Matrix: (Units=GPa)
#
#
# Indices 1 2 3 4 5 6 
#
# 1 71.4918 48.5007 42.5268 0.0000 0.0000 0.0000
# 2 48.5007 71.4940 42.5273 0.0000 0.0000 0.0000
# 3 42.5268 42.5273 176.2342 0.0000 0.0000 0.0000
# 4 0.0000 0.0000 0.0000 91.8630 0.0000 0.0000
# 5 0.0000 0.0000 0.0000 0.0000 91.8572 0.0000
# 6 0.0000 0.0000 0.0000 0.0000 0.0000 49.5248
#
#
#
# Elastic Compliance Matrix: (Units=1/GPa)
#
#
# Indices 1 2 3 4 5 6 
#
# 1 0.026774 -0.016720 -0.002426 0.000000 0.000000 0.000000
# 2 -0.016720 0.026773 -0.002426 0.000000 0.000000 0.000000
# 3 -0.002426 -0.002426 0.006845 0.000000 0.000000 0.000000
# 4 0.000000 0.000000 0.000000 0.010886 0.000000 0.000000
# 5 0.000000 0.000000 0.000000 0.000000 0.010886 0.000000
# 6 0.000000 0.000000 0.000000 0.000000 0.000000 0.020192
#
#
# Mechanical properties :
#
#
# Convention : Reuss Voigt Hill
#
# Bulk Modulus (GPa) = 57.97801 65.14773 61.56287
# Shear Modulus (GPa) = 33.05817 59.02668 46.04243
#
# Velocity S-wave (km/s) = 3.93233 5.25454 4.64076
# Velocity P-wave (km/s) = 6.90922 8.20286 7.58367
#
# Compressibility (1/GPa) = 0.01724792
#
# Stress axis : x y z
#
# Youngs Moduli (GPa) = 37.35018 37.35136 146.09002
#
# Poissons Ratio (x) = 0.62451 0.35442
# Poissons Ratio (y) = 0.62449 0.35441
# Poissons Ratio (z) = 0.09061 0.09061
#
# Static dielectric constant tensor:
#      x y z
#    x 1.875540 0.000000 0.000000 
#    y 0.000000 1.875550 0.000000 
#    z 0.000000 0.000000 1.947200 
# 
# From -- ./inp_files/3144.got.cif
#   From: 2010.05.17/outbox.cif.g08.bks.cpg/sg136_2_cif.got.tgz:3144.got - 2010.05.20 12:54:53.
