data_PCOD9569972
_publ_section_title
;
Structure prediction by ZEFSAII (Michael W. Deem and Ramdas Pophale) SiO2 
 PCOD9569972
Probable space group: P 42/N M C
;
_chemical_formula_sum "Si O2"
_cell_formula_units_Z 96
_cell_length_a 14.089996
_cell_length_b 14.089996
_cell_length_c 28.243421
_cell_angle_alpha 90.000000
_cell_angle_beta 90.000000
_cell_angle_gamma 90.000000
_cell_volume 5607.109525
_symmetry_space_group_name_H-M "P 42/N M C"
_symmetry_group_IT_number 137
_space_group.IT_coordinate_system_code '2'
_symmetry_cell_setting 'tetragonal'
loop_
_space_group_symop_operation_xyz
x,y,z
1/2-y,x,1/2+z
1/2-x,1/2-y,z
y,1/2-x,1/2+z
1/2+x,-y,-z
-x,1/2+y,-z
1/2+y,1/2+x,1/2-z
-y,-x,1/2-z
-x,-y,-z
1/2+y,-x,1/2-z
1/2+x,1/2+y,-z
-y,1/2+x,1/2-z
1/2-x,y,z
x,1/2-y,z
1/2-y,1/2-x,1/2+z
y,x,1/2+z
loop_
_atom_site_type_symbol
_atom_site_label
_atom_site_fract_x
_atom_site_fract_y
_atom_site_fract_z
Si Si1 0.521007 0.138050 0.543835
Si Si2 0.364816 0.142622 0.402830
Si Si3 0.964448 0.139646 0.654666
Si Si4 0.537869 0.864329 0.192644
Si Si5 0.137276 0.476614 0.497305
Si Si6 0.135253 0.142849 0.211694
O O1 0.512173 0.250000 0.533161
O O2 0.551811 0.129363 0.598677
O O3 0.422036 0.082482 0.535813
O O4 0.595333 0.081718 0.510725
O O5 0.250000 0.146665 0.400337
O O6 0.399941 0.250000 0.408709
O O7 0.396875 0.096539 0.353635
O O8 0.385918 0.078196 0.448050
O O9 0.948313 0.250000 0.667415
O O10 0.073242 0.115577 0.668022
O O11 0.900859 0.068258 0.684770
O O12 0.537140 0.750000 0.193199
O O13 0.589630 0.896902 0.240455
O O14 0.250000 0.476127 0.504823
O O15 0.250000 0.149155 0.214937
O O16 0.098656 0.250000 0.207853
#
# Coordination Sequence:
#
# PCOD9569972 Si02
#       6
#    16  16  16  16  16  16
#     4  10  21  35  52  76 106 139 176 216 264 322
#     4   9  16  27  46  71  97 126 163 208 256 300
#     4  10  20  33  49  73 105 138 167 202 252 313
#     4  10  18  30  48  73 103 134 168 205 247 303
#     4  10  20  35  53  75 102 135 177 221 264 314
#     4   9  18  32  49  69  96 131 169 207 244 285
#
# _framework density 17.121120000000001
#
# number of rings (size 3 to 8) (size 9 to 14) (size 15 to 20)
#    0.000    2.333    1.667    1.500    0.000    4.333 
#    0.000    3.333    0.000    3.000    0.000    0.000 
#    0.000   11.333    0.000    0.000    0.000    0.000 
#
# Total GULP energy -534946.155838 kJ/mol
# GULP energy per Si atom -5572.355790 kJ/mol
# Density = 1.708215 g / cm^3
# Si number density = 17.121120 Si / 1000 Ang^3
#
#
#
# Elastic Constant Matrix: (Units=GPa)
#
#
# Indices 1 2 3 4 5 6 
#
# 1 62.8747 19.2318 -5.1236 0.0000 0.0000 0.0000
# 2 19.2318 62.8747 -5.1236 0.0000 0.0000 0.0000
# 3 -5.1236 -5.1236 11.5754 0.0000 0.0000 0.0000
# 4 0.0000 0.0000 0.0000 20.7825 0.0000 0.0000
# 5 0.0000 0.0000 0.0000 0.0000 20.7825 0.0000
# 6 0.0000 0.0000 0.0000 0.0000 0.0000 17.3002
#
#
#
# Elastic Compliance Matrix: (Units=1/GPa)
#
#
# Indices 1 2 3 4 5 6 
#
# 1 0.017902 -0.005011 0.005706 0.000000 0.000000 0.000000
# 2 -0.005011 0.017902 0.005706 0.000000 0.000000 0.000000
# 3 0.005706 0.005706 0.091441 0.000000 0.000000 0.000000
# 4 0.000000 0.000000 0.000000 0.048117 0.000000 0.000000
# 5 0.000000 0.000000 0.000000 0.000000 0.048117 0.000000
# 6 0.000000 0.000000 0.000000 0.000000 0.000000 0.057803
#
#
# Mechanical properties :
#
#
# Convention : Reuss Voigt Hill
#
# Bulk Modulus (GPa) = 7.14037 17.25488 12.19762
# Shear Modulus (GPa) = 15.86476 20.32906 18.09691
#
# Velocity S-wave (km/s) = 3.04734 3.44956 3.25467
# Velocity P-wave (km/s) = 4.06956 5.09568 4.61125
#
# Compressibility (1/GPa) = 0.14004885
#
# Stress axis : x y z
#
# Youngs Moduli (GPa) = 55.85863 55.85863 10.93596
#
# Poissons Ratio (x) = 0.27990 -0.06240
# Poissons Ratio (y) = 0.27990 -0.06240
# Poissons Ratio (z) = -0.31874 -0.31874
#
# Static dielectric constant tensor:
#      x y z
#    x 1.586370 0.000000 0.000000 
#    y 0.000000 1.586370 0.000000 
#    z 0.000000 0.000000 1.589870 
# 
# From -- ./inp_files/10603.got.cif
#   From: 2010.05.17/outbox.cif.g08.bks.cpg/sg137_6_cif.got.tgz:10603.got - 2010.05.20 13:01:12.
