data_PCOD9569111
_publ_section_title
;
Structure prediction by ZEFSAII (Michael W. Deem and Ramdas Pophale) SiO2 
 PCOD9569111
Probable space group: P 42/M N M
;
_chemical_formula_sum "Si O2"
_cell_formula_units_Z 68
_cell_length_a 18.509009
_cell_length_b 18.509009
_cell_length_c 12.265671
_cell_angle_alpha 90.000000
_cell_angle_beta 90.000000
_cell_angle_gamma 90.000000
_cell_volume 4202.015448
_symmetry_space_group_name_H-M "P 42/M N M"
_symmetry_group_IT_number 136
_symmetry_cell_setting 'tetragonal'
loop_
_space_group_symop_operation_xyz
x,y,z
1/2-y,1/2+x,1/2+z
-x,-y,z
1/2+y,1/2-x,1/2+z
1/2+x,1/2-y,1/2-z
1/2-x,1/2+y,1/2-z
y,x,-z
-y,-x,-z
-x,-y,-z
1/2+y,1/2-x,1/2-z
x,y,-z
1/2-y,1/2+x,1/2-z
1/2-x,1/2+y,1/2+z
1/2+x,1/2-y,1/2+z
-y,-x,z
y,x,z
loop_
_atom_site_type_symbol
_atom_site_label
_atom_site_fract_x
_atom_site_fract_y
_atom_site_fract_z
Si Si1 0.263604 0.612886 0.281727
Si Si2 0.578400 0.578400 0.500000
Si Si3 0.301853 0.490716 0.129335
Si Si4 0.177646 0.061281 0.000000
Si Si5 0.843426 0.278358 0.627671
Si Si6 0.560616 0.560616 0.736632
O O1 0.328655 0.671346 0.275886
O O2 0.267479 0.563349 0.176155
O O3 0.277984 0.562074 0.387838
O O4 0.190847 0.657866 0.301678
O O5 0.498402 0.614689 0.500000
O O6 0.595660 0.595660 0.627433
O O7 0.248826 0.423400 0.152455
O O8 0.376939 0.476563 0.192445
O O9 0.314793 0.492831 0.000000
O O10 0.138786 0.138786 0.000000
O O11 0.839496 0.299838 0.500000
O O12 0.790738 0.209263 0.639689
O O13 0.500000 0.500000 0.704911
#
# Coordination Sequence:
#
# PCOD9569111 Si02
#       6
#    16   4  16   8  16   8
#     4  10  19  32  54  76 101 138 181 220 261 312
#     4  12  21  30  48  76 114 142 176 216 258 309
#     4  11  22  34  51  77 110 144 174 212 271 330
#     4  10  17  28  46  74  98 132 172 217 257 293
#     4   9  17  33  55  76 100 136 187 227 252 308
#     4  12  22  32  49  77 114 148 176 211 258 322
#
# _framework density 16.18271
#
# number of rings (size 3 to 8) (size 9 to 14) (size 15 to 20)
#    0.000    1.647    4.706    2.118    0.000    2.353 
#    0.000    0.000    5.176    0.706    0.000    3.294 
#    0.000    0.000    0.000    0.000    0.000    0.000 
#
# Total GULP energy -378625.763850 kJ/mol
# GULP energy per Si atom -5568.025939 kJ/mol
# Density = 1.614588 g / cm^3
# Si number density = 16.182710 Si / 1000 Ang^3
#
#
#
# Elastic Constant Matrix: (Units=GPa)
#
#
# Indices 1 2 3 4 5 6 
#
# 1 57.1304 27.7887 26.7368 0.0000 0.0000 0.0000
# 2 27.7887 57.1304 26.7368 0.0000 0.0000 0.0000
# 3 26.7368 26.7368 80.1409 0.0000 0.0000 0.0000
# 4 0.0000 0.0000 0.0000 17.3149 0.0000 0.0000
# 5 0.0000 0.0000 0.0000 0.0000 17.3149 0.0000
# 6 0.0000 0.0000 0.0000 0.0000 0.0000 15.0048
#
#
#
# Elastic Compliance Matrix: (Units=1/GPa)
#
#
# Indices 1 2 3 4 5 6 
#
# 1 0.024494 -0.009587 -0.004974 0.000000 0.000000 0.000000
# 2 -0.009587 0.024494 -0.004974 0.000000 0.000000 0.000000
# 3 -0.004974 -0.004974 0.015797 0.000000 0.000000 0.000000
# 4 0.000000 0.000000 0.000000 0.057754 0.000000 0.000000
# 5 0.000000 0.000000 0.000000 0.000000 0.057754 0.000000
# 6 0.000000 0.000000 0.000000 0.000000 0.000000 0.066645
#
#
# Mechanical properties :
#
#
# Convention : Reuss Voigt Hill
#
# Bulk Modulus (GPa) = 38.88343 39.65846 39.27095
# Shear Modulus (GPa) = 16.97340 17.46956 17.22148
#
# Velocity S-wave (km/s) = 3.24212 3.28917 3.26573
# Velocity P-wave (km/s) = 6.17212 6.24378 6.20805
#
# Compressibility (1/GPa) = 0.02571789
#
# Stress axis : x y z
#
# Youngs Moduli (GPa) = 40.82557 40.82557 63.30475
#
# Poissons Ratio (x) = 0.39138 0.31485
# Poissons Ratio (y) = 0.39138 0.31485
# Poissons Ratio (z) = 0.20305 0.20305
#
# Static dielectric constant tensor:
#      x y z
#    x 1.537890 0.000000 0.000000 
#    y 0.000000 1.537890 0.000000 
#    z 0.000000 0.000000 1.573270 
# 
# From -- ./inp_files/3494.got.cif
#   From: 2010.05.17/outbox.cif.g08.bks.cpg/sg136_2_cif.got.tgz:3494.got - 2010.05.20 12:54:53.
