data_PCOD9569590
_publ_section_title
;
Structure prediction by ZEFSAII (Michael W. Deem and Ramdas Pophale) SiO2 
 PCOD9569590
Probable space group: P 42/M N M
;
_chemical_formula_sum "Si O2"
_cell_formula_units_Z 72
_cell_length_a 20.081045
_cell_length_b 20.081045
_cell_length_c 7.402431
_cell_angle_alpha 90.000000
_cell_angle_beta 90.000000
_cell_angle_gamma 90.000000
_cell_volume 2985.018222
_symmetry_space_group_name_H-M "P 42/M N M"
_symmetry_group_IT_number 136
_symmetry_cell_setting 'tetragonal'
loop_
_space_group_symop_operation_xyz
x,y,z
1/2-y,1/2+x,1/2+z
-x,-y,z
1/2+y,1/2-x,1/2+z
1/2+x,1/2-y,1/2-z
1/2-x,1/2+y,1/2-z
y,x,-z
-y,-x,-z
-x,-y,-z
1/2+y,1/2-x,1/2-z
x,y,-z
1/2-y,1/2+x,1/2-z
1/2-x,1/2+y,1/2+z
1/2+x,1/2-y,1/2+z
-y,-x,z
y,x,z
loop_
_atom_site_type_symbol
_atom_site_label
_atom_site_fract_x
_atom_site_fract_y
_atom_site_fract_z
Si Si1 0.419363 0.788589 0.719970
Si Si2 0.691549 0.308452 0.294382
Si Si3 0.300341 0.300341 0.282113
Si Si4 0.003757 0.108293 0.500000
Si Si5 0.429950 0.078615 0.203160
Si Si6 0.211951 0.954078 0.216419
O O1 0.414043 0.790953 0.500000
O O2 0.372504 0.728690 0.785753
O O3 0.394663 0.860967 0.783568
O O4 0.496237 0.772567 0.761976
O O5 0.672894 0.327107 0.500000
O O6 0.748361 0.251640 0.296536
O O7 0.296022 0.296022 0.500000
O O8 0.283498 0.376688 0.230551
O O9 0.951413 0.048587 0.500000
O O10 0.986730 0.151256 0.676069
O O11 0.076802 0.076802 0.500000
O O12 0.498878 0.084010 0.305927
O O13 0.439904 0.103328 0.000000
O O14 0.202129 0.956245 0.000000
#
# Coordination Sequence:
#
# PCOD9569590 Si02
#       6
#    16   8   8   8  16  16
#     4   9  21  40  61  88 121 163 208 251 315 381
#     4  10  22  40  64  89 122 163 204 260 320 377
#     4  10  22  40  64  93 121 164 211 257 319 378
#     4  11  24  40  62  98 128 157 212 262 310 376
#     4  10  20  37  58  84 116 153 202 254 306 369
#     4  10  22  43  66  89 127 170 211 260 315 375
#
# _framework density 24.120456000000001
#
# number of rings (size 3 to 8) (size 9 to 14) (size 15 to 20)
#    0.000    2.111    1.111    1.333    6.222    0.444 
#    6.000    1.111    0.000    0.000    0.000    0.000 
#    0.000    0.000    0.000    0.000    0.000    0.000 
#
# Total GULP energy -402412.129952 kJ/mol
# GULP energy per Si atom -5589.057360 kJ/mol
# Density = 2.406556 g / cm^3
# Si number density = 24.120456 Si / 1000 Ang^3
#
#
#
# Elastic Constant Matrix: (Units=GPa)
#
#
# Indices 1 2 3 4 5 6 
#
# 1 86.1079 16.7243 3.8829 0.0000 0.0000 0.0000
# 2 16.7243 86.1069 3.8826 0.0000 0.0000 0.0000
# 3 3.8829 3.8826 91.3722 0.0000 0.0000 0.0000
# 4 0.0000 0.0000 0.0000 7.3358 0.0000 0.0000
# 5 0.0000 0.0000 0.0000 0.0000 7.3339 0.0000
# 6 0.0000 0.0000 0.0000 0.0000 0.0000 36.6324
#
#
#
# Elastic Compliance Matrix: (Units=1/GPa)
#
#
# Indices 1 2 3 4 5 6 
#
# 1 0.012084 -0.002328 -0.000415 0.000000 0.000000 0.000000
# 2 -0.002328 0.012084 -0.000415 0.000000 0.000000 0.000000
# 3 -0.000415 -0.000415 0.010979 0.000000 0.000000 0.000000
# 4 0.000000 0.000000 0.000000 0.136317 0.000000 0.000000
# 5 0.000000 0.000000 0.000000 0.000000 0.136354 0.000000
# 6 0.000000 0.000000 0.000000 0.000000 0.000000 0.027298
#
#
# Mechanical properties :
#
#
# Convention : Reuss Voigt Hill
#
# Bulk Modulus (GPa) = 34.68236 34.72960 34.70598
# Shear Modulus (GPa) = 14.24325 26.20024 20.22175
#
# Velocity S-wave (km/s) = 2.43267 3.29937 2.89859
# Velocity P-wave (km/s) = 4.72234 5.37997 5.06185
#
# Compressibility (1/GPa) = 0.02883310
#
# Stress axis : x y z
#
# Youngs Moduli (GPa) = 82.75228 82.75137 91.07898
#
# Poissons Ratio (x) = 0.19268 0.03776
# Poissons Ratio (y) = 0.19268 0.03776
# Poissons Ratio (z) = 0.03431 0.03430
#
# Static dielectric constant tensor:
#      x y z
#    x 1.938410 0.000000 0.000000 
#    y 0.000000 1.938410 0.000000 
#    z 0.000000 0.000000 1.846310 
# 
# From -- ./inp_files/1618.got.cif
#   From: 2010.05.17/outbox.cif.g08.bks.cpg/sg136_1_cif.got.tgz:1618.got - 2010.05.20 12:54:53.
