data_PCOD9569165
_publ_section_title
;
Structure prediction by ZEFSAII (Michael W. Deem and Ramdas Pophale) SiO2 
 PCOD9569165
Probable space group: P 42/M N M
;
_chemical_formula_sum "Si O2"
_cell_formula_units_Z 112
_cell_length_a 13.824622
_cell_length_b 13.824622
_cell_length_c 29.949876
_cell_angle_alpha 90.000000
_cell_angle_beta 90.000000
_cell_angle_gamma 90.000000
_cell_volume 5724.025496
_symmetry_space_group_name_H-M "P 42/M N M"
_symmetry_group_IT_number 136
_symmetry_cell_setting 'tetragonal'
loop_
_space_group_symop_operation_xyz
x,y,z
1/2-y,1/2+x,1/2+z
-x,-y,z
1/2+y,1/2-x,1/2+z
1/2+x,1/2-y,1/2-z
1/2-x,1/2+y,1/2-z
y,x,-z
-y,-x,-z
-x,-y,-z
1/2+y,1/2-x,1/2-z
x,y,-z
1/2-y,1/2+x,1/2-z
1/2-x,1/2+y,1/2+z
1/2+x,1/2-y,1/2+z
-y,-x,z
y,x,z
loop_
_atom_site_type_symbol
_atom_site_label
_atom_site_fract_x
_atom_site_fract_y
_atom_site_fract_z
Si Si1 0.917810 0.917810 0.191320
Si Si2 0.421854 0.141906 0.699055
Si Si3 0.081447 0.641953 0.701903
Si Si4 0.592651 0.243679 0.551862
Si Si5 0.083713 0.083713 0.292752
Si Si6 0.290546 0.450057 0.629363
Si Si7 0.918436 0.248185 0.549552
Si Si8 0.698553 0.539089 0.858369
O O1 0.889884 0.889884 0.241939
O O2 0.968621 0.834319 0.162840
O O3 0.000000 0.000000 0.195780
O O4 0.398391 0.181698 0.748432
O O5 0.538281 0.130646 0.697016
O O6 0.394312 0.209666 0.658196
O O7 0.381108 0.033294 0.697619
O O8 0.104546 0.718278 0.663833
O O9 0.562017 0.250333 0.500000
O O10 0.667214 0.332787 0.560106
O O11 0.505482 0.249883 0.586494
O O12 0.655525 0.145740 0.556390
O O13 0.040939 0.171055 0.321935
O O14 0.000000 0.000000 0.290258
O O15 0.377372 0.377372 0.617491
O O16 0.962592 0.250467 0.500000
O O17 0.838883 0.161118 0.549455
O O18 0.987509 0.231509 0.591832
O O19 0.602320 0.602320 0.863373
#
# Coordination Sequence:
#
# PCOD9569165 Si02
#       8
#     8  16  16  16   8  16  16  16
#     4   9  18  30  43  63 101 139 162 193 239 289
#     4   9  19  34  51  70  97 131 168 207 251 296
#     4   9  18  35  53  69  94 131 169 209 251 297
#     4   9  17  30  48  72 102 134 170 209 251 299
#     4   9  18  30  43  67 101 133 158 197 252 302
#     4  11  20  31  48  73 103 136 169 203 249 301
#     4   8  15  28  47  72  99 124 158 210 256 290
#     4  10  18  30  51  74  98 129 165 204 254 307
#
# _framework density 19.566648000000001
#
# number of rings (size 3 to 8) (size 9 to 14) (size 15 to 20)
#    0.000    2.714    0.714    3.429    0.000    2.000 
#    2.571    1.071    0.000    3.000    0.000    4.000 
#    0.000    0.000    0.000    0.000    0.000    0.000 
#
# Total GULP energy -624306.725585 kJ/mol
# GULP energy per Si atom -5574.167193 kJ/mol
# Density = 1.952211 g / cm^3
# Si number density = 19.566648 Si / 1000 Ang^3
#
#
#
# Elastic Constant Matrix: (Units=GPa)
#
#
# Indices 1 2 3 4 5 6 
#
# 1 23.2749 -7.5611 9.5371 0.0000 0.0000 0.0000
# 2 -7.5611 23.2749 9.5371 0.0000 0.0000 0.0000
# 3 9.5371 9.5371 113.4165 0.0000 0.0000 0.0000
# 4 0.0000 0.0000 0.0000 19.4029 0.0000 0.0000
# 5 0.0000 0.0000 0.0000 0.0000 19.4029 0.0000
# 6 0.0000 0.0000 0.0000 0.0000 0.0000 2.2275
#
#
#
# Elastic Compliance Matrix: (Units=1/GPa)
#
#
# Indices 1 2 3 4 5 6 
#
# 1 0.051651 0.019221 -0.005960 0.000000 0.000000 0.000000
# 2 0.019221 0.051651 -0.005960 0.000000 0.000000 0.000000
# 3 -0.005960 -0.005960 0.009819 0.000000 0.000000 0.000000
# 4 0.000000 0.000000 0.000000 0.051539 0.000000 0.000000
# 5 0.000000 0.000000 0.000000 0.000000 0.051539 0.000000
# 6 0.000000 0.000000 0.000000 0.000000 0.000000 0.448939
#
#
# Mechanical properties :
#
#
# Convention : Reuss Voigt Hill
#
# Bulk Modulus (GPa) = 7.82926 20.33251 14.08089
# Shear Modulus (GPa) = 7.21388 18.10354 12.65871
#
# Velocity S-wave (km/s) = 1.92219 3.04505 2.54629
# Velocity P-wave (km/s) = 2.98939 4.77253 3.98206
#
# Compressibility (1/GPa) = 0.12772591
#
# Stress axis : x y z
#
# Youngs Moduli (GPa) = 19.36068 19.36068 101.83977
#
# Poissons Ratio (x) = -0.37214 0.60693
# Poissons Ratio (y) = -0.37214 0.60693
# Poissons Ratio (z) = 0.11538 0.11538
#
# Static dielectric constant tensor:
#      x y z
#    x 1.700460 0.000000 0.000000 
#    y 0.000000 1.700460 0.000000 
#    z 0.000000 0.000000 1.710300 
# 
# From -- ./inp_files/9244.got.cif
#   From: 2010.05.17/outbox.cif.g08.bks.cpg/sg136_5_cif.got.tgz:9244.got - 2010.05.20 12:54:53.
