data_PCOD9569224
_publ_section_title
;
Structure prediction by ZEFSAII (Michael W. Deem and Ramdas Pophale) SiO2 
 PCOD9569224
Probable space group: P 42/M N M
;
_chemical_formula_sum "Si O2"
_cell_formula_units_Z 80
_cell_length_a 16.076830
_cell_length_b 16.076830
_cell_length_c 13.438243
_cell_angle_alpha 90.000000
_cell_angle_beta 90.000000
_cell_angle_gamma 90.000000
_cell_volume 3473.308259
_symmetry_space_group_name_H-M "P 42/M N M"
_symmetry_group_IT_number 136
_symmetry_cell_setting 'tetragonal'
loop_
_space_group_symop_operation_xyz
x,y,z
1/2-y,1/2+x,1/2+z
-x,-y,z
1/2+y,1/2-x,1/2+z
1/2+x,1/2-y,1/2-z
1/2-x,1/2+y,1/2-z
y,x,-z
-y,-x,-z
-x,-y,-z
1/2+y,1/2-x,1/2-z
x,y,-z
1/2-y,1/2+x,1/2-z
1/2-x,1/2+y,1/2+z
1/2+x,1/2-y,1/2+z
-y,-x,z
y,x,z
loop_
_atom_site_type_symbol
_atom_site_label
_atom_site_fract_x
_atom_site_fract_y
_atom_site_fract_z
Si Si1 0.746473 0.618035 0.826030
Si Si2 0.730540 0.904261 0.182585
Si Si3 0.314955 0.445122 0.388150
Si Si4 0.407042 0.975430 0.886288
Si Si5 0.720494 0.932466 0.607913
O O1 0.660898 0.660898 0.860537
O O2 0.819116 0.685434 0.845470
O O3 0.730987 0.597577 0.707498
O O4 0.770500 0.532269 0.879165
O O5 0.761980 0.895515 0.294686
O O6 0.799833 0.956006 0.122713
O O7 0.654830 0.971597 0.180265
O O8 0.283632 0.421845 0.500000
O O9 0.407933 0.407933 0.382802
O O10 0.404815 0.876083 0.885453
O O11 0.500000 0.000000 0.861443
O O12 0.390885 0.003552 0.000000
O O13 0.752320 0.907932 0.500000
#
# Coordination Sequence:
#
# PCOD9569224 Si02
#       5
#    16  16  16  16  16
#     4  10  21  35  51  74 105 138 169 207 257 314
#     4  11  20  31  51  74 100 132 171 212 255 303
#     4   9  19  36  55  73  96 130 173 215 253 296
#     4  10  19  29  44  67  97 129 162 200 243 291
#     4  10  20  32  46  69 102 137 167 200 244 299
#
# _framework density 23.032796999999999
#
# number of rings (size 3 to 8) (size 9 to 14) (size 15 to 20)
#    0.000    2.000    2.000    3.000    0.000    3.600 
#    0.000    0.000    0.000    0.600    0.000    1.400 
#    0.000    0.000    0.000   15.000    0.000    0.000 
#
# Total GULP energy -446083.296455 kJ/mol
# GULP energy per Si atom -5576.041206 kJ/mol
# Density = 2.298037 g / cm^3
# Si number density = 23.032797 Si / 1000 Ang^3
#
#
#
# Elastic Constant Matrix: (Units=GPa)
#
#
# Indices 1 2 3 4 5 6 
#
# 1 42.9160 43.6856 7.7584 0.0000 0.0000 0.0000
# 2 43.6856 42.9160 7.7584 0.0000 0.0000 0.0000
# 3 7.7584 7.7584 119.5881 0.0000 0.0000 0.0000
# 4 0.0000 0.0000 0.0000 -0.3259 0.0000 0.0000
# 5 0.0000 0.0000 0.0000 0.0000 -0.3259 0.0000
# 6 0.0000 0.0000 0.0000 0.0000 0.0000 46.8260
#
#
#
# Elastic Compliance Matrix: (Units=1/GPa)
#
#
# Indices 1 2 3 4 5 6 
#
# 1 -0.643921 0.655604 -0.000758 0.000000 0.000000 0.000000
# 2 0.655604 -0.643921 -0.000758 0.000000 0.000000 0.000000
# 3 -0.000758 -0.000758 0.008460 0.000000 0.000000 0.000000
# 4 0.000000 0.000000 0.000000 -3.068779 0.000000 0.000000
# 5 0.000000 0.000000 0.000000 0.000000 -3.068779 0.000000
# 6 0.000000 0.000000 0.000000 0.000000 0.000000 0.021356
#
#
# Mechanical properties :
#
#
# Convention : Reuss Voigt Hill
#
# Bulk Modulus (GPa) = 34.72887 35.98054 35.35471
# Shear Modulus (GPa) = -0.57510 18.98270 9.20380
#
# Velocity S-wave (km/s) = -0.50023 2.87393 2.00116
# Velocity P-wave (km/s) = 3.84410 5.16411 4.55220
#
# Compressibility (1/GPa) = 0.02879448
#
# Stress axis : x y z
#
# Youngs Moduli (GPa) = -1.55299 -1.55299 118.19795
#
# Poissons Ratio (x) = 1.01814 0.08959
# Poissons Ratio (y) = 1.01814 0.08959
# Poissons Ratio (z) = -0.00118 -0.00118
#
# Static dielectric constant tensor:
#      x y z
#    x 1.874640 0.000000 0.000000 
#    y 0.000000 1.874640 0.000000 
#    z 0.000000 0.000000 1.929390 
# 
# From -- ./inp_files/4876.got.cif
#   From: 2010.05.17/outbox.cif.g08.bks.cpg/sg136_3_cif.got.tgz:4876.got - 2010.05.20 12:54:53.
