data_PCOD9569841
_publ_section_title
;
Structure prediction by ZEFSAII (Michael W. Deem and Ramdas Pophale) SiO2 
 PCOD9569841
Probable space group: P 42/M N M
;
_chemical_formula_sum "Si O2"
_cell_formula_units_Z 56
_cell_length_a 12.372241
_cell_length_b 12.372241
_cell_length_c 18.502426
_cell_angle_alpha 90.000000
_cell_angle_beta 90.000000
_cell_angle_gamma 90.000000
_cell_volume 2832.209780
_symmetry_space_group_name_H-M "P 42/M N M"
_symmetry_group_IT_number 136
_symmetry_cell_setting 'tetragonal'
loop_
_space_group_symop_operation_xyz
x,y,z
1/2-y,1/2+x,1/2+z
-x,-y,z
1/2+y,1/2-x,1/2+z
1/2+x,1/2-y,1/2-z
1/2-x,1/2+y,1/2-z
y,x,-z
-y,-x,-z
-x,-y,-z
1/2+y,1/2-x,1/2-z
x,y,-z
1/2-y,1/2+x,1/2-z
1/2-x,1/2+y,1/2+z
1/2+x,1/2-y,1/2+z
-y,-x,z
y,x,z
loop_
_atom_site_type_symbol
_atom_site_label
_atom_site_fract_x
_atom_site_fract_y
_atom_site_fract_z
Si Si1 0.539158 0.831746 0.586120
Si Si2 0.085799 0.914201 0.912291
Si Si3 0.585936 0.237180 0.174119
Si Si4 0.151588 0.675527 0.327067
O O1 0.529506 0.839514 0.500000
O O2 0.554418 0.706396 0.608695
O O3 0.647690 0.888633 0.613353
O O4 0.429345 0.870158 0.623808
O O5 0.083311 0.916690 0.000000
O O6 0.000000 0.000000 0.883967
O O7 0.653655 0.346346 0.161001
O O8 0.457148 0.245584 0.179313
O O9 0.630563 0.185851 0.248697
O O10 0.250020 0.749981 0.354784
#
# Coordination Sequence:
#
# PCOD9569841 Si02
#       4
#    16   8  16  16
#     4  11  22  39  64  94 124 163 211 258 312 369
#     4   9  18  34  58  92 131 159 192 252 312 359
#     4  11  23  41  64  91 126 167 209 256 311 375
#     4  11  24  41  62  91 127 168 209 255 312 373
#
# _framework density 19.772546999999999
#
# number of rings (size 3 to 8) (size 9 to 14) (size 15 to 20)
#    0.000    1.286    4.286    1.714    0.000    4.571 
#    0.000    0.000    0.000    0.000    0.000    4.000 
#    0.000    0.000    0.000    0.000    0.000    0.000 
#
# Total GULP energy -312941.251796 kJ/mol
# GULP energy per Si atom -5588.236639 kJ/mol
# Density = 1.972754 g / cm^3
# Si number density = 19.772547 Si / 1000 Ang^3
#
#
#
# Elastic Constant Matrix: (Units=GPa)
#
#
# Indices 1 2 3 4 5 6 
#
# 1 39.8193 4.3220 9.2892 0.0000 0.0000 0.0000
# 2 4.3220 39.8185 9.2897 0.0000 0.0000 0.0000
# 3 9.2892 9.2897 59.2450 0.0000 0.0000 0.0000
# 4 0.0000 0.0000 0.0000 22.9454 0.0000 0.0000
# 5 0.0000 0.0000 0.0000 0.0000 22.9455 0.0000
# 6 0.0000 0.0000 0.0000 0.0000 0.0000 32.2381
#
#
#
# Elastic Compliance Matrix: (Units=1/GPa)
#
#
# Indices 1 2 3 4 5 6 
#
# 1 0.026213 -0.001958 -0.003803 0.000000 0.000000 0.000000
# 2 -0.001958 0.026214 -0.003803 0.000000 0.000000 0.000000
# 3 -0.003803 -0.003803 0.018072 0.000000 0.000000 0.000000
# 4 0.000000 0.000000 0.000000 0.043582 0.000000 0.000000
# 5 0.000000 0.000000 0.000000 0.000000 0.043582 0.000000
# 6 0.000000 0.000000 0.000000 0.000000 0.000000 0.031019
#
#
# Mechanical properties :
#
#
# Convention : Reuss Voigt Hill
#
# Bulk Modulus (GPa) = 19.46663 20.52050 19.99356
# Shear Modulus (GPa) = 22.22884 23.35794 22.79339
#
# Velocity S-wave (km/s) = 3.35659 3.44078 3.39894
# Velocity P-wave (km/s) = 4.98888 5.11723 5.05346
#
# Compressibility (1/GPa) = 0.05136996
#
# Stress axis : x y z
#
# Youngs Moduli (GPa) = 38.14880 38.14787 55.33508
#
# Poissons Ratio (x) = 0.07469 0.21044
# Poissons Ratio (y) = 0.07469 0.21046
# Poissons Ratio (z) = 0.14508 0.14509
#
# Static dielectric constant tensor:
#      x y z
#    x 1.694650 0.000000 0.000000 
#    y 0.000000 1.694650 0.000000 
#    z 0.000000 0.000000 1.670400 
# 
# From -- ./inp_files/6901.got.cif
#   From: 2010.05.17/outbox.cif.g08.bks.cpg/sg136_4_cif.got.tgz:6901.got - 2010.05.20 12:54:53.
