data_PCOD9569189
_publ_section_title
;
Structure prediction by ZEFSAII (Michael W. Deem and Ramdas Pophale) SiO2 
 PCOD9569189
Probable space group: P 42/M N M
;
_chemical_formula_sum "Si O2"
_cell_formula_units_Z 96
_cell_length_a 25.322753
_cell_length_b 25.322753
_cell_length_c 9.014531
_cell_angle_alpha 90.000000
_cell_angle_beta 90.000000
_cell_angle_gamma 90.000000
_cell_volume 5780.494260
_symmetry_space_group_name_H-M "P 42/M N M"
_symmetry_group_IT_number 136
_symmetry_cell_setting 'tetragonal'
loop_
_space_group_symop_operation_xyz
x,y,z
1/2-y,1/2+x,1/2+z
-x,-y,z
1/2+y,1/2-x,1/2+z
1/2+x,1/2-y,1/2-z
1/2-x,1/2+y,1/2-z
y,x,-z
-y,-x,-z
-x,-y,-z
1/2+y,1/2-x,1/2-z
x,y,-z
1/2-y,1/2+x,1/2-z
1/2-x,1/2+y,1/2+z
1/2+x,1/2-y,1/2+z
-y,-x,z
y,x,z
loop_
_atom_site_type_symbol
_atom_site_label
_atom_site_fract_x
_atom_site_fract_y
_atom_site_fract_z
Si Si1 0.325537 0.589464 0.823412
Si Si2 0.796887 0.203114 0.820140
Si Si3 0.811854 0.646747 0.681104
Si Si4 0.482432 0.338667 0.672228
Si Si5 0.378970 0.378970 0.824278
Si Si6 0.797590 0.419063 0.822098
Si Si7 0.288284 0.971835 0.173509
O O1 0.357299 0.642702 0.792482
O O2 0.349560 0.540589 0.734021
O O3 0.263727 0.593153 0.786585
O O4 0.329280 0.578670 0.000000
O O5 0.738059 0.183710 0.775553
O O6 0.838572 0.161429 0.754970
O O7 0.799336 0.200665 0.000000
O O8 0.811175 0.646490 0.500000
O O9 0.868609 0.668858 0.729051
O O10 0.804293 0.586127 0.730417
O O11 0.476862 0.353406 0.500000
O O12 0.437426 0.365043 0.769802
O O13 0.474535 0.275341 0.683747
O O14 0.374012 0.374012 0.000000
O O15 0.810314 0.476315 0.754528
O O16 0.802221 0.422613 0.000000
O O17 0.302507 0.975000 0.000000
#
# Coordination Sequence:
#
# PCOD9569189 Si02
#       7
#    16   8  16  16   8  16  16
#     4   9  18  32  49  72 102 132 163 204 255 301
#     4  10  18  32  52  75 103 136 168 201 245 301
#     4   9  17  30  52  77 102 131 169 207 244 294
#     4  10  19  33  52  71  94 131 174 208 245 298
#     4  12  22  32  49  75 104 130 160 209 261 301
#     4   9  18  31  50  77 102 131 167 206 248 299
#     4   9  17  32  51  71  97 133 170 205 244 295
#
# _framework density 16.607575000000001
#
# number of rings (size 3 to 8) (size 9 to 14) (size 15 to 20)
#    0.000    2.500    1.667    1.250    1.167    1.000 
#    0.000    2.083    0.000    3.000    0.000    3.500 
#    0.000    0.000    0.000    0.000    0.000    0.000 
#
# Total GULP energy -535019.263071 kJ/mol
# GULP energy per Si atom -5573.117324 kJ/mol
# Density = 1.656978 g / cm^3
# Si number density = 16.607575 Si / 1000 Ang^3
#
#
#
# Elastic Constant Matrix: (Units=GPa)
#
#
# Indices 1 2 3 4 5 6 
#
# 1 95.3085 66.5083 28.6201 0.0000 0.0000 0.0000
# 2 66.5083 95.3085 28.6195 0.0000 0.0000 0.0000
# 3 28.6201 28.6195 25.3381 0.0000 0.0000 0.0000
# 4 0.0000 0.0000 0.0000 22.4595 0.0000 0.0000
# 5 0.0000 0.0000 0.0000 0.0000 22.4594 0.0000
# 6 0.0000 0.0000 0.0000 0.0000 0.0000 21.7174
#
#
#
# Elastic Compliance Matrix: (Units=1/GPa)
#
#
# Indices 1 2 3 4 5 6 
#
# 1 0.022507 -0.012215 -0.011626 0.000000 0.000000 0.000000
# 2 -0.012215 0.022507 -0.011624 0.000000 0.000000 0.000000
# 3 -0.011626 -0.011624 0.065727 0.000000 0.000000 0.000000
# 4 0.000000 0.000000 0.000000 0.044525 0.000000 0.000000
# 5 0.000000 0.000000 0.000000 0.000000 0.044525 0.000000
# 6 0.000000 0.000000 0.000000 0.000000 0.000000 0.046046
#
#
# Mechanical properties :
#
#
# Convention : Reuss Voigt Hill
#
# Bulk Modulus (GPa) = 25.11839 51.49455 38.30647
# Shear Modulus (GPa) = 15.14985 19.47441 17.31213
#
# Velocity S-wave (km/s) = 3.02358 3.42807 3.23216
# Velocity P-wave (km/s) = 5.22943 6.83688 6.08645
#
# Compressibility (1/GPa) = 0.03981147
#
# Stress axis : x y z
#
# Youngs Moduli (GPa) = 44.43021 44.43125 15.21444
#
# Poissons Ratio (x) = 0.54273 0.17688
# Poissons Ratio (y) = 0.54272 0.17685
# Poissons Ratio (z) = 0.51653 0.51647
#
# Static dielectric constant tensor:
#      x y z
#    x 1.551050 0.000000 0.000000 
#    y 0.000000 1.551050 0.000000 
#    z 0.000000 0.000000 1.562280 
# 
# From -- ./inp_files/2045.got.cif
#   From: 2010.05.17/outbox.cif.g08.bks.cpg/sg136_2_cif.got.tgz:2045.got - 2010.05.20 12:54:53.
