data_PCOD9569160
_publ_section_title
;
Structure prediction by ZEFSAII (Michael W. Deem and Ramdas Pophale) SiO2 
 PCOD9569160
Probable space group: P 42/M N M
;
_chemical_formula_sum "Si O2"
_cell_formula_units_Z 120
_cell_length_a 22.077800
_cell_length_b 22.077800
_cell_length_c 14.396827
_cell_angle_alpha 90.000000
_cell_angle_beta 90.000000
_cell_angle_gamma 90.000000
_cell_volume 7017.434628
_symmetry_space_group_name_H-M "P 42/M N M"
_symmetry_group_IT_number 136
_symmetry_cell_setting 'tetragonal'
loop_
_space_group_symop_operation_xyz
x,y,z
1/2-y,1/2+x,1/2+z
-x,-y,z
1/2+y,1/2-x,1/2+z
1/2+x,1/2-y,1/2-z
1/2-x,1/2+y,1/2-z
y,x,-z
-y,-x,-z
-x,-y,-z
1/2+y,1/2-x,1/2-z
x,y,-z
1/2-y,1/2+x,1/2-z
1/2-x,1/2+y,1/2+z
1/2+x,1/2-y,1/2+z
-y,-x,z
y,x,z
loop_
_atom_site_type_symbol
_atom_site_label
_atom_site_fract_x
_atom_site_fract_y
_atom_site_fract_z
Si Si1 0.845142 0.745622 0.890139
Si Si2 0.451065 0.451065 0.887745
Si Si3 0.164736 0.484961 0.598389
Si Si4 0.600202 0.929961 0.654996
Si Si5 0.375901 0.215604 0.892365
Si Si6 0.451670 0.770781 0.243465
Si Si7 0.914426 0.563209 0.862944
Si Si8 0.311478 0.474577 0.113038
O O1 0.806641 0.806641 0.887637
O O2 0.802429 0.690039 0.856209
O O3 0.900599 0.746344 0.818729
O O4 0.861705 0.734200 0.000000
O O5 0.500000 0.500000 0.852847
O O6 0.466713 0.381861 0.863415
O O7 0.453065 0.453065 0.000000
O O8 0.197584 0.491117 0.500000
O O9 0.128680 0.422134 0.601714
O O10 0.205399 0.494577 0.688913
O O11 0.112370 0.537359 0.601458
O O12 0.670457 0.932699 0.682888
O O13 0.564707 0.923429 0.752395
O O14 0.580800 0.993333 0.608742
O O15 0.414389 0.153436 0.884786
O O16 0.415284 0.272022 0.858614
O O17 0.365366 0.229704 0.000000
O O18 0.472113 0.719115 0.172659
O O19 0.305310 0.482665 0.000000
#
# Coordination Sequence:
#
# PCOD9569160 Si02
#       8
#    16   8  16  16  16  16  16  16
#     4  10  21  35  54  79 107 141 183 230 277 327
#     4   9  20  40  64  90 115 133 161 217 288 363
#     4  11  22  31  45  70 105 155 199 231 268 308
#     4  11  19  28  43  64 100 145 191 230 268 311
#     4  10  18  30  47  71 104 137 174 223 272 317
#     4  11  21  35  54  74 113 146 183 227 277 319
#     4  11  18  29  43  62  98 145 187 235 271 301
#     4  10  21  36  58  86 112 141 175 219 283 343
#
# _framework density 17.100266000000001
#
# number of rings (size 3 to 8) (size 9 to 14) (size 15 to 20)
#    0.000    1.533    6.667    1.200    0.933    2.667 
#    0.000    0.000    0.000    0.000    0.000    1.867 
#    0.000    3.200    0.000    0.000    0.000    0.000 
#
# Total GULP energy -668734.194298 kJ/mol
# GULP energy per Si atom -5572.784952 kJ/mol
# Density = 1.706135 g / cm^3
# Si number density = 17.100266 Si / 1000 Ang^3
#
#
#
# Elastic Constant Matrix: (Units=GPa)
#
#
# Indices 1 2 3 4 5 6 
#
# 1 86.0823 49.0353 30.0434 0.0000 0.0000 0.0000
# 2 49.0353 86.0823 30.0434 0.0000 0.0000 0.0000
# 3 30.0434 30.0434 75.1038 0.0000 0.0000 0.0000
# 4 0.0000 0.0000 0.0000 13.8652 0.0000 0.0000
# 5 0.0000 0.0000 0.0000 0.0000 13.8652 0.0000
# 6 0.0000 0.0000 0.0000 0.0000 0.0000 20.0380
#
#
#
# Elastic Compliance Matrix: (Units=1/GPa)
#
#
# Indices 1 2 3 4 5 6 
#
# 1 0.017998 -0.008995 -0.003601 0.000000 0.000000 0.000000
# 2 -0.008995 0.017998 -0.003601 0.000000 0.000000 0.000000
# 3 -0.003601 -0.003601 0.016196 0.000000 0.000000 0.000000
# 4 0.000000 0.000000 0.000000 0.072123 0.000000 0.000000
# 5 0.000000 0.000000 0.000000 0.000000 0.072123 0.000000
# 6 0.000000 0.000000 0.000000 0.000000 0.000000 0.049905
#
#
# Mechanical properties :
#
#
# Convention : Reuss Voigt Hill
#
# Bulk Modulus (GPa) = 50.51500 51.72362 51.11931
# Shear Modulus (GPa) = 17.52317 18.76342 18.14330
#
# Velocity S-wave (km/s) = 3.20461 3.31608 3.26083
# Velocity P-wave (km/s) = 6.58007 6.70633 6.64350
#
# Compressibility (1/GPa) = 0.01979610
#
# Stress axis : x y z
#
# Youngs Moduli (GPa) = 55.56300 55.56300 61.74350
#
# Poissons Ratio (x) = 0.49980 0.22235
# Poissons Ratio (y) = 0.49980 0.22235
# Poissons Ratio (z) = 0.20009 0.20009
#
# Static dielectric constant tensor:
#      x y z
#    x 1.600970 0.000000 0.000000 
#    y 0.000000 1.600970 0.000000 
#    z 0.000000 0.000000 1.610530 
# 
# From -- ./inp_files/5339.got.cif
#   From: 2010.05.17/outbox.cif.g08.bks.cpg/sg136_3_cif.got.tgz:5339.got - 2010.05.20 12:54:53.
