data_PCOD9569190
_publ_section_title
;
Structure prediction by ZEFSAII (Michael W. Deem and Ramdas Pophale) SiO2 
 PCOD9569190
Probable space group: P 42/M N M
;
_chemical_formula_sum "Si O2"
_cell_formula_units_Z 96
_cell_length_a 24.569168
_cell_length_b 24.569168
_cell_length_c 7.819043
_cell_angle_alpha 90.000000
_cell_angle_beta 90.000000
_cell_angle_gamma 90.000000
_cell_volume 4719.918519
_symmetry_space_group_name_H-M "P 42/M N M"
_symmetry_group_IT_number 136
_symmetry_cell_setting 'tetragonal'
loop_
_space_group_symop_operation_xyz
x,y,z
1/2-y,1/2+x,1/2+z
-x,-y,z
1/2+y,1/2-x,1/2+z
1/2+x,1/2-y,1/2-z
1/2-x,1/2+y,1/2-z
y,x,-z
-y,-x,-z
-x,-y,-z
1/2+y,1/2-x,1/2-z
x,y,-z
1/2-y,1/2+x,1/2-z
1/2-x,1/2+y,1/2+z
1/2+x,1/2-y,1/2+z
-y,-x,z
y,x,z
loop_
_atom_site_type_symbol
_atom_site_label
_atom_site_fract_x
_atom_site_fract_y
_atom_site_fract_z
Si Si1 0.497664 0.841431 0.694885
Si Si2 0.209675 0.329156 0.698286
Si Si3 0.223556 0.014624 0.695457
Si Si4 0.314400 0.398922 0.795800
Si Si5 0.103608 0.400494 0.697779
Si Si6 0.273266 0.638521 0.793300
O O1 0.513802 0.827834 0.500000
O O2 0.500479 0.787253 0.803556
O O3 0.437461 0.864433 0.697929
O O4 0.537935 0.888697 0.755863
O O5 0.222361 0.316749 0.500000
O O6 0.263508 0.357418 0.771446
O O7 0.163133 0.374659 0.706115
O O8 0.178619 0.275436 0.770209
O O9 0.203635 0.020389 0.500000
O O10 0.222858 0.076141 0.772166
O O11 0.195846 0.960264 0.773086
O O12 0.367484 0.367484 0.728304
O O13 0.320030 0.405203 0.000000
O O14 0.085280 0.398308 0.500000
O O15 0.329067 0.670934 0.765769
O O16 0.263339 0.633982 0.000000
#
# Coordination Sequence:
#
# PCOD9569190 Si02
#       6
#    16  16  16  16  16  16
#     4  11  22  35  53  75 100 135 178 218 254 302
#     4  10  18  32  53  76 103 133 168 212 258 307
#     4  10  19  34  54  73 102 139 169 209 260 309
#     4  10  21  34  50  76 107 138 171 207 257 313
#     4  10  21  36  52  73 102 134 175 217 256 303
#     4   9  17  30  51  77  99 127 169 209 250 303
#
# _framework density 20.339335999999999
#
# number of rings (size 3 to 8) (size 9 to 14) (size 15 to 20)
#    0.000    2.000    3.333    1.000    0.000    3.333 
#    0.000    1.667    0.000    1.000    0.000    3.500 
#    0.000    0.000    0.000    3.000    0.000    3.333 
#
# Total GULP energy -534955.648423 kJ/mol
# GULP energy per Si atom -5572.454671 kJ/mol
# Density = 2.029304 g / cm^3
# Si number density = 20.339336 Si / 1000 Ang^3
#
#
#
# Elastic Constant Matrix: (Units=GPa)
#
#
# Indices 1 2 3 4 5 6 
#
# 1 43.3185 61.2910 5.0859 0.0000 0.0000 0.0000
# 2 61.2910 43.3185 5.0859 0.0000 0.0000 0.0000
# 3 5.0859 5.0859 25.0119 0.0000 0.0000 0.0000
# 4 0.0000 0.0000 0.0000 8.5668 0.0000 0.0000
# 5 0.0000 0.0000 0.0000 0.0000 8.5668 0.0000
# 6 0.0000 0.0000 0.0000 0.0000 0.0000 31.7880
#
#
#
# Elastic Compliance Matrix: (Units=1/GPa)
#
#
# Indices 1 2 3 4 5 6 
#
# 1 -0.022944 0.032696 -0.001983 0.000000 0.000000 0.000000
# 2 0.032696 -0.022944 -0.001983 0.000000 0.000000 0.000000
# 3 -0.001983 -0.001983 0.040787 0.000000 0.000000 0.000000
# 4 0.000000 0.000000 0.000000 0.116730 0.000000 0.000000
# 5 0.000000 0.000000 0.000000 0.000000 0.116730 0.000000
# 6 0.000000 0.000000 0.000000 0.000000 0.000000 0.031458
#
#
# Mechanical properties :
#
#
# Convention : Reuss Voigt Hill
#
# Bulk Modulus (GPa) = 19.09864 28.28605 23.69234
# Shear Modulus (GPa) = 22.74703 12.46341 17.60522
#
# Velocity S-wave (km/s) = 3.34784 2.47811 2.94526
# Velocity P-wave (km/s) = 4.93502 4.70376 4.82078
#
# Compressibility (1/GPa) = 0.05235976
#
# Stress axis : x y z
#
# Youngs Moduli (GPa) = -43.58378 -43.58378 24.51741
#
# Poissons Ratio (x) = 1.42504 0.04862
# Poissons Ratio (y) = 1.42504 0.04862
# Poissons Ratio (z) = -0.08643 -0.08643
#
# Static dielectric constant tensor:
#      x y z
#    x 1.748760 0.000000 0.000000 
#    y 0.000000 1.748760 0.000000 
#    z 0.000000 0.000000 1.774100 
# 
# From -- ./inp_files/1925.got.cif
#   From: 2010.05.17/outbox.cif.g08.bks.cpg/sg136_1_cif.got.tgz:1925.got - 2010.05.20 12:54:53.
