data_PCOD9569899
_publ_section_title
;
Structure prediction by ZEFSAII (Michael W. Deem and Ramdas Pophale) SiO2 
 PCOD9569899
Probable space group: P 42/M N M
;
_chemical_formula_sum "Si O2"
_cell_formula_units_Z 80
_cell_length_a 9.780675
_cell_length_b 9.780675
_cell_length_c 35.376987
_cell_angle_alpha 90.000000
_cell_angle_beta 90.000000
_cell_angle_gamma 90.000000
_cell_volume 3384.219302
_symmetry_space_group_name_H-M "P 42/M N M"
_symmetry_group_IT_number 136
_symmetry_cell_setting 'tetragonal'
loop_
_space_group_symop_operation_xyz
x,y,z
1/2-y,1/2+x,1/2+z
-x,-y,z
1/2+y,1/2-x,1/2+z
1/2+x,1/2-y,1/2-z
1/2-x,1/2+y,1/2-z
y,x,-z
-y,-x,-z
-x,-y,-z
1/2+y,1/2-x,1/2-z
x,y,-z
1/2-y,1/2+x,1/2-z
1/2-x,1/2+y,1/2+z
1/2+x,1/2-y,1/2+z
-y,-x,z
y,x,z
loop_
_atom_site_type_symbol
_atom_site_label
_atom_site_fract_x
_atom_site_fract_y
_atom_site_fract_z
Si Si1 0.441085 0.209449 0.387209
Si Si2 0.307649 0.928105 0.193875
Si Si3 0.872150 0.399374 0.458383
Si Si4 0.717458 0.512499 0.901374
Si Si5 0.506302 0.724417 0.776441
O O1 0.333484 0.333484 0.391099
O O2 0.505741 0.211650 0.345518
O O3 0.541793 0.212890 0.422900
O O4 0.351324 0.068416 0.387161
O O5 0.194192 0.805809 0.191876
O O6 0.273377 0.003282 0.232857
O O7 0.452999 0.850647 0.198794
O O8 0.809358 0.394281 0.500000
O O9 0.937860 0.260791 0.442958
O O10 0.000000 0.500000 0.461382
O O11 0.603208 0.396793 0.902032
O O12 0.643650 0.643650 0.882061
O O13 0.395879 0.604122 0.782228
O O14 0.653627 0.653627 0.782680
#
# Coordination Sequence:
#
# PCOD9569899 Si02
#       5
#    16  16  16  16  16
#     4   9  18  34  56  80 109 144 182 224 274 335
#     4   9  18  34  54  79 108 141 184 226 272 331
#     4   9  18  33  51  75 107 140 179 222 266 324
#     4   9  18  33  53  79 109 141 179 227 284 334
#     4   9  18  34  54  77 108 143 181 230 280 326
#
# _framework density 23.639129000000001
#
# number of rings (size 3 to 8) (size 9 to 14) (size 15 to 20)
#    0.000    3.000    0.000    0.000    0.000    2.400 
#   10.800   10.000    0.000    1.800    0.000    1.400 
#    0.000    0.000    0.000    0.000    0.000    0.000 
#
# Total GULP energy -446051.765207 kJ/mol
# GULP energy per Si atom -5575.647065 kJ/mol
# Density = 2.358533 g / cm^3
# Si number density = 23.639129 Si / 1000 Ang^3
#
#
#
# Elastic Constant Matrix: (Units=GPa)
#
#
# Indices 1 2 3 4 5 6 
#
# 1 35.0887 21.4396 2.1501 0.0000 0.0000 0.0000
# 2 21.4396 35.0887 2.1501 0.0000 0.0000 0.0000
# 3 2.1501 2.1501 160.4212 0.0000 0.0000 0.0000
# 4 0.0000 0.0000 0.0000 37.0638 0.0000 0.0000
# 5 0.0000 0.0000 0.0000 0.0000 37.0638 0.0000
# 6 0.0000 0.0000 0.0000 0.0000 0.0000 22.0934
#
#
#
# Elastic Compliance Matrix: (Units=1/GPa)
#
#
# Indices 1 2 3 4 5 6 
#
# 1 0.045486 -0.027778 -0.000237 0.000000 0.000000 0.000000
# 2 -0.027778 0.045486 -0.000237 0.000000 0.000000 0.000000
# 3 -0.000237 -0.000237 0.006240 0.000000 0.000000 0.000000
# 4 0.000000 0.000000 0.000000 0.026981 0.000000 0.000000
# 5 0.000000 0.000000 0.000000 0.000000 0.026981 0.000000
# 6 0.000000 0.000000 0.000000 0.000000 0.000000 0.045262
#
#
# Mechanical properties :
#
#
# Convention : Reuss Voigt Hill
#
# Bulk Modulus (GPa) = 24.56568 31.34203 27.95386
# Shear Modulus (GPa) = 18.76095 32.90144 25.83119
#
# Velocity S-wave (km/s) = 2.82022 3.73476 3.30923
# Velocity P-wave (km/s) = 4.58469 5.64670 5.14318
#
# Compressibility (1/GPa) = 0.04070720
#
# Stress axis : x y z
#
# Youngs Moduli (GPa) = 21.98456 21.98456 160.25766
#
# Poissons Ratio (x) = 0.61069 0.03804
# Poissons Ratio (y) = 0.61069 0.03804
# Poissons Ratio (z) = 0.00522 0.00522
#
# Static dielectric constant tensor:
#      x y z
#    x 1.964480 0.000000 0.000000 
#    y 0.000000 1.964480 0.000000 
#    z 0.000000 0.000000 1.889450 
# 
# From -- ./inp_files/9556.got.cif
#   From: 2010.05.17/outbox.cif.g08.bks.cpg/sg136_5_cif.got.tgz:9556.got - 2010.05.20 12:54:53.
