data_PCOD9569579
_publ_section_title
;
Structure prediction by ZEFSAII (Michael W. Deem and Ramdas Pophale) SiO2 
 PCOD9569579
Probable space group: P 42/M N M
;
_chemical_formula_sum "Si O2"
_cell_formula_units_Z 116
_cell_length_a 18.825030
_cell_length_b 18.825030
_cell_length_c 17.208146
_cell_angle_alpha 90.000000
_cell_angle_beta 90.000000
_cell_angle_gamma 90.000000
_cell_volume 6098.252971
_symmetry_space_group_name_H-M "P 42/M N M"
_symmetry_group_IT_number 136
_symmetry_cell_setting 'tetragonal'
loop_
_space_group_symop_operation_xyz
x,y,z
1/2-y,1/2+x,1/2+z
-x,-y,z
1/2+y,1/2-x,1/2+z
1/2+x,1/2-y,1/2-z
1/2-x,1/2+y,1/2-z
y,x,-z
-y,-x,-z
-x,-y,-z
1/2+y,1/2-x,1/2-z
x,y,-z
1/2-y,1/2+x,1/2-z
1/2-x,1/2+y,1/2+z
1/2+x,1/2-y,1/2+z
-y,-x,z
y,x,z
loop_
_atom_site_type_symbol
_atom_site_label
_atom_site_fract_x
_atom_site_fract_y
_atom_site_fract_z
Si Si1 0.592369 0.592369 0.500000
Si Si2 0.087621 0.205380 0.407950
Si Si3 0.604736 0.091278 0.590918
Si Si4 0.141651 0.253062 0.906393
Si Si5 0.951118 0.655372 0.680254
Si Si6 0.193041 0.985227 0.871973
Si Si7 0.529075 0.844727 0.339049
Si Si8 0.116361 0.998335 0.290595
O O1 0.547934 0.637348 0.432054
O O2 0.074385 0.211779 0.500000
O O3 0.160038 0.160038 0.397746
O O4 0.086087 0.280895 0.365694
O O5 0.026626 0.161627 0.362877
O O6 0.618514 0.082243 0.500000
O O7 0.641892 0.164721 0.618866
O O8 0.521926 0.109459 0.605125
O O9 0.628882 0.020854 0.634331
O O10 0.206519 0.206519 0.875186
O O11 0.067778 0.213042 0.888062
O O12 0.145727 0.255212 0.000000
O O13 0.894954 0.592177 0.687632
O O14 0.980793 0.675449 0.764708
O O15 0.270463 0.947802 0.877019
O O16 0.162188 0.980615 0.785158
O O17 0.068744 0.931257 0.312728
O O18 0.061964 0.061964 0.268747
#
# Coordination Sequence:
#
# PCOD9569579 Si02
#       8
#     4  16  16  16  16  16  16  16
#     4  12  24  40  65  88 140 186 224 268 321 396
#     4  10  23  44  66  92 127 168 220 273 325 386
#     4  10  22  38  62  93 125 161 210 266 326 391
#     4   9  18  35  58  87 125 167 206 253 316 380
#     4  12  22  42  65  95 121 165 215 270 327 400
#     4  11  21  40  56  90 131 175 216 263 318 389
#     4  11  24  38  65  91 127 167 211 265 336 391
#     4  10  20  36  62  90 120 160 207 262 320 376
#
# _framework density 19.021840999999998
#
# number of rings (size 3 to 8) (size 9 to 14) (size 15 to 20)
#    0.000    1.517    4.138    1.241    0.966    1.931 
#    1.241    3.448    1.517    1.655    0.000    0.000 
#    0.000    0.000    0.000    0.000    0.000    0.000 
#
# Total GULP energy -646315.519487 kJ/mol
# GULP energy per Si atom -5571.685513 kJ/mol
# Density = 1.897855 g / cm^3
# Si number density = 19.021841 Si / 1000 Ang^3
#
#
#
# Elastic Constant Matrix: (Units=GPa)
#
#
# Indices 1 2 3 4 5 6 
#
# 1 59.7420 42.3321 32.9548 0.0000 0.0000 0.0000
# 2 42.3321 59.7420 32.9548 0.0000 0.0000 0.0000
# 3 32.9548 32.9548 83.1403 0.0000 0.0000 0.0000
# 4 0.0000 0.0000 0.0000 25.0143 0.0000 0.0000
# 5 0.0000 0.0000 0.0000 0.0000 25.0143 0.0000
# 6 0.0000 0.0000 0.0000 0.0000 0.0000 20.6440
#
#
#
# Elastic Compliance Matrix: (Units=1/GPa)
#
#
# Indices 1 2 3 4 5 6 
#
# 1 0.035303 -0.022136 -0.005219 0.000000 0.000000 0.000000
# 2 -0.022136 0.035303 -0.005219 0.000000 0.000000 0.000000
# 3 -0.005219 -0.005219 0.016165 0.000000 0.000000 0.000000
# 4 0.000000 0.000000 0.000000 0.039977 0.000000 0.000000
# 5 0.000000 0.000000 0.000000 0.000000 0.039977 0.000000
# 6 0.000000 0.000000 0.000000 0.000000 0.000000 0.048440
#
#
# Mechanical properties :
#
#
# Convention : Reuss Voigt Hill
#
# Bulk Modulus (GPa) = 46.24755 46.56751 46.40753
# Shear Modulus (GPa) = 17.39009 20.42671 18.90840
#
# Velocity S-wave (km/s) = 3.02688 3.28053 3.15625
# Velocity P-wave (km/s) = 6.04828 6.23565 6.14268
#
# Compressibility (1/GPa) = 0.02162277
#
# Stress axis : x y z
#
# Youngs Moduli (GPa) = 28.32651 28.32651 61.86130
#
# Poissons Ratio (x) = 0.62703 0.32285
# Poissons Ratio (y) = 0.62703 0.32285
# Poissons Ratio (z) = 0.14783 0.14783
#
# Static dielectric constant tensor:
#      x y z
#    x 1.663740 0.000000 0.000000 
#    y 0.000000 1.663740 0.000000 
#    z 0.000000 0.000000 1.656100 
# 
# From -- ./inp_files/6481.got.cif
#   From: 2010.05.17/outbox.cif.g08.bks.cpg/sg136_4_cif.got.tgz:6481.got - 2010.05.20 12:54:53.
