data_PCOD9569719
_publ_section_title
;
Structure prediction by ZEFSAII (Michael W. Deem and Ramdas Pophale) SiO2 
 PCOD9569719
Probable space group: P 42/M N M
;
_chemical_formula_sum "Si O2"
_cell_formula_units_Z 96
_cell_length_a 23.712534
_cell_length_b 23.712534
_cell_length_c 7.855764
_cell_angle_alpha 90.000000
_cell_angle_beta 90.000000
_cell_angle_gamma 90.000000
_cell_volume 4417.172516
_symmetry_space_group_name_H-M "P 42/M N M"
_symmetry_group_IT_number 136
_symmetry_cell_setting 'tetragonal'
loop_
_space_group_symop_operation_xyz
x,y,z
1/2-y,1/2+x,1/2+z
-x,-y,z
1/2+y,1/2-x,1/2+z
1/2+x,1/2-y,1/2-z
1/2-x,1/2+y,1/2-z
y,x,-z
-y,-x,-z
-x,-y,-z
1/2+y,1/2-x,1/2-z
x,y,-z
1/2-y,1/2+x,1/2-z
1/2-x,1/2+y,1/2+z
1/2+x,1/2-y,1/2+z
-y,-x,z
y,x,z
loop_
_atom_site_type_symbol
_atom_site_label
_atom_site_fract_x
_atom_site_fract_y
_atom_site_fract_z
Si Si1 0.045376 0.868405 0.200506
Si Si2 0.328560 0.878409 0.806446
Si Si3 0.854936 0.854936 0.192860
Si Si4 0.015160 0.743158 0.793117
Si Si5 0.441438 0.558563 0.807836
Si Si6 0.613626 0.229648 0.204058
Si Si7 0.934089 0.439066 0.699564
O O1 0.101847 0.898154 0.272421
O O2 0.024523 0.807808 0.266878
O O3 0.995278 0.913280 0.221467
O O4 0.055145 0.859394 0.000000
O O5 0.291592 0.929680 0.731559
O O6 0.341720 0.817103 0.728289
O O7 0.391755 0.902297 0.803038
O O8 0.307794 0.870256 0.000000
O O9 0.893652 0.893652 0.308526
O O10 0.869456 0.790206 0.224125
O O11 0.870293 0.870293 0.000000
O O12 0.953142 0.720752 0.742358
O O13 0.015131 0.741078 0.000000
O O14 0.456135 0.543866 0.000000
O O15 0.619068 0.230099 0.000000
O O16 0.925691 0.499878 0.781334
O O17 0.918224 0.439542 0.500000
#
# Coordination Sequence:
#
# PCOD9569719 Si02
#       7
#    16  16   8  16   8  16  16
#     4  10  21  38  61  90 123 162 205 244 296 365
#     4  10  22  39  58  87 121 156 201 247 299 360
#     4  12  24  41  65  90 120 161 210 255 305 366
#     4  10  21  39  62  88 121 165 206 248 302 365
#     4  12  23  37  62  95 126 156 196 248 311 363
#     4  11  23  40  63  92 124 159 203 258 307 358
#     4  11  21  34  54  80 112 151 194 246 304 358
#
# _framework density 21.733360000000001
#
# number of rings (size 3 to 8) (size 9 to 14) (size 15 to 20)
#    0.000    1.333    1.667    5.250    0.000    6.000 
#    1.500    0.000    0.000    0.000    0.000    0.000 
#    0.000    0.000    0.000    0.000    0.000    0.000 
#
# Total GULP energy -535942.890679 kJ/mol
# GULP energy per Si atom -5582.738445 kJ/mol
# Density = 2.168389 g / cm^3
# Si number density = 21.733360 Si / 1000 Ang^3
#
#
#
# Elastic Constant Matrix: (Units=GPa)
#
#
# Indices 1 2 3 4 5 6 
#
# 1 33.9209 102.8794 -2.1934 0.0000 0.0000 0.0000
# 2 102.8794 33.9222 -2.1934 0.0000 0.0000 0.0000
# 3 -2.1934 -2.1934 63.4965 0.0000 0.0000 0.0000
# 4 0.0000 0.0000 0.0000 17.1898 0.0000 0.0000
# 5 0.0000 0.0000 0.0000 0.0000 17.1898 0.0000
# 6 0.0000 0.0000 0.0000 0.0000 0.0000 43.8212
#
#
#
# Elastic Compliance Matrix: (Units=1/GPa)
#
#
# Indices 1 2 3 4 5 6 
#
# 1 -0.003592 0.010910 0.000253 0.000000 0.000000 0.000000
# 2 0.010910 -0.003592 0.000253 0.000000 0.000000 0.000000
# 3 0.000253 0.000253 0.015766 0.000000 0.000000 0.000000
# 4 0.000000 0.000000 0.000000 0.058174 0.000000 0.000000
# 5 0.000000 0.000000 0.000000 0.000000 0.058174 0.000000
# 6 0.000000 0.000000 0.000000 0.000000 0.000000 0.022820
#
#
# Mechanical properties :
#
#
# Convention : Reuss Voigt Hill
#
# Bulk Modulus (GPa) = 31.83341 36.48052 34.15697
# Shear Modulus (GPa) = 36.93003 17.82998 27.38000
#
# Velocity S-wave (km/s) = 4.12665 2.86736 3.55324
# Velocity P-wave (km/s) = 6.11430 5.27108 5.70828
#
# Compressibility (1/GPa) = 0.03141353
#
# Stress axis : x y z
#
# Youngs Moduli (GPa) = -278.40590 -278.41651 63.42618
#
# Poissons Ratio (x) = 3.03747 -0.01603
# Poissons Ratio (y) = 3.03735 -0.01603
# Poissons Ratio (z) = 0.07038 0.07038
#
# Static dielectric constant tensor:
#      x y z
#    x 1.809170 0.000000 0.000000 
#    y 0.000000 1.809170 0.000000 
#    z 0.000000 0.000000 1.674480 
# 
# From -- ./inp_files/2023.got.cif
#   From: 2010.05.17/outbox.cif.g08.bks.cpg/sg136_2_cif.got.tgz:2023.got - 2010.05.20 12:54:53.
