data_PCOD9569646
_publ_section_title
;
Structure prediction by ZEFSAII (Michael W. Deem and Ramdas Pophale) SiO2 
 PCOD9569646
Probable space group: P 42/M N M
;
_chemical_formula_sum "Si O2"
_cell_formula_units_Z 96
_cell_length_a 24.817080
_cell_length_b 24.817080
_cell_length_c 8.628842
_cell_angle_alpha 90.000000
_cell_angle_beta 90.000000
_cell_angle_gamma 90.000000
_cell_volume 5314.395580
_symmetry_space_group_name_H-M "P 42/M N M"
_symmetry_group_IT_number 136
_symmetry_cell_setting 'tetragonal'
loop_
_space_group_symop_operation_xyz
x,y,z
1/2-y,1/2+x,1/2+z
-x,-y,z
1/2+y,1/2-x,1/2+z
1/2+x,1/2-y,1/2-z
1/2-x,1/2+y,1/2-z
y,x,-z
-y,-x,-z
-x,-y,-z
1/2+y,1/2-x,1/2-z
x,y,-z
1/2-y,1/2+x,1/2-z
1/2-x,1/2+y,1/2+z
1/2+x,1/2-y,1/2+z
-y,-x,z
y,x,z
loop_
_atom_site_type_symbol
_atom_site_label
_atom_site_fract_x
_atom_site_fract_y
_atom_site_fract_z
Si Si1 0.357067 0.728247 0.313638
Si Si2 0.846420 0.357101 0.813153
Si Si3 0.638479 0.446500 0.313857
Si Si4 0.852028 0.234478 0.186551
Si Si5 0.442984 0.937428 0.812760
Si Si6 0.848511 0.064479 0.684014
O O1 0.354166 0.733628 0.500000
O O2 0.301631 0.698370 0.261878
O O3 0.368819 0.785779 0.240415
O O4 0.405132 0.686739 0.277907
O O5 0.856288 0.295765 0.757573
O O6 0.891387 0.400425 0.762892
O O7 0.847960 0.357021 0.000000
O O8 0.637348 0.452733 0.500000
O O9 0.583497 0.416504 0.266134
O O10 0.647083 0.503522 0.236853
O O11 0.799428 0.200573 0.241811
O O12 0.903653 0.200314 0.236909
O O13 0.849371 0.235754 0.000000
O O14 0.503256 0.926833 0.749020
O O15 0.444902 0.939069 0.000000
O O16 0.841627 0.067691 0.500000
O O17 0.902346 0.097655 0.726580
#
# Coordination Sequence:
#
# PCOD9569646 Si02
#       6
#    16  16  16  16  16  16
#     4   9  19  35  54  78 108 139 171 211 257 304
#     4  10  21  35  55  83 108 134 171 212 255 308
#     4   9  19  36  55  75 102 138 178 215 255 309
#     4   9  18  34  54  75 104 141 175 207 249 305
#     4  10  21  38  57  77 104 136 171 212 259 307
#     4  10  21  35  51  75 106 137 173 220 267 304
#
# _framework density 18.064143000000001
#
# number of rings (size 3 to 8) (size 9 to 14) (size 15 to 20)
#    0.000    2.500    0.000    3.000    0.000    6.667 
#    0.000   10.000    0.000    0.000    0.000    0.000 
#    0.000    0.000    0.000    0.000    0.000    0.000 
#
# Total GULP energy -535486.267369 kJ/mol
# GULP energy per Si atom -5577.981952 kJ/mol
# Density = 1.802303 g / cm^3
# Si number density = 18.064143 Si / 1000 Ang^3
#
#
#
# Elastic Constant Matrix: (Units=GPa)
#
#
# Indices 1 2 3 4 5 6 
#
# 1 117.9660 56.1752 21.1978 0.0000 0.0000 0.0000
# 2 56.1752 117.9660 21.1978 0.0000 0.0000 0.0000
# 3 21.1978 21.1978 10.5063 0.0000 0.0000 0.0000
# 4 0.0000 0.0000 0.0000 22.5575 0.0000 0.0000
# 5 0.0000 0.0000 0.0000 0.0000 22.5575 0.0000
# 6 0.0000 0.0000 0.0000 0.0000 0.0000 22.0570
#
#
#
# Elastic Compliance Matrix: (Units=1/GPa)
#
#
# Indices 1 2 3 4 5 6 
#
# 1 0.013735 -0.002449 -0.022772 0.000000 0.000000 0.000000
# 2 -0.002449 0.013735 -0.022772 0.000000 0.000000 0.000000
# 3 -0.022772 -0.022772 0.187071 0.000000 0.000000 0.000000
# 4 0.000000 0.000000 0.000000 0.044331 0.000000 0.000000
# 5 0.000000 0.000000 0.000000 0.000000 0.044331 0.000000
# 6 0.000000 0.000000 0.000000 0.000000 0.000000 0.045337
#
#
# Mechanical properties :
#
#
# Convention : Reuss Voigt Hill
#
# Bulk Modulus (GPa) = 8.43478 49.28668 28.86073
# Shear Modulus (GPa) = 10.32964 23.29224 16.81094
#
# Velocity S-wave (km/s) = 2.39389 3.59474 3.05392
# Velocity P-wave (km/s) = 3.51005 6.67631 5.33355
#
# Compressibility (1/GPa) = 0.11855680
#
# Stress axis : x y z
#
# Youngs Moduli (GPa) = 72.80667 72.80667 5.34556
#
# Poissons Ratio (x) = 0.17828 0.12173
# Poissons Ratio (y) = 0.17828 0.12173
# Poissons Ratio (z) = 1.65794 1.65794
#
# Static dielectric constant tensor:
#      x y z
#    x 1.609510 0.000000 0.000000 
#    y 0.000000 1.609510 0.000000 
#    z 0.000000 0.000000 1.612310 
# 
# From -- ./inp_files/1913.got.cif
#   From: 2010.05.17/outbox.cif.g08.bks.cpg/sg136_1_cif.got.tgz:1913.got - 2010.05.20 12:54:53.
