data_PCOD9569039
_publ_section_title
;
Structure prediction by ZEFSAII (Michael W. Deem and Ramdas Pophale) SiO2 
 PCOD9569039
Probable space group: P 42/M B C
;
_chemical_formula_sum "Si O2"
_cell_formula_units_Z 48
_cell_length_a 8.957873
_cell_length_b 8.957873
_cell_length_c 24.365727
_cell_angle_alpha 90.000000
_cell_angle_beta 90.000000
_cell_angle_gamma 90.000000
_cell_volume 1955.190939
_symmetry_space_group_name_H-M "P 42/M B C"
_symmetry_group_IT_number 135
_symmetry_cell_setting 'tetragonal'
loop_
_space_group_symop_operation_xyz
x,y,z
-y,x,1/2+z
-x,-y,z
y,-x,1/2+z
1/2+x,1/2-y,-z
1/2-x,1/2+y,-z
1/2+y,1/2+x,1/2-z
1/2-y,1/2-x,1/2-z
-x,-y,-z
y,-x,1/2-z
x,y,-z
-y,x,1/2-z
1/2-x,1/2+y,z
1/2+x,1/2-y,z
1/2-y,1/2-x,1/2+z
1/2+y,1/2+x,1/2+z
loop_
_atom_site_type_symbol
_atom_site_label
_atom_site_fract_x
_atom_site_fract_y
_atom_site_fract_z
Si Si1 0.049681 0.222634 0.271232
Si Si2 0.279165 0.956016 0.436950
Si Si3 0.272380 0.053079 0.894926
O O1 0.126374 0.128895 0.080190
O O2 0.911778 0.169011 0.234032
O O3 0.994819 0.243598 0.332892
O O4 0.275195 0.005491 0.500000
O O5 0.413048 0.836367 0.428717
O O6 0.325020 0.094837 0.399204
O O7 0.129628 0.370373 0.750000
#
# Coordination Sequence:
#
# PCOD9569039 Si02
#       3
#    16  16  16
#     4  11  27  49  73 107 148 196 247 302 363 435
#     4  11  24  47  74 107 144 188 241 306 374 445
#     4  11  25  45  72 104 143 191 242 301 369 444
#
# _framework density 24.550034
#
# number of rings (size 3 to 8) (size 9 to 14) (size 15 to 20)
#    0.000    1.000    0.000    6.000    0.000   23.333 
#    0.000    3.333    0.000    0.000    0.000    0.000 
#    0.000    0.000    0.000    0.000    0.000    0.000 
#
# Total GULP energy -269461.763727 kJ/mol
# GULP energy per Si atom -5613.786744 kJ/mol
# Density = 2.449416 g / cm^3
# Si number density = 24.550034 Si / 1000 Ang^3
#
#
#
# Elastic Constant Matrix: (Units=GPa)
#
#
# Indices 1 2 3 4 5 6 
#
# 1 90.5218 80.3968 57.1001 0.0000 0.0000 0.0000
# 2 80.3968 90.5179 57.1005 0.0000 0.0000 0.0000
# 3 57.1001 57.1005 191.2622 0.0000 0.0000 0.0000
# 4 0.0000 0.0000 0.0000 -124.3246 0.0000 0.0000
# 5 0.0000 0.0000 0.0000 0.0000 -124.9068 0.0000
# 6 0.0000 0.0000 0.0000 0.0000 0.0000 71.3421
#
#
#
# Elastic Compliance Matrix: (Units=1/GPa)
#
#
# Indices 1 2 3 4 5 6 
#
# 1 0.053045 -0.045738 -0.002181 0.000000 0.000000 0.000000
# 2 -0.045738 0.053048 -0.002183 0.000000 0.000000 0.000000
# 3 -0.002181 -0.002183 0.006531 0.000000 0.000000 0.000000
# 4 0.000000 0.000000 0.000000 -0.008043 0.000000 0.000000
# 5 0.000000 0.000000 0.000000 0.000000 -0.008006 0.000000
# 6 0.000000 0.000000 0.000000 0.000000 0.000000 0.014017
#
#
# Mechanical properties :
#
#
# Convention : Reuss Voigt Hill
#
# Bulk Modulus (GPa) = 80.51014 84.61074 82.56044
# Shear Modulus (GPa) = 23.26278 -23.73088 -0.23405
#
# Velocity S-wave (km/s) = 3.08160 -3.11245 -0.30910
# Velocity P-wave (km/s) = 6.74738 4.65005 5.79440
#
# Compressibility (1/GPa) = 0.01242080
#
# Stress axis : x y z
#
# Youngs Moduli (GPa) = 18.85189 18.85086 153.10975
#
# Poissons Ratio (x) = 0.86220 0.33400
# Poissons Ratio (y) = 0.86224 0.33416
# Poissons Ratio (z) = 0.04112 0.04114
#
# Static dielectric constant tensor:
#      x y z
#    x 1.986780 0.000000 0.000000 
#    y 0.000000 1.986780 0.000000 
#    z 0.000000 0.000000 1.840170 
# 
# From -- ./inp_files/2972.got.cif
#   From: 2010.05.17/outbox.cif.g08.bks.cpg/sg135_2_cif.got.tgz:2972.got - 2010.05.20 12:50:20.
