data_PCOD9569991
_publ_section_title
;
Structure prediction by ZEFSAII (Michael W. Deem and Ramdas Pophale) SiO2 
 PCOD9569991
Probable space group: P 42/N M C
;
_chemical_formula_sum "Si O2"
_cell_formula_units_Z 96
_cell_length_a 19.740592
_cell_length_b 19.740592
_cell_length_c 14.782578
_cell_angle_alpha 90.000000
_cell_angle_beta 90.000000
_cell_angle_gamma 90.000000
_cell_volume 5760.637197
_symmetry_space_group_name_H-M "P 42/N M C"
_symmetry_group_IT_number 137
_space_group.IT_coordinate_system_code '2'
_symmetry_cell_setting 'tetragonal'
loop_
_space_group_symop_operation_xyz
x,y,z
1/2-y,x,1/2+z
1/2-x,1/2-y,z
y,1/2-x,1/2+z
1/2+x,-y,-z
-x,1/2+y,-z
1/2+y,1/2+x,1/2-z
-y,-x,1/2-z
-x,-y,-z
1/2+y,-x,1/2-z
1/2+x,1/2+y,-z
-y,1/2+x,1/2-z
1/2-x,y,z
x,1/2-y,z
1/2-y,1/2-x,1/2+z
y,x,1/2+z
loop_
_atom_site_type_symbol
_atom_site_label
_atom_site_fract_x
_atom_site_fract_y
_atom_site_fract_z
Si Si1 0.463173 0.171846 0.055243
Si Si2 0.828605 0.917930 0.253533
Si Si3 0.482973 0.546464 0.146639
Si Si4 0.432836 0.327798 0.854347
Si Si5 0.423745 0.555834 0.964468
Si Si6 0.828882 0.074078 0.190938
O O1 0.487050 0.250000 0.069250
O O2 0.417842 0.153008 0.140773
O O3 0.524692 0.119111 0.047753
O O4 0.421993 0.170666 0.962305
O O5 0.750000 0.900347 0.242179
O O6 0.874717 0.867462 0.197794
O O7 0.836744 0.996663 0.225437
O O8 0.478647 0.521354 0.250000
O O9 0.500972 0.625520 0.157275
O O10 0.542108 0.506034 0.092289
O O11 0.423020 0.539615 0.071855
O O12 0.440301 0.250000 0.826315
O O13 0.355316 0.573770 0.912358
O O14 0.876864 0.123137 0.250000
O O15 0.750000 0.092507 0.198915
#
# Coordination Sequence:
#
# PCOD9569991 Si02
#       6
#    16  16  16  16  16  16
#     4   9  18  32  53  76 101 135 178 217 260 316
#     4  10  19  33  52  72 101 143 179 212 264 326
#     4  10  19  32  53  77 103 140 185 223 270 318
#     4  10  20  34  51  76 103 132 178 228 264 308
#     4  10  18  31  53  76 104 140 181 224 267 323
#     4  11  21  34  53  81 113 143 176 221 277 336
#
# _framework density 16.664822999999998
#
# number of rings (size 3 to 8) (size 9 to 14) (size 15 to 20)
#    0.000    2.000    3.333    1.500    0.000    0.500 
#    0.000    1.667    0.000    3.000    0.000    0.000 
#    0.000    1.667    0.000    0.167    0.000    0.000 
#
# Total GULP energy -534609.634382 kJ/mol
# GULP energy per Si atom -5568.850358 kJ/mol
# Density = 1.662689 g / cm^3
# Si number density = 16.664823 Si / 1000 Ang^3
#
#
#
# Elastic Constant Matrix: (Units=GPa)
#
#
# Indices 1 2 3 4 5 6 
#
# 1 61.5612 19.3331 20.4961 0.0000 0.0000 0.0000
# 2 19.3331 61.5639 20.4973 0.0000 0.0000 0.0000
# 3 20.4961 20.4973 101.2850 0.0000 0.0000 0.0000
# 4 0.0000 0.0000 0.0000 21.8462 0.0000 0.0000
# 5 0.0000 0.0000 0.0000 0.0000 21.8457 0.0000
# 6 0.0000 0.0000 0.0000 0.0000 0.0000 19.0212
#
#
#
# Elastic Compliance Matrix: (Units=1/GPa)
#
#
# Indices 1 2 3 4 5 6 
#
# 1 0.018727 -0.004953 -0.002787 0.000000 0.000000 0.000000
# 2 -0.004953 0.018727 -0.002787 0.000000 0.000000 0.000000
# 3 -0.002787 -0.002787 0.011001 0.000000 0.000000 0.000000
# 4 0.000000 0.000000 0.000000 0.045775 0.000000 0.000000
# 5 0.000000 0.000000 0.000000 0.000000 0.045776 0.000000
# 6 0.000000 0.000000 0.000000 0.000000 0.000000 0.052573
#
#
# Mechanical properties :
#
#
# Convention : Reuss Voigt Hill
#
# Bulk Modulus (GPa) = 36.49657 38.34035 37.41846
# Shear Modulus (GPa) = 22.44491 23.48153 22.96322
#
# Velocity S-wave (km/s) = 3.67392 3.75780 3.71610
# Velocity P-wave (km/s) = 6.32019 6.47185 6.39647
#
# Compressibility (1/GPa) = 0.02739984
#
# Stress axis : x y z
#
# Youngs Moduli (GPa) = 53.39742 53.39950 90.89839
#
# Poissons Ratio (x) = 0.26449 0.25337
# Poissons Ratio (y) = 0.26448 0.25338
# Poissons Ratio (z) = 0.14884 0.14885
#
# Static dielectric constant tensor:
#      x y z
#    x 1.574030 0.000000 0.000000 
#    y 0.000000 1.574030 0.000000 
#    z 0.000000 0.000000 1.613700 
# 
# From -- ./inp_files/5274.got.cif
#   From: 2010.05.17/outbox.cif.g08.bks.cpg/sg137_3_cif.got.tgz:5274.got - 2010.05.20 13:01:12.
