data_PCOD9569667
_publ_section_title
;
Structure prediction by ZEFSAII (Michael W. Deem and Ramdas Pophale) SiO2 
 PCOD9569667
Probable space group: P 42/M N M
;
_chemical_formula_sum "Si O2"
_cell_formula_units_Z 64
_cell_length_a 11.175481
_cell_length_b 11.175481
_cell_length_c 22.844602
_cell_angle_alpha 90.000000
_cell_angle_beta 90.000000
_cell_angle_gamma 90.000000
_cell_volume 2853.093768
_symmetry_space_group_name_H-M "P 42/M N M"
_symmetry_group_IT_number 136
_symmetry_cell_setting 'tetragonal'
loop_
_space_group_symop_operation_xyz
x,y,z
1/2-y,1/2+x,1/2+z
-x,-y,z
1/2+y,1/2-x,1/2+z
1/2+x,1/2-y,1/2-z
1/2-x,1/2+y,1/2-z
y,x,-z
-y,-x,-z
-x,-y,-z
1/2+y,1/2-x,1/2-z
x,y,-z
1/2-y,1/2+x,1/2-z
1/2-x,1/2+y,1/2+z
1/2+x,1/2-y,1/2+z
-y,-x,z
y,x,z
loop_
_atom_site_type_symbol
_atom_site_label
_atom_site_fract_x
_atom_site_fract_y
_atom_site_fract_z
Si Si1 0.687904 0.497587 0.912860
Si Si2 0.220080 0.419139 0.333765
Si Si3 0.179243 0.616011 0.566260
Si Si4 0.949418 0.758807 0.284930
O O1 0.634694 0.365307 0.927298
O O2 0.591526 0.591526 0.936377
O O3 0.816446 0.550144 0.930546
O O4 0.684557 0.505972 0.842470
O O5 0.313582 0.313582 0.351900
O O6 0.199383 0.515172 0.384857
O O7 0.093623 0.367237 0.310940
O O8 0.266947 0.477162 0.273774
O O9 0.193981 0.569842 0.500000
O O10 0.279871 0.720130 0.575710
O O11 0.826795 0.826795 0.271129
#
# Coordination Sequence:
#
# PCOD9569667 Si02
#       4
#    16  16  16  16
#     4   9  18  35  59  85 115 152 197 253 310 360
#     4  11  23  38  58  86 122 160 199 252 312 368
#     4  10  22  39  59  86 119 158 205 247 292 365
#     4  10  21  36  56  85 115 146 193 249 310 378
#
# _framework density 22.431791
#
# number of rings (size 3 to 8) (size 9 to 14) (size 15 to 20)
#    0.000    2.000    0.000    3.000    0.000   11.500 
#    0.000    6.250    0.000    4.500    0.000    0.000 
#    0.000    0.000    0.000    0.000    0.000    0.000 
#
# Total GULP energy -356719.430608 kJ/mol
# GULP energy per Si atom -5573.741103 kJ/mol
# Density = 2.238074 g / cm^3
# Si number density = 22.431791 Si / 1000 Ang^3
#
#
#
# Elastic Constant Matrix: (Units=GPa)
#
#
# Indices 1 2 3 4 5 6 
#
# 1 88.9710 28.2751 45.2920 0.0000 0.0000 0.0000
# 2 28.2751 88.9710 45.2920 0.0000 0.0000 0.0000
# 3 45.2920 45.2920 150.3852 0.0000 0.0000 0.0000
# 4 0.0000 0.0000 0.0000 2.8732 0.0000 0.0000
# 5 0.0000 0.0000 0.0000 0.0000 2.8732 0.0000
# 6 0.0000 0.0000 0.0000 0.0000 0.0000 38.0843
#
#
#
# Elastic Compliance Matrix: (Units=1/GPa)
#
#
# Indices 1 2 3 4 5 6 
#
# 1 0.013796 -0.002680 -0.003348 0.000000 0.000000 0.000000
# 2 -0.002680 0.013796 -0.003348 0.000000 0.000000 0.000000
# 3 -0.003348 -0.003348 0.008666 0.000000 0.000000 0.000000
# 4 0.000000 0.000000 0.000000 0.348042 0.000000 0.000000
# 5 0.000000 0.000000 0.000000 0.000000 0.348042 0.000000
# 6 0.000000 0.000000 0.000000 0.000000 0.000000 0.026258
#
#
# Mechanical properties :
#
#
# Convention : Reuss Voigt Hill
#
# Bulk Modulus (GPa) = 57.12239 62.89393 60.00816
# Shear Modulus (GPa) = 6.38418 22.73070 14.55744
#
# Velocity S-wave (km/s) = 1.68885 3.18673 2.55024
# Velocity P-wave (km/s) = 5.41509 6.45283 5.95660
#
# Compressibility (1/GPa) = 0.01750627
#
# Stress axis : x y z
#
# Youngs Moduli (GPa) = 72.48731 72.48731 115.39281
#
# Poissons Ratio (x) = 0.19427 0.38630
# Poissons Ratio (y) = 0.19427 0.38630
# Poissons Ratio (z) = 0.24266 0.24266
#
# Static dielectric constant tensor:
#      x y z
#    x 1.932800 0.000000 0.000000 
#    y 0.000000 1.932800 0.000000 
#    z 0.000000 0.000000 1.825600 
# 
# From -- ./inp_files/7034.got.cif
#   From: 2010.05.17/outbox.cif.g08.bks.cpg/sg136_4_cif.got.tgz:7034.got - 2010.05.20 12:54:53.
