data_PCOD9569933
_publ_section_title
;
Structure prediction by ZEFSAII (Michael W. Deem and Ramdas Pophale) SiO2 
 PCOD9569933
Probable space group: P 42/N M C
;
_chemical_formula_sum "Si O2"
_cell_formula_units_Z 96
_cell_length_a 25.347083
_cell_length_b 25.347083
_cell_length_c 9.872150
_cell_angle_alpha 90.000000
_cell_angle_beta 90.000000
_cell_angle_gamma 90.000000
_cell_volume 6342.605786
_symmetry_space_group_name_H-M "P 42/N M C"
_symmetry_group_IT_number 137
_space_group.IT_coordinate_system_code '2'
_symmetry_cell_setting 'tetragonal'
loop_
_space_group_symop_operation_xyz
x,y,z
1/2-y,x,1/2+z
1/2-x,1/2-y,z
y,1/2-x,1/2+z
1/2+x,-y,-z
-x,1/2+y,-z
1/2+y,1/2+x,1/2-z
-y,-x,1/2-z
-x,-y,-z
1/2+y,-x,1/2-z
1/2+x,1/2+y,-z
-y,1/2+x,1/2-z
1/2-x,y,z
x,1/2-y,z
1/2-y,1/2-x,1/2+z
y,x,1/2+z
loop_
_atom_site_type_symbol
_atom_site_label
_atom_site_fract_x
_atom_site_fract_y
_atom_site_fract_z
Si Si1 0.334071 0.419301 0.003860
Si Si2 0.956154 0.921636 0.087900
Si Si3 0.458300 0.192191 0.211210
Si Si4 0.922234 0.496253 0.314571
Si Si5 0.192656 0.142217 0.510211
Si Si6 0.808681 0.947874 0.697985
O O1 0.321003 0.357553 0.017671
O O2 0.316881 0.446679 0.141638
O O3 0.397715 0.420897 0.981347
O O4 0.309940 0.442849 0.868551
O O5 0.971109 0.862214 0.134028
O O6 0.948961 0.959180 0.217599
O O7 0.995499 0.939203 0.969758
O O8 0.481000 0.250000 0.178444
O O9 0.493395 0.140517 0.186944
O O10 0.404818 0.187123 0.121818
O O11 0.941876 0.441876 0.250000
O O12 0.250000 0.166754 0.527886
O O13 0.191123 0.111091 0.366643
O O14 0.750000 0.969409 0.664798
#
# Coordination Sequence:
#
# PCOD9569933 Si02
#       6
#    16  16  16  16  16  16
#     4  10  16  28  43  61  84 107 146 188 219 261
#     4  10  18  31  43  64  91 114 142 182 224 264
#     4  10  19  30  45  63  87 116 147 183 223 265
#     4  11  20  31  48  67  91 117 147 182 226 275
#     4   9  16  26  42  60  79 110 145 183 227 264
#     4  10  17  26  43  61  79 110 148 182 217 261
#
# _framework density 15.135735
#
# number of rings (size 3 to 8) (size 9 to 14) (size 15 to 20)
#    0.000    2.000    5.000    3.000    0.000    0.000 
#    0.000    0.000    0.000    2.000    0.000   18.667 
#    0.000    0.333    0.000    0.000    0.000    0.000 
#
# Total GULP energy -534592.540085 kJ/mol
# GULP energy per Si atom -5568.672293 kJ/mol
# Density = 1.510129 g / cm^3
# Si number density = 15.135735 Si / 1000 Ang^3
#
#
#
# Elastic Constant Matrix: (Units=GPa)
#
#
# Indices 1 2 3 4 5 6 
#
# 1 37.6490 18.4244 5.6703 0.0000 0.0000 0.0000
# 2 18.4244 37.6490 5.6703 0.0000 0.0000 0.0000
# 3 5.6703 5.6703 94.0481 0.0000 0.0000 0.0000
# 4 0.0000 0.0000 0.0000 6.5219 0.0000 0.0000
# 5 0.0000 0.0000 0.0000 0.0000 6.5219 0.0000
# 6 0.0000 0.0000 0.0000 0.0000 0.0000 8.6175
#
#
#
# Elastic Compliance Matrix: (Units=1/GPa)
#
#
# Indices 1 2 3 4 5 6 
#
# 1 0.035035 -0.016981 -0.001088 0.000000 0.000000 0.000000
# 2 -0.016981 0.035035 -0.001088 0.000000 0.000000 0.000000
# 3 -0.001088 -0.001088 0.010764 0.000000 0.000000 0.000000
# 4 0.000000 0.000000 0.000000 0.153329 0.000000 0.000000
# 5 0.000000 0.000000 0.000000 0.000000 0.153329 0.000000
# 6 0.000000 0.000000 0.000000 0.000000 0.000000 0.116044
#
#
# Mechanical properties :
#
#
# Convention : Reuss Voigt Hill
#
# Bulk Modulus (GPa) = 23.51948 25.43068 24.47508
# Shear Modulus (GPa) = 8.99240 13.63767 11.31504
#
# Velocity S-wave (km/s) = 2.44010 3.00496 2.73714
# Velocity P-wave (km/s) = 4.84887 5.37382 5.11808
#
# Compressibility (1/GPa) = 0.04251795
#
# Stress axis : x y z
#
# Youngs Moduli (GPa) = 28.54260 28.54260 92.90133
#
# Poissons Ratio (x) = 0.48469 0.10112
# Poissons Ratio (y) = 0.48469 0.10112
# Poissons Ratio (z) = 0.03107 0.03107
#
# Static dielectric constant tensor:
#      x y z
#    x 1.521310 0.000000 0.000000 
#    y 0.000000 1.521310 0.000000 
#    z 0.000000 0.000000 1.537230 
# 
# From -- ./inp_files/2257.got.cif
#   From: 2010.05.17/outbox.cif.g08.bks.cpg/sg137_2_cif.got.tgz:2257.got - 2010.05.20 13:01:12.
