data_PCOD9569598
_publ_section_title
;
Structure prediction by ZEFSAII (Michael W. Deem and Ramdas Pophale) SiO2 
 PCOD9569598
Probable space group: P 42/M N M
;
_chemical_formula_sum "Si O2"
_cell_formula_units_Z 40
_cell_length_a 10.192232
_cell_length_b 10.192232
_cell_length_c 18.914295
_cell_angle_alpha 90.000000
_cell_angle_beta 90.000000
_cell_angle_gamma 90.000000
_cell_volume 1964.847098
_symmetry_space_group_name_H-M "P 42/M N M"
_symmetry_group_IT_number 136
_symmetry_cell_setting 'tetragonal'
loop_
_space_group_symop_operation_xyz
x,y,z
1/2-y,1/2+x,1/2+z
-x,-y,z
1/2+y,1/2-x,1/2+z
1/2+x,1/2-y,1/2-z
1/2-x,1/2+y,1/2-z
y,x,-z
-y,-x,-z
-x,-y,-z
1/2+y,1/2-x,1/2-z
x,y,-z
1/2-y,1/2+x,1/2-z
1/2-x,1/2+y,1/2+z
1/2+x,1/2-y,1/2+z
-y,-x,z
y,x,z
loop_
_atom_site_type_symbol
_atom_site_label
_atom_site_fract_x
_atom_site_fract_y
_atom_site_fract_z
Si Si1 0.323096 0.884664 0.726384
Si Si2 0.605842 0.605842 0.585474
Si Si3 0.441120 0.855319 0.579812
O O1 0.196636 0.803365 0.751663
O O2 0.250194 0.947370 0.897736
O O3 0.337235 0.861949 0.642310
O O4 0.327088 0.040168 0.741922
O O5 0.500000 0.500000 0.612717
O O6 0.601916 0.601916 0.500000
O O7 0.396488 0.821145 0.500000
O O8 0.500000 0.000000 0.576903
#
# Coordination Sequence:
#
# PCOD9569598 Si02
#       3
#    16   8  16
#     4  11  24  42  61  88 123 159 202 245 299 361
#     4   9  18  32  56  90 115 145 198 246 288 341
#     4  10  20  37  60  88 121 155 196 250 300 350
#
# _framework density 20.357818000000002
#
# number of rings (size 3 to 8) (size 9 to 14) (size 15 to 20)
#    0.000    1.800    4.000    1.200    2.800    3.200 
#    0.000    0.000    0.000    0.000    0.000    2.800 
#    0.000    0.000    0.000    0.000    0.000    0.000 
#
# Total GULP energy -223097.616277 kJ/mol
# GULP energy per Si atom -5577.440407 kJ/mol
# Density = 2.031148 g / cm^3
# Si number density = 20.357818 Si / 1000 Ang^3
#
#
#
# Elastic Constant Matrix: (Units=GPa)
#
#
# Indices 1 2 3 4 5 6 
#
# 1 69.4330 56.3481 -5.1217 0.0000 0.0000 0.0000
# 2 56.3481 69.4330 -5.1217 0.0000 0.0000 0.0000
# 3 -5.1217 -5.1217 104.6425 0.0000 0.0000 0.0000
# 4 0.0000 0.0000 0.0000 17.6411 0.0000 0.0000
# 5 0.0000 0.0000 0.0000 0.0000 17.6411 0.0000
# 6 0.0000 0.0000 0.0000 0.0000 0.0000 39.1697
#
#
#
# Elastic Compliance Matrix: (Units=1/GPa)
#
#
# Indices 1 2 3 4 5 6 
#
# 1 0.042203 -0.034221 0.000391 0.000000 0.000000 0.000000
# 2 -0.034221 0.042203 0.000391 0.000000 0.000000 0.000000
# 3 0.000391 0.000391 0.009595 0.000000 0.000000 0.000000
# 4 0.000000 0.000000 0.000000 0.056686 0.000000 0.000000
# 5 0.000000 0.000000 0.000000 0.000000 0.056686 0.000000
# 6 0.000000 0.000000 0.000000 0.000000 0.000000 0.025530
#
#
# Mechanical properties :
#
#
# Convention : Reuss Voigt Hill
#
# Bulk Modulus (GPa) = 36.87098 37.30198 37.08648
# Shear Modulus (GPa) = 16.19058 28.05063 22.12061
#
# Velocity S-wave (km/s) = 2.82317 3.71601 3.29992
# Velocity P-wave (km/s) = 5.36449 6.06420 5.72505
#
# Compressibility (1/GPa) = 0.02712160
#
# Stress axis : x y z
#
# Youngs Moduli (GPa) = 23.69501 23.69501 104.22538
#
# Poissons Ratio (x) = 0.81086 -0.04072
# Poissons Ratio (y) = 0.81086 -0.04072
# Poissons Ratio (z) = -0.00926 -0.00926
#
# Static dielectric constant tensor:
#      x y z
#    x 1.697610 0.000000 0.000000 
#    y 0.000000 1.697610 0.000000 
#    z 0.000000 0.000000 1.815910 
# 
# From -- ./inp_files/4365.got.cif
#   From: 2010.05.17/outbox.cif.g08.bks.cpg/sg136_3_cif.got.tgz:4365.got - 2010.05.20 12:54:53.
