data_PCOD9569982
_publ_section_title
;
Structure prediction by ZEFSAII (Michael W. Deem and Ramdas Pophale) SiO2 
 PCOD9569982
Probable space group: P 42/N M C
;
_chemical_formula_sum "Si O2"
_cell_formula_units_Z 96
_cell_length_a 14.821830
_cell_length_b 14.821830
_cell_length_c 24.074273
_cell_angle_alpha 90.000000
_cell_angle_beta 90.000000
_cell_angle_gamma 90.000000
_cell_volume 5288.796255
_symmetry_space_group_name_H-M "P 42/N M C"
_symmetry_group_IT_number 137
_space_group.IT_coordinate_system_code '2'
_symmetry_cell_setting 'tetragonal'
loop_
_space_group_symop_operation_xyz
x,y,z
1/2-y,x,1/2+z
1/2-x,1/2-y,z
y,1/2-x,1/2+z
1/2+x,-y,-z
-x,1/2+y,-z
1/2+y,1/2+x,1/2-z
-y,-x,1/2-z
-x,-y,-z
1/2+y,-x,1/2-z
1/2+x,1/2+y,-z
-y,1/2+x,1/2-z
1/2-x,y,z
x,1/2-y,z
1/2-y,1/2-x,1/2+z
y,x,1/2+z
loop_
_atom_site_type_symbol
_atom_site_label
_atom_site_fract_x
_atom_site_fract_y
_atom_site_fract_z
Si Si1 0.640498 0.944122 0.489881
Si Si2 0.142115 0.556073 0.620850
Si Si3 0.444691 0.647130 0.095637
Si Si4 0.750000 0.945045 0.852016
Si Si5 0.995682 0.943753 0.310623
Si Si6 0.750000 0.141660 0.071615
Si Si7 0.398649 0.750000 0.445378
Si Si8 0.854563 0.750000 0.457862
O O1 0.750000 0.943158 0.492195
O O2 0.605964 0.842946 0.481348
O O3 0.618729 0.000780 0.435143
O O4 0.610999 0.992052 0.546070
O O5 0.250000 0.546775 0.630987
O O6 0.122643 0.660152 0.606708
O O7 0.081981 0.511985 0.668677
O O8 0.470321 0.750000 0.110168
O O9 0.449554 0.579899 0.147043
O O10 0.343352 0.649031 0.071216
O O11 0.750000 0.856705 0.890630
O O12 0.658898 0.958873 0.817347
O O13 0.750000 0.016113 0.903658
O O14 0.030309 0.969692 0.250000
O O15 0.750000 0.250000 0.058885
O O16 0.750000 0.092826 0.011942
O O17 0.750000 0.750000 0.475094
#
# Coordination Sequence:
#
# PCOD9569982 Si02
#       8
#    16  16  16   8  16   8   8   8
#     4   9  17  30  55  88 115 148 178 228 289 347
#     4  10  20  37  61  89 119 147 189 232 288 347
#     4  10  20  35  57  83 119 153 184 229 286 347
#     4  10  22  36  56  84 110 146 199 239 280 329
#     4  11  25  41  58  81 110 154 202 245 278 328
#     4  10  18  32  60  92 124 148 171 220 293 362
#     4  10  18  30  54  90 122 148 175 219 286 359
#     4  10  18  32  56  86 116 146 184 232 287 346
#
# _framework density 18.151579999999999
#
# number of rings (size 3 to 8) (size 9 to 14) (size 15 to 20)
#    0.000    2.000    3.333    0.750    1.167    2.000 
#    1.500    0.000    0.000    0.000    0.000    0.000 
#    0.000    0.000    0.000    0.000    0.000    0.000 
#
# Total GULP energy -535607.795602 kJ/mol
# GULP energy per Si atom -5579.247871 kJ/mol
# Density = 1.811027 g / cm^3
# Si number density = 18.151580 Si / 1000 Ang^3
#
#
#
# Elastic Constant Matrix: (Units=GPa)
#
#
# Indices 1 2 3 4 5 6 
#
# 1 109.3068 43.2835 55.4873 0.0000 0.0000 0.0000
# 2 43.2835 109.3065 55.4873 0.0000 0.0000 0.0000
# 3 55.4873 55.4873 124.6339 0.0000 0.0000 0.0000
# 4 0.0000 0.0000 0.0000 23.0804 0.0000 0.0000
# 5 0.0000 0.0000 0.0000 0.0000 23.0803 0.0000
# 6 0.0000 0.0000 0.0000 0.0000 0.0000 11.7178
#
#
#
# Elastic Compliance Matrix: (Units=1/GPa)
#
#
# Indices 1 2 3 4 5 6 
#
# 1 0.012419 -0.002727 -0.004315 0.000000 0.000000 0.000000
# 2 -0.002727 0.012419 -0.004315 0.000000 0.000000 0.000000
# 3 -0.004315 -0.004315 0.011865 0.000000 0.000000 0.000000
# 4 0.000000 0.000000 0.000000 0.043327 0.000000 0.000000
# 5 0.000000 0.000000 0.000000 0.000000 0.043327 0.000000
# 6 0.000000 0.000000 0.000000 0.000000 0.000000 0.085340
#
#
# Mechanical properties :
#
#
# Convention : Reuss Voigt Hill
#
# Bulk Modulus (GPa) = 71.48193 72.41815 71.95004
# Shear Modulus (GPa) = 21.17986 24.17498 22.67742
#
# Velocity S-wave (km/s) = 3.41960 3.65340 3.53843
# Velocity P-wave (km/s) = 7.42008 7.60127 7.51122
#
# Compressibility (1/GPa) = 0.01398955
#
# Stress axis : x y z
#
# Youngs Moduli (GPa) = 80.52316 80.52287 84.27950
#
# Poissons Ratio (x) = 0.21962 0.36363
# Poissons Ratio (y) = 0.21962 0.36364
# Poissons Ratio (z) = 0.34743 0.34743
#
# Static dielectric constant tensor:
#      x y z
#    x 1.674040 0.000000 0.000000 
#    y 0.000000 1.674040 0.000000 
#    z 0.000000 0.000000 1.576690 
# 
# From -- ./inp_files/8916.got.cif
#   From: 2010.05.17/outbox.cif.g08.bks.cpg/sg137_5_cif.got.tgz:8916.got - 2010.05.20 13:01:12.
