data_PCOD9569309
_publ_section_title
;
Structure prediction by ZEFSAII (Michael W. Deem and Ramdas Pophale) SiO2 
 PCOD9569309
Probable space group: P 42/M N M
;
_chemical_formula_sum "Si O2"
_cell_formula_units_Z 72
_cell_length_a 21.569208
_cell_length_b 21.569208
_cell_length_c 9.107401
_cell_angle_alpha 90.000000
_cell_angle_beta 90.000000
_cell_angle_gamma 90.000000
_cell_volume 4237.042850
_symmetry_space_group_name_H-M "P 42/M N M"
_symmetry_group_IT_number 136
_symmetry_cell_setting 'tetragonal'
loop_
_space_group_symop_operation_xyz
x,y,z
1/2-y,1/2+x,1/2+z
-x,-y,z
1/2+y,1/2-x,1/2+z
1/2+x,1/2-y,1/2-z
1/2-x,1/2+y,1/2-z
y,x,-z
-y,-x,-z
-x,-y,-z
1/2+y,1/2-x,1/2-z
x,y,-z
1/2-y,1/2+x,1/2-z
1/2-x,1/2+y,1/2+z
1/2+x,1/2-y,1/2+z
-y,-x,z
y,x,z
loop_
_atom_site_type_symbol
_atom_site_label
_atom_site_fract_x
_atom_site_fract_y
_atom_site_fract_z
Si Si1 0.182076 0.488775 0.673088
Si Si2 0.628003 0.873489 0.827673
Si Si3 0.814183 0.957497 0.176139
Si Si4 0.753781 0.346051 0.834055
Si Si5 0.947504 0.947504 0.676404
O O1 0.177750 0.473547 0.500000
O O2 0.147683 0.554734 0.694646
O O3 0.146998 0.438165 0.768535
O O4 0.255668 0.496732 0.708152
O O5 0.679549 0.837487 0.735696
O O6 0.633387 0.860976 0.000000
O O7 0.786434 0.892746 0.235070
O O8 0.880719 0.966620 0.253739
O O9 0.822422 0.955785 0.000000
O O10 0.717754 0.282247 0.839644
O O11 0.757864 0.371709 0.000000
O O12 0.940397 0.940397 0.500000
O O13 0.000000 0.000000 0.703821
#
# Coordination Sequence:
#
# PCOD9569309 Si02
#       5
#    16  16  16  16   8
#     4   9  20  37  54  78 110 143 182 227 278 328
#     4  10  21  35  54  80 108 145 187 227 276 330
#     4  10  20  35  57  81 108 141 179 226 273 324
#     4  10  19  32  54  81 107 137 176 223 275 326
#     4  11  23  37  55  83 115 147 187 229 275 334
#
# _framework density 16.992985000000001
#
# number of rings (size 3 to 8) (size 9 to 14) (size 15 to 20)
#    0.000    2.111    1.111    3.667    0.000    8.000 
#    0.000    3.333    0.000    1.333    0.000    0.000 
#    0.000    0.000    0.000    0.000    0.000    0.000 
#
# Total GULP energy -401252.276234 kJ/mol
# GULP energy per Si atom -5572.948281 kJ/mol
# Density = 1.695431 g / cm^3
# Si number density = 16.992985 Si / 1000 Ang^3
#
#
#
# Elastic Constant Matrix: (Units=GPa)
#
#
# Indices 1 2 3 4 5 6 
#
# 1 65.1542 40.2790 53.5067 0.0000 0.0000 0.0000
# 2 40.2790 65.1542 53.5067 0.0000 0.0000 0.0000
# 3 53.5067 53.5067 90.3439 0.0000 0.0000 0.0000
# 4 0.0000 0.0000 0.0000 31.3861 0.0000 0.0000
# 5 0.0000 0.0000 0.0000 0.0000 31.3861 0.0000
# 6 0.0000 0.0000 0.0000 0.0000 0.0000 22.6563
#
#
#
# Elastic Compliance Matrix: (Units=1/GPa)
#
#
# Indices 1 2 3 4 5 6 
#
# 1 0.031990 -0.008211 -0.014083 0.000000 0.000000 0.000000
# 2 -0.008211 0.031990 -0.014083 0.000000 0.000000 0.000000
# 3 -0.014083 -0.014083 0.027751 0.000000 0.000000 0.000000
# 4 0.000000 0.000000 0.000000 0.031861 0.000000 0.000000
# 5 0.000000 0.000000 0.000000 0.000000 0.031861 0.000000
# 6 0.000000 0.000000 0.000000 0.000000 0.000000 0.044138
#
#
# Mechanical properties :
#
#
# Convention : Reuss Voigt Hill
#
# Bulk Modulus (GPa) = 52.69927 57.24853 54.97390
# Shear Modulus (GPa) = 17.94234 21.97636 19.95935
#
# Velocity S-wave (km/s) = 3.25294 3.60009 3.43091
# Velocity P-wave (km/s) = 6.72224 7.14448 6.93657
#
# Compressibility (1/GPa) = 0.01897560
#
# Stress axis : x y z
#
# Youngs Moduli (GPa) = 31.25991 31.25991 36.03529
#
# Poissons Ratio (x) = 0.25667 0.50749
# Poissons Ratio (y) = 0.25667 0.50749
# Poissons Ratio (z) = 0.44024 0.44024
#
# Static dielectric constant tensor:
#      x y z
#    x 1.572300 0.000000 0.000000 
#    y 0.000000 1.572300 0.000000 
#    z 0.000000 0.000000 1.582720 
# 
# From -- ./inp_files/1555.got.cif
#   From: 2010.05.17/outbox.cif.g08.bks.cpg/sg136_1_cif.got.tgz:1555.got - 2010.05.20 12:54:53.
