data_PCOD9569657
_publ_section_title
;
Structure prediction by ZEFSAII (Michael W. Deem and Ramdas Pophale) SiO2 
 PCOD9569657
Probable space group: P 42/M N M
;
_chemical_formula_sum "Si O2"
_cell_formula_units_Z 116
_cell_length_a 16.934226
_cell_length_b 16.934226
_cell_length_c 19.690352
_cell_angle_alpha 90.000000
_cell_angle_beta 90.000000
_cell_angle_gamma 90.000000
_cell_volume 5646.563064
_symmetry_space_group_name_H-M "P 42/M N M"
_symmetry_group_IT_number 136
_symmetry_cell_setting 'tetragonal'
loop_
_space_group_symop_operation_xyz
x,y,z
1/2-y,1/2+x,1/2+z
-x,-y,z
1/2+y,1/2-x,1/2+z
1/2+x,1/2-y,1/2-z
1/2-x,1/2+y,1/2-z
y,x,-z
-y,-x,-z
-x,-y,-z
1/2+y,1/2-x,1/2-z
x,y,-z
1/2-y,1/2+x,1/2-z
1/2-x,1/2+y,1/2+z
1/2+x,1/2-y,1/2+z
-y,-x,z
y,x,z
loop_
_atom_site_type_symbol
_atom_site_label
_atom_site_fract_x
_atom_site_fract_y
_atom_site_fract_z
Si Si1 0.178978 0.049702 0.816899
Si Si2 0.692336 0.859974 0.602500
Si Si3 0.076818 0.793680 0.302768
Si Si4 0.317077 0.967868 0.577597
Si Si5 0.586080 0.963379 0.157632
Si Si6 0.175944 0.175944 0.500000
Si Si7 0.226950 0.455311 0.421058
Si Si8 0.320372 0.143102 0.240807
O O1 0.096446 0.096446 0.819581
O O2 0.199784 0.996398 0.882870
O O3 0.247611 0.116186 0.806414
O O4 0.188570 0.990822 0.752612
O O5 0.651475 0.942696 0.583691
O O6 0.770499 0.865237 0.558887
O O7 0.639446 0.784575 0.581414
O O8 0.707007 0.855744 0.682089
O O9 0.128930 0.871071 0.314900
O O10 0.135887 0.724946 0.275230
O O11 0.041558 0.756517 0.371538
O O12 0.299066 0.948513 0.500000
O O13 0.387602 0.915545 0.607595
O O14 0.653226 0.018706 0.126379
O O15 0.616013 0.927049 0.228796
O O16 0.500000 0.000000 0.160700
O O17 0.221213 0.479267 0.500000
#
# Coordination Sequence:
#
# PCOD9569657 Si02
#       8
#    16  16  16  16  16   4  16  16
#     4  11  24  42  65  92 125 167 216 268 322 378
#     4  12  22  39  60  90 123 157 208 251 320 376
#     4  11  24  42  65  92 125 167 216 268 322 378
#     4  11  22  40  60  93 129 165 207 249 311 385
#     4  10  21  35  62  95 139 171 197 245 312 379
#     4  12  28  36  64  94 118 172 194 276 332 388
#     4  11  22  40  60  93 129 165 207 249 311 385
#     4  10  23  41  63  95 129 168 210 266 315 384
#
# _framework density 20.543471
#
# number of rings (size 3 to 8) (size 9 to 14) (size 15 to 20)
#    0.000    1.103    5.517    0.828    1.931    1.379 
#    2.483    0.000    0.000    4.966    0.000    2.897 
#    0.000    0.000    0.000    0.000    0.000    0.000 
#
# Total GULP energy -646760.472763 kJ/mol
# GULP energy per Si atom -5575.521317 kJ/mol
# Density = 2.049671 g / cm^3
# Si number density = 20.543471 Si / 1000 Ang^3
#
#
#
# Elastic Constant Matrix: (Units=GPa)
#
#
# Indices 1 2 3 4 5 6 
#
# 1 41.9489 45.2109 12.6780 0.0000 0.0000 0.0000
# 2 45.2109 41.9489 12.6780 0.0000 0.0000 0.0000
# 3 12.6780 12.6780 129.6005 0.0000 0.0000 0.0000
# 4 0.0000 0.0000 0.0000 14.4556 0.0000 0.0000
# 5 0.0000 0.0000 0.0000 0.0000 14.4556 0.0000
# 6 0.0000 0.0000 0.0000 0.0000 0.0000 47.5049
#
#
#
# Elastic Compliance Matrix: (Units=1/GPa)
#
#
# Indices 1 2 3 4 5 6 
#
# 1 -0.147379 0.159188 -0.001155 0.000000 0.000000 0.000000
# 2 0.159188 -0.147379 -0.001155 0.000000 0.000000 0.000000
# 3 -0.001155 -0.001155 0.007942 0.000000 0.000000 0.000000
# 4 0.000000 0.000000 0.000000 0.069177 0.000000 0.000000
# 5 0.000000 0.000000 0.000000 0.000000 0.069177 0.000000
# 6 0.000000 0.000000 0.000000 0.000000 0.000000 0.021050
#
#
# Mechanical properties :
#
#
# Convention : Reuss Voigt Hill
#
# Bulk Modulus (GPa) = 37.12002 39.40356 38.26179
# Shear Modulus (GPa) = -11.56909 24.81198 6.62144
#
# Velocity S-wave (km/s) = -2.37566 3.47908 1.79726
# Velocity P-wave (km/s) = 3.25319 5.94650 4.79292
#
# Compressibility (1/GPa) = 0.02693964
#
# Stress axis : x y z
#
# Youngs Moduli (GPa) = -6.78523 -6.78523 125.91231
#
# Poissons Ratio (x) = 1.08013 0.14546
# Poissons Ratio (y) = 1.08013 0.14546
# Poissons Ratio (z) = -0.00784 -0.00784
#
# Static dielectric constant tensor:
#      x y z
#    x 1.836910 0.000000 0.000000 
#    y 0.000000 1.836910 0.000000 
#    z 0.000000 0.000000 1.726810 
# 
# From -- ./inp_files/6484.got.cif
#   From: 2010.05.17/outbox.cif.g08.bks.cpg/sg136_4_cif.got.tgz:6484.got - 2010.05.20 12:54:53.
