data_PCOD9569545
_publ_section_title
;
Structure prediction by ZEFSAII (Michael W. Deem and Ramdas Pophale) SiO2 
 PCOD9569545
Probable space group: P 42/M N M
;
_chemical_formula_sum "Si O2"
_cell_formula_units_Z 64
_cell_length_a 17.375113
_cell_length_b 17.375113
_cell_length_c 8.671135
_cell_angle_alpha 90.000000
_cell_angle_beta 90.000000
_cell_angle_gamma 90.000000
_cell_volume 2617.768414
_symmetry_space_group_name_H-M "P 42/M N M"
_symmetry_group_IT_number 136
_symmetry_cell_setting 'tetragonal'
loop_
_space_group_symop_operation_xyz
x,y,z
1/2-y,1/2+x,1/2+z
-x,-y,z
1/2+y,1/2-x,1/2+z
1/2+x,1/2-y,1/2-z
1/2-x,1/2+y,1/2-z
y,x,-z
-y,-x,-z
-x,-y,-z
1/2+y,1/2-x,1/2-z
x,y,-z
1/2-y,1/2+x,1/2-z
1/2-x,1/2+y,1/2+z
1/2+x,1/2-y,1/2+z
-y,-x,z
y,x,z
loop_
_atom_site_type_symbol
_atom_site_label
_atom_site_fract_x
_atom_site_fract_y
_atom_site_fract_z
Si Si1 0.890693 0.459055 0.820782
Si Si2 0.626253 0.493716 0.178266
Si Si3 0.716998 0.841685 0.179015
Si Si4 0.396258 0.266387 0.668960
O O1 0.905636 0.535299 0.719756
O O2 0.813481 0.413341 0.777208
O O3 0.891746 0.479778 0.000000
O O4 0.583178 0.416823 0.232521
O O5 0.560286 0.560286 0.177628
O O6 0.694550 0.524531 0.282513
O O7 0.649936 0.484017 0.000000
O O8 0.790948 0.790948 0.231752
O O9 0.644006 0.784213 0.200392
O O10 0.726967 0.861255 0.000000
O O11 0.399076 0.227946 0.500000
O O12 0.337181 0.337181 0.654112
#
# Coordination Sequence:
#
# PCOD9569545 Si02
#       4
#    16  16  16  16
#     4  11  22  39  64  94 129 166 210 260 315 377
#     4   8  13  21  33  50  76 115 164 217 273 333
#     4  10  20  35  57  86 121 160 202 249 305 369
#     4   9  16  25  39  63  95 131 174 224 278 336
#
# _framework density 24.448305000000001
#
# number of rings (size 3 to 8) (size 9 to 14) (size 15 to 20)
#    0.000    2.500    0.000    5.250    0.000    5.000 
#    0.000    2.500    0.000    1.500    0.000    0.000 
#    0.000    0.000    0.000    0.000    0.000    0.000 
#
# Total GULP energy -357687.384798 kJ/mol
# GULP energy per Si atom -5588.865387 kJ/mol
# Density = 2.439266 g / cm^3
# Si number density = 24.448305 Si / 1000 Ang^3
#
#
#
# Elastic Constant Matrix: (Units=GPa)
#
#
# Indices 1 2 3 4 5 6 
#
# 1 36.2199 74.9206 15.3960 0.0000 0.0000 0.0000
# 2 74.9206 36.2199 15.3960 0.0000 0.0000 0.0000
# 3 15.3960 15.3960 77.0541 0.0000 0.0000 0.0000
# 4 0.0000 0.0000 0.0000 26.5626 0.0000 0.0000
# 5 0.0000 0.0000 0.0000 0.0000 26.5626 0.0000
# 6 0.0000 0.0000 0.0000 0.0000 0.0000 66.3667
#
#
#
# Elastic Compliance Matrix: (Units=1/GPa)
#
#
# Indices 1 2 3 4 5 6 
#
# 1 -0.008157 0.017682 -0.001903 0.000000 0.000000 0.000000
# 2 0.017682 -0.008157 -0.001903 0.000000 0.000000 0.000000
# 3 -0.001903 -0.001903 0.013738 0.000000 0.000000 0.000000
# 4 0.000000 0.000000 0.000000 0.037647 0.000000 0.000000
# 5 0.000000 0.000000 0.000000 0.000000 0.037647 0.000000
# 6 0.000000 0.000000 0.000000 0.000000 0.000000 0.015068
#
#
# Mechanical properties :
#
#
# Convention : Reuss Voigt Hill
#
# Bulk Modulus (GPa) = 39.72094 40.10210 39.91152
# Shear Modulus (GPa) = 73.07192 26.81716 49.94454
#
# Velocity S-wave (km/s) = 5.47295 3.31553 4.52471
# Velocity P-wave (km/s) = 7.49799 5.57633 6.60739
#
# Compressibility (1/GPa) = 0.02517564
#
# Stress axis : x y z
#
# Youngs Moduli (GPa) = -122.59095 -122.59095 72.78860
#
# Poissons Ratio (x) = 2.16767 0.13853
# Poissons Ratio (y) = 2.16767 0.13853
# Poissons Ratio (z) = -0.23331 -0.23331
#
# Static dielectric constant tensor:
#      x y z
#    x 2.045330 0.000000 0.000000 
#    y 0.000000 2.045330 0.000000 
#    z 0.000000 0.000000 1.872400 
# 
# From -- ./inp_files/1426.got.cif
#   From: 2010.05.17/outbox.cif.g08.bks.cpg/sg136_1_cif.got.tgz:1426.got - 2010.05.20 12:54:53.
