data_PCOD9569943
_publ_section_title
;
Structure prediction by ZEFSAII (Michael W. Deem and Ramdas Pophale) SiO2 
 PCOD9569943
Probable space group: P 42/N M C
;
_chemical_formula_sum "Si O2"
_cell_formula_units_Z 112
_cell_length_a 15.747985
_cell_length_b 15.747985
_cell_length_c 25.968466
_cell_angle_alpha 90.000000
_cell_angle_beta 90.000000
_cell_angle_gamma 90.000000
_cell_volume 6440.154419
_symmetry_space_group_name_H-M "P 42/N M C"
_symmetry_group_IT_number 137
_space_group.IT_coordinate_system_code '2'
_symmetry_cell_setting 'tetragonal'
loop_
_space_group_symop_operation_xyz
x,y,z
1/2-y,x,1/2+z
1/2-x,1/2-y,z
y,1/2-x,1/2+z
1/2+x,-y,-z
-x,1/2+y,-z
1/2+y,1/2+x,1/2-z
-y,-x,1/2-z
-x,-y,-z
1/2+y,-x,1/2-z
1/2+x,1/2+y,-z
-y,1/2+x,1/2-z
1/2-x,y,z
x,1/2-y,z
1/2-y,1/2-x,1/2+z
y,x,1/2+z
loop_
_atom_site_type_symbol
_atom_site_label
_atom_site_fract_x
_atom_site_fract_y
_atom_site_fract_z
Si Si1 0.843480 0.853204 0.236244
Si Si2 0.072771 0.002535 0.543475
Si Si3 0.151652 0.850926 0.009370
Si Si4 0.096675 0.148651 0.874827
Si Si5 0.061562 0.577007 0.388526
Si Si6 0.657001 0.851419 0.013516
Si Si7 0.974574 0.150663 0.719413
O O1 0.750000 0.881623 0.254521
O O2 0.842011 0.750000 0.236340
O O3 0.857793 0.881553 0.177007
O O4 0.928501 0.876255 0.267304
O O5 0.128153 0.082838 0.526066
O O6 0.024030 0.026590 0.595235
O O7 0.121377 0.914256 0.535254
O O8 0.000000 0.000000 0.500000
O O9 0.250000 0.868843 0.997296
O O10 0.142134 0.750000 0.018397
O O11 0.124526 0.900452 0.061522
O O12 0.106739 0.250000 0.875791
O O13 0.132856 0.115784 0.929301
O O14 0.997510 0.126334 0.872726
O O15 0.043659 0.637622 0.340880
O O16 0.750000 0.884551 0.998365
O O17 0.661656 0.750000 0.017366
O O18 0.908890 0.091111 0.750000
O O19 0.964786 0.250000 0.733683
#
# Coordination Sequence:
#
# PCOD9569943 Si02
#       7
#    16  16  16  16  16  16  16
#     4   9  18  34  55  77 102 137 180 228 278 323
#     4  10  20  33  49  73 105 139 174 220 264 313
#     4  10  20  35  55  76 106 150 189 220 263 327
#     4  10  17  30  53  77 103 133 172 222 274 323
#     4  11  21  35  51  79 110 146 178 222 277 323
#     4  10  19  31  50  75 102 133 173 222 271 319
#     4  11  23  38  57  81 117 152 186 230 275 336
#
# _framework density 17.390886999999999
#
# number of rings (size 3 to 8) (size 9 to 14) (size 15 to 20)
#    0.000    1.857    4.286    1.714    0.000    5.286 
#    0.000    1.429    0.000    1.714    0.000    0.000 
#    0.000    0.286    0.000    0.143    0.000    0.000 
#
# Total GULP energy -624093.236792 kJ/mol
# GULP energy per Si atom -5572.261043 kJ/mol
# Density = 1.735130 g / cm^3
# Si number density = 17.390887 Si / 1000 Ang^3
#
#
#
# Elastic Constant Matrix: (Units=GPa)
#
#
# Indices 1 2 3 4 5 6 
#
# 1 87.7912 32.0643 14.8453 0.0000 0.0000 0.0000
# 2 32.0643 87.7920 14.8461 0.0000 0.0000 0.0000
# 3 14.8453 14.8461 35.3602 0.0000 0.0000 0.0000
# 4 0.0000 0.0000 0.0000 13.1492 0.0000 0.0000
# 5 0.0000 0.0000 0.0000 0.0000 13.1493 0.0000
# 6 0.0000 0.0000 0.0000 0.0000 0.0000 14.7540
#
#
#
# Elastic Compliance Matrix: (Units=1/GPa)
#
#
# Indices 1 2 3 4 5 6 
#
# 1 0.013628 -0.004316 -0.003909 0.000000 0.000000 0.000000
# 2 -0.004316 0.013628 -0.003910 0.000000 0.000000 0.000000
# 3 -0.003909 -0.003910 0.031563 0.000000 0.000000 0.000000
# 4 0.000000 0.000000 0.000000 0.076050 0.000000 0.000000
# 5 0.000000 0.000000 0.000000 0.000000 0.076050 0.000000
# 6 0.000000 0.000000 0.000000 0.000000 0.000000 0.067778
#
#
# Mechanical properties :
#
#
# Convention : Reuss Voigt Hill
#
# Bulk Modulus (GPa) = 28.94456 37.16165 33.05310
# Shear Modulus (GPa) = 15.89903 18.15635 17.02769
#
# Velocity S-wave (km/s) = 3.02688 3.23463 3.13248
# Velocity P-wave (km/s) = 5.37547 5.94687 5.66837
#
# Compressibility (1/GPa) = 0.03454881
#
# Stress axis : x y z
#
# Youngs Moduli (GPa) = 73.37733 73.37744 31.68250
#
# Poissons Ratio (x) = 0.31672 0.12386
# Poissons Ratio (y) = 0.31672 0.12387
# Poissons Ratio (z) = 0.28685 0.28688
#
# Static dielectric constant tensor:
#      x y z
#    x 1.616290 0.000000 0.000000 
#    y 0.000000 1.616290 0.000000 
#    z 0.000000 0.000000 1.598850 
# 
# From -- ./inp_files/9824.got.cif
#   From: 2010.05.17/outbox.cif.g08.bks.cpg/sg137_5_cif.got.tgz:9824.got - 2010.05.20 13:01:12.
