data_PCOD9569379
_publ_section_title
;
Structure prediction by ZEFSAII (Michael W. Deem and Ramdas Pophale) SiO2 
 PCOD9569379
Probable space group: P 42/M N M
;
_chemical_formula_sum "Si O2"
_cell_formula_units_Z 116
_cell_length_a 26.806815
_cell_length_b 26.806815
_cell_length_c 7.671295
_cell_angle_alpha 90.000000
_cell_angle_beta 90.000000
_cell_angle_gamma 90.000000
_cell_volume 5512.633478
_symmetry_space_group_name_H-M "P 42/M N M"
_symmetry_group_IT_number 136
_symmetry_cell_setting 'tetragonal'
loop_
_space_group_symop_operation_xyz
x,y,z
1/2-y,1/2+x,1/2+z
-x,-y,z
1/2+y,1/2-x,1/2+z
1/2+x,1/2-y,1/2-z
1/2-x,1/2+y,1/2-z
y,x,-z
-y,-x,-z
-x,-y,-z
1/2+y,1/2-x,1/2-z
x,y,-z
1/2-y,1/2+x,1/2-z
1/2-x,1/2+y,1/2+z
1/2+x,1/2-y,1/2+z
-y,-x,z
y,x,z
loop_
_atom_site_type_symbol
_atom_site_label
_atom_site_fract_x
_atom_site_fract_y
_atom_site_fract_z
Si Si1 0.636217 0.716389 0.790515
Si Si2 0.224852 0.146628 0.710298
Si Si3 0.904925 0.404815 0.802816
Si Si4 0.667625 0.823572 0.205841
Si Si5 0.150507 0.957106 0.805797
Si Si6 0.923497 0.076504 0.500000
Si Si7 0.347976 0.002802 0.294863
Si Si8 0.467739 0.737851 0.211814
O O1 0.688187 0.688187 0.761360
O O2 0.641073 0.773081 0.732595
O O3 0.593195 0.683783 0.706557
O O4 0.626774 0.715680 0.000000
O O5 0.223940 0.145490 0.500000
O O6 0.175199 0.175199 0.770401
O O7 0.273452 0.177576 0.765947
O O8 0.232205 0.089698 0.768959
O O9 0.855466 0.370997 0.800092
O O10 0.887052 0.456743 0.719783
O O11 0.948325 0.371639 0.720106
O O12 0.921983 0.414121 0.000000
O O13 0.657754 0.828754 0.000000
O O14 0.109863 0.951800 0.653980
O O15 0.190643 0.000745 0.774651
O O16 0.129037 0.961403 0.000000
O O17 0.344422 0.015048 0.500000
O O18 0.291392 0.009749 0.227914
O O19 0.469709 0.737280 0.000000
#
# Coordination Sequence:
#
# PCOD9569379 Si02
#       8
#    16  16  16  16  16   4  16  16
#     4  10  19  35  52  77 122 165 199 251 313 373
#     4  10  21  39  63  90 123 164 209 256 310 378
#     4  11  23  40  59  83 115 157 209 268 314 373
#     4  11  22  35  57  84 121 163 201 248 318 375
#     4  12  23  37  63  93 124 173 214 254 315 383
#     4  12  22  44  60  90 141 162 206 272 320 366
#     4  10  22  40  61  83 119 163 207 263 329 378
#     4  10  20  40  62  86 127 169 207 264 324 373
#
# _framework density 21.042576
#
# number of rings (size 3 to 8) (size 9 to 14) (size 15 to 20)
#    0.000    1.379    3.448    2.276    0.000    7.724 
#    0.000    1.379    0.000    0.000    0.000    0.966 
#    0.000    1.103    0.000    0.000    0.000    0.000 
#
# Total GULP energy -646971.330616 kJ/mol
# GULP energy per Si atom -5577.339057 kJ/mol
# Density = 2.099468 g / cm^3
# Si number density = 21.042576 Si / 1000 Ang^3
#
#
#
# Elastic Constant Matrix: (Units=GPa)
#
#
# Indices 1 2 3 4 5 6 
#
# 1 54.0369 22.1808 6.2074 0.0000 0.0000 0.0000
# 2 22.1808 54.0375 6.2078 0.0000 0.0000 0.0000
# 3 6.2074 6.2078 77.0481 0.0000 0.0000 0.0000
# 4 0.0000 0.0000 0.0000 12.2975 0.0000 0.0000
# 5 0.0000 0.0000 0.0000 0.0000 12.2976 0.0000
# 6 0.0000 0.0000 0.0000 0.0000 0.0000 32.8081
#
#
#
# Elastic Compliance Matrix: (Units=1/GPa)
#
#
# Indices 1 2 3 4 5 6 
#
# 1 0.022343 -0.009048 -0.001071 0.000000 0.000000 0.000000
# 2 -0.009048 0.022343 -0.001071 0.000000 0.000000 0.000000
# 3 -0.001071 -0.001071 0.013151 0.000000 0.000000 0.000000
# 4 0.000000 0.000000 0.000000 0.081317 0.000000 0.000000
# 5 0.000000 0.000000 0.000000 0.000000 0.081317 0.000000
# 6 0.000000 0.000000 0.000000 0.000000 0.000000 0.030480
#
#
# Mechanical properties :
#
#
# Convention : Reuss Voigt Hill
#
# Bulk Modulus (GPa) = 28.20360 28.25717 28.23039
# Shear Modulus (GPa) = 17.53457 21.51573 19.52515
#
# Velocity S-wave (km/s) = 2.88981 3.20110 3.04943
# Velocity P-wave (km/s) = 4.95650 5.20773 5.08367
#
# Compressibility (1/GPa) = 0.03545646
#
# Stress axis : x y z
#
# Youngs Moduli (GPa) = 44.75695 44.75737 76.03696
#
# Poissons Ratio (x) = 0.40497 0.08144
# Poissons Ratio (y) = 0.40496 0.08145
# Poissons Ratio (z) = 0.04794 0.04794
#
# Static dielectric constant tensor:
#      x y z
#    x 1.758230 0.000000 0.000000 
#    y 0.000000 1.758230 0.000000 
#    z 0.000000 0.000000 1.795980 
# 
# From -- ./inp_files/2293.got.cif
#   From: 2010.05.17/outbox.cif.g08.bks.cpg/sg136_2_cif.got.tgz:2293.got - 2010.05.20 12:54:53.
