data_PCOD9569166
_publ_section_title
;
Structure prediction by ZEFSAII (Michael W. Deem and Ramdas Pophale) SiO2 
 PCOD9569166
Probable space group: P 42/M N M
;
_chemical_formula_sum "Si O2"
_cell_formula_units_Z 88
_cell_length_a 17.415183
_cell_length_b 17.415183
_cell_length_c 16.478864
_cell_angle_alpha 90.000000
_cell_angle_beta 90.000000
_cell_angle_gamma 90.000000
_cell_volume 4997.851574
_symmetry_space_group_name_H-M "P 42/M N M"
_symmetry_group_IT_number 136
_symmetry_cell_setting 'tetragonal'
loop_
_space_group_symop_operation_xyz
x,y,z
1/2-y,1/2+x,1/2+z
-x,-y,z
1/2+y,1/2-x,1/2+z
1/2+x,1/2-y,1/2-z
1/2-x,1/2+y,1/2-z
y,x,-z
-y,-x,-z
-x,-y,-z
1/2+y,1/2-x,1/2-z
x,y,-z
1/2-y,1/2+x,1/2-z
1/2-x,1/2+y,1/2+z
1/2+x,1/2-y,1/2+z
-y,-x,z
y,x,z
loop_
_atom_site_type_symbol
_atom_site_label
_atom_site_fract_x
_atom_site_fract_y
_atom_site_fract_z
Si Si1 0.024534 0.228150 0.838153
Si Si2 0.998683 0.872736 0.678435
Si Si3 0.200341 0.675900 0.594180
Si Si4 0.499621 0.126189 0.755664
Si Si5 0.021690 0.716051 0.592423
Si Si6 0.000083 0.130975 0.000000
O O1 0.110457 0.260261 0.852329
O O2 0.981476 0.305887 0.808282
O O3 0.017679 0.168168 0.764605
O O4 0.999474 0.184713 0.920071
O O5 0.073094 0.926907 0.684920
O O6 0.011826 0.805175 0.614105
O O7 0.927499 0.927499 0.657273
O O8 0.211930 0.652367 0.500000
O O9 0.245494 0.754507 0.607593
O O10 0.110666 0.692152 0.604353
O O11 0.428109 0.069716 0.770035
O O12 0.522131 0.167424 0.839653
O O13 0.999836 0.699993 0.500000
O O14 0.928758 0.071243 0.000000
O O15 0.077501 0.077501 0.000000
#
# Coordination Sequence:
#
# PCOD9569166 Si02
#       6
#    16  16  16  16  16   8
#     4  11  20  34  57  83 115 154 192 236 289 342
#     4  10  21  36  55  81 115 153 189 229 284 346
#     4  10  18  30  51  80 111 142 184 237 284 330
#     4  10  21  40  59  83 114 148 191 241 292 343
#     4  10  21  37  57  84 111 144 191 238 283 333
#     4  11  22  36  58  89 124 158 195 238 284 350
#
# _framework density 17.607567
#
# number of rings (size 3 to 8) (size 9 to 14) (size 15 to 20)
#    0.000    1.727    2.727    2.727    0.000    2.909 
#    1.636    1.818    0.000    0.000    0.000    0.000 
#    0.000    0.000    0.000    0.000    0.000    0.000 
#
# Total GULP energy -490642.716582 kJ/mol
# GULP energy per Si atom -5575.485416 kJ/mol
# Density = 1.756749 g / cm^3
# Si number density = 17.607567 Si / 1000 Ang^3
#
#
#
# Elastic Constant Matrix: (Units=GPa)
#
#
# Indices 1 2 3 4 5 6 
#
# 1 81.1210 23.5421 28.4541 0.0000 0.0000 0.0000
# 2 23.5421 81.1214 28.4542 0.0000 0.0000 0.0000
# 3 28.4541 28.4542 88.7974 0.0000 0.0000 0.0000
# 4 0.0000 0.0000 0.0000 23.5506 0.0000 0.0000
# 5 0.0000 0.0000 0.0000 0.0000 23.5505 0.0000
# 6 0.0000 0.0000 0.0000 0.0000 0.0000 19.4174
#
#
#
# Elastic Compliance Matrix: (Units=1/GPa)
#
#
# Indices 1 2 3 4 5 6 
#
# 1 0.014469 -0.002899 -0.003708 0.000000 0.000000 0.000000
# 2 -0.002899 0.014469 -0.003708 0.000000 0.000000 0.000000
# 3 -0.003708 -0.003708 0.013638 0.000000 0.000000 0.000000
# 4 0.000000 0.000000 0.000000 0.042462 0.000000 0.000000
# 5 0.000000 0.000000 0.000000 0.000000 0.042462 0.000000
# 6 0.000000 0.000000 0.000000 0.000000 0.000000 0.051500
#
#
# Mechanical properties :
#
#
# Convention : Reuss Voigt Hill
#
# Bulk Modulus (GPa) = 45.56215 45.77121 45.66668
# Shear Modulus (GPa) = 24.16124 24.67631 24.41878
#
# Velocity S-wave (km/s) = 3.70835 3.74767 3.72806
# Velocity P-wave (km/s) = 6.65345 6.69166 6.67259
#
# Compressibility (1/GPa) = 0.02194804
#
# Stress axis : x y z
#
# Youngs Moduli (GPa) = 69.11362 69.11389 73.32611
#
# Poissons Ratio (x) = 0.20033 0.27186
# Poissons Ratio (y) = 0.20033 0.27186
# Poissons Ratio (z) = 0.25625 0.25625
#
# Static dielectric constant tensor:
#      x y z
#    x 1.596070 0.000000 0.000000 
#    y 0.000000 1.596070 0.000000 
#    z 0.000000 0.000000 1.606840 
# 
# From -- ./inp_files/5031.got.cif
#   From: 2010.05.17/outbox.cif.g08.bks.cpg/sg136_3_cif.got.tgz:5031.got - 2010.05.20 12:54:53.
