data_PCOD9569602
_publ_section_title
;
Structure prediction by ZEFSAII (Michael W. Deem and Ramdas Pophale) SiO2 
 PCOD9569602
Probable space group: P 42/M N M
;
_chemical_formula_sum "Si O2"
_cell_formula_units_Z 56
_cell_length_a 11.598407
_cell_length_b 11.598407
_cell_length_c 22.675923
_cell_angle_alpha 90.000000
_cell_angle_beta 90.000000
_cell_angle_gamma 90.000000
_cell_volume 3050.434209
_symmetry_space_group_name_H-M "P 42/M N M"
_symmetry_group_IT_number 136
_symmetry_cell_setting 'tetragonal'
loop_
_space_group_symop_operation_xyz
x,y,z
1/2-y,1/2+x,1/2+z
-x,-y,z
1/2+y,1/2-x,1/2+z
1/2+x,1/2-y,1/2-z
1/2-x,1/2+y,1/2-z
y,x,-z
-y,-x,-z
-x,-y,-z
1/2+y,1/2-x,1/2-z
x,y,-z
1/2-y,1/2+x,1/2-z
1/2-x,1/2+y,1/2+z
1/2+x,1/2-y,1/2+z
-y,-x,z
y,x,z
loop_
_atom_site_type_symbol
_atom_site_label
_atom_site_fract_x
_atom_site_fract_y
_atom_site_fract_z
Si Si1 0.114114 0.575509 0.412987
Si Si2 0.346300 0.346300 0.937015
Si Si3 0.002572 0.805740 0.000000
Si Si4 0.854135 0.553850 0.782117
Si Si5 0.407055 0.407055 0.193171
O O1 0.126620 0.708619 0.434714
O O2 0.222538 0.511580 0.442997
O O3 0.106340 0.594945 0.342543
O O4 0.000000 0.500000 0.428641
O O5 0.399518 0.399518 0.878052
O O6 0.390016 0.390016 0.000000
O O7 0.896941 0.896941 0.000000
O O8 0.119290 0.880711 0.000000
O O9 0.884507 0.420059 0.771596
O O10 0.719082 0.564863 0.783629
O O11 0.500000 0.500000 0.211457
#
# Coordination Sequence:
#
# PCOD9569602 Si02
#       5
#    16   8   8  16   8
#     4  11  19  38  67  87 120 168 213 246 316 381
#     4  10  20  37  62  92 124 165 207 252 309 383
#     4  11  23  40  62  95 134 162 206 268 321 379
#     4  10  21  42  64  88 123 168 208 257 314 373
#     4  10  24  39  64  95 123 161 208 268 313 372
#
# _framework density 18.358041
#
# number of rings (size 3 to 8) (size 9 to 14) (size 15 to 20)
#    0.000    1.571    5.714    0.429    2.000    0.286 
#    2.571    5.714    0.000    0.000    0.000    0.000 
#    0.000    0.000    0.000    0.000    0.000    0.000 
#
# Total GULP energy -311749.828481 kJ/mol
# GULP energy per Si atom -5566.961223 kJ/mol
# Density = 1.831626 g / cm^3
# Si number density = 18.358041 Si / 1000 Ang^3
#
#
#
# Elastic Constant Matrix: (Units=GPa)
#
#
# Indices 1 2 3 4 5 6 
#
# 1 127.7386 93.9092 38.9555 0.0000 0.0000 0.0000
# 2 93.9092 127.7395 38.9556 0.0000 0.0000 0.0000
# 3 38.9555 38.9556 92.6313 0.0000 0.0000 0.0000
# 4 0.0000 0.0000 0.0000 33.1337 0.0000 0.0000
# 5 0.0000 0.0000 0.0000 0.0000 33.1317 0.0000
# 6 0.0000 0.0000 0.0000 0.0000 0.0000 21.2130
#
#
#
# Elastic Compliance Matrix: (Units=1/GPa)
#
#
# Indices 1 2 3 4 5 6 
#
# 1 0.017427 -0.012133 -0.002226 0.000000 0.000000 0.000000
# 2 -0.012133 0.017427 -0.002226 0.000000 0.000000 0.000000
# 3 -0.002226 -0.002226 0.012668 0.000000 0.000000 0.000000
# 4 0.000000 0.000000 0.000000 0.030181 0.000000 0.000000
# 5 0.000000 0.000000 0.000000 0.000000 0.030183 0.000000
# 6 0.000000 0.000000 0.000000 0.000000 0.000000 0.047141
#
#
# Mechanical properties :
#
#
# Convention : Reuss Voigt Hill
#
# Bulk Modulus (GPa) = 69.68254 76.86110 73.27182
# Shear Modulus (GPa) = 25.90923 29.24827 27.57875
#
# Velocity S-wave (km/s) = 3.76084 3.99584 3.88012
# Velocity P-wave (km/s) = 7.54311 7.95284 7.75068
#
# Compressibility (1/GPa) = 0.01435080
#
# Stress axis : x y z
#
# Youngs Moduli (GPa) = 57.38199 57.38243 78.93817
#
# Poissons Ratio (x) = 0.69621 0.17575
# Poissons Ratio (y) = 0.69620 0.17575
# Poissons Ratio (z) = 0.12776 0.12776
#
# Static dielectric constant tensor:
#      x y z
#    x 1.636280 0.000000 0.000000 
#    y 0.000000 1.636280 0.000000 
#    z 0.000000 0.000000 1.676620 
# 
# From -- ./inp_files/6992.got.cif
#   From: 2010.05.17/outbox.cif.g08.bks.cpg/sg136_4_cif.got.tgz:6992.got - 2010.05.20 12:54:53.
