data_PCOD9569031
_publ_section_title
;
Structure prediction by ZEFSAII (Michael W. Deem and Ramdas Pophale) SiO2 
 PCOD9569031
Probable space group: P 42/M B C
;
_chemical_formula_sum "Si O2"
_cell_formula_units_Z 32
_cell_length_a 10.210180
_cell_length_b 10.210180
_cell_length_c 13.162897
_cell_angle_alpha 90.000000
_cell_angle_beta 90.000000
_cell_angle_gamma 90.000000
_cell_volume 1372.202733
_symmetry_space_group_name_H-M "P 42/M B C"
_symmetry_group_IT_number 135
_symmetry_cell_setting 'tetragonal'
loop_
_space_group_symop_operation_xyz
x,y,z
-y,x,1/2+z
-x,-y,z
y,-x,1/2+z
1/2+x,1/2-y,-z
1/2-x,1/2+y,-z
1/2+y,1/2+x,1/2-z
1/2-y,1/2-x,1/2-z
-x,-y,-z
y,-x,1/2-z
x,y,-z
-y,x,1/2-z
1/2-x,1/2+y,z
1/2+x,1/2-y,z
1/2-y,1/2-x,1/2+z
1/2+y,1/2+x,1/2+z
loop_
_atom_site_type_symbol
_atom_site_label
_atom_site_fract_x
_atom_site_fract_y
_atom_site_fract_z
Si Si1 0.383845 0.264027 0.887327
Si Si2 0.017086 0.289259 0.304848
O O1 0.326282 0.119281 0.860077
O O2 0.519227 0.704731 0.794772
O O3 0.275627 0.377122 0.878134
O O4 0.441293 0.261413 0.000000
O O5 0.091804 0.408197 0.250000
#
# Coordination Sequence:
#
# PCOD9569031 Si02
#       2
#    16  16
#     4  11  24  44  74 103 141 188 231 286 353 408
#     4  11  23  47  71 104 143 178 237 291 334 425
#
# _framework density 23.320167000000001
#
# number of rings (size 3 to 8) (size 9 to 14) (size 15 to 20)
#    0.000    1.000    5.000    4.500    0.000    7.000 
#    0.000    2.500    0.000    0.000    0.000    0.000 
#    0.000    0.000    0.000    0.000    0.000    0.000 
#
# Total GULP energy -178564.614761 kJ/mol
# GULP energy per Si atom -5580.144211 kJ/mol
# Density = 2.326709 g / cm^3
# Si number density = 23.320167 Si / 1000 Ang^3
#
#
#
# Elastic Constant Matrix: (Units=GPa)
#
#
# Indices 1 2 3 4 5 6 
#
# 1 55.8153 68.9954 19.2686 0.0000 0.0000 0.0000
# 2 68.9954 55.8216 19.2770 0.0000 0.0000 0.0000
# 3 19.2686 19.2770 145.5309 0.0000 0.0000 0.0000
# 4 0.0000 0.0000 0.0000 2.6007 0.0000 0.0000
# 5 0.0000 0.0000 0.0000 0.0000 2.6042 0.0000
# 6 0.0000 0.0000 0.0000 0.0000 0.0000 37.8754
#
#
#
# Elastic Compliance Matrix: (Units=1/GPa)
#
#
# Indices 1 2 3 4 5 6 
#
# 1 -0.033769 0.042122 -0.001108 0.000000 0.000000 0.000000
# 2 0.042122 -0.033767 -0.001104 0.000000 0.000000 0.000000
# 3 -0.001108 -0.001104 0.007164 0.000000 0.000000 0.000000
# 4 0.000000 0.000000 0.000000 0.384506 0.000000 0.000000
# 5 0.000000 0.000000 0.000000 0.000000 0.383995 0.000000
# 6 0.000000 0.000000 0.000000 0.000000 0.000000 0.026402
#
#
# Mechanical properties :
#
#
# Convention : Reuss Voigt Hill
#
# Bulk Modulus (GPa) = 51.42324 52.47221 51.94773
# Shear Modulus (GPa) = 7.56207 18.59118 13.07662
#
# Velocity S-wave (km/s) = 1.80271 2.82656 2.37057
# Velocity P-wave (km/s) = 5.14119 5.76214 5.46050
#
# Compressibility (1/GPa) = 0.01944646
#
# Stress axis : x y z
#
# Youngs Moduli (GPa) = -29.61252 -29.61481 139.57902
#
# Poissons Ratio (x) = 1.24743 0.15470
# Poissons Ratio (y) = 1.24733 0.15413
# Poissons Ratio (z) = -0.03282 -0.03270
#
# Static dielectric constant tensor:
#      x y z
#    x 2.021720 0.000000 0.000000 
#    y 0.000000 2.021740 0.000000 
#    z 0.000000 0.000000 2.000650 
# 
# From -- ./inp_files/2787.got.cif
#   From: 2010.05.17/outbox.cif.g08.bks.cpg/sg135_2_cif.got.tgz:2787.got - 2010.05.20 12:50:20.
