data_PCOD9569801
_publ_section_title
;
Structure prediction by ZEFSAII (Michael W. Deem and Ramdas Pophale) SiO2 
 PCOD9569801
Probable space group: P 42/M N M
;
_chemical_formula_sum "Si O2"
_cell_formula_units_Z 38
_cell_length_a 11.120574
_cell_length_b 11.120574
_cell_length_c 17.218377
_cell_angle_alpha 90.000000
_cell_angle_beta 90.000000
_cell_angle_gamma 90.000000
_cell_volume 2129.347888
_symmetry_space_group_name_H-M "P 42/M N M"
_symmetry_group_IT_number 136
_symmetry_cell_setting 'tetragonal'
loop_
_space_group_symop_operation_xyz
x,y,z
1/2-y,1/2+x,1/2+z
-x,-y,z
1/2+y,1/2-x,1/2+z
1/2+x,1/2-y,1/2-z
1/2-x,1/2+y,1/2-z
y,x,-z
-y,-x,-z
-x,-y,-z
1/2+y,1/2-x,1/2-z
x,y,-z
1/2-y,1/2+x,1/2-z
1/2-x,1/2+y,1/2+z
1/2+x,1/2-y,1/2+z
-y,-x,z
y,x,z
loop_
_atom_site_type_symbol
_atom_site_label
_atom_site_fract_x
_atom_site_fract_y
_atom_site_fract_z
Si Si1 0.000000 0.500000 0.750000
Si Si2 0.500000 0.500000 0.500000
Si Si3 0.073877 0.273617 0.500000
Si Si4 0.693385 0.110665 0.366812
Si Si5 0.287100 0.025649 0.000000
O O1 0.949321 0.389598 0.698645
O O2 0.501362 0.647725 0.500000
O O3 0.183036 0.183036 0.500000
O O4 0.127205 0.408757 0.500000
O O5 0.992314 0.255301 0.576242
O O6 0.798623 0.201378 0.339817
O O7 0.603906 0.182383 0.424175
#
# Coordination Sequence:
#
# PCOD9569801 Si02
#       5
#     4   2   8  16   8
#     4  12  24  42  60  88 132 178 200 248 328 386
#     4  12  20  32  72 104 116 148 228 278 296 356
#     4  11  21  38  70  93 120 161 213 261 316 369
#     4  11  23  42  62  88 125 165 208 259 317 374
#     4  11  19  39  64  92 123 157 203 270 309 355
#
# _framework density 17.845838000000001
#
# number of rings (size 3 to 8) (size 9 to 14) (size 15 to 20)
#    0.000    0.842    7.368    3.158    0.000    3.368 
#    3.789    0.000    0.000    0.000    0.000    0.000 
#    0.000    0.000    0.000    0.000    0.000    0.000 
#
# Total GULP energy -211646.778770 kJ/mol
# GULP energy per Si atom -5569.652073 kJ/mol
# Density = 1.780522 g / cm^3
# Si number density = 17.845838 Si / 1000 Ang^3
#
#
#
# Elastic Constant Matrix: (Units=GPa)
#
#
# Indices 1 2 3 4 5 6 
#
# 1 100.4729 28.3882 24.4688 0.0000 0.0000 0.0000
# 2 28.3882 100.4729 24.4688 0.0000 0.0000 0.0000
# 3 24.4688 24.4688 84.4773 0.0000 0.0000 0.0000
# 4 0.0000 0.0000 0.0000 -31.6176 0.0000 0.0000
# 5 0.0000 0.0000 0.0000 0.0000 -31.6176 0.0000
# 6 0.0000 0.0000 0.0000 0.0000 0.0000 55.8918
#
#
#
# Elastic Compliance Matrix: (Units=1/GPa)
#
#
# Indices 1 2 3 4 5 6 
#
# 1 0.011296 -0.002577 -0.002526 0.000000 0.000000 0.000000
# 2 -0.002577 0.011296 -0.002526 0.000000 0.000000 0.000000
# 3 -0.002526 -0.002526 0.013301 0.000000 0.000000 0.000000
# 4 0.000000 0.000000 0.000000 -0.031628 0.000000 0.000000
# 5 0.000000 0.000000 0.000000 0.000000 -0.031628 0.000000
# 6 0.000000 0.000000 0.000000 0.000000 0.000000 0.017892
#
#
# Mechanical properties :
#
#
# Convention : Reuss Voigt Hill
#
# Bulk Modulus (GPa) = 48.45638 48.89719 48.67679
# Shear Modulus (GPa) = 394.85314 12.40446 203.62880
#
# Velocity S-wave (km/s) = 14.89088 2.63932 10.69355
# Velocity P-wave (km/s) = 17.96838 6.06195 13.40914
#
# Compressibility (1/GPa) = 0.02063712
#
# Stress axis : x y z
#
# Youngs Moduli (GPa) = 88.52693 88.52693 75.18479
#
# Poissons Ratio (x) = 0.22810 0.18989
# Poissons Ratio (y) = 0.22810 0.18989
# Poissons Ratio (z) = 0.22358 0.22358
#
# Static dielectric constant tensor:
#      x y z
#    x 1.610320 0.000000 0.000000 
#    y 0.000000 1.610320 0.000000 
#    z 0.000000 0.000000 1.580380 
# 
# From -- ./inp_files/4444.got.cif
#   From: 2010.05.17/outbox.cif.g08.bks.cpg/sg136_3_cif.got.tgz:4444.got - 2010.05.20 12:54:53.
