data_PCOD9569267
_publ_section_title
;
Structure prediction by ZEFSAII (Michael W. Deem and Ramdas Pophale) SiO2 
 PCOD9569267
Probable space group: P 42/M N M
;
_chemical_formula_sum "Si O2"
_cell_formula_units_Z 96
_cell_length_a 15.517078
_cell_length_b 15.517078
_cell_length_c 25.881599
_cell_angle_alpha 90.000000
_cell_angle_beta 90.000000
_cell_angle_gamma 90.000000
_cell_volume 6231.763893
_symmetry_space_group_name_H-M "P 42/M N M"
_symmetry_group_IT_number 136
_symmetry_cell_setting 'tetragonal'
loop_
_space_group_symop_operation_xyz
x,y,z
1/2-y,1/2+x,1/2+z
-x,-y,z
1/2+y,1/2-x,1/2+z
1/2+x,1/2-y,1/2-z
1/2-x,1/2+y,1/2-z
y,x,-z
-y,-x,-z
-x,-y,-z
1/2+y,1/2-x,1/2-z
x,y,-z
1/2-y,1/2+x,1/2-z
1/2-x,1/2+y,1/2+z
1/2+x,1/2-y,1/2+z
-y,-x,z
y,x,z
loop_
_atom_site_type_symbol
_atom_site_label
_atom_site_fract_x
_atom_site_fract_y
_atom_site_fract_z
Si Si1 0.929589 0.070412 0.280612
Si Si2 0.248511 0.387523 0.752012
Si Si3 0.131786 0.435250 0.345062
Si Si4 0.759773 0.518971 0.058877
Si Si5 0.936064 0.373395 0.345917
Si Si6 0.570888 0.570888 0.094805
Si Si7 0.176081 0.320004 0.440331
O O1 0.947848 0.166951 0.260026
O O2 0.925085 0.074916 0.342801
O O3 0.000000 0.000000 0.265806
O O4 0.293085 0.293085 0.749232
O O5 0.195095 0.410686 0.701393
O O6 0.187484 0.398992 0.801317
O O7 0.115237 0.537167 0.348502
O O8 0.168387 0.395181 0.398144
O O9 0.036736 0.395063 0.334585
O O10 0.823893 0.562486 0.099680
O O11 0.663188 0.544277 0.073145
O O12 0.770710 0.415591 0.063138
O O13 0.779826 0.543177 0.000000
O O14 0.500000 0.500000 0.080344
O O15 0.184738 0.349873 0.500000
O O16 0.253681 0.253681 0.429336
#
# Coordination Sequence:
#
# PCOD9569267 Si02
#       7
#     8  16  16  16  16   8  16
#     4   9  20  35  54  73 105 134 163 209 258 292
#     4  10  19  34  54  72 101 129 168 209 252 303
#     4  10  20  33  54  74  99 135 172 203 256 308
#     4  10  19  31  48  72 103 139 173 208 247 301
#     4  10  20  35  49  74 104 134 167 212 251 299
#     4  11  19  32  51  72 104 143 176 208 251 306
#     4   9  18  32  49  74 103 126 164 215 257 298
#
# _framework density 15.404947999999999
#
# number of rings (size 3 to 8) (size 9 to 14) (size 15 to 20)
#    0.500    1.667    1.667    2.250    0.000    3.333 
#    0.000    6.667    0.000    0.000    0.000    0.000 
#    0.000    0.667    0.000    0.000    0.000    0.000 
#
# Total GULP energy -534955.308193 kJ/mol
# GULP energy per Si atom -5572.451127 kJ/mol
# Density = 1.536989 g / cm^3
# Si number density = 15.404948 Si / 1000 Ang^3
#
#
#
# Elastic Constant Matrix: (Units=GPa)
#
#
# Indices 1 2 3 4 5 6 
#
# 1 104.9708 69.2155 80.8065 0.0000 0.0000 0.0000
# 2 69.2155 104.9708 80.8065 0.0000 0.0000 0.0000
# 3 80.8065 80.8065 135.1478 0.0000 0.0000 0.0000
# 4 0.0000 0.0000 0.0000 34.4552 0.0000 0.0000
# 5 0.0000 0.0000 0.0000 0.0000 34.4552 0.0000
# 6 0.0000 0.0000 0.0000 0.0000 0.0000 19.5932
#
#
#
# Elastic Compliance Matrix: (Units=1/GPa)
#
#
# Indices 1 2 3 4 5 6 
#
# 1 0.020431 -0.007537 -0.007709 0.000000 0.000000 0.000000
# 2 -0.007537 0.020431 -0.007709 0.000000 0.000000 0.000000
# 3 -0.007709 -0.007709 0.016618 0.000000 0.000000 0.000000
# 4 0.000000 0.000000 0.000000 0.029023 0.000000 0.000000
# 5 0.000000 0.000000 0.000000 0.000000 0.029023 0.000000
# 6 0.000000 0.000000 0.000000 0.000000 0.000000 0.051038
#
#
# Mechanical properties :
#
#
# Convention : Reuss Voigt Hill
#
# Bulk Modulus (GPa) = 86.44128 89.63851 88.03990
# Shear Modulus (GPa) = 23.11255 25.31812 24.21534
#
# Velocity S-wave (km/s) = 3.87762 4.05842 3.96905
# Velocity P-wave (km/s) = 8.73398 8.95966 8.84754
#
# Compressibility (1/GPa) = 0.01156855
#
# Stress axis : x y z
#
# Youngs Moduli (GPa) = 48.94538 48.94538 60.17412
#
# Poissons Ratio (x) = 0.36890 0.46391
# Poissons Ratio (y) = 0.36890 0.46391
# Poissons Ratio (z) = 0.37734 0.37734
#
# Static dielectric constant tensor:
#      x y z
#    x 1.495860 0.000000 0.000000 
#    y 0.000000 1.495860 0.000000 
#    z 0.000000 0.000000 1.508770 
# 
# From -- ./inp_files/8418.got.cif
#   From: 2010.05.17/outbox.cif.g08.bks.cpg/sg136_5_cif.got.tgz:8418.got - 2010.05.20 12:54:53.
