data_PCOD9569610
_publ_section_title
;
Structure prediction by ZEFSAII (Michael W. Deem and Ramdas Pophale) SiO2 
 PCOD9569610
Probable space group: P 42/M N M
;
_chemical_formula_sum "Si O2"
_cell_formula_units_Z 104
_cell_length_a 17.283623
_cell_length_b 17.283623
_cell_length_c 19.575150
_cell_angle_alpha 90.000000
_cell_angle_beta 90.000000
_cell_angle_gamma 90.000000
_cell_volume 5847.559748
_symmetry_space_group_name_H-M "P 42/M N M"
_symmetry_group_IT_number 136
_symmetry_cell_setting 'tetragonal'
loop_
_space_group_symop_operation_xyz
x,y,z
1/2-y,1/2+x,1/2+z
-x,-y,z
1/2+y,1/2-x,1/2+z
1/2+x,1/2-y,1/2-z
1/2-x,1/2+y,1/2-z
y,x,-z
-y,-x,-z
-x,-y,-z
1/2+y,1/2-x,1/2-z
x,y,-z
1/2-y,1/2+x,1/2-z
1/2-x,1/2+y,1/2+z
1/2+x,1/2-y,1/2+z
-y,-x,z
y,x,z
loop_
_atom_site_type_symbol
_atom_site_label
_atom_site_fract_x
_atom_site_fract_y
_atom_site_fract_z
Si Si1 0.563738 0.563738 0.918522
Si Si2 0.771732 0.039475 0.351564
Si Si3 0.822207 0.305193 0.419849
Si Si4 0.667724 0.908816 0.695993
Si Si5 0.734393 0.610642 0.702902
Si Si6 0.550161 0.924266 0.574404
Si Si7 0.043362 0.302191 0.846993
O O1 0.500000 0.500000 0.899791
O O2 0.540186 0.647017 0.889442
O O3 0.568823 0.568823 0.000000
O O4 0.710111 0.089810 0.395449
O O5 0.777910 0.087717 0.281513
O O6 0.743736 0.953300 0.331424
O O7 0.820635 0.324518 0.500000
O O8 0.774339 0.225662 0.410667
O O9 0.781622 0.371970 0.374898
O O10 0.657729 0.815884 0.698331
O O11 0.605473 0.932468 0.639287
O O12 0.657149 0.941943 0.772918
O O13 0.665153 0.665153 0.678505
O O14 0.742997 0.527370 0.665759
O O15 0.587656 0.909197 0.500000
O O16 0.490946 0.857413 0.595172
O O17 0.500000 0.000000 0.569268
#
# Coordination Sequence:
#
# PCOD9569610 Si02
#       7
#     8  16  16  16  16  16  16
#     4  11  24  40  58  84 120 166 210 248 301 366
#     4  11  20  37  58  84 120 155 198 248 307 356
#     4  11  21  35  61  92 121 155 200 255 311 363
#     4  10  22  33  56  85 110 151 194 243 297 358
#     4  10  20  38  60  82 113 153 198 244 301 370
#     4  10  21  33  49  76 113 151 184 228 288 357
#     4  10  21  34  54  85 113 149 190 245 302 356
#
# _framework density 17.785195999999999
#
# number of rings (size 3 to 8) (size 9 to 14) (size 15 to 20)
#    0.000    1.615    3.077    1.846    4.308    3.077 
#    0.000    2.308    0.000   11.538    0.000    1.077 
#    0.000    0.000    0.000    0.000    0.000    0.000 
#
# Total GULP energy -579306.812988 kJ/mol
# GULP energy per Si atom -5570.257817 kJ/mol
# Density = 1.774472 g / cm^3
# Si number density = 17.785196 Si / 1000 Ang^3
#
#
#
# Elastic Constant Matrix: (Units=GPa)
#
#
# Indices 1 2 3 4 5 6 
#
# 1 65.2028 35.8290 26.8522 0.0000 0.0000 0.0000
# 2 35.8290 65.2028 26.8522 0.0000 0.0000 0.0000
# 3 26.8522 26.8522 90.9554 0.0000 0.0000 0.0000
# 4 0.0000 0.0000 0.0000 29.8183 0.0000 0.0000
# 5 0.0000 0.0000 0.0000 0.0000 29.8183 0.0000
# 6 0.0000 0.0000 0.0000 0.0000 0.0000 22.6517
#
#
#
# Elastic Compliance Matrix: (Units=1/GPa)
#
#
# Indices 1 2 3 4 5 6 
#
# 1 0.022892 -0.011152 -0.003466 0.000000 0.000000 0.000000
# 2 -0.011152 0.022892 -0.003466 0.000000 0.000000 0.000000
# 3 -0.003466 -0.003466 0.013041 0.000000 0.000000 0.000000
# 4 0.000000 0.000000 0.000000 0.033536 0.000000 0.000000
# 5 0.000000 0.000000 0.000000 0.000000 0.033536 0.000000
# 6 0.000000 0.000000 0.000000 0.000000 0.000000 0.044147
#
#
# Mechanical properties :
#
#
# Convention : Reuss Voigt Hill
#
# Bulk Modulus (GPa) = 44.13570 44.49199 44.31384
# Shear Modulus (GPa) = 23.39016 25.24615 24.31815
#
# Velocity S-wave (km/s) = 3.63043 3.77172 3.70175
# Velocity P-wave (km/s) = 6.51485 6.63614 6.57578
#
# Compressibility (1/GPa) = 0.02265739
#
# Stress axis : x y z
#
# Youngs Moduli (GPa) = 43.68318 43.68318 76.68180
#
# Poissons Ratio (x) = 0.48715 0.26578
# Poissons Ratio (y) = 0.48715 0.26578
# Poissons Ratio (z) = 0.15141 0.15141
#
# Static dielectric constant tensor:
#      x y z
#    x 1.616490 0.000000 0.000000 
#    y 0.000000 1.616490 0.000000 
#    z 0.000000 0.000000 1.627510 
# 
# From -- ./inp_files/6406.got.cif
#   From: 2010.05.17/outbox.cif.g08.bks.cpg/sg136_4_cif.got.tgz:6406.got - 2010.05.20 12:54:53.
