data_PCOD9569948
_publ_section_title
;
Structure prediction by ZEFSAII (Michael W. Deem and Ramdas Pophale) SiO2 
 PCOD9569948
Probable space group: P 42/N M C
;
_chemical_formula_sum "Si O2"
_cell_formula_units_Z 112
_cell_length_a 18.839898
_cell_length_b 18.839898
_cell_length_c 19.291254
_cell_angle_alpha 90.000000
_cell_angle_beta 90.000000
_cell_angle_gamma 90.000000
_cell_volume 6847.271583
_symmetry_space_group_name_H-M "P 42/N M C"
_symmetry_group_IT_number 137
_space_group.IT_coordinate_system_code '2'
_symmetry_cell_setting 'tetragonal'
loop_
_space_group_symop_operation_xyz
x,y,z
1/2-y,x,1/2+z
1/2-x,1/2-y,z
y,1/2-x,1/2+z
1/2+x,-y,-z
-x,1/2+y,-z
1/2+y,1/2+x,1/2-z
-y,-x,1/2-z
-x,-y,-z
1/2+y,-x,1/2-z
1/2+x,1/2+y,-z
-y,1/2+x,1/2-z
1/2-x,y,z
x,1/2-y,z
1/2-y,1/2-x,1/2+z
y,x,1/2+z
loop_
_atom_site_type_symbol
_atom_site_label
_atom_site_fract_x
_atom_site_fract_y
_atom_site_fract_z
Si Si1 0.570537 0.981342 0.193582
Si Si2 0.667716 0.057211 0.437099
Si Si3 0.027120 0.468854 0.071918
Si Si4 0.610232 0.333019 0.322830
Si Si5 0.669847 0.399454 0.598533
Si Si6 0.473899 0.330051 0.789195
Si Si7 0.829722 0.026387 0.868139
O O1 0.521362 0.021362 0.250000
O O2 0.523377 0.991088 0.125780
O O3 0.640747 0.028811 0.186556
O O4 0.577797 0.897860 0.207078
O O5 0.750000 0.040534 0.424421
O O6 0.643520 0.119817 0.384760
O O7 0.660157 0.079053 0.517904
O O8 0.614042 0.992483 0.423766
O O9 0.108049 0.485683 0.090885
O O10 0.000000 0.500000 0.000000
O O11 0.648539 0.351462 0.250000
O O12 0.615485 0.250000 0.337433
O O13 0.750000 0.372030 0.606466
O O14 0.663169 0.467170 0.650042
O O15 0.609080 0.344784 0.618876
O O16 0.443513 0.250000 0.794587
O O17 0.510681 0.335965 0.713822
O O18 0.750000 0.007163 0.890066
#
# Coordination Sequence:
#
# PCOD9569948 Si02
#       7
#    16  16  16  16  16  16  16
#     4  10  17  32  54  72  97 136 179 220 261 315
#     4  10  21  35  55  80 106 142 178 219 274 324
#     4  11  19  34  54  76 105 139 182 226 258 313
#     4  10  22  36  53  77 104 138 179 225 277 331
#     4  10  19  33  52  76 108 143 176 212 262 320
#     4  10  18  31  54  79 106 139 181 223 262 315
#     4  11  21  32  51  79 110 144 177 220 271 316
#
# _framework density 16.356878999999999
#
# number of rings (size 3 to 8) (size 9 to 14) (size 15 to 20)
#    0.000    1.714    4.286    0.857    0.000    1.857 
#    0.000    1.429    0.000    3.429    0.000    2.000 
#    0.000    6.000    0.000    0.143    0.000    0.000 
#
# Total GULP energy -624265.243452 kJ/mol
# GULP energy per Si atom -5573.796817 kJ/mol
# Density = 1.631965 g / cm^3
# Si number density = 16.356879 Si / 1000 Ang^3
#
#
#
# Elastic Constant Matrix: (Units=GPa)
#
#
# Indices 1 2 3 4 5 6 
#
# 1 112.4220 57.4263 34.3382 0.0000 0.0000 0.0000
# 2 57.4263 112.4230 34.3383 0.0000 0.0000 0.0000
# 3 34.3382 34.3383 98.5424 0.0000 0.0000 0.0000
# 4 0.0000 0.0000 0.0000 18.6253 0.0000 0.0000
# 5 0.0000 0.0000 0.0000 0.0000 18.6253 0.0000
# 6 0.0000 0.0000 0.0000 0.0000 0.0000 14.8908
#
#
#
# Elastic Compliance Matrix: (Units=1/GPa)
#
#
# Indices 1 2 3 4 5 6 
#
# 1 0.012518 -0.005665 -0.002388 0.000000 0.000000 0.000000
# 2 -0.005665 0.012518 -0.002388 0.000000 0.000000 0.000000
# 3 -0.002388 -0.002388 0.011812 0.000000 0.000000 0.000000
# 4 0.000000 0.000000 0.000000 0.053690 0.000000 0.000000
# 5 0.000000 0.000000 0.000000 0.000000 0.053690 0.000000
# 6 0.000000 0.000000 0.000000 0.000000 0.000000 0.067156
#
#
# Mechanical properties :
#
#
# Convention : Reuss Voigt Hill
#
# Bulk Modulus (GPa) = 62.63193 63.95477 63.29335
# Shear Modulus (GPa) = 21.04473 23.58059 22.31266
#
# Velocity S-wave (km/s) = 3.59081 3.80100 3.69740
# Velocity P-wave (km/s) = 7.45425 7.64513 7.55029
#
# Compressibility (1/GPa) = 0.01596630
#
# Stress axis : x y z
#
# Youngs Moduli (GPa) = 79.88379 79.88458 84.65814
#
# Poissons Ratio (x) = 0.45254 0.20217
# Poissons Ratio (y) = 0.45254 0.20217
# Poissons Ratio (z) = 0.19077 0.19077
#
# Static dielectric constant tensor:
#      x y z
#    x 1.547960 0.000000 0.000000 
#    y 0.000000 1.547960 0.000000 
#    z 0.000000 0.000000 1.548440 
# 
# From -- ./inp_files/8078.got.cif
#   From: 2010.05.17/outbox.cif.g08.bks.cpg/sg137_5_cif.got.tgz:8078.got - 2010.05.20 13:01:12.
