data_PCOD9569879
_publ_section_title
;
Structure prediction by ZEFSAII (Michael W. Deem and Ramdas Pophale) SiO2 
 PCOD9569879
Probable space group: P 42/M N M
;
_chemical_formula_sum "Si O2"
_cell_formula_units_Z 68
_cell_length_a 10.146973
_cell_length_b 10.146973
_cell_length_c 29.132070
_cell_angle_alpha 90.000000
_cell_angle_beta 90.000000
_cell_angle_gamma 90.000000
_cell_volume 2999.468838
_symmetry_space_group_name_H-M "P 42/M N M"
_symmetry_group_IT_number 136
_symmetry_cell_setting 'tetragonal'
loop_
_space_group_symop_operation_xyz
x,y,z
1/2-y,1/2+x,1/2+z
-x,-y,z
1/2+y,1/2-x,1/2+z
1/2+x,1/2-y,1/2-z
1/2-x,1/2+y,1/2-z
y,x,-z
-y,-x,-z
-x,-y,-z
1/2+y,1/2-x,1/2-z
x,y,-z
1/2-y,1/2+x,1/2-z
1/2-x,1/2+y,1/2+z
1/2+x,1/2-y,1/2+z
-y,-x,z
y,x,z
loop_
_atom_site_type_symbol
_atom_site_label
_atom_site_fract_x
_atom_site_fract_y
_atom_site_fract_z
Si Si1 0.276710 0.498263 0.163557
Si Si2 0.323885 0.323885 0.000000
Si Si3 0.285733 0.493090 0.637032
Si Si4 0.071928 0.624464 0.575921
Si Si5 0.993224 0.779505 0.764007
O O1 0.381011 0.618990 0.163333
O O2 0.365438 0.365438 0.157456
O O3 0.180449 0.505544 0.120403
O O4 0.213531 0.490900 0.214441
O O5 0.238395 0.399673 0.040252
O O6 0.405401 0.594600 0.645541
O O7 0.353389 0.353389 0.625878
O O8 0.202918 0.559988 0.597429
O O9 0.214200 0.486503 0.686510
O O10 0.000000 0.500000 0.554453
O O11 0.850332 0.850332 0.762910
O O12 0.102810 0.897191 0.763713
#
# Coordination Sequence:
#
# PCOD9569879 Si02
#       5
#    16   4  16  16  16
#     4   9  17  36  64  92 129 171 209 257 314 381
#     4  12  26  52  70  86 124 170 230 284 334 380
#     4   9  17  36  64  92 129 171 209 257 314 381
#     4  12  25  43  67  94 123 165 218 273 332 383
#     4   7  12  26  55  90 124 170 211 241 302 380
#
# _framework density 22.670683
#
# number of rings (size 3 to 8) (size 9 to 14) (size 15 to 20)
#    0.000    2.588    2.353    3.176    0.000    0.941 
#    4.235    2.353    0.000    2.824    0.000    0.000 
#    0.000    0.000    0.000    0.000    0.000    0.000 
#
# Total GULP energy -378639.161419 kJ/mol
# GULP energy per Si atom -5568.222962 kJ/mol
# Density = 2.261908 g / cm^3
# Si number density = 22.670683 Si / 1000 Ang^3
#
#
#
# Elastic Constant Matrix: (Units=GPa)
#
#
# Indices 1 2 3 4 5 6 
#
# 1 33.4134 1.0835 -0.4020 0.0000 0.0000 0.0000
# 2 1.0835 33.4134 -0.4020 0.0000 0.0000 0.0000
# 3 -0.4020 -0.4020 124.6135 0.0000 0.0000 0.0000
# 4 0.0000 0.0000 0.0000 -17.2096 0.0000 0.0000
# 5 0.0000 0.0000 0.0000 0.0000 -17.2096 0.0000
# 6 0.0000 0.0000 0.0000 0.0000 0.0000 45.0543
#
#
#
# Elastic Compliance Matrix: (Units=1/GPa)
#
#
# Indices 1 2 3 4 5 6 
#
# 1 0.029961 -0.000970 0.000094 0.000000 0.000000 0.000000
# 2 -0.000970 0.029961 0.000094 0.000000 0.000000 0.000000
# 3 0.000094 0.000094 0.008025 0.000000 0.000000 0.000000
# 4 0.000000 0.000000 0.000000 -0.058107 0.000000 0.000000
# 5 0.000000 0.000000 0.000000 0.000000 -0.058107 0.000000
# 6 0.000000 0.000000 0.000000 0.000000 0.000000 0.022195
#
#
# Mechanical properties :
#
#
# Convention : Reuss Voigt Hill
#
# Bulk Modulus (GPa) = 15.06472 21.33323 18.19898
# Shear Modulus (GPa) = -2101.99623 14.87108 -1043.56258
#
# Velocity S-wave (km/s) = -30.48278 2.56395 -21.47820
# Velocity P-wave (km/s) = 35.10376 4.26563 24.63816
#
# Compressibility (1/GPa) = 0.06638024
#
# Stress axis : x y z
#
# Youngs Moduli (GPa) = 33.37701 33.37701 124.60413
#
# Poissons Ratio (x) = 0.03239 -0.01165
# Poissons Ratio (y) = 0.03239 -0.01165
# Poissons Ratio (z) = -0.00312 -0.00312
#
# Static dielectric constant tensor:
#      x y z
#    x 1.902740 0.000000 0.000000 
#    y 0.000000 1.902740 0.000000 
#    z 0.000000 0.000000 1.816030 
# 
# From -- ./inp_files/8909.got.cif
#   From: 2010.05.17/outbox.cif.g08.bks.cpg/sg136_5_cif.got.tgz:8909.got - 2010.05.20 12:54:53.
