data_PCOD9569068
_publ_section_title
;
Structure prediction by ZEFSAII (Michael W. Deem and Ramdas Pophale) SiO2 
 PCOD9569068
Probable space group: P 42/M B C
;
_chemical_formula_sum "Si O2"
_cell_formula_units_Z 112
_cell_length_a 15.000000
_cell_length_b 15.000000
_cell_length_c 27.000000
_cell_angle_alpha 90.000000
_cell_angle_beta 90.000000
_cell_angle_gamma 90.000000
_cell_volume 6075.000000
_symmetry_space_group_name_H-M "P 42/M B C"
_symmetry_group_IT_number 135
_symmetry_cell_setting 'tetragonal'
loop_
_space_group_symop_operation_xyz
x,y,z
-y,x,1/2+z
-x,-y,z
y,-x,1/2+z
1/2+x,1/2-y,-z
1/2-x,1/2+y,-z
1/2+y,1/2+x,1/2-z
1/2-y,1/2-x,1/2-z
-x,-y,-z
y,-x,1/2-z
x,y,-z
-y,x,1/2-z
1/2-x,1/2+y,z
1/2+x,1/2-y,z
1/2-y,1/2-x,1/2+z
1/2+y,1/2+x,1/2+z
loop_
_atom_site_type_symbol
_atom_site_label
_atom_site_fract_x
_atom_site_fract_y
_atom_site_fract_z
Si Si1 0.381273 0.410392 0.259046
Si Si2 0.296403 0.879783 0.202031
Si Si3 0.897432 0.531269 0.054657
Si Si4 0.409350 0.049192 0.193408
Si Si5 0.343935 0.707776 0.138534
Si Si6 0.276921 0.972294 0.559460
Si Si7 0.646495 0.849876 0.606268
O O1 0.380743 0.518859 0.256268
O O2 0.305689 0.377658 0.220254
O O3 0.352460 0.372980 0.313534
O O4 0.355252 0.855252 0.250000
O O5 0.321632 0.804984 0.162153
O O6 0.329274 0.978535 0.188405
O O7 0.911874 0.633941 0.067978
O O8 0.850316 0.455578 0.086445
O O9 0.000000 0.500000 0.051908
O O10 0.856909 0.527901 0.000000
O O11 0.424534 0.075467 0.250000
O O12 0.390840 0.135959 0.161133
O O13 0.500000 0.000000 0.175715
O O14 0.423965 0.710487 0.098072
O O15 0.251195 0.679245 0.112015
O O16 0.257035 0.969014 0.500000
O O17 0.299471 0.075329 0.574670
#
# Coordination Sequence:
#
# PCOD9569068 Si02
#       7
#    16  16  16  16  16  16  16
#     4  10  23  41  60  82 122 170 210 254 305 376
#     4  10  20  36  53  84 122 152 202 248 306 374
#     4   8  15  32  57  82 110 149 193 248 316 375
#     4  11  20  32  56  86 118 160 187 255 318 382
#     4  11  24  36  60  91 120 168 205 263 309 387
#     4  10  22  39  59  86 125 159 203 269 323 375
#     4  11  21  33  57  86 116 155 202 249 317 375
#
# _framework density 18.436214
#
# number of rings (size 3 to 8) (size 9 to 14) (size 15 to 20)
#    0.000    1.857    1.429    5.143    4.000    2.857 
#    0.000    0.000    0.000    0.000    0.000    2.000 
#    0.000    0.000    0.000    0.000    0.000    0.000 
#
# Total GULP energy -624300.023841 kJ/mol
# GULP energy per Si atom -5574.107356 kJ/mol
# Density = 1.839425 g / cm^3
# Si number density = 18.436214 Si / 1000 Ang^3
#
#
#
# Elastic Constant Matrix: (Units=GPa)
#
#
# Indices 1 2 3 4 5 6 
#
# 1 67.1069 14.7772 41.9975 0.0000 0.0000 0.0000
# 2 14.7772 67.1068 41.9976 0.0000 0.0000 0.0000
# 3 41.9975 41.9976 100.9332 0.0000 0.0000 0.0000
# 4 0.0000 0.0000 0.0000 17.2708 0.0000 0.0000
# 5 0.0000 0.0000 0.0000 0.0000 17.2709 0.0000
# 6 0.0000 0.0000 0.0000 0.0000 0.0000 32.3363
#
#
#
# Elastic Compliance Matrix: (Units=1/GPa)
#
#
# Indices 1 2 3 4 5 6 
#
# 1 0.020208 0.001098 -0.008865 0.000000 0.000000 0.000000
# 2 0.001098 0.020208 -0.008865 0.000000 0.000000 0.000000
# 3 -0.008865 -0.008865 0.017285 0.000000 0.000000 0.000000
# 4 0.000000 0.000000 0.000000 0.057901 0.000000 0.000000
# 5 0.000000 0.000000 0.000000 0.000000 0.057901 0.000000
# 6 0.000000 0.000000 0.000000 0.000000 0.000000 0.030925
#
#
# Mechanical properties :
#
#
# Convention : Reuss Voigt Hill
#
# Bulk Modulus (GPa) = 40.92277 48.07682 44.49979
# Shear Modulus (GPa) = 20.33854 22.46724 21.40289
#
# Velocity S-wave (km/s) = 3.32502 3.49470 3.41092
# Velocity P-wave (km/s) = 6.08163 6.51290 6.30096
#
# Compressibility (1/GPa) = 0.02443628
#
# Stress axis : x y z
#
# Youngs Moduli (GPa) = 49.48549 49.48523 57.85293
#
# Poissons Ratio (x) = -0.05435 0.51289
# Poissons Ratio (y) = -0.05435 0.51289
# Poissons Ratio (z) = 0.43871 0.43871
#
# Static dielectric constant tensor:
#      x y z
#    x 1.648400 0.000000 0.000000 
#    y 0.000000 1.648400 0.000000 
#    z 0.000000 0.000000 1.686060 
# 
# From -- ./inp_files/6518.got.cif
#   From: 2010.05.17/outbox.ucp.g08.bks.cvg/sg135_4_cif.got.tgz:6518.got - 2010.06.11 11:40:18.
