data_PCOD9569434
_publ_section_title
;
Structure prediction by ZEFSAII (Michael W. Deem and Ramdas Pophale) SiO2 
 PCOD9569434
Probable space group: P 42/M N M
;
_chemical_formula_sum "Si O2"
_cell_formula_units_Z 112
_cell_length_a 26.414138
_cell_length_b 26.414138
_cell_length_c 7.434907
_cell_angle_alpha 90.000000
_cell_angle_beta 90.000000
_cell_angle_gamma 90.000000
_cell_volume 5187.384326
_symmetry_space_group_name_H-M "P 42/M N M"
_symmetry_group_IT_number 136
_symmetry_cell_setting 'tetragonal'
loop_
_space_group_symop_operation_xyz
x,y,z
1/2-y,1/2+x,1/2+z
-x,-y,z
1/2+y,1/2-x,1/2+z
1/2+x,1/2-y,1/2-z
1/2-x,1/2+y,1/2-z
y,x,-z
-y,-x,-z
-x,-y,-z
1/2+y,1/2-x,1/2-z
x,y,-z
1/2-y,1/2+x,1/2-z
1/2-x,1/2+y,1/2+z
1/2+x,1/2-y,1/2+z
-y,-x,z
y,x,z
loop_
_atom_site_type_symbol
_atom_site_label
_atom_site_fract_x
_atom_site_fract_y
_atom_site_fract_z
Si Si1 0.799566 0.122159 0.219306
Si Si2 0.344439 0.013932 0.211474
Si Si3 0.587669 0.888984 0.715036
Si Si4 0.804162 0.663609 0.717927
Si Si5 0.235019 0.153077 0.707210
Si Si6 0.770503 0.008294 0.779071
Si Si7 0.652728 0.426220 0.703594
O O1 0.852267 0.147734 0.276577
O O2 0.753206 0.158178 0.276873
O O3 0.783930 0.065660 0.273572
O O4 0.799838 0.121355 0.000000
O O5 0.381640 0.969530 0.283613
O O6 0.285992 0.010244 0.280090
O O7 0.374669 0.066447 0.226313
O O8 0.338620 0.003341 0.000000
O O9 0.586073 0.895102 0.500000
O O10 0.613373 0.835262 0.757298
O O11 0.803062 0.669772 0.500000
O O12 0.836830 0.710414 0.786690
O O13 0.238893 0.135220 0.500000
O O14 0.206872 0.206872 0.704432
O O15 0.198095 0.114704 0.803625
O O16 0.817468 0.973563 0.714933
O O17 0.770642 0.005551 0.000000
O O18 0.637742 0.439963 0.500000
O O19 0.605085 0.394916 0.784907
#
# Coordination Sequence:
#
# PCOD9569434 Si02
#       7
#    16  16  16  16  16  16  16
#     4   9  15  24  43  69  93 118 150 187 229 278
#     4  10  20  34  50  68  92 125 159 197 239 276
#     4  10  20  33  49  67  91 121 157 198 235 273
#     4   9  15  26  42  64  92 117 143 184 235 277
#     4   9  16  25  40  65  93 115 140 181 230 273
#     4   9  16  29  46  65  93 125 157 190 229 277
#     4   9  17  28  43  64  91 125 158 184 217 268
#
# _framework density 21.590843
#
# number of rings (size 3 to 8) (size 9 to 14) (size 15 to 20)
#    0.000    2.714    1.429    1.286    0.000    2.571 
#    0.000    1.429    0.000    0.429    0.000    3.000 
#    0.000    5.714    0.000    3.571    0.000    3.714 
#
# Total GULP energy -624064.977428 kJ/mol
# GULP energy per Si atom -5572.008727 kJ/mol
# Density = 2.154170 g / cm^3
# Si number density = 21.590843 Si / 1000 Ang^3
#
#
#
# Elastic Constant Matrix: (Units=GPa)
#
#
# Indices 1 2 3 4 5 6 
#
# 1 95.9695 44.4682 -0.4288 0.0000 0.0000 0.0000
# 2 44.4682 95.9695 -0.4288 0.0000 0.0000 0.0000
# 3 -0.4288 -0.4288 64.3163 0.0000 0.0000 0.0000
# 4 0.0000 0.0000 0.0000 -0.4777 0.0000 0.0000
# 5 0.0000 0.0000 0.0000 0.0000 -0.4777 0.0000
# 6 0.0000 0.0000 0.0000 0.0000 0.0000 31.5770
#
#
#
# Elastic Compliance Matrix: (Units=1/GPa)
#
#
# Indices 1 2 3 4 5 6 
#
# 1 0.013269 -0.006148 0.000047 0.000000 0.000000 0.000000
# 2 -0.006148 0.013269 0.000047 0.000000 0.000000 0.000000
# 3 0.000047 0.000047 0.015549 0.000000 0.000000 0.000000
# 4 0.000000 0.000000 0.000000 -2.093233 0.000000 0.000000
# 5 0.000000 0.000000 0.000000 0.000000 -2.093233 0.000000
# 6 0.000000 0.000000 0.000000 0.000000 0.000000 0.031669
#
#
# Mechanical properties :
#
#
# Convention : Reuss Voigt Hill
#
# Bulk Modulus (GPa) = 33.35506 38.16406 35.75956
# Shear Modulus (GPa) = -1.22231 20.30061 9.53915
#
# Velocity S-wave (km/s) = -0.75323 3.06966 2.10422
# Velocity P-wave (km/s) = 3.83742 5.50256 4.74363
#
# Compressibility (1/GPa) = 0.02998046
#
# Stress axis : x y z
#
# Youngs Moduli (GPa) = 75.36404 75.36404 64.31365
#
# Poissons Ratio (x) = 0.46334 -0.00305
# Poissons Ratio (y) = 0.46334 -0.00305
# Poissons Ratio (z) = -0.00358 -0.00358
#
# Static dielectric constant tensor:
#      x y z
#    x 1.799500 0.000000 0.000000 
#    y 0.000000 1.799500 0.000000 
#    z 0.000000 0.000000 1.898140 
# 
# From -- ./inp_files/3983.got.cif
#   From: 2010.05.17/outbox.cif.g08.bks.cpg/sg136_2_cif.got.tgz:3983.got - 2010.05.20 12:54:53.
