data_PCOD9569507
_publ_section_title
;
Structure prediction by ZEFSAII (Michael W. Deem and Ramdas Pophale) SiO2 
 PCOD9569507
Probable space group: P 42/M N M
;
_chemical_formula_sum "Si O2"
_cell_formula_units_Z 80
_cell_length_a 11.660380
_cell_length_b 11.660380
_cell_length_c 29.783578
_cell_angle_alpha 90.000000
_cell_angle_beta 90.000000
_cell_angle_gamma 90.000000
_cell_volume 4049.508152
_symmetry_space_group_name_H-M "P 42/M N M"
_symmetry_group_IT_number 136
_symmetry_cell_setting 'tetragonal'
loop_
_space_group_symop_operation_xyz
x,y,z
1/2-y,1/2+x,1/2+z
-x,-y,z
1/2+y,1/2-x,1/2+z
1/2+x,1/2-y,1/2-z
1/2-x,1/2+y,1/2-z
y,x,-z
-y,-x,-z
-x,-y,-z
1/2+y,1/2-x,1/2-z
x,y,-z
1/2-y,1/2+x,1/2-z
1/2-x,1/2+y,1/2+z
1/2+x,1/2-y,1/2+z
-y,-x,z
y,x,z
loop_
_atom_site_type_symbol
_atom_site_label
_atom_site_fract_x
_atom_site_fract_y
_atom_site_fract_z
Si Si1 0.496931 0.692448 0.644390
Si Si2 0.596225 0.596225 0.214815
Si Si3 0.400428 0.400428 0.886881
Si Si4 0.679674 0.019412 0.766082
Si Si5 0.266123 0.931517 0.050265
Si Si6 0.952862 0.755500 0.550594
O O1 0.388471 0.611530 0.654012
O O2 0.609458 0.609458 0.647918
O O3 0.505937 0.791516 0.681417
O O4 0.492425 0.738456 0.593417
O O5 0.500000 0.500000 0.212412
O O6 0.628474 0.628474 0.164058
O O7 0.546205 0.702601 0.241501
O O8 0.500000 0.500000 0.887027
O O9 0.454091 0.293372 0.913364
O O10 0.592683 0.122024 0.755202
O O11 0.165452 0.834549 0.049110
O O12 0.384585 0.862428 0.057897
O O13 0.268576 0.983587 0.000000
O O14 0.000562 0.755675 0.500000
O O15 0.854144 0.854144 0.551661
#
# Coordination Sequence:
#
# PCOD9569507 Si02
#       6
#    16   8   8  16  16  16
#     4  10  20  34  57  86 116 155 198 249 310 365
#     4  11  24  39  64  92 122 155 202 259 310 368
#     4   9  17  26  43  76 111 148 193 239 297 351
#     4  11  26  44  63  88 120 161 207 254 313 371
#     4   8  15  27  45  75 114 154 196 244 295 351
#     4   8  13  23  40  68 110 154 192 234 292 352
#
# _framework density 19.755485
#
# number of rings (size 3 to 8) (size 9 to 14) (size 15 to 20)
#    0.000    2.600    1.000    2.100    5.600    1.600 
#    0.000    2.000    0.000    0.000    0.000    5.600 
#    0.000    0.000    0.000    0.000    0.000    0.200 
#
# Total GULP energy -446388.535478 kJ/mol
# GULP energy per Si atom -5579.856693 kJ/mol
# Density = 1.971052 g / cm^3
# Si number density = 19.755485 Si / 1000 Ang^3
#
#
#
# Elastic Constant Matrix: (Units=GPa)
#
#
# Indices 1 2 3 4 5 6 
#
# 1 58.0249 14.6470 40.8008 0.0000 0.0000 0.0000
# 2 14.6470 58.0249 40.8008 0.0000 0.0000 0.0000
# 3 40.8008 40.8008 150.4747 0.0000 0.0000 0.0000
# 4 0.0000 0.0000 0.0000 -68.4530 0.0000 0.0000
# 5 0.0000 0.0000 0.0000 0.0000 -68.4530 0.0000
# 6 0.0000 0.0000 0.0000 0.0000 0.0000 -4.9875
#
#
#
# Elastic Compliance Matrix: (Units=1/GPa)
#
#
# Indices 1 2 3 4 5 6 
#
# 1 0.021419 -0.001635 -0.005364 0.000000 0.000000 0.000000
# 2 -0.001635 0.021419 -0.005364 0.000000 0.000000 0.000000
# 3 -0.005364 -0.005364 0.009555 0.000000 0.000000 0.000000
# 4 0.000000 0.000000 0.000000 -0.014609 0.000000 0.000000
# 5 0.000000 0.000000 0.000000 0.000000 -0.014609 0.000000
# 6 0.000000 0.000000 0.000000 0.000000 0.000000 -0.200502
#
#
# Mechanical properties :
#
#
# Convention : Reuss Voigt Hill
#
# Bulk Modulus (GPa) = 36.14643 51.00241 43.57442
# Shear Modulus (GPa) = -34.87273 -17.02696 -25.94985
#
# Velocity S-wave (km/s) = -4.20601 -2.93897 -3.62823
# Velocity P-wave (km/s) = 2.29144 3.78895 2.13371
#
# Compressibility (1/GPa) = 0.02766525
#
# Stress axis : x y z
#
# Youngs Moduli (GPa) = 46.68832 46.68832 104.66033
#
# Poissons Ratio (x) = 0.07632 0.56144
# Poissons Ratio (y) = 0.07632 0.56144
# Poissons Ratio (z) = 0.25045 0.25045
#
# Static dielectric constant tensor:
#      x y z
#    x 1.684750 0.000000 0.000000 
#    y 0.000000 1.684750 0.000000 
#    z 0.000000 0.000000 1.696050 
# 
# From -- ./inp_files/9638.got.cif
#   From: 2010.05.17/outbox.cif.g08.bks.cpg/sg136_5_cif.got.tgz:9638.got - 2010.05.20 12:54:53.
