data_PCOD9569120
_publ_section_title
;
Structure prediction by ZEFSAII (Michael W. Deem and Ramdas Pophale) SiO2 
 PCOD9569120
Probable space group: P 42/M N M
;
_chemical_formula_sum "Si O2"
_cell_formula_units_Z 60
_cell_length_a 11.181020
_cell_length_b 11.181020
_cell_length_c 25.466037
_cell_angle_alpha 90.000000
_cell_angle_beta 90.000000
_cell_angle_gamma 90.000000
_cell_volume 3183.641919
_symmetry_space_group_name_H-M "P 42/M N M"
_symmetry_group_IT_number 136
_symmetry_cell_setting 'tetragonal'
loop_
_space_group_symop_operation_xyz
x,y,z
1/2-y,1/2+x,1/2+z
-x,-y,z
1/2+y,1/2-x,1/2+z
1/2+x,1/2-y,1/2-z
1/2-x,1/2+y,1/2-z
y,x,-z
-y,-x,-z
-x,-y,-z
1/2+y,1/2-x,1/2-z
x,y,-z
1/2-y,1/2+x,1/2-z
1/2-x,1/2+y,1/2+z
1/2+x,1/2-y,1/2+z
-y,-x,z
y,x,z
loop_
_atom_site_type_symbol
_atom_site_label
_atom_site_fract_x
_atom_site_fract_y
_atom_site_fract_z
Si Si1 0.266570 0.733431 0.000000
Si Si2 0.145080 0.507486 0.500000
Si Si3 0.970564 0.684412 0.769396
Si Si4 0.906830 0.906830 0.704915
Si Si5 0.271108 0.728893 0.886708
Si Si6 0.995732 0.645044 0.114998
O O1 0.125272 0.703023 0.000000
O O2 0.313670 0.686331 0.944558
O O3 0.176778 0.559242 0.557688
O O4 0.000000 0.500000 0.500000
O O5 0.878904 0.598530 0.738332
O O6 0.971269 0.811034 0.741988
O O7 0.936704 0.687450 0.830753
O O8 0.838692 0.838692 0.658997
O O9 0.000000 0.000000 0.682478
O O10 0.300709 0.869942 0.883699
O O11 0.000000 0.500000 0.118147
#
# Coordination Sequence:
#
# PCOD9569120 Si02
#       6
#     4   8  16   8   8  16
#     4   8  16  28  51  76  98 141 174 214 270 317
#     4   8  16  26  48  80 103 125 175 226 262 316
#     4  11  21  38  58  78 109 145 182 218 273 327
#     4  12  26  34  53  83 114 144 180 227 273 320
#     4  10  18  34  53  76 111 137 179 224 266 326
#     4  10  17  32  54  79 104 138 178 222 271 323
#
# _framework density 18.846340999999999
#
# number of rings (size 3 to 8) (size 9 to 14) (size 15 to 20)
#    0.000    1.867    5.333    0.000    3.733    0.000 
#    0.000    0.333    0.000    0.800    0.000    0.933 
#    0.000    0.000    0.000    0.000    0.000    0.000 
#
# Total GULP energy -334121.659145 kJ/mol
# GULP energy per Si atom -5568.694319 kJ/mol
# Density = 1.880345 g / cm^3
# Si number density = 18.846341 Si / 1000 Ang^3
#
#
#
# Elastic Constant Matrix: (Units=GPa)
#
#
# Indices 1 2 3 4 5 6 
#
# 1 30.8965 15.6100 -14.8368 0.0000 0.0000 0.0000
# 2 15.6100 30.8968 -14.8370 0.0000 0.0000 0.0000
# 3 -14.8368 -14.8370 174.0104 0.0000 0.0000 0.0000
# 4 0.0000 0.0000 0.0000 8.1468 0.0000 0.0000
# 5 0.0000 0.0000 0.0000 0.0000 8.1465 0.0000
# 6 0.0000 0.0000 0.0000 0.0000 0.0000 21.6302
#
#
#
# Elastic Compliance Matrix: (Units=1/GPa)
#
#
# Indices 1 2 3 4 5 6 
#
# 1 0.044078 -0.021339 0.001939 0.000000 0.000000 0.000000
# 2 -0.021339 0.044078 0.001939 0.000000 0.000000 0.000000
# 3 0.001939 0.001939 0.006077 0.000000 0.000000 0.000000
# 4 0.000000 0.000000 0.000000 0.122748 0.000000 0.000000
# 5 0.000000 0.000000 0.000000 0.000000 0.122752 0.000000
# 6 0.000000 0.000000 0.000000 0.000000 0.000000 0.046232
#
#
# Mechanical properties :
#
#
# Convention : Reuss Voigt Hill
#
# Bulk Modulus (GPa) = 16.86007 23.07512 19.96760
# Shear Modulus (GPa) = 11.34670 24.24253 17.79462
#
# Velocity S-wave (km/s) = 2.45636 3.59043 3.07611
# Velocity P-wave (km/s) = 4.12437 5.42758 4.82022
#
# Compressibility (1/GPa) = 0.05931172
#
# Stress axis : x y z
#
# Youngs Moduli (GPa) = 22.68692 22.68713 164.54362
#
# Poissons Ratio (x) = 0.48411 -0.31902
# Poissons Ratio (y) = 0.48411 -0.31903
# Poissons Ratio (z) = -0.04399 -0.04399
#
# Static dielectric constant tensor:
#      x y z
#    x 1.647580 0.000000 0.000000 
#    y 0.000000 1.647580 0.000000 
#    z 0.000000 0.000000 1.736910 
# 
# From -- ./inp_files/8188.got.cif
#   From: 2010.05.17/outbox.cif.g08.bks.cpg/sg136_5_cif.got.tgz:8188.got - 2010.05.20 12:54:53.
