data_PCOD9569911
_publ_section_title
;
Structure prediction by ZEFSAII (Michael W. Deem and Ramdas Pophale) SiO2 
 PCOD9569911
Probable space group: P 42/M N M
;
_chemical_formula_sum "Si O2"
_cell_formula_units_Z 112
_cell_length_a 15.000000
_cell_length_b 15.000000
_cell_length_c 27.000000
_cell_angle_alpha 90.000000
_cell_angle_beta 90.000000
_cell_angle_gamma 90.000000
_cell_volume 6075.000000
_symmetry_space_group_name_H-M "P 42/M N M"
_symmetry_group_IT_number 136
_symmetry_cell_setting 'tetragonal'
loop_
_space_group_symop_operation_xyz
x,y,z
1/2-y,1/2+x,1/2+z
-x,-y,z
1/2+y,1/2-x,1/2+z
1/2+x,1/2-y,1/2-z
1/2-x,1/2+y,1/2-z
y,x,-z
-y,-x,-z
-x,-y,-z
1/2+y,1/2-x,1/2-z
x,y,-z
1/2-y,1/2+x,1/2-z
1/2-x,1/2+y,1/2+z
1/2+x,1/2-y,1/2+z
-y,-x,z
y,x,z
loop_
_atom_site_type_symbol
_atom_site_label
_atom_site_fract_x
_atom_site_fract_y
_atom_site_fract_z
Si Si1 0.725907 0.018840 0.942382
Si Si2 0.496723 0.648790 0.648766
Si Si3 0.740986 0.107342 0.679510
Si Si4 0.185587 0.601399 0.056659
Si Si5 0.237490 0.095288 0.660603
Si Si6 0.059840 0.581881 0.605089
Si Si7 0.374908 0.224600 0.704340
O O1 0.808098 0.000198 0.905970
O O2 0.686283 0.119357 0.937431
O O3 0.642788 0.958534 0.924681
O O4 0.746550 0.003834 0.000000
O O5 0.401873 0.598128 0.658987
O O6 0.571012 0.571012 0.652812
O O7 0.533505 0.731535 0.682890
O O8 0.814568 0.185433 0.667728
O O9 0.654248 0.099348 0.643792
O O10 0.713378 0.120002 0.736696
O O11 0.779514 0.006682 0.675278
O O12 0.255640 0.602419 0.101114
O O13 0.129908 0.510932 0.068486
O O14 0.217655 0.600587 0.000000
O O15 0.159783 0.159783 0.679591
O O16 0.332850 0.135251 0.679983
O O17 0.000000 0.500000 0.627288
O O18 0.300053 0.300053 0.693712
#
# Coordination Sequence:
#
# PCOD9569911 Si02
#       7
#    16  16  16  16  16  16  16
#     4  10  19  32  55  82 110 147 190 233 282 347
#     4  10  21  36  54  77 112 153 189 234 287 340
#     4  10  22  39  60  85 116 152 191 240 294 349
#     4   9  17  32  56  83 111 145 187 237 286 337
#     4  10  20  36  58  85 116 148 187 239 290 340
#     4   9  19  36  57  83 113 148 187 236 287 341
#     4   9  19  38  57  78 111 150 194 237 284 344
#
# _framework density 18.436214
#
# number of rings (size 3 to 8) (size 9 to 14) (size 15 to 20)
#    0.000    2.429    1.429    0.429    0.000    5.143 
#    0.000    5.000    0.000   10.286    0.000    4.000 
#    0.000    0.000    0.000    0.000    0.000    0.000 
#
# Total GULP energy -624221.306661 kJ/mol
# GULP energy per Si atom -5573.404524 kJ/mol
# Density = 1.839425 g / cm^3
# Si number density = 18.436214 Si / 1000 Ang^3
#
#
#
# Elastic Constant Matrix: (Units=GPa)
#
#
# Indices 1 2 3 4 5 6 
#
# 1 61.8596 12.1479 19.3977 0.0000 0.0000 0.0000
# 2 12.1479 61.8596 19.3977 0.0000 0.0000 0.0000
# 3 19.3977 19.3977 86.7205 0.0000 0.0000 0.0000
# 4 0.0000 0.0000 0.0000 19.5051 0.0000 0.0000
# 5 0.0000 0.0000 0.0000 0.0000 19.5051 0.0000
# 6 0.0000 0.0000 0.0000 0.0000 0.0000 30.7975
#
#
#
# Elastic Compliance Matrix: (Units=1/GPa)
#
#
# Indices 1 2 3 4 5 6 
#
# 1 0.017711 -0.002404 -0.003424 0.000000 0.000000 0.000000
# 2 -0.002404 0.017711 -0.003424 0.000000 0.000000 0.000000
# 3 -0.003424 -0.003424 0.013063 0.000000 0.000000 0.000000
# 4 0.000000 0.000000 0.000000 0.051269 0.000000 0.000000
# 5 0.000000 0.000000 0.000000 0.000000 0.051269 0.000000
# 6 0.000000 0.000000 0.000000 0.000000 0.000000 0.032470
#
#
# Mechanical properties :
#
#
# Convention : Reuss Voigt Hill
#
# Bulk Modulus (GPa) = 33.35397 34.70294 34.02846
# Shear Modulus (GPa) = 23.58586 24.59466 24.09026
#
# Velocity S-wave (km/s) = 3.58064 3.65641 3.61873
# Velocity P-wave (km/s) = 5.93511 6.05722 5.99647
#
# Compressibility (1/GPa) = 0.02998144
#
# Stress axis : x y z
#
# Youngs Moduli (GPa) = 56.46060 56.46060 76.55205
#
# Poissons Ratio (x) = 0.13576 0.26210
# Poissons Ratio (y) = 0.13576 0.26210
# Poissons Ratio (z) = 0.19331 0.19331
#
# Static dielectric constant tensor:
#      x y z
#    x 1.654290 0.000000 0.000000 
#    y 0.000000 1.654290 0.000000 
#    z 0.000000 0.000000 1.632640 
# 
# From -- ./inp_files/9186.got.cif
#   From: 2010.05.17/outbox.ucp.g08.bks.cvg/sg136_5_cif.got.tgz:9186.got - 2010.06.11 11:40:42.
