data_PCOD9569944
_publ_section_title
;
Structure prediction by ZEFSAII (Michael W. Deem and Ramdas Pophale) SiO2 
 PCOD9569944
Probable space group: P 42/N M C
;
_chemical_formula_sum "Si O2"
_cell_formula_units_Z 72
_cell_length_a 12.414629
_cell_length_b 12.414629
_cell_length_c 24.892016
_cell_angle_alpha 90.000000
_cell_angle_beta 90.000000
_cell_angle_gamma 90.000000
_cell_volume 3836.432511
_symmetry_space_group_name_H-M "P 42/N M C"
_symmetry_group_IT_number 137
_space_group.IT_coordinate_system_code '2'
_symmetry_cell_setting 'tetragonal'
loop_
_space_group_symop_operation_xyz
x,y,z
1/2-y,x,1/2+z
1/2-x,1/2-y,z
y,1/2-x,1/2+z
1/2+x,-y,-z
-x,1/2+y,-z
1/2+y,1/2+x,1/2-z
-y,-x,1/2-z
-x,-y,-z
1/2+y,-x,1/2-z
1/2+x,1/2+y,-z
-y,1/2+x,1/2-z
1/2-x,y,z
x,1/2-y,z
1/2-y,1/2-x,1/2+z
y,x,1/2+z
loop_
_atom_site_type_symbol
_atom_site_label
_atom_site_fract_x
_atom_site_fract_y
_atom_site_fract_z
Si Si1 0.535535 0.250000 0.188159
Si Si2 0.375233 0.874218 0.988092
Si Si3 0.525465 0.557790 0.421154
Si Si4 0.120874 0.250000 0.291614
Si Si5 0.488813 0.952413 0.689824
Si Si6 0.365188 0.250000 0.095239
O O1 0.445499 0.250000 0.235215
O O2 0.593898 0.365191 0.189729
O O3 0.467439 0.250000 0.133834
O O4 0.250000 0.876938 0.974985
O O5 0.411884 0.750000 0.985963
O O6 0.441994 0.946470 0.946719
O O7 0.394531 0.925417 0.046700
O O8 0.507223 0.539934 0.357803
O O9 0.634471 0.625479 0.433301
O O10 0.250000 0.250000 0.286277
O O11 0.075312 0.141550 0.319022
O O12 0.500660 0.000660 0.750000
O O13 0.250000 0.250000 0.124460
#
# Coordination Sequence:
#
# PCOD9569944 Si02
#       6
#     8  16  16   8  16   8
#     4   8  17  33  50  75 106 146 182 221 266 328
#     4  10  21  37  56  76 106 147 184 226 277 322
#     4  10  20  35  55  80 108 141 182 227 274 332
#     4  10  19  31  49  76 111 147 179 222 285 333
#     4   9  19  34  53  79 111 143 184 228 281 340
#     4  10  17  30  54  82 106 132 174 225 270 321
#
# _framework density 18.767436
#
# number of rings (size 3 to 8) (size 9 to 14) (size 15 to 20)
#    0.000    2.444    1.111    1.000    1.556    1.333 
#    0.000    3.333    0.000    0.000    0.000    1.556 
#    0.000    3.556    0.000    0.000    0.000    0.000 
#
# Total GULP energy -400844.012385 kJ/mol
# GULP energy per Si atom -5567.277950 kJ/mol
# Density = 1.872472 g / cm^3
# Si number density = 18.767436 Si / 1000 Ang^3
#
#
#
# Elastic Constant Matrix: (Units=GPa)
#
#
# Indices 1 2 3 4 5 6 
#
# 1 68.0457 24.6614 -1.7214 0.0000 0.0000 0.0000
# 2 24.6614 68.0457 -1.7214 0.0000 0.0000 0.0000
# 3 -1.7214 -1.7214 63.9346 0.0000 0.0000 0.0000
# 4 0.0000 0.0000 0.0000 17.5832 0.0000 0.0000
# 5 0.0000 0.0000 0.0000 0.0000 17.5832 0.0000
# 6 0.0000 0.0000 0.0000 0.0000 0.0000 19.4626
#
#
#
# Elastic Compliance Matrix: (Units=1/GPa)
#
#
# Indices 1 2 3 4 5 6 
#
# 1 0.016924 -0.006126 0.000291 0.000000 0.000000 0.000000
# 2 -0.006126 0.016924 0.000291 0.000000 0.000000 0.000000
# 3 0.000291 0.000291 0.015657 0.000000 0.000000 0.000000
# 4 0.000000 0.000000 0.000000 0.056873 0.000000 0.000000
# 5 0.000000 0.000000 0.000000 0.000000 0.056873 0.000000
# 6 0.000000 0.000000 0.000000 0.000000 0.000000 0.051381
#
#
# Mechanical properties :
#
#
# Convention : Reuss Voigt Hill
#
# Bulk Modulus (GPa) = 26.03189 26.94034 26.48611
# Shear Modulus (GPa) = 20.96225 22.84628 21.90426
#
# Velocity S-wave (km/s) = 3.34570 3.49282 3.42005
# Velocity P-wave (km/s) = 5.36897 5.53646 5.45336
#
# Compressibility (1/GPa) = 0.03841443
#
# Stress axis : x y z
#
# Youngs Moduli (GPa) = 59.08894 59.08894 63.87070
#
# Poissons Ratio (x) = 0.36199 -0.01857
# Poissons Ratio (y) = 0.36199 -0.01857
# Poissons Ratio (z) = -0.01718 -0.01718
#
# Static dielectric constant tensor:
#      x y z
#    x 1.673720 0.000000 0.000000 
#    y 0.000000 1.673720 0.000000 
#    z 0.000000 0.000000 1.692540 
# 
# From -- ./inp_files/9580.got.cif
#   From: 2010.05.17/outbox.cif.g08.bks.cpg/sg137_5_cif.got.tgz:9580.got - 2010.05.20 13:01:12.
