data_PCOD9569779
_publ_section_title
;
Structure prediction by ZEFSAII (Michael W. Deem and Ramdas Pophale) SiO2 
 PCOD9569779
Probable space group: P 42/M N M
;
_chemical_formula_sum "Si O2"
_cell_formula_units_Z 48
_cell_length_a 10.550287
_cell_length_b 10.550287
_cell_length_c 23.197024
_cell_angle_alpha 90.000000
_cell_angle_beta 90.000000
_cell_angle_gamma 90.000000
_cell_volume 2582.027240
_symmetry_space_group_name_H-M "P 42/M N M"
_symmetry_group_IT_number 136
_symmetry_cell_setting 'tetragonal'
loop_
_space_group_symop_operation_xyz
x,y,z
1/2-y,1/2+x,1/2+z
-x,-y,z
1/2+y,1/2-x,1/2+z
1/2+x,1/2-y,1/2-z
1/2-x,1/2+y,1/2-z
y,x,-z
-y,-x,-z
-x,-y,-z
1/2+y,1/2-x,1/2-z
x,y,-z
1/2-y,1/2+x,1/2-z
1/2-x,1/2+y,1/2+z
1/2+x,1/2-y,1/2+z
-y,-x,z
y,x,z
loop_
_atom_site_type_symbol
_atom_site_label
_atom_site_fract_x
_atom_site_fract_y
_atom_site_fract_z
Si Si1 0.200708 0.605458 0.000000
Si Si2 0.808241 0.607554 0.908088
Si Si3 0.459996 0.733844 0.500000
Si Si4 0.131866 0.651551 0.272783
O O1 0.180867 0.522059 0.057042
O O2 0.340667 0.659334 0.000000
O O3 0.101516 0.718945 0.000000
O O4 0.668094 0.668094 0.913834
O O5 0.898618 0.701160 0.943706
O O6 0.842571 0.606244 0.841348
O O7 0.408044 0.591957 0.500000
O O8 0.173287 0.507226 0.256288
O O9 0.240869 0.759132 0.259701
#
# Coordination Sequence:
#
# PCOD9569779 Si02
#       4
#     8  16   8  16
#     4  11  22  32  57  91 117 149 193 246 305 365
#     4   9  19  38  58  80 112 151 192 242 298 356
#     4   9  19  35  57  79 110 149 189 234 290 350
#     4  10  23  40  63  90 123 165 209 255 306 364
#
# _framework density 18.590045
#
# number of rings (size 3 to 8) (size 9 to 14) (size 15 to 20)
#    0.000    2.333    0.000    3.500    9.333    3.667 
#    0.000    3.333    0.000    6.000    0.000    0.000 
#    0.000    0.000    0.000    0.000    0.000    0.000 
#
# Total GULP energy -267262.857630 kJ/mol
# GULP energy per Si atom -5567.976201 kJ/mol
# Density = 1.854773 g / cm^3
# Si number density = 18.590045 Si / 1000 Ang^3
#
#
#
# Elastic Constant Matrix: (Units=GPa)
#
#
# Indices 1 2 3 4 5 6 
#
# 1 460.9967 -243.7446 58.3519 0.0000 0.0000 0.0000
# 2 -243.7446 460.9570 58.3433 0.0000 0.0000 0.0000
# 3 58.3519 58.3433 120.3690 0.0000 0.0000 0.0000
# 4 0.0000 0.0000 0.0000 -35.2912 0.0000 0.0000
# 5 0.0000 0.0000 0.0000 0.0000 -35.2926 0.0000
# 6 0.0000 0.0000 0.0000 0.0000 0.0000 36.5182
#
#
#
# Elastic Compliance Matrix: (Units=1/GPa)
#
#
# Indices 1 2 3 4 5 6 
#
# 1 0.003821 0.002403 -0.003017 0.000000 0.000000 0.000000
# 2 0.002403 0.003822 -0.003017 0.000000 0.000000 0.000000
# 3 -0.003017 -0.003017 0.011233 0.000000 0.000000 0.000000
# 4 0.000000 0.000000 0.000000 -0.028336 0.000000 0.000000
# 5 0.000000 0.000000 0.000000 0.000000 -0.028335 0.000000
# 6 0.000000 0.000000 0.000000 0.000000 0.000000 0.027384
#
#
# Mechanical properties :
#
#
# Convention : Reuss Voigt Hill
#
# Bulk Modulus (GPa) = 86.11255 87.58043 86.84649
# Shear Modulus (GPa) = 6912.52050 71.14502 3491.83276
#
# Velocity S-wave (km/s) = 61.04483 6.19303 43.38678
# Velocity P-wave (km/s) = 70.81702 9.91725 50.56384
#
# Compressibility (1/GPa) = 0.01161271
#
# Stress axis : x y z
#
# Youngs Moduli (GPa) = 261.68292 261.66399 89.02519
#
# Poissons Ratio (x) = -0.62866 0.26859
# Poissons Ratio (y) = -0.62871 0.26860
# Poissons Ratio (z) = 0.78951 0.78946
#
# Static dielectric constant tensor:
#      x y z
#    x 1.654510 0.000000 0.000000 
#    y 0.000000 1.654510 0.000000 
#    z 0.000000 0.000000 4.684910 
# 
# From -- ./inp_files/6849.got.cif
#   From: 2010.05.17/outbox.cif.g08.bks.cpg/sg136_4_cif.got.tgz:6849.got - 2010.05.20 12:54:53.
