data_PCOD9569789
_publ_section_title
;
Structure prediction by ZEFSAII (Michael W. Deem and Ramdas Pophale) SiO2 
 PCOD9569789
Probable space group: P 42/M N M
;
_chemical_formula_sum "Si O2"
_cell_formula_units_Z 116
_cell_length_a 18.216777
_cell_length_b 18.216777
_cell_length_c 18.627738
_cell_angle_alpha 90.000000
_cell_angle_beta 90.000000
_cell_angle_gamma 90.000000
_cell_volume 6181.632817
_symmetry_space_group_name_H-M "P 42/M N M"
_symmetry_group_IT_number 136
_symmetry_cell_setting 'tetragonal'
loop_
_space_group_symop_operation_xyz
x,y,z
1/2-y,1/2+x,1/2+z
-x,-y,z
1/2+y,1/2-x,1/2+z
1/2+x,1/2-y,1/2-z
1/2-x,1/2+y,1/2-z
y,x,-z
-y,-x,-z
-x,-y,-z
1/2+y,1/2-x,1/2-z
x,y,-z
1/2-y,1/2+x,1/2-z
1/2-x,1/2+y,1/2+z
1/2+x,1/2-y,1/2+z
-y,-x,z
y,x,z
loop_
_atom_site_type_symbol
_atom_site_label
_atom_site_fract_x
_atom_site_fract_y
_atom_site_fract_z
Si Si1 0.160732 0.370042 0.190382
Si Si2 0.275421 0.388108 0.082348
Si Si3 0.377639 0.622362 0.000000
Si Si4 0.549280 0.788849 0.333680
Si Si5 0.773579 0.944284 0.621354
Si Si6 0.691595 0.188058 0.084597
Si Si7 0.212406 0.090718 0.217242
Si Si8 0.581212 0.966300 0.914792
O O1 0.227966 0.345764 0.140561
O O2 0.183519 0.424401 0.254948
O O3 0.126719 0.293900 0.218619
O O4 0.104518 0.409838 0.135978
O O5 0.358869 0.358869 0.087081
O O6 0.261362 0.471194 0.104658
O O7 0.252099 0.376270 0.000000
O O8 0.330652 0.580513 0.938034
O O9 0.624338 0.767207 0.373116
O O10 0.484870 0.728297 0.326648
O O11 0.519671 0.856672 0.381674
O O12 0.703127 0.891101 0.611008
O O13 0.803170 0.932693 0.701165
O O14 0.735966 0.264035 0.094672
O O15 0.689807 0.172697 0.000000
O O16 0.149539 0.149539 0.194144
O O17 0.500000 0.000000 0.907869
O O18 0.594211 0.952379 0.000000
#
# Coordination Sequence:
#
# PCOD9569789 Si02
#       8
#    16  16   4  16  16  16  16  16
#     4  11  23  38  61  90 120 164 208 261 308 372
#     4  11  24  40  58  85 123 167 213 254 301 367
#     4  12  20  36  61  92 124 158 207 250 302 392
#     4  11  24  37  60  95 121 158 207 261 308 373
#     4  12  20  36  60  91 121 159 205 252 310 369
#     4  11  21  38  65  94 123 155 200 260 317 372
#     4  11  23  41  62  85 124 164 203 249 309 371
#     4  10  24  40  57  87 128 170 202 246 313 382
#
# _framework density 18.765269
#
# number of rings (size 3 to 8) (size 9 to 14) (size 15 to 20)
#    0.000    0.966    5.517    1.241    5.793    0.552 
#    0.000    0.690    0.000    9.517    0.000    0.966 
#    0.000    0.000    0.000    0.000    0.000    0.000 
#
# Total GULP energy -645854.335813 kJ/mol
# GULP energy per Si atom -5567.709791 kJ/mol
# Density = 1.872256 g / cm^3
# Si number density = 18.765269 Si / 1000 Ang^3
#
#
#
# Elastic Constant Matrix: (Units=GPa)
#
#
# Indices 1 2 3 4 5 6 
#
# 1 56.0760 38.5783 38.1101 0.0000 0.0000 0.0000
# 2 38.5783 56.0763 38.1101 0.0000 0.0000 0.0000
# 3 38.1101 38.1101 97.8116 0.0000 0.0000 0.0000
# 4 0.0000 0.0000 0.0000 18.6311 0.0000 0.0000
# 5 0.0000 0.0000 0.0000 0.0000 18.6308 0.0000
# 6 0.0000 0.0000 0.0000 0.0000 0.0000 26.2929
#
#
#
# Elastic Compliance Matrix: (Units=1/GPa)
#
#
# Indices 1 2 3 4 5 6 
#
# 1 0.036272 -0.020878 -0.005998 0.000000 0.000000 0.000000
# 2 -0.020878 0.036272 -0.005998 0.000000 0.000000 0.000000
# 3 -0.005998 -0.005998 0.014898 0.000000 0.000000 0.000000
# 4 0.000000 0.000000 0.000000 0.053674 0.000000 0.000000
# 5 0.000000 0.000000 0.000000 0.000000 0.053674 0.000000
# 6 0.000000 0.000000 0.000000 0.000000 0.000000 0.038033
#
#
# Mechanical properties :
#
#
# Convention : Reuss Voigt Hill
#
# Bulk Modulus (GPa) = 46.09454 48.84009 47.46731
# Shear Modulus (GPa) = 16.35038 19.05534 17.70286
#
# Velocity S-wave (km/s) = 2.95500 3.19008 3.07479
# Velocity P-wave (km/s) = 6.02161 6.29700 6.16084
#
# Compressibility (1/GPa) = 0.02169454
#
# Stress axis : x y z
#
# Youngs Moduli (GPa) = 27.56910 27.56932 67.12362
#
# Poissons Ratio (x) = 0.57558 0.40263
# Poissons Ratio (y) = 0.57558 0.40262
# Poissons Ratio (z) = 0.16537 0.16537
#
# Static dielectric constant tensor:
#      x y z
#    x 1.726870 0.000000 0.000000 
#    y 0.000000 1.726870 0.000000 
#    z 0.000000 0.000000 1.641110 
# 
# From -- ./inp_files/6480.got.cif
#   From: 2010.05.17/outbox.cif.g08.bks.cpg/sg136_4_cif.got.tgz:6480.got - 2010.05.20 12:54:53.
