data_PCOD9569243
_publ_section_title
;
Structure prediction by ZEFSAII (Michael W. Deem and Ramdas Pophale) SiO2 
 PCOD9569243
Probable space group: P 42/M N M
;
_chemical_formula_sum "Si O2"
_cell_formula_units_Z 116
_cell_length_a 28.366023
_cell_length_b 28.366023
_cell_length_c 8.057858
_cell_angle_alpha 90.000000
_cell_angle_beta 90.000000
_cell_angle_gamma 90.000000
_cell_volume 6483.604442
_symmetry_space_group_name_H-M "P 42/M N M"
_symmetry_group_IT_number 136
_symmetry_cell_setting 'tetragonal'
loop_
_space_group_symop_operation_xyz
x,y,z
1/2-y,1/2+x,1/2+z
-x,-y,z
1/2+y,1/2-x,1/2+z
1/2+x,1/2-y,1/2-z
1/2-x,1/2+y,1/2-z
y,x,-z
-y,-x,-z
-x,-y,-z
1/2+y,1/2-x,1/2-z
x,y,-z
1/2-y,1/2+x,1/2-z
1/2-x,1/2+y,1/2+z
1/2+x,1/2-y,1/2+z
-y,-x,z
y,x,z
loop_
_atom_site_type_symbol
_atom_site_label
_atom_site_fract_x
_atom_site_fract_y
_atom_site_fract_z
Si Si1 0.671832 0.913008 0.805090
Si Si2 0.884944 0.781771 0.190582
Si Si3 0.303881 0.516341 0.807519
Si Si4 0.824581 0.824581 0.500000
Si Si5 0.651273 0.576168 0.695809
Si Si6 0.699636 0.012878 0.798205
Si Si7 0.848095 0.226305 0.696039
Si Si8 0.383151 0.176428 0.305604
O O1 0.726257 0.896798 0.790924
O O2 0.639013 0.874449 0.721869
O O3 0.670673 0.966809 0.742028
O O4 0.659971 0.913213 0.000000
O O5 0.853983 0.796933 0.348518
O O6 0.935342 0.808598 0.206028
O O7 0.866958 0.788368 0.000000
O O8 0.340790 0.474650 0.774958
O O9 0.253087 0.494415 0.760889
O O10 0.304081 0.529135 0.000000
O O11 0.645345 0.569541 0.500000
O O12 0.607624 0.607624 0.760381
O O13 0.697495 0.608976 0.721964
O O14 0.680851 0.063369 0.740605
O O15 0.700153 0.011677 0.000000
O O16 0.853282 0.219419 0.500000
O O17 0.799821 0.200180 0.749598
O O18 0.851767 0.281491 0.730768
O O19 0.385162 0.186518 0.500000
#
# Coordination Sequence:
#
# PCOD9569243 Si02
#       8
#    16  16  16   4  16  16  16  16
#     4   9  20  38  57  78 111 145 185 231 281 334
#     4  10  22  40  60  84 117 152 190 248 288 332
#     4  11  19  31  54  82 109 144 191 236 284 340
#     4  12  22  40  64  90 113 150 210 232 296 336
#     4  10  19  30  47  73 110 148 182 227 282 340
#     4   9  19  35  54  77 105 143 181 231 287 334
#     4  10  20  33  47  71 107 145 184 220 265 332
#     4  11  21  33  55  80 106 142 186 228 280 340
#
# _framework density 17.891282
#
# number of rings (size 3 to 8) (size 9 to 14) (size 15 to 20)
#    0.000    1.931    2.069    3.517    0.966    2.759 
#    1.241    0.000    0.000    0.414    0.000    3.862 
#    0.000    2.207    0.000    0.000    0.000    0.000 
#
# Total GULP energy -645791.857507 kJ/mol
# GULP energy per Si atom -5567.171185 kJ/mol
# Density = 1.785056 g / cm^3
# Si number density = 17.891282 Si / 1000 Ang^3
#
#
#
# Elastic Constant Matrix: (Units=GPa)
#
#
# Indices 1 2 3 4 5 6 
#
# 1 -5.5994 75.5626 20.1343 0.0000 0.0000 0.0000
# 2 75.5626 -5.5994 20.1343 0.0000 0.0000 0.0000
# 3 20.1343 20.1343 70.9726 0.0000 0.0000 0.0000
# 4 0.0000 0.0000 0.0000 17.6492 0.0000 0.0000
# 5 0.0000 0.0000 0.0000 0.0000 17.6492 0.0000
# 6 0.0000 0.0000 0.0000 0.0000 0.0000 21.0764
#
#
#
# Elastic Compliance Matrix: (Units=1/GPa)
#
#
# Indices 1 2 3 4 5 6 
#
# 1 0.002381 0.014702 -0.004846 0.000000 0.000000 0.000000
# 2 0.014702 0.002381 -0.004846 0.000000 0.000000 0.000000
# 3 -0.004846 -0.004846 0.016840 0.000000 0.000000 0.000000
# 4 0.000000 0.000000 0.000000 0.056660 0.000000 0.000000
# 5 0.000000 0.000000 0.000000 0.000000 0.056660 0.000000
# 6 0.000000 0.000000 0.000000 0.000000 0.000000 0.047446
#
#
# Mechanical properties :
#
#
# Convention : Reuss Voigt Hill
#
# Bulk Modulus (GPa) = 31.62558 32.38180 32.00369
# Shear Modulus (GPa) = 27.33912 7.53780 17.43846
#
# Velocity S-wave (km/s) = 3.91329 2.05481 3.12539
# Velocity P-wave (km/s) = 6.17522 4.87526 5.56334
#
# Compressibility (1/GPa) = 0.03161997
#
# Stress axis : x y z
#
# Youngs Moduli (GPa) = 420.03857 420.03857 59.38398
#
# Poissons Ratio (x) = -6.17531 0.28778
# Poissons Ratio (y) = -6.17531 0.28778
# Poissons Ratio (z) = 2.03557 2.03557
#
# Static dielectric constant tensor:
#      x y z
#    x 1.618940 0.000000 0.000000 
#    y 0.000000 1.618940 0.000000 
#    z 0.000000 0.000000 1.635850 
# 
# From -- ./inp_files/2361.got.cif
#   From: 2010.05.17/outbox.cif.g08.bks.cpg/sg136_2_cif.got.tgz:2361.got - 2010.05.20 12:54:53.
