data_PCOD9569196
_publ_section_title
;
Structure prediction by ZEFSAII (Michael W. Deem and Ramdas Pophale) SiO2 
 PCOD9569196
Probable space group: P 42/M N M
;
_chemical_formula_sum "Si O2"
_cell_formula_units_Z 96
_cell_length_a 24.525509
_cell_length_b 24.525509
_cell_length_c 7.867915
_cell_angle_alpha 90.000000
_cell_angle_beta 90.000000
_cell_angle_gamma 90.000000
_cell_volume 4732.555528
_symmetry_space_group_name_H-M "P 42/M N M"
_symmetry_group_IT_number 136
_symmetry_cell_setting 'tetragonal'
loop_
_space_group_symop_operation_xyz
x,y,z
1/2-y,1/2+x,1/2+z
-x,-y,z
1/2+y,1/2-x,1/2+z
1/2+x,1/2-y,1/2-z
1/2-x,1/2+y,1/2-z
y,x,-z
-y,-x,-z
-x,-y,-z
1/2+y,1/2-x,1/2-z
x,y,-z
1/2-y,1/2+x,1/2-z
1/2-x,1/2+y,1/2+z
1/2+x,1/2-y,1/2+z
-y,-x,z
y,x,z
loop_
_atom_site_type_symbol
_atom_site_label
_atom_site_fract_x
_atom_site_fract_y
_atom_site_fract_z
Si Si1 0.667236 0.784114 0.194287
Si Si2 0.402119 0.317752 0.203948
Si Si3 0.518283 0.275176 0.305433
Si Si4 0.857343 0.768627 0.794123
Si Si5 0.400973 0.119938 0.700490
Si Si6 0.990383 0.654930 0.296757
O O1 0.638821 0.730225 0.270804
O O2 0.718616 0.818416 0.269496
O O3 0.619034 0.827936 0.197815
O O4 0.682976 0.770988 0.000000
O O5 0.374834 0.374834 0.257510
O O6 0.465915 0.309135 0.242797
O O7 0.398581 0.313708 0.000000
O O8 0.525882 0.291260 0.500000
O O9 0.580161 0.273670 0.228477
O O10 0.499016 0.212765 0.288630
O O11 0.823669 0.823669 0.762198
O O12 0.861039 0.760381 0.000000
O O13 0.392916 0.129220 0.500000
O O14 0.464181 0.112595 0.738574
O O15 0.365634 0.068759 0.754461
O O16 0.991748 0.661170 0.500000
#
# Coordination Sequence:
#
# PCOD9569196 Si02
#       6
#    16  16  16  16  16  16
#     4  10  18  32  56  83 111 145 180 221 273 327
#     4  10  21  36  56  83 114 150 188 224 271 331
#     4  11  21  34  57  85 111 143 182 225 275 330
#     4   9  18  33  55  84 114 144 182 224 270 329
#     4  11  23  36  54  79 108 144 189 234 275 321
#     4  11  23  38  55  76 108 148 188 231 276 326
#
# _framework density 20.285022999999999
#
# number of rings (size 3 to 8) (size 9 to 14) (size 15 to 20)
#    0.000    1.667    3.333    2.000    0.000    4.667 
#    0.000    1.667    0.000    6.000    0.000    3.500 
#    0.000    0.000    0.000    0.000    0.000    0.000 
#
# Total GULP energy -535168.482978 kJ/mol
# GULP energy per Si atom -5574.671698 kJ/mol
# Density = 2.023885 g / cm^3
# Si number density = 20.285023 Si / 1000 Ang^3
#
#
#
# Elastic Constant Matrix: (Units=GPa)
#
#
# Indices 1 2 3 4 5 6 
#
# 1 58.7962 53.5558 2.3504 0.0000 0.0000 0.0000
# 2 53.5558 58.7962 2.3504 0.0000 0.0000 0.0000
# 3 2.3504 2.3504 23.9138 0.0000 0.0000 0.0000
# 4 0.0000 0.0000 0.0000 -16.2246 0.0000 0.0000
# 5 0.0000 0.0000 0.0000 0.0000 -16.2246 0.0000
# 6 0.0000 0.0000 0.0000 0.0000 0.0000 34.5319
#
#
#
# Elastic Compliance Matrix: (Units=1/GPa)
#
#
# Indices 1 2 3 4 5 6 
#
# 1 0.099881 -0.090944 -0.000878 0.000000 0.000000 0.000000
# 2 -0.090944 0.099881 -0.000878 0.000000 0.000000 0.000000
# 3 -0.000878 -0.000878 0.041990 0.000000 0.000000 0.000000
# 4 0.000000 0.000000 0.000000 -0.061635 0.000000 0.000000
# 5 0.000000 0.000000 0.000000 0.000000 -0.061635 0.000000
# 6 0.000000 0.000000 0.000000 0.000000 0.000000 0.028959
#
#
# Mechanical properties :
#
#
# Convention : Reuss Voigt Hill
#
# Bulk Modulus (GPa) = 17.74606 28.66882 23.20744
# Shear Modulus (GPa) = 14.21970 5.96653 10.09311
#
# Velocity S-wave (km/s) = 2.65050 1.71690 2.23304
# Velocity P-wave (km/s) = 4.25843 4.25370 4.25607
#
# Compressibility (1/GPa) = 0.05635055
#
# Stress axis : x y z
#
# Youngs Moduli (GPa) = 10.01191 10.01191 23.81547
#
# Poissons Ratio (x) = 0.91052 0.02092
# Poissons Ratio (y) = 0.91052 0.02092
# Poissons Ratio (z) = 0.00879 0.00879
#
# Static dielectric constant tensor:
#      x y z
#    x 1.744520 0.000000 0.000000 
#    y 0.000000 1.744520 0.000000 
#    z 0.000000 0.000000 1.769510 
# 
# From -- ./inp_files/1933.got.cif
#   From: 2010.05.17/outbox.cif.g08.bks.cpg/sg136_1_cif.got.tgz:1933.got - 2010.05.20 12:54:53.
