data_PCOD9569257
_publ_section_title
;
Structure prediction by ZEFSAII (Michael W. Deem and Ramdas Pophale) SiO2 
 PCOD9569257
Probable space group: P 42/M N M
;
_chemical_formula_sum "Si O2"
_cell_formula_units_Z 72
_cell_length_a 19.961827
_cell_length_b 19.961827
_cell_length_c 8.883480
_cell_angle_alpha 90.000000
_cell_angle_beta 90.000000
_cell_angle_gamma 90.000000
_cell_volume 3539.840582
_symmetry_space_group_name_H-M "P 42/M N M"
_symmetry_group_IT_number 136
_symmetry_cell_setting 'tetragonal'
loop_
_space_group_symop_operation_xyz
x,y,z
1/2-y,1/2+x,1/2+z
-x,-y,z
1/2+y,1/2-x,1/2+z
1/2+x,1/2-y,1/2-z
1/2-x,1/2+y,1/2-z
y,x,-z
-y,-x,-z
-x,-y,-z
1/2+y,1/2-x,1/2-z
x,y,-z
1/2-y,1/2+x,1/2-z
1/2-x,1/2+y,1/2+z
1/2+x,1/2-y,1/2+z
-y,-x,z
y,x,z
loop_
_atom_site_type_symbol
_atom_site_label
_atom_site_fract_x
_atom_site_fract_y
_atom_site_fract_z
Si Si1 0.945622 0.054379 0.816739
Si Si2 0.723724 0.884649 0.827850
Si Si3 0.239931 0.348869 0.678577
Si Si4 0.203611 0.987634 0.184679
Si Si5 0.958542 0.584071 0.831338
O O1 0.967008 0.128798 0.770803
O O2 0.944938 0.055063 0.000000
O O3 0.000000 0.000000 0.767849
O O4 0.697706 0.817900 0.747707
O O5 0.658116 0.931488 0.828689
O O6 0.778129 0.937001 0.763881
O O7 0.742102 0.867360 0.000000
O O8 0.228002 0.352129 0.500000
O O9 0.310161 0.310161 0.702136
O O10 0.248309 0.425679 0.733896
O O11 0.207373 0.989287 0.000000
O O12 0.920714 0.535783 0.715564
O O13 0.948452 0.557886 0.000000
#
# Coordination Sequence:
#
# PCOD9569257 Si02
#       5
#     8  16  16  16  16
#     4   9  16  28  52  82 105 133 179 230 279 330
#     4  10  21  33  50  78 110 139 174 227 280 329
#     4  10  20  36  58  79 106 148 190 227 274 341
#     4   9  17  33  53  77 110 145 182 226 279 333
#     4  10  19  31  47  70 101 140 179 219 268 320
#
# _framework density 20.339898999999999
#
# number of rings (size 3 to 8) (size 9 to 14) (size 15 to 20)
#    0.000    2.333    1.111    2.667    0.000    4.889 
#    0.000    3.333    0.000    0.000    0.000    0.000 
#    0.000    3.556    0.000    0.000    0.000    0.000 
#
# Total GULP energy -401313.652763 kJ/mol
# GULP energy per Si atom -5573.800733 kJ/mol
# Density = 2.029360 g / cm^3
# Si number density = 20.339899 Si / 1000 Ang^3
#
#
#
# Elastic Constant Matrix: (Units=GPa)
#
#
# Indices 1 2 3 4 5 6 
#
# 1 88.9039 38.1157 10.6723 0.0000 0.0000 0.0000
# 2 38.1157 88.9038 10.6722 0.0000 0.0000 0.0000
# 3 10.6723 10.6722 13.1673 0.0000 0.0000 0.0000
# 4 0.0000 0.0000 0.0000 16.8270 0.0000 0.0000
# 5 0.0000 0.0000 0.0000 0.0000 16.8269 0.0000
# 6 0.0000 0.0000 0.0000 0.0000 0.0000 21.0539
#
#
#
# Elastic Compliance Matrix: (Units=1/GPa)
#
#
# Indices 1 2 3 4 5 6 
#
# 1 0.014402 -0.005288 -0.007387 0.000000 0.000000 0.000000
# 2 -0.005288 0.014402 -0.007387 0.000000 0.000000 0.000000
# 3 -0.007387 -0.007387 0.087920 0.000000 0.000000 0.000000
# 4 0.000000 0.000000 0.000000 0.059428 0.000000 0.000000
# 5 0.000000 0.000000 0.000000 0.000000 0.059428 0.000000
# 6 0.000000 0.000000 0.000000 0.000000 0.000000 0.047497
#
#
# Mechanical properties :
#
#
# Convention : Reuss Voigt Hill
#
# Bulk Modulus (GPa) = 13.05479 34.43285 23.74382
# Shear Modulus (GPa) = 14.33751 19.70922 17.02336
#
# Velocity S-wave (km/s) = 2.65787 3.11624 2.89614
# Velocity P-wave (km/s) = 3.98136 5.46932 4.78355
#
# Compressibility (1/GPa) = 0.07660022
#
# Stress axis : x y z
#
# Youngs Moduli (GPa) = 69.43533 69.43534 11.37392
#
# Poissons Ratio (x) = 0.36716 0.08402
# Poissons Ratio (y) = 0.36716 0.08402
# Poissons Ratio (z) = 0.51293 0.51292
#
# Static dielectric constant tensor:
#      x y z
#    x 1.748350 0.000000 0.000000 
#    y 0.000000 1.748350 0.000000 
#    z 0.000000 0.000000 1.713690 
# 
# From -- ./inp_files/1564.got.cif
#   From: 2010.05.17/outbox.cif.g08.bks.cpg/sg136_1_cif.got.tgz:1564.got - 2010.05.20 12:54:53.
