data_PCOD9569110
_publ_section_title
;
Structure prediction by ZEFSAII (Michael W. Deem and Ramdas Pophale) SiO2 
 PCOD9569110
Probable space group: P 42/M N M
;
_chemical_formula_sum "Si O2"
_cell_formula_units_Z 128
_cell_length_a 20.562535
_cell_length_b 20.562535
_cell_length_c 18.847732
_cell_angle_alpha 90.000000
_cell_angle_beta 90.000000
_cell_angle_gamma 90.000000
_cell_volume 7969.157439
_symmetry_space_group_name_H-M "P 42/M N M"
_symmetry_group_IT_number 136
_symmetry_cell_setting 'tetragonal'
loop_
_space_group_symop_operation_xyz
x,y,z
1/2-y,1/2+x,1/2+z
-x,-y,z
1/2+y,1/2-x,1/2+z
1/2+x,1/2-y,1/2-z
1/2-x,1/2+y,1/2-z
y,x,-z
-y,-x,-z
-x,-y,-z
1/2+y,1/2-x,1/2-z
x,y,-z
1/2-y,1/2+x,1/2-z
1/2-x,1/2+y,1/2+z
1/2+x,1/2-y,1/2+z
-y,-x,z
y,x,z
loop_
_atom_site_type_symbol
_atom_site_label
_atom_site_fract_x
_atom_site_fract_y
_atom_site_fract_z
Si Si1 0.924199 0.815951 0.218318
Si Si2 0.032381 0.599056 0.732436
Si Si3 0.530584 0.235912 0.581229
Si Si4 0.436438 0.329122 0.223063
Si Si5 0.365997 0.137100 0.125523
Si Si6 0.586230 0.788605 0.673550
Si Si7 0.722144 0.614892 0.077131
Si Si8 0.175387 0.285282 0.266354
O O1 0.873359 0.873359 0.206769
O O2 0.944236 0.785033 0.142424
O O3 0.887200 0.761630 0.265886
O O4 0.988888 0.838804 0.257387
O O5 0.074527 0.541141 0.768083
O O6 0.065620 0.612344 0.657017
O O7 0.041249 0.663093 0.779411
O O8 0.535433 0.258572 0.500000
O O9 0.578071 0.173679 0.591143
O O10 0.455716 0.221087 0.602748
O O11 0.393913 0.393913 0.226107
O O12 0.409674 0.277803 0.281233
O O13 0.426898 0.298261 0.145203
O O14 0.374468 0.200875 0.078920
O O15 0.325949 0.164431 0.193853
O O16 0.659192 0.817198 0.673789
O O17 0.683016 0.683016 0.084819
O O18 0.703360 0.587478 0.000000
O O19 0.238650 0.238650 0.263384
#
# Coordination Sequence:
#
# PCOD9569110 Si02
#       8
#    16  16  16  16  16  16  16  16
#     4   9  20  35  54  80 102 130 173 215 262 315
#     4  10  18  28  46  70  95 130 177 213 246 287
#     4  10  20  33  48  74 108 141 173 208 256 312
#     4  10  19  32  52  76 102 131 169 214 260 311
#     4  10  17  28  46  69 102 137 165 199 248 303
#     4  10  18  29  50  71  95 133 174 214 251 295
#     4  10  19  29  45  73 105 132 157 195 254 316
#     4   9  16  28  50  75  97 120 162 215 256 297
#
# _framework density 16.061924000000001
#
# number of rings (size 3 to 8) (size 9 to 14) (size 15 to 20)
#    0.000    2.250    3.750    1.125    1.750    1.000 
#    0.000    0.000    0.000   14.250    0.000    7.000 
#    0.000    0.000    0.000    0.000    0.000    0.000 
#
# Total GULP energy -712839.682612 kJ/mol
# GULP energy per Si atom -5569.060020 kJ/mol
# Density = 1.602537 g / cm^3
# Si number density = 16.061924 Si / 1000 Ang^3
#
#
#
# Elastic Constant Matrix: (Units=GPa)
#
#
# Indices 1 2 3 4 5 6 
#
# 1 80.6138 22.4652 31.9207 0.0000 0.0000 0.0000
# 2 22.4652 80.6138 31.9207 0.0000 0.0000 0.0000
# 3 31.9207 31.9207 72.2543 0.0000 0.0000 0.0000
# 4 0.0000 0.0000 0.0000 13.9499 0.0000 0.0000
# 5 0.0000 0.0000 0.0000 0.0000 13.9499 0.0000
# 6 0.0000 0.0000 0.0000 0.0000 0.0000 14.8576
#
#
#
# Elastic Compliance Matrix: (Units=1/GPa)
#
#
# Indices 1 2 3 4 5 6 
#
# 1 0.015276 -0.001921 -0.005900 0.000000 0.000000 0.000000
# 2 -0.001921 0.015276 -0.005900 0.000000 0.000000 0.000000
# 3 -0.005900 -0.005900 0.019053 0.000000 0.000000 0.000000
# 4 0.000000 0.000000 0.000000 0.071685 0.000000 0.000000
# 5 0.000000 0.000000 0.000000 0.000000 0.071685 0.000000
# 6 0.000000 0.000000 0.000000 0.000000 0.000000 0.067306
#
#
# Mechanical properties :
#
#
# Convention : Reuss Voigt Hill
#
# Bulk Modulus (GPa) = 45.11945 45.12168 45.12057
# Shear Modulus (GPa) = 16.94271 18.36319 17.65295
#
# Velocity S-wave (km/s) = 3.25135 3.38490 3.31880
# Velocity P-wave (km/s) = 6.49977 6.59015 6.54511
#
# Compressibility (1/GPa) = 0.02216339
#
# Stress axis : x y z
#
# Youngs Moduli (GPa) = 65.46023 65.46023 52.48438
#
# Poissons Ratio (x) = 0.12574 0.30967
# Poissons Ratio (y) = 0.12574 0.30967
# Poissons Ratio (z) = 0.38623 0.38623
#
# Static dielectric constant tensor:
#      x y z
#    x 1.548800 0.000000 0.000000 
#    y 0.000000 1.548800 0.000000 
#    z 0.000000 0.000000 1.522760 
# 
# From -- ./inp_files/6658.got.cif
#   From: 2010.05.17/outbox.cif.g08.bks.cpg/sg136_4_cif.got.tgz:6658.got - 2010.05.20 12:54:53.
