data_PCOD9569866
_publ_section_title
;
Structure prediction by ZEFSAII (Michael W. Deem and Ramdas Pophale) SiO2 
 PCOD9569866
Probable space group: P 42/M N M
;
_chemical_formula_sum "Si O2"
_cell_formula_units_Z 88
_cell_length_a 12.317417
_cell_length_b 12.317417
_cell_length_c 28.478041
_cell_angle_alpha 90.000000
_cell_angle_beta 90.000000
_cell_angle_gamma 90.000000
_cell_volume 4320.653112
_symmetry_space_group_name_H-M "P 42/M N M"
_symmetry_group_IT_number 136
_symmetry_cell_setting 'tetragonal'
loop_
_space_group_symop_operation_xyz
x,y,z
1/2-y,1/2+x,1/2+z
-x,-y,z
1/2+y,1/2-x,1/2+z
1/2+x,1/2-y,1/2-z
1/2-x,1/2+y,1/2-z
y,x,-z
-y,-x,-z
-x,-y,-z
1/2+y,1/2-x,1/2-z
x,y,-z
1/2-y,1/2+x,1/2-z
1/2-x,1/2+y,1/2+z
1/2+x,1/2-y,1/2+z
-y,-x,z
y,x,z
loop_
_atom_site_type_symbol
_atom_site_label
_atom_site_fract_x
_atom_site_fract_y
_atom_site_fract_z
Si Si1 0.181343 0.642244 0.555314
Si Si2 0.048173 0.228658 0.794196
Si Si3 0.759552 0.061387 0.895293
Si Si4 0.908254 0.908254 0.554935
Si Si5 0.033728 0.310561 0.391173
Si Si6 0.910929 0.266940 0.701659
O O1 0.158007 0.645598 0.500000
O O2 0.249680 0.750321 0.567988
O O3 0.252913 0.538402 0.568813
O O4 0.071386 0.635290 0.585004
O O5 0.123643 0.123643 0.786141
O O6 0.128963 0.331953 0.796425
O O7 0.987549 0.218916 0.843702
O O8 0.964931 0.245263 0.751827
O O9 0.850902 0.149099 0.907110
O O10 0.642447 0.119607 0.894440
O O11 0.886861 0.886861 0.500000
O O12 0.947805 0.800313 0.580623
O O13 0.000000 0.000000 0.558079
O O14 0.002093 0.286226 0.337503
O O15 0.835009 0.164992 0.688278
#
# Coordination Sequence:
#
# PCOD9569866 Si02
#       6
#    16  16  16   8  16  16
#     4  11  25  46  73 102 136 183 237 289 349 415
#     4  11  25  44  67  98 138 184 228 282 348 415
#     4  12  26  45  67 101 142 185 232 287 346 414
#     4  11  24  42  68 102 143 185 225 285 357 419
#     4  12  24  44  70 102 140 179 230 290 348 413
#     4  11  24  41  67  98 131 174 229 281 336 407
#
# _framework density 20.367291999999999
#
# number of rings (size 3 to 8) (size 9 to 14) (size 15 to 20)
#    0.000    0.636    2.727    4.909    1.273    9.818 
#    0.000    0.909    0.000    0.000    0.000    0.000 
#    0.000    0.000    0.000    0.000    0.000    0.000 
#
# Total GULP energy -492760.171875 kJ/mol
# GULP energy per Si atom -5599.547408 kJ/mol
# Density = 2.032093 g / cm^3
# Si number density = 20.367292 Si / 1000 Ang^3
#
#
#
# Elastic Constant Matrix: (Units=GPa)
#
#
# Indices 1 2 3 4 5 6 
#
# 1 72.4146 8.6361 -6.4729 0.0000 0.0000 0.0000
# 2 8.6361 72.4146 -6.4729 0.0000 0.0000 0.0000
# 3 -6.4729 -6.4729 36.4280 0.0000 0.0000 0.0000
# 4 0.0000 0.0000 0.0000 29.9940 0.0000 0.0000
# 5 0.0000 0.0000 0.0000 0.0000 29.9940 0.0000
# 6 0.0000 0.0000 0.0000 0.0000 0.0000 28.5461
#
#
#
# Elastic Compliance Matrix: (Units=1/GPa)
#
#
# Indices 1 2 3 4 5 6 
#
# 1 0.014189 -0.001490 0.002256 0.000000 0.000000 0.000000
# 2 -0.001490 0.014189 0.002256 0.000000 0.000000 0.000000
# 3 0.002256 0.002256 0.028253 0.000000 0.000000 0.000000
# 4 0.000000 0.000000 0.000000 0.033340 0.000000 0.000000
# 5 0.000000 0.000000 0.000000 0.000000 0.033340 0.000000
# 6 0.000000 0.000000 0.000000 0.000000 0.000000 0.035031
#
#
# Mechanical properties :
#
#
# Convention : Reuss Voigt Hill
#
# Bulk Modulus (GPa) = 15.95519 19.18197 17.56858
# Shear Modulus (GPa) = 28.87014 30.07793 29.47404
#
# Velocity S-wave (km/s) = 3.76902 3.84705 3.80824
# Velocity P-wave (km/s) = 5.17605 5.40107 5.28975
#
# Compressibility (1/GPa) = 0.06267553
#
# Stress axis : x y z
#
# Youngs Moduli (GPa) = 70.47806 70.47806 35.39408
#
# Poissons Ratio (x) = 0.10504 -0.07986
# Poissons Ratio (y) = 0.10504 -0.07986
# Poissons Ratio (z) = -0.15902 -0.15902
#
# Static dielectric constant tensor:
#      x y z
#    x 1.713940 0.000000 0.000000 
#    y 0.000000 1.713940 0.000000 
#    z 0.000000 0.000000 1.677910 
# 
# From -- ./inp_files/9697.got.cif
#   From: 2010.05.17/outbox.cif.g08.bks.cpg/sg136_5_cif.got.tgz:9697.got - 2010.05.20 12:54:53.
