data_PCOD9569921
_publ_section_title
;
Structure prediction by ZEFSAII (Michael W. Deem and Ramdas Pophale) SiO2 
 PCOD9569921
Probable space group: P 42/M N M
;
_chemical_formula_sum "Si O2"
_cell_formula_units_Z 112
_cell_length_a 15.000000
_cell_length_b 15.000000
_cell_length_c 27.000000
_cell_angle_alpha 90.000000
_cell_angle_beta 90.000000
_cell_angle_gamma 90.000000
_cell_volume 6075.000000
_symmetry_space_group_name_H-M "P 42/M N M"
_symmetry_group_IT_number 136
_symmetry_cell_setting 'tetragonal'
loop_
_space_group_symop_operation_xyz
x,y,z
1/2-y,1/2+x,1/2+z
-x,-y,z
1/2+y,1/2-x,1/2+z
1/2+x,1/2-y,1/2-z
1/2-x,1/2+y,1/2-z
y,x,-z
-y,-x,-z
-x,-y,-z
1/2+y,1/2-x,1/2-z
x,y,-z
1/2-y,1/2+x,1/2-z
1/2-x,1/2+y,1/2+z
1/2+x,1/2-y,1/2+z
-y,-x,z
y,x,z
loop_
_atom_site_type_symbol
_atom_site_label
_atom_site_fract_x
_atom_site_fract_y
_atom_site_fract_z
Si Si1 0.857267 0.006840 0.944366
Si Si2 0.419105 0.804242 0.610817
Si Si3 0.970461 0.326075 0.558673
Si Si4 0.668426 0.188247 0.713998
Si Si5 0.016930 0.279061 0.289006
Si Si6 0.928299 0.425922 0.863310
Si Si7 0.002276 0.148265 0.622733
O O1 0.937923 0.937923 0.948362
O O2 0.783758 0.950701 0.915954
O O3 0.824619 0.027641 0.000000
O O4 0.901972 0.098029 0.923367
O O5 0.374399 0.878228 0.574942
O O6 0.350797 0.797333 0.655984
O O7 0.512489 0.839705 0.632987
O O8 0.976758 0.318827 0.500000
O O9 0.982167 0.230356 0.585577
O O10 0.045792 0.388791 0.583486
O O11 0.754108 0.245893 0.729224
O O12 0.581188 0.224477 0.742170
O O13 0.684799 0.082618 0.721909
O O14 0.067532 0.348763 0.325033
O O15 0.007878 0.190573 0.322247
O O16 0.000000 0.500000 0.847527
O O17 0.921655 0.078346 0.620165
O O18 0.092774 0.092774 0.611772
#
# Coordination Sequence:
#
# PCOD9569921 Si02
#       7
#    16  16  16  16  16  16  16
#     4   9  19  36  56  79 113 158 198 235 292 358
#     4  11  20  36  59  86 119 148 197 251 298 353
#     4  10  21  35  56  88 121 152 196 251 298 353
#     4  12  24  37  61  92 119 154 203 253 305 368
#     4  11  22  39  61  83 119 151 197 245 308 358
#     4   9  18  36  56  84 111 152 188 233 296 356
#     4  10  21  40  61  80 114 161 202 244 298 363
#
# _framework density 18.436214
#
# number of rings (size 3 to 8) (size 9 to 14) (size 15 to 20)
#    0.000    1.714    4.286    3.000    0.000    4.286 
#    0.000    7.143    0.000    3.429    0.000    0.000 
#    0.000    0.000    0.000    0.000    0.000    0.000 
#
# Total GULP energy -624019.556498 kJ/mol
# GULP energy per Si atom -5571.603183 kJ/mol
# Density = 1.839425 g / cm^3
# Si number density = 18.436214 Si / 1000 Ang^3
#
#
#
# Elastic Constant Matrix: (Units=GPa)
#
#
# Indices 1 2 3 4 5 6 
#
# 1 76.4527 25.3539 8.6392 0.0000 0.0000 0.0000
# 2 25.3539 76.4527 8.6392 0.0000 0.0000 0.0000
# 3 8.6392 8.6392 59.8956 0.0000 0.0000 0.0000
# 4 0.0000 0.0000 0.0000 -4.5446 0.0000 0.0000
# 5 0.0000 0.0000 0.0000 0.0000 -4.5446 0.0000
# 6 0.0000 0.0000 0.0000 0.0000 0.0000 25.8378
#
#
#
# Elastic Compliance Matrix: (Units=1/GPa)
#
#
# Indices 1 2 3 4 5 6 
#
# 1 0.014819 -0.004750 -0.001452 0.000000 0.000000 0.000000
# 2 -0.004750 0.014819 -0.001452 0.000000 0.000000 0.000000
# 3 -0.001452 -0.001452 0.017115 0.000000 0.000000 0.000000
# 4 0.000000 0.000000 0.000000 -0.220043 0.000000 0.000000
# 5 0.000000 0.000000 0.000000 0.000000 -0.220043 0.000000
# 6 0.000000 0.000000 0.000000 0.000000 0.000000 0.038703
#
#
# Mechanical properties :
#
#
# Convention : Reuss Voigt Hill
#
# Bulk Modulus (GPa) = 31.80317 33.11840 32.46079
# Shear Modulus (GPa) = -15.20506 14.69431 -0.25537
#
# Velocity S-wave (km/s) = -2.87494 2.82624 -0.37258
# Velocity P-wave (km/s) = 2.50349 5.35285 4.17854
#
# Compressibility (1/GPa) = 0.03144341
#
# Stress axis : x y z
#
# Youngs Moduli (GPa) = 67.47868 67.47868 58.42934
#
# Poissons Ratio (x) = 0.32055 0.08486
# Poissons Ratio (y) = 0.32055 0.08486
# Poissons Ratio (z) = 0.09800 0.09800
#
# Static dielectric constant tensor:
#      x y z
#    x 1.717720 0.000000 0.000000 
#    y 0.000000 1.717720 0.000000 
#    z 0.000000 0.000000 1.663860 
# 
# From -- ./inp_files/9197.got.cif
#   From: 2010.05.17/outbox.ucp.g08.bks.cvg/sg136_5_cif.got.tgz:9197.got - 2010.06.11 11:40:42.
