data_PCOD9569320
_publ_section_title
;
Structure prediction by ZEFSAII (Michael W. Deem and Ramdas Pophale) SiO2 
 PCOD9569320
Probable space group: P 42/M N M
;
_chemical_formula_sum "Si O2"
_cell_formula_units_Z 84
_cell_length_a 15.638050
_cell_length_b 15.638050
_cell_length_c 18.019293
_cell_angle_alpha 90.000000
_cell_angle_beta 90.000000
_cell_angle_gamma 90.000000
_cell_volume 4406.593017
_symmetry_space_group_name_H-M "P 42/M N M"
_symmetry_group_IT_number 136
_symmetry_cell_setting 'tetragonal'
loop_
_space_group_symop_operation_xyz
x,y,z
1/2-y,1/2+x,1/2+z
-x,-y,z
1/2+y,1/2-x,1/2+z
1/2+x,1/2-y,1/2-z
1/2-x,1/2+y,1/2-z
y,x,-z
-y,-x,-z
-x,-y,-z
1/2+y,1/2-x,1/2-z
x,y,-z
1/2-y,1/2+x,1/2-z
1/2-x,1/2+y,1/2+z
1/2+x,1/2-y,1/2+z
-y,-x,z
y,x,z
loop_
_atom_site_type_symbol
_atom_site_label
_atom_site_fract_x
_atom_site_fract_y
_atom_site_fract_z
Si Si1 0.371809 0.628191 0.581912
Si Si2 0.692046 0.095653 0.146165
Si Si3 0.902849 0.759655 0.315944
Si Si4 0.259655 0.402849 0.815943
Si Si5 0.871812 0.128189 0.081912
Si Si6 0.807956 0.404347 0.353833
Si Si7 0.000000 0.000000 0.852201
O O1 0.399883 0.600117 0.500000
O O2 0.389844 0.727937 0.592495
O O3 0.425675 0.574326 0.640938
O O4 0.626069 0.173483 0.141672
O O5 0.733239 0.100451 0.228925
O O6 0.772066 0.110154 0.092493
O O7 0.656209 0.000000 0.136858
O O8 0.834478 0.834478 0.329000
O O9 0.899550 0.733236 0.228926
O O10 1.000000 0.784523 0.333503
O O11 0.334478 0.334478 0.829000
O O12 0.173483 0.373934 0.858326
O O13 0.925676 0.074325 0.140941
O O14 0.899888 0.100113 0.000000
#
# Coordination Sequence:
#
# PCOD9569320 Si02
#       7
#     8  16  16  16   8  16   4
#     4  12  21  31  49  75 111 147 173 205 247 304
#     4  10  19  33  51  73 105 140 171 208 257 313
#     4  10  19  33  52  75 104 134 172 219 266 313
#     4  10  19  33  52  75 104 134 172 219 266 313
#     4  12  21  31  49  75 111 147 173 205 247 304
#     4  10  19  33  51  73 105 140 171 208 257 313
#     4  12  25  32  44  84 116 140 188 212 237 318
#
# _framework density 19.062346999999999
#
# number of rings (size 3 to 8) (size 9 to 14) (size 15 to 20)
#    0.000    1.524    5.714    2.000    0.000    1.143 
#    0.000    3.810    0.000    1.143    0.000    2.667 
#    0.000    1.524    0.000    0.000    0.000    0.000 
#
# Total GULP energy -467771.345767 kJ/mol
# GULP energy per Si atom -5568.706497 kJ/mol
# Density = 1.901896 g / cm^3
# Si number density = 19.062347 Si / 1000 Ang^3
#
#
#
# Elastic Constant Matrix: (Units=GPa)
#
#
# Indices 1 2 3 4 5 6 
#
# 1 118.3588 67.8379 6.1922 0.0000 0.0000 0.0000
# 2 67.8379 118.3590 6.1924 0.0000 0.0000 0.0000
# 3 6.1922 6.1924 12.4183 0.0000 0.0000 0.0000
# 4 0.0000 0.0000 0.0000 -15.9734 0.0000 0.0000
# 5 0.0000 0.0000 0.0000 0.0000 -15.9732 0.0000
# 6 0.0000 0.0000 0.0000 0.0000 0.0000 18.4163
#
#
#
# Elastic Compliance Matrix: (Units=1/GPa)
#
#
# Indices 1 2 3 4 5 6 
#
# 1 0.012674 -0.007119 -0.002770 0.000000 0.000000 0.000000
# 2 -0.007119 0.012674 -0.002770 0.000000 0.000000 0.000000
# 3 -0.002770 -0.002770 0.083288 0.000000 0.000000 0.000000
# 4 0.000000 0.000000 0.000000 -0.062604 0.000000 0.000000
# 5 0.000000 0.000000 0.000000 0.000000 -0.062605 0.000000
# 6 0.000000 0.000000 0.000000 0.000000 0.000000 0.054300
#
#
# Mechanical properties :
#
#
# Convention : Reuss Voigt Hill
#
# Bulk Modulus (GPa) = 12.00210 45.50899 28.75554
# Shear Modulus (GPa) = 55.05459 8.55487 31.80473
#
# Velocity S-wave (km/s) = 5.37997 2.12075 4.08911
# Velocity P-wave (km/s) = 6.70089 5.47013 6.11655
#
# Compressibility (1/GPa) = 0.08331874
#
# Stress axis : x y z
#
# Youngs Moduli (GPa) = 78.89966 78.89968 12.00646
#
# Poissons Ratio (x) = 0.56172 0.03325
# Poissons Ratio (y) = 0.56172 0.03326
# Poissons Ratio (z) = 0.21853 0.21855
#
# Static dielectric constant tensor:
#      x y z
#    x 1.674110 0.000000 0.000000 
#    y 0.000000 1.674110 0.000000 
#    z 0.000000 0.000000 1.683550 
# 
# From -- ./inp_files/7425.got.cif
#   From: 2010.05.17/outbox.cif.g08.bks.cpg/sg136_4_cif.got.tgz:7425.got - 2010.05.20 12:54:53.
