data_PCOD9569249
_publ_section_title
;
Structure prediction by ZEFSAII (Michael W. Deem and Ramdas Pophale) SiO2 
 PCOD9569249
Probable space group: P 42/M N M
;
_chemical_formula_sum "Si O2"
_cell_formula_units_Z 96
_cell_length_a 24.612894
_cell_length_b 24.612894
_cell_length_c 7.892301
_cell_angle_alpha 90.000000
_cell_angle_beta 90.000000
_cell_angle_gamma 90.000000
_cell_volume 4781.112941
_symmetry_space_group_name_H-M "P 42/M N M"
_symmetry_group_IT_number 136
_symmetry_cell_setting 'tetragonal'
loop_
_space_group_symop_operation_xyz
x,y,z
1/2-y,1/2+x,1/2+z
-x,-y,z
1/2+y,1/2-x,1/2+z
1/2+x,1/2-y,1/2-z
1/2-x,1/2+y,1/2-z
y,x,-z
-y,-x,-z
-x,-y,-z
1/2+y,1/2-x,1/2-z
x,y,-z
1/2-y,1/2+x,1/2-z
1/2-x,1/2+y,1/2+z
1/2+x,1/2-y,1/2+z
-y,-x,z
y,x,z
loop_
_atom_site_type_symbol
_atom_site_label
_atom_site_fract_x
_atom_site_fract_y
_atom_site_fract_z
Si Si1 0.211000 0.986598 0.205485
Si Si2 0.587732 0.500198 0.293297
Si Si3 0.036539 0.424906 0.188961
Si Si4 0.929943 0.695098 0.700959
Si Si5 0.310328 0.775689 0.207023
Si Si6 0.721928 0.635921 0.706441
O O1 0.149943 0.001198 0.263319
O O2 0.224103 0.925597 0.264727
O O3 0.257562 0.027345 0.262044
O O4 0.210462 0.986545 0.000000
O O5 0.588257 0.500430 0.500000
O O6 0.551315 0.448686 0.240333
O O7 0.554280 0.554280 0.242359
O O8 0.064810 0.471758 0.299721
O O9 0.051566 0.363284 0.230057
O O10 0.055208 0.437351 0.000000
O O11 0.925002 0.688307 0.500000
O O12 0.871132 0.714291 0.767709
O O13 0.279230 0.720771 0.261407
O O14 0.272035 0.826104 0.257806
O O15 0.311049 0.774557 0.000000
O O16 0.722065 0.635087 0.500000
O O17 0.667036 0.667036 0.758016
#
# Coordination Sequence:
#
# PCOD9569249 Si02
#       6
#    16  16  16  16  16  16
#     4  10  19  30  49  78 106 137 179 229 279 332
#     4   8  14  26  46  74 108 143 181 231 290 347
#     4  11  23  42  65  89 116 148 187 231 282 336
#     4  11  23  36  53  81 115 153 190 230 279 334
#     4   8  16  32  52  73 100 138 185 231 272 316
#     4   8  14  27  50  77  98 123 171 231 276 313
#
# _framework density 20.079008000000002
#
# number of rings (size 3 to 8) (size 9 to 14) (size 15 to 20)
#    0.000    2.667    0.000    4.500    2.333    2.667 
#    0.000    0.000    0.000    3.500    0.000    5.833 
#    0.000    0.000    0.000    0.000    0.000    0.000 
#
# Total GULP energy -535698.973314 kJ/mol
# GULP energy per Si atom -5580.197639 kJ/mol
# Density = 2.003331 g / cm^3
# Si number density = 20.079008 Si / 1000 Ang^3
#
#
#
# Elastic Constant Matrix: (Units=GPa)
#
#
# Indices 1 2 3 4 5 6 
#
# 1 125.5287 132.6076 -0.3151 0.0000 0.0000 0.0000
# 2 132.6076 125.5287 -0.3151 0.0000 0.0000 0.0000
# 3 -0.3151 -0.3151 26.5682 0.0000 0.0000 0.0000
# 4 0.0000 0.0000 0.0000 267.2283 0.0000 0.0000
# 5 0.0000 0.0000 0.0000 0.0000 267.2283 0.0000
# 6 0.0000 0.0000 0.0000 0.0000 0.0000 17.2230
#
#
#
# Elastic Compliance Matrix: (Units=1/GPa)
#
#
# Indices 1 2 3 4 5 6 
#
# 1 -0.068695 0.072569 0.000046 0.000000 0.000000 0.000000
# 2 0.072569 -0.068695 0.000046 0.000000 0.000000 0.000000
# 3 0.000046 0.000046 0.037640 0.000000 0.000000 0.000000
# 4 0.000000 0.000000 0.000000 0.003742 0.000000 0.000000
# 5 0.000000 0.000000 0.000000 0.000000 0.003742 0.000000
# 6 0.000000 0.000000 0.000000 0.000000 0.000000 0.058062
#
#
# Mechanical properties :
#
#
# Convention : Reuss Voigt Hill
#
# Bulk Modulus (GPa) = 21.94333 60.17561 41.05947
# Shear Modulus (GPa) = -30.42545 120.04579 44.81017
#
# Velocity S-wave (km/s) = -3.89689 7.74058 4.72920
# Velocity P-wave (km/s) = 3.04885 10.48442 7.09323
#
# Compressibility (1/GPa) = 0.04557193
#
# Stress axis : x y z
#
# Youngs Moduli (GPa) = -14.55704 -14.55704 26.56741
#
# Poissons Ratio (x) = 1.05639 -0.00122
# Poissons Ratio (y) = 1.05639 -0.00122
# Poissons Ratio (z) = 0.00067 0.00067
#
# Static dielectric constant tensor:
#      x y z
#    x 1.686650 0.000000 0.000000 
#    y 0.000000 1.686650 0.000000 
#    z 0.000000 0.000000 1.731680 
# 
# From -- ./inp_files/2018.got.cif
#   From: 2010.05.17/outbox.cif.g08.bks.cpg/sg136_2_cif.got.tgz:2018.got - 2010.05.20 12:54:53.
