data_PCOD9569035
_publ_section_title
;
Structure prediction by ZEFSAII (Michael W. Deem and Ramdas Pophale) SiO2 
 PCOD9569035
Probable space group: P 42/M B C
;
_chemical_formula_sum "Si O2"
_cell_formula_units_Z 64
_cell_length_a 14.404072
_cell_length_b 14.404072
_cell_length_c 14.843957
_cell_angle_alpha 90.000000
_cell_angle_beta 90.000000
_cell_angle_gamma 90.000000
_cell_volume 3079.783974
_symmetry_space_group_name_H-M "P 42/M B C"
_symmetry_group_IT_number 135
_symmetry_cell_setting 'tetragonal'
loop_
_space_group_symop_operation_xyz
x,y,z
-y,x,1/2+z
-x,-y,z
y,-x,1/2+z
1/2+x,1/2-y,-z
1/2-x,1/2+y,-z
1/2+y,1/2+x,1/2-z
1/2-y,1/2-x,1/2-z
-x,-y,-z
y,-x,1/2-z
x,y,-z
-y,x,1/2-z
1/2-x,1/2+y,z
1/2+x,1/2-y,z
1/2-y,1/2-x,1/2+z
1/2+y,1/2+x,1/2+z
loop_
_atom_site_type_symbol
_atom_site_label
_atom_site_fract_x
_atom_site_fract_y
_atom_site_fract_z
Si Si1 0.610601 0.406337 0.241592
Si Si2 0.533999 0.902651 0.150610
Si Si3 0.761030 0.844971 0.400376
Si Si4 0.875354 0.740941 0.894740
O O1 0.512163 0.388307 0.289626
O O2 0.689456 0.390460 0.315106
O O3 0.614301 0.336197 0.159224
O O4 0.570444 0.929557 0.250000
O O5 0.617786 0.844881 0.105378
O O6 0.443581 0.835614 0.148557
O O7 0.500000 0.000000 0.108620
O O8 0.796124 0.871822 0.500000
O O9 0.777449 0.734964 0.390170
O O10 0.900608 0.747936 0.000000
#
# Coordination Sequence:
#
# PCOD9569035 Si02
#       4
#    16  16  16  16
#     4  11  24  41  69  98 131 182 234 293 359 418
#     4  11  25  43  71 105 141 192 236 296 359 431
#     4  11  25  44  70 103 143 188 236 291 357 432
#     4  11  25  44  68 100 141 185 236 295 358 430
#
# _framework density 20.78068
#
# number of rings (size 3 to 8) (size 9 to 14) (size 15 to 20)
#    0.000    1.000    2.500    3.000    7.000    3.000 
#    0.000    7.500    0.000    0.000    0.000    0.000 
#    0.000    0.000    0.000    0.000    0.000    0.000 
#
# Total GULP energy -357282.577387 kJ/mol
# GULP energy per Si atom -5582.540272 kJ/mol
# Density = 2.073338 g / cm^3
# Si number density = 20.780680 Si / 1000 Ang^3
#
#
#
# Elastic Constant Matrix: (Units=GPa)
#
#
# Indices 1 2 3 4 5 6 
#
# 1 105.1153 23.5226 34.0310 0.0000 0.0000 0.0000
# 2 23.5226 105.1152 34.0310 0.0000 0.0000 0.0000
# 3 34.0310 34.0310 101.2684 0.0000 0.0000 0.0000
# 4 0.0000 0.0000 0.0000-3536.6830 0.0000 0.0000
# 5 0.0000 0.0000 0.0000 0.0000-3506.5288 0.0000
# 6 0.0000 0.0000 0.0000 0.0000 0.0000 35.0997
#
#
#
# Elastic Compliance Matrix: (Units=1/GPa)
#
#
# Indices 1 2 3 4 5 6 
#
# 1 0.010855 -0.001401 -0.003177 0.000000 0.000000 0.000000
# 2 -0.001401 0.010855 -0.003177 0.000000 0.000000 0.000000
# 3 -0.003177 -0.003177 0.012010 0.000000 0.000000 0.000000
# 4 0.000000 0.000000 0.000000 -0.000283 0.000000 0.000000
# 5 0.000000 0.000000 0.000000 0.000000 -0.000285 0.000000
# 6 0.000000 0.000000 0.000000 0.000000 0.000000 0.028490
#
#
# Mechanical properties :
#
#
# Convention : Reuss Voigt Hill
#
# Bulk Modulus (GPa) = 54.91255 54.96311 54.93783
# Shear Modulus (GPa) = 60.07893 -1386.96145 -663.44126
#
# Velocity S-wave (km/s) = 5.38272 -25.86266 -17.88720
# Velocity P-wave (km/s) = 8.06931 29.41649 20.00270
#
# Compressibility (1/GPa) = 0.01821077
#
# Stress axis : x y z
#
# Youngs Moduli (GPa) = 92.11990 92.11980 83.26274
#
# Poissons Ratio (x) = 0.12902 0.26455
# Poissons Ratio (y) = 0.12902 0.26455
# Poissons Ratio (z) = 0.29269 0.29269
#
# Static dielectric constant tensor:
#      x y z
#    x 1.764860 0.000000 0.000000 
#    y 0.000000 1.764860 0.000000 
#    z 0.000000 0.000000 1.723590 
# 
# From -- ./inp_files/3140.got.cif
#   From: 2010.05.17/outbox.cif.g08.bks.cpg/sg135_2_cif.got.tgz:3140.got - 2010.05.20 12:50:20.
