data_PCOD9569875
_publ_section_title
;
Structure prediction by ZEFSAII (Michael W. Deem and Ramdas Pophale) SiO2 
 PCOD9569875
Probable space group: P 42/M N M
;
_chemical_formula_sum "Si O2"
_cell_formula_units_Z 60
_cell_length_a 11.816685
_cell_length_b 11.816685
_cell_length_c 20.298995
_cell_angle_alpha 90.000000
_cell_angle_beta 90.000000
_cell_angle_gamma 90.000000
_cell_volume 2834.430769
_symmetry_space_group_name_H-M "P 42/M N M"
_symmetry_group_IT_number 136
_symmetry_cell_setting 'tetragonal'
loop_
_space_group_symop_operation_xyz
x,y,z
1/2-y,1/2+x,1/2+z
-x,-y,z
1/2+y,1/2-x,1/2+z
1/2+x,1/2-y,1/2-z
1/2-x,1/2+y,1/2-z
y,x,-z
-y,-x,-z
-x,-y,-z
1/2+y,1/2-x,1/2-z
x,y,-z
1/2-y,1/2+x,1/2-z
1/2-x,1/2+y,1/2+z
1/2+x,1/2-y,1/2+z
-y,-x,z
y,x,z
loop_
_atom_site_type_symbol
_atom_site_label
_atom_site_fract_x
_atom_site_fract_y
_atom_site_fract_z
Si Si1 0.438095 0.166937 0.146685
Si Si2 0.038678 0.229797 0.887165
Si Si3 0.619983 0.619983 0.500000
Si Si4 0.404704 0.404704 0.078089
Si Si5 0.182712 0.361863 0.295644
O O1 0.355217 0.090269 0.102392
O O2 0.442572 0.289016 0.113053
O O3 0.564057 0.128165 0.166027
O O4 0.375868 0.170126 0.217701
O O5 0.141595 0.141595 0.882077
O O6 0.954730 0.185895 0.943137
O O7 0.963185 0.238635 0.821538
O O8 0.500000 0.500000 0.085794
O O9 0.386376 0.386376 0.000000
O O10 0.244018 0.244018 0.310684
#
# Coordination Sequence:
#
# PCOD9569875 Si02
#       5
#    16  16   4   8  16
#     4  12  25  45  74 110 149 201 252 325 385 455
#     4  12  25  46  74 108 147 201 250 317 386 448
#     4  12  29  50  78 114 158 197 268 319 366 476
#     4  11  26  49  72 105 154 211 262 307 377 474
#     4  12  25  45  72 111 154 190 257 320 387 455
#
# _framework density 21.168271000000001
#
# number of rings (size 3 to 8) (size 9 to 14) (size 15 to 20)
#    0.000    0.133    6.667    2.800    1.867    1.067 
#    2.400    1.333    0.000    0.000    0.000    0.000 
#    0.000    0.000    0.000    0.000    0.000    0.000 
#
# Total GULP energy -334337.274911 kJ/mol
# GULP energy per Si atom -5572.287915 kJ/mol
# Density = 2.112009 g / cm^3
# Si number density = 21.168271 Si / 1000 Ang^3
#
#
#
# Elastic Constant Matrix: (Units=GPa)
#
#
# Indices 1 2 3 4 5 6 
#
# 1 110.2767 60.8040 53.1465 0.0000 0.0000 0.0000
# 2 60.8040 110.2767 53.1465 0.0000 0.0000 0.0000
# 3 53.1465 53.1465 104.5615 0.0000 0.0000 0.0000
# 4 0.0000 0.0000 0.0000 -35.2949 0.0000 0.0000
# 5 0.0000 0.0000 0.0000 0.0000 -35.2949 0.0000
# 6 0.0000 0.0000 0.0000 0.0000 0.0000 37.0436
#
#
#
# Elastic Compliance Matrix: (Units=1/GPa)
#
#
# Indices 1 2 3 4 5 6 
#
# 1 0.014378 -0.005835 -0.004342 0.000000 0.000000 0.000000
# 2 -0.005835 0.014378 -0.004342 0.000000 0.000000 0.000000
# 3 -0.004342 -0.004342 0.013978 0.000000 0.000000 0.000000
# 4 0.000000 0.000000 0.000000 -0.028333 0.000000 0.000000
# 5 0.000000 0.000000 0.000000 0.000000 -0.028333 0.000000
# 6 0.000000 0.000000 0.000000 0.000000 0.000000 0.026995
#
#
# Mechanical properties :
#
#
# Convention : Reuss Voigt Hill
#
# Bulk Modulus (GPa) = 73.01947 73.25656 73.13802
# Shear Modulus (GPa) = 107.13938 3.82528 55.48233
#
# Velocity S-wave (km/s) = 7.12201 1.34574 5.12514
# Velocity P-wave (km/s) = 10.10942 6.09070 8.34557
#
# Compressibility (1/GPa) = 0.01369498
#
# Stress axis : x y z
#
# Youngs Moduli (GPa) = 69.55009 69.55009 71.54139
#
# Poissons Ratio (x) = 0.40583 0.31065
# Poissons Ratio (y) = 0.40583 0.31065
# Poissons Ratio (z) = 0.30200 0.30200
#
# Static dielectric constant tensor:
#      x y z
#    x 1.786000 0.000000 0.000000 
#    y 0.000000 1.786000 0.000000 
#    z 0.000000 0.000000 1.715750 
# 
# From -- ./inp_files/7087.got.cif
#   From: 2010.05.17/outbox.cif.g08.bks.cpg/sg136_4_cif.got.tgz:7087.got - 2010.05.20 12:54:53.
