data_PCOD9569013
_publ_section_title
;
Structure prediction by ZEFSAII (Michael W. Deem and Ramdas Pophale) SiO2 
 PCOD9569013
Probable space group: P 42/M B C
;
_chemical_formula_sum "Si O2"
_cell_formula_units_Z 52
_cell_length_a 12.433100
_cell_length_b 12.433100
_cell_length_c 15.229610
_cell_angle_alpha 90.000000
_cell_angle_beta 90.000000
_cell_angle_gamma 90.000000
_cell_volume 2354.223202
_symmetry_space_group_name_H-M "P 42/M B C"
_symmetry_group_IT_number 135
_symmetry_cell_setting 'tetragonal'
loop_
_space_group_symop_operation_xyz
x,y,z
-y,x,1/2+z
-x,-y,z
y,-x,1/2+z
1/2+x,1/2-y,-z
1/2-x,1/2+y,-z
1/2+y,1/2+x,1/2-z
1/2-y,1/2-x,1/2-z
-x,-y,-z
y,-x,1/2-z
x,y,-z
-y,x,1/2-z
1/2-x,1/2+y,z
1/2+x,1/2-y,z
1/2-y,1/2-x,1/2+z
1/2+y,1/2+x,1/2+z
loop_
_atom_site_type_symbol
_atom_site_label
_atom_site_fract_x
_atom_site_fract_y
_atom_site_fract_z
Si Si1 0.991196 0.264403 0.325472
Si Si2 0.051253 0.184044 0.000000
Si Si3 0.777423 0.138751 0.317425
Si Si4 0.055858 0.161334 0.500000
Si Si5 0.500000 0.000000 0.750000
O O1 0.869166 0.225721 0.334756
O O2 0.035721 0.195829 0.242759
O O3 0.056436 0.230848 0.411789
O O4 0.996413 0.390954 0.306464
O O5 0.089368 0.246125 0.087070
O O6 0.925582 0.151698 0.000000
O O7 0.104350 0.063068 0.000000
O O8 0.694556 0.194556 0.250000
#
# Coordination Sequence:
#
# PCOD9569013 Si02
#       5
#    16   8  16   8   4
#     4  11  23  42  67  94 134 180 233 285 356 416
#     4   9  20  39  65 100 131 171 231 294 349 395
#     4  11  22  40  65  96 132 179 231 290 349 425
#     4   9  20  40  67  97 129 171 235 292 335 411
#     4  12  24  42  60  92 144 182 212 278 360 428
#
# _framework density 22.087965000000001
#
# number of rings (size 3 to 8) (size 9 to 14) (size 15 to 20)
#    0.000    1.538    3.077    1.846    0.000    4.923 
#    0.000    3.077    0.000    0.000    0.000    0.000 
#    0.000    0.000    0.000    0.000    0.000    0.000 
#
# Total GULP energy -290005.916091 kJ/mol
# GULP energy per Si atom -5577.036848 kJ/mol
# Density = 2.203769 g / cm^3
# Si number density = 22.087965 Si / 1000 Ang^3
#
#
#
# Elastic Constant Matrix: (Units=GPa)
#
#
# Indices 1 2 3 4 5 6 
#
# 1 66.7021 72.1474 56.6493 0.0000 0.0000 0.0000
# 2 72.1474 66.7021 56.6493 0.0000 0.0000 0.0000
# 3 56.6493 56.6493 237.9613 0.0000 0.0000 0.0000
# 4 0.0000 0.0000 0.0000 30.0415 0.0000 0.0000
# 5 0.0000 0.0000 0.0000 0.0000 30.0415 0.0000
# 6 0.0000 0.0000 0.0000 0.0000 0.0000 40.0391
#
#
#
# Elastic Compliance Matrix: (Units=1/GPa)
#
#
# Indices 1 2 3 4 5 6 
#
# 1 -0.087353 0.096291 -0.002128 0.000000 0.000000 0.000000
# 2 0.096291 -0.087353 -0.002128 0.000000 0.000000 0.000000
# 3 -0.002128 -0.002128 0.005215 0.000000 0.000000 0.000000
# 4 0.000000 0.000000 0.000000 0.033287 0.000000 0.000000
# 5 0.000000 0.000000 0.000000 0.000000 0.033287 0.000000
# 6 0.000000 0.000000 0.000000 0.000000 0.000000 0.024976
#
#
# Mechanical properties :
#
#
# Convention : Reuss Voigt Hill
#
# Bulk Modulus (GPa) = 68.58380 82.47302 75.52841
# Shear Modulus (GPa) = -19.44379 32.41905 6.48763
#
# Velocity S-wave (km/s) = -2.97019 3.83525 1.71568
# Velocity P-wave (km/s) = 4.39944 7.55193 6.18008
#
# Compressibility (1/GPa) = 0.01458070
#
# Stress axis : x y z
#
# Youngs Moduli (GPa) = -11.44780 -11.44780 191.73656
#
# Poissons Ratio (x) = 1.10232 0.40799
# Poissons Ratio (y) = 1.10232 0.40799
# Poissons Ratio (z) = -0.02436 -0.02436
#
# Static dielectric constant tensor:
#      x y z
#    x 1.872160 0.000000 0.000000 
#    y 0.000000 1.872160 0.000000 
#    z 0.000000 0.000000 1.782780 
# 
# From -- ./inp_files/3093.got.cif
#   From: 2010.05.17/outbox.cif.g08.bks.cpg/sg135_2_cif.got.tgz:3093.got - 2010.05.20 12:50:20.
