data_PCOD9569640
_publ_section_title
;
Structure prediction by ZEFSAII (Michael W. Deem and Ramdas Pophale) SiO2 
 PCOD9569640
Probable space group: P 42/M N M
;
_chemical_formula_sum "Si O2"
_cell_formula_units_Z 80
_cell_length_a 15.408731
_cell_length_b 15.408731
_cell_length_c 19.230835
_cell_angle_alpha 90.000000
_cell_angle_beta 90.000000
_cell_angle_gamma 90.000000
_cell_volume 4565.957751
_symmetry_space_group_name_H-M "P 42/M N M"
_symmetry_group_IT_number 136
_symmetry_cell_setting 'tetragonal'
loop_
_space_group_symop_operation_xyz
x,y,z
1/2-y,1/2+x,1/2+z
-x,-y,z
1/2+y,1/2-x,1/2+z
1/2+x,1/2-y,1/2-z
1/2-x,1/2+y,1/2-z
y,x,-z
-y,-x,-z
-x,-y,-z
1/2+y,1/2-x,1/2-z
x,y,-z
1/2-y,1/2+x,1/2-z
1/2-x,1/2+y,1/2+z
1/2+x,1/2-y,1/2+z
-y,-x,z
y,x,z
loop_
_atom_site_type_symbol
_atom_site_label
_atom_site_fract_x
_atom_site_fract_y
_atom_site_fract_z
Si Si1 0.002540 0.854222 0.078019
Si Si2 0.232396 0.618628 0.922977
Si Si3 0.639171 0.504616 0.857765
Si Si4 0.759097 0.985151 0.778459
Si Si5 0.830617 0.316815 0.780773
O O1 0.925697 0.925697 0.080629
O O2 0.991213 0.791097 0.142637
O O3 0.001954 0.815774 0.000000
O O4 0.092015 0.907986 0.086111
O O5 0.309763 0.690238 0.924049
O O6 0.277607 0.528029 0.900621
O O7 0.171974 0.650582 0.860775
O O8 0.194505 0.614386 0.000000
O O9 0.563767 0.436234 0.875629
O O10 0.599550 0.599550 0.870104
O O11 0.661983 0.490961 0.776703
O O12 0.710386 0.895404 0.763109
O O13 0.704322 0.071254 0.761485
O O14 0.767390 0.232611 0.774935
#
# Coordination Sequence:
#
# PCOD9569640 Si02
#       5
#    16  16  16  16  16
#     4   9  17  29  49  79 109 135 166 212 277 336
#     4   8  15  28  44  67 100 127 150 189 240 299
#     4   9  16  26  45  72  97 126 162 202 256 304
#     4  11  20  33  50  70 103 136 171 216 249 294
#     4  10  21  34  52  76  98 133 176 208 255 307
#
# _framework density 17.520968
#
# number of rings (size 3 to 8) (size 9 to 14) (size 15 to 20)
#    0.000    2.600    0.000    5.400    0.000    3.200 
#    0.000    4.000    0.000    4.800    0.000    7.000 
#    0.000    0.000    0.000    0.000    0.000    0.000 
#
# Total GULP energy -445693.495299 kJ/mol
# GULP energy per Si atom -5571.168691 kJ/mol
# Density = 1.748109 g / cm^3
# Si number density = 17.520968 Si / 1000 Ang^3
#
#
#
# Elastic Constant Matrix: (Units=GPa)
#
#
# Indices 1 2 3 4 5 6 
#
# 1 35.2792 8.9257 4.0428 0.0000 0.0000 0.0000
# 2 8.9257 35.2792 4.0428 0.0000 0.0000 0.0000
# 3 4.0428 4.0428 87.5543 0.0000 0.0000 0.0000
# 4 0.0000 0.0000 0.0000 5.9056 0.0000 0.0000
# 5 0.0000 0.0000 0.0000 0.0000 5.9056 0.0000
# 6 0.0000 0.0000 0.0000 0.0000 0.0000 14.8031
#
#
#
# Elastic Compliance Matrix: (Units=1/GPa)
#
#
# Indices 1 2 3 4 5 6 
#
# 1 0.030380 -0.007565 -0.001053 0.000000 0.000000 0.000000
# 2 -0.007565 0.030380 -0.001053 0.000000 0.000000 0.000000
# 3 -0.001053 -0.001053 0.011519 0.000000 0.000000 0.000000
# 4 0.000000 0.000000 0.000000 0.169332 0.000000 0.000000
# 5 0.000000 0.000000 0.000000 0.000000 0.169332 0.000000
# 6 0.000000 0.000000 0.000000 0.000000 0.000000 0.067554
#
#
# Mechanical properties :
#
#
# Convention : Reuss Voigt Hill
#
# Bulk Modulus (GPa) = 18.89139 21.34836 20.11988
# Shear Modulus (GPa) = 9.69959 14.72960 12.21460
#
# Velocity S-wave (km/s) = 2.35542 2.90260 2.64321
# Velocity P-wave (km/s) = 4.26649 4.84194 4.56329
#
# Compressibility (1/GPa) = 0.05293417
#
# Stress axis : x y z
#
# Youngs Moduli (GPa) = 32.91630 32.91630 86.81482
#
# Poissons Ratio (x) = 0.24903 0.09146
# Poissons Ratio (y) = 0.24903 0.09146
# Poissons Ratio (z) = 0.03468 0.03468
#
# Static dielectric constant tensor:
#      x y z
#    x 1.604090 0.000000 0.000000 
#    y 0.000000 1.604090 0.000000 
#    z 0.000000 0.000000 1.615540 
# 
# From -- ./inp_files/7246.got.cif
#   From: 2010.05.17/outbox.cif.g08.bks.cpg/sg136_4_cif.got.tgz:7246.got - 2010.05.20 12:54:53.
