data_PCOD9569211
_publ_section_title
;
Structure prediction by ZEFSAII (Michael W. Deem and Ramdas Pophale) SiO2 
 PCOD9569211
Probable space group: P 42/M N M
;
_chemical_formula_sum "Si O2"
_cell_formula_units_Z 108
_cell_length_a 14.435119
_cell_length_b 14.435119
_cell_length_c 27.415991
_cell_angle_alpha 90.000000
_cell_angle_beta 90.000000
_cell_angle_gamma 90.000000
_cell_volume 5712.742986
_symmetry_space_group_name_H-M "P 42/M N M"
_symmetry_group_IT_number 136
_symmetry_cell_setting 'tetragonal'
loop_
_space_group_symop_operation_xyz
x,y,z
1/2-y,1/2+x,1/2+z
-x,-y,z
1/2+y,1/2-x,1/2+z
1/2+x,1/2-y,1/2-z
1/2-x,1/2+y,1/2-z
y,x,-z
-y,-x,-z
-x,-y,-z
1/2+y,1/2-x,1/2-z
x,y,-z
1/2-y,1/2+x,1/2-z
1/2-x,1/2+y,1/2+z
1/2+x,1/2-y,1/2+z
-y,-x,z
y,x,z
loop_
_atom_site_type_symbol
_atom_site_label
_atom_site_fract_x
_atom_site_fract_y
_atom_site_fract_z
Si Si1 0.000000 0.000000 0.400255
Si Si2 0.740839 0.105640 0.203542
Si Si3 0.536497 0.191514 0.785551
Si Si4 0.722706 0.496475 0.112668
Si Si5 0.822123 0.665754 0.943172
Si Si6 0.011761 0.685720 0.107667
Si Si7 0.163640 0.312007 0.553132
Si Si8 0.000000 0.500000 0.170118
O O1 0.885183 0.000432 0.399559
O O2 0.828650 0.171351 0.214277
O O3 0.646933 0.168200 0.212328
O O4 0.746649 0.065196 0.148405
O O5 0.728678 0.014247 0.237352
O O6 0.506825 0.259266 0.829531
O O7 0.491927 0.091891 0.798119
O O8 0.779616 0.578302 0.086028
O O9 0.767491 0.402111 0.093019
O O10 0.743404 0.743404 0.944128
O O11 0.910539 0.704260 0.913465
O O12 0.844628 0.641936 0.000000
O O13 0.080605 0.674581 0.062625
O O14 0.007036 0.588323 0.135844
O O15 0.122555 0.292082 0.500000
O O16 0.261770 0.261770 0.555716
#
# Coordination Sequence:
#
# PCOD9569211 Si02
#       8
#     4  16  16  16  16  16  16   8
#     4  12  28  40  65  88 140 184 212 248 313 396
#     4  11  24  41  65  96 127 168 213 264 328 391
#     4  11  23  39  64  92 127 165 210 266 322 388
#     4  12  23  42  64  91 128 178 212 258 310 386
#     4  11  24  42  64  94 128 169 219 265 323 390
#     4  11  20  39  63  92 125 161 206 274 328 367
#     4  11  22  37  61  91 122 161 212 260 315 375
#     4  10  18  35  61  90 118 158 199 266 323 370
#
# _framework density 18.905103
#
# number of rings (size 3 to 8) (size 9 to 14) (size 15 to 20)
#    0.000    0.889    5.926    3.111    2.074    0.593 
#    0.000    3.704    0.000    2.667    0.000    5.185 
#    0.000    0.000    0.000    0.000    0.000    0.000 
#
# Total GULP energy -601553.404998 kJ/mol
# GULP energy per Si atom -5569.938935 kJ/mol
# Density = 1.886207 g / cm^3
# Si number density = 18.905103 Si / 1000 Ang^3
#
#
#
# Elastic Constant Matrix: (Units=GPa)
#
#
# Indices 1 2 3 4 5 6 
#
# 1 71.6011 5.8980 8.7365 0.0000 0.0000 0.0000
# 2 5.8980 71.6011 8.7365 0.0000 0.0000 0.0000
# 3 8.7365 8.7365 74.9983 0.0000 0.0000 0.0000
# 4 0.0000 0.0000 0.0000 13.5935 0.0000 0.0000
# 5 0.0000 0.0000 0.0000 0.0000 13.5935 0.0000
# 6 0.0000 0.0000 0.0000 0.0000 0.0000 17.6495
#
#
#
# Elastic Compliance Matrix: (Units=1/GPa)
#
#
# Indices 1 2 3 4 5 6 
#
# 1 0.014236 -0.000984 -0.001544 0.000000 0.000000 0.000000
# 2 -0.000984 0.014236 -0.001544 0.000000 0.000000 0.000000
# 3 -0.001544 -0.001544 0.013693 0.000000 0.000000 0.000000
# 4 0.000000 0.000000 0.000000 0.073565 0.000000 0.000000
# 5 0.000000 0.000000 0.000000 0.000000 0.073565 0.000000
# 6 0.000000 0.000000 0.000000 0.000000 0.000000 0.056659
#
#
# Mechanical properties :
#
#
# Convention : Reuss Voigt Hill
#
# Bulk Modulus (GPa) = 29.39317 29.43805 29.41561
# Shear Modulus (GPa) = 18.83690 21.95593 20.39641
#
# Velocity S-wave (km/s) = 3.15999 3.41159 3.28820
# Velocity P-wave (km/s) = 5.37546 5.57888 5.47811
#
# Compressibility (1/GPa) = 0.03402151
#
# Stress axis : x y z
#
# Youngs Moduli (GPa) = 70.24593 70.24593 73.02861
#
# Poissons Ratio (x) = 0.06914 0.11273
# Poissons Ratio (y) = 0.06914 0.11273
# Poissons Ratio (z) = 0.10843 0.10843
#
# Static dielectric constant tensor:
#      x y z
#    x 1.646680 0.000000 0.000000 
#    y 0.000000 1.646680 0.000000 
#    z 0.000000 0.000000 1.685820 
# 
# From -- ./inp_files/9237.got.cif
#   From: 2010.05.17/outbox.cif.g08.bks.cpg/sg136_5_cif.got.tgz:9237.got - 2010.05.20 12:54:53.
