data_PCOD9569813
_publ_section_title
;
Structure prediction by ZEFSAII (Michael W. Deem and Ramdas Pophale) SiO2 
 PCOD9569813
Probable space group: P 42/M N M
;
_chemical_formula_sum "Si O2"
_cell_formula_units_Z 56
_cell_length_a 13.096205
_cell_length_b 13.096205
_cell_length_c 18.659640
_cell_angle_alpha 90.000000
_cell_angle_beta 90.000000
_cell_angle_gamma 90.000000
_cell_volume 3200.325780
_symmetry_space_group_name_H-M "P 42/M N M"
_symmetry_group_IT_number 136
_symmetry_cell_setting 'tetragonal'
loop_
_space_group_symop_operation_xyz
x,y,z
1/2-y,1/2+x,1/2+z
-x,-y,z
1/2+y,1/2-x,1/2+z
1/2+x,1/2-y,1/2-z
1/2-x,1/2+y,1/2-z
y,x,-z
-y,-x,-z
-x,-y,-z
1/2+y,1/2-x,1/2-z
x,y,-z
1/2-y,1/2+x,1/2-z
1/2-x,1/2+y,1/2+z
1/2+x,1/2-y,1/2+z
-y,-x,z
y,x,z
loop_
_atom_site_type_symbol
_atom_site_label
_atom_site_fract_x
_atom_site_fract_y
_atom_site_fract_z
Si Si1 0.086325 0.086325 0.916594
Si Si2 0.882661 0.539384 0.080264
Si Si3 0.639782 0.192165 0.171220
Si Si4 0.716215 0.958572 0.176152
O O1 0.046609 0.184413 0.873369
O O2 0.110179 0.110179 0.000000
O O3 0.000000 0.000000 0.916108
O O4 0.815095 0.447125 0.110540
O O5 0.889350 0.631535 0.136113
O O6 0.000000 0.500000 0.077087
O O7 0.852844 0.570404 0.000000
O O8 0.732962 0.267038 0.153335
O O9 0.587221 0.229109 0.244851
O O10 0.677931 0.075403 0.181634
#
# Coordination Sequence:
#
# PCOD9569813 Si02
#       4
#     8  16  16  16
#     4  11  24  40  58  84 124 164 197 242 304 364
#     4   9  19  34  55  81 109 144 186 239 294 345
#     4  11  21  34  57  86 113 149 192 244 296 348
#     4  11  20  36  58  83 114 150 199 242 289 356
#
# _framework density 17.498218999999999
#
# number of rings (size 3 to 8) (size 9 to 14) (size 15 to 20)
#    0.000    1.571    4.286    1.714    0.000    1.714 
#    0.000    0.000    0.000    0.000    0.000    0.000 
#    0.000    6.857    0.000    0.000    0.000    0.000 
#
# Total GULP energy -312419.525947 kJ/mol
# GULP energy per Si atom -5578.920106 kJ/mol
# Density = 1.745839 g / cm^3
# Si number density = 17.498219 Si / 1000 Ang^3
#
#
#
# Elastic Constant Matrix: (Units=GPa)
#
#
# Indices 1 2 3 4 5 6 
#
# 1 72.8761 21.8382 20.8483 0.0000 0.0000 0.0000
# 2 21.8382 72.8761 20.8483 0.0000 0.0000 0.0000
# 3 20.8483 20.8483 96.4442 0.0000 0.0000 0.0000
# 4 0.0000 0.0000 0.0000 16.4076 0.0000 0.0000
# 5 0.0000 0.0000 0.0000 0.0000 16.4076 0.0000
# 6 0.0000 0.0000 0.0000 0.0000 0.0000 35.0257
#
#
#
# Elastic Compliance Matrix: (Units=1/GPa)
#
#
# Indices 1 2 3 4 5 6 
#
# 1 0.015631 -0.003962 -0.002522 0.000000 0.000000 0.000000
# 2 -0.003962 0.015631 -0.002522 0.000000 0.000000 0.000000
# 3 -0.002522 -0.002522 0.011459 0.000000 0.000000 0.000000
# 4 0.000000 0.000000 0.000000 0.060947 0.000000 0.000000
# 5 0.000000 0.000000 0.000000 0.000000 0.060947 0.000000
# 6 0.000000 0.000000 0.000000 0.000000 0.000000 0.028550
#
#
# Mechanical properties :
#
#
# Convention : Reuss Voigt Hill
#
# Bulk Modulus (GPa) = 40.47483 41.02957 40.75220
# Shear Modulus (GPa) = 22.78778 25.47896 24.13337
#
# Velocity S-wave (km/s) = 3.61264 3.82001 3.71777
# Velocity P-wave (km/s) = 6.37045 6.55404 6.46290
#
# Compressibility (1/GPa) = 0.02470671
#
# Stress axis : x y z
#
# Youngs Moduli (GPa) = 63.97587 63.97587 87.26605
#
# Poissons Ratio (x) = 0.25350 0.22012
# Poissons Ratio (y) = 0.25350 0.22012
# Poissons Ratio (z) = 0.16137 0.16137
#
# Static dielectric constant tensor:
#      x y z
#    x 1.584900 0.000000 0.000000 
#    y 0.000000 1.584900 0.000000 
#    z 0.000000 0.000000 1.581100 
# 
# From -- ./inp_files/4604.got.cif
#   From: 2010.05.17/outbox.cif.g08.bks.cpg/sg136_3_cif.got.tgz:4604.got - 2010.05.20 12:54:53.
