data_PCOD9569994
_publ_section_title
;
Structure prediction by ZEFSAII (Michael W. Deem and Ramdas Pophale) SiO2 
 PCOD9569994
Probable space group: P 42/N M C
;
_chemical_formula_sum "Si O2"
_cell_formula_units_Z 96
_cell_length_a 21.818532
_cell_length_b 21.818532
_cell_length_c 12.373238
_cell_angle_alpha 90.000000
_cell_angle_beta 90.000000
_cell_angle_gamma 90.000000
_cell_volume 5890.259393
_symmetry_space_group_name_H-M "P 42/N M C"
_symmetry_group_IT_number 137
_space_group.IT_coordinate_system_code '2'
_symmetry_cell_setting 'tetragonal'
loop_
_space_group_symop_operation_xyz
x,y,z
1/2-y,x,1/2+z
1/2-x,1/2-y,z
y,1/2-x,1/2+z
1/2+x,-y,-z
-x,1/2+y,-z
1/2+y,1/2+x,1/2-z
-y,-x,1/2-z
-x,-y,-z
1/2+y,-x,1/2-z
1/2+x,1/2+y,-z
-y,1/2+x,1/2-z
1/2-x,y,z
x,1/2-y,z
1/2-y,1/2-x,1/2+z
y,x,1/2+z
loop_
_atom_site_type_symbol
_atom_site_label
_atom_site_fract_x
_atom_site_fract_y
_atom_site_fract_z
Si Si1 0.567227 0.128992 0.003876
Si Si2 0.487005 0.320217 0.624191
Si Si3 0.135895 0.681027 0.366627
Si Si4 0.820687 0.423517 0.268777
Si Si5 0.000356 0.112389 0.408734
Si Si6 0.086198 0.009532 0.306079
O O1 0.631490 0.153689 0.956316
O O2 0.521783 0.124472 0.902908
O O3 0.551480 0.166626 0.110580
O O4 0.576913 0.058824 0.042812
O O5 0.466452 0.250000 0.635043
O O6 0.561625 0.319823 0.634648
O O7 0.472198 0.349049 0.507709
O O8 0.466044 0.366808 0.716574
O O9 0.160488 0.660488 0.250000
O O10 0.156060 0.750000 0.390896
O O11 0.865054 0.365054 0.250000
O O12 0.750000 0.408000 0.253858
O O13 0.842434 0.473270 0.181504
O O14 0.044759 0.062932 0.355641
O O15 0.041787 0.958214 0.250000
#
# Coordination Sequence:
#
# PCOD9569994 Si02
#       6
#    16  16  16  16  16  16
#     4  10  19  33  47  77 103 138 173 226 273 317
#     4  10  20  34  53  74 106 141 167 210 264 318
#     4  10  18  32  47  67  99 139 183 223 264 302
#     4  10  22  37  52  72 104 147 189 226 263 306
#     4  10  21  33  54  76 108 136 173 216 268 323
#     4  12  19  32  55  83 105 135 177 217 269 328
#
# _framework density 16.298093999999999
#
# number of rings (size 3 to 8) (size 9 to 14) (size 15 to 20)
#    0.000    1.667    5.000    2.500    2.333    5.667 
#    0.000    0.000    0.000    0.000    0.000    0.000 
#    0.000    5.333    0.000    0.000    0.000    0.000 
#
# Total GULP energy -535664.598160 kJ/mol
# GULP energy per Si atom -5579.839564 kJ/mol
# Density = 1.626100 g / cm^3
# Si number density = 16.298094 Si / 1000 Ang^3
#
#
#
# Elastic Constant Matrix: (Units=GPa)
#
#
# Indices 1 2 3 4 5 6 
#
# 1 46.2205 40.8389 43.5854 0.0000 0.0000 0.0000
# 2 40.8389 46.2198 43.5855 0.0000 0.0000 0.0000
# 3 43.5854 43.5855 137.8660 0.0000 0.0000 0.0000
# 4 0.0000 0.0000 0.0000 9.0441 0.0000 0.0000
# 5 0.0000 0.0000 0.0000 0.0000 9.0440 0.0000
# 6 0.0000 0.0000 0.0000 0.0000 0.0000 5.6186
#
#
#
# Elastic Compliance Matrix: (Units=1/GPa)
#
#
# Indices 1 2 3 4 5 6 
#
# 1 0.101317 -0.084512 -0.005313 0.000000 0.000000 0.000000
# 2 -0.084512 0.101319 -0.005314 0.000000 0.000000 0.000000
# 3 -0.005313 -0.005314 0.010613 0.000000 0.000000 0.000000
# 4 0.000000 0.000000 0.000000 0.110569 0.000000 0.000000
# 5 0.000000 0.000000 0.000000 0.000000 0.110570 0.000000
# 6 0.000000 0.000000 0.000000 0.000000 0.000000 0.177980
#
#
# Mechanical properties :
#
#
# Convention : Reuss Voigt Hill
#
# Bulk Modulus (GPa) = 43.52950 54.03622 48.78286
# Shear Modulus (GPa) = 6.17053 11.56113 8.86583
#
# Velocity S-wave (km/s) = 1.94789 2.66626 2.33487
# Velocity P-wave (km/s) = 5.64140 6.53494 6.10454
#
# Compressibility (1/GPa) = 0.02297292
#
# Stress axis : x y z
#
# Youngs Moduli (GPa) = 9.87001 9.86978 94.22460
#
# Poissons Ratio (x) = 0.83411 0.50060
# Poissons Ratio (y) = 0.83413 0.50068
# Poissons Ratio (z) = 0.05244 0.05245
#
# Static dielectric constant tensor:
#      x y z
#    x 1.536640 0.000000 0.000000 
#    y 0.000000 1.536640 0.000000 
#    z 0.000000 0.000000 1.573940 
# 
# From -- ./inp_files/3860.got.cif
#   From: 2010.05.17/outbox.cif.g08.bks.cpg/sg137_2_cif.got.tgz:3860.got - 2010.05.20 13:01:12.
