data_PCOD9569000
_publ_section_title
;
Structure prediction by ZEFSAII (Michael W. Deem and Ramdas Pophale) SiO2 
 PCOD9569000
Probable space group: P 42/M B C
;
_chemical_formula_sum "Si O2"
_cell_formula_units_Z 96
_cell_length_a 16.874773
_cell_length_b 16.874773
_cell_length_c 18.576803
_cell_angle_alpha 90.000000
_cell_angle_beta 90.000000
_cell_angle_gamma 90.000000
_cell_volume 5289.892596
_symmetry_space_group_name_H-M "P 42/M B C"
_symmetry_group_IT_number 135
_symmetry_cell_setting 'tetragonal'
loop_
_space_group_symop_operation_xyz
x,y,z
-y,x,1/2+z
-x,-y,z
y,-x,1/2+z
1/2+x,1/2-y,-z
1/2-x,1/2+y,-z
1/2+y,1/2+x,1/2-z
1/2-y,1/2-x,1/2-z
-x,-y,-z
y,-x,1/2-z
x,y,-z
-y,x,1/2-z
1/2-x,1/2+y,z
1/2+x,1/2-y,z
1/2-y,1/2-x,1/2+z
1/2+y,1/2+x,1/2+z
loop_
_atom_site_type_symbol
_atom_site_label
_atom_site_fract_x
_atom_site_fract_y
_atom_site_fract_z
Si Si1 0.582561 0.451334 0.079816
Si Si2 0.667565 0.494679 0.677607
Si Si3 0.993166 0.676671 0.914650
Si Si4 0.551399 0.919063 0.671595
Si Si5 0.670896 0.573825 0.830649
Si Si6 0.109334 0.342069 0.331762
O O1 0.500000 0.500000 0.075609
O O2 0.561853 0.386500 0.139561
O O3 0.649783 0.511200 0.106880
O O4 0.598968 0.419115 0.000000
O O5 0.743439 0.486920 0.627316
O O6 0.686445 0.525690 0.757020
O O7 0.622877 0.410419 0.680198
O O8 0.907406 0.648214 0.883989
O O9 0.060166 0.613784 0.889816
O O10 0.990840 0.685362 0.000000
O O11 0.590950 0.909051 0.750000
O O12 0.485712 0.852630 0.659851
O O13 0.500000 0.000000 0.675960
O O14 0.749502 0.625284 0.845276
O O15 0.133650 0.366351 0.250000
#
# Coordination Sequence:
#
# PCOD9569000 Si02
#       6
#    16  16  16  16  16  16
#     4   9  19  34  55  82 116 151 191 244 294 345
#     4  11  20  37  60  90 122 158 206 246 301 377
#     4  11  23  38  62  91 123 162 200 252 317 369
#     4   9  15  33  58  82 111 151 197 239 286 358
#     4  11  21  35  63  90 114 160 209 249 299 366
#     4  11  20  37  61  87 119 155 200 254 307 359
#
# _framework density 18.147815999999999
#
# number of rings (size 3 to 8) (size 9 to 14) (size 15 to 20)
#    0.000    1.667    6.667    0.500    0.000    4.333 
#    0.000    4.167    0.000    0.000    0.000    0.000 
#    0.000    0.000    0.000    0.000    0.000    0.000 
#
# Total GULP energy -535026.908295 kJ/mol
# GULP energy per Si atom -5573.196961 kJ/mol
# Density = 1.810651 g / cm^3
# Si number density = 18.147816 Si / 1000 Ang^3
#
#
#
# Elastic Constant Matrix: (Units=GPa)
#
#
# Indices 1 2 3 4 5 6 
#
# 1 66.5549 15.4324 24.3567 0.0000 0.0000 0.0000
# 2 15.4324 66.5550 24.3567 0.0000 0.0000 0.0000
# 3 24.3567 24.3567 108.4705 0.0000 0.0000 0.0000
# 4 0.0000 0.0000 0.0000 20.6370 0.0000 0.0000
# 5 0.0000 0.0000 0.0000 0.0000 20.6465 0.0000
# 6 0.0000 0.0000 0.0000 0.0000 0.0000 14.6067
#
#
#
# Elastic Compliance Matrix: (Units=1/GPa)
#
#
# Indices 1 2 3 4 5 6 
#
# 1 0.016818 -0.002743 -0.003160 0.000000 0.000000 0.000000
# 2 -0.002743 0.016818 -0.003160 0.000000 0.000000 0.000000
# 3 -0.003160 -0.003160 0.010638 0.000000 0.000000 0.000000
# 4 0.000000 0.000000 0.000000 0.048457 0.000000 0.000000
# 5 0.000000 0.000000 0.000000 0.000000 0.048434 0.000000
# 6 0.000000 0.000000 0.000000 0.000000 0.000000 0.068462
#
#
# Mechanical properties :
#
#
# Convention : Reuss Voigt Hill
#
# Bulk Modulus (GPa) = 38.24642 41.09690 39.67166
# Shear Modulus (GPa) = 21.14430 23.00699 22.07565
#
# Velocity S-wave (km/s) = 3.41708 3.56442 3.49153
# Velocity P-wave (km/s) = 6.05717 6.29563 6.17755
#
# Compressibility (1/GPa) = 0.02614624
#
# Stress axis : x y z
#
# Youngs Moduli (GPa) = 59.46071 59.46072 93.99872
#
# Poissons Ratio (x) = 0.16310 0.29708
# Poissons Ratio (y) = 0.16310 0.29708
# Poissons Ratio (z) = 0.18792 0.18792
#
# Static dielectric constant tensor:
#      x y z
#    x 1.652590 0.000000 0.000000 
#    y 0.000000 1.652590 0.000000 
#    z 0.000000 0.000000 1.610420 
# 
# From -- ./inp_files/4447.got.cif
#   From: 2010.05.17/outbox.cif.g08.bks.cpg/sg135_3_cif.got.tgz:4447.got - 2010.05.20 12:50:20.
