data_PCOD9569242
_publ_section_title
;
Structure prediction by ZEFSAII (Michael W. Deem and Ramdas Pophale) SiO2 
 PCOD9569242
Probable space group: P 42/M N M
;
_chemical_formula_sum "Si O2"
_cell_formula_units_Z 112
_cell_length_a 16.213395
_cell_length_b 16.213395
_cell_length_c 26.592511
_cell_angle_alpha 90.000000
_cell_angle_beta 90.000000
_cell_angle_gamma 90.000000
_cell_volume 6990.484455
_symmetry_space_group_name_H-M "P 42/M N M"
_symmetry_group_IT_number 136
_symmetry_cell_setting 'tetragonal'
loop_
_space_group_symop_operation_xyz
x,y,z
1/2-y,1/2+x,1/2+z
-x,-y,z
1/2+y,1/2-x,1/2+z
1/2+x,1/2-y,1/2-z
1/2-x,1/2+y,1/2-z
y,x,-z
-y,-x,-z
-x,-y,-z
1/2+y,1/2-x,1/2-z
x,y,-z
1/2-y,1/2+x,1/2-z
1/2-x,1/2+y,1/2+z
1/2+x,1/2-y,1/2+z
-y,-x,z
y,x,z
loop_
_atom_site_type_symbol
_atom_site_label
_atom_site_fract_x
_atom_site_fract_y
_atom_site_fract_z
Si Si1 0.823679 0.679792 0.279488
Si Si2 0.494428 0.245116 0.752035
Si Si3 0.635883 0.497678 0.154183
Si Si4 0.954118 0.187742 0.056150
Si Si5 0.208649 0.066394 0.443869
Si Si6 0.689951 0.170084 0.100524
Si Si7 0.499851 0.365342 0.660147
O O1 0.753504 0.753504 0.271100
O O2 0.802269 0.592842 0.252751
O O3 0.916466 0.703848 0.262767
O O4 0.825069 0.663578 0.339857
O O5 0.484768 0.308696 0.797932
O O6 0.502107 0.291956 0.699044
O O7 0.590710 0.409291 0.161740
O O8 0.565524 0.565524 0.150193
O O9 0.684794 0.492777 0.101887
O O10 0.883144 0.116857 0.053694
O O11 0.910021 0.271527 0.074532
O O12 0.011239 0.160792 0.102335
O O13 0.989078 0.194595 0.000000
O O14 0.212484 0.030978 0.500000
O O15 0.136646 0.136646 0.444772
O O16 0.292854 0.112018 0.428484
O O17 0.760720 0.239281 0.095289
O O18 0.568043 0.431958 0.674452
O O19 0.411082 0.411082 0.663782
#
# Coordination Sequence:
#
# PCOD9569242 Si02
#       7
#    16  16  16  16  16  16  16
#     4  11  22  36  57  80 107 142 178 224 271 317
#     4  12  22  36  54  74 104 138 182 225 268 323
#     4  10  19  30  47  72 104 140 175 216 268 328
#     4   9  16  26  43  69 102 138 173 210 258 319
#     4   9  16  26  43  69 102 138 173 210 258 319
#     4   9  15  28  46  69 100 135 172 207 252 309
#     4  10  19  30  47  72 104 140 175 216 268 328
#
# _framework density 16.021778999999999
#
# number of rings (size 3 to 8) (size 9 to 14) (size 15 to 20)
#    0.000    2.000    2.857    3.000    0.000    3.714 
#    0.000    2.857    0.000    0.000    0.000    1.000 
#    0.000    5.714    0.000    0.000    0.000    0.000 
#
# Total GULP energy -623615.042479 kJ/mol
# GULP energy per Si atom -5567.991451 kJ/mol
# Density = 1.598531 g / cm^3
# Si number density = 16.021779 Si / 1000 Ang^3
#
#
#
# Elastic Constant Matrix: (Units=GPa)
#
#
# Indices 1 2 3 4 5 6 
#
# 1 34.8761 6.2761 0.0937 0.0000 0.0000 0.0000
# 2 6.2761 34.8761 0.0937 0.0000 0.0000 0.0000
# 3 0.0937 0.0937 62.5098 0.0000 0.0000 0.0000
# 4 0.0000 0.0000 0.0000 56.7490 0.0000 0.0000
# 5 0.0000 0.0000 0.0000 0.0000 56.7490 0.0000
# 6 0.0000 0.0000 0.0000 0.0000 0.0000 10.5140
#
#
#
# Elastic Compliance Matrix: (Units=1/GPa)
#
#
# Indices 1 2 3 4 5 6 
#
# 1 0.029633 -0.005332 -0.000036 0.000000 0.000000 0.000000
# 2 -0.005332 0.029633 -0.000036 0.000000 0.000000 0.000000
# 3 -0.000036 -0.000036 0.015998 0.000000 0.000000 0.000000
# 4 0.000000 0.000000 0.000000 0.017621 0.000000 0.000000
# 5 0.000000 0.000000 0.000000 0.000000 0.017621 0.000000
# 6 0.000000 0.000000 0.000000 0.000000 0.000000 0.095111
#
#
# Mechanical properties :
#
#
# Convention : Reuss Voigt Hill
#
# Bulk Modulus (GPa) = 15.51532 16.13208 15.82370
# Shear Modulus (GPa) = 21.01620 33.18897 27.10258
#
# Velocity S-wave (km/s) = 3.62571 4.55630 4.11738
# Velocity P-wave (km/s) = 5.21848 6.14577 5.70101
#
# Compressibility (1/GPa) = 0.06445243
#
# Stress axis : x y z
#
# Youngs Moduli (GPa) = 33.74655 33.74655 62.50933
#
# Poissons Ratio (x) = 0.17995 0.00228
# Poissons Ratio (y) = 0.17995 0.00228
# Poissons Ratio (z) = 0.00123 0.00123
#
# Static dielectric constant tensor:
#      x y z
#    x 1.553810 0.000000 0.000000 
#    y 0.000000 1.553810 0.000000 
#    z 0.000000 0.000000 1.542910 
# 
# From -- ./inp_files/9195.got.cif
#   From: 2010.05.17/outbox.cif.g08.bks.cpg/sg136_5_cif.got.tgz:9195.got - 2010.05.20 12:54:53.
