data_PCOD9569263
_publ_section_title
;
Structure prediction by ZEFSAII (Michael W. Deem and Ramdas Pophale) SiO2 
 PCOD9569263
Probable space group: P 42/M N M
;
_chemical_formula_sum "Si O2"
_cell_formula_units_Z 96
_cell_length_a 23.975718
_cell_length_b 23.975718
_cell_length_c 7.437298
_cell_angle_alpha 90.000000
_cell_angle_beta 90.000000
_cell_angle_gamma 90.000000
_cell_volume 4275.219595
_symmetry_space_group_name_H-M "P 42/M N M"
_symmetry_group_IT_number 136
_symmetry_cell_setting 'tetragonal'
loop_
_space_group_symop_operation_xyz
x,y,z
1/2-y,1/2+x,1/2+z
-x,-y,z
1/2+y,1/2-x,1/2+z
1/2+x,1/2-y,1/2-z
1/2-x,1/2+y,1/2-z
y,x,-z
-y,-x,-z
-x,-y,-z
1/2+y,1/2-x,1/2-z
x,y,-z
1/2-y,1/2+x,1/2-z
1/2-x,1/2+y,1/2+z
1/2+x,1/2-y,1/2+z
-y,-x,z
y,x,z
loop_
_atom_site_type_symbol
_atom_site_label
_atom_site_fract_x
_atom_site_fract_y
_atom_site_fract_z
Si Si1 0.044787 0.869479 0.280153
Si Si2 0.334596 0.884004 0.782917
Si Si3 0.847279 0.847279 0.281251
Si Si4 0.012036 0.745998 0.288539
Si Si5 0.438121 0.561880 0.781386
Si Si6 0.613395 0.225514 0.219583
Si Si7 0.930655 0.449115 0.800009
O O1 0.044801 0.867483 0.500000
O O2 0.104461 0.895540 0.226225
O O3 0.027673 0.807685 0.216538
O O4 0.997385 0.913733 0.224679
O O5 0.292218 0.932634 0.727653
O O6 0.338659 0.819334 0.726833
O O7 0.396458 0.900853 0.721334
O O8 0.333122 0.886174 0.000000
O O9 0.846888 0.846888 0.500000
O O10 0.892584 0.892584 0.227492
O O11 0.866516 0.786418 0.224142
O O12 0.002103 0.753888 0.500000
O O13 0.952425 0.720728 0.221876
O O14 0.440595 0.559406 0.000000
O O15 0.612453 0.222425 0.000000
O O16 0.930590 0.505097 0.689751
O O17 0.908779 0.461346 0.000000
#
# Coordination Sequence:
#
# PCOD9569263 Si02
#       7
#    16  16   8  16   8  16  16
#     4   9  16  26  44  74 109 136 157 194 251 307
#     4  10  21  34  47  69  99 130 168 211 250 290
#     4   9  14  25  48  73  96 127 169 208 242 281
#     4  10  19  33  53  74 100 135 169 204 251 304
#     4   9  13  22  43  76 108 130 158 198 247 299
#     4   9  17  31  50  71  97 129 169 212 246 286
#     4  10  19  31  48  70  97 127 161 208 256 304
#
# _framework density 22.454986999999999
#
# number of rings (size 3 to 8) (size 9 to 14) (size 15 to 20)
#    0.000    2.500    1.667    2.250    0.000    3.667 
#    1.500    0.833    0.000    0.000    0.000    3.500 
#    0.000    1.333    0.000    0.000    0.000    0.000 
#
# Total GULP energy -535040.772199 kJ/mol
# GULP energy per Si atom -5573.341377 kJ/mol
# Density = 2.240388 g / cm^3
# Si number density = 22.454987 Si / 1000 Ang^3
#
#
#
# Elastic Constant Matrix: (Units=GPa)
#
#
# Indices 1 2 3 4 5 6 
#
# 1 61.2339 87.6658 -4.6842 0.0000 0.0000 0.0000
# 2 87.6658 61.2337 -4.6842 0.0000 0.0000 0.0000
# 3 -4.6842 -4.6842 64.5783 0.0000 0.0000 0.0000
# 4 0.0000 0.0000 0.0000 2.8827 0.0000 0.0000
# 5 0.0000 0.0000 0.0000 0.0000 2.8826 0.0000
# 6 0.0000 0.0000 0.0000 0.0000 0.0000 37.5963
#
#
#
# Elastic Compliance Matrix: (Units=1/GPa)
#
#
# Indices 1 2 3 4 5 6 
#
# 1 -0.015543 0.022290 0.000489 0.000000 0.000000 0.000000
# 2 0.022290 -0.015543 0.000489 0.000000 0.000000 0.000000
# 3 0.000489 0.000489 0.015556 0.000000 0.000000 0.000000
# 4 0.000000 0.000000 0.000000 0.346902 0.000000 0.000000
# 5 0.000000 0.000000 0.000000 0.000000 0.346907 0.000000
# 6 0.000000 0.000000 0.000000 0.000000 0.000000 0.026598
#
#
# Mechanical properties :
#
#
# Convention : Reuss Voigt Hill
#
# Bulk Modulus (GPa) = 32.25075 38.18229 35.21652
# Shear Modulus (GPa) = 7.47746 15.92221 11.69983
#
# Velocity S-wave (km/s) = 1.82680 2.66573 2.28510
# Velocity P-wave (km/s) = 4.34087 5.14934 4.76229
#
# Compressibility (1/GPa) = 0.03100703
#
# Stress axis : x y z
#
# Youngs Moduli (GPa) = -64.33740 -64.33721 64.28357
#
# Poissons Ratio (x) = 1.43406 -0.03146
# Poissons Ratio (y) = 1.43407 -0.03146
# Poissons Ratio (z) = 0.03148 0.03149
#
# Static dielectric constant tensor:
#      x y z
#    x 1.843680 0.000000 0.000000 
#    y 0.000000 1.843680 0.000000 
#    z 0.000000 0.000000 1.882880 
# 
# From -- ./inp_files/2024.got.cif
#   From: 2010.05.17/outbox.cif.g08.bks.cpg/sg136_2_cif.got.tgz:2024.got - 2010.05.20 12:54:53.
