data_PCOD9569164
_publ_section_title
;
Structure prediction by ZEFSAII (Michael W. Deem and Ramdas Pophale) SiO2 
 PCOD9569164
Probable space group: P 42/M N M
;
_chemical_formula_sum "Si O2"
_cell_formula_units_Z 64
_cell_length_a 14.268672
_cell_length_b 14.268672
_cell_length_c 20.012719
_cell_angle_alpha 90.000000
_cell_angle_beta 90.000000
_cell_angle_gamma 90.000000
_cell_volume 4074.489538
_symmetry_space_group_name_H-M "P 42/M N M"
_symmetry_group_IT_number 136
_symmetry_cell_setting 'tetragonal'
loop_
_space_group_symop_operation_xyz
x,y,z
1/2-y,1/2+x,1/2+z
-x,-y,z
1/2+y,1/2-x,1/2+z
1/2+x,1/2-y,1/2-z
1/2-x,1/2+y,1/2-z
y,x,-z
-y,-x,-z
-x,-y,-z
1/2+y,1/2-x,1/2-z
x,y,-z
1/2-y,1/2+x,1/2-z
1/2-x,1/2+y,1/2+z
1/2+x,1/2-y,1/2+z
-y,-x,z
y,x,z
loop_
_atom_site_type_symbol
_atom_site_label
_atom_site_fract_x
_atom_site_fract_y
_atom_site_fract_z
Si Si1 0.852113 0.503257 0.778234
Si Si2 0.155262 0.002169 0.206480
Si Si3 0.044114 0.396412 0.574743
Si Si4 0.420734 0.266497 0.424475
O O1 0.913285 0.591194 0.751332
O O2 0.747510 0.504763 0.750899
O O3 0.850459 0.497592 0.858648
O O4 0.097463 0.097463 0.215438
O O5 0.190944 0.989247 0.130525
O O6 0.082826 0.917175 0.219791
O O7 0.027709 0.355326 0.500000
O O8 0.156019 0.405124 0.584580
O O9 0.000000 0.500000 0.573944
O O10 0.455123 0.281575 0.500000
O O11 0.323141 0.323141 0.417604
#
# Coordination Sequence:
#
# PCOD9569164 Si02
#       4
#    16  16  16  16
#     4  11  19  33  52  77 102 129 168 205 247 302
#     4  10  21  34  49  73 103 135 170 208 251 296
#     4  10  18  30  50  75 103 130 160 205 252 295
#     4   9  17  30  48  71 100 132 165 201 247 302
#
# _framework density 15.707489000000001
#
# number of rings (size 3 to 8) (size 9 to 14) (size 15 to 20)
#    0.000    2.000    5.000    0.000    0.000    2.500 
#    0.000    2.500    0.000    0.750    0.000    1.750 
#    0.000    0.000    0.000    0.000    0.000    0.000 
#
# Total GULP energy -356536.475358 kJ/mol
# GULP energy per Si atom -5570.882427 kJ/mol
# Density = 1.567174 g / cm^3
# Si number density = 15.707489 Si / 1000 Ang^3
#
#
#
# Elastic Constant Matrix: (Units=GPa)
#
#
# Indices 1 2 3 4 5 6 
#
# 1 66.4377 15.2240 40.2094 0.0000 0.0000 0.0000
# 2 15.2240 66.4377 40.2094 0.0000 0.0000 0.0000
# 3 40.2094 40.2094 122.8826 0.0000 0.0000 0.0000
# 4 0.0000 0.0000 0.0000 19.0005 0.0000 0.0000
# 5 0.0000 0.0000 0.0000 0.0000 19.0005 0.0000
# 6 0.0000 0.0000 0.0000 0.0000 0.0000 4.7015
#
#
#
# Elastic Compliance Matrix: (Units=1/GPa)
#
#
# Indices 1 2 3 4 5 6 
#
# 1 0.018797 -0.000729 -0.005912 0.000000 0.000000 0.000000
# 2 -0.000729 0.018797 -0.005912 0.000000 0.000000 0.000000
# 3 -0.005912 -0.005912 0.012007 0.000000 0.000000 0.000000
# 4 0.000000 0.000000 0.000000 0.052630 0.000000 0.000000
# 5 0.000000 0.000000 0.000000 0.000000 0.052630 0.000000
# 6 0.000000 0.000000 0.000000 0.000000 0.000000 0.212699
#
#
# Mechanical properties :
#
#
# Convention : Reuss Voigt Hill
#
# Bulk Modulus (GPa) = 40.82621 49.67151 45.24886
# Shear Modulus (GPa) = 12.47407 19.21484 15.84445
#
# Velocity S-wave (km/s) = 2.82112 3.50135 3.17948
# Velocity P-wave (km/s) = 6.05472 6.93090 6.50757
#
# Compressibility (1/GPa) = 0.02449407
#
# Stress axis : x y z
#
# Youngs Moduli (GPa) = 53.20030 53.20030 83.28513
#
# Poissons Ratio (x) = 0.03879 0.49239
# Poissons Ratio (y) = 0.03879 0.49239
# Poissons Ratio (z) = 0.31453 0.31453
#
# Static dielectric constant tensor:
#      x y z
#    x 1.326000 0.000000 0.000000 
#    y 0.000000 1.326000 0.000000 
#    z 0.000000 0.000000 1.562500 
# 
# From -- ./inp_files/5904.got.cif
#   From: 2010.05.17/outbox.cif.g08.bks.cpg/sg136_3_cif.got.tgz:5904.got - 2010.05.20 12:54:53.
