data_PCOD9569171
_publ_section_title
;
Structure prediction by ZEFSAII (Michael W. Deem and Ramdas Pophale) SiO2 
 PCOD9569171
Probable space group: P 42/M N M
;
_chemical_formula_sum "Si O2"
_cell_formula_units_Z 128
_cell_length_a 21.666591
_cell_length_b 21.666591
_cell_length_c 15.099310
_cell_angle_alpha 90.000000
_cell_angle_beta 90.000000
_cell_angle_gamma 90.000000
_cell_volume 7088.237686
_symmetry_space_group_name_H-M "P 42/M N M"
_symmetry_group_IT_number 136
_symmetry_cell_setting 'tetragonal'
loop_
_space_group_symop_operation_xyz
x,y,z
1/2-y,1/2+x,1/2+z
-x,-y,z
1/2+y,1/2-x,1/2+z
1/2+x,1/2-y,1/2-z
1/2-x,1/2+y,1/2-z
y,x,-z
-y,-x,-z
-x,-y,-z
1/2+y,1/2-x,1/2-z
x,y,-z
1/2-y,1/2+x,1/2-z
1/2-x,1/2+y,1/2+z
1/2+x,1/2-y,1/2+z
-y,-x,z
y,x,z
loop_
_atom_site_type_symbol
_atom_site_label
_atom_site_fract_x
_atom_site_fract_y
_atom_site_fract_z
Si Si1 0.123098 0.783008 0.655286
Si Si2 0.334667 0.806761 0.398504
Si Si3 0.273865 0.003317 0.673810
Si Si4 0.237014 0.140122 0.275097
Si Si5 0.446212 0.159631 0.653615
Si Si6 0.761986 0.665055 0.649896
Si Si7 0.965651 0.599477 0.398034
Si Si8 0.931493 0.595962 0.898220
O O1 0.149330 0.850671 0.636753
O O2 0.165404 0.733658 0.603624
O O3 0.051033 0.770840 0.640647
O O4 0.140064 0.765797 0.757217
O O5 0.351309 0.791379 0.500000
O O6 0.347076 0.753279 0.328180
O O7 0.376567 0.862877 0.361380
O O8 0.309234 0.973164 0.758170
O O9 0.243569 0.068325 0.701277
O O10 0.328506 0.017848 0.605518
O O11 0.171114 0.171114 0.294701
O O12 0.287822 0.182111 0.326939
O O13 0.396452 0.206324 0.610044
O O14 0.411369 0.094028 0.662283
O O15 0.507674 0.136985 0.604407
O O16 0.707322 0.707322 0.608434
O O17 0.951668 0.580542 0.500000
O O18 0.026702 0.564740 0.362598
O O19 0.914004 0.584659 0.000000
#
# Coordination Sequence:
#
# PCOD9569171 Si02
#       8
#    16  16  16  16  16  16  16  16
#     4   9  18  31  49  72 101 131 164 208 258 306
#     4  10  18  31  50  76 108 139 171 212 264 319
#     4  11  21  34  53  77  98 132 179 214 254 310
#     4  10  19  34  52  73 100 131 170 218 268 310
#     4  11  20  31  52  69  97 135 179 210 245 302
#     4   8  16  30  47  69  94 125 166 215 256 290
#     4  11  23  36  48  69 107 145 172 205 251 301
#     4  10  20  33  46  67 106 144 170 207 253 299
#
# _framework density 18.058084999999998
#
# number of rings (size 3 to 8) (size 9 to 14) (size 15 to 20)
#    0.000    2.000    3.750    1.875    1.750    2.000 
#    0.000    0.000    0.000    3.000    0.000    0.000 
#    0.000    0.500    0.000    3.375    0.000    0.000 
#
# Total GULP energy -713133.278900 kJ/mol
# GULP energy per Si atom -5571.353741 kJ/mol
# Density = 1.801698 g / cm^3
# Si number density = 18.058085 Si / 1000 Ang^3
#
#
#
# Elastic Constant Matrix: (Units=GPa)
#
#
# Indices 1 2 3 4 5 6 
#
# 1 85.0608 66.2410 10.4352 0.0000 0.0000 0.0000
# 2 66.2410 85.0608 10.4352 0.0000 0.0000 0.0000
# 3 10.4352 10.4352 34.6464 0.0000 0.0000 0.0000
# 4 0.0000 0.0000 0.0000 8.3354 0.0000 0.0000
# 5 0.0000 0.0000 0.0000 0.0000 8.3354 0.0000
# 6 0.0000 0.0000 0.0000 0.0000 0.0000 42.1929
#
#
#
# Elastic Compliance Matrix: (Units=1/GPa)
#
#
# Indices 1 2 3 4 5 6 
#
# 1 0.030016 -0.023120 -0.002077 0.000000 0.000000 0.000000
# 2 -0.023120 0.030016 -0.002077 0.000000 0.000000 0.000000
# 3 -0.002077 -0.002077 0.030114 0.000000 0.000000 0.000000
# 4 0.000000 0.000000 0.000000 0.119970 0.000000 0.000000
# 5 0.000000 0.000000 0.000000 0.000000 0.119970 0.000000
# 6 0.000000 0.000000 0.000000 0.000000 0.000000 0.023701
#
#
# Mechanical properties :
#
#
# Convention : Reuss Voigt Hill
#
# Bulk Modulus (GPa) = 28.09151 42.11008 35.10079
# Shear Modulus (GPa) = 11.89908 19.61652 15.75780
#
# Velocity S-wave (km/s) = 2.56976 3.29948 2.95721
# Velocity P-wave (km/s) = 4.93911 6.15511 5.58033
#
# Compressibility (1/GPa) = 0.03559795
#
# Stress axis : x y z
#
# Youngs Moduli (GPa) = 33.31591 33.31591 33.20699
#
# Poissons Ratio (x) = 0.77026 0.06897
# Poissons Ratio (y) = 0.77026 0.06897
# Poissons Ratio (z) = 0.06920 0.06920
#
# Static dielectric constant tensor:
#      x y z
#    x 1.658040 0.000000 0.000000 
#    y 0.000000 1.658040 0.000000 
#    z 0.000000 0.000000 1.657500 
# 
# From -- ./inp_files/6626.got.cif
#   From: 2010.05.17/outbox.cif.g08.bks.cpg/sg136_4_cif.got.tgz:6626.got - 2010.05.20 12:54:53.
