data_PCOD9569671
_publ_section_title
;
Structure prediction by ZEFSAII (Michael W. Deem and Ramdas Pophale) SiO2 
 PCOD9569671
Probable space group: P 42/M N M
;
_chemical_formula_sum "Si O2"
_cell_formula_units_Z 56
_cell_length_a 14.158154
_cell_length_b 14.158154
_cell_length_c 16.029938
_cell_angle_alpha 90.000000
_cell_angle_beta 90.000000
_cell_angle_gamma 90.000000
_cell_volume 3213.254367
_symmetry_space_group_name_H-M "P 42/M N M"
_symmetry_group_IT_number 136
_symmetry_cell_setting 'tetragonal'
loop_
_space_group_symop_operation_xyz
x,y,z
1/2-y,1/2+x,1/2+z
-x,-y,z
1/2+y,1/2-x,1/2+z
1/2+x,1/2-y,1/2-z
1/2-x,1/2+y,1/2-z
y,x,-z
-y,-x,-z
-x,-y,-z
1/2+y,1/2-x,1/2-z
x,y,-z
1/2-y,1/2+x,1/2-z
1/2-x,1/2+y,1/2+z
1/2+x,1/2-y,1/2+z
-y,-x,z
y,x,z
loop_
_atom_site_type_symbol
_atom_site_label
_atom_site_fract_x
_atom_site_fract_y
_atom_site_fract_z
Si Si1 0.996995 0.386303 0.000000
Si Si2 0.076866 0.923135 0.099817
Si Si3 0.522149 0.784433 0.338685
Si Si4 0.615808 0.224296 0.183144
Si Si5 0.120234 0.276402 0.500000
O O1 0.031976 0.340951 0.086654
O O2 0.000000 0.500000 0.000000
O O3 0.886753 0.357512 0.000000
O O4 0.048455 0.819627 0.130133
O O5 0.077337 0.922664 0.000000
O O6 0.000000 0.000000 0.128713
O O7 0.459649 0.775175 0.256317
O O8 0.619827 0.838747 0.319514
O O9 0.697514 0.302487 0.196642
O O10 0.573574 0.243024 0.089809
O O11 0.216423 0.216423 0.500000
#
# Coordination Sequence:
#
# PCOD9569671 Si02
#       5
#     8   8  16  16   8
#     4  10  22  34  54  85 121 155 190 241 305 354
#     4  11  22  40  64  89 119 162 201 251 305 369
#     4  11  22  37  60  86 120 151 201 245 303 361
#     4  10  21  36  57  84 111 150 195 243 294 355
#     4   8  18  36  58  74 108 153 199 228 281 362
#
# _framework density 17.427814999999999
#
# number of rings (size 3 to 8) (size 9 to 14) (size 15 to 20)
#    0.000    1.857    2.857    0.857   10.000    0.000 
#    0.000    0.000    0.000    0.857    0.000    4.000 
#    0.000    0.000    0.000    0.000    0.000    0.000 
#
# Total GULP energy -312123.949466 kJ/mol
# GULP energy per Si atom -5573.641955 kJ/mol
# Density = 1.738815 g / cm^3
# Si number density = 17.427815 Si / 1000 Ang^3
#
#
#
# Elastic Constant Matrix: (Units=GPa)
#
#
# Indices 1 2 3 4 5 6 
#
# 1 72.7405 30.4981 62.0831 0.0000 0.0000 0.0000
# 2 30.4981 72.7441 62.0848 0.0000 0.0000 0.0000
# 3 62.0831 62.0848 179.7595 0.0000 0.0000 0.0000
# 4 0.0000 0.0000 0.0000 29.2736 0.0000 0.0000
# 5 0.0000 0.0000 0.0000 0.0000 29.2739 0.0000
# 6 0.0000 0.0000 0.0000 0.0000 0.0000 15.6839
#
#
#
# Elastic Compliance Matrix: (Units=1/GPa)
#
#
# Indices 1 2 3 4 5 6 
#
# 1 0.020121 -0.003552 -0.005722 0.000000 0.000000 0.000000
# 2 -0.003552 0.020120 -0.005722 0.000000 0.000000 0.000000
# 3 -0.005722 -0.005722 0.009516 0.000000 0.000000 0.000000
# 4 0.000000 0.000000 0.000000 0.034160 0.000000 0.000000
# 5 0.000000 0.000000 0.000000 0.000000 0.034160 0.000000
# 6 0.000000 0.000000 0.000000 0.000000 0.000000 0.063760
#
#
# Mechanical properties :
#
#
# Convention : Reuss Voigt Hill
#
# Bulk Modulus (GPa) = 50.59897 70.50846 60.55372
# Shear Modulus (GPa) = 22.89208 26.21816 24.55512
#
# Velocity S-wave (km/s) = 3.62821 3.88285 3.75769
# Velocity P-wave (km/s) = 6.82996 7.78764 7.32447
#
# Compressibility (1/GPa) = 0.01976325
#
# Stress axis : x y z
#
# Youngs Moduli (GPa) = 49.70033 49.70276 105.09075
#
# Poissons Ratio (x) = 0.17654 0.60136
# Poissons Ratio (y) = 0.17653 0.60135
# Poissons Ratio (z) = 0.28440 0.28441
#
# Static dielectric constant tensor:
#      x y z
#    x 1.583060 0.000000 0.000000 
#    y 0.000000 1.583060 0.000000 
#    z 0.000000 0.000000 1.656760 
# 
# From -- ./inp_files/3123.got.cif
#   From: 2010.05.17/outbox.cif.g08.bks.cpg/sg136_2_cif.got.tgz:3123.got - 2010.05.20 12:54:53.
