data_PCOD9569222
_publ_section_title
;
Structure prediction by ZEFSAII (Michael W. Deem and Ramdas Pophale) SiO2 
 PCOD9569222
Probable space group: P 42/M N M
;
_chemical_formula_sum "Si O2"
_cell_formula_units_Z 88
_cell_length_a 21.532160
_cell_length_b 21.532160
_cell_length_c 13.778678
_cell_angle_alpha 90.000000
_cell_angle_beta 90.000000
_cell_angle_gamma 90.000000
_cell_volume 6388.262415
_symmetry_space_group_name_H-M "P 42/M N M"
_symmetry_group_IT_number 136
_symmetry_cell_setting 'tetragonal'
loop_
_space_group_symop_operation_xyz
x,y,z
1/2-y,1/2+x,1/2+z
-x,-y,z
1/2+y,1/2-x,1/2+z
1/2+x,1/2-y,1/2-z
1/2-x,1/2+y,1/2-z
y,x,-z
-y,-x,-z
-x,-y,-z
1/2+y,1/2-x,1/2-z
x,y,-z
1/2-y,1/2+x,1/2-z
1/2-x,1/2+y,1/2+z
1/2+x,1/2-y,1/2+z
-y,-x,z
y,x,z
loop_
_atom_site_type_symbol
_atom_site_label
_atom_site_fract_x
_atom_site_fract_y
_atom_site_fract_z
Si Si1 0.746603 0.640932 0.610605
Si Si2 0.480336 0.314420 0.303237
Si Si3 0.407451 0.301538 0.111613
Si Si4 0.552464 0.552464 0.386871
Si Si5 0.281167 0.613562 0.615831
Si Si6 0.707508 0.186663 0.695113
O O1 0.768702 0.644354 0.500000
O O2 0.685965 0.685965 0.618834
O O3 0.724587 0.572058 0.638677
O O4 0.793811 0.664630 0.693086
O O5 0.461328 0.308122 0.190665
O O6 0.471311 0.385272 0.336440
O O7 0.548975 0.293079 0.330470
O O8 0.357888 0.357888 0.127414
O O9 0.369287 0.238374 0.134401
O O10 0.427259 0.303167 0.000000
O O11 0.500000 0.500000 0.382932
O O12 0.566148 0.566148 0.500000
O O13 0.278201 0.603633 0.500000
O O14 0.338262 0.661739 0.633433
O O15 0.218053 0.646245 0.652860
O O16 0.758749 0.241252 0.689891
#
# Coordination Sequence:
#
# PCOD9569222 Si02
#       6
#    16  16  16   8  16  16
#     4   9  15  25  43  63  83 106 137 179 219 249
#     4  11  18  28  41  63  86 112 145 180 209 248
#     4   9  16  29  48  63  77 102 143 190 225 248
#     4  11  20  28  39  57  85 119 150 176 203 238
#     4  10  19  29  41  59  87 118 142 169 212 260
#     4   8  15  27  42  62  81 105 140 176 214 257
#
# _framework density 13.775263000000001
#
# number of rings (size 3 to 8) (size 9 to 14) (size 15 to 20)
#    0.000    2.455    1.818    3.818    0.000    3.636 
#    0.000    0.909    0.000    3.818    0.000    0.000 
#    0.000   11.636    0.000   42.182    0.000    0.727 
#
# Total GULP energy -490205.378735 kJ/mol
# GULP energy per Si atom -5570.515667 kJ/mol
# Density = 1.374391 g / cm^3
# Si number density = 13.775263 Si / 1000 Ang^3
#
#
#
# Elastic Constant Matrix: (Units=GPa)
#
#
# Indices 1 2 3 4 5 6 
#
# 1 52.9688 53.5898 50.1853 0.0000 0.0000 0.0000
# 2 53.5898 52.9688 50.1853 0.0000 0.0000 0.0000
# 3 50.1853 50.1853 128.4296 0.0000 0.0000 0.0000
# 4 0.0000 0.0000 0.0000 15.9831 0.0000 0.0000
# 5 0.0000 0.0000 0.0000 0.0000 15.9831 0.0000
# 6 0.0000 0.0000 0.0000 0.0000 0.0000 14.3118
#
#
#
# Elastic Compliance Matrix: (Units=1/GPa)
#
#
# Indices 1 2 3 4 5 6 
#
# 1 -0.797691 0.812541 -0.005803 0.000000 0.000000 0.000000
# 2 0.812541 -0.797691 -0.005803 0.000000 0.000000 0.000000
# 3 -0.005803 -0.005803 0.012322 0.000000 0.000000 0.000000
# 4 0.000000 0.000000 0.000000 0.062566 0.000000 0.000000
# 5 0.000000 0.000000 0.000000 0.000000 0.062566 0.000000
# 6 0.000000 0.000000 0.000000 0.000000 0.000000 0.069872
#
#
# Mechanical properties :
#
#
# Convention : Reuss Voigt Hill
#
# Bulk Modulus (GPa) = 53.16162 60.25420 56.70791
# Shear Modulus (GPa) = -1.67580 14.61606 6.47013
#
# Velocity S-wave (km/s) = -1.10416 3.26089 2.16959
# Velocity P-wave (km/s) = 6.08690 7.61667 6.89435
#
# Compressibility (1/GPa) = 0.01881056
#
# Stress axis : x y z
#
# Youngs Moduli (GPa) = -1.25362 -1.25362 81.15870
#
# Poissons Ratio (x) = 1.01862 0.47096
# Poissons Ratio (y) = 1.01862 0.47096
# Poissons Ratio (z) = -0.00727 -0.00727
#
# Static dielectric constant tensor:
#      x y z
#    x 1.438110 0.000000 0.000000 
#    y 0.000000 1.438110 0.000000 
#    z 0.000000 0.000000 1.468910 
# 
# From -- ./inp_files/5048.got.cif
#   From: 2010.05.17/outbox.cif.g08.bks.cpg/sg136_3_cif.got.tgz:5048.got - 2010.05.20 12:54:53.
