data_PCOD9569694
_publ_section_title
;
Structure prediction by ZEFSAII (Michael W. Deem and Ramdas Pophale) SiO2 
 PCOD9569694
Probable space group: P 42/M N M
;
_chemical_formula_sum "Si O2"
_cell_formula_units_Z 88
_cell_length_a 12.688218
_cell_length_b 12.688218
_cell_length_c 28.127173
_cell_angle_alpha 90.000000
_cell_angle_beta 90.000000
_cell_angle_gamma 90.000000
_cell_volume 4528.218221
_symmetry_space_group_name_H-M "P 42/M N M"
_symmetry_group_IT_number 136
_symmetry_cell_setting 'tetragonal'
loop_
_space_group_symop_operation_xyz
x,y,z
1/2-y,1/2+x,1/2+z
-x,-y,z
1/2+y,1/2-x,1/2+z
1/2+x,1/2-y,1/2-z
1/2-x,1/2+y,1/2-z
y,x,-z
-y,-x,-z
-x,-y,-z
1/2+y,1/2-x,1/2-z
x,y,-z
1/2-y,1/2+x,1/2-z
1/2-x,1/2+y,1/2+z
1/2+x,1/2-y,1/2+z
-y,-x,z
y,x,z
loop_
_atom_site_type_symbol
_atom_site_label
_atom_site_fract_x
_atom_site_fract_y
_atom_site_fract_z
Si Si1 0.585495 0.585495 0.557845
Si Si2 0.606377 0.218118 0.096501
Si Si3 0.683776 0.012288 0.944669
Si Si4 0.800569 0.628110 0.694303
Si Si5 0.800364 0.627930 0.109959
Si Si6 0.709288 0.881240 0.206320
O O1 0.500000 0.500000 0.572205
O O2 0.589581 0.589581 0.500000
O O3 0.700521 0.548362 0.573678
O O4 0.688551 0.311450 0.084851
O O5 0.616784 0.118490 0.061436
O O6 0.639335 0.170702 0.147882
O O7 0.484800 0.249790 0.098629
O O8 0.641400 0.912751 0.915966
O O9 0.692027 0.983543 0.000000
O O10 0.690025 0.690025 0.696268
O O11 0.863460 0.660337 0.741799
O O12 0.785328 0.503514 0.693666
O O13 0.723151 0.723151 0.096023
O O14 0.824054 0.639385 0.166080
O O15 0.821890 0.821890 0.205360
#
# Coordination Sequence:
#
# PCOD9569694 Si02
#       6
#     8  16  16  16  16  16
#     4   9  18  34  58  88 123 159 193 241 308 366
#     4  11  23  40  62  89 120 158 207 253 301 363
#     4  11  22  39  62  90 122 157 201 251 302 362
#     4  10  21  37  58  86 118 156 200 247 301 358
#     4  11  24  40  60  89 122 159 205 252 303 363
#     4  10  21  37  58  86 119 156 198 247 302 359
#
# _framework density 19.433693000000002
#
# number of rings (size 3 to 8) (size 9 to 14) (size 15 to 20)
#    0.000    1.545    2.727    2.182    0.000    5.091 
#    0.000    0.000    0.000    6.545    0.000    2.545 
#    0.000    0.000    0.000    0.000    0.000    0.000 
#
# Total GULP energy -491688.302864 kJ/mol
# GULP energy per Si atom -5587.367078 kJ/mol
# Density = 1.938946 g / cm^3
# Si number density = 19.433693 Si / 1000 Ang^3
#
#
#
# Elastic Constant Matrix: (Units=GPa)
#
#
# Indices 1 2 3 4 5 6 
#
# 1 519.0658 -406.0605 1.1703 0.0000 0.0000 0.0000
# 2 -406.0605 519.0658 1.1703 0.0000 0.0000 0.0000
# 3 1.1703 1.1703 51.7491 0.0000 0.0000 0.0000
# 4 0.0000 0.0000 0.0000 19.6570 0.0000 0.0000
# 5 0.0000 0.0000 0.0000 0.0000 19.6570 0.0000
# 6 0.0000 0.0000 0.0000 0.0000 0.0000 9.9934
#
#
#
# Elastic Compliance Matrix: (Units=1/GPa)
#
#
# Indices 1 2 3 4 5 6 
#
# 1 0.004967 0.003886 -0.000200 0.000000 0.000000 0.000000
# 2 0.003886 0.004967 -0.000200 0.000000 0.000000 0.000000
# 3 -0.000200 -0.000200 0.019333 0.000000 0.000000 0.000000
# 4 0.000000 0.000000 0.000000 0.050872 0.000000 0.000000
# 5 0.000000 0.000000 0.000000 0.000000 0.050872 0.000000
# 6 0.000000 0.000000 0.000000 0.000000 0.000000 0.100066
#
#
# Mechanical properties :
#
#
# Convention : Reuss Voigt Hill
#
# Bulk Modulus (GPa) = 27.59476 31.38233 29.48854
# Shear Modulus (GPa) = 21.16975 109.43485 65.30230
#
# Velocity S-wave (km/s) = 3.30408 7.51227 5.80307
# Velocity P-wave (km/s) = 5.36528 9.56185 7.75291
#
# Compressibility (1/GPa) = 0.03623876
#
# Stress axis : x y z
#
# Youngs Moduli (GPa) = 201.32417 201.32417 51.72485
#
# Poissons Ratio (x) = -0.78238 0.01036
# Poissons Ratio (y) = -0.78238 0.01036
# Poissons Ratio (z) = 0.04031 0.04031
#
# Static dielectric constant tensor:
#      x y z
#    x 1.662240 0.000000 0.000000 
#    y 0.000000 1.662240 0.000000 
#    z 0.000000 0.000000 1.685440 
# 
# From -- ./inp_files/9690.got.cif
#   From: 2010.05.17/outbox.cif.g08.bks.cpg/sg136_5_cif.got.tgz:9690.got - 2010.05.20 12:54:53.
