data_PCOD9569891
_publ_section_title
;
Structure prediction by ZEFSAII (Michael W. Deem and Ramdas Pophale) SiO2 
 PCOD9569891
Probable space group: P 42/M N M
;
_chemical_formula_sum "Si O2"
_cell_formula_units_Z 112
_cell_length_a 26.352452
_cell_length_b 26.352452
_cell_length_c 7.516006
_cell_angle_alpha 90.000000
_cell_angle_beta 90.000000
_cell_angle_gamma 90.000000
_cell_volume 5219.503342
_symmetry_space_group_name_H-M "P 42/M N M"
_symmetry_group_IT_number 136
_symmetry_cell_setting 'tetragonal'
loop_
_space_group_symop_operation_xyz
x,y,z
1/2-y,1/2+x,1/2+z
-x,-y,z
1/2+y,1/2-x,1/2+z
1/2+x,1/2-y,1/2-z
1/2-x,1/2+y,1/2-z
y,x,-z
-y,-x,-z
-x,-y,-z
1/2+y,1/2-x,1/2-z
x,y,-z
1/2-y,1/2+x,1/2-z
1/2-x,1/2+y,1/2+z
1/2+x,1/2-y,1/2+z
-y,-x,z
y,x,z
loop_
_atom_site_type_symbol
_atom_site_label
_atom_site_fract_x
_atom_site_fract_y
_atom_site_fract_z
Si Si1 0.679796 0.182427 0.705423
Si Si2 0.555161 0.361970 0.717836
Si Si3 0.108546 0.583477 0.708081
Si Si4 0.088539 0.744450 0.790347
Si Si5 0.653064 0.019458 0.204669
Si Si6 0.561154 0.643517 0.282102
Si Si7 0.717458 0.368247 0.703789
O O1 0.693433 0.192579 0.500000
O O2 0.629420 0.148256 0.716237
O O3 0.724312 0.146167 0.774319
O O4 0.661762 0.235553 0.787785
O O5 0.556626 0.360690 0.500000
O O6 0.590816 0.409184 0.772282
O O7 0.496946 0.366059 0.772043
O O8 0.581514 0.309232 0.779329
O O9 0.096465 0.574140 0.500000
O O10 0.057876 0.605610 0.793773
O O11 0.134409 0.533288 0.785565
O O12 0.050537 0.700841 0.716219
O O13 0.078873 0.800696 0.720562
O O14 0.077953 0.746734 0.000000
O O15 0.666794 0.007619 0.000000
O O16 0.561795 0.643429 0.500000
O O17 0.599988 0.599988 0.224154
O O18 0.733499 0.381198 0.500000
O O19 0.671530 0.328471 0.694752
#
# Coordination Sequence:
#
# PCOD9569891 Si02
#       7
#    16  16  16  16  16  16  16
#     4   9  17  29  46  66  89 116 150 190 226 261
#     4   8  14  24  39  63  94 122 150 189 233 273
#     4   9  18  30  44  63  84 110 147 185 220 261
#     4   9  18  31  45  63  92 124 153 183 220 269
#     4   9  18  31  45  62  84 114 148 181 222 267
#     4   9  17  27  41  63  90 124 160 187 220 272
#     4   8  14  24  40  64  88 110 142 184 227 264
#
# _framework density 21.457981
#
# number of rings (size 3 to 8) (size 9 to 14) (size 15 to 20)
#    0.000    3.286    0.000    0.857    2.000    1.714 
#    0.000    2.857    0.000    0.000    0.000    0.000 
#    0.000    1.714    0.000    1.286    0.000    1.429 
#
# Total GULP energy -624026.212855 kJ/mol
# GULP energy per Si atom -5571.662615 kJ/mol
# Density = 2.140914 g / cm^3
# Si number density = 21.457981 Si / 1000 Ang^3
#
#
#
# Elastic Constant Matrix: (Units=GPa)
#
#
# Indices 1 2 3 4 5 6 
#
# 1 127.0773 81.3516 4.4146 0.0000 0.0000 0.0000
# 2 81.3516 127.0773 4.4146 0.0000 0.0000 0.0000
# 3 4.4146 4.4146 51.5277 0.0000 0.0000 0.0000
# 4 0.0000 0.0000 0.0000 -8.0486 0.0000 0.0000
# 5 0.0000 0.0000 0.0000 0.0000 -8.0486 0.0000
# 6 0.0000 0.0000 0.0000 0.0000 0.0000 7.9703
#
#
#
# Elastic Compliance Matrix: (Units=1/GPa)
#
#
# Indices 1 2 3 4 5 6 
#
# 1 0.013342 -0.008527 -0.000413 0.000000 0.000000 0.000000
# 2 -0.008527 0.013342 -0.000413 0.000000 0.000000 0.000000
# 3 -0.000413 -0.000413 0.019478 0.000000 0.000000 0.000000
# 4 0.000000 0.000000 0.000000 -0.124246 0.000000 0.000000
# 5 0.000000 0.000000 0.000000 0.000000 -0.124246 0.000000
# 6 0.000000 0.000000 0.000000 0.000000 0.000000 0.125466
#
#
# Mechanical properties :
#
#
# Convention : Reuss Voigt Hill
#
# Bulk Modulus (GPa) = 36.41914 54.00487 45.21201
# Shear Modulus (GPa) = -102.03011 12.74140 -44.64435
#
# Velocity S-wave (km/s) = -6.90304 2.43941 -4.56625
# Velocity P-wave (km/s) = 6.82106 5.75818 2.58556
#
# Compressibility (1/GPa) = 0.02745809
#
# Stress axis : x y z
#
# Youngs Moduli (GPa) = 74.94904 74.94904 51.34074
#
# Poissons Ratio (x) = 0.63910 0.02118
# Poissons Ratio (y) = 0.63910 0.02118
# Poissons Ratio (z) = 0.03092 0.03092
#
# Static dielectric constant tensor:
#      x y z
#    x 1.774590 0.000000 0.000000 
#    y 0.000000 1.774590 0.000000 
#    z 0.000000 0.000000 1.855570 
# 
# From -- ./inp_files/3993.got.cif
#   From: 2010.05.17/outbox.cif.g08.bks.cpg/sg136_2_cif.got.tgz:3993.got - 2010.05.20 12:54:53.
