data_PCOD9569449
_publ_section_title
;
Structure prediction by ZEFSAII (Michael W. Deem and Ramdas Pophale) SiO2 
 PCOD9569449
Probable space group: P 42/M N M
;
_chemical_formula_sum "Si O2"
_cell_formula_units_Z 96
_cell_length_a 17.515814
_cell_length_b 17.515814
_cell_length_c 17.202899
_cell_angle_alpha 90.000000
_cell_angle_beta 90.000000
_cell_angle_gamma 90.000000
_cell_volume 5277.913753
_symmetry_space_group_name_H-M "P 42/M N M"
_symmetry_group_IT_number 136
_symmetry_cell_setting 'tetragonal'
loop_
_space_group_symop_operation_xyz
x,y,z
1/2-y,1/2+x,1/2+z
-x,-y,z
1/2+y,1/2-x,1/2+z
1/2+x,1/2-y,1/2-z
1/2-x,1/2+y,1/2-z
y,x,-z
-y,-x,-z
-x,-y,-z
1/2+y,1/2-x,1/2-z
x,y,-z
1/2-y,1/2+x,1/2-z
1/2-x,1/2+y,1/2+z
1/2+x,1/2-y,1/2+z
-y,-x,z
y,x,z
loop_
_atom_site_type_symbol
_atom_site_label
_atom_site_fract_x
_atom_site_fract_y
_atom_site_fract_z
Si Si1 0.729628 0.395567 0.214510
Si Si2 0.494792 0.821818 0.908974
Si Si3 0.121918 0.000731 0.818359
Si Si4 0.770200 0.110185 0.907663
Si Si5 0.385584 0.878228 0.683435
Si Si6 0.554110 0.889218 0.649723
O O1 0.676748 0.323253 0.194567
O O2 0.768764 0.437925 0.141574
O O3 0.675251 0.458325 0.255569
O O4 0.795686 0.372818 0.276935
O O5 0.578794 0.823776 0.869747
O O6 0.458783 0.906336 0.894713
O O7 0.496006 0.803965 0.000000
O O8 0.064933 0.935068 0.786274
O O9 0.175766 0.958826 0.879874
O O10 0.066441 0.066441 0.851759
O O11 0.812545 0.187456 0.881506
O O12 0.687267 0.098767 0.873294
O O13 0.764977 0.110931 0.000000
O O14 0.464990 0.875896 0.636668
O O15 0.397261 0.933074 0.758080
#
# Coordination Sequence:
#
# PCOD9569449 Si02
#       6
#    16  16  16  16  16  16
#     4  10  21  39  62  87 116 155 200 248 300 353
#     4  11  24  37  57  87 117 152 193 240 298 354
#     4   9  17  33  58  85 111 147 198 243 285 346
#     4  10  20  33  51  81 119 150 181 231 293 346
#     4  11  20  36  58  80 110 151 191 241 283 344
#     4  11  20  35  56  80 110 149 194 237 277 337
#
# _framework density 18.189004000000001
#
# number of rings (size 3 to 8) (size 9 to 14) (size 15 to 20)
#    0.000    1.667    5.000    1.000    0.000    5.333 
#    0.000    2.500    0.000    2.000    0.000    2.333 
#    0.000    0.000    0.000    0.000    0.000    0.000 
#
# Total GULP energy -535299.009296 kJ/mol
# GULP energy per Si atom -5576.031347 kJ/mol
# Density = 1.814761 g / cm^3
# Si number density = 18.189004 Si / 1000 Ang^3
#
#
#
# Elastic Constant Matrix: (Units=GPa)
#
#
# Indices 1 2 3 4 5 6 
#
# 1 81.3517 47.9069 37.5922 0.0000 0.0000 0.0000
# 2 47.9069 81.3517 37.5922 0.0000 0.0000 0.0000
# 3 37.5922 37.5922 68.6341 0.0000 0.0000 0.0000
# 4 0.0000 0.0000 0.0000 13.0272 0.0000 0.0000
# 5 0.0000 0.0000 0.0000 0.0000 13.0272 0.0000
# 6 0.0000 0.0000 0.0000 0.0000 0.0000 19.0009
#
#
#
# Elastic Compliance Matrix: (Units=1/GPa)
#
#
# Indices 1 2 3 4 5 6 
#
# 1 0.020627 -0.009273 -0.006219 0.000000 0.000000 0.000000
# 2 -0.009273 0.020627 -0.006219 0.000000 0.000000 0.000000
# 3 -0.006219 -0.006219 0.021382 0.000000 0.000000 0.000000
# 4 0.000000 0.000000 0.000000 0.076763 0.000000 0.000000
# 5 0.000000 0.000000 0.000000 0.000000 0.076763 0.000000
# 6 0.000000 0.000000 0.000000 0.000000 0.000000 0.052629
#
#
# Mechanical properties :
#
#
# Convention : Reuss Voigt Hill
#
# Bulk Modulus (GPa) = 52.04288 53.05776 52.55032
# Shear Modulus (GPa) = 15.69288 16.22745 15.96016
#
# Velocity S-wave (km/s) = 2.94048 2.99014 2.96541
# Velocity P-wave (km/s) = 6.34058 6.41520 6.37800
#
# Compressibility (1/GPa) = 0.01921492
#
# Stress axis : x y z
#
# Youngs Moduli (GPa) = 48.48073 48.48073 46.76828
#
# Poissons Ratio (x) = 0.44957 0.29083
# Poissons Ratio (y) = 0.44957 0.29083
# Poissons Ratio (z) = 0.30148 0.30148
#
# Static dielectric constant tensor:
#      x y z
#    x 1.656020 0.000000 0.000000 
#    y 0.000000 1.656020 0.000000 
#    z 0.000000 0.000000 1.596600 
# 
# From -- ./inp_files/6301.got.cif
#   From: 2010.05.17/outbox.cif.g08.bks.cpg/sg136_4_cif.got.tgz:6301.got - 2010.05.20 12:54:53.
