data_PCOD9569324
_publ_section_title
;
Structure prediction by ZEFSAII (Michael W. Deem and Ramdas Pophale) SiO2 
 PCOD9569324
Probable space group: P 42/M N M
;
_chemical_formula_sum "Si O2"
_cell_formula_units_Z 96
_cell_length_a 25.263653
_cell_length_b 25.263653
_cell_length_c 8.152264
_cell_angle_alpha 90.000000
_cell_angle_beta 90.000000
_cell_angle_gamma 90.000000
_cell_volume 5203.200131
_symmetry_space_group_name_H-M "P 42/M N M"
_symmetry_group_IT_number 136
_symmetry_cell_setting 'tetragonal'
loop_
_space_group_symop_operation_xyz
x,y,z
1/2-y,1/2+x,1/2+z
-x,-y,z
1/2+y,1/2-x,1/2+z
1/2+x,1/2-y,1/2-z
1/2-x,1/2+y,1/2-z
y,x,-z
-y,-x,-z
-x,-y,-z
1/2+y,1/2-x,1/2-z
x,y,-z
1/2-y,1/2+x,1/2-z
1/2-x,1/2+y,1/2+z
1/2+x,1/2-y,1/2+z
-y,-x,z
y,x,z
loop_
_atom_site_type_symbol
_atom_site_label
_atom_site_fract_x
_atom_site_fract_y
_atom_site_fract_z
Si Si1 0.699058 0.916957 0.802536
Si Si2 0.371451 0.371451 0.183204
Si Si3 0.279349 0.972136 0.691319
Si Si4 0.337435 0.481546 0.689113
Si Si5 0.289606 0.289606 0.690294
Si Si6 0.903896 0.820580 0.799859
Si Si7 0.689324 0.143126 0.196237
O O1 0.759644 0.904847 0.748461
O O2 0.664421 0.868767 0.737237
O O3 0.686728 0.975930 0.737289
O O4 0.697042 0.917706 0.000000
O O5 0.432842 0.360595 0.212546
O O6 0.334839 0.334839 0.297426
O O7 0.355984 0.355984 0.000000
O O8 0.264819 0.975370 0.500000
O O9 0.226072 0.976073 0.798663
O O10 0.303508 0.914901 0.727033
O O11 0.354136 0.476727 0.500000
O O12 0.347976 0.540932 0.750086
O O13 0.278154 0.278154 0.500000
O O14 0.316266 0.235583 0.758451
O O15 0.853549 0.853549 0.743326
O O16 0.904169 0.820396 0.000000
O O17 0.696073 0.138403 0.000000
#
# Coordination Sequence:
#
# PCOD9569324 Si02
#       7
#    16   8  16  16   8  16  16
#     4  10  21  36  57  84 114 149 186 227 276 330
#     4  12  22  32  51  77 106 141 186 230 279 337
#     4  11  21  36  57  81 110 146 189 229 273 334
#     4  10  19  33  53  75 104 140 182 231 284 333
#     4  10  22  36  54  79 117 152 180 224 287 332
#     4   8  16  32  53  76 102 138 183 228 272 325
#     4  11  22  37  57  84 118 151 185 230 280 331
#
# _framework density 18.450184
#
# number of rings (size 3 to 8) (size 9 to 14) (size 15 to 20)
#    0.000    1.833    1.667    4.750    1.167    0.667 
#    0.000    0.417    0.000   13.000    0.000    3.500 
#    0.000    0.000    0.000    0.000    0.000    0.000 
#
# Total GULP energy -535578.224210 kJ/mol
# GULP energy per Si atom -5578.939836 kJ/mol
# Density = 1.840819 g / cm^3
# Si number density = 18.450184 Si / 1000 Ang^3
#
#
#
# Elastic Constant Matrix: (Units=GPa)
#
#
# Indices 1 2 3 4 5 6 
#
# 1 85.9087 50.6205 0.9901 0.0000 0.0000 0.0000
# 2 50.6205 85.9087 0.9901 0.0000 0.0000 0.0000
# 3 0.9901 0.9901 39.4871 0.0000 0.0000 0.0000
# 4 0.0000 0.0000 0.0000 17.1262 0.0000 0.0000
# 5 0.0000 0.0000 0.0000 0.0000 17.1262 0.0000
# 6 0.0000 0.0000 0.0000 0.0000 0.0000 25.6845
#
#
#
# Elastic Compliance Matrix: (Units=1/GPa)
#
#
# Indices 1 2 3 4 5 6 
#
# 1 0.017833 -0.010505 -0.000184 0.000000 0.000000 0.000000
# 2 -0.010505 0.017833 -0.000184 0.000000 0.000000 0.000000
# 3 -0.000184 -0.000184 0.025334 0.000000 0.000000 0.000000
# 4 0.000000 0.000000 0.000000 0.058390 0.000000 0.000000
# 5 0.000000 0.000000 0.000000 0.000000 0.058390 0.000000
# 6 0.000000 0.000000 0.000000 0.000000 0.000000 0.038934
#
#
# Mechanical properties :
#
#
# Convention : Reuss Voigt Hill
#
# Bulk Modulus (GPa) = 25.47557 35.16733 30.32145
# Shear Modulus (GPa) = 19.87726 22.56763 21.22245
#
# Velocity S-wave (km/s) = 3.28586 3.50117 3.39522
# Velocity P-wave (km/s) = 5.31353 5.95368 5.64269
#
# Compressibility (1/GPa) = 0.03925329
#
# Stress axis : x y z
#
# Youngs Moduli (GPa) = 56.07710 56.07710 39.47271
#
# Poissons Ratio (x) = 0.58912 0.00725
# Poissons Ratio (y) = 0.58912 0.00725
# Poissons Ratio (z) = 0.01030 0.01030
#
# Static dielectric constant tensor:
#      x y z
#    x 1.632360 0.000000 0.000000 
#    y 0.000000 1.632360 0.000000 
#    z 0.000000 0.000000 1.650350 
# 
# From -- ./inp_files/2055.got.cif
#   From: 2010.05.17/outbox.cif.g08.bks.cpg/sg136_2_cif.got.tgz:2055.got - 2010.05.20 12:54:53.
