data_PCOD9569673
_publ_section_title
;
Structure prediction by ZEFSAII (Michael W. Deem and Ramdas Pophale) SiO2 
 PCOD9569673
Probable space group: P 42/M N M
;
_chemical_formula_sum "Si O2"
_cell_formula_units_Z 96
_cell_length_a 14.821470
_cell_length_b 14.821470
_cell_length_c 21.396486
_cell_angle_alpha 90.000000
_cell_angle_beta 90.000000
_cell_angle_gamma 90.000000
_cell_volume 4700.293880
_symmetry_space_group_name_H-M "P 42/M N M"
_symmetry_group_IT_number 136
_symmetry_cell_setting 'tetragonal'
loop_
_space_group_symop_operation_xyz
x,y,z
1/2-y,1/2+x,1/2+z
-x,-y,z
1/2+y,1/2-x,1/2+z
1/2+x,1/2-y,1/2-z
1/2-x,1/2+y,1/2-z
y,x,-z
-y,-x,-z
-x,-y,-z
1/2+y,1/2-x,1/2-z
x,y,-z
1/2-y,1/2+x,1/2-z
1/2-x,1/2+y,1/2+z
1/2+x,1/2-y,1/2+z
-y,-x,z
y,x,z
loop_
_atom_site_type_symbol
_atom_site_label
_atom_site_fract_x
_atom_site_fract_y
_atom_site_fract_z
Si Si1 0.533615 0.322564 0.665618
Si Si2 0.574002 0.574002 0.075131
Si Si3 0.734725 0.113911 0.243248
Si Si4 0.685887 0.922134 0.070042
Si Si5 0.941869 0.279269 0.615692
Si Si6 0.922387 0.077614 0.069409
Si Si7 0.921815 0.570599 0.353932
O O1 0.589386 0.410615 0.682038
O O2 0.476688 0.288439 0.723317
O O3 0.595290 0.253431 0.627804
O O4 0.462606 0.343571 0.610617
O O5 0.500000 0.500000 0.095713
O O6 0.674770 0.549729 0.098452
O O7 0.575138 0.575138 0.000000
O O8 0.798569 0.201432 0.231638
O O9 0.714370 0.103582 0.315842
O O10 0.645724 0.103936 0.200409
O O11 0.621686 0.835460 0.069453
O O12 0.630943 0.010663 0.094039
O O13 0.724531 0.934647 0.000000
O O14 0.031924 0.339740 0.619255
O O15 0.896894 0.103107 0.000000
O O16 0.000000 0.000000 0.066048
O O17 0.000000 0.500000 0.331537
#
# Coordination Sequence:
#
# PCOD9569673 Si02
#       7
#    16   8  16  16  16   8  16
#     4  10  21  36  57  90 129 171 207 253 314 380
#     4  11  26  47  67  89 121 167 230 287 331 377
#     4  11  23  40  61  93 130 168 219 259 314 394
#     4  10  22  40  65  99 131 164 212 264 324 395
#     4  11  24  42  64  92 125 167 210 271 327 381
#     4   9  16  29  51  79 117 162 199 233 294 370
#     4   9  23  40  68  97 131 169 210 264 330 393
#
# _framework density 20.424254000000001
#
# number of rings (size 3 to 8) (size 9 to 14) (size 15 to 20)
#    0.000    1.833    1.667    1.000    8.167    6.000 
#    0.000    0.000    0.000    0.000    0.000    0.000 
#    0.000    0.000    0.000    0.000    0.000    0.000 
#
# Total GULP energy -535416.302658 kJ/mol
# GULP energy per Si atom -5577.253153 kJ/mol
# Density = 2.037777 g / cm^3
# Si number density = 20.424254 Si / 1000 Ang^3
#
#
#
# Elastic Constant Matrix: (Units=GPa)
#
#
# Indices 1 2 3 4 5 6 
#
# 1 67.0788 59.1969 11.8564 0.0000 0.0000 0.0000
# 2 59.1969 67.0789 11.8564 0.0000 0.0000 0.0000
# 3 11.8564 11.8564 86.8805 0.0000 0.0000 0.0000
# 4 0.0000 0.0000 0.0000 -0.1805 0.0000 0.0000
# 5 0.0000 0.0000 0.0000 0.0000 -0.1797 0.0000
# 6 0.0000 0.0000 0.0000 0.0000 0.0000 35.5305
#
#
#
# Elastic Compliance Matrix: (Units=1/GPa)
#
#
# Indices 1 2 3 4 5 6 
#
# 1 0.067499 -0.059372 -0.001109 0.000000 0.000000 0.000000
# 2 -0.059372 0.067499 -0.001109 0.000000 0.000000 0.000000
# 3 -0.001109 -0.001109 0.011813 0.000000 0.000000 0.000000
# 4 0.000000 0.000000 0.000000 -5.539381 0.000000 0.000000
# 5 0.000000 0.000000 0.000000 0.000000 -5.563383 0.000000
# 6 0.000000 0.000000 0.000000 0.000000 0.000000 0.028145
#
#
# Mechanical properties :
#
#
# Convention : Reuss Voigt Hill
#
# Bulk Modulus (GPa) = 42.31701 42.98416 42.65058
# Shear Modulus (GPa) = -0.46310 16.24262 7.88976
#
# Velocity S-wave (km/s) = -0.47669 2.82310 1.96757
# Velocity P-wave (km/s) = 4.52338 5.63186 5.10778
#
# Compressibility (1/GPa) = 0.02363116
#
# Stress axis : x y z
#
# Youngs Moduli (GPa) = 14.81494 14.81496 84.65403
#
# Poissons Ratio (x) = 0.87959 0.09389
# Poissons Ratio (y) = 0.87959 0.09389
# Poissons Ratio (z) = 0.01643 0.01643
#
# Static dielectric constant tensor:
#      x y z
#    x 1.451630 0.000000 0.000000 
#    y 0.000000 1.451610 0.000000 
#    z 0.000000 0.000000 1.712340 
# 
# From -- ./inp_files/7539.got.cif
#   From: 2010.05.17/outbox.cif.g08.bks.cpg/sg136_4_cif.got.tgz:7539.got - 2010.05.20 12:54:53.
