data_PCOD9569264
_publ_section_title
;
Structure prediction by ZEFSAII (Michael W. Deem and Ramdas Pophale) SiO2 
 PCOD9569264
Probable space group: P 42/M N M
;
_chemical_formula_sum "Si O2"
_cell_formula_units_Z 96
_cell_length_a 25.428319
_cell_length_b 25.428319
_cell_length_c 9.204354
_cell_angle_alpha 90.000000
_cell_angle_beta 90.000000
_cell_angle_gamma 90.000000
_cell_volume 5951.529840
_symmetry_space_group_name_H-M "P 42/M N M"
_symmetry_group_IT_number 136
_symmetry_cell_setting 'tetragonal'
loop_
_space_group_symop_operation_xyz
x,y,z
1/2-y,1/2+x,1/2+z
-x,-y,z
1/2+y,1/2-x,1/2+z
1/2+x,1/2-y,1/2-z
1/2-x,1/2+y,1/2-z
y,x,-z
-y,-x,-z
-x,-y,-z
1/2+y,1/2-x,1/2-z
x,y,-z
1/2-y,1/2+x,1/2-z
1/2-x,1/2+y,1/2+z
1/2+x,1/2-y,1/2+z
-y,-x,z
y,x,z
loop_
_atom_site_type_symbol
_atom_site_label
_atom_site_fract_x
_atom_site_fract_y
_atom_site_fract_z
Si Si1 0.423598 0.423598 0.323743
Si Si2 0.083625 0.626580 0.325752
Si Si3 0.463641 0.622556 0.675447
Si Si4 0.269188 0.516865 0.826525
Si Si5 0.663161 0.663161 0.673549
Si Si6 0.150385 0.536479 0.175123
Si Si7 0.605669 0.754190 0.827576
O O1 0.424564 0.424564 0.500000
O O2 0.405424 0.481641 0.277267
O O3 0.380397 0.380397 0.279668
O O4 0.086113 0.619636 0.500000
O O5 0.115115 0.580873 0.247154
O O6 0.107374 0.684079 0.292325
O O7 0.021937 0.629930 0.285307
O O8 0.465154 0.627004 0.500000
O O9 0.415018 0.584983 0.714484
O O10 0.461188 0.680262 0.744408
O O11 0.212164 0.539904 0.783487
O O12 0.264803 0.454148 0.798899
O O13 0.275120 0.523847 0.000000
O O14 0.664194 0.664194 0.500000
O O15 0.644774 0.718469 0.737203
O O16 0.148189 0.540128 0.000000
O O17 0.614996 0.748018 0.000000
#
# Coordination Sequence:
#
# PCOD9569264 Si02
#       7
#     8  16  16  16   8  16  16
#     4   9  17  29  44  69 103 131 159 205 255 293
#     4   9  19  35  54  78 105 135 167 201 247 302
#     4  10  19  31  48  70  99 134 169 207 252 299
#     4   9  18  33  51  70  96 131 166 203 247 294
#     4  11  19  28  49  77 100 128 170 215 255 298
#     4   9  19  35  54  77 105 133 163 203 251 298
#     4   9  18  33  51  71  99 132 165 203 251 299
#
# _framework density 16.130306000000001
#
# number of rings (size 3 to 8) (size 9 to 14) (size 15 to 20)
#    0.000    2.667    1.667    2.500    0.000    3.667 
#    0.000    5.417    1.833    1.000    0.000    0.000 
#    0.000    0.000    0.000    0.000    0.000    0.000 
#
# Total GULP energy -535166.954086 kJ/mol
# GULP energy per Si atom -5574.655772 kJ/mol
# Density = 1.609359 g / cm^3
# Si number density = 16.130306 Si / 1000 Ang^3
#
#
#
# Elastic Constant Matrix: (Units=GPa)
#
#
# Indices 1 2 3 4 5 6 
#
# 1 129.5313 101.5857 53.0668 0.0000 0.0000 0.0000
# 2 101.5857 129.5313 53.0668 0.0000 0.0000 0.0000
# 3 53.0668 53.0668 29.4881 0.0000 0.0000 0.0000
# 4 0.0000 0.0000 0.0000 29.4721 0.0000 0.0000
# 5 0.0000 0.0000 0.0000 0.0000 29.4721 0.0000
# 6 0.0000 0.0000 0.0000 0.0000 0.0000 27.7977
#
#
#
# Elastic Compliance Matrix: (Units=1/GPa)
#
#
# Indices 1 2 3 4 5 6 
#
# 1 0.030355 -0.005429 -0.044857 0.000000 0.000000 0.000000
# 2 -0.005429 0.030355 -0.044857 0.000000 0.000000 0.000000
# 3 -0.044857 -0.044857 0.195360 0.000000 0.000000 0.000000
# 4 0.000000 0.000000 0.000000 0.033930 0.000000 0.000000
# 5 0.000000 0.000000 0.000000 0.000000 0.033930 0.000000
# 6 0.000000 0.000000 0.000000 0.000000 0.000000 0.035974
#
#
# Mechanical properties :
#
#
# Convention : Reuss Voigt Hill
#
# Bulk Modulus (GPa) = 15.20098 78.22104 46.71101
# Shear Modulus (GPa) = 8.73945 22.73713 15.73829
#
# Velocity S-wave (km/s) = 2.33019 3.75852 3.12700
# Velocity P-wave (km/s) = 4.08461 8.21181 6.48529
#
# Compressibility (1/GPa) = 0.06578522
#
# Stress axis : x y z
#
# Youngs Moduli (GPa) = 32.94363 32.94363 5.11875
#
# Poissons Ratio (x) = 0.17885 0.22961
# Poissons Ratio (y) = 0.17885 0.22961
# Poissons Ratio (z) = 1.47774 1.47774
#
# Static dielectric constant tensor:
#      x y z
#    x 1.526680 0.000000 0.000000 
#    y 0.000000 1.526680 0.000000 
#    z 0.000000 0.000000 1.534160 
# 
# From -- ./inp_files/2072.got.cif
#   From: 2010.05.17/outbox.cif.g08.bks.cpg/sg136_2_cif.got.tgz:2072.got - 2010.05.20 12:54:53.
