data_PCOD9569799
_publ_section_title
;
Structure prediction by ZEFSAII (Michael W. Deem and Ramdas Pophale) SiO2 
 PCOD9569799
Probable space group: P 42/M N M
;
_chemical_formula_sum "Si O2"
_cell_formula_units_Z 88
_cell_length_a 16.419267
_cell_length_b 16.419267
_cell_length_c 21.592045
_cell_angle_alpha 90.000000
_cell_angle_beta 90.000000
_cell_angle_gamma 90.000000
_cell_volume 5821.049695
_symmetry_space_group_name_H-M "P 42/M N M"
_symmetry_group_IT_number 136
_symmetry_cell_setting 'tetragonal'
loop_
_space_group_symop_operation_xyz
x,y,z
1/2-y,1/2+x,1/2+z
-x,-y,z
1/2+y,1/2-x,1/2+z
1/2+x,1/2-y,1/2-z
1/2-x,1/2+y,1/2-z
y,x,-z
-y,-x,-z
-x,-y,-z
1/2+y,1/2-x,1/2-z
x,y,-z
1/2-y,1/2+x,1/2-z
1/2-x,1/2+y,1/2+z
1/2+x,1/2-y,1/2+z
-y,-x,z
y,x,z
loop_
_atom_site_type_symbol
_atom_site_label
_atom_site_fract_x
_atom_site_fract_y
_atom_site_fract_z
Si Si1 0.241896 0.895083 0.711263
Si Si2 0.934129 0.065872 0.075139
Si Si3 0.583286 0.283885 0.209068
Si Si4 0.795205 0.659511 0.346792
Si Si5 0.226520 0.638841 0.345713
Si Si6 0.750330 0.517688 0.573936
O O1 0.165260 0.834741 0.705264
O O2 0.273442 0.884876 0.781943
O O3 0.312655 0.856931 0.668090
O O4 0.217482 0.987384 0.698819
O O5 0.960553 0.156814 0.093577
O O6 0.935031 0.064970 0.000000
O O7 0.000000 0.000000 0.097444
O O8 0.630725 0.369276 0.199942
O O9 0.627968 0.217015 0.166266
O O10 0.602542 0.255982 0.279618
O O11 0.720409 0.720409 0.361242
O O12 0.802939 0.592015 0.399223
O O13 0.294338 0.705662 0.364243
O O14 0.223659 0.566453 0.394583
O O15 0.753022 0.513066 0.500000
#
# Coordination Sequence:
#
# PCOD9569799 Si02
#       6
#    16   8  16  16  16  16
#     4   9  17  31  50  69  93 125 162 207 248 284
#     4   9  18  28  40  66 102 136 167 191 214 262
#     4   9  17  30  50  71  93 123 162 209 248 282
#     4   9  17  30  46  67  98 132 164 195 235 286
#     4   9  18  31  46  67  98 133 165 194 236 290
#     4  11  19  29  47  70 100 135 164 192 229 281
#
# _framework density 15.117547999999999
#
# number of rings (size 3 to 8) (size 9 to 14) (size 15 to 20)
#    0.000    2.636    2.727    2.727    0.000    1.455 
#    0.000    0.909    0.000    2.182    0.000    0.000 
#    0.000    0.000    0.000    8.000    0.000    0.000 
#
# Total GULP energy -490251.327302 kJ/mol
# GULP energy per Si atom -5571.037810 kJ/mol
# Density = 1.508314 g / cm^3
# Si number density = 15.117548 Si / 1000 Ang^3
#
#
#
# Elastic Constant Matrix: (Units=GPa)
#
#
# Indices 1 2 3 4 5 6 
#
# 1 99.6826 43.7398 33.9362 0.0000 0.0000 0.0000
# 2 43.7398 99.6826 33.9361 0.0000 0.0000 0.0000
# 3 33.9362 33.9361 55.3651 0.0000 0.0000 0.0000
# 4 0.0000 0.0000 0.0000 19.3377 0.0000 0.0000
# 5 0.0000 0.0000 0.0000 0.0000 19.3376 0.0000
# 6 0.0000 0.0000 0.0000 0.0000 0.0000 9.8572
#
#
#
# Elastic Compliance Matrix: (Units=1/GPa)
#
#
# Indices 1 2 3 4 5 6 
#
# 1 0.013848 -0.004027 -0.006020 0.000000 0.000000 0.000000
# 2 -0.004027 0.013848 -0.006020 0.000000 0.000000 0.000000
# 3 -0.006020 -0.006020 0.025442 0.000000 0.000000 0.000000
# 4 0.000000 0.000000 0.000000 0.051713 0.000000 0.000000
# 5 0.000000 0.000000 0.000000 0.000000 0.051713 0.000000
# 6 0.000000 0.000000 0.000000 0.000000 0.000000 0.101449
#
#
# Mechanical properties :
#
#
# Convention : Reuss Voigt Hill
#
# Bulk Modulus (GPa) = 47.60887 53.10605 50.35746
# Shear Modulus (GPa) = 16.82665 19.24772 18.03718
#
# Velocity S-wave (km/s) = 3.33987 3.57207 3.45792
# Velocity P-wave (km/s) = 6.81423 7.22620 7.02324
#
# Compressibility (1/GPa) = 0.02100449
#
# Stress axis : x y z
#
# Youngs Moduli (GPa) = 72.21083 72.21095 39.30542
#
# Poissons Ratio (x) = 0.29080 0.23662
# Poissons Ratio (y) = 0.29080 0.23662
# Poissons Ratio (z) = 0.43471 0.43470
#
# Static dielectric constant tensor:
#      x y z
#    x 1.501530 0.000000 0.000000 
#    y 0.000000 1.501530 0.000000 
#    z 0.000000 0.000000 1.492080 
# 
# From -- ./inp_files/8297.got.cif
#   From: 2010.05.17/outbox.cif.g08.bks.cpg/sg136_5_cif.got.tgz:8297.got - 2010.05.20 12:54:53.
