data_PCOD9569461
_publ_section_title
;
Structure prediction by ZEFSAII (Michael W. Deem and Ramdas Pophale) SiO2 
 PCOD9569461
Probable space group: P 42/M N M
;
_chemical_formula_sum "Si O2"
_cell_formula_units_Z 98
_cell_length_a 15.190950
_cell_length_b 15.190950
_cell_length_c 24.772228
_cell_angle_alpha 90.000000
_cell_angle_beta 90.000000
_cell_angle_gamma 90.000000
_cell_volume 5716.562251
_symmetry_space_group_name_H-M "P 42/M N M"
_symmetry_group_IT_number 136
_symmetry_cell_setting 'tetragonal'
loop_
_space_group_symop_operation_xyz
x,y,z
1/2-y,1/2+x,1/2+z
-x,-y,z
1/2+y,1/2-x,1/2+z
1/2+x,1/2-y,1/2-z
1/2-x,1/2+y,1/2-z
y,x,-z
-y,-x,-z
-x,-y,-z
1/2+y,1/2-x,1/2-z
x,y,-z
1/2-y,1/2+x,1/2-z
1/2-x,1/2+y,1/2+z
1/2+x,1/2-y,1/2+z
-y,-x,z
y,x,z
loop_
_atom_site_type_symbol
_atom_site_label
_atom_site_fract_x
_atom_site_fract_y
_atom_site_fract_z
Si Si1 0.220329 0.364936 0.347517
Si Si2 0.768468 0.463600 0.857411
Si Si3 0.428377 0.571624 0.434518
Si Si4 0.567848 0.432153 0.887630
Si Si5 0.472241 0.144560 0.750256
Si Si6 0.090752 0.449873 0.064430
Si Si7 0.508669 0.235356 0.435554
Si Si8 0.500000 0.500000 0.000000
O O1 0.307604 0.307604 0.338806
O O2 0.136404 0.301387 0.350900
O O3 0.198718 0.433487 0.299759
O O4 0.224075 0.419018 0.402979
O O5 0.666364 0.458888 0.871678
O O6 0.793925 0.512235 0.801807
O O7 0.828033 0.510095 0.903207
O O8 0.500000 0.500000 0.415326
O O9 0.430724 0.569277 0.500000
O O10 0.452208 0.670672 0.418880
O O11 0.500000 0.500000 0.860372
O O12 0.553148 0.446853 0.951580
O O13 0.564762 0.095860 0.737038
O O14 0.000000 0.500000 0.080017
O O15 0.072617 0.347052 0.075775
O O16 0.102514 0.461268 0.000000
O O17 0.493047 0.235361 0.500000
#
# Coordination Sequence:
#
# PCOD9569461 Si02
#       8
#    16  16   8   8  16  16  16   2
#     4  11  21  35  58  89 118 144 195 248 293 351
#     4  11  21  38  62  83 114 157 193 242 309 345
#     4   9  18  34  54  74 116 163 192 219 271 350
#     4  10  24  44  61  81 116 159 206 249 284 351
#     4   9  20  36  60  86 115 151 188 239 298 364
#     4  10  20  33  56  89 122 146 182 244 300 352
#     4  10  20  36  55  85 119 156 194 236 290 360
#     4   8  24  48  60  76 116 160 212 246 276 340
#
# _framework density 17.143170999999999
#
# number of rings (size 3 to 8) (size 9 to 14) (size 15 to 20)
#    0.245    1.714    2.449    1.469    3.429    1.633 
#    1.469    0.816    8.980    0.980    0.000    0.000 
#    0.000    0.000    0.000    0.000    0.000    0.000 
#
# Total GULP energy -546052.377307 kJ/mol
# GULP energy per Si atom -5571.963034 kJ/mol
# Density = 1.710415 g / cm^3
# Si number density = 17.143171 Si / 1000 Ang^3
#
#
#
# Elastic Constant Matrix: (Units=GPa)
#
#
# Indices 1 2 3 4 5 6 
#
# 1 114.2554 61.1960 54.0531 0.0000 0.0000 0.0000
# 2 61.1960 114.2553 54.0530 0.0000 0.0000 0.0000
# 3 54.0531 54.0530 72.2318 0.0000 0.0000 0.0000
# 4 0.0000 0.0000 0.0000 11.8264 0.0000 0.0000
# 5 0.0000 0.0000 0.0000 0.0000 11.8264 0.0000
# 6 0.0000 0.0000 0.0000 0.0000 0.0000 24.1544
#
#
#
# Elastic Compliance Matrix: (Units=1/GPa)
#
#
# Indices 1 2 3 4 5 6 
#
# 1 0.014711 -0.004135 -0.007914 0.000000 0.000000 0.000000
# 2 -0.004135 0.014711 -0.007914 0.000000 0.000000 0.000000
# 3 -0.007914 -0.007914 0.025689 0.000000 0.000000 0.000000
# 4 0.000000 0.000000 0.000000 0.084557 0.000000 0.000000
# 5 0.000000 0.000000 0.000000 0.000000 0.084557 0.000000
# 6 0.000000 0.000000 0.000000 0.000000 0.000000 0.041400
#
#
# Mechanical properties :
#
#
# Convention : Reuss Voigt Hill
#
# Bulk Modulus (GPa) = 65.85847 71.03854 68.44851
# Shear Modulus (GPa) = 16.09706 18.32414 17.21060
#
# Velocity S-wave (km/s) = 3.06760 3.27293 3.17193
# Velocity P-wave (km/s) = 7.14472 7.47069 7.30952
#
# Compressibility (1/GPa) = 0.01518408
#
# Stress axis : x y z
#
# Youngs Moduli (GPa) = 67.97415 67.97421 38.92652
#
# Poissons Ratio (x) = 0.28110 0.30808
# Poissons Ratio (y) = 0.28110 0.30808
# Poissons Ratio (z) = 0.53798 0.53797
#
# Static dielectric constant tensor:
#      x y z
#    x 1.574460 0.000000 0.000000 
#    y 0.000000 1.574460 0.000000 
#    z 0.000000 0.000000 1.570710 
# 
# From -- ./inp_files/8451.got.cif
#   From: 2010.05.17/outbox.cif.g08.bks.cpg/sg136_5_cif.got.tgz:8451.got - 2010.05.20 12:54:53.
