data_PCOD9569030
_publ_section_title
;
Structure prediction by ZEFSAII (Michael W. Deem and Ramdas Pophale) SiO2 
 PCOD9569030
Probable space group: P 42/M B C
;
_chemical_formula_sum "Si O2"
_cell_formula_units_Z 36
_cell_length_a 8.679567
_cell_length_b 8.679567
_cell_length_c 18.775000
_cell_angle_alpha 90.000000
_cell_angle_beta 90.000000
_cell_angle_gamma 90.000000
_cell_volume 1414.412434
_symmetry_space_group_name_H-M "P 42/M B C"
_symmetry_group_IT_number 135
_symmetry_cell_setting 'tetragonal'
loop_
_space_group_symop_operation_xyz
x,y,z
-y,x,1/2+z
-x,-y,z
y,-x,1/2+z
1/2+x,1/2-y,-z
1/2-x,1/2+y,-z
1/2+y,1/2+x,1/2-z
1/2-y,1/2-x,1/2-z
-x,-y,-z
y,-x,1/2-z
x,y,-z
-y,x,1/2-z
1/2-x,1/2+y,z
1/2+x,1/2-y,z
1/2-y,1/2-x,1/2+z
1/2+y,1/2+x,1/2+z
loop_
_atom_site_type_symbol
_atom_site_label
_atom_site_fract_x
_atom_site_fract_y
_atom_site_fract_z
Si Si1 0.051397 0.251354 0.633072
Si Si2 0.790541 0.027042 0.579834
Si Si3 0.000000 0.500000 0.750000
O O1 0.130133 0.387408 0.588607
O O2 0.912926 0.162865 0.594761
O O3 0.006302 0.341523 0.704380
O O4 0.173324 0.108769 0.635886
O O5 0.808353 0.964987 0.500000
#
# Coordination Sequence:
#
# PCOD9569030 Si02
#       3
#    16  16   4
#     4  11  25  44  72 103 148 191 239 302 361 448
#     4  11  23  46  77 113 143 189 247 310 374 427
#     4  12  28  48  62  98 144 206 256 298 384 456
#
# _framework density 25.452262999999999
#
# number of rings (size 3 to 8) (size 9 to 14) (size 15 to 20)
#    0.000    0.889    0.000    8.000    0.000    7.111 
#    0.000   21.111    0.000    0.000    0.000    0.000 
#    0.000    0.000    0.000    0.000    0.000    0.000 
#
# Total GULP energy -201321.250189 kJ/mol
# GULP energy per Si atom -5592.256950 kJ/mol
# Density = 2.539433 g / cm^3
# Si number density = 25.452263 Si / 1000 Ang^3
#
#
#
# Elastic Constant Matrix: (Units=GPa)
#
#
# Indices 1 2 3 4 5 6 
#
# 1 117.9718 104.4546 57.8066 0.0000 0.0000 0.0000
# 2 104.4546 117.9718 57.8066 0.0000 0.0000 0.0000
# 3 57.8066 57.8066 137.3374 0.0000 0.0000 0.0000
# 4 0.0000 0.0000 0.0000 31.3805 0.0000 0.0000
# 5 0.0000 0.0000 0.0000 0.0000 31.3805 0.0000
# 6 0.0000 0.0000 0.0000 0.0000 0.0000 86.0292
#
#
#
# Elastic Compliance Matrix: (Units=1/GPa)
#
#
# Indices 1 2 3 4 5 6 
#
# 1 0.039868 -0.034113 -0.002422 0.000000 0.000000 0.000000
# 2 -0.034113 0.039868 -0.002422 0.000000 0.000000 0.000000
# 3 -0.002422 -0.002422 0.009320 0.000000 0.000000 0.000000
# 4 0.000000 0.000000 0.000000 0.031867 0.000000 0.000000
# 5 0.000000 0.000000 0.000000 0.000000 0.031867 0.000000
# 6 0.000000 0.000000 0.000000 0.000000 0.000000 0.011624
#
#
# Mechanical properties :
#
#
# Convention : Reuss Voigt Hill
#
# Bulk Modulus (GPa) = 89.75751 90.37963 90.06857
# Shear Modulus (GPa) = 20.32176 39.97223 30.14699
#
# Velocity S-wave (km/s) = 2.82871 3.96723 3.44532
# Velocity P-wave (km/s) = 6.78310 7.52142 7.16178
#
# Compressibility (1/GPa) = 0.01114113
#
# Stress axis : x y z
#
# Youngs Moduli (GPa) = 25.08304 25.08304 107.29063
#
# Poissons Ratio (x) = 0.85565 0.25989
# Poissons Ratio (y) = 0.85565 0.25989
# Poissons Ratio (z) = 0.06076 0.06076
#
# Static dielectric constant tensor:
#      x y z
#    x 2.056070 0.000000 0.000000 
#    y 0.000000 2.056070 0.000000 
#    z 0.000000 0.000000 1.971020 
# 
# From -- ./inp_files/4809.got.cif
#   From: 2010.05.17/outbox.cif.g08.bks.cpg/sg135_3_cif.got.tgz:4809.got - 2010.05.20 12:50:20.
