data_PCOD9569537
_publ_section_title
;
Structure prediction by ZEFSAII (Michael W. Deem and Ramdas Pophale) SiO2 
 PCOD9569537
Probable space group: P 42/M N M
;
_chemical_formula_sum "Si O2"
_cell_formula_units_Z 96
_cell_length_a 23.427073
_cell_length_b 23.427073
_cell_length_c 7.737600
_cell_angle_alpha 90.000000
_cell_angle_beta 90.000000
_cell_angle_gamma 90.000000
_cell_volume 4246.609593
_symmetry_space_group_name_H-M "P 42/M N M"
_symmetry_group_IT_number 136
_symmetry_cell_setting 'tetragonal'
loop_
_space_group_symop_operation_xyz
x,y,z
1/2-y,1/2+x,1/2+z
-x,-y,z
1/2+y,1/2-x,1/2+z
1/2+x,1/2-y,1/2-z
1/2-x,1/2+y,1/2-z
y,x,-z
-y,-x,-z
-x,-y,-z
1/2+y,1/2-x,1/2-z
x,y,-z
1/2-y,1/2+x,1/2-z
1/2-x,1/2+y,1/2+z
1/2+x,1/2-y,1/2+z
-y,-x,z
y,x,z
loop_
_atom_site_type_symbol
_atom_site_label
_atom_site_fract_x
_atom_site_fract_y
_atom_site_fract_z
Si Si1 0.327290 0.586930 0.795549
Si Si2 0.109832 0.792684 0.804577
Si Si3 0.207922 0.301164 0.711733
Si Si4 0.989037 0.588022 0.808692
Si Si5 0.524822 0.615650 0.289752
Si Si6 0.702336 0.924429 0.708451
O O1 0.354117 0.645884 0.724612
O O2 0.374439 0.538674 0.769022
O O3 0.266912 0.563464 0.727942
O O4 0.318463 0.596508 0.000000
O O5 0.160710 0.839291 0.819002
O O6 0.141261 0.738990 0.723878
O O7 0.059586 0.828945 0.722365
O O8 0.091949 0.776944 0.000000
O O9 0.210286 0.301581 0.500000
O O10 0.246188 0.246188 0.764390
O O11 0.142102 0.303271 0.759684
O O12 0.040934 0.561757 0.698535
O O13 0.963539 0.650142 0.768826
O O14 0.013813 0.589538 0.000000
O O15 0.526619 0.616414 0.500000
O O16 0.559075 0.559075 0.235773
O O17 0.700736 0.927953 0.500000
#
# Coordination Sequence:
#
# PCOD9569537 Si02
#       6
#    16  16  16  16  16  16
#     4  10  22  38  54  76 111 153 194 238 287 340
#     4   7  11  22  42  70  99 124 160 216 275 324
#     4   8  13  24  47  77 108 146 191 235 278 330
#     4  11  23  42  66  91 120 152 188 230 279 334
#     4   9  18  33  53  77 105 138 182 239 296 346
#     4  10  20  35  56  84 116 150 190 234 282 337
#
# _framework density 22.606268
#
# number of rings (size 3 to 8) (size 9 to 14) (size 15 to 20)
#    0.000    2.833    0.000    4.500    0.000    5.000 
#    0.000    3.333    0.000    1.500    0.000    2.333 
#    0.000    0.000    0.000    0.000    0.000    0.000 
#
# Total GULP energy -535068.935854 kJ/mol
# GULP energy per Si atom -5573.634748 kJ/mol
# Density = 2.255482 g / cm^3
# Si number density = 22.606268 Si / 1000 Ang^3
#
#
#
# Elastic Constant Matrix: (Units=GPa)
#
#
# Indices 1 2 3 4 5 6 
#
# 1 110.1721 39.8247 -2.7878 0.0000 0.0000 0.0000
# 2 39.8247 110.1721 -2.7878 0.0000 0.0000 0.0000
# 3 -2.7878 -2.7878 40.7964 0.0000 0.0000 0.0000
# 4 0.0000 0.0000 0.0000 9.9110 0.0000 0.0000
# 5 0.0000 0.0000 0.0000 0.0000 9.9110 0.0000
# 6 0.0000 0.0000 0.0000 0.0000 0.0000 34.1701
#
#
#
# Elastic Compliance Matrix: (Units=1/GPa)
#
#
# Indices 1 2 3 4 5 6 
#
# 1 0.010449 -0.003766 0.000457 0.000000 0.000000 0.000000
# 2 -0.003766 0.010449 0.000457 0.000000 0.000000 0.000000
# 3 0.000457 0.000457 0.024574 0.000000 0.000000 0.000000
# 4 0.000000 0.000000 0.000000 0.100898 0.000000 0.000000
# 5 0.000000 0.000000 0.000000 0.000000 0.100898 0.000000
# 6 0.000000 0.000000 0.000000 0.000000 0.000000 0.029265
#
#
# Mechanical properties :
#
#
# Convention : Reuss Voigt Hill
#
# Bulk Modulus (GPa) = 25.14527 36.62653 30.88590
# Shear Modulus (GPa) = 16.92078 25.92454 21.42266
#
# Velocity S-wave (km/s) = 2.73884 3.39010 3.08172
# Velocity P-wave (km/s) = 4.59880 5.61790 5.13370
#
# Compressibility (1/GPa) = 0.03976892
#
# Stress axis : x y z
#
# Youngs Moduli (GPa) = 95.69860 95.69860 40.69276
#
# Poissons Ratio (x) = 0.36037 -0.01859
# Poissons Ratio (y) = 0.36037 -0.01859
# Poissons Ratio (z) = -0.04371 -0.04371
#
# Static dielectric constant tensor:
#      x y z
#    x 1.872130 0.000000 0.000000 
#    y 0.000000 1.872130 0.000000 
#    z 0.000000 0.000000 1.867910 
# 
# From -- ./inp_files/1928.got.cif
#   From: 2010.05.17/outbox.cif.g08.bks.cpg/sg136_1_cif.got.tgz:1928.got - 2010.05.20 12:54:53.
