data_PCOD9569348
_publ_section_title
;
Structure prediction by ZEFSAII (Michael W. Deem and Ramdas Pophale) SiO2 
 PCOD9569348
Probable space group: P 42/M N M
;
_chemical_formula_sum "Si O2"
_cell_formula_units_Z 36
_cell_length_a 9.478528
_cell_length_b 9.478528
_cell_length_c 14.002984
_cell_angle_alpha 90.000000
_cell_angle_beta 90.000000
_cell_angle_gamma 90.000000
_cell_volume 1258.062993
_symmetry_space_group_name_H-M "P 42/M N M"
_symmetry_group_IT_number 136
_symmetry_cell_setting 'tetragonal'
loop_
_space_group_symop_operation_xyz
x,y,z
1/2-y,1/2+x,1/2+z
-x,-y,z
1/2+y,1/2-x,1/2+z
1/2+x,1/2-y,1/2-z
1/2-x,1/2+y,1/2-z
y,x,-z
-y,-x,-z
-x,-y,-z
1/2+y,1/2-x,1/2-z
x,y,-z
1/2-y,1/2+x,1/2-z
1/2-x,1/2+y,1/2+z
1/2+x,1/2-y,1/2+z
-y,-x,z
y,x,z
loop_
_atom_site_type_symbol
_atom_site_label
_atom_site_fract_x
_atom_site_fract_y
_atom_site_fract_z
Si Si1 0.794079 0.205922 0.500000
Si Si2 0.214756 0.556412 0.870813
Si Si3 0.988238 0.771284 0.149213
O O1 0.905113 0.272284 0.417600
O O2 0.350610 0.649391 0.899184
O O3 0.224174 0.551140 0.755770
O O4 0.074756 0.643697 0.896058
O O5 0.108198 0.891803 0.159286
O O6 0.857454 0.857454 0.100831
#
# Coordination Sequence:
#
# PCOD9569348 Si02
#       3
#     4  16  16
#     4  12  21  36  66 108 144 177 250 325 368 400
#     4  10  19  33  60  95 135 178 233 312 364 425
#     4   9  18  34  56  91 134 181 234 288 359 457
#
# _framework density 28.61542
#
# number of rings (size 3 to 8) (size 9 to 14) (size 15 to 20)
#    0.000    2.222    2.222    2.000    0.000    0.889 
#    0.000    1.111    0.000   10.667    0.000    0.000 
#    0.000    1.778    0.000    0.000    0.000    0.000 
#
# Total GULP energy -200946.586978 kJ/mol
# GULP energy per Si atom -5581.849638 kJ/mol
# Density = 2.855029 g / cm^3
# Si number density = 28.615420 Si / 1000 Ang^3
#
#
#
# Elastic Constant Matrix: (Units=GPa)
#
#
# Indices 1 2 3 4 5 6 
#
# 1 197.6312 43.5363 -30.8897 0.0000 0.0000 0.0000
# 2 43.5363 197.6309 -30.8897 0.0000 0.0000 0.0000
# 3 -30.8897 -30.8897 155.3538 0.0000 0.0000 0.0000
# 4 0.0000 0.0000 0.0000 -314.5321 0.0000 0.0000
# 5 0.0000 0.0000 0.0000 0.0000 -314.5570 0.0000
# 6 0.0000 0.0000 0.0000 0.0000 0.0000 69.7834
#
#
#
# Elastic Compliance Matrix: (Units=1/GPa)
#
#
# Indices 1 2 3 4 5 6 
#
# 1 0.005429 -0.001060 0.000869 0.000000 0.000000 0.000000
# 2 -0.001060 0.005429 0.000869 0.000000 0.000000 0.000000
# 3 0.000869 0.000869 0.006782 0.000000 0.000000 0.000000
# 4 0.000000 0.000000 0.000000 -0.003179 0.000000 0.000000
# 5 0.000000 0.000000 0.000000 0.000000 -0.003179 0.000000
# 6 0.000000 0.000000 0.000000 0.000000 0.000000 0.014330
#
#
# Mechanical properties :
#
#
# Convention : Reuss Voigt Hill
#
# Bulk Modulus (GPa) = 52.64458 57.12554 54.88506
# Shear Modulus (GPa) = 163.45226 -73.93720 44.75753
#
# Velocity S-wave (km/s) = 7.56600 -5.08865 3.95917
# Velocity P-wave (km/s) = 9.73463 3.81041 6.33418
#
# Compressibility (1/GPa) = 0.01899531
#
# Stress axis : x y z
#
# Youngs Moduli (GPa) = 184.18682 184.18656 147.44081
#
# Poissons Ratio (x) = 0.19528 -0.12808
# Poissons Ratio (y) = 0.19528 -0.12808
# Poissons Ratio (z) = -0.16001 -0.16001
#
# Static dielectric constant tensor:
#      x y z
#    x 2.250230 0.000000 0.000000 
#    y 0.000000 2.250240 0.000000 
#    z 0.000000 0.000000 2.685640 
# 
# From -- ./inp_files/2720.got.cif
#   From: 2010.05.17/outbox.cif.g08.bks.cpg/sg136_2_cif.got.tgz:2720.got - 2010.05.20 12:54:53.
