data_PCOD9569471
_publ_section_title
;
Structure prediction by ZEFSAII (Michael W. Deem and Ramdas Pophale) SiO2 
 PCOD9569471
Probable space group: P 42/M N M
;
_chemical_formula_sum "Si O2"
_cell_formula_units_Z 128
_cell_length_a 22.203818
_cell_length_b 22.203818
_cell_length_c 14.640350
_cell_angle_alpha 90.000000
_cell_angle_beta 90.000000
_cell_angle_gamma 90.000000
_cell_volume 7217.832128
_symmetry_space_group_name_H-M "P 42/M N M"
_symmetry_group_IT_number 136
_symmetry_cell_setting 'tetragonal'
loop_
_space_group_symop_operation_xyz
x,y,z
1/2-y,1/2+x,1/2+z
-x,-y,z
1/2+y,1/2-x,1/2+z
1/2+x,1/2-y,1/2-z
1/2-x,1/2+y,1/2-z
y,x,-z
-y,-x,-z
-x,-y,-z
1/2+y,1/2-x,1/2-z
x,y,-z
1/2-y,1/2+x,1/2-z
1/2-x,1/2+y,1/2+z
1/2+x,1/2-y,1/2+z
-y,-x,z
y,x,z
loop_
_atom_site_type_symbol
_atom_site_label
_atom_site_fract_x
_atom_site_fract_y
_atom_site_fract_z
Si Si1 0.576968 0.937716 0.254330
Si Si2 0.679432 0.944227 0.105229
Si Si3 0.411228 0.311490 0.104089
Si Si4 0.254469 0.844334 0.250640
Si Si5 0.252454 0.648528 0.295810
Si Si6 0.477102 0.614390 0.105811
Si Si7 0.121802 0.220499 0.401618
Si Si8 0.831083 0.585967 0.606866
O O1 0.508788 0.922667 0.222594
O O2 0.625385 0.927567 0.174386
O O3 0.590161 0.894730 0.340054
O O4 0.736538 0.903747 0.133668
O O5 0.689327 0.015944 0.114814
O O6 0.663114 0.932601 0.000000
O O7 0.350570 0.350570 0.096429
O O8 0.396841 0.260440 0.177003
O O9 0.462426 0.356293 0.142149
O O10 0.427770 0.292227 0.000000
O O11 0.194898 0.805103 0.228548
O O12 0.300221 0.798372 0.299476
O O13 0.285035 0.871558 0.161052
O O14 0.316646 0.683355 0.304671
O O15 0.245995 0.620707 0.193865
O O16 0.443615 0.556386 0.147281
O O17 0.428135 0.667961 0.103567
O O18 0.490979 0.599035 0.000000
O O19 0.114243 0.251795 0.500000
O O20 0.185997 0.185997 0.403055
O O21 0.835863 0.600469 0.500000
#
# Coordination Sequence:
#
# PCOD9569471 Si02
#       8
#    16  16  16  16  16  16  16  16
#     4   9  18  36  60  82 107 137 168 206 255 315
#     4  10  21  36  54  79 110 139 170 217 267 310
#     4   9  18  31  47  71 104 140 173 206 248 303
#     4  10  21  36  52  73 103 142 183 218 258 311
#     4  10  20  34  52  74 100 138 180 216 261 312
#     4   8  14  26  46  73 102 131 162 201 254 309
#     4   8  15  28  46  71 100 126 158 204 256 302
#     4  10  21  37  56  79 107 136 173 223 268 306
#
# _framework density 17.733855999999999
#
# number of rings (size 3 to 8) (size 9 to 14) (size 15 to 20)
#    0.000    2.750    1.250    0.750    1.750    2.250 
#    0.000    6.250    0.000    0.000    0.000    0.000 
#    0.000    0.000    0.000    5.500    0.000    0.250 
#
# Total GULP energy -712712.895368 kJ/mol
# GULP energy per Si atom -5568.069495 kJ/mol
# Density = 1.769349 g / cm^3
# Si number density = 17.733856 Si / 1000 Ang^3
#
#
#
# Elastic Constant Matrix: (Units=GPa)
#
#
# Indices 1 2 3 4 5 6 
#
# 1 39.5567 24.7744 23.4202 0.0000 0.0000 0.0000
# 2 24.7744 39.5567 23.4202 0.0000 0.0000 0.0000
# 3 23.4202 23.4202 62.2442 0.0000 0.0000 0.0000
# 4 0.0000 0.0000 0.0000 24.2927 0.0000 0.0000
# 5 0.0000 0.0000 0.0000 0.0000 24.2927 0.0000
# 6 0.0000 0.0000 0.0000 0.0000 0.0000 27.7647
#
#
#
# Elastic Compliance Matrix: (Units=1/GPa)
#
#
# Indices 1 2 3 4 5 6 
#
# 1 0.044529 -0.023119 -0.008056 0.000000 0.000000 0.000000
# 2 -0.023119 0.044529 -0.008056 0.000000 0.000000 0.000000
# 3 -0.008056 -0.008056 0.022128 0.000000 0.000000 0.000000
# 4 0.000000 0.000000 0.000000 0.041165 0.000000 0.000000
# 5 0.000000 0.000000 0.000000 0.000000 0.041165 0.000000
# 6 0.000000 0.000000 0.000000 0.000000 0.000000 0.036017
#
#
# Mechanical properties :
#
#
# Convention : Reuss Voigt Hill
#
# Bulk Modulus (GPa) = 30.55778 31.62081 31.08929
# Shear Modulus (GPa) = 15.67872 19.91951 17.79911
#
# Velocity S-wave (km/s) = 2.97663 3.35512 3.17153
# Velocity P-wave (km/s) = 5.39282 5.73399 5.56602
#
# Compressibility (1/GPa) = 0.03272490
#
# Stress axis : x y z
#
# Youngs Moduli (GPa) = 22.45704 22.45704 45.19156
#
# Poissons Ratio (x) = 0.51919 0.36406
# Poissons Ratio (y) = 0.51919 0.36406
# Poissons Ratio (z) = 0.18091 0.18091
#
# Static dielectric constant tensor:
#      x y z
#    x 1.635450 0.000000 0.000000 
#    y 0.000000 1.635450 0.000000 
#    z 0.000000 0.000000 1.613150 
# 
# From -- ./inp_files/4085.got.cif
#   From: 2010.05.17/outbox.cif.g08.bks.cpg/sg136_3_cif.got.tgz:4085.got - 2010.05.20 12:54:53.
