data_PCOD9569797
_publ_section_title
;
Structure prediction by ZEFSAII (Michael W. Deem and Ramdas Pophale) SiO2 
 PCOD9569797
Probable space group: P 42/M N M
;
_chemical_formula_sum "Si O2"
_cell_formula_units_Z 38
_cell_length_a 12.013140
_cell_length_b 12.013140
_cell_length_c 13.474497
_cell_angle_alpha 90.000000
_cell_angle_beta 90.000000
_cell_angle_gamma 90.000000
_cell_volume 1944.579212
_symmetry_space_group_name_H-M "P 42/M N M"
_symmetry_group_IT_number 136
_symmetry_cell_setting 'tetragonal'
loop_
_space_group_symop_operation_xyz
x,y,z
1/2-y,1/2+x,1/2+z
-x,-y,z
1/2+y,1/2-x,1/2+z
1/2+x,1/2-y,1/2-z
1/2-x,1/2+y,1/2-z
y,x,-z
-y,-x,-z
-x,-y,-z
1/2+y,1/2-x,1/2-z
x,y,-z
1/2-y,1/2+x,1/2-z
1/2-x,1/2+y,1/2+z
1/2+x,1/2-y,1/2+z
-y,-x,z
y,x,z
loop_
_atom_site_type_symbol
_atom_site_label
_atom_site_fract_x
_atom_site_fract_y
_atom_site_fract_z
Si Si1 0.950134 0.331567 0.215908
Si Si2 0.788097 0.788097 0.000000
Si Si3 0.644231 0.644231 0.845266
Si Si4 0.944431 0.244464 0.000000
Si Si5 0.500000 0.500000 0.000000
O O1 0.873870 0.425150 0.266959
O O2 0.931762 0.218749 0.274580
O O3 0.920478 0.312907 0.100799
O O4 0.726448 0.726448 0.907882
O O5 0.773129 0.921833 0.000000
O O6 0.569657 0.569657 0.915440
O O7 0.867223 0.132778 0.000000
#
# Coordination Sequence:
#
# PCOD9569797 Si02
#       5
#    16   4   8   8   2
#     4  11  25  44  71 100 137 178 229 282 344 415
#     4  11  23  43  71  96 140 180 221 283 351 399
#     4  11  23  47  65 101 143 182 217 289 343 398
#     4  12  24  42  72 106 130 183 236 283 345 417
#     4  10  28  40  70  98 138 184 230 254 352 428
#
# _framework density 19.541502000000001
#
# number of rings (size 3 to 8) (size 9 to 14) (size 15 to 20)
#    0.000    0.842    6.316    0.316    0.000   10.105 
#    3.789    0.000    0.000    0.000    0.000    0.000 
#    0.000    0.000    0.000    0.000    0.000    0.000 
#
# Total GULP energy -211647.614840 kJ/mol
# GULP energy per Si atom -5569.674075 kJ/mol
# Density = 1.949702 g / cm^3
# Si number density = 19.541502 Si / 1000 Ang^3
#
#
#
# Elastic Constant Matrix: (Units=GPa)
#
#
# Indices 1 2 3 4 5 6 
#
# 1 44.8878 97.1814 46.0695 0.0000 0.0000 0.0000
# 2 97.1814 44.8881 46.0695 0.0000 0.0000 0.0000
# 3 46.0695 46.0695 173.9080 0.0000 0.0000 0.0000
# 4 0.0000 0.0000 0.0000 27.0156 0.0000 0.0000
# 5 0.0000 0.0000 0.0000 0.0000 27.0152 0.0000
# 6 0.0000 0.0000 0.0000 0.0000 0.0000 39.0859
#
#
#
# Elastic Compliance Matrix: (Units=1/GPa)
#
#
# Indices 1 2 3 4 5 6 
#
# 1 -0.005312 0.013811 -0.002251 0.000000 0.000000 0.000000
# 2 0.013811 -0.005312 -0.002251 0.000000 0.000000 0.000000
# 3 -0.002251 -0.002251 0.006943 0.000000 0.000000 0.000000
# 4 0.000000 0.000000 0.000000 0.037016 0.000000 0.000000
# 5 0.000000 0.000000 0.000000 0.000000 0.037016 0.000000
# 6 0.000000 0.000000 0.000000 0.000000 0.000000 0.025585
#
#
# Mechanical properties :
#
#
# Convention : Reuss Voigt Hill
#
# Bulk Modulus (GPa) = 66.95583 71.36940 69.16262
# Shear Modulus (GPa) = 60.75488 23.58092 42.16790
#
# Velocity S-wave (km/s) = 5.58191 3.47754 4.65032
# Velocity P-wave (km/s) = 8.71099 7.26124 8.01895
#
# Compressibility (1/GPa) = 0.01493522
#
# Stress axis : x y z
#
# Youngs Moduli (GPa) = -188.25458 -188.25628 144.02957
#
# Poissons Ratio (x) = 2.59999 0.32427
# Poissons Ratio (y) = 2.59997 0.32428
# Poissons Ratio (z) = -0.42384 -0.42385
#
# Static dielectric constant tensor:
#      x y z
#    x 1.686950 0.000000 0.000000 
#    y 0.000000 1.686950 0.000000 
#    z 0.000000 0.000000 1.686900 
# 
# From -- ./inp_files/4433.got.cif
#   From: 2010.05.17/outbox.cif.g08.bks.cpg/sg136_3_cif.got.tgz:4433.got - 2010.05.20 12:54:53.
