data_PCOD9569057
_publ_section_title
;
Structure prediction by ZEFSAII (Michael W. Deem and Ramdas Pophale) SiO2 
 PCOD9569057
Probable space group: P 42/M B C
;
_chemical_formula_sum "Si O2"
_cell_formula_units_Z 36
_cell_length_a 10.147461
_cell_length_b 10.147461
_cell_length_c 14.652582
_cell_angle_alpha 90.000000
_cell_angle_beta 90.000000
_cell_angle_gamma 90.000000
_cell_volume 1508.790505
_symmetry_space_group_name_H-M "P 42/M B C"
_symmetry_group_IT_number 135
_symmetry_cell_setting 'tetragonal'
loop_
_space_group_symop_operation_xyz
x,y,z
-y,x,1/2+z
-x,-y,z
y,-x,1/2+z
1/2+x,1/2-y,-z
1/2-x,1/2+y,-z
1/2+y,1/2+x,1/2-z
1/2-y,1/2-x,1/2-z
-x,-y,-z
y,-x,1/2-z
x,y,-z
-y,x,1/2-z
1/2-x,1/2+y,z
1/2+x,1/2-y,z
1/2-y,1/2-x,1/2+z
1/2+y,1/2+x,1/2+z
loop_
_atom_site_type_symbol
_atom_site_label
_atom_site_fract_x
_atom_site_fract_y
_atom_site_fract_z
Si Si1 0.634205 0.059636 0.353861
Si Si2 0.500000 0.500000 0.750000
Si Si3 0.137661 0.148007 0.603224
O O1 0.597312 0.097312 0.250000
O O2 0.677161 0.199451 0.394409
O O3 0.500000 0.000000 0.394626
O O4 0.744943 0.949670 0.367724
O O5 0.619282 0.527501 0.819791
O O6 0.095773 0.117557 0.500000
#
# Coordination Sequence:
#
# PCOD9569057 Si02
#       3
#    16   4  16
#     4  11  27  49  77 111 158 208 257 330 401 474
#     4  12  26  48  72 106 156 200 262 328 400 462
#     4  12  27  48  78 111 151 205 265 325 397 479
#
# _framework density 23.860173
#
# number of rings (size 3 to 8) (size 9 to 14) (size 15 to 20)
#    0.000    0.444    4.444    2.000   12.444    3.556 
#    0.000    0.000    0.000    0.000    0.000    0.000 
#    0.000    0.000    0.000    0.000    0.000    0.000 
#
# Total GULP energy -201398.148838 kJ/mol
# GULP energy per Si atom -5594.393023 kJ/mol
# Density = 2.380587 g / cm^3
# Si number density = 23.860173 Si / 1000 Ang^3
#
#
#
# Elastic Constant Matrix: (Units=GPa)
#
#
# Indices 1 2 3 4 5 6 
#
# 1 133.6484 55.0174 45.3922 0.0000 0.0000 0.0000
# 2 55.0174 133.6484 45.3922 0.0000 0.0000 0.0000
# 3 45.3922 45.3922 196.5399 0.0000 0.0000 0.0000
# 4 0.0000 0.0000 0.0000 7.4521 0.0000 0.0000
# 5 0.0000 0.0000 0.0000 0.0000 7.4521 0.0000
# 6 0.0000 0.0000 0.0000 0.0000 0.0000 50.8305
#
#
#
# Elastic Compliance Matrix: (Units=1/GPa)
#
#
# Indices 1 2 3 4 5 6 
#
# 1 0.009340 -0.003377 -0.001377 0.000000 0.000000 0.000000
# 2 -0.003377 0.009340 -0.001377 0.000000 0.000000 0.000000
# 3 -0.001377 -0.001377 0.005724 0.000000 0.000000 0.000000
# 4 0.000000 0.000000 0.000000 0.134190 0.000000 0.000000
# 5 0.000000 0.000000 0.000000 0.000000 0.134190 0.000000
# 6 0.000000 0.000000 0.000000 0.000000 0.000000 0.019673
#
#
# Mechanical properties :
#
#
# Convention : Reuss Voigt Hill
#
# Bulk Modulus (GPa) = 82.36222 83.93780 83.15001
# Shear Modulus (GPa) = 15.20827 34.34927 24.77877
#
# Velocity S-wave (km/s) = 2.52740 3.79833 3.22607
# Velocity P-wave (km/s) = 6.56587 7.38186 6.98579
#
# Compressibility (1/GPa) = 0.01214149
#
# Stress axis : x y z
#
# Youngs Moduli (GPa) = 107.06224 107.06224 174.69756
#
# Poissons Ratio (x) = 0.36158 0.24060
# Poissons Ratio (y) = 0.36158 0.24060
# Poissons Ratio (z) = 0.14745 0.14745
#
# Static dielectric constant tensor:
#      x y z
#    x 1.923180 0.000000 0.000000 
#    y 0.000000 1.923180 0.000000 
#    z 0.000000 0.000000 1.927060 
# 
# From -- ./inp_files/2859.got.cif
#   From: 2010.05.17/outbox.cif.g08.bks.cpg/sg135_2_cif.got.tgz:2859.got - 2010.05.20 12:50:20.
