data_PCOD9569527
_publ_section_title
;
Structure prediction by ZEFSAII (Michael W. Deem and Ramdas Pophale) SiO2 
 PCOD9569527
Probable space group: P 42/M N M
;
_chemical_formula_sum "Si O2"
_cell_formula_units_Z 96
_cell_length_a 24.755520
_cell_length_b 24.755520
_cell_length_c 7.495010
_cell_angle_alpha 90.000000
_cell_angle_beta 90.000000
_cell_angle_gamma 90.000000
_cell_volume 4593.210228
_symmetry_space_group_name_H-M "P 42/M N M"
_symmetry_group_IT_number 136
_symmetry_cell_setting 'tetragonal'
loop_
_space_group_symop_operation_xyz
x,y,z
1/2-y,1/2+x,1/2+z
-x,-y,z
1/2+y,1/2-x,1/2+z
1/2+x,1/2-y,1/2-z
1/2-x,1/2+y,1/2-z
y,x,-z
-y,-x,-z
-x,-y,-z
1/2+y,1/2-x,1/2-z
x,y,-z
1/2-y,1/2+x,1/2-z
1/2-x,1/2+y,1/2+z
1/2+x,1/2-y,1/2+z
-y,-x,z
y,x,z
loop_
_atom_site_type_symbol
_atom_site_label
_atom_site_fract_x
_atom_site_fract_y
_atom_site_fract_z
Si Si1 0.819366 0.734694 0.714930
Si Si2 0.080189 0.830877 0.500000
Si Si3 0.745720 0.044042 0.212960
Si Si4 0.036093 0.120607 0.500000
Si Si5 0.924666 0.460059 0.798308
Si Si6 0.648568 0.117604 0.782320
Si Si7 0.930993 0.794768 0.206598
O O1 0.815780 0.732527 0.500000
O O2 0.768046 0.768046 0.781913
O O3 0.825187 0.673504 0.778056
O O4 0.873666 0.767304 0.759596
O O5 0.134298 0.865703 0.500000
O O6 0.073273 0.792031 0.671757
O O7 0.028191 0.870969 0.500000
O O8 0.687919 0.068412 0.265970
O O9 0.753442 0.980278 0.247327
O O10 0.752677 0.053100 0.000000
O O11 0.061040 0.061040 0.500000
O O12 0.059244 0.153933 0.331416
O O13 0.932620 0.515774 0.696938
O O14 0.887774 0.413042 0.719492
O O15 0.908167 0.473419 0.000000
O O16 0.645063 0.117645 0.000000
O O17 0.935110 0.810000 0.000000
#
# Coordination Sequence:
#
# PCOD9569527 Si02
#       7
#    16   8  16   8  16  16  16
#     4  10  20  35  55  81 113 149 187 231 289 344
#     4  10  22  39  60  90 116 146 194 235 281 348
#     4   9  20  40  60  83 113 150 195 238 284 337
#     4  10  20  37  60  86 118 153 185 232 292 341
#     4  10  20  36  54  79 111 147 193 238 289 343
#     4   9  20  37  57  82 110 149 194 237 290 344
#     4  10  20  35  59  85 112 150 195 237 280 342
#
# _framework density 20.900414000000001
#
# number of rings (size 3 to 8) (size 9 to 14) (size 15 to 20)
#    0.000    2.333    0.833    1.500    2.333    2.500 
#    4.500    1.667    0.000    0.000    0.000    4.667 
#    0.000    0.000    0.000    0.000    0.000    0.000 
#
# Total GULP energy -536192.806497 kJ/mol
# GULP energy per Si atom -5585.341734 kJ/mol
# Density = 2.085284 g / cm^3
# Si number density = 20.900414 Si / 1000 Ang^3
#
#
#
# Elastic Constant Matrix: (Units=GPa)
#
#
# Indices 1 2 3 4 5 6 
#
# 1 38.0507 19.9233 -3.0902 0.0000 0.0000 0.0000
# 2 19.9233 38.0539 -3.0898 0.0000 0.0000 0.0000
# 3 -3.0902 -3.0898 66.6314 0.0000 0.0000 0.0000
# 4 0.0000 0.0000 0.0000 9.8349 0.0000 0.0000
# 5 0.0000 0.0000 0.0000 0.0000 9.8340 0.0000
# 6 0.0000 0.0000 0.0000 0.0000 0.0000 23.6411
#
#
#
# Elastic Compliance Matrix: (Units=1/GPa)
#
#
# Indices 1 2 3 4 5 6 
#
# 1 0.036249 -0.018913 0.000804 0.000000 0.000000 0.000000
# 2 -0.018913 0.036246 0.000804 0.000000 0.000000 0.000000
# 3 0.000804 0.000804 0.015083 0.000000 0.000000 0.000000
# 4 0.000000 0.000000 0.000000 0.101679 0.000000 0.000000
# 5 0.000000 0.000000 0.000000 0.000000 0.101688 0.000000
# 6 0.000000 0.000000 0.000000 0.000000 0.000000 0.042299
#
#
# Mechanical properties :
#
#
# Convention : Reuss Voigt Hill
#
# Bulk Modulus (GPa) = 18.87980 18.91361 18.89671
# Shear Modulus (GPa) = 12.96987 17.26151 15.11569
#
# Velocity S-wave (km/s) = 2.49380 2.87695 2.69220
# Velocity P-wave (km/s) = 4.16472 4.48384 4.32722
#
# Compressibility (1/GPa) = 0.05296666
#
# Stress axis : x y z
#
# Youngs Moduli (GPa) = 27.58706 27.58942 66.30200
#
# Poissons Ratio (x) = 0.52180 -0.05332
# Poissons Ratio (y) = 0.52175 -0.05328
# Poissons Ratio (z) = -0.02218 -0.02217
#
# Static dielectric constant tensor:
#      x y z
#    x 1.740400 0.000000 0.000000 
#    y 0.000000 1.740400 0.000000 
#    z 0.000000 0.000000 1.744860 
# 
# From -- ./inp_files/2093.got.cif
#   From: 2010.05.17/outbox.cif.g08.bks.cpg/sg136_2_cif.got.tgz:2093.got - 2010.05.20 12:54:53.
