data_PCOD9569266
_publ_section_title
;
Structure prediction by ZEFSAII (Michael W. Deem and Ramdas Pophale) SiO2 
 PCOD9569266
Probable space group: P 42/M N M
;
_chemical_formula_sum "Si O2"
_cell_formula_units_Z 72
_cell_length_a 19.925515
_cell_length_b 19.925515
_cell_length_c 7.848834
_cell_angle_alpha 90.000000
_cell_angle_beta 90.000000
_cell_angle_gamma 90.000000
_cell_volume 3116.192329
_symmetry_space_group_name_H-M "P 42/M N M"
_symmetry_group_IT_number 136
_symmetry_cell_setting 'tetragonal'
loop_
_space_group_symop_operation_xyz
x,y,z
1/2-y,1/2+x,1/2+z
-x,-y,z
1/2+y,1/2-x,1/2+z
1/2+x,1/2-y,1/2-z
1/2-x,1/2+y,1/2-z
y,x,-z
-y,-x,-z
-x,-y,-z
1/2+y,1/2-x,1/2-z
x,y,-z
1/2-y,1/2+x,1/2-z
1/2-x,1/2+y,1/2+z
1/2+x,1/2-y,1/2+z
-y,-x,z
y,x,z
loop_
_atom_site_type_symbol
_atom_site_label
_atom_site_fract_x
_atom_site_fract_y
_atom_site_fract_z
Si Si1 0.884064 0.779339 0.202283
Si Si2 0.034343 0.793905 0.791716
Si Si3 0.053172 0.946829 0.207368
Si Si4 0.701977 0.151280 0.199610
Si Si5 0.042178 0.588390 0.184193
O O1 0.846317 0.846317 0.270398
O O2 0.831303 0.718378 0.226809
O O3 0.960753 0.765713 0.264855
O O4 0.891942 0.789130 0.000000
O O5 0.034224 0.871623 0.745055
O O6 0.105974 0.763296 0.731088
O O7 0.036970 0.786165 0.000000
O O8 0.051820 0.948181 0.000000
O O9 0.000000 0.000000 0.272055
O O10 0.644278 0.095694 0.215864
O O11 0.714968 0.166052 0.000000
O O12 0.080324 0.517745 0.185846
O O13 0.010421 0.601372 0.000000
#
# Coordination Sequence:
#
# PCOD9569266 Si02
#       5
#    16  16   8  16  16
#     4  10  21  37  57  81 113 149 184 229 286 343
#     4   9  18  33  53  80 112 145 182 229 281 331
#     4   9  16  28  52  82 107 135 179 232 283 330
#     4  10  21  34  52  78 109 145 183 224 274 333
#     4  10  19  31  48  72 102 140 184 227 274 324
#
# _framework density 23.105119999999999
#
# number of rings (size 3 to 8) (size 9 to 14) (size 15 to 20)
#    0.000    2.333    0.000    3.333    1.556    6.667 
#    0.000    1.111    0.000    0.000    0.000    0.000 
#    0.000    3.556    0.000    0.000    0.000    0.000 
#
# Total GULP energy -401347.241888 kJ/mol
# GULP energy per Si atom -5574.267248 kJ/mol
# Density = 2.305253 g / cm^3
# Si number density = 23.105120 Si / 1000 Ang^3
#
#
#
# Elastic Constant Matrix: (Units=GPa)
#
#
# Indices 1 2 3 4 5 6 
#
# 1 100.7026 44.2872 1.3919 0.0000 0.0000 0.0000
# 2 44.2872 100.7016 1.3921 0.0000 0.0000 0.0000
# 3 1.3919 1.3921 12.7136 0.0000 0.0000 0.0000
# 4 0.0000 0.0000 0.0000 7.4769 0.0000 0.0000
# 5 0.0000 0.0000 0.0000 0.0000 7.4768 0.0000
# 6 0.0000 0.0000 0.0000 0.0000 0.0000 12.7763
#
#
#
# Elastic Compliance Matrix: (Units=1/GPa)
#
#
# Indices 1 2 3 4 5 6 
#
# 1 0.012319 -0.005407 -0.000757 0.000000 0.000000 0.000000
# 2 -0.005407 0.012319 -0.000757 0.000000 0.000000 0.000000
# 3 -0.000757 -0.000757 0.078822 0.000000 0.000000 0.000000
# 4 0.000000 0.000000 0.000000 0.133745 0.000000 0.000000
# 5 0.000000 0.000000 0.000000 0.000000 0.133747 0.000000
# 6 0.000000 0.000000 0.000000 0.000000 0.000000 0.078270
#
#
# Mechanical properties :
#
#
# Convention : Reuss Voigt Hill
#
# Bulk Modulus (GPa) = 11.15850 34.25112 22.70481
# Shear Modulus (GPa) = 10.14332 16.68243 13.41287
#
# Velocity S-wave (km/s) = 2.09752 2.68996 2.41200
# Velocity P-wave (km/s) = 3.27201 4.95016 4.19584
#
# Compressibility (1/GPa) = 0.08961781
#
# Stress axis : x y z
#
# Youngs Moduli (GPa) = 81.17778 81.17695 12.68688
#
# Poissons Ratio (x) = 0.43893 0.00960
# Poissons Ratio (y) = 0.43894 0.00960
# Poissons Ratio (z) = 0.06141 0.06145
#
# Static dielectric constant tensor:
#      x y z
#    x 1.882910 0.000000 0.000000 
#    y 0.000000 1.882910 0.000000 
#    z 0.000000 0.000000 1.617280 
# 
# From -- ./inp_files/1534.got.cif
#   From: 2010.05.17/outbox.cif.g08.bks.cpg/sg136_1_cif.got.tgz:1534.got - 2010.05.20 12:54:53.
