data_PCOD9569984
_publ_section_title
;
Structure prediction by ZEFSAII (Michael W. Deem and Ramdas Pophale) SiO2 
 PCOD9569984
Probable space group: P 42/N M C
;
_chemical_formula_sum "Si O2"
_cell_formula_units_Z 96
_cell_length_a 14.860310
_cell_length_b 14.860310
_cell_length_c 24.087417
_cell_angle_alpha 90.000000
_cell_angle_beta 90.000000
_cell_angle_gamma 90.000000
_cell_volume 5319.195711
_symmetry_space_group_name_H-M "P 42/N M C"
_symmetry_group_IT_number 137
_space_group.IT_coordinate_system_code '2'
_symmetry_cell_setting 'tetragonal'
loop_
_space_group_symop_operation_xyz
x,y,z
1/2-y,x,1/2+z
1/2-x,1/2-y,z
y,1/2-x,1/2+z
1/2+x,-y,-z
-x,1/2+y,-z
1/2+y,1/2+x,1/2-z
-y,-x,1/2-z
-x,-y,-z
1/2+y,-x,1/2-z
1/2+x,1/2+y,-z
-y,1/2+x,1/2-z
1/2-x,y,z
x,1/2-y,z
1/2-y,1/2-x,1/2+z
y,x,1/2+z
loop_
_atom_site_type_symbol
_atom_site_label
_atom_site_fract_x
_atom_site_fract_y
_atom_site_fract_z
Si Si1 0.750000 0.893268 0.568099
Si Si2 0.750000 0.352655 0.516625
Si Si3 0.466046 0.563087 0.185387
Si Si4 0.750000 0.420044 0.633540
Si Si5 0.141485 0.250000 0.059964
Si Si6 0.554111 0.641128 0.401609
Si Si7 0.352335 0.060292 0.881251
Si Si8 0.359462 0.945148 0.987794
O O1 0.750000 0.896299 0.502084
O O2 0.658326 0.849133 0.589850
O O3 0.750000 0.990417 0.595985
O O4 0.750000 0.250000 0.495504
O O5 0.750000 0.348644 0.583745
O O6 0.656262 0.394076 0.495979
O O7 0.456918 0.543083 0.250000
O O8 0.423830 0.660427 0.169943
O O9 0.410263 0.492182 0.148722
O O10 0.570080 0.562313 0.165031
O O11 0.250000 0.250000 0.052617
O O12 0.118172 0.158767 0.091582
O O13 0.545286 0.750000 0.395574
O O14 0.503986 0.613821 0.458860
O O15 0.250000 0.038198 0.862880
O O16 0.382530 0.991570 0.929807
O O17 0.250000 0.943533 0.989356
#
# Coordination Sequence:
#
# PCOD9569984 Si02
#       8
#     8   8  16   8   8  16  16  16
#     4  10  18  30  58  90 118 140 175 219 282 353
#     4  10  18  32  52  82 122 152 182 216 281 344
#     4  11  25  41  57  79 110 153 200 239 274 322
#     4  10  22  36  54  82 110 150 191 235 270 324
#     4  10  18  32  56  92 122 148 169 216 289 355
#     4  10  20  35  58  85 122 150 182 225 281 340
#     4  10  20  37  60  84 112 146 185 232 285 337
#     4   9  17  30  55  85 115 150 177 227 282 342
#
# _framework density 18.047840999999998
#
# number of rings (size 3 to 8) (size 9 to 14) (size 15 to 20)
#    0.000    2.000    3.333    0.750    1.167    2.000 
#    1.500    0.000    0.000    0.000    0.000    0.000 
#    0.000    0.000    0.000    0.000    0.000    0.000 
#
# Total GULP energy -535827.783719 kJ/mol
# GULP energy per Si atom -5581.539414 kJ/mol
# Density = 1.800676 g / cm^3
# Si number density = 18.047841 Si / 1000 Ang^3
#
#
#
# Elastic Constant Matrix: (Units=GPa)
#
#
# Indices 1 2 3 4 5 6 
#
# 1 108.6450 32.8180 49.8530 0.0000 0.0000 0.0000
# 2 32.8180 108.6450 49.8529 0.0000 0.0000 0.0000
# 3 49.8530 49.8529 119.6445 0.0000 0.0000 0.0000
# 4 0.0000 0.0000 0.0000 12.5285 0.0000 0.0000
# 5 0.0000 0.0000 0.0000 0.0000 12.5292 0.0000
# 6 0.0000 0.0000 0.0000 0.0000 0.0000 11.5780
#
#
#
# Elastic Compliance Matrix: (Units=1/GPa)
#
#
# Indices 1 2 3 4 5 6 
#
# 1 0.011598 -0.001590 -0.004170 0.000000 0.000000 0.000000
# 2 -0.001590 0.011598 -0.004170 0.000000 0.000000 0.000000
# 3 -0.004170 -0.004170 0.011833 0.000000 0.000000 0.000000
# 4 0.000000 0.000000 0.000000 0.079818 0.000000 0.000000
# 5 0.000000 0.000000 0.000000 0.000000 0.079814 0.000000
# 6 0.000000 0.000000 0.000000 0.000000 0.000000 0.086371
#
#
# Mechanical properties :
#
#
# Convention : Reuss Voigt Hill
#
# Bulk Modulus (GPa) = 65.92379 66.88690 66.40534
# Shear Modulus (GPa) = 16.34262 20.95452 18.64857
#
# Velocity S-wave (km/s) = 3.01245 3.41112 3.21796
# Velocity P-wave (km/s) = 6.97899 7.25642 7.11906
#
# Compressibility (1/GPa) = 0.01516903
#
# Stress axis : x y z
#
# Youngs Moduli (GPa) = 86.22128 86.22136 84.50725
#
# Poissons Ratio (x) = 0.13708 0.35241
# Poissons Ratio (y) = 0.13708 0.35241
# Poissons Ratio (z) = 0.35956 0.35956
#
# Static dielectric constant tensor:
#      x y z
#    x 1.659920 0.000000 0.000000 
#    y 0.000000 1.659920 0.000000 
#    z 0.000000 0.000000 1.563460 
# 
# From -- ./inp_files/8902.got.cif
#   From: 2010.05.17/outbox.cif.g08.bks.cpg/sg137_5_cif.got.tgz:8902.got - 2010.05.20 13:01:12.
