data_PCOD9569318
_publ_section_title
;
Structure prediction by ZEFSAII (Michael W. Deem and Ramdas Pophale) SiO2 
 PCOD9569318
Probable space group: P 42/M N M
;
_chemical_formula_sum "Si O2"
_cell_formula_units_Z 88
_cell_length_a 15.086076
_cell_length_b 15.086076
_cell_length_c 18.048873
_cell_angle_alpha 90.000000
_cell_angle_beta 90.000000
_cell_angle_gamma 90.000000
_cell_volume 4107.737394
_symmetry_space_group_name_H-M "P 42/M N M"
_symmetry_group_IT_number 136
_symmetry_cell_setting 'tetragonal'
loop_
_space_group_symop_operation_xyz
x,y,z
1/2-y,1/2+x,1/2+z
-x,-y,z
1/2+y,1/2-x,1/2+z
1/2+x,1/2-y,1/2-z
1/2-x,1/2+y,1/2-z
y,x,-z
-y,-x,-z
-x,-y,-z
1/2+y,1/2-x,1/2-z
x,y,-z
1/2-y,1/2+x,1/2-z
1/2-x,1/2+y,1/2+z
1/2+x,1/2-y,1/2+z
-y,-x,z
y,x,z
loop_
_atom_site_type_symbol
_atom_site_label
_atom_site_fract_x
_atom_site_fract_y
_atom_site_fract_z
Si Si1 0.508345 0.757898 0.090045
Si Si2 0.293995 0.293995 0.911098
Si Si3 0.207690 0.792311 0.188348
Si Si4 0.996474 0.146302 0.000000
Si Si5 0.505238 0.744799 0.655413
Si Si6 0.314723 0.685278 0.310085
Si Si7 0.668900 0.331101 0.088560
Si Si8 0.582459 0.062694 0.916140
O O1 0.607534 0.735303 0.115573
O O2 0.432823 0.687414 0.108906
O O3 0.460270 0.847813 0.115725
O O4 0.514033 0.765708 0.000000
O O5 0.221065 0.221065 0.889153
O O6 0.298892 0.298892 0.000000
O O7 0.221453 0.897864 0.186624
O O8 0.254756 0.745245 0.256938
O O9 0.260449 0.739552 0.122255
O O10 0.004035 0.200507 0.074818
O O11 0.901726 0.098275 0.000000
O O12 0.071014 0.071014 0.000000
O O13 0.418093 0.710808 0.698287
O O14 0.514138 0.848486 0.636948
O O15 0.676968 0.323033 0.000000
O O16 0.500000 0.000000 0.925893
O O17 0.620380 0.080499 0.000000
#
# Coordination Sequence:
#
# PCOD9569318 Si02
#       8
#    16   8   8   8  16   8   8  16
#     4   9  18  33  58  94 130 170 223 285 350 405
#     4  10  22  41  65  93 138 186 234 296 352 424
#     4  12  28  47  69  99 143 187 231 298 367 448
#     4  11  22  38  73 120 148 169 224 315 395 443
#     4  12  24  44  73 103 145 184 237 299 376 450
#     4  12  30  47  65 101 143 192 234 286 374 458
#     4  10  20  37  67  99 128 169 233 304 355 406
#     4  10  19  32  58  99 136 172 222 284 348 415
#
# _framework density 21.422985000000001
#
# number of rings (size 3 to 8) (size 9 to 14) (size 15 to 20)
#    0.000    1.364    4.545    1.091    2.545    3.636 
#    3.273    1.818    0.000    2.182    0.000    0.000 
#    0.000    0.000    0.000    0.000    0.000    0.000 
#
# Total GULP energy -491084.754467 kJ/mol
# GULP energy per Si atom -5580.508573 kJ/mol
# Density = 2.137423 g / cm^3
# Si number density = 21.422985 Si / 1000 Ang^3
#
#
#
# Elastic Constant Matrix: (Units=GPa)
#
#
# Indices 1 2 3 4 5 6 
#
# 1 148.6722 20.1485 20.7020 0.0000 0.0000 0.0000
# 2 20.1485 148.6696 20.7016 0.0000 0.0000 0.0000
# 3 20.7020 20.7016 48.6170 0.0000 0.0000 0.0000
# 4 0.0000 0.0000 0.0000 35.4907 0.0000 0.0000
# 5 0.0000 0.0000 0.0000 0.0000 35.4845 0.0000
# 6 0.0000 0.0000 0.0000 0.0000 0.0000 38.7084
#
#
#
# Elastic Compliance Matrix: (Units=1/GPa)
#
#
# Indices 1 2 3 4 5 6 
#
# 1 0.007197 -0.000583 -0.002816 0.000000 0.000000 0.000000
# 2 -0.000583 0.007198 -0.002816 0.000000 0.000000 0.000000
# 3 -0.002816 -0.002816 0.022967 0.000000 0.000000 0.000000
# 4 0.000000 0.000000 0.000000 0.028176 0.000000 0.000000
# 5 0.000000 0.000000 0.000000 0.000000 0.028181 0.000000
# 6 0.000000 0.000000 0.000000 0.000000 0.000000 0.025834
#
#
# Mechanical properties :
#
#
# Convention : Reuss Voigt Hill
#
# Bulk Modulus (GPa) = 40.11194 52.11809 46.11502
# Shear Modulus (GPa) = 35.63876 40.89717 38.26796
#
# Velocity S-wave (km/s) = 4.08312 4.37399 4.23105
# Velocity P-wave (km/s) = 6.40262 7.06328 6.74105
#
# Compressibility (1/GPa) = 0.02493023
#
# Stress axis : x y z
#
# Youngs Moduli (GPa) = 138.93856 138.93624 43.53982
#
# Poissons Ratio (x) = 0.08104 0.12263
# Poissons Ratio (y) = 0.08104 0.12263
# Poissons Ratio (z) = 0.39131 0.39130
#
# Static dielectric constant tensor:
#      x y z
#    x 1.381040 0.000000 0.000000 
#    y 0.000000 1.381040 0.000000 
#    z 0.000000 0.000000 2.018220 
# 
# From -- ./inp_files/7458.got.cif
#   From: 2010.05.17/outbox.cif.g08.bks.cpg/sg136_4_cif.got.tgz:7458.got - 2010.05.20 12:54:53.
