data_PCOD9569609
_publ_section_title
;
Structure prediction by ZEFSAII (Michael W. Deem and Ramdas Pophale) SiO2 
 PCOD9569609
Probable space group: P 42/M N M
;
_chemical_formula_sum "Si O2"
_cell_formula_units_Z 72
_cell_length_a 13.793906
_cell_length_b 13.793906
_cell_length_c 16.906471
_cell_angle_alpha 90.000000
_cell_angle_beta 90.000000
_cell_angle_gamma 90.000000
_cell_volume 3216.825391
_symmetry_space_group_name_H-M "P 42/M N M"
_symmetry_group_IT_number 136
_symmetry_cell_setting 'tetragonal'
loop_
_space_group_symop_operation_xyz
x,y,z
1/2-y,1/2+x,1/2+z
-x,-y,z
1/2+y,1/2-x,1/2+z
1/2+x,1/2-y,1/2-z
1/2-x,1/2+y,1/2-z
y,x,-z
-y,-x,-z
-x,-y,-z
1/2+y,1/2-x,1/2-z
x,y,-z
1/2-y,1/2+x,1/2-z
1/2-x,1/2+y,1/2+z
1/2+x,1/2-y,1/2+z
-y,-x,z
y,x,z
loop_
_atom_site_type_symbol
_atom_site_label
_atom_site_fract_x
_atom_site_fract_y
_atom_site_fract_z
Si Si1 0.899127 0.645575 0.911870
Si Si2 0.605786 0.859631 0.658557
Si Si3 0.601195 0.398806 0.779546
Si Si4 0.216180 0.216180 0.585380
Si Si5 0.876142 0.876142 0.910110
Si Si6 0.042395 0.742039 0.307289
O O1 0.897453 0.761769 0.911086
O O2 0.797710 0.609481 0.876464
O O3 0.996709 0.615587 0.866490
O O4 0.907307 0.607329 0.000000
O O5 0.671147 0.811568 0.590609
O O6 0.664956 0.952753 0.689029
O O7 0.598026 0.780346 0.727092
O O8 0.672300 0.327701 0.832551
O O9 0.596921 0.403080 0.682604
O O10 0.650802 0.498790 0.806761
O O11 0.178398 0.178398 0.500000
O O12 0.911290 0.911290 0.000000
#
# Coordination Sequence:
#
# PCOD9569609 Si02
#       6
#    16  16   8   8   8  16
#     4  11  22  35  58  86 114 148 193 245 294 349
#     4  11  20  35  57  82 119 151 193 236 292 345
#     4  10  20  38  58  78 116 158 190 238 286 357
#     4  10  22  36  54  82 120 164 194 228 289 357
#     4  10  20  38  60  82 107 150 201 240 289 348
#     4  11  21  34  58  85 114 152 189 234 298 346
#
# _framework density 22.382314000000001
#
# number of rings (size 3 to 8) (size 9 to 14) (size 15 to 20)
#    0.000    1.333    4.444    2.667    0.000    5.333 
#    0.000    0.000    0.000    4.667    0.000    7.778 
#    0.000    0.000    0.000    0.000    0.000    0.000 
#
# Total GULP energy -400913.770407 kJ/mol
# GULP energy per Si atom -5568.246811 kJ/mol
# Density = 2.233137 g / cm^3
# Si number density = 22.382314 Si / 1000 Ang^3
#
#
#
# Elastic Constant Matrix: (Units=GPa)
#
#
# Indices 1 2 3 4 5 6 
#
# 1 31.2854 63.5562 17.5739 0.0000 0.0000 0.0000
# 2 63.5562 31.2854 17.5739 0.0000 0.0000 0.0000
# 3 17.5739 17.5739 111.0941 0.0000 0.0000 0.0000
# 4 0.0000 0.0000 0.0000 18.0558 0.0000 0.0000
# 5 0.0000 0.0000 0.0000 0.0000 18.0558 0.0000
# 6 0.0000 0.0000 0.0000 0.0000 0.0000 50.6706
#
#
#
# Elastic Compliance Matrix: (Units=1/GPa)
#
#
# Indices 1 2 3 4 5 6 
#
# 1 -0.009894 0.021094 -0.001772 0.000000 0.000000 0.000000
# 2 0.021094 -0.009894 -0.001772 0.000000 0.000000 0.000000
# 3 -0.001772 -0.001772 0.009562 0.000000 0.000000 0.000000
# 4 0.000000 0.000000 0.000000 0.055384 0.000000 0.000000
# 5 0.000000 0.000000 0.000000 0.000000 0.055384 0.000000
# 6 0.000000 0.000000 0.000000 0.000000 0.000000 0.019735
#
#
# Mechanical properties :
#
#
# Convention : Reuss Voigt Hill
#
# Bulk Modulus (GPa) = 40.19978 41.23033 40.71505
# Shear Modulus (GPa) = 53.49410 22.35386 37.92398
#
# Velocity S-wave (km/s) = 4.89408 3.16370 4.12074
# Velocity P-wave (km/s) = 7.06651 5.63970 6.39303
#
# Compressibility (1/GPa) = 0.02487576
#
# Stress axis : x y z
#
# Youngs Moduli (GPa) = -101.07511 -101.07511 104.58134
#
# Poissons Ratio (x) = 2.13209 0.18530
# Poissons Ratio (y) = 2.13209 0.18530
# Poissons Ratio (z) = -0.17909 -0.17909
#
# Static dielectric constant tensor:
#      x y z
#    x 1.872620 0.000000 0.000000 
#    y 0.000000 1.872620 0.000000 
#    z 0.000000 0.000000 1.906590 
# 
# From -- ./inp_files/6111.got.cif
#   From: 2010.05.17/outbox.cif.g08.bks.cpg/sg136_4_cif.got.tgz:6111.got - 2010.05.20 12:54:53.
