data_PCOD9569672
_publ_section_title
;
Structure prediction by ZEFSAII (Michael W. Deem and Ramdas Pophale) SiO2 
 PCOD9569672
Probable space group: P 42/M N M
;
_chemical_formula_sum "Si O2"
_cell_formula_units_Z 80
_cell_length_a 10.803014
_cell_length_b 10.803014
_cell_length_c 32.591171
_cell_angle_alpha 90.000000
_cell_angle_beta 90.000000
_cell_angle_gamma 90.000000
_cell_volume 3803.556245
_symmetry_space_group_name_H-M "P 42/M N M"
_symmetry_group_IT_number 136
_symmetry_cell_setting 'tetragonal'
loop_
_space_group_symop_operation_xyz
x,y,z
1/2-y,1/2+x,1/2+z
-x,-y,z
1/2+y,1/2-x,1/2+z
1/2+x,1/2-y,1/2-z
1/2-x,1/2+y,1/2-z
y,x,-z
-y,-x,-z
-x,-y,-z
1/2+y,1/2-x,1/2-z
x,y,-z
1/2-y,1/2+x,1/2-z
1/2-x,1/2+y,1/2+z
1/2+x,1/2-y,1/2+z
-y,-x,z
y,x,z
loop_
_atom_site_type_symbol
_atom_site_label
_atom_site_fract_x
_atom_site_fract_y
_atom_site_fract_z
Si Si1 0.499877 0.695553 0.270011
Si Si2 0.579586 0.123485 0.196890
Si Si3 0.324382 0.889430 0.453470
Si Si4 0.196396 0.989769 0.049866
Si Si5 0.003222 0.794865 0.376996
O O1 0.389401 0.610600 0.287294
O O2 0.600360 0.600360 0.251308
O O3 0.443938 0.785418 0.235424
O O4 0.573447 0.780474 0.301987
O O5 0.535245 0.198061 0.157506
O O6 0.500000 0.000000 0.201301
O O7 0.338661 0.936718 0.500000
O O8 0.222704 0.777297 0.455583
O O9 0.452106 0.827055 0.437915
O O10 0.271480 0.983442 0.420709
O O11 0.091937 0.091937 0.060913
O O12 0.200459 0.988050 0.000000
O O13 0.142121 0.857880 0.063860
O O14 0.132884 0.867117 0.368055
O O15 0.899349 0.899349 0.378658
#
# Coordination Sequence:
#
# PCOD9569672 Si02
#       5
#    16  16  16  16  16
#     4  11  22  38  64  95 126 160 199 247 303 368
#     4  12  23  39  61  91 126 164 202 254 306 371
#     4   8  14  26  47  80 120 162 212 265 315 373
#     4   7   9  15  32  61  97 140 193 251 306 358
#     4  10  21  36  57  88 129 175 216 258 309 370
#
# _framework density 21.032948999999999
#
# number of rings (size 3 to 8) (size 9 to 14) (size 15 to 20)
#    0.000    2.400    2.000    4.200    0.000    2.800 
#    0.000    2.000    0.000    4.200    0.000    2.800 
#    0.000    0.800    0.000    4.200    0.000    0.200 
#
# Total GULP energy -446239.287803 kJ/mol
# GULP energy per Si atom -5577.991098 kJ/mol
# Density = 2.098508 g / cm^3
# Si number density = 21.032949 Si / 1000 Ang^3
#
#
#
# Elastic Constant Matrix: (Units=GPa)
#
#
# Indices 1 2 3 4 5 6 
#
# 1 97.9771 55.0120 39.3122 0.0000 0.0000 0.0000
# 2 55.0120 97.9771 39.3122 0.0000 0.0000 0.0000
# 3 39.3122 39.3122 77.4219 0.0000 0.0000 0.0000
# 4 0.0000 0.0000 0.0000 -21.2949 0.0000 0.0000
# 5 0.0000 0.0000 0.0000 0.0000 -21.2949 0.0000
# 6 0.0000 0.0000 0.0000 0.0000 0.0000 32.3926
#
#
#
# Elastic Compliance Matrix: (Units=1/GPa)
#
#
# Indices 1 2 3 4 5 6 
#
# 1 0.016060 -0.007215 -0.004491 0.000000 0.000000 0.000000
# 2 -0.007215 0.016060 -0.004491 0.000000 0.000000 0.000000
# 3 -0.004491 -0.004491 0.017477 0.000000 0.000000 0.000000
# 4 0.000000 0.000000 0.000000 -0.046960 0.000000 0.000000
# 5 0.000000 0.000000 0.000000 0.000000 -0.046960 0.000000
# 6 0.000000 0.000000 0.000000 0.000000 0.000000 0.030871
#
#
# Mechanical properties :
#
#
# Convention : Reuss Voigt Hill
#
# Bulk Modulus (GPa) = 58.13238 60.07211 59.10224
# Shear Modulus (GPa) = 202.62851 7.27655 104.95253
#
# Velocity S-wave (km/s) = 9.82587 1.86202 7.07159
# Velocity P-wave (km/s) = 12.50716 5.76591 9.73845
#
# Compressibility (1/GPa) = 0.01720212
#
# Stress axis : x y z
#
# Youngs Moduli (GPa) = 62.26837 62.26837 57.21852
#
# Poissons Ratio (x) = 0.44928 0.25696
# Poissons Ratio (y) = 0.44928 0.25696
# Poissons Ratio (z) = 0.27964 0.27964
#
# Static dielectric constant tensor:
#      x y z
#    x 1.798980 0.000000 0.000000 
#    y 0.000000 1.798980 0.000000 
#    z 0.000000 0.000000 1.724280 
# 
# From -- ./inp_files/9568.got.cif
#   From: 2010.05.17/outbox.cif.g08.bks.cpg/sg136_5_cif.got.tgz:9568.got - 2010.05.20 12:54:53.
