data_PCOD9569335
_publ_section_title
;
Structure prediction by ZEFSAII (Michael W. Deem and Ramdas Pophale) SiO2 
 PCOD9569335
Probable space group: P 42/M N M
;
_chemical_formula_sum "Si O2"
_cell_formula_units_Z 104
_cell_length_a 18.097049
_cell_length_b 18.097049
_cell_length_c 18.698089
_cell_angle_alpha 90.000000
_cell_angle_beta 90.000000
_cell_angle_gamma 90.000000
_cell_volume 6123.683654
_symmetry_space_group_name_H-M "P 42/M N M"
_symmetry_group_IT_number 136
_symmetry_cell_setting 'tetragonal'
loop_
_space_group_symop_operation_xyz
x,y,z
1/2-y,1/2+x,1/2+z
-x,-y,z
1/2+y,1/2-x,1/2+z
1/2+x,1/2-y,1/2-z
1/2-x,1/2+y,1/2-z
y,x,-z
-y,-x,-z
-x,-y,-z
1/2+y,1/2-x,1/2-z
x,y,-z
1/2-y,1/2+x,1/2-z
1/2-x,1/2+y,1/2+z
1/2+x,1/2-y,1/2+z
-y,-x,z
y,x,z
loop_
_atom_site_type_symbol
_atom_site_label
_atom_site_fract_x
_atom_site_fract_y
_atom_site_fract_z
Si Si1 0.503995 0.379423 0.671843
Si Si2 0.669217 0.990647 0.327947
Si Si3 0.945566 0.571242 0.919343
Si Si4 0.098484 0.776902 0.916783
Si Si5 0.563178 0.563178 0.918304
Si Si6 0.665822 0.456502 0.168019
Si Si7 0.146699 0.439100 0.678995
O O1 0.573095 0.426906 0.643610
O O2 0.438778 0.438778 0.686714
O O3 0.470984 0.321336 0.616335
O O4 0.527138 0.344825 0.747547
O O5 0.747417 0.954969 0.348338
O O6 0.609084 0.927074 0.311657
O O7 0.631625 0.042043 0.387975
O O8 0.677755 0.038286 0.255835
O O9 0.000000 0.500000 0.921965
O O10 0.986886 0.626451 0.865489
O O11 0.939038 0.600252 0.000000
O O12 0.168551 0.831450 0.911001
O O13 0.105913 0.704627 0.868617
O O14 0.087473 0.758989 0.000000
O O15 0.500000 0.500000 0.920526
O O16 0.524414 0.629362 0.875464
O O17 0.582472 0.582472 0.000000
O O18 0.616995 0.383006 0.151870
#
# Coordination Sequence:
#
# PCOD9569335 Si02
#       7
#    16  16  16  16   8  16  16
#     4   9  16  29  51  76 102 132 172 219 260 305
#     4  11  21  33  57  80 108 139 182 229 275 324
#     4   9  19  34  54  78 104 134 174 225 273 316
#     4  10  21  35  53  79 112 146 178 216 273 335
#     4   9  18  34  56  80 109 143 181 225 269 321
#     4  10  19  33  54  82 111 143 180 221 274 327
#     4  11  20  35  55  80 108 143 180 228 273 329
#
# _framework density 16.983241
#
# number of rings (size 3 to 8) (size 9 to 14) (size 15 to 20)
#    0.000    2.077    3.846    0.462    0.000    2.154 
#    0.000    1.538    0.000    1.846    2.000    0.000 
#    0.000    0.000    0.000    0.000    0.000    0.000 
#
# Total GULP energy -579667.772117 kJ/mol
# GULP energy per Si atom -5573.728578 kJ/mol
# Density = 1.694459 g / cm^3
# Si number density = 16.983241 Si / 1000 Ang^3
#
#
#
# Elastic Constant Matrix: (Units=GPa)
#
#
# Indices 1 2 3 4 5 6 
#
# 1 61.6350 1.2837 17.6128 0.0000 0.0000 0.0000
# 2 1.2837 61.6350 17.6128 0.0000 0.0000 0.0000
# 3 17.6128 17.6128 83.8198 0.0000 0.0000 0.0000
# 4 0.0000 0.0000 0.0000 16.9515 0.0000 0.0000
# 5 0.0000 0.0000 0.0000 0.0000 16.9515 0.0000
# 6 0.0000 0.0000 0.0000 0.0000 0.0000 15.1786
#
#
#
# Elastic Compliance Matrix: (Units=1/GPa)
#
#
# Indices 1 2 3 4 5 6 
#
# 1 0.017291 0.000721 -0.003785 0.000000 0.000000 0.000000
# 2 0.000721 0.017291 -0.003785 0.000000 0.000000 0.000000
# 3 -0.003785 -0.003785 0.013521 0.000000 0.000000 0.000000
# 4 0.000000 0.000000 0.000000 0.058992 0.000000 0.000000
# 5 0.000000 0.000000 0.000000 0.000000 0.058992 0.000000
# 6 0.000000 0.000000 0.000000 0.000000 0.000000 0.065882
#
#
# Mechanical properties :
#
#
# Convention : Reuss Voigt Hill
#
# Bulk Modulus (GPa) = 29.06435 31.12314 30.09375
# Shear Modulus (GPa) = 19.44508 21.18836 20.31672
#
# Velocity S-wave (km/s) = 3.38739 3.53598 3.46248
# Velocity P-wave (km/s) = 5.69648 5.91916 5.80889
#
# Compressibility (1/GPa) = 0.03440641
#
# Stress axis : x y z
#
# Youngs Moduli (GPa) = 57.83317 57.83317 73.95905
#
# Poissons Ratio (x) = -0.04172 0.27993
# Poissons Ratio (y) = -0.04172 0.27993
# Poissons Ratio (z) = 0.21889 0.21889
#
# Static dielectric constant tensor:
#      x y z
#    x 1.571940 0.000000 0.000000 
#    y 0.000000 1.571940 0.000000 
#    z 0.000000 0.000000 1.564630 
# 
# From -- ./inp_files/6415.got.cif
#   From: 2010.05.17/outbox.cif.g08.bks.cpg/sg136_4_cif.got.tgz:6415.got - 2010.05.20 12:54:53.
