data_PCOD9569028
_publ_section_title
;
Structure prediction by ZEFSAII (Michael W. Deem and Ramdas Pophale) SiO2 
 PCOD9569028
Probable space group: P 42/M B C
;
_chemical_formula_sum "Si O2"
_cell_formula_units_Z 112
_cell_length_a 14.322152
_cell_length_b 14.322152
_cell_length_c 24.259281
_cell_angle_alpha 90.000000
_cell_angle_beta 90.000000
_cell_angle_gamma 90.000000
_cell_volume 4976.161676
_symmetry_space_group_name_H-M "P 42/M B C"
_symmetry_group_IT_number 135
_symmetry_cell_setting 'tetragonal'
loop_
_space_group_symop_operation_xyz
x,y,z
-y,x,1/2+z
-x,-y,z
y,-x,1/2+z
1/2+x,1/2-y,-z
1/2-x,1/2+y,-z
1/2+y,1/2+x,1/2-z
1/2-y,1/2-x,1/2-z
-x,-y,-z
y,-x,1/2-z
x,y,-z
-y,x,1/2-z
1/2-x,1/2+y,z
1/2+x,1/2-y,z
1/2-y,1/2-x,1/2+z
1/2+y,1/2+x,1/2+z
loop_
_atom_site_type_symbol
_atom_site_label
_atom_site_fract_x
_atom_site_fract_y
_atom_site_fract_z
Si Si1 0.014646 0.279009 0.134718
Si Si2 0.606677 0.031094 0.142389
Si Si3 0.043024 0.222300 0.563173
Si Si4 0.797498 0.172047 0.223816
Si Si5 0.249990 0.184578 0.601834
Si Si6 0.523582 0.759673 0.264374
Si Si7 0.869369 0.857400 0.064367
O O1 0.093542 0.358023 0.134525
O O2 0.992175 0.270837 0.199241
O O3 0.057994 0.188536 0.106112
O O4 0.917734 0.298059 0.102061
O O5 0.690287 0.011889 0.100372
O O6 0.646154 0.988907 0.199948
O O7 0.500000 0.000000 0.133881
O O8 0.034770 0.252055 0.500000
O O9 0.148280 0.188551 0.573576
O O10 0.967709 0.141221 0.572644
O O11 0.697664 0.197664 0.250000
O O12 0.801865 0.224236 0.166033
O O13 0.804519 0.061864 0.215086
O O14 0.875585 0.211554 0.265522
O O15 0.311475 0.268096 0.577664
O O16 0.892149 0.838107 0.000000
#
# Coordination Sequence:
#
# PCOD9569028 Si02
#       7
#    16  16  16  16  16  16  16
#     4  11  25  41  67 102 136 179 234 282 351 424
#     4  12  25  43  71 105 143 185 236 289 354 429
#     4  11  25  45  69  99 140 185 236 303 361 416
#     4  11  24  41  65  98 138 183 229 279 349 417
#     4  11  23  43  67  97 136 181 229 292 350 421
#     4  11  25  41  67 100 140 184 222 288 345 424
#     4  11  24  44  70  96 134 183 232 295 358 414
#
# _framework density 22.507308999999999
#
# number of rings (size 3 to 8) (size 9 to 14) (size 15 to 20)
#    0.000    0.857    2.857    3.429    8.000    2.857 
#    0.000    4.286    0.000    0.000    0.000    0.000 
#    0.000    0.000    0.000    0.000    0.000    0.000 
#
# Total GULP energy -625824.677993 kJ/mol
# GULP energy per Si atom -5587.720339 kJ/mol
# Density = 2.245608 g / cm^3
# Si number density = 22.507309 Si / 1000 Ang^3
#
#
#
# Elastic Constant Matrix: (Units=GPa)
#
#
# Indices 1 2 3 4 5 6 
#
# 1 66.1755 -9.6301 8.3211 0.0000 0.0000 0.0000
# 2 -9.6301 66.1755 8.3211 0.0000 0.0000 0.0000
# 3 8.3211 8.3211 77.8385 0.0000 0.0000 0.0000
# 4 0.0000 0.0000 0.0000 5.8078 0.0000 0.0000
# 5 0.0000 0.0000 0.0000 0.0000 5.8078 0.0000
# 6 0.0000 0.0000 0.0000 0.0000 0.0000 32.8136
#
#
#
# Elastic Compliance Matrix: (Units=1/GPa)
#
#
# Indices 1 2 3 4 5 6 
#
# 1 0.015726 0.002534 -0.001952 0.000000 0.000000 0.000000
# 2 0.002534 0.015726 -0.001952 0.000000 0.000000 0.000000
# 3 -0.001952 -0.001952 0.013264 0.000000 0.000000 0.000000
# 4 0.000000 0.000000 0.000000 0.172181 0.000000 0.000000
# 5 0.000000 0.000000 0.000000 0.000000 0.172181 0.000000
# 6 0.000000 0.000000 0.000000 0.000000 0.000000 0.030475
#
#
# Mechanical properties :
#
#
# Convention : Reuss Voigt Hill
#
# Bulk Modulus (GPa) = 23.82347 24.91262 24.36804
# Shear Modulus (GPa) = 11.46042 22.43101 16.94572
#
# Velocity S-wave (km/s) = 2.25896 3.16034 2.74688
# Velocity P-wave (km/s) = 4.17273 4.94062 4.57282
#
# Compressibility (1/GPa) = 0.04197541
#
# Stress axis : x y z
#
# Youngs Moduli (GPa) = 63.59087 63.59087 75.38948
#
# Poissons Ratio (x) = -0.16113 0.14716
# Poissons Ratio (y) = -0.16113 0.14716
# Poissons Ratio (z) = 0.12413 0.12413
#
# Static dielectric constant tensor:
#      x y z
#    x 1.884300 0.000000 0.000000 
#    y 0.000000 1.884300 0.000000 
#    z 0.000000 0.000000 1.914920 
# 
# From -- ./inp_files/6103.got.cif
#   From: 2010.05.17/outbox.cif.g08.bks.cpg/sg135_4_cif.got.tgz:6103.got - 2010.05.20 12:50:20.
