data_PCOD9569502
_publ_section_title
;
Structure prediction by ZEFSAII (Michael W. Deem and Ramdas Pophale) SiO2 
 PCOD9569502
Probable space group: P 42/M N M
;
_chemical_formula_sum "Si O2"
_cell_formula_units_Z 96
_cell_length_a 24.821361
_cell_length_b 24.821361
_cell_length_c 8.103403
_cell_angle_alpha 90.000000
_cell_angle_beta 90.000000
_cell_angle_gamma 90.000000
_cell_volume 4992.506279
_symmetry_space_group_name_H-M "P 42/M N M"
_symmetry_group_IT_number 136
_symmetry_cell_setting 'tetragonal'
loop_
_space_group_symop_operation_xyz
x,y,z
1/2-y,1/2+x,1/2+z
-x,-y,z
1/2+y,1/2-x,1/2+z
1/2+x,1/2-y,1/2-z
1/2-x,1/2+y,1/2-z
y,x,-z
-y,-x,-z
-x,-y,-z
1/2+y,1/2-x,1/2-z
x,y,-z
1/2-y,1/2+x,1/2-z
1/2-x,1/2+y,1/2+z
1/2+x,1/2-y,1/2+z
-y,-x,z
y,x,z
loop_
_atom_site_type_symbol
_atom_site_label
_atom_site_fract_x
_atom_site_fract_y
_atom_site_fract_z
Si Si1 0.555248 0.065854 0.804200
Si Si2 0.851740 0.645370 0.695018
Si Si3 0.769165 0.145472 0.798398
Si Si4 0.150282 0.064518 0.305976
Si Si5 0.235002 0.148690 0.192728
Si Si6 0.642620 0.557415 0.300762
O O1 0.496192 0.072505 0.724966
O O2 0.600638 0.107207 0.739064
O O3 0.548536 0.074224 0.000000
O O4 0.849227 0.633302 0.500000
O O5 0.791319 0.637267 0.763449
O O6 0.861617 0.708776 0.718559
O O7 0.799458 0.200543 0.745643
O O8 0.808030 0.096257 0.751894
O O9 0.767546 0.147225 0.000000
O O10 0.160307 0.072389 0.500000
O O11 0.094208 0.094208 0.264105
O O12 0.196537 0.097102 0.211828
O O13 0.148219 0.002054 0.266506
O O14 0.199668 0.199668 0.256883
O O15 0.245990 0.158069 0.000000
O O16 0.642599 0.555098 0.500000
O O17 0.588234 0.588234 0.248440
#
# Coordination Sequence:
#
# PCOD9569502 Si02
#       6
#    16  16  16  16  16  16
#     4  10  21  37  56  78 106 140 177 218 266 315
#     4  10  20  34  56  83 106 134 173 212 255 312
#     4   8  15  30  52  77 106 139 172 207 251 306
#     4  10  21  36  53  74 103 140 180 221 265 312
#     4  10  21  36  54  78 108 139 171 211 260 311
#     4   9  18  33  53  77 105 139 180 223 266 312
#
# _framework density 19.228819000000001
#
# number of rings (size 3 to 8) (size 9 to 14) (size 15 to 20)
#    0.000    2.500    0.000    3.500    0.000    6.000 
#    0.000    4.167    0.000    1.000    0.000    0.000 
#    0.000    0.000    0.000    0.000    0.000    0.000 
#
# Total GULP energy -535539.260696 kJ/mol
# GULP energy per Si atom -5578.533966 kJ/mol
# Density = 1.918505 g / cm^3
# Si number density = 19.228819 Si / 1000 Ang^3
#
#
#
# Elastic Constant Matrix: (Units=GPa)
#
#
# Indices 1 2 3 4 5 6 
#
# 1 131.2731 46.6283 -6.6413 0.0000 0.0000 0.0000
# 2 46.6283 131.2731 -6.6413 0.0000 0.0000 0.0000
# 3 -6.6413 -6.6413 10.1314 0.0000 0.0000 0.0000
# 4 0.0000 0.0000 0.0000 20.1928 0.0000 0.0000
# 5 0.0000 0.0000 0.0000 0.0000 20.1928 0.0000
# 6 0.0000 0.0000 0.0000 0.0000 0.0000 24.7241
#
#
#
# Elastic Compliance Matrix: (Units=1/GPa)
#
#
# Indices 1 2 3 4 5 6 
#
# 1 0.008862 -0.002952 0.003874 0.000000 0.000000 0.000000
# 2 -0.002952 0.008862 0.003874 0.000000 0.000000 0.000000
# 3 0.003874 0.003874 0.103782 0.000000 0.000000 0.000000
# 4 0.000000 0.000000 0.000000 0.049523 0.000000 0.000000
# 5 0.000000 0.000000 0.000000 0.000000 0.049523 0.000000
# 6 0.000000 0.000000 0.000000 0.000000 0.000000 0.040446
#
#
# Mechanical properties :
#
#
# Convention : Reuss Voigt Hill
#
# Bulk Modulus (GPa) = 7.62773 37.70767 22.66770
# Shear Modulus (GPa) = 16.94312 28.97740 22.96026
#
# Velocity S-wave (km/s) = 2.97161 3.88619 3.45926
# Velocity P-wave (km/s) = 3.96855 6.30787 5.26966
#
# Compressibility (1/GPa) = 0.13110063
#
# Stress axis : x y z
#
# Youngs Moduli (GPa) = 112.83860 112.83860 9.63554
#
# Poissons Ratio (x) = 0.33308 -0.03733
# Poissons Ratio (y) = 0.33308 -0.03733
# Poissons Ratio (z) = -0.43718 -0.43718
#
# Static dielectric constant tensor:
#      x y z
#    x 1.660240 0.000000 0.000000 
#    y 0.000000 1.660240 0.000000 
#    z 0.000000 0.000000 1.682040 
# 
# From -- ./inp_files/1958.got.cif
#   From: 2010.05.17/outbox.cif.g08.bks.cpg/sg136_1_cif.got.tgz:1958.got - 2010.05.20 12:54:53.
