data_PCOD9569259
_publ_section_title
;
Structure prediction by ZEFSAII (Michael W. Deem and Ramdas Pophale) SiO2 
 PCOD9569259
Probable space group: P 42/M N M
;
_chemical_formula_sum "Si O2"
_cell_formula_units_Z 96
_cell_length_a 13.988899
_cell_length_b 13.988899
_cell_length_c 31.078404
_cell_angle_alpha 90.000000
_cell_angle_beta 90.000000
_cell_angle_gamma 90.000000
_cell_volume 6081.710976
_symmetry_space_group_name_H-M "P 42/M N M"
_symmetry_group_IT_number 136
_symmetry_cell_setting 'tetragonal'
loop_
_space_group_symop_operation_xyz
x,y,z
1/2-y,1/2+x,1/2+z
-x,-y,z
1/2+y,1/2-x,1/2+z
1/2+x,1/2-y,1/2-z
1/2-x,1/2+y,1/2-z
y,x,-z
-y,-x,-z
-x,-y,-z
1/2+y,1/2-x,1/2-z
x,y,-z
1/2-y,1/2+x,1/2-z
1/2-x,1/2+y,1/2+z
1/2+x,1/2-y,1/2+z
-y,-x,z
y,x,z
loop_
_atom_site_type_symbol
_atom_site_label
_atom_site_fract_x
_atom_site_fract_y
_atom_site_fract_z
Si Si1 0.680958 0.167510 0.387598
Si Si2 0.536559 0.151957 0.238193
Si Si3 0.602526 0.753870 0.618389
Si Si4 0.529838 0.111493 0.859024
Si Si5 0.446516 0.708909 0.550713
Si Si6 0.783505 0.937632 0.816446
O O1 0.786800 0.213201 0.388521
O O2 0.623170 0.211998 0.427822
O O3 0.628261 0.212661 0.345538
O O4 0.664344 0.054976 0.384274
O O5 0.431787 0.110574 0.249162
O O6 0.542025 0.162249 0.187115
O O7 0.555748 0.241980 0.268565
O O8 0.704301 0.704301 0.620458
O O9 0.608372 0.868063 0.618136
O O10 0.543614 0.716550 0.577257
O O11 0.538994 0.721920 0.659582
O O12 0.500000 0.000000 0.851139
O O13 0.458128 0.722506 0.500000
O O14 0.391450 0.608551 0.558078
O O15 0.885521 0.885521 0.818080
#
# Coordination Sequence:
#
# PCOD9569259 Si02
#       6
#    16  16  16  16  16  16
#     4   9  17  31  52  75  99 129 168 212 256 301
#     4  11  16  28  47  70  95 126 169 218 248 283
#     4  11  22  34  50  74 104 138 173 212 256 307
#     4  12  18  32  53  74 101 134 174 215 253 301
#     4   9  18  33  54  79 106 137 170 202 247 311
#     4  10  19  31  47  70  99 134 170 206 253 303
#
# _framework density 15.785031
#
# number of rings (size 3 to 8) (size 9 to 14) (size 15 to 20)
#    0.000    1.667    8.333    1.500    0.000    2.333 
#    0.000    3.333    0.000    0.500    0.000    0.000 
#    0.000    0.000    0.000    5.667    0.000    0.000 
#
# Total GULP energy -535136.868817 kJ/mol
# GULP energy per Si atom -5574.342384 kJ/mol
# Density = 1.574910 g / cm^3
# Si number density = 15.785031 Si / 1000 Ang^3
#
#
#
# Elastic Constant Matrix: (Units=GPa)
#
#
# Indices 1 2 3 4 5 6 
#
# 1 56.2447 38.5853 21.8138 0.0000 0.0000 0.0000
# 2 38.5853 56.2447 21.8138 0.0000 0.0000 0.0000
# 3 21.8138 21.8138 54.2699 0.0000 0.0000 0.0000
# 4 0.0000 0.0000 0.0000 8.0597 0.0000 0.0000
# 5 0.0000 0.0000 0.0000 0.0000 8.0597 0.0000
# 6 0.0000 0.0000 0.0000 0.0000 0.0000 13.8461
#
#
#
# Elastic Compliance Matrix: (Units=1/GPa)
#
#
# Indices 1 2 3 4 5 6 
#
# 1 0.034782 -0.021845 -0.005200 0.000000 0.000000 0.000000
# 2 -0.021845 0.034782 -0.005200 0.000000 0.000000 0.000000
# 3 -0.005200 -0.005200 0.022607 0.000000 0.000000 0.000000
# 4 0.000000 0.000000 0.000000 0.124073 0.000000 0.000000
# 5 0.000000 0.000000 0.000000 0.000000 0.124073 0.000000
# 6 0.000000 0.000000 0.000000 0.000000 0.000000 0.072223
#
#
# Mechanical properties :
#
#
# Convention : Reuss Voigt Hill
#
# Bulk Modulus (GPa) = 36.12578 36.79835 36.46206
# Shear Modulus (GPa) = 10.28258 11.62953 10.95606
#
# Velocity S-wave (km/s) = 2.55505 2.71725 2.63740
# Velocity P-wave (km/s) = 5.62496 5.76258 5.69419
#
# Compressibility (1/GPa) = 0.02768106
#
# Stress axis : x y z
#
# Youngs Moduli (GPa) = 28.75013 28.75013 44.23418
#
# Poissons Ratio (x) = 0.62804 0.23003
# Poissons Ratio (y) = 0.62804 0.23003
# Poissons Ratio (z) = 0.14951 0.14951
#
# Static dielectric constant tensor:
#      x y z
#    x 1.530290 0.000000 0.000000 
#    y 0.000000 1.530290 0.000000 
#    z 0.000000 0.000000 1.525960 
# 
# From -- ./inp_files/9860.got.cif
#   From: 2010.05.17/outbox.cif.g08.bks.cpg/sg136_5_cif.got.tgz:9860.got - 2010.05.20 12:54:53.
