data_PCOD9569204
_publ_section_title
;
Structure prediction by ZEFSAII (Michael W. Deem and Ramdas Pophale) SiO2 
 PCOD9569204
Probable space group: P 42/M N M
;
_chemical_formula_sum "Si O2"
_cell_formula_units_Z 64
_cell_length_a 12.536692
_cell_length_b 12.536692
_cell_length_c 24.078782
_cell_angle_alpha 90.000000
_cell_angle_beta 90.000000
_cell_angle_gamma 90.000000
_cell_volume 3784.429572
_symmetry_space_group_name_H-M "P 42/M N M"
_symmetry_group_IT_number 136
_symmetry_cell_setting 'tetragonal'
loop_
_space_group_symop_operation_xyz
x,y,z
1/2-y,1/2+x,1/2+z
-x,-y,z
1/2+y,1/2-x,1/2+z
1/2+x,1/2-y,1/2-z
1/2-x,1/2+y,1/2-z
y,x,-z
-y,-x,-z
-x,-y,-z
1/2+y,1/2-x,1/2-z
x,y,-z
1/2-y,1/2+x,1/2-z
1/2-x,1/2+y,1/2+z
1/2+x,1/2-y,1/2+z
-y,-x,z
y,x,z
loop_
_atom_site_type_symbol
_atom_site_label
_atom_site_fract_x
_atom_site_fract_y
_atom_site_fract_z
Si Si1 0.720375 0.890939 0.897347
Si Si2 0.728683 0.548290 0.116036
Si Si3 0.480297 0.127846 0.500000
Si Si4 0.091793 0.091793 0.308036
Si Si5 0.247448 0.070909 0.500000
Si Si6 0.909735 0.909735 0.820908
O O1 0.795029 0.795029 0.921792
O O2 0.619920 0.831295 0.869355
O O3 0.800615 0.942721 0.852712
O O4 0.679206 0.966706 0.945622
O O5 0.629323 0.629323 0.112536
O O6 0.692272 0.457272 0.158953
O O7 0.748213 0.499612 0.055411
O O8 0.353632 0.141786 0.500000
O O9 0.500000 0.000000 0.500000
O O10 0.112941 0.112941 0.243523
O O11 0.000000 0.000000 0.308624
O O12 0.142525 0.142525 0.500000
O O13 0.000000 0.000000 0.825903
#
# Coordination Sequence:
#
# PCOD9569204 Si02
#       6
#    16  16   8   8   8   8
#     4   9  20  37  61  78 105 154 195 226 278 351
#     4  10  18  33  57  85 113 145 187 224 287 354
#     4  12  21  35  56  81 121 150 180 235 291 351
#     4   9  18  33  59  83 114 144 185 247 277 327
#     4  12  23  32  51  89 121 147 180 234 301 351
#     4   9  20  39  61  84 107 150 212 243 269 322
#
# _framework density 16.911401000000001
#
# number of rings (size 3 to 8) (size 9 to 14) (size 15 to 20)
#    0.750    1.250    3.750    0.750    0.000    3.500 
#    0.000    3.125    0.000    0.000    0.000    0.000 
#    0.000    0.000    0.000    0.000    0.000    0.000 
#
# Total GULP energy -356319.541044 kJ/mol
# GULP energy per Si atom -5567.492829 kJ/mol
# Density = 1.687291 g / cm^3
# Si number density = 16.911401 Si / 1000 Ang^3
#
#
#
# Elastic Constant Matrix: (Units=GPa)
#
#
# Indices 1 2 3 4 5 6 
#
# 1 69.1759 20.7697 49.1092 0.0000 0.0000 0.0000
# 2 20.7697 69.1759 49.1092 0.0000 0.0000 0.0000
# 3 49.1092 49.1092 138.0669 0.0000 0.0000 0.0000
# 4 0.0000 0.0000 0.0000 -1.2941 0.0000 0.0000
# 5 0.0000 0.0000 0.0000 0.0000 -1.2941 0.0000
# 6 0.0000 0.0000 0.0000 0.0000 0.0000 27.4152
#
#
#
# Elastic Compliance Matrix: (Units=1/GPa)
#
#
# Indices 1 2 3 4 5 6 
#
# 1 0.019418 -0.001240 -0.006466 0.000000 0.000000 0.000000
# 2 -0.001240 0.019418 -0.006466 0.000000 0.000000 0.000000
# 3 -0.006466 -0.006466 0.011843 0.000000 0.000000 0.000000
# 4 0.000000 0.000000 0.000000 -0.772761 0.000000 0.000000
# 5 0.000000 0.000000 0.000000 0.000000 -0.772761 0.000000
# 6 0.000000 0.000000 0.000000 0.000000 0.000000 0.036476
#
#
# Mechanical properties :
#
#
# Convention : Reuss Voigt Hill
#
# Bulk Modulus (GPa) = 44.77111 57.15499 50.96305
# Shear Modulus (GPa) = -3.51475 15.46080 5.97303
#
# Velocity S-wave (km/s) = -1.44321 3.02689 1.88139
# Velocity P-wave (km/s) = 4.87384 6.78868 5.90933
#
# Compressibility (1/GPa) = 0.02233583
#
# Stress axis : x y z
#
# Youngs Moduli (GPa) = 51.49738 51.49738 84.44091
#
# Poissons Ratio (x) = 0.06386 0.54599
# Poissons Ratio (y) = 0.06386 0.54599
# Poissons Ratio (z) = 0.33298 0.33298
#
# Static dielectric constant tensor:
#      x y z
#    x 1.587500 0.000000 0.000000 
#    y 0.000000 1.587500 0.000000 
#    z 0.000000 0.000000 1.545750 
# 
# From -- ./inp_files/8875.got.cif
#   From: 2010.05.17/outbox.cif.g08.bks.cpg/sg136_5_cif.got.tgz:8875.got - 2010.05.20 12:54:53.
