data_PCOD9569233
_publ_section_title
;
Structure prediction by ZEFSAII (Michael W. Deem and Ramdas Pophale) SiO2 
 PCOD9569233
Probable space group: P 42/M N M
;
_chemical_formula_sum "Si O2"
_cell_formula_units_Z 104
_cell_length_a 31.008435
_cell_length_b 31.008435
_cell_length_c 9.156102
_cell_angle_alpha 90.000000
_cell_angle_beta 90.000000
_cell_angle_gamma 90.000000
_cell_volume 8803.803040
_symmetry_space_group_name_H-M "P 42/M N M"
_symmetry_group_IT_number 136
_symmetry_cell_setting 'tetragonal'
loop_
_space_group_symop_operation_xyz
x,y,z
1/2-y,1/2+x,1/2+z
-x,-y,z
1/2+y,1/2-x,1/2+z
1/2+x,1/2-y,1/2-z
1/2-x,1/2+y,1/2-z
y,x,-z
-y,-x,-z
-x,-y,-z
1/2+y,1/2-x,1/2-z
x,y,-z
1/2-y,1/2+x,1/2-z
1/2-x,1/2+y,1/2+z
1/2+x,1/2-y,1/2+z
-y,-x,z
y,x,z
loop_
_atom_site_type_symbol
_atom_site_label
_atom_site_fract_x
_atom_site_fract_y
_atom_site_fract_z
Si Si1 0.341675 0.267558 0.167494
Si Si2 0.596358 0.669393 0.673752
Si Si3 0.780786 0.293598 0.832238
Si Si4 0.279915 0.646008 0.667981
Si Si5 0.132792 0.987069 0.323924
Si Si6 0.150126 0.078021 0.823819
Si Si7 0.465335 0.465335 0.822969
O O1 0.303807 0.303807 0.166490
O O2 0.379561 0.288787 0.261994
O O3 0.320023 0.225628 0.238923
O O4 0.354643 0.260350 0.000000
O O5 0.590287 0.673014 0.500000
O O6 0.628877 0.628877 0.700310
O O7 0.551836 0.660245 0.755851
O O8 0.743457 0.256544 0.828942
O O9 0.758732 0.335968 0.765031
O O10 0.793199 0.299693 0.000000
O O11 0.265834 0.640875 0.500000
O O12 0.316656 0.683345 0.667901
O O13 0.305919 0.603546 0.715410
O O14 0.135676 0.986930 0.500000
O O15 0.083043 0.977713 0.280446
O O16 0.145709 0.033135 0.258611
O O17 0.109972 0.109972 0.789303
O O18 0.150164 0.072171 0.000000
O O19 0.500000 0.500000 0.768356
O O20 0.466378 0.466378 0.000000
#
# Coordination Sequence:
#
# PCOD9569233 Si02
#       7
#    16  16  16  16  16  16   8
#     4   9  16  25  38  54  72  92 113 133 160 201
#     4  10  19  30  42  54  70  89 112 142 178 216
#     4   9  15  22  34  54  76  93 110 132 159 194
#     4   8  14  25  39  52  69  92 113 134 165 205
#     4  11  20  30  43  55  70  89 114 146 185 229
#     4   9  18  31  43  55  71  90 114 146 183 222
#     4   9  18  30  41  53  67  83 107 145 189 231
#
# _framework density 11.813076000000001
#
# number of rings (size 3 to 8) (size 9 to 14) (size 15 to 20)
#    0.000    2.692    0.769    3.231    0.000    5.846 
#    0.000    1.538    0.000    1.846    0.000    0.000 
#    0.000    0.000    0.000    0.000    0.000    0.000 
#
# Total GULP energy -579283.626195 kJ/mol
# GULP energy per Si atom -5570.034867 kJ/mol
# Density = 1.178619 g / cm^3
# Si number density = 11.813076 Si / 1000 Ang^3
#
#
#
# Elastic Constant Matrix: (Units=GPa)
#
#
# Indices 1 2 3 4 5 6 
#
# 1 54.4097 52.1471 39.7715 0.0000 0.0000 0.0000
# 2 52.1471 54.4097 39.7715 0.0000 0.0000 0.0000
# 3 39.7715 39.7715 65.0495 0.0000 0.0000 0.0000
# 4 0.0000 0.0000 0.0000 17.0834 0.0000 0.0000
# 5 0.0000 0.0000 0.0000 0.0000 17.0834 0.0000
# 6 0.0000 0.0000 0.0000 0.0000 0.0000 20.8455
#
#
#
# Elastic Compliance Matrix: (Units=1/GPa)
#
#
# Indices 1 2 3 4 5 6 
#
# 1 0.229619 -0.212355 -0.010555 0.000000 0.000000 0.000000
# 2 -0.212355 0.229619 -0.010555 0.000000 0.000000 0.000000
# 3 -0.010555 -0.010555 0.028280 0.000000 0.000000 0.000000
# 4 0.000000 0.000000 0.000000 0.058536 0.000000 0.000000
# 5 0.000000 0.000000 0.000000 0.000000 0.058536 0.000000
# 6 0.000000 0.000000 0.000000 0.000000 0.000000 0.047972
#
#
# Mechanical properties :
#
#
# Convention : Reuss Voigt Hill
#
# Bulk Modulus (GPa) = 48.57463 48.58326 48.57894
# Shear Modulus (GPa) = 4.43910 13.81437 9.12673
#
# Velocity S-wave (km/s) = 1.94060 3.42338 2.78258
# Velocity P-wave (km/s) = 6.79926 7.53936 7.17885
#
# Compressibility (1/GPa) = 0.02058688
#
# Stress axis : x y z
#
# Youngs Moduli (GPa) = 4.35505 4.35505 35.36068
#
# Poissons Ratio (x) = 0.92481 0.37324
# Poissons Ratio (y) = 0.92481 0.37324
# Poissons Ratio (z) = 0.04597 0.04597
#
# Static dielectric constant tensor:
#      x y z
#    x 1.367170 0.000000 0.000000 
#    y 0.000000 1.367170 0.000000 
#    z 0.000000 0.000000 1.393430 
# 
# From -- ./inp_files/2233.got.cif
#   From: 2010.05.17/outbox.cif.g08.bks.cpg/sg136_2_cif.got.tgz:2233.got - 2010.05.20 12:54:53.
