data_PCOD9569114
_publ_section_title
;
Structure prediction by ZEFSAII (Michael W. Deem and Ramdas Pophale) SiO2 
 PCOD9569114
Probable space group: P 42/M N M
;
_chemical_formula_sum "Si O2"
_cell_formula_units_Z 112
_cell_length_a 19.495792
_cell_length_b 19.495792
_cell_length_c 19.117940
_cell_angle_alpha 90.000000
_cell_angle_beta 90.000000
_cell_angle_gamma 90.000000
_cell_volume 7266.459540
_symmetry_space_group_name_H-M "P 42/M N M"
_symmetry_group_IT_number 136
_symmetry_cell_setting 'tetragonal'
loop_
_space_group_symop_operation_xyz
x,y,z
1/2-y,1/2+x,1/2+z
-x,-y,z
1/2+y,1/2-x,1/2+z
1/2+x,1/2-y,1/2-z
1/2-x,1/2+y,1/2-z
y,x,-z
-y,-x,-z
-x,-y,-z
1/2+y,1/2-x,1/2-z
x,y,-z
1/2-y,1/2+x,1/2-z
1/2-x,1/2+y,1/2+z
1/2+x,1/2-y,1/2+z
-y,-x,z
y,x,z
loop_
_atom_site_type_symbol
_atom_site_label
_atom_site_fract_x
_atom_site_fract_y
_atom_site_fract_z
Si Si1 0.003191 0.721229 0.332967
Si Si2 0.659870 0.024911 0.080211
Si Si3 0.765284 0.874856 0.416548
Si Si4 0.152516 0.736150 0.710400
Si Si5 0.652147 0.761356 0.622701
Si Si6 0.073634 0.535323 0.164884
Si Si7 0.423028 0.836864 0.709228
O O1 0.949966 0.756963 0.384528
O O2 0.009831 0.640179 0.352926
O O3 0.962888 0.717487 0.258561
O O4 0.079134 0.749377 0.325124
O O5 0.722077 0.079024 0.088759
O O6 0.593835 0.067686 0.106464
O O7 0.661273 0.963636 0.136640
O O8 0.653718 0.003067 0.000000
O O9 0.761609 0.877522 0.500000
O O10 0.835037 0.835037 0.396295
O O11 0.703544 0.825405 0.390913
O O12 0.210765 0.789236 0.688331
O O13 0.142362 0.743095 0.794002
O O14 0.174564 0.657198 0.699087
O O15 0.694155 0.694155 0.598385
O O16 0.069419 0.404636 0.260234
O O17 0.000000 0.500000 0.166544
#
# Coordination Sequence:
#
# PCOD9569114 Si02
#       7
#    16  16  16  16  16  16  16
#     4  10  19  32  51  77 101 140 176 214 258 313
#     4  12  22  32  47  77 109 143 178 215 260 311
#     4  10  19  32  53  81 110 135 168 222 279 326
#     4  11  20  34  56  78 101 138 185 217 257 311
#     4  10  17  30  51  78 108 136 168 213 269 317
#     4  10  20  31  50  68 101 147 177 204 249 304
#     4  10  20  34  50  73 100 148 174 218 249 308
#
# _framework density 15.413284000000001
#
# number of rings (size 3 to 8) (size 9 to 14) (size 15 to 20)
#    0.857    0.714    5.714    1.286    2.000    1.143 
#    0.000    2.143    0.000    2.143    0.000    1.000 
#    0.000    0.571    0.000    1.286    0.000    0.000 
#
# Total GULP energy -623904.483108 kJ/mol
# GULP energy per Si atom -5570.575742 kJ/mol
# Density = 1.537820 g / cm^3
# Si number density = 15.413284 Si / 1000 Ang^3
#
#
#
# Elastic Constant Matrix: (Units=GPa)
#
#
# Indices 1 2 3 4 5 6 
#
# 1 78.9523 49.9819 18.1195 0.0000 0.0000 0.0000
# 2 49.9819 78.9523 18.1195 0.0000 0.0000 0.0000
# 3 18.1195 18.1195 59.1316 0.0000 0.0000 0.0000
# 4 0.0000 0.0000 0.0000 4.1101 0.0000 0.0000
# 5 0.0000 0.0000 0.0000 0.0000 4.1101 0.0000
# 6 0.0000 0.0000 0.0000 0.0000 0.0000 25.5914
#
#
#
# Elastic Compliance Matrix: (Units=1/GPa)
#
#
# Indices 1 2 3 4 5 6 
#
# 1 0.021502 -0.013016 -0.002601 0.000000 0.000000 0.000000
# 2 -0.013016 0.021502 -0.002601 0.000000 0.000000 0.000000
# 3 -0.002601 -0.002601 0.018505 0.000000 0.000000 0.000000
# 4 0.000000 0.000000 0.000000 0.243301 0.000000 0.000000
# 5 0.000000 0.000000 0.000000 0.000000 0.243301 0.000000
# 6 0.000000 0.000000 0.000000 0.000000 0.000000 0.039076
#
#
# Mechanical properties :
#
#
# Convention : Reuss Voigt Hill
#
# Bulk Modulus (GPa) = 39.87795 43.27534 41.57664
# Shear Modulus (GPa) = 7.91164 15.48335 11.69749
#
# Velocity S-wave (km/s) = 2.26807 3.17290 2.75784
# Velocity P-wave (km/s) = 5.72604 6.44675 6.09705
#
# Compressibility (1/GPa) = 0.02507651
#
# Stress axis : x y z
#
# Youngs Moduli (GPa) = 46.50634 46.50634 54.03880
#
# Poissons Ratio (x) = 0.60531 0.14053
# Poissons Ratio (y) = 0.60531 0.14053
# Poissons Ratio (z) = 0.12094 0.12094
#
# Static dielectric constant tensor:
#      x y z
#    x 1.541510 0.000000 0.000000 
#    y 0.000000 1.541510 0.000000 
#    z 0.000000 0.000000 1.523570 
# 
# From -- ./inp_files/7749.got.cif
#   From: 2010.05.17/outbox.cif.g08.bks.cpg/sg136_4_cif.got.tgz:7749.got - 2010.05.20 12:54:53.
