data_PCOD9569274
_publ_section_title
;
Structure prediction by ZEFSAII (Michael W. Deem and Ramdas Pophale) SiO2 
 PCOD9569274
Probable space group: P 42/M N M
;
_chemical_formula_sum "Si O2"
_cell_formula_units_Z 128
_cell_length_a 25.861527
_cell_length_b 25.861527
_cell_length_c 10.565642
_cell_angle_alpha 90.000000
_cell_angle_beta 90.000000
_cell_angle_gamma 90.000000
_cell_volume 7066.497666
_symmetry_space_group_name_H-M "P 42/M N M"
_symmetry_group_IT_number 136
_symmetry_cell_setting 'tetragonal'
loop_
_space_group_symop_operation_xyz
x,y,z
1/2-y,1/2+x,1/2+z
-x,-y,z
1/2+y,1/2-x,1/2+z
1/2+x,1/2-y,1/2-z
1/2-x,1/2+y,1/2-z
y,x,-z
-y,-x,-z
-x,-y,-z
1/2+y,1/2-x,1/2-z
x,y,-z
1/2-y,1/2+x,1/2-z
1/2-x,1/2+y,1/2+z
1/2+x,1/2-y,1/2+z
-y,-x,z
y,x,z
loop_
_atom_site_type_symbol
_atom_site_label
_atom_site_fract_x
_atom_site_fract_y
_atom_site_fract_z
Si Si1 0.678278 0.180488 0.646015
Si Si2 0.529597 0.710108 0.651271
Si Si3 0.090587 0.593656 0.359266
Si Si4 0.736612 0.649439 0.354164
Si Si5 0.550867 0.370207 0.353650
Si Si6 0.713102 0.369661 0.740829
Si Si7 0.263241 0.036521 0.637947
Si Si8 0.974508 0.618310 0.362625
O O1 0.697235 0.178147 0.500000
O O2 0.633305 0.137567 0.659207
O O3 0.721469 0.166884 0.750301
O O4 0.654261 0.237230 0.671116
O O5 0.518627 0.717790 0.500000
O O6 0.590748 0.717079 0.667771
O O7 0.503085 0.655150 0.690298
O O8 0.500038 0.749508 0.744004
O O9 0.096208 0.571027 0.500000
O O10 0.089053 0.550191 0.253411
O O11 0.036126 0.622949 0.353673
O O12 0.757059 0.651661 0.500000
O O13 0.688680 0.688680 0.347052
O O14 0.542432 0.382532 0.500000
O O15 0.579974 0.420027 0.293653
O O16 0.593031 0.323728 0.343304
O O17 0.676886 0.323115 0.787006
O O18 0.733653 0.409476 0.845184
O O19 0.250723 0.013190 0.500000
O O20 0.323911 0.047317 0.640805
O O21 0.962333 0.594632 0.500000
#
# Coordination Sequence:
#
# PCOD9569274 Si02
#       8
#    16  16  16  16  16  16  16  16
#     4  11  22  37  57  81 110 144 185 228 270 319
#     4   9  18  33  54  77 103 142 186 224 266 319
#     4  10  22  38  58  81 105 136 180 229 272 322
#     4  10  22  38  54  76 110 150 188 225 268 321
#     4   8  14  26  47  76 105 130 163 212 265 313
#     4  10  19  31  51  79 110 141 173 210 262 325
#     4  10  20  35  55  79 110 141 175 221 272 322
#     4  10  21  38  56  77 105 138 176 222 276 326
#
# _framework density 18.11364
#
# number of rings (size 3 to 8) (size 9 to 14) (size 15 to 20)
#    0.000    2.250    1.250    1.500    0.000    6.000 
#    0.000    1.250    0.000    0.375    0.000    2.625 
#    0.000    0.000    0.000    7.375    0.000    3.750 
#
# Total GULP energy -712656.179193 kJ/mol
# GULP energy per Si atom -5567.626400 kJ/mol
# Density = 1.807241 g / cm^3
# Si number density = 18.113640 Si / 1000 Ang^3
#
#
#
# Elastic Constant Matrix: (Units=GPa)
#
#
# Indices 1 2 3 4 5 6 
#
# 1 48.6954 10.5456 34.2100 0.0000 0.0000 0.0000
# 2 10.5456 48.6954 34.2100 0.0000 0.0000 0.0000
# 3 34.2100 34.2100 98.5711 0.0000 0.0000 0.0000
# 4 0.0000 0.0000 0.0000 16.9647 0.0000 0.0000
# 5 0.0000 0.0000 0.0000 0.0000 16.9647 0.0000
# 6 0.0000 0.0000 0.0000 0.0000 0.0000 9.8519
#
#
#
# Elastic Compliance Matrix: (Units=1/GPa)
#
#
# Indices 1 2 3 4 5 6 
#
# 1 0.027193 0.000980 -0.009778 0.000000 0.000000 0.000000
# 2 0.000980 0.027193 -0.009778 0.000000 0.000000 0.000000
# 3 -0.009778 -0.009778 0.016932 0.000000 0.000000 0.000000
# 4 0.000000 0.000000 0.000000 0.058946 0.000000 0.000000
# 5 0.000000 0.000000 0.000000 0.000000 0.058946 0.000000
# 6 0.000000 0.000000 0.000000 0.000000 0.000000 0.101503
#
#
# Mechanical properties :
#
#
# Convention : Reuss Voigt Hill
#
# Bulk Modulus (GPa) = 29.26809 39.32148 34.29478
# Shear Modulus (GPa) = 14.73834 16.55603 15.64718
#
# Velocity S-wave (km/s) = 2.85557 3.02654 2.94229
# Velocity P-wave (km/s) = 5.20245 5.82826 5.52422
#
# Compressibility (1/GPa) = 0.03416691
#
# Stress axis : x y z
#
# Youngs Moduli (GPa) = 36.77464 36.77464 59.06040
#
# Poissons Ratio (x) = -0.03605 0.57747
# Poissons Ratio (y) = -0.03605 0.57747
# Poissons Ratio (z) = 0.35957 0.35957
#
# Static dielectric constant tensor:
#      x y z
#    x 1.627420 0.000000 0.000000 
#    y 0.000000 1.627420 0.000000 
#    z 0.000000 0.000000 1.637390 
# 
# From -- ./inp_files/4084.got.cif
#   From: 2010.05.17/outbox.cif.g08.bks.cpg/sg136_3_cif.got.tgz:4084.got - 2010.05.20 12:54:53.
