data_PCOD9569011
_publ_section_title
;
Structure prediction by ZEFSAII (Michael W. Deem and Ramdas Pophale) SiO2 
 PCOD9569011
Probable space group: P 42/M B C
;
_chemical_formula_sum "Si O2"
_cell_formula_units_Z 96
_cell_length_a 24.080308
_cell_length_b 24.080308
_cell_length_c 8.651334
_cell_angle_alpha 90.000000
_cell_angle_beta 90.000000
_cell_angle_gamma 90.000000
_cell_volume 5016.573204
_symmetry_space_group_name_H-M "P 42/M B C"
_symmetry_group_IT_number 135
_symmetry_cell_setting 'tetragonal'
loop_
_space_group_symop_operation_xyz
x,y,z
-y,x,1/2+z
-x,-y,z
y,-x,1/2+z
1/2+x,1/2-y,-z
1/2-x,1/2+y,-z
1/2+y,1/2+x,1/2-z
1/2-y,1/2-x,1/2-z
-x,-y,-z
y,-x,1/2-z
x,y,-z
-y,x,1/2-z
1/2-x,1/2+y,z
1/2+x,1/2-y,z
1/2-y,1/2-x,1/2+z
1/2+y,1/2+x,1/2+z
loop_
_atom_site_type_symbol
_atom_site_label
_atom_site_fract_x
_atom_site_fract_y
_atom_site_fract_z
Si Si1 0.098125 0.118459 0.676291
Si Si2 0.500775 0.653055 0.177975
Si Si3 0.293166 0.326922 0.319600
Si Si4 0.137765 0.722654 0.815222
Si Si5 0.012054 0.729159 0.317604
Si Si6 0.814332 0.602114 0.686098
O O1 0.097333 0.139470 0.500000
O O2 0.037200 0.107309 0.740990
O O3 0.124531 0.162580 0.791714
O O4 0.134932 0.064060 0.678861
O O5 0.494575 0.707960 0.278700
O O6 0.485106 0.663468 0.000000
O O7 0.286879 0.312556 0.500000
O O8 0.322390 0.274285 0.236843
O O9 0.235748 0.355372 0.263717
O O10 0.168327 0.668327 0.750000
O O11 0.074318 0.724092 0.753067
O O12 0.135835 0.722963 0.000000
O O13 0.015339 0.719533 0.500000
O O14 0.960685 0.694426 0.246558
O O15 0.870215 0.629786 0.750000
O O16 0.813375 0.601132 0.500000
#
# Coordination Sequence:
#
# PCOD9569011 Si02
#       6
#    16  16  16  16  16  16
#     4  11  23  37  58  84 116 160 209 260 309 361
#     4  11  23  39  58  83 117 159 209 260 309 362
#     4  11  22  37  61  91 126 164 204 252 308 363
#     4  12  25  42  64  93 129 163 206 253 306 366
#     4  12  24  40  65  91 121 162 205 248 307 367
#     4  11  24  41  63  93 128 163 204 252 304 363
#
# _framework density 19.136569999999999
#
# number of rings (size 3 to 8) (size 9 to 14) (size 15 to 20)
#    0.000    0.667    3.333    5.500    0.000    5.667 
#    0.000    1.667    0.000    0.500    0.000    3.500 
#    0.000    0.000    0.000    0.000    0.000    0.000 
#
# Total GULP energy -536005.979523 kJ/mol
# GULP energy per Si atom -5583.395620 kJ/mol
# Density = 1.909301 g / cm^3
# Si number density = 19.136570 Si / 1000 Ang^3
#
#
#
# Elastic Constant Matrix: (Units=GPa)
#
#
# Indices 1 2 3 4 5 6 
#
# 1 86.4028 32.5799 34.7474 0.0000 0.0000 0.0000
# 2 32.5799 86.4053 34.7472 0.0000 0.0000 0.0000
# 3 34.7474 34.7472 99.2494 0.0000 0.0000 0.0000
# 4 0.0000 0.0000 0.0000 26.7870 0.0000 0.0000
# 5 0.0000 0.0000 0.0000 0.0000 26.7863 0.0000
# 6 0.0000 0.0000 0.0000 0.0000 0.0000 24.5823
#
#
#
# Elastic Compliance Matrix: (Units=1/GPa)
#
#
# Indices 1 2 3 4 5 6 
#
# 1 0.014572 -0.004007 -0.003699 0.000000 0.000000 0.000000
# 2 -0.004007 0.014572 -0.003699 0.000000 0.000000 0.000000
# 3 -0.003699 -0.003699 0.012665 0.000000 0.000000 0.000000
# 4 0.000000 0.000000 0.000000 0.037332 0.000000 0.000000
# 5 0.000000 0.000000 0.000000 0.000000 0.037333 0.000000
# 6 0.000000 0.000000 0.000000 0.000000 0.000000 0.040680
#
#
# Mechanical properties :
#
#
# Convention : Reuss Voigt Hill
#
# Bulk Modulus (GPa) = 52.63124 52.91183 52.77153
# Shear Modulus (GPa) = 26.83905 26.96331 26.90118
#
# Velocity S-wave (km/s) = 3.74906 3.75773 3.75340
# Velocity P-wave (km/s) = 6.80465 6.82180 6.81323
#
# Compressibility (1/GPa) = 0.01900012
#
# Stress axis : x y z
#
# Youngs Moduli (GPa) = 68.62390 68.62632 78.95467
#
# Poissons Ratio (x) = 0.27499 0.29204
# Poissons Ratio (y) = 0.27498 0.29202
# Poissons Ratio (z) = 0.25383 0.25382
#
# Static dielectric constant tensor:
#      x y z
#    x 1.695390 0.000000 0.000000 
#    y 0.000000 1.695390 0.000000 
#    z 0.000000 0.000000 1.648640 
# 
# From -- ./inp_files/1201.got.cif
#   From: 2010.05.17/outbox.cif.g08.bks.cpg/sg135_1_cif.got.tgz:1201.got - 2010.05.20 12:50:20.
