data_PCOD9569336
_publ_section_title
;
Structure prediction by ZEFSAII (Michael W. Deem and Ramdas Pophale) SiO2 
 PCOD9569336
Probable space group: P 42/M N M
;
_chemical_formula_sum "Si O2"
_cell_formula_units_Z 120
_cell_length_a 21.785635
_cell_length_b 21.785635
_cell_length_c 14.392276
_cell_angle_alpha 90.000000
_cell_angle_beta 90.000000
_cell_angle_gamma 90.000000
_cell_volume 6830.774132
_symmetry_space_group_name_H-M "P 42/M N M"
_symmetry_group_IT_number 136
_symmetry_cell_setting 'tetragonal'
loop_
_space_group_symop_operation_xyz
x,y,z
1/2-y,1/2+x,1/2+z
-x,-y,z
1/2+y,1/2-x,1/2+z
1/2+x,1/2-y,1/2-z
1/2-x,1/2+y,1/2-z
y,x,-z
-y,-x,-z
-x,-y,-z
1/2+y,1/2-x,1/2-z
x,y,-z
1/2-y,1/2+x,1/2-z
1/2-x,1/2+y,1/2+z
1/2+x,1/2-y,1/2+z
-y,-x,z
y,x,z
loop_
_atom_site_type_symbol
_atom_site_label
_atom_site_fract_x
_atom_site_fract_y
_atom_site_fract_z
Si Si1 0.820652 0.560166 0.105814
Si Si2 0.759384 0.862158 0.766357
Si Si3 0.528528 0.309053 0.389391
Si Si4 0.321626 0.085310 0.392218
Si Si5 0.283931 0.385137 0.394226
Si Si6 0.425292 0.932758 0.245930
Si Si7 0.260867 0.837777 0.294314
Si Si8 0.450614 0.549387 0.387540
O O1 0.808465 0.487792 0.110707
O O2 0.878514 0.575746 0.170239
O O3 0.766532 0.600996 0.146875
O O4 0.833300 0.576516 0.000000
O O5 0.820496 0.820496 0.758409
O O6 0.772190 0.922097 0.828563
O O7 0.730915 0.881644 0.667460
O O8 0.707571 0.817984 0.810901
O O9 0.542704 0.303728 0.500000
O O10 0.457767 0.289460 0.377036
O O11 0.533896 0.380758 0.362350
O O12 0.325436 0.104116 0.500000
O O13 0.386476 0.091072 0.337270
O O14 0.261810 0.375712 0.500000
O O15 0.349817 0.349817 0.388547
O O16 0.242425 0.355080 0.314845
O O17 0.495155 0.921134 0.278735
O O18 0.200090 0.799911 0.316145
O O19 0.500000 0.500000 0.352273
O O20 0.453055 0.546946 0.500000
#
# Coordination Sequence:
#
# PCOD9569336 Si02
#       8
#    16  16  16  16  16  16  16   8
#     4  10  20  36  56  79 107 139 177 223 274 325
#     4  11  22  36  53  75 109 150 188 225 265 322
#     4  10  19  33  54  82 116 146 174 218 275 337
#     4  10  21  37  57  78 105 140 181 229 274 318
#     4   9  18  34  57  83 109 140 180 227 277 326
#     4   9  18  35  58  82 109 138 174 227 282 329
#     4  10  21  36  53  74 104 144 185 225 263 310
#     4   9  16  28  50  82 117 147 171 205 268 343
#
# _framework density 17.567554000000001
#
# number of rings (size 3 to 8) (size 9 to 14) (size 15 to 20)
#    0.000    2.200    2.000    1.200    0.000    3.733 
#    0.000    5.333    0.000    0.000    0.000    0.000 
#    0.000    0.533    0.000    0.000    0.000    0.000 
#
# Total GULP energy -669211.339210 kJ/mol
# GULP energy per Si atom -5576.761160 kJ/mol
# Density = 1.752757 g / cm^3
# Si number density = 17.567554 Si / 1000 Ang^3
#
#
#
# Elastic Constant Matrix: (Units=GPa)
#
#
# Indices 1 2 3 4 5 6 
#
# 1 52.8051 25.6748 19.4396 0.0000 0.0000 0.0000
# 2 25.6748 52.8052 19.4395 0.0000 0.0000 0.0000
# 3 19.4396 19.4395 54.8043 0.0000 0.0000 0.0000
# 4 0.0000 0.0000 0.0000 23.6580 0.0000 0.0000
# 5 0.0000 0.0000 0.0000 0.0000 23.6580 0.0000
# 6 0.0000 0.0000 0.0000 0.0000 0.0000 25.8008
#
#
#
# Elastic Compliance Matrix: (Units=1/GPa)
#
#
# Indices 1 2 3 4 5 6 
#
# 1 0.026159 -0.010700 -0.005483 0.000000 0.000000 0.000000
# 2 -0.010700 0.026159 -0.005483 0.000000 0.000000 0.000000
# 3 -0.005483 -0.005483 0.022137 0.000000 0.000000 0.000000
# 4 0.000000 0.000000 0.000000 0.042269 0.000000 0.000000
# 5 0.000000 0.000000 0.000000 0.000000 0.042269 0.000000
# 6 0.000000 0.000000 0.000000 0.000000 0.000000 0.038759
#
#
# Mechanical properties :
#
#
# Convention : Reuss Voigt Hill
#
# Bulk Modulus (GPa) = 32.13302 32.16916 32.15109
# Shear Modulus (GPa) = 19.88403 21.01406 20.44904
#
# Velocity S-wave (km/s) = 3.36796 3.46234 3.41548
# Velocity P-wave (km/s) = 5.78404 5.85963 5.82195
#
# Compressibility (1/GPa) = 0.03112064
#
# Stress axis : x y z
#
# Youngs Moduli (GPa) = 38.22800 38.22809 45.17395
#
# Poissons Ratio (x) = 0.40905 0.24770
# Poissons Ratio (y) = 0.40905 0.24770
# Poissons Ratio (z) = 0.20962 0.20961
#
# Static dielectric constant tensor:
#      x y z
#    x 1.612220 0.000000 0.000000 
#    y 0.000000 1.612220 0.000000 
#    z 0.000000 0.000000 1.578260 
# 
# From -- ./inp_files/5322.got.cif
#   From: 2010.05.17/outbox.cif.g08.bks.cpg/sg136_3_cif.got.tgz:5322.got - 2010.05.20 12:54:53.
