data_PCOD9569297
_publ_section_title
;
Structure prediction by ZEFSAII (Michael W. Deem and Ramdas Pophale) SiO2 
 PCOD9569297
Probable space group: P 42/M N M
;
_chemical_formula_sum "Si O2"
_cell_formula_units_Z 64
_cell_length_a 10.837924
_cell_length_b 10.837924
_cell_length_c 28.115091
_cell_angle_alpha 90.000000
_cell_angle_beta 90.000000
_cell_angle_gamma 90.000000
_cell_volume 3302.415363
_symmetry_space_group_name_H-M "P 42/M N M"
_symmetry_group_IT_number 136
_symmetry_cell_setting 'tetragonal'
loop_
_space_group_symop_operation_xyz
x,y,z
1/2-y,1/2+x,1/2+z
-x,-y,z
1/2+y,1/2-x,1/2+z
1/2+x,1/2-y,1/2-z
1/2-x,1/2+y,1/2-z
y,x,-z
-y,-x,-z
-x,-y,-z
1/2+y,1/2-x,1/2-z
x,y,-z
1/2-y,1/2+x,1/2-z
1/2-x,1/2+y,1/2+z
1/2+x,1/2-y,1/2+z
-y,-x,z
y,x,z
loop_
_atom_site_type_symbol
_atom_site_label
_atom_site_fract_x
_atom_site_fract_y
_atom_site_fract_z
Si Si1 0.264985 0.536444 0.687907
Si Si2 0.061429 0.750723 0.293686
Si Si3 0.507372 0.702135 0.054671
Si Si4 0.117083 0.590610 0.865920
O O1 0.392193 0.607808 0.679602
O O2 0.263783 0.466187 0.738156
O O3 0.161313 0.643237 0.696012
O O4 0.221826 0.444766 0.646018
O O5 0.122229 0.877772 0.310918
O O6 0.941965 0.708833 0.322480
O O7 0.406583 0.593418 0.054312
O O8 0.636275 0.636275 0.070560
O O9 0.448898 0.807228 0.087625
O O10 0.524638 0.743509 0.000000
O O11 0.000000 0.500000 0.864362
#
# Coordination Sequence:
#
# PCOD9569297 Si02
#       4
#    16  16  16  16
#     4  10  20  33  51  75 107 148 189 228 276 339
#     4  10  19  32  51  74 104 145 187 226 276 336
#     4   9  19  37  60  85 112 143 185 239 295 348
#     4  10  20  33  55  80 114 147 182 228 292 338
#
# _framework density 19.379753999999998
#
# number of rings (size 3 to 8) (size 9 to 14) (size 15 to 20)
#    0.000    2.250    2.500    1.500    0.000    4.000 
#    0.000    0.000    0.000    0.750    0.000    1.750 
#    0.000    0.000    0.000    0.000    0.000    0.000 
#
# Total GULP energy -356665.375296 kJ/mol
# GULP energy per Si atom -5572.896489 kJ/mol
# Density = 1.933564 g / cm^3
# Si number density = 19.379754 Si / 1000 Ang^3
#
#
#
# Elastic Constant Matrix: (Units=GPa)
#
#
# Indices 1 2 3 4 5 6 
#
# 1 64.4917 72.1267 43.2795 0.0000 0.0000 0.0000
# 2 72.1267 64.4917 43.2795 0.0000 0.0000 0.0000
# 3 43.2795 43.2795 107.5428 0.0000 0.0000 0.0000
# 4 0.0000 0.0000 0.0000 0.1938 0.0000 0.0000
# 5 0.0000 0.0000 0.0000 0.0000 0.1938 0.0000
# 6 0.0000 0.0000 0.0000 0.0000 0.0000 22.2886
#
#
#
# Elastic Compliance Matrix: (Units=1/GPa)
#
#
# Indices 1 2 3 4 5 6 
#
# 1 -0.060576 0.070401 -0.003954 0.000000 0.000000 0.000000
# 2 0.070401 -0.060576 -0.003954 0.000000 0.000000 0.000000
# 3 -0.003954 -0.003954 0.012481 0.000000 0.000000 0.000000
# 4 0.000000 0.000000 0.000000 5.160898 0.000000 0.000000
# 5 0.000000 0.000000 0.000000 0.000000 5.160898 0.000000
# 6 0.000000 0.000000 0.000000 0.000000 0.000000 0.044866
#
#
# Mechanical properties :
#
#
# Convention : Reuss Voigt Hill
#
# Bulk Modulus (GPa) = 61.29311 61.54416 61.41864
# Shear Modulus (GPa) = 0.49317 9.72461 5.10889
#
# Velocity S-wave (km/s) = 0.50501 2.24250 1.62540
# Velocity P-wave (km/s) = 5.66004 6.20733 5.93999
#
# Compressibility (1/GPa) = 0.01631505
#
# Stress axis : x y z
#
# Youngs Moduli (GPa) = -16.50816 -16.50816 80.12165
#
# Poissons Ratio (x) = 1.16219 0.31679
# Poissons Ratio (y) = 1.16219 0.31679
# Poissons Ratio (z) = -0.06527 -0.06527
#
# Static dielectric constant tensor:
#      x y z
#    x 1.727050 0.000000 0.000000 
#    y 0.000000 1.727050 0.000000 
#    z 0.000000 0.000000 1.673340 
# 
# From -- ./inp_files/8103.got.cif
#   From: 2010.05.17/outbox.cif.g08.bks.cpg/sg136_5_cif.got.tgz:8103.got - 2010.05.20 12:54:53.
