data_PCOD9569752
_publ_section_title
;
Structure prediction by ZEFSAII (Michael W. Deem and Ramdas Pophale) SiO2 
 PCOD9569752
Probable space group: P 42/M N M
;
_chemical_formula_sum "Si O2"
_cell_formula_units_Z 116
_cell_length_a 20.012081
_cell_length_b 20.012081
_cell_length_c 16.336294
_cell_angle_alpha 90.000000
_cell_angle_beta 90.000000
_cell_angle_gamma 90.000000
_cell_volume 6542.414335
_symmetry_space_group_name_H-M "P 42/M N M"
_symmetry_group_IT_number 136
_symmetry_cell_setting 'tetragonal'
loop_
_space_group_symop_operation_xyz
x,y,z
1/2-y,1/2+x,1/2+z
-x,-y,z
1/2+y,1/2-x,1/2+z
1/2+x,1/2-y,1/2-z
1/2-x,1/2+y,1/2-z
y,x,-z
-y,-x,-z
-x,-y,-z
1/2+y,1/2-x,1/2-z
x,y,-z
1/2-y,1/2+x,1/2-z
1/2-x,1/2+y,1/2+z
1/2+x,1/2-y,1/2+z
-y,-x,z
y,x,z
loop_
_atom_site_type_symbol
_atom_site_label
_atom_site_fract_x
_atom_site_fract_y
_atom_site_fract_z
Si Si1 0.588461 0.411540 0.500000
Si Si2 0.373839 0.483817 0.636658
Si Si3 0.108313 0.482702 0.847170
Si Si4 0.014905 0.606256 0.149450
Si Si5 0.891565 0.997861 0.327852
Si Si6 0.779208 0.328913 0.099468
Si Si7 0.917091 0.263079 0.903637
Si Si8 0.251933 0.020291 0.402618
O O1 0.626019 0.456431 0.572058
O O2 0.435187 0.435187 0.612066
O O3 0.386107 0.505814 0.729594
O O4 0.305335 0.442045 0.635192
O O5 0.111173 0.483220 0.748281
O O6 0.072048 0.552015 0.873867
O O7 0.182683 0.477544 0.880771
O O8 0.056592 0.425098 0.872773
O O9 0.030727 0.677215 0.110889
O O10 0.938184 0.061817 0.347154
O O11 0.817784 0.002057 0.364169
O O12 0.932415 0.932415 0.357313
O O13 0.715968 0.284033 0.122009
O O14 0.846666 0.292411 0.128330
O O15 0.769657 0.404614 0.127914
O O16 0.783165 0.330966 0.000000
O O17 0.909184 0.249942 0.000000
O O18 0.244093 0.022538 0.500000
#
# Coordination Sequence:
#
# PCOD9569752 Si02
#       8
#     4  16  16  16  16  16  16  16
#     4  12  21  36  60  88 114 148 188 222 282 338
#     4  11  21  35  57  83 113 147 182 225 275 337
#     4   9  18  34  54  77 106 144 185 225 278 332
#     4   9  18  33  53  78 110 143 179 227 275 331
#     4  10  22  39  58  82 110 144 191 242 283 329
#     4   9  18  31  46  71 109 143 173 215 274 335
#     4  11  20  30  49  81 113 142 174 216 274 328
#     4  11  21  35  56  81 110 150 189 235 288 333
#
# _framework density 17.730457999999999
#
# number of rings (size 3 to 8) (size 9 to 14) (size 15 to 20)
#    0.000    1.931    2.759    3.103    0.000    2.207 
#    0.000    2.069    0.000    0.000    1.793    0.000 
#    0.000    0.000    0.000    0.000    0.000    0.000 
#
# Total GULP energy -646191.224974 kJ/mol
# GULP energy per Si atom -5570.614008 kJ/mol
# Density = 1.769010 g / cm^3
# Si number density = 17.730458 Si / 1000 Ang^3
#
#
#
# Elastic Constant Matrix: (Units=GPa)
#
#
# Indices 1 2 3 4 5 6 
#
# 1 71.1498 25.3177 14.4855 0.0000 0.0000 0.0000
# 2 25.3177 71.1502 14.4856 0.0000 0.0000 0.0000
# 3 14.4855 14.4856 25.0555 0.0000 0.0000 0.0000
# 4 0.0000 0.0000 0.0000 29.7031 0.0000 0.0000
# 5 0.0000 0.0000 0.0000 0.0000 29.7001 0.0000
# 6 0.0000 0.0000 0.0000 0.0000 0.0000 36.9861
#
#
#
# Elastic Compliance Matrix: (Units=1/GPa)
#
#
# Indices 1 2 3 4 5 6 
#
# 1 0.017181 -0.004637 -0.007252 0.000000 0.000000 0.000000
# 2 -0.004637 0.017181 -0.007252 0.000000 0.000000 0.000000
# 3 -0.007252 -0.007252 0.048297 0.000000 0.000000 0.000000
# 4 0.000000 0.000000 0.000000 0.033667 0.000000 0.000000
# 5 0.000000 0.000000 0.000000 0.000000 0.033670 0.000000
# 6 0.000000 0.000000 0.000000 0.000000 0.000000 0.027037
#
#
# Mechanical properties :
#
#
# Convention : Reuss Voigt Hill
#
# Bulk Modulus (GPa) = 22.53456 30.65924 26.59690
# Shear Modulus (GPa) = 21.72881 26.81563 24.27222
#
# Velocity S-wave (km/s) = 3.50452 3.89318 3.70395
# Velocity P-wave (km/s) = 5.39562 6.12687 5.77283
#
# Compressibility (1/GPa) = 0.04437629
#
# Stress axis : x y z
#
# Youngs Moduli (GPa) = 58.20226 58.20253 20.70521
#
# Poissons Ratio (x) = 0.26990 0.15016
# Poissons Ratio (y) = 0.26990 0.15016
# Poissons Ratio (z) = 0.42210 0.42210
#
# Static dielectric constant tensor:
#      x y z
#    x 1.612220 0.000000 0.000000 
#    y 0.000000 1.612220 0.000000 
#    z 0.000000 0.000000 1.595920 
# 
# From -- ./inp_files/6492.got.cif
#   From: 2010.05.17/outbox.cif.g08.bks.cpg/sg136_4_cif.got.tgz:6492.got - 2010.05.20 12:54:53.
