data_PCOD9569288
_publ_section_title
;
Structure prediction by ZEFSAII (Michael W. Deem and Ramdas Pophale) SiO2 
 PCOD9569288
Probable space group: P 42/M N M
;
_chemical_formula_sum "Si O2"
_cell_formula_units_Z 96
_cell_length_a 25.537844
_cell_length_b 25.537844
_cell_length_c 8.815606
_cell_angle_alpha 90.000000
_cell_angle_beta 90.000000
_cell_angle_gamma 90.000000
_cell_volume 5749.374934
_symmetry_space_group_name_H-M "P 42/M N M"
_symmetry_group_IT_number 136
_symmetry_cell_setting 'tetragonal'
loop_
_space_group_symop_operation_xyz
x,y,z
1/2-y,1/2+x,1/2+z
-x,-y,z
1/2+y,1/2-x,1/2+z
1/2+x,1/2-y,1/2-z
1/2-x,1/2+y,1/2-z
y,x,-z
-y,-x,-z
-x,-y,-z
1/2+y,1/2-x,1/2-z
x,y,-z
1/2-y,1/2+x,1/2-z
1/2-x,1/2+y,1/2+z
1/2+x,1/2-y,1/2+z
-y,-x,z
y,x,z
loop_
_atom_site_type_symbol
_atom_site_label
_atom_site_fract_x
_atom_site_fract_y
_atom_site_fract_z
Si Si1 0.581048 0.418953 0.817053
Si Si2 0.836478 0.836478 0.180246
Si Si3 0.879013 0.035189 0.317066
Si Si4 0.230532 0.987241 0.817919
Si Si5 0.421517 0.871282 0.182071
Si Si6 0.466321 0.151698 0.682890
Si Si7 0.247248 0.600494 0.819098
O O1 0.621254 0.378746 0.741236
O O2 0.521531 0.403680 0.776158
O O3 0.585869 0.414132 0.000000
O O4 0.854025 0.780798 0.244803
O O5 0.836773 0.836773 0.000000
O O6 0.874283 0.035953 0.500000
O O7 0.918777 0.081224 0.271848
O O8 0.821534 0.039713 0.245340
O O9 0.286813 0.962324 0.773937
O O10 0.232387 0.045726 0.749473
O O11 0.228040 0.990014 0.000000
O O12 0.384123 0.918108 0.234501
O O13 0.478930 0.870384 0.255012
O O14 0.396709 0.814431 0.213950
O O15 0.427566 0.875276 0.000000
O O16 0.467842 0.150248 0.500000
O O17 0.255017 0.599731 0.000000
#
# Coordination Sequence:
#
# PCOD9569288 Si02
#       7
#     8   8  16  16  16  16  16
#     4  10  19  32  50  72 101 135 168 208 256 306
#     4  12  22  31  49  77 105 131 166 218 270 306
#     4  10  20  33  50  72 100 136 175 212 253 305
#     4  10  19  32  51  74 101 133 167 209 257 300
#     4   9  19  35  55  79 105 137 174 207 248 310
#     4   9  19  35  54  78 108 136 167 210 257 304
#     4  10  19  33  53  74  98 132 173 210 249 304
#
# _framework density 16.697467
#
# number of rings (size 3 to 8) (size 9 to 14) (size 15 to 20)
#    0.000    2.167    1.667    2.000    0.000    3.667 
#    0.000    1.667    1.833    1.500    0.000    0.000 
#    0.000    0.000    0.000    0.000    0.000    0.000 
#
# Total GULP energy -535600.981868 kJ/mol
# GULP energy per Si atom -5579.176894 kJ/mol
# Density = 1.665946 g / cm^3
# Si number density = 16.697467 Si / 1000 Ang^3
#
#
#
# Elastic Constant Matrix: (Units=GPa)
#
#
# Indices 1 2 3 4 5 6 
#
# 1 120.7161 93.3804 41.0371 0.0000 0.0000 0.0000
# 2 93.3804 120.7161 41.0368 0.0000 0.0000 0.0000
# 3 41.0371 41.0368 33.4660 0.0000 0.0000 0.0000
# 4 0.0000 0.0000 0.0000 19.2704 0.0000 0.0000
# 5 0.0000 0.0000 0.0000 0.0000 19.2704 0.0000
# 6 0.0000 0.0000 0.0000 0.0000 0.0000 30.7709
#
#
#
# Elastic Compliance Matrix: (Units=1/GPa)
#
#
# Indices 1 2 3 4 5 6 
#
# 1 0.022698 -0.013884 -0.010808 0.000000 0.000000 0.000000
# 2 -0.013884 0.022698 -0.010808 0.000000 0.000000 0.000000
# 3 -0.010808 -0.010808 0.056387 0.000000 0.000000 0.000000
# 4 0.000000 0.000000 0.000000 0.051893 0.000000 0.000000
# 5 0.000000 0.000000 0.000000 0.000000 0.051893 0.000000
# 6 0.000000 0.000000 0.000000 0.000000 0.000000 0.032498
#
#
# Mechanical properties :
#
#
# Convention : Reuss Voigt Hill
#
# Bulk Modulus (GPa) = 32.48521 69.53411 51.00966
# Shear Modulus (GPa) = 15.65782 20.49193 18.07488
#
# Velocity S-wave (km/s) = 3.06557 3.50701 3.29369
# Velocity P-wave (km/s) = 5.65930 7.62448 6.71418
#
# Compressibility (1/GPa) = 0.03078324
#
# Stress axis : x y z
#
# Youngs Moduli (GPa) = 44.05627 44.05677 17.73451
#
# Poissons Ratio (x) = 0.61169 0.19168
# Poissons Ratio (y) = 0.61168 0.19167
# Poissons Ratio (z) = 0.47618 0.47615
#
# Static dielectric constant tensor:
#      x y z
#    x 1.556630 0.000000 0.000000 
#    y 0.000000 1.556630 0.000000 
#    z 0.000000 0.000000 1.560430 
# 
# From -- ./inp_files/2080.got.cif
#   From: 2010.05.17/outbox.cif.g08.bks.cpg/sg136_2_cif.got.tgz:2080.got - 2010.05.20 12:54:53.
