data_PCOD9569254
_publ_section_title
;
Structure prediction by ZEFSAII (Michael W. Deem and Ramdas Pophale) SiO2 
 PCOD9569254
Probable space group: P 42/M N M
;
_chemical_formula_sum "Si O2"
_cell_formula_units_Z 112
_cell_length_a 19.533425
_cell_length_b 19.533425
_cell_length_c 18.085117
_cell_angle_alpha 90.000000
_cell_angle_beta 90.000000
_cell_angle_gamma 90.000000
_cell_volume 6900.461251
_symmetry_space_group_name_H-M "P 42/M N M"
_symmetry_group_IT_number 136
_symmetry_cell_setting 'tetragonal'
loop_
_space_group_symop_operation_xyz
x,y,z
1/2-y,1/2+x,1/2+z
-x,-y,z
1/2+y,1/2-x,1/2+z
1/2+x,1/2-y,1/2-z
1/2-x,1/2+y,1/2-z
y,x,-z
-y,-x,-z
-x,-y,-z
1/2+y,1/2-x,1/2-z
x,y,-z
1/2-y,1/2+x,1/2-z
1/2-x,1/2+y,1/2+z
1/2+x,1/2-y,1/2+z
-y,-x,z
y,x,z
loop_
_atom_site_type_symbol
_atom_site_label
_atom_site_fract_x
_atom_site_fract_y
_atom_site_fract_z
Si Si1 0.291249 0.178391 0.587228
Si Si2 0.812732 0.702987 0.088985
Si Si3 0.753982 0.063577 0.414457
Si Si4 0.101038 0.494581 0.916449
Si Si5 0.872825 0.587560 0.682746
Si Si6 0.860154 0.433657 0.335663
Si Si7 0.674420 0.433644 0.090045
O O1 0.308827 0.170128 0.500000
O O2 0.248095 0.248095 0.595390
O O3 0.357141 0.172114 0.638718
O O4 0.237896 0.117270 0.606732
O O5 0.771894 0.771894 0.104405
O O6 0.766052 0.638216 0.115534
O O7 0.886256 0.696753 0.126776
O O8 0.820301 0.695216 0.000000
O O9 0.774236 0.075592 0.500000
O O10 0.682008 0.022618 0.414244
O O11 0.808736 0.010037 0.381997
O O12 0.084771 0.555287 0.861193
O O13 0.065583 0.424313 0.892047
O O14 0.083425 0.513563 0.000000
O O15 0.893236 0.613061 0.763808
O O16 0.842104 0.511332 0.684168
O O17 0.605432 0.394569 0.114190
O O18 0.672357 0.436981 0.000000
#
# Coordination Sequence:
#
# PCOD9569254 Si02
#       7
#    16  16  16  16  16  16  16
#     4   9  18  31  48  70  96 130 171 210 251 302
#     4   9  19  36  54  68  88 123 172 224 260 299
#     4   8  13  24  43  66  85 113 158 198 239 286
#     4  10  19  31  47  66  92 131 172 204 238 289
#     4  12  21  32  47  69 105 139 162 205 254 302
#     4  11  23  33  46  70 102 134 168 207 256 302
#     4   8  12  20  36  60  89 117 149 191 234 286
#
# _framework density 16.230799000000001
#
# number of rings (size 3 to 8) (size 9 to 14) (size 15 to 20)
#    0.000    2.429    2.857    3.000    0.000    3.429 
#    0.000    0.000    0.000    0.429    0.000    3.000 
#    0.000    0.571    0.000    3.143    0.000    0.571 
#
# Total GULP energy -623965.244559 kJ/mol
# GULP energy per Si atom -5571.118255 kJ/mol
# Density = 1.619386 g / cm^3
# Si number density = 16.230799 Si / 1000 Ang^3
#
#
#
# Elastic Constant Matrix: (Units=GPa)
#
#
# Indices 1 2 3 4 5 6 
#
# 1 32.2535 16.6236 13.2881 0.0000 0.0000 0.0000
# 2 16.6236 32.2535 13.2881 0.0000 0.0000 0.0000
# 3 13.2881 13.2881 35.9973 0.0000 0.0000 0.0000
# 4 0.0000 0.0000 0.0000 14.4736 0.0000 0.0000
# 5 0.0000 0.0000 0.0000 0.0000 14.4736 0.0000
# 6 0.0000 0.0000 0.0000 0.0000 0.0000 18.4868
#
#
#
# Elastic Compliance Matrix: (Units=1/GPa)
#
#
# Indices 1 2 3 4 5 6 
#
# 1 0.044789 -0.019191 -0.009449 0.000000 0.000000 0.000000
# 2 -0.019191 0.044789 -0.009449 0.000000 0.000000 0.000000
# 3 -0.009449 -0.009449 0.034756 0.000000 0.000000 0.000000
# 4 0.000000 0.000000 0.000000 0.069091 0.000000 0.000000
# 5 0.000000 0.000000 0.000000 0.000000 0.069091 0.000000
# 6 0.000000 0.000000 0.000000 0.000000 0.000000 0.054093
#
#
# Mechanical properties :
#
#
# Convention : Reuss Voigt Hill
#
# Bulk Modulus (GPa) = 20.76654 20.76709 20.76681
# Shear Modulus (GPa) = 12.22978 13.30712 12.76845
#
# Velocity S-wave (km/s) = 2.74796 2.86644 2.80782
# Velocity P-wave (km/s) = 4.78442 4.87626 4.83056
#
# Compressibility (1/GPa) = 0.04815439
#
# Stress axis : x y z
#
# Youngs Moduli (GPa) = 22.32710 22.32710 28.77216
#
# Poissons Ratio (x) = 0.42849 0.27187
# Poissons Ratio (y) = 0.42849 0.27187
# Poissons Ratio (z) = 0.21097 0.21097
#
# Static dielectric constant tensor:
#      x y z
#    x 1.569320 0.000000 0.000000 
#    y 0.000000 1.569320 0.000000 
#    z 0.000000 0.000000 1.548330 
# 
# From -- ./inp_files/6591.got.cif
#   From: 2010.05.17/outbox.cif.g08.bks.cpg/sg136_4_cif.got.tgz:6591.got - 2010.05.20 12:54:53.
