data_PCOD9569675
_publ_section_title
;
Structure prediction by ZEFSAII (Michael W. Deem and Ramdas Pophale) SiO2 
 PCOD9569675
Probable space group: P 42/M N M
;
_chemical_formula_sum "Si O2"
_cell_formula_units_Z 96
_cell_length_a 14.348503
_cell_length_b 14.348503
_cell_length_c 25.560048
_cell_angle_alpha 90.000000
_cell_angle_beta 90.000000
_cell_angle_gamma 90.000000
_cell_volume 5262.290882
_symmetry_space_group_name_H-M "P 42/M N M"
_symmetry_group_IT_number 136
_symmetry_cell_setting 'tetragonal'
loop_
_space_group_symop_operation_xyz
x,y,z
1/2-y,1/2+x,1/2+z
-x,-y,z
1/2+y,1/2-x,1/2+z
1/2+x,1/2-y,1/2-z
1/2-x,1/2+y,1/2-z
y,x,-z
-y,-x,-z
-x,-y,-z
1/2+y,1/2-x,1/2-z
x,y,-z
1/2-y,1/2+x,1/2-z
1/2-x,1/2+y,1/2+z
1/2+x,1/2-y,1/2+z
-y,-x,z
y,x,z
loop_
_atom_site_type_symbol
_atom_site_label
_atom_site_fract_x
_atom_site_fract_y
_atom_site_fract_z
Si Si1 0.051515 0.202746 0.061102
Si Si2 0.796517 0.203484 0.828868
Si Si3 0.615692 0.150391 0.645363
Si Si4 0.932910 0.333410 0.200734
Si Si5 0.781951 0.490608 0.184849
Si Si6 0.421143 0.578858 0.790282
Si Si7 0.670340 0.670340 0.560084
Si Si8 0.797193 0.797193 0.775120
O O1 0.109640 0.109640 0.075458
O O2 0.091207 0.287523 0.095453
O O3 0.940522 0.188350 0.065892
O O4 0.069221 0.221488 0.000000
O O5 0.767902 0.096577 0.820592
O O6 0.778765 0.221236 0.890719
O O7 0.746140 0.253861 0.778500
O O8 0.518371 0.120183 0.671003
O O9 0.684217 0.062732 0.640733
O O10 0.658320 0.218437 0.689239
O O11 0.845255 0.398523 0.186782
O O12 0.960662 0.313067 0.260333
O O13 0.672498 0.465359 0.183340
O O14 0.500000 0.500000 0.783590
O O15 0.374206 0.625795 0.739090
O O16 0.696579 0.696579 0.500000
#
# Coordination Sequence:
#
# PCOD9569675 Si02
#       8
#    16   8  16  16  16   8   8   8
#     4  10  21  38  58  85 120 160 205 247 295 358
#     4  12  20  35  58  81 126 158 191 245 288 354
#     4  12  23  35  60  85 120 157 199 249 300 360
#     4  12  21  34  58  83 115 161 195 239 300 362
#     4  12  23  38  54  83 119 153 206 240 300 378
#     4  12  26  38  52  80 121 165 190 242 301 354
#     4  10  21  36  58  88 121 162 201 241 298 367
#     4  12  22  38  52  91 121 154 207 239 289 373
#
# _framework density 18.243003999999999
#
# number of rings (size 3 to 8) (size 9 to 14) (size 15 to 20)
#    0.000    0.500    9.167    0.750    2.333    1.000 
#    1.500    0.000    0.000    3.000    0.000    0.583 
#    0.000    2.333    0.000    0.000    0.000    0.000 
#
# Total GULP energy -534662.083203 kJ/mol
# GULP energy per Si atom -5569.396700 kJ/mol
# Density = 1.820148 g / cm^3
# Si number density = 18.243004 Si / 1000 Ang^3
#
#
#
# Elastic Constant Matrix: (Units=GPa)
#
#
# Indices 1 2 3 4 5 6 
#
# 1 75.5657 47.6355 19.1292 0.0000 0.0000 0.0000
# 2 47.6355 75.5657 19.1292 0.0000 0.0000 0.0000
# 3 19.1292 19.1292 87.9036 0.0000 0.0000 0.0000
# 4 0.0000 0.0000 0.0000 20.4614 0.0000 0.0000
# 5 0.0000 0.0000 0.0000 0.0000 20.4614 0.0000
# 6 0.0000 0.0000 0.0000 0.0000 0.0000 40.2788
#
#
#
# Elastic Compliance Matrix: (Units=1/GPa)
#
#
# Indices 1 2 3 4 5 6 
#
# 1 0.022254 -0.013549 -0.001894 0.000000 0.000000 0.000000
# 2 -0.013549 0.022254 -0.001894 0.000000 0.000000 0.000000
# 3 -0.001894 -0.001894 0.012201 0.000000 0.000000 0.000000
# 4 0.000000 0.000000 0.000000 0.048872 0.000000 0.000000
# 5 0.000000 0.000000 0.000000 0.000000 0.048872 0.000000
# 6 0.000000 0.000000 0.000000 0.000000 0.000000 0.024827
#
#
# Mechanical properties :
#
#
# Convention : Reuss Voigt Hill
#
# Bulk Modulus (GPa) = 45.38589 45.64699 45.51644
# Shear Modulus (GPa) = 22.59361 26.44974 24.52167
#
# Velocity S-wave (km/s) = 3.52302 3.81183 3.67027
# Velocity P-wave (km/s) = 6.44061 6.66703 6.55480
#
# Compressibility (1/GPa) = 0.02203328
#
# Stress axis : x y z
#
# Youngs Moduli (GPa) = 44.93508 44.93508 81.96334
#
# Poissons Ratio (x) = 0.60884 0.15527
# Poissons Ratio (y) = 0.60884 0.15527
# Poissons Ratio (z) = 0.08512 0.08512
#
# Static dielectric constant tensor:
#      x y z
#    x 1.695500 0.000000 0.000000 
#    y 0.000000 1.695500 0.000000 
#    z 0.000000 0.000000 1.647450 
# 
# From -- ./inp_files/8446.got.cif
#   From: 2010.05.17/outbox.cif.g08.bks.cpg/sg136_5_cif.got.tgz:8446.got - 2010.05.20 12:54:53.
