data_PCOD9569363
_publ_section_title
;
Structure prediction by ZEFSAII (Michael W. Deem and Ramdas Pophale) SiO2 
 PCOD9569363
Probable space group: P 42/M N M
;
_chemical_formula_sum "Si O2"
_cell_formula_units_Z 72
_cell_length_a 12.804909
_cell_length_b 12.804909
_cell_length_c 24.522498
_cell_angle_alpha 90.000000
_cell_angle_beta 90.000000
_cell_angle_gamma 90.000000
_cell_volume 4020.848415
_symmetry_space_group_name_H-M "P 42/M N M"
_symmetry_group_IT_number 136
_symmetry_cell_setting 'tetragonal'
loop_
_space_group_symop_operation_xyz
x,y,z
1/2-y,1/2+x,1/2+z
-x,-y,z
1/2+y,1/2-x,1/2+z
1/2+x,1/2-y,1/2-z
1/2-x,1/2+y,1/2-z
y,x,-z
-y,-x,-z
-x,-y,-z
1/2+y,1/2-x,1/2-z
x,y,-z
1/2-y,1/2+x,1/2-z
1/2-x,1/2+y,1/2+z
1/2+x,1/2-y,1/2+z
-y,-x,z
y,x,z
loop_
_atom_site_type_symbol
_atom_site_label
_atom_site_fract_x
_atom_site_fract_y
_atom_site_fract_z
Si Si1 0.325256 0.012501 0.254577
Si Si2 0.410090 0.410090 0.062447
Si Si3 0.236054 0.057261 0.626949
Si Si4 0.295310 0.884378 0.062426
Si Si5 0.174719 0.003013 0.151122
O O1 0.406514 0.107498 0.247377
O O2 0.270885 0.025331 0.312926
O O3 0.242818 0.011988 0.205580
O O4 0.500000 0.500000 0.061165
O O5 0.461399 0.314309 0.094354
O O6 0.384611 0.384611 0.000000
O O7 0.147335 0.147335 0.631090
O O8 0.331365 0.107349 0.593093
O O9 0.205827 0.794174 0.060578
O O10 0.248419 0.975298 0.100031
O O11 0.318173 0.913772 0.000000
O O12 0.093142 0.906859 0.157251
O O13 0.105826 0.105826 0.142259
#
# Coordination Sequence:
#
# PCOD9569363 Si02
#       5
#    16   8  16  16  16
#     4  11  23  38  56  79 110 150 192 235 288 347
#     4   9  18  32  54  88 120 146 188 240 287 344
#     4  10  19  34  56  84 114 150 190 237 290 339
#     4   9  17  32  56  84 114 148 187 230 283 342
#     4  10  21  36  56  84 114 145 187 239 288 336
#
# _framework density 17.906666999999999
#
# number of rings (size 3 to 8) (size 9 to 14) (size 15 to 20)
#    0.000    2.111    2.222    1.333    1.556    4.000 
#    0.000    2.222    0.000    4.000    0.000    0.000 
#    0.000    0.000    0.000    0.000    0.000    0.000 
#
# Total GULP energy -401887.260327 kJ/mol
# GULP energy per Si atom -5581.767505 kJ/mol
# Density = 1.786591 g / cm^3
# Si number density = 17.906667 Si / 1000 Ang^3
#
#
#
# Elastic Constant Matrix: (Units=GPa)
#
#
# Indices 1 2 3 4 5 6 
#
# 1 78.4152 48.8562 71.2367 0.0000 0.0000 0.0000
# 2 48.8562 78.4152 71.2367 0.0000 0.0000 0.0000
# 3 71.2367 71.2367 214.3006 0.0000 0.0000 0.0000
# 4 0.0000 0.0000 0.0000 27.1963 0.0000 0.0000
# 5 0.0000 0.0000 0.0000 0.0000 27.1963 0.0000
# 6 0.0000 0.0000 0.0000 0.0000 0.0000 17.3586
#
#
#
# Elastic Compliance Matrix: (Units=1/GPa)
#
#
# Indices 1 2 3 4 5 6 
#
# 1 0.023172 -0.010658 -0.004160 0.000000 0.000000 0.000000
# 2 -0.010658 0.023172 -0.004160 0.000000 0.000000 0.000000
# 3 -0.004160 -0.004160 0.007432 0.000000 0.000000 0.000000
# 4 0.000000 0.000000 0.000000 0.036770 0.000000 0.000000
# 5 0.000000 0.000000 0.000000 0.000000 0.036770 0.000000
# 6 0.000000 0.000000 0.000000 0.000000 0.000000 0.057608
#
#
# Mechanical properties :
#
#
# Convention : Reuss Voigt Hill
#
# Bulk Modulus (GPa) = 63.20918 83.75446 73.48182
# Shear Modulus (GPa) = 21.91507 26.33702 24.12604
#
# Velocity S-wave (km/s) = 3.50215 3.83925 3.67457
# Velocity P-wave (km/s) = 7.19231 8.15644 7.68950
#
# Compressibility (1/GPa) = 0.01582049
#
# Stress axis : x y z
#
# Youngs Moduli (GPa) = 43.15507 43.15507 134.55501
#
# Poissons Ratio (x) = 0.45996 0.55972
# Poissons Ratio (y) = 0.45996 0.55972
# Poissons Ratio (z) = 0.17952 0.17952
#
# Static dielectric constant tensor:
#      x y z
#    x 1.602680 0.000000 0.000000 
#    y 0.000000 1.602680 0.000000 
#    z 0.000000 0.000000 1.577150 
# 
# From -- ./inp_files/8922.got.cif
#   From: 2010.05.17/outbox.cif.g08.bks.cpg/sg136_5_cif.got.tgz:8922.got - 2010.05.20 12:54:53.
