data_PCOD9569475
_publ_section_title
;
Structure prediction by ZEFSAII (Michael W. Deem and Ramdas Pophale) SiO2 
 PCOD9569475
Probable space group: P 42/M N M
;
_chemical_formula_sum "Si O2"
_cell_formula_units_Z 80
_cell_length_a 11.985161
_cell_length_b 11.985161
_cell_length_c 28.084409
_cell_angle_alpha 90.000000
_cell_angle_beta 90.000000
_cell_angle_gamma 90.000000
_cell_volume 4034.159211
_symmetry_space_group_name_H-M "P 42/M N M"
_symmetry_group_IT_number 136
_symmetry_cell_setting 'tetragonal'
loop_
_space_group_symop_operation_xyz
x,y,z
1/2-y,1/2+x,1/2+z
-x,-y,z
1/2+y,1/2-x,1/2+z
1/2+x,1/2-y,1/2-z
1/2-x,1/2+y,1/2-z
y,x,-z
-y,-x,-z
-x,-y,-z
1/2+y,1/2-x,1/2-z
x,y,-z
1/2-y,1/2+x,1/2-z
1/2-x,1/2+y,1/2+z
1/2+x,1/2-y,1/2+z
-y,-x,z
y,x,z
loop_
_atom_site_type_symbol
_atom_site_label
_atom_site_fract_x
_atom_site_fract_y
_atom_site_fract_z
Si Si1 0.495147 0.319828 0.767153
Si Si2 0.174054 0.514552 0.852319
Si Si3 0.664736 0.854949 0.445358
Si Si4 0.491954 0.818361 0.322156
Si Si5 0.180253 0.007771 0.087658
O O1 0.589642 0.410359 0.757648
O O2 0.376609 0.376609 0.755929
O O3 0.499859 0.285398 0.822216
O O4 0.517215 0.216468 0.732373
O O5 0.180453 0.545587 0.907717
O O6 0.099472 0.406753 0.840279
O O7 0.109643 0.621680 0.830864
O O8 0.669483 0.890798 0.500000
O O9 0.762660 0.762660 0.437273
O O10 0.546998 0.789983 0.436216
O O11 0.483932 0.712057 0.356694
O O12 0.124634 0.124634 0.071618
O O13 0.084848 0.915153 0.080717
#
# Coordination Sequence:
#
# PCOD9569475 Si02
#       5
#    16  16  16  16  16
#     4  11  23  36  53  79 109 141 176 215 264 324
#     4  10  21  36  53  78 109 140 180 226 266 314
#     4   9  18  34  57  81 106 143 186 225 269 315
#     4  10  20  34  52  78 108 142 178 213 265 325
#     4   9  17  30  50  78 111 143 178 222 270 323
#
# _framework density 19.830649000000001
#
# number of rings (size 3 to 8) (size 9 to 14) (size 15 to 20)
#    0.000    2.200    0.000    3.000    0.000    9.200 
#    0.000   10.000    0.000    0.600    0.000    2.800 
#    0.000    0.000    0.000    0.000    0.000    0.000 
#
# Total GULP energy -446205.792571 kJ/mol
# GULP energy per Si atom -5577.572407 kJ/mol
# Density = 1.978551 g / cm^3
# Si number density = 19.830649 Si / 1000 Ang^3
#
#
#
# Elastic Constant Matrix: (Units=GPa)
#
#
# Indices 1 2 3 4 5 6 
#
# 1 47.3335 14.9887 32.1208 0.0000 0.0000 0.0000
# 2 14.9887 47.3335 32.1208 0.0000 0.0000 0.0000
# 3 32.1208 32.1208 132.1659 0.0000 0.0000 0.0000
# 4 0.0000 0.0000 0.0000 38.8344 0.0000 0.0000
# 5 0.0000 0.0000 0.0000 0.0000 38.8344 0.0000
# 6 0.0000 0.0000 0.0000 0.0000 0.0000 7.1590
#
#
#
# Elastic Compliance Matrix: (Units=1/GPa)
#
#
# Indices 1 2 3 4 5 6 
#
# 1 0.026163 -0.004754 -0.005203 0.000000 0.000000 0.000000
# 2 -0.004754 0.026163 -0.005203 0.000000 0.000000 0.000000
# 3 -0.005203 -0.005203 0.010095 0.000000 0.000000 0.000000
# 4 0.000000 0.000000 0.000000 0.025750 0.000000 0.000000
# 5 0.000000 0.000000 0.000000 0.000000 0.025750 0.000000
# 6 0.000000 0.000000 0.000000 0.000000 0.000000 0.139685
#
#
# Mechanical properties :
#
#
# Convention : Reuss Voigt Hill
#
# Bulk Modulus (GPa) = 31.15179 42.81041 36.98110
# Shear Modulus (GPa) = 16.97060 26.80572 21.88816
#
# Velocity S-wave (km/s) = 2.92854 3.68058 3.32588
# Velocity P-wave (km/s) = 5.21327 6.30056 5.78253
#
# Compressibility (1/GPa) = 0.03210088
#
# Stress axis : x y z
#
# Youngs Moduli (GPa) = 38.22199 38.22199 99.05577
#
# Poissons Ratio (x) = 0.18170 0.51540
# Poissons Ratio (y) = 0.18170 0.51540
# Poissons Ratio (z) = 0.19887 0.19887
#
# Static dielectric constant tensor:
#      x y z
#    x 1.712340 0.000000 0.000000 
#    y 0.000000 1.712340 0.000000 
#    z 0.000000 0.000000 1.709560 
# 
# From -- ./inp_files/9547.got.cif
#   From: 2010.05.17/outbox.cif.g08.bks.cpg/sg136_5_cif.got.tgz:9547.got - 2010.05.20 12:54:53.
