data_PCOD9569955
_publ_section_title
;
Structure prediction by ZEFSAII (Michael W. Deem and Ramdas Pophale) SiO2 
 PCOD9569955
Probable space group: P 42/N M C
;
_chemical_formula_sum "Si O2"
_cell_formula_units_Z 96
_cell_length_a 14.208929
_cell_length_b 14.208929
_cell_length_c 32.277615
_cell_angle_alpha 90.000000
_cell_angle_beta 90.000000
_cell_angle_gamma 90.000000
_cell_volume 6516.645936
_symmetry_space_group_name_H-M "P 42/N M C"
_symmetry_group_IT_number 137
_space_group.IT_coordinate_system_code '2'
_symmetry_cell_setting 'tetragonal'
loop_
_space_group_symop_operation_xyz
x,y,z
1/2-y,x,1/2+z
1/2-x,1/2-y,z
y,1/2-x,1/2+z
1/2+x,-y,-z
-x,1/2+y,-z
1/2+y,1/2+x,1/2-z
-y,-x,1/2-z
-x,-y,-z
1/2+y,-x,1/2-z
1/2+x,1/2+y,-z
-y,1/2+x,1/2-z
1/2-x,y,z
x,1/2-y,z
1/2-y,1/2-x,1/2+z
y,x,1/2+z
loop_
_atom_site_type_symbol
_atom_site_label
_atom_site_fract_x
_atom_site_fract_y
_atom_site_fract_z
Si Si1 0.143580 0.361796 0.000004
Si Si2 0.636055 0.356806 0.546575
Si Si3 0.483451 0.636244 0.125416
Si Si4 0.635714 0.357953 0.703788
Si Si5 0.953437 0.137612 0.041316
Si Si6 0.025521 0.139960 0.413727
O O1 0.250000 0.377897 0.014817
O O2 0.132324 0.250000 0.991333
O O3 0.062412 0.386475 0.032471
O O4 0.131043 0.415929 0.956859
O O5 0.750000 0.353357 0.548145
O O6 0.600981 0.250000 0.549861
O O7 0.608466 0.421485 0.585110
O O8 0.613386 0.400649 0.501986
O O9 0.495023 0.750000 0.124881
O O10 0.426307 0.609032 0.166530
O O11 0.581813 0.583566 0.120049
O O12 0.609142 0.390858 0.750000
O O13 0.750000 0.354606 0.704057
O O14 0.603703 0.250000 0.696920
O O15 0.944509 0.250000 0.048077
O O16 0.907299 0.074824 0.076656
O O17 0.016415 0.250000 0.404443
#
# Coordination Sequence:
#
# PCOD9569955 Si02
#       6
#    16  16  16  16  16  16
#     4   9  17  29  43  58  79 109 144 182 223 265
#     4   9  16  25  38  57  82 112 146 183 219 254
#     4  10  18  28  42  63  90 117 142 173 215 264
#     4   8  14  26  45  69  96 121 140 162 201 258
#     4  10  19  32  44  56  79 114 156 195 229 256
#     4  11  21  30  42  60  84 115 151 188 224 259
#
# _framework density 14.731505
#
# number of rings (size 3 to 8) (size 9 to 14) (size 15 to 20)
#    0.000    2.500    1.667    2.500    0.000    4.000 
#    0.000    0.833    0.000    0.000    0.000    1.167 
#    0.000    1.333    0.000    0.000    0.000    0.000 
#
# Total GULP energy -535321.368695 kJ/mol
# GULP energy per Si atom -5576.264257 kJ/mol
# Density = 1.469797 g / cm^3
# Si number density = 14.731505 Si / 1000 Ang^3
#
#
#
# Elastic Constant Matrix: (Units=GPa)
#
#
# Indices 1 2 3 4 5 6 
#
# 1 80.0240 31.8184 31.3138 0.0000 0.0000 0.0000
# 2 31.8184 80.0238 31.3137 0.0000 0.0000 0.0000
# 3 31.3138 31.3137 57.3589 0.0000 0.0000 0.0000
# 4 0.0000 0.0000 0.0000 15.0435 0.0000 0.0000
# 5 0.0000 0.0000 0.0000 0.0000 15.0436 0.0000
# 6 0.0000 0.0000 0.0000 0.0000 0.0000 16.0046
#
#
#
# Elastic Compliance Matrix: (Units=1/GPa)
#
#
# Indices 1 2 3 4 5 6 
#
# 1 0.016811 -0.003933 -0.007030 0.000000 0.000000 0.000000
# 2 -0.003933 0.016811 -0.007030 0.000000 0.000000 0.000000
# 3 -0.007030 -0.007030 0.025110 0.000000 0.000000 0.000000
# 4 0.000000 0.000000 0.000000 0.066474 0.000000 0.000000
# 5 0.000000 0.000000 0.000000 0.000000 0.066474 0.000000
# 6 0.000000 0.000000 0.000000 0.000000 0.000000 0.062482
#
#
# Mechanical properties :
#
#
# Convention : Reuss Voigt Hill
#
# Bulk Modulus (GPa) = 43.96671 45.14430 44.55550
# Shear Modulus (GPa) = 16.79364 17.41572 17.10468
#
# Velocity S-wave (km/s) = 3.38002 3.44206 3.41118
# Velocity P-wave (km/s) = 6.71885 6.81970 6.76946
#
# Compressibility (1/GPa) = 0.02274448
#
# Stress axis : x y z
#
# Youngs Moduli (GPa) = 59.48414 59.48399 39.82442
#
# Poissons Ratio (x) = 0.23397 0.27998
# Poissons Ratio (y) = 0.23397 0.27998
# Poissons Ratio (z) = 0.41820 0.41820
#
# Static dielectric constant tensor:
#      x y z
#    x 1.515010 0.000000 0.000000 
#    y 0.000000 1.515010 0.000000 
#    z 0.000000 0.000000 1.460150 
# 
# From -- ./inp_files/10585.got.cif
#   From: 2010.05.17/outbox.cif.g08.bks.cpg/sg137_6_cif.got.tgz:10585.got - 2010.05.20 13:01:12.
