data_PCOD9569854
_publ_section_title
;
Structure prediction by ZEFSAII (Michael W. Deem and Ramdas Pophale) SiO2 
 PCOD9569854
Probable space group: P 42/M N M
;
_chemical_formula_sum "Si O2"
_cell_formula_units_Z 96
_cell_length_a 16.044343
_cell_length_b 16.044343
_cell_length_c 20.489680
_cell_angle_alpha 90.000000
_cell_angle_beta 90.000000
_cell_angle_gamma 90.000000
_cell_volume 5274.472733
_symmetry_space_group_name_H-M "P 42/M N M"
_symmetry_group_IT_number 136
_symmetry_cell_setting 'tetragonal'
loop_
_space_group_symop_operation_xyz
x,y,z
1/2-y,1/2+x,1/2+z
-x,-y,z
1/2+y,1/2-x,1/2+z
1/2+x,1/2-y,1/2-z
1/2-x,1/2+y,1/2-z
y,x,-z
-y,-x,-z
-x,-y,-z
1/2+y,1/2-x,1/2-z
x,y,-z
1/2-y,1/2+x,1/2-z
1/2-x,1/2+y,1/2+z
1/2+x,1/2-y,1/2+z
-y,-x,z
y,x,z
loop_
_atom_site_type_symbol
_atom_site_label
_atom_site_fract_x
_atom_site_fract_y
_atom_site_fract_z
Si Si1 0.069152 0.069152 0.680022
Si Si2 0.510087 0.137088 0.248073
Si Si3 0.802206 0.663382 0.578049
Si Si4 0.274491 0.411219 0.000000
Si Si5 0.931816 0.931816 0.163012
Si Si6 0.020515 0.255198 0.125459
Si Si7 0.770634 0.366345 0.500000
Si Si8 0.026930 0.251641 0.374124
O O1 0.071901 0.071901 0.758432
O O2 0.159903 0.046338 0.653035
O O3 0.000000 0.000000 0.661082
O O4 0.429277 0.082873 0.267016
O O5 0.538494 0.194091 0.308384
O O6 0.490719 0.193230 0.185075
O O7 0.808778 0.653820 0.500000
O O8 0.730560 0.730560 0.592508
O O9 0.775625 0.575082 0.607903
O O10 0.888826 0.701063 0.603921
O O11 0.260493 0.466989 0.064116
O O12 0.363543 0.363543 0.000000
O O13 0.204483 0.340223 0.000000
O O14 0.960666 0.841856 0.137697
O O15 0.000000 0.000000 0.143522
O O16 0.077610 0.280424 0.064320
O O17 0.681560 0.318441 0.500000
#
# Coordination Sequence:
#
# PCOD9569854 Si02
#       8
#     8  16  16   8   8  16   8  16
#     4  11  24  41  67  95 133 168 211 262 321 377
#     4  11  24  40  63  94 129 168 216 269 320 381
#     4  11  23  40  64  95 129 165 207 265 321 389
#     4  11  26  44  64  94 129 165 219 264 316 383
#     4  11  24  41  65  97 129 165 210 269 314 383
#     4  12  22  43  66  92 128 168 213 260 328 380
#     4  11  24  43  65  89 124 172 210 260 318 384
#     4  12  22  43  65  95 127 170 214 262 323 382
#
# _framework density 18.200872
#
# number of rings (size 3 to 8) (size 9 to 14) (size 15 to 20)
#    0.000    0.667    6.667    2.000    0.000    0.333 
#    0.000    2.083    1.833    0.000    0.000    0.000 
#    0.000    0.000    0.000    0.000    0.000    0.000 
#
# Total GULP energy -536434.824161 kJ/mol
# GULP energy per Si atom -5587.862752 kJ/mol
# Density = 1.815945 g / cm^3
# Si number density = 18.200872 Si / 1000 Ang^3
#
#
#
# Elastic Constant Matrix: (Units=GPa)
#
#
# Indices 1 2 3 4 5 6 
#
# 1 113.3947 53.4501 35.5245 0.0000 0.0000 0.0000
# 2 53.4501 113.3946 35.5245 0.0000 0.0000 0.0000
# 3 35.5245 35.5245 93.3083 0.0000 0.0000 0.0000
# 4 0.0000 0.0000 0.0000 25.9511 0.0000 0.0000
# 5 0.0000 0.0000 0.0000 0.0000 25.9504 0.0000
# 6 0.0000 0.0000 0.0000 0.0000 0.0000 33.7427
#
#
#
# Elastic Compliance Matrix: (Units=1/GPa)
#
#
# Indices 1 2 3 4 5 6 
#
# 1 0.011918 -0.004764 -0.002723 0.000000 0.000000 0.000000
# 2 -0.004764 0.011918 -0.002723 0.000000 0.000000 0.000000
# 3 -0.002723 -0.002723 0.012791 0.000000 0.000000 0.000000
# 4 0.000000 0.000000 0.000000 0.038534 0.000000 0.000000
# 5 0.000000 0.000000 0.000000 0.000000 0.038535 0.000000
# 6 0.000000 0.000000 0.000000 0.000000 0.000000 0.029636
#
#
# Mechanical properties :
#
#
# Convention : Reuss Voigt Hill
#
# Bulk Modulus (GPa) = 61.71375 63.23289 62.47332
# Shear Modulus (GPa) = 29.55863 30.16872 29.86368
#
# Velocity S-wave (km/s) = 4.03429 4.07571 4.05505
# Velocity P-wave (km/s) = 7.46199 7.54756 7.50490
#
# Compressibility (1/GPa) = 0.01620385
#
# Stress axis : x y z
#
# Youngs Moduli (GPa) = 83.90877 83.90866 78.18059
#
# Poissons Ratio (x) = 0.39977 0.21292
# Poissons Ratio (y) = 0.39977 0.21292
# Poissons Ratio (z) = 0.22852 0.22852
#
# Static dielectric constant tensor:
#      x y z
#    x 1.596510 0.000000 0.000000 
#    y 0.000000 1.596510 0.000000 
#    z 0.000000 0.000000 1.612030 
# 
# From -- ./inp_files/7558.got.cif
#   From: 2010.05.17/outbox.cif.g08.bks.cpg/sg136_4_cif.got.tgz:7558.got - 2010.05.20 12:54:53.
