data_PCOD9569768
_publ_section_title
;
Structure prediction by ZEFSAII (Michael W. Deem and Ramdas Pophale) SiO2 
 PCOD9569768
Probable space group: P 42/M N M
;
_chemical_formula_sum "Si O2"
_cell_formula_units_Z 88
_cell_length_a 11.784024
_cell_length_b 11.784024
_cell_length_c 28.318768
_cell_angle_alpha 90.000000
_cell_angle_beta 90.000000
_cell_angle_gamma 90.000000
_cell_volume 3932.435357
_symmetry_space_group_name_H-M "P 42/M N M"
_symmetry_group_IT_number 136
_symmetry_cell_setting 'tetragonal'
loop_
_space_group_symop_operation_xyz
x,y,z
1/2-y,1/2+x,1/2+z
-x,-y,z
1/2+y,1/2-x,1/2+z
1/2+x,1/2-y,1/2-z
1/2-x,1/2+y,1/2-z
y,x,-z
-y,-x,-z
-x,-y,-z
1/2+y,1/2-x,1/2-z
x,y,-z
1/2-y,1/2+x,1/2-z
1/2-x,1/2+y,1/2+z
1/2+x,1/2-y,1/2+z
-y,-x,z
y,x,z
loop_
_atom_site_type_symbol
_atom_site_label
_atom_site_fract_x
_atom_site_fract_y
_atom_site_fract_z
Si Si1 0.205679 0.387829 0.805889
Si Si2 0.848169 0.668727 0.302672
Si Si3 0.831966 0.484738 0.943400
Si Si4 0.711309 0.464524 0.649889
Si Si5 0.027011 0.305326 0.944413
Si Si6 0.408404 0.591596 0.058091
O O1 0.333195 0.333195 0.808541
O O2 0.179704 0.519707 0.816694
O O3 0.161978 0.365894 0.752409
O O4 0.127455 0.308250 0.837982
O O5 0.790795 0.790795 0.308279
O O6 0.765213 0.578353 0.328450
O O7 0.862502 0.615823 0.936940
O O8 0.713085 0.446112 0.923757
O O9 0.928204 0.394691 0.930239
O O10 0.828290 0.473071 0.000000
O O11 0.594152 0.405849 0.667296
O O12 0.706674 0.478065 0.593385
O O13 0.018033 0.276211 0.000000
O O14 0.500000 0.500000 0.071357
O O15 0.404784 0.595217 0.000000
#
# Coordination Sequence:
#
# PCOD9569768 Si02
#       6
#    16  16  16  16  16   8
#     4  10  22  40  66 101 132 167 217 264 324 401
#     4  11  23  41  68  97 132 175 210 264 336 395
#     4   8  16  31  51  78 110 153 210 259 313 380
#     4  11  24  40  63  96 130 170 223 276 325 392
#     4   9  19  37  60  84 117 168 225 276 320 374
#     4   9  16  28  50  80 115 147 185 255 334 396
#
# _framework density 22.377988999999999
#
# number of rings (size 3 to 8) (size 9 to 14) (size 15 to 20)
#    0.000    2.273    1.818    1.636    5.091    1.818 
#    1.636    3.636    0.000    0.000    0.000    1.273 
#    0.000    0.000    0.000    0.000    0.000    0.000 
#
# Total GULP energy -490816.006913 kJ/mol
# GULP energy per Si atom -5577.454624 kJ/mol
# Density = 2.232706 g / cm^3
# Si number density = 22.377989 Si / 1000 Ang^3
#
#
#
# Elastic Constant Matrix: (Units=GPa)
#
#
# Indices 1 2 3 4 5 6 
#
# 1 57.9505 86.4569 8.9904 0.0000 0.0000 0.0000
# 2 86.4569 57.9506 8.9904 0.0000 0.0000 0.0000
# 3 8.9904 8.9904 95.3820 0.0000 0.0000 0.0000
# 4 0.0000 0.0000 0.0000 -13.1912 0.0000 0.0000
# 5 0.0000 0.0000 0.0000 0.0000 -13.1911 0.0000
# 6 0.0000 0.0000 0.0000 0.0000 0.0000 18.5591
#
#
#
# Elastic Compliance Matrix: (Units=1/GPa)
#
#
# Indices 1 2 3 4 5 6 
#
# 1 -0.014036 0.021044 -0.000660 0.000000 0.000000 0.000000
# 2 0.021044 -0.014036 -0.000660 0.000000 0.000000 0.000000
# 3 -0.000660 -0.000660 0.010609 0.000000 0.000000 0.000000
# 4 0.000000 0.000000 0.000000 -0.075808 0.000000 0.000000
# 5 0.000000 0.000000 0.000000 0.000000 -0.075809 0.000000
# 6 0.000000 0.000000 0.000000 0.000000 0.000000 0.053882
#
#
# Mechanical properties :
#
#
# Convention : Reuss Voigt Hill
#
# Bulk Modulus (GPa) = 45.49386 46.68426 46.08906
# Shear Modulus (GPa) = -33.94036 5.55838 -14.19099
#
# Velocity S-wave (km/s) = -3.89869 1.57774 -2.52096
# Velocity P-wave (km/s) = 0.32787 4.92199 3.48809
#
# Compressibility (1/GPa) = 0.02198099
#
# Stress axis : x y z
#
# Youngs Moduli (GPa) = -71.24316 -71.24330 94.26257
#
# Poissons Ratio (x) = 1.49921 0.06226
# Poissons Ratio (y) = 1.49921 0.06226
# Poissons Ratio (z) = -0.04705 -0.04705
#
# Static dielectric constant tensor:
#      x y z
#    x 1.817470 0.000000 0.000000 
#    y 0.000000 1.817470 0.000000 
#    z 0.000000 0.000000 1.856510 
# 
# From -- ./inp_files/9687.got.cif
#   From: 2010.05.17/outbox.cif.g08.bks.cpg/sg136_5_cif.got.tgz:9687.got - 2010.05.20 12:54:53.
