data_PCOD9569036
_publ_section_title
;
Structure prediction by ZEFSAII (Michael W. Deem and Ramdas Pophale) SiO2 
 PCOD9569036
Probable space group: P 42/M B C
;
_chemical_formula_sum "Si O2"
_cell_formula_units_Z 48
_cell_length_a 9.297615
_cell_length_b 9.297615
_cell_length_c 25.913979
_cell_angle_alpha 90.000000
_cell_angle_beta 90.000000
_cell_angle_gamma 90.000000
_cell_volume 2240.150621
_symmetry_space_group_name_H-M "P 42/M B C"
_symmetry_group_IT_number 135
_symmetry_cell_setting 'tetragonal'
loop_
_space_group_symop_operation_xyz
x,y,z
-y,x,1/2+z
-x,-y,z
y,-x,1/2+z
1/2+x,1/2-y,-z
1/2-x,1/2+y,-z
1/2+y,1/2+x,1/2-z
1/2-y,1/2-x,1/2-z
-x,-y,-z
y,-x,1/2-z
x,y,-z
-y,x,1/2-z
1/2-x,1/2+y,z
1/2+x,1/2-y,z
1/2-y,1/2-x,1/2+z
1/2+y,1/2+x,1/2+z
loop_
_atom_site_type_symbol
_atom_site_label
_atom_site_fract_x
_atom_site_fract_y
_atom_site_fract_z
Si Si1 0.148158 0.919346 0.112764
Si Si2 0.889917 0.372991 0.439514
Si Si3 0.069561 0.218060 0.270364
O O1 0.128594 0.757359 0.092572
O O2 0.225539 0.923194 0.167908
O O3 0.231680 0.016880 0.071612
O O4 0.000000 0.000000 0.122638
O O5 0.854316 0.386694 0.500000
O O6 0.000000 0.500000 0.425179
O O7 0.133742 0.366259 0.250000
O O8 0.912501 0.172370 0.249911
#
# Coordination Sequence:
#
# PCOD9569036 Si02
#       3
#    16  16  16
#     4  12  24  44  70  97 137 179 224 282 342 408
#     4  11  26  44  68 101 134 176 230 281 343 409
#     4  11  24  44  65  99 135 173 223 272 330 402
#
# _framework density 21.427128
#
# number of rings (size 3 to 8) (size 9 to 14) (size 15 to 20)
#    0.000    0.667    3.333    5.000    4.667    6.000 
#    0.000    0.000    0.000    0.000    0.000    0.000 
#    0.000    0.000    0.000    0.000    0.000    0.000 
#
# Total GULP energy -268584.587593 kJ/mol
# GULP energy per Si atom -5595.512242 kJ/mol
# Density = 2.137836 g / cm^3
# Si number density = 21.427128 Si / 1000 Ang^3
#
#
#
# Elastic Constant Matrix: (Units=GPa)
#
#
# Indices 1 2 3 4 5 6 
#
# 1 60.8601 16.6705 17.0057 0.0000 0.0000 0.0000
# 2 16.6705 60.8572 17.0064 0.0000 0.0000 0.0000
# 3 17.0057 17.0064 47.0891 0.0000 0.0000 0.0000
# 4 0.0000 0.0000 0.0000 94.9064 0.0000 0.0000
# 5 0.0000 0.0000 0.0000 0.0000 94.8955 0.0000
# 6 0.0000 0.0000 0.0000 0.0000 0.0000 36.2426
#
#
#
# Elastic Compliance Matrix: (Units=1/GPa)
#
#
# Indices 1 2 3 4 5 6 
#
# 1 0.018978 -0.003652 -0.005535 0.000000 0.000000 0.000000
# 2 -0.003652 0.018979 -0.005536 0.000000 0.000000 0.000000
# 3 -0.005535 -0.005536 0.025234 0.000000 0.000000 0.000000
# 4 0.000000 0.000000 0.000000 0.010537 0.000000 0.000000
# 5 0.000000 0.000000 0.000000 0.000000 0.010538 0.000000
# 6 0.000000 0.000000 0.000000 0.000000 0.000000 0.027592
#
#
# Mechanical properties :
#
#
# Convention : Reuss Voigt Hill
#
# Bulk Modulus (GPa) = 29.63228 30.01908 29.82568
# Shear Modulus (GPa) = 32.77579 53.08380 42.92979
#
# Velocity S-wave (km/s) = 3.91530 4.98276 4.48093
# Velocity P-wave (km/s) = 5.85652 6.86616 6.38134
#
# Compressibility (1/GPa) = 0.03374699
#
# Stress axis : x y z
#
# Youngs Moduli (GPa) = 52.69263 52.68928 39.62846
#
# Poissons Ratio (x) = 0.19242 0.21934
# Poissons Ratio (y) = 0.19243 0.21937
# Poissons Ratio (z) = 0.29164 0.29167
#
# Static dielectric constant tensor:
#      x y z
#    x 1.606430 0.000000 0.000000 
#    y 0.000000 1.606420 0.000000 
#    z 0.000000 0.000000 1.740310 
# 
# From -- ./inp_files/6569.got.cif
#   From: 2010.05.17/outbox.cif.g08.bks.cpg/sg135_4_cif.got.tgz:6569.got - 2010.05.20 12:50:20.
