data_PCOD9569350
_publ_section_title
;
Structure prediction by ZEFSAII (Michael W. Deem and Ramdas Pophale) SiO2 
 PCOD9569350
Probable space group: P 42/M N M
;
_chemical_formula_sum "Si O2"
_cell_formula_units_Z 72
_cell_length_a 20.737077
_cell_length_b 20.737077
_cell_length_c 10.498259
_cell_angle_alpha 90.000000
_cell_angle_beta 90.000000
_cell_angle_gamma 90.000000
_cell_volume 4514.528130
_symmetry_space_group_name_H-M "P 42/M N M"
_symmetry_group_IT_number 136
_symmetry_cell_setting 'tetragonal'
loop_
_space_group_symop_operation_xyz
x,y,z
1/2-y,1/2+x,1/2+z
-x,-y,z
1/2+y,1/2-x,1/2+z
1/2+x,1/2-y,1/2-z
1/2-x,1/2+y,1/2-z
y,x,-z
-y,-x,-z
-x,-y,-z
1/2+y,1/2-x,1/2-z
x,y,-z
1/2-y,1/2+x,1/2-z
1/2-x,1/2+y,1/2+z
1/2+x,1/2-y,1/2+z
-y,-x,z
y,x,z
loop_
_atom_site_type_symbol
_atom_site_label
_atom_site_fract_x
_atom_site_fract_y
_atom_site_fract_z
Si Si1 0.309958 0.799822 0.000000
Si Si2 0.002282 0.814459 0.241602
Si Si3 0.863114 0.751967 0.242246
Si Si4 0.445997 0.554004 0.354876
Si Si5 0.094334 0.794836 0.000000
Si Si6 0.808991 0.300825 0.500000
Si Si7 0.084205 0.804711 0.500000
O O1 0.349569 0.785480 0.873063
O O2 0.253279 0.746722 0.000000
O O3 0.272179 0.866918 0.000000
O O4 0.040398 0.808835 0.373970
O O5 0.937467 0.772021 0.235735
O O6 0.976206 0.886353 0.218575
O O7 0.050493 0.799844 0.125258
O O8 0.815733 0.815733 0.238980
O O9 0.842107 0.706891 0.125030
O O10 0.500000 0.500000 0.366198
O O11 0.426408 0.573593 0.500000
O O12 0.146152 0.853849 0.000000
O O13 0.755895 0.244106 0.500000
O O14 0.876189 0.262646 0.500000
O O15 0.136862 0.863139 0.500000
#
# Coordination Sequence:
#
# PCOD9569350 Si02
#       7
#     8  16  16   8   8   8   8
#     4   9  19  34  53  70  99 134 175 217 272 311
#     4  12  22  34  54  77 110 140 188 217 256 311
#     4  10  19  34  52  75 100 135 175 222 265 304
#     4  11  22  35  49  73 107 157 189 215 233 290
#     4  11  21  35  54  77 102 144 181 221 254 306
#     4   9  19  34  55  72  99 134 177 223 278 315
#     4  11  23  37  50  77 112 148 173 219 272 320
#
# _framework density 15.948511
#
# number of rings (size 3 to 8) (size 9 to 14) (size 15 to 20)
#    0.000    1.444    2.222    4.667    0.000    4.000 
#    0.000    1.111    0.000    0.000    0.000    0.000 
#    0.000   62.222    0.000    0.000    0.000    0.000 
#
# Total GULP energy -401892.894540 kJ/mol
# GULP energy per Si atom -5581.845758 kJ/mol
# Density = 1.591221 g / cm^3
# Si number density = 15.948511 Si / 1000 Ang^3
#
#
#
# Elastic Constant Matrix: (Units=GPa)
#
#
# Indices 1 2 3 4 5 6 
#
# 1 1035.1140 -859.9274 75.5088 0.0000 0.0000 0.0000
# 2 -859.9274 1035.1257 75.4751 0.0000 0.0000 0.0000
# 3 75.5088 75.4751 183.2002 0.0000 0.0000 0.0000
# 4 0.0000 0.0000 0.0000 18.7359 0.0000 0.0000
# 5 0.0000 0.0000 0.0000 0.0000 18.7351 0.0000
# 6 0.0000 0.0000 0.0000 0.0000 0.0000 42.3233
#
#
#
# Elastic Compliance Matrix: (Units=1/GPa)
#
#
# Indices 1 2 3 4 5 6 
#
# 1 0.004690 0.004162 -0.003648 0.000000 0.000000 0.000000
# 2 0.004162 0.004689 -0.003647 0.000000 0.000000 0.000000
# 3 -0.003648 -0.003647 0.008465 0.000000 0.000000 0.000000
# 4 0.000000 0.000000 0.000000 0.053374 0.000000 0.000000
# 5 0.000000 0.000000 0.000000 0.000000 0.053376 0.000000
# 6 0.000000 0.000000 0.000000 0.000000 0.000000 0.023628
#
#
# Mechanical properties :
#
#
# Convention : Reuss Voigt Hill
#
# Bulk Modulus (GPa) = 86.37337 92.83921 89.60629
# Shear Modulus (GPa) = 31.57645 213.45108 122.51376
#
# Velocity S-wave (km/s) = 4.45443 11.58137 8.77411
# Velocity P-wave (km/s) = 8.98505 15.40051 12.60768
#
# Compressibility (1/GPa) = 0.01157764
#
# Stress axis : x y z
#
# Youngs Moduli (GPa) = 213.23520 213.24357 118.13990
#
# Poissons Ratio (x) = -0.88749 0.43092
# Poissons Ratio (y) = -0.88746 0.43090
# Poissons Ratio (z) = 0.77778 0.77778
#
# Static dielectric constant tensor:
#      x y z
#    x 1.524020 0.000000 0.000000 
#    y 0.000000 1.524020 0.000000 
#    z 0.000000 0.000000 1.540180 
# 
# From -- ./inp_files/1677.got.cif
#   From: 2010.05.17/outbox.cif.g08.bks.cpg/sg136_1_cif.got.tgz:1677.got - 2010.05.20 12:54:53.
