data_PCOD9569326
_publ_section_title
;
Structure prediction by ZEFSAII (Michael W. Deem and Ramdas Pophale) SiO2 
 PCOD9569326
Probable space group: P 42/M N M
;
_chemical_formula_sum "Si O2"
_cell_formula_units_Z 120
_cell_length_a 17.378879
_cell_length_b 17.378879
_cell_length_c 22.533460
_cell_angle_alpha 90.000000
_cell_angle_beta 90.000000
_cell_angle_gamma 90.000000
_cell_volume 6805.678065
_symmetry_space_group_name_H-M "P 42/M N M"
_symmetry_group_IT_number 136
_symmetry_cell_setting 'tetragonal'
loop_
_space_group_symop_operation_xyz
x,y,z
1/2-y,1/2+x,1/2+z
-x,-y,z
1/2+y,1/2-x,1/2+z
1/2+x,1/2-y,1/2-z
1/2-x,1/2+y,1/2-z
y,x,-z
-y,-x,-z
-x,-y,-z
1/2+y,1/2-x,1/2-z
x,y,-z
1/2-y,1/2+x,1/2-z
1/2-x,1/2+y,1/2+z
1/2+x,1/2-y,1/2+z
-y,-x,z
y,x,z
loop_
_atom_site_type_symbol
_atom_site_label
_atom_site_fract_x
_atom_site_fract_y
_atom_site_fract_z
Si Si1 0.158824 0.290047 0.724228
Si Si2 0.168252 0.299437 0.861753
Si Si3 0.737435 0.476127 0.570408
Si Si4 0.411662 0.282357 0.070120
Si Si5 0.315610 0.557501 0.145854
Si Si6 0.901725 0.229476 0.158969
Si Si7 0.061098 0.061098 0.928655
Si Si8 0.376750 0.505173 0.267313
O O1 0.220166 0.220166 0.726454
O O2 0.143668 0.309170 0.793041
O O3 0.091828 0.257412 0.682039
O O4 0.202270 0.360112 0.693150
O O5 0.225004 0.225004 0.865715
O O6 0.092903 0.284662 0.900631
O O7 0.218214 0.369002 0.889468
O O8 0.745198 0.474995 0.500000
O O9 0.755596 0.558767 0.598341
O O10 0.647644 0.460984 0.586160
O O11 0.359806 0.359806 0.076556
O O12 0.497618 0.295537 0.094484
O O13 0.410406 0.262041 0.000000
O O14 0.371847 0.628154 0.127293
O O15 0.359899 0.511382 0.197753
O O16 0.838540 0.161461 0.150086
O O17 0.971541 0.196124 0.198839
O O18 0.057015 0.057015 0.000000
O O19 0.000000 0.000000 0.904017
O O20 0.411805 0.588196 0.285796
O O21 0.442685 0.442685 0.276812
#
# Coordination Sequence:
#
# PCOD9569326 Si02
#       8
#    16  16  16  16  16  16   8  16
#     4   9  19  34  53  76 102 141 185 231 273 319
#     4  10  19  34  55  79 108 141 182 226 273 321
#     4  11  21  32  50  75 108 146 180 216 256 312
#     4  10  21  35  54  81 113 146 178 219 273 333
#     4  10  19  33  53  77 106 138 179 225 277 331
#     4  10  20  33  49  73 108 143 184 223 264 315
#     4   9  18  30  44  70 110 152 183 203 238 294
#     4   9  17  28  46  74 105 137 171 215 270 325
#
# _framework density 17.632335000000001
#
# number of rings (size 3 to 8) (size 9 to 14) (size 15 to 20)
#    0.000    2.200    0.667    2.800    0.933    5.600 
#    0.000    1.333    0.000    3.200    0.000    3.733 
#    0.000    0.000    0.000    0.000    0.000    0.000 
#
# Total GULP energy -669324.352960 kJ/mol
# GULP energy per Si atom -5577.702941 kJ/mol
# Density = 1.759220 g / cm^3
# Si number density = 17.632335 Si / 1000 Ang^3
#
#
#
# Elastic Constant Matrix: (Units=GPa)
#
#
# Indices 1 2 3 4 5 6 
#
# 1 63.0873 36.2445 45.9601 0.0000 0.0000 0.0000
# 2 36.2445 63.0873 45.9601 0.0000 0.0000 0.0000
# 3 45.9601 45.9601 101.9837 0.0000 0.0000 0.0000
# 4 0.0000 0.0000 0.0000 29.4431 0.0000 0.0000
# 5 0.0000 0.0000 0.0000 0.0000 29.4431 0.0000
# 6 0.0000 0.0000 0.0000 0.0000 0.0000 17.7914
#
#
#
# Elastic Compliance Matrix: (Units=1/GPa)
#
#
# Indices 1 2 3 4 5 6 
#
# 1 0.027262 -0.009992 -0.007783 0.000000 0.000000 0.000000
# 2 -0.009992 0.027262 -0.007783 0.000000 0.000000 0.000000
# 3 -0.007783 -0.007783 0.016820 0.000000 0.000000 0.000000
# 4 0.000000 0.000000 0.000000 0.033964 0.000000 0.000000
# 5 0.000000 0.000000 0.000000 0.000000 0.033964 0.000000
# 6 0.000000 0.000000 0.000000 0.000000 0.000000 0.056207
#
#
# Mechanical properties :
#
#
# Convention : Reuss Voigt Hill
#
# Bulk Modulus (GPa) = 49.43594 53.83192 51.63393
# Shear Modulus (GPa) = 19.73669 22.00177 20.86923
#
# Velocity S-wave (km/s) = 3.34929 3.53626 3.44405
# Velocity P-wave (km/s) = 6.56163 6.87532 6.72031
#
# Compressibility (1/GPa) = 0.02022820
#
# Stress axis : x y z
#
# Youngs Moduli (GPa) = 36.68174 36.68174 59.45290
#
# Poissons Ratio (x) = 0.36654 0.46269
# Poissons Ratio (y) = 0.36654 0.46269
# Poissons Ratio (z) = 0.28548 0.28548
#
# Static dielectric constant tensor:
#      x y z
#    x 1.609250 0.000000 0.000000 
#    y 0.000000 1.609250 0.000000 
#    z 0.000000 0.000000 1.617650 
# 
# From -- ./inp_files/7798.got.cif
#   From: 2010.05.17/outbox.cif.g08.bks.cpg/sg136_4_cif.got.tgz:7798.got - 2010.05.20 12:54:53.
