data_PCOD9569946
_publ_section_title
;
Structure prediction by ZEFSAII (Michael W. Deem and Ramdas Pophale) SiO2 
 PCOD9569946
Probable space group: P 42/N M C
;
_chemical_formula_sum "Si O2"
_cell_formula_units_Z 88
_cell_length_a 12.236197
_cell_length_b 12.236197
_cell_length_c 29.024390
_cell_angle_alpha 90.000000
_cell_angle_beta 90.000000
_cell_angle_gamma 90.000000
_cell_volume 4345.662775
_symmetry_space_group_name_H-M "P 42/N M C"
_symmetry_group_IT_number 137
_space_group.IT_coordinate_system_code '2'
_symmetry_cell_setting 'tetragonal'
loop_
_space_group_symop_operation_xyz
x,y,z
1/2-y,x,1/2+z
1/2-x,1/2-y,z
y,1/2-x,1/2+z
1/2+x,-y,-z
-x,1/2+y,-z
1/2+y,1/2+x,1/2-z
-y,-x,1/2-z
-x,-y,-z
1/2+y,-x,1/2-z
1/2+x,1/2+y,-z
-y,1/2+x,1/2-z
1/2-x,y,z
x,1/2-y,z
1/2-y,1/2-x,1/2+z
y,x,1/2+z
loop_
_atom_site_type_symbol
_atom_site_label
_atom_site_fract_x
_atom_site_fract_y
_atom_site_fract_z
Si Si1 0.126877 0.372170 0.556177
Si Si2 0.024265 0.502310 0.197379
Si Si3 0.118676 0.250000 0.912208
Si Si4 0.465057 0.120884 0.463738
Si Si5 0.750000 0.526962 0.689356
Si Si6 0.070597 0.625220 0.882871
Si Si7 0.250000 0.378968 0.209799
O O1 0.250000 0.375708 0.535492
O O2 0.101208 0.250000 0.569680
O O3 0.042890 0.413887 0.517660
O O4 0.130200 0.445580 0.600637
O O5 0.036378 0.633611 0.190948
O O6 0.140155 0.440295 0.193172
O O7 0.985890 0.485890 0.250000
O O8 0.935279 0.451527 0.161890
O O9 0.250000 0.250000 0.915799
O O10 0.074717 0.139890 0.936314
O O11 0.089644 0.250000 0.858770
O O12 0.442605 0.250000 0.470288
O O13 0.567285 0.118818 0.428665
O O14 0.750000 0.603998 0.734453
O O15 0.109608 0.750000 0.875403
O O16 0.250000 0.250000 0.198493
#
# Coordination Sequence:
#
# PCOD9569946 Si02
#       7
#    16  16   8  16   8  16   8
#     4   9  18  33  55  83 112 144 186 235 284 340
#     4  10  22  38  58  84 115 148 193 245 299 350
#     4  10  17  30  57  83 106 139 193 244 284 326
#     4  10  19  34  56  80 110 147 193 240 282 337
#     4  10  19  37  58  85 111 146 193 249 297 342
#     4  11  22  35  54  83 117 154 189 232 291 354
#     4  10  21  37  59  84 117 149 189 235 297 368
#
# _framework density 20.250074999999999
#
# number of rings (size 3 to 8) (size 9 to 14) (size 15 to 20)
#    0.000    2.000    2.727    1.364    1.273    0.727 
#    0.000    2.727    0.000    0.000    0.000    0.000 
#    0.000    0.000    0.000    0.000    0.000    0.000 
#
# Total GULP energy -489876.100036 kJ/mol
# GULP energy per Si atom -5566.773864 kJ/mol
# Density = 2.020399 g / cm^3
# Si number density = 20.250075 Si / 1000 Ang^3
#
#
#
# Elastic Constant Matrix: (Units=GPa)
#
#
# Indices 1 2 3 4 5 6 
#
# 1 72.4886 6.0899 7.0875 0.0000 0.0000 0.0000
# 2 6.0899 72.4886 7.0875 0.0000 0.0000 0.0000
# 3 7.0875 7.0875 94.3090 0.0000 0.0000 0.0000
# 4 0.0000 0.0000 0.0000 23.5426 0.0000 0.0000
# 5 0.0000 0.0000 0.0000 0.0000 23.5426 0.0000
# 6 0.0000 0.0000 0.0000 0.0000 0.0000 -15.8909
#
#
#
# Elastic Compliance Matrix: (Units=1/GPa)
#
#
# Indices 1 2 3 4 5 6 
#
# 1 0.013981 -0.001080 -0.000970 0.000000 0.000000 0.000000
# 2 -0.001080 0.013981 -0.000970 0.000000 0.000000 0.000000
# 3 -0.000970 -0.000970 0.010749 0.000000 0.000000 0.000000
# 4 0.000000 0.000000 0.000000 0.042476 0.000000 0.000000
# 5 0.000000 0.000000 0.000000 0.000000 0.042476 0.000000
# 6 0.000000 0.000000 0.000000 0.000000 0.000000 -0.062929
#
#
# Mechanical properties :
#
#
# Convention : Reuss Voigt Hill
#
# Bulk Modulus (GPa) = 30.60622 31.09065 30.84844
# Shear Modulus (GPa) = 64.38071 20.84026 42.61049
#
# Velocity S-wave (km/s) = 5.64463 3.21151 4.59215
# Velocity P-wave (km/s) = 7.59140 5.39800 6.58665
#
# Compressibility (1/GPa) = 0.03267309
#
# Stress axis : x y z
#
# Youngs Moduli (GPa) = 71.52673 71.52673 93.03049
#
# Poissons Ratio (x) = 0.07723 0.09020
# Poissons Ratio (y) = 0.07723 0.09020
# Poissons Ratio (z) = 0.06935 0.06935
#
# Static dielectric constant tensor:
#      x y z
#    x 1.773290 0.000000 0.000000 
#    y 0.000000 1.773290 0.000000 
#    z 0.000000 0.000000 1.739840 
# 
# From -- ./inp_files/10492.got.cif
#   From: 2010.05.17/outbox.cif.g08.bks.cpg/sg137_6_cif.got.tgz:10492.got - 2010.05.20 13:01:12.
