data_PCOD9569168
_publ_section_title
;
Structure prediction by ZEFSAII (Michael W. Deem and Ramdas Pophale) SiO2 
 PCOD9569168
Probable space group: P 42/M N M
;
_chemical_formula_sum "Si O2"
_cell_formula_units_Z 112
_cell_length_a 22.947516
_cell_length_b 22.947516
_cell_length_c 12.513256
_cell_angle_alpha 90.000000
_cell_angle_beta 90.000000
_cell_angle_gamma 90.000000
_cell_volume 6589.336589
_symmetry_space_group_name_H-M "P 42/M N M"
_symmetry_group_IT_number 136
_symmetry_cell_setting 'tetragonal'
loop_
_space_group_symop_operation_xyz
x,y,z
1/2-y,1/2+x,1/2+z
-x,-y,z
1/2+y,1/2-x,1/2+z
1/2+x,1/2-y,1/2-z
1/2-x,1/2+y,1/2-z
y,x,-z
-y,-x,-z
-x,-y,-z
1/2+y,1/2-x,1/2-z
x,y,-z
1/2-y,1/2+x,1/2-z
1/2-x,1/2+y,1/2+z
1/2+x,1/2-y,1/2+z
-y,-x,z
y,x,z
loop_
_atom_site_type_symbol
_atom_site_label
_atom_site_fract_x
_atom_site_fract_y
_atom_site_fract_z
Si Si1 0.700166 0.204740 0.736427
Si Si2 0.586614 0.793823 0.623070
Si Si3 0.799144 0.294760 0.500000
Si Si4 0.972110 0.252908 0.680070
Si Si5 0.598545 0.920975 0.336925
Si Si6 0.610639 0.050673 0.618486
Si Si7 0.600342 0.234933 0.121822
Si Si8 0.102369 0.804371 0.500000
O O1 0.761053 0.238948 0.726318
O O2 0.708111 0.146544 0.807244
O O3 0.676753 0.192651 0.616473
O O4 0.653966 0.243975 0.799673
O O5 0.594898 0.776455 0.500000
O O6 0.543480 0.755458 0.694940
O O7 0.566885 0.862107 0.623738
O O8 0.735085 0.264916 0.500000
O O9 0.846391 0.243370 0.500000
O O10 0.958062 0.319737 0.640469
O O11 0.934445 0.210291 0.606028
O O12 0.039322 0.239190 0.659101
O O13 0.590181 0.917258 0.209729
O O14 0.665050 0.911265 0.372863
O O15 0.582954 0.985655 0.373708
O O16 0.603263 0.073928 0.500000
O O17 0.613726 0.250700 0.000000
O O18 0.133091 0.866910 0.500000
#
# Coordination Sequence:
#
# PCOD9569168 Si02
#       8
#    16  16   8  16  16  16  16   8
#     4  10  19  31  48  72  98 128 162 198 242 287
#     4  10  19  30  46  66  92 122 157 198 242 292
#     4   9  18  30  46  72 102 124 153 198 240 282
#     4  10  18  32  49  67  93 123 155 192 236 285
#     4   9  18  30  43  60  77 109 154 191 239 278
#     4  10  18  31  46  57  79 112 149 193 238 276
#     4  10  19  33  49  65  91 125 156 190 232 289
#     4  11  18  30  54  78  95 122 160 199 238 285
#
# _framework density 16.997157999999999
#
# number of rings (size 3 to 8) (size 9 to 14) (size 15 to 20)
#    0.000    2.143    2.857    3.429    0.000    1.429 
#    1.286    7.857    0.000    0.000    0.000    0.000 
#    0.000    1.143    0.000    0.000    0.000    4.000 
#
# Total GULP energy -624052.119221 kJ/mol
# GULP energy per Si atom -5571.893922 kJ/mol
# Density = 1.695847 g / cm^3
# Si number density = 16.997158 Si / 1000 Ang^3
#
#
#
# Elastic Constant Matrix: (Units=GPa)
#
#
# Indices 1 2 3 4 5 6 
#
# 1 23.5297 -4.3697 16.5696 0.0000 0.0000 0.0000
# 2 -4.3697 23.5285 16.5697 0.0000 0.0000 0.0000
# 3 16.5696 16.5697 173.4950 0.0000 0.0000 0.0000
# 4 0.0000 0.0000 0.0000 13.8289 0.0000 0.0000
# 5 0.0000 0.0000 0.0000 0.0000 13.8299 0.0000
# 6 0.0000 0.0000 0.0000 0.0000 0.0000 4.6882
#
#
#
# Elastic Compliance Matrix: (Units=1/GPa)
#
#
# Indices 1 2 3 4 5 6 
#
# 1 0.049181 0.013339 -0.005971 0.000000 0.000000 0.000000
# 2 0.013339 0.049184 -0.005971 0.000000 0.000000 0.000000
# 3 -0.005971 -0.005971 0.006904 0.000000 0.000000 0.000000
# 4 0.000000 0.000000 0.000000 0.072312 0.000000 0.000000
# 5 0.000000 0.000000 0.000000 0.000000 0.072307 0.000000
# 6 0.000000 0.000000 0.000000 0.000000 0.000000 0.213303
#
#
# Mechanical properties :
#
#
# Convention : Reuss Voigt Hill
#
# Bulk Modulus (GPa) = 9.25385 30.89915 20.07650
# Shear Modulus (GPa) = 10.07210 19.25495 14.66353
#
# Velocity S-wave (km/s) = 2.43693 3.36941 2.94037
# Velocity P-wave (km/s) = 3.65709 5.77544 4.83374
#
# Compressibility (1/GPa) = 0.10806318
#
# Stress axis : x y z
#
# Youngs Moduli (GPa) = 20.33292 20.33173 144.83518
#
# Poissons Ratio (x) = -0.27120 0.86481
# Poissons Ratio (y) = -0.27122 0.86485
# Poissons Ratio (z) = 0.12141 0.12141
#
# Static dielectric constant tensor:
#      x y z
#    x 1.602480 0.000000 0.000000 
#    y 0.000000 1.602480 0.000000 
#    z 0.000000 0.000000 1.628550 
# 
# From -- ./inp_files/4054.got.cif
#   From: 2010.05.17/outbox.cif.g08.bks.cpg/sg136_3_cif.got.tgz:4054.got - 2010.05.20 12:54:53.
