data_PCOD9569359
_publ_section_title
;
Structure prediction by ZEFSAII (Michael W. Deem and Ramdas Pophale) SiO2 
 PCOD9569359
Probable space group: P 42/M N M
;
_chemical_formula_sum "Si O2"
_cell_formula_units_Z 42
_cell_length_a 13.822328
_cell_length_b 13.822328
_cell_length_c 10.851061
_cell_angle_alpha 90.000000
_cell_angle_beta 90.000000
_cell_angle_gamma 90.000000
_cell_volume 2073.168463
_symmetry_space_group_name_H-M "P 42/M N M"
_symmetry_group_IT_number 136
_symmetry_cell_setting 'tetragonal'
loop_
_space_group_symop_operation_xyz
x,y,z
1/2-y,1/2+x,1/2+z
-x,-y,z
1/2+y,1/2-x,1/2+z
1/2+x,1/2-y,1/2-z
1/2-x,1/2+y,1/2-z
y,x,-z
-y,-x,-z
-x,-y,-z
1/2+y,1/2-x,1/2-z
x,y,-z
1/2-y,1/2+x,1/2-z
1/2-x,1/2+y,1/2+z
1/2+x,1/2-y,1/2+z
-y,-x,z
y,x,z
loop_
_atom_site_type_symbol
_atom_site_label
_atom_site_fract_x
_atom_site_fract_y
_atom_site_fract_z
Si Si1 0.762727 0.012802 0.000000
Si Si2 0.186081 0.350233 0.000000
Si Si3 0.935193 0.229988 0.735274
Si Si4 0.000000 0.000000 0.000000
Si Si5 0.083243 0.083243 0.645229
O O1 0.732571 0.065424 0.873953
O O2 0.879640 0.001520 0.000000
O O3 0.711776 0.909756 0.000000
O O4 0.197778 0.412860 0.875874
O O5 0.276404 0.276404 0.000000
O O6 0.854353 0.145648 0.728843
O O7 0.037642 0.176614 0.709380
O O8 0.099183 0.099183 0.500000
O O9 0.000000 0.000000 0.655470
#
# Coordination Sequence:
#
# PCOD9569359 Si02
#       5
#     8   8  16   2   8
#     4  12  22  36  62  89 128 157 203 253 308 374
#     4  10  22  37  55  88 128 162 197 253 311 373
#     4  10  19  34  55  86 123 161 200 247 312 365
#     4  12  20  36  56 106 124 158 188 252 316 368
#     4   9  15  26  51  81 115 157 194 238 295 373
#
# _framework density 20.258845999999998
#
# number of rings (size 3 to 8) (size 9 to 14) (size 15 to 20)
#    0.000    1.714    4.762    1.143    2.667    0.000 
#    0.000    1.905    0.000    3.429    0.000    0.000 
#    0.000    0.000    0.000    0.000    0.000    0.000 
#
# Total GULP energy -233927.328164 kJ/mol
# GULP energy per Si atom -5569.698290 kJ/mol
# Density = 2.021274 g / cm^3
# Si number density = 20.258846 Si / 1000 Ang^3
#
#
#
# Elastic Constant Matrix: (Units=GPa)
#
#
# Indices 1 2 3 4 5 6 
#
# 1 48.6176 33.2042 50.4010 0.0000 0.0000 0.0000
# 2 33.2042 48.6176 50.4010 0.0000 0.0000 0.0000
# 3 50.4010 50.4010 160.0661 0.0000 0.0000 0.0000
# 4 0.0000 0.0000 0.0000 -4.3370 0.0000 0.0000
# 5 0.0000 0.0000 0.0000 0.0000 -4.3370 0.0000
# 6 0.0000 0.0000 0.0000 0.0000 0.0000 31.6760
#
#
#
# Elastic Compliance Matrix: (Units=1/GPa)
#
#
# Indices 1 2 3 4 5 6 
#
# 1 0.042423 -0.022455 -0.006287 0.000000 0.000000 0.000000
# 2 -0.022455 0.042423 -0.006287 0.000000 0.000000 0.000000
# 3 -0.006287 -0.006287 0.010207 0.000000 0.000000 0.000000
# 4 0.000000 0.000000 0.000000 -0.230576 0.000000 0.000000
# 5 0.000000 0.000000 0.000000 0.000000 -0.230576 0.000000
# 6 0.000000 0.000000 0.000000 0.000000 0.000000 0.031570
#
#
# Mechanical properties :
#
#
# Convention : Reuss Voigt Hill
#
# Bulk Modulus (GPa) = 40.01185 58.36816 49.19001
# Shear Modulus (GPa) = -19.52066 12.82009 -3.35028
#
# Velocity S-wave (km/s) = -3.10750 2.51831 -1.28737
# Velocity P-wave (km/s) = 2.63017 6.10979 4.70358
#
# Compressibility (1/GPa) = 0.02499260
#
# Stress axis : x y z
#
# Youngs Moduli (GPa) = 23.57220 23.57220 97.97366
#
# Poissons Ratio (x) = 0.52932 0.61598
# Poissons Ratio (y) = 0.52932 0.61598
# Poissons Ratio (z) = 0.14820 0.14820
#
# Static dielectric constant tensor:
#      x y z
#    x 1.703070 0.000000 0.000000 
#    y 0.000000 1.703070 0.000000 
#    z 0.000000 0.000000 1.793870 
# 
# From -- ./inp_files/2909.got.cif
#   From: 2010.05.17/outbox.cif.g08.bks.cpg/sg136_2_cif.got.tgz:2909.got - 2010.05.20 12:54:53.
