data_PCOD9569845
_publ_section_title
;
Structure prediction by ZEFSAII (Michael W. Deem and Ramdas Pophale) SiO2 
 PCOD9569845
Probable space group: P 42/M N M
;
_chemical_formula_sum "Si O2"
_cell_formula_units_Z 96
_cell_length_a 14.869827
_cell_length_b 14.869827
_cell_length_c 20.753398
_cell_angle_alpha 90.000000
_cell_angle_beta 90.000000
_cell_angle_gamma 90.000000
_cell_volume 4588.820254
_symmetry_space_group_name_H-M "P 42/M N M"
_symmetry_group_IT_number 136
_symmetry_cell_setting 'tetragonal'
loop_
_space_group_symop_operation_xyz
x,y,z
1/2-y,1/2+x,1/2+z
-x,-y,z
1/2+y,1/2-x,1/2+z
1/2+x,1/2-y,1/2-z
1/2-x,1/2+y,1/2-z
y,x,-z
-y,-x,-z
-x,-y,-z
1/2+y,1/2-x,1/2-z
x,y,-z
1/2-y,1/2+x,1/2-z
1/2-x,1/2+y,1/2+z
1/2+x,1/2-y,1/2+z
-y,-x,z
y,x,z
loop_
_atom_site_type_symbol
_atom_site_label
_atom_site_fract_x
_atom_site_fract_y
_atom_site_fract_z
Si Si1 0.426308 0.281356 0.500000
Si Si2 0.575443 0.424558 0.721159
Si Si3 0.065218 0.412760 0.500000
Si Si4 0.076064 0.076064 0.623556
Si Si5 0.824266 0.676843 0.698339
Si Si6 0.499233 0.263744 0.364772
Si Si7 0.323659 0.178268 0.852238
Si Si8 0.480888 0.774059 0.111838
O O1 0.327728 0.327728 0.500000
O O2 0.429189 0.172605 0.500000
O O3 0.473942 0.308363 0.433058
O O4 0.500000 0.500000 0.711747
O O5 0.586340 0.413661 0.798120
O O6 0.665143 0.459424 0.685879
O O7 0.044732 0.349268 0.439494
O O8 0.000000 0.500000 0.500000
O O9 0.172595 0.047725 0.596086
O O10 0.000000 0.000000 0.613013
O O11 0.760353 0.760353 0.679280
O O12 0.782373 0.588936 0.665030
O O13 0.821913 0.668709 0.774933
O O14 0.924549 0.696884 0.674869
O O15 0.576951 0.190332 0.375774
O O16 0.237314 0.237314 0.870510
O O17 0.413307 0.222710 0.878155
#
# Coordination Sequence:
#
# PCOD9569845 Si02
#       8
#     8   8   8   8  16  16  16  16
#     4  12  26  45  71 100 139 185 241 292 345 422
#     4  11  22  41  69 101 147 189 224 292 366 424
#     4  12  28  50  70 101 145 190 241 300 357 422
#     4  11  24  45  71 109 145 179 233 297 366 436
#     4  11  22  40  69 104 137 174 236 294 350 417
#     4  12  24  42  66 102 142 184 238 290 352 426
#     4  11  24  43  66  99 143 186 225 286 359 431
#     4  12  25  43  72 100 137 187 236 290 358 416
#
# _framework density 20.920408999999999
#
# number of rings (size 3 to 8) (size 9 to 14) (size 15 to 20)
#    0.000    0.500    3.333    6.000    1.167    3.000 
#    0.000    5.417    0.000    0.000    0.000    0.000 
#    0.000    0.000    0.000    0.000    0.000    0.000 
#
# Total GULP energy -537150.908379 kJ/mol
# GULP energy per Si atom -5595.321962 kJ/mol
# Density = 2.087279 g / cm^3
# Si number density = 20.920409 Si / 1000 Ang^3
#
#
#
# Elastic Constant Matrix: (Units=GPa)
#
#
# Indices 1 2 3 4 5 6 
#
# 1 117.0674 26.7906 14.3685 0.0000 0.0000 0.0000
# 2 26.7906 117.0674 14.3685 0.0000 0.0000 0.0000
# 3 14.3685 14.3685 45.6853 0.0000 0.0000 0.0000
# 4 0.0000 0.0000 0.0000 20.6644 0.0000 0.0000
# 5 0.0000 0.0000 0.0000 0.0000 20.6644 0.0000
# 6 0.0000 0.0000 0.0000 0.0000 0.0000 45.7611
#
#
#
# Elastic Compliance Matrix: (Units=1/GPa)
#
#
# Indices 1 2 3 4 5 6 
#
# 1 0.009247 -0.001830 -0.002333 0.000000 0.000000 0.000000
# 2 -0.001830 0.009247 -0.002333 0.000000 0.000000 0.000000
# 3 -0.002333 -0.002333 0.023356 0.000000 0.000000 0.000000
# 4 0.000000 0.000000 0.000000 0.048393 0.000000 0.000000
# 5 0.000000 0.000000 0.000000 0.000000 0.048393 0.000000
# 6 0.000000 0.000000 0.000000 0.000000 0.000000 0.021853
#
#
# Mechanical properties :
#
#
# Convention : Reuss Voigt Hill
#
# Bulk Modulus (GPa) = 34.65047 43.43056 39.04051
# Shear Modulus (GPa) = 27.30761 32.37080 29.83920
#
# Velocity S-wave (km/s) = 3.61683 3.93788 3.78076
# Velocity P-wave (km/s) = 5.83446 6.44056 6.14499
#
# Compressibility (1/GPa) = 0.02885963
#
# Stress axis : x y z
#
# Youngs Moduli (GPa) = 108.14120 108.14120 42.81503
#
# Poissons Ratio (x) = 0.19788 0.09988
# Poissons Ratio (y) = 0.19788 0.09988
# Poissons Ratio (z) = 0.25227 0.25227
#
# Static dielectric constant tensor:
#      x y z
#    x 1.733920 0.000000 0.000000 
#    y 0.000000 1.733920 0.000000 
#    z 0.000000 0.000000 1.775190 
# 
# From -- ./inp_files/7568.got.cif
#   From: 2010.05.17/outbox.cif.g08.bks.cpg/sg136_4_cif.got.tgz:7568.got - 2010.05.20 12:54:53.
