data_PCOD9569399
_publ_section_title
;
Structure prediction by ZEFSAII (Michael W. Deem and Ramdas Pophale) SiO2 
 PCOD9569399
Probable space group: P 42/M N M
;
_chemical_formula_sum "Si O2"
_cell_formula_units_Z 52
_cell_length_a 14.483547
_cell_length_b 14.483547
_cell_length_c 11.860365
_cell_angle_alpha 90.000000
_cell_angle_beta 90.000000
_cell_angle_gamma 90.000000
_cell_volume 2487.985933
_symmetry_space_group_name_H-M "P 42/M N M"
_symmetry_group_IT_number 136
_symmetry_cell_setting 'tetragonal'
loop_
_space_group_symop_operation_xyz
x,y,z
1/2-y,1/2+x,1/2+z
-x,-y,z
1/2+y,1/2-x,1/2+z
1/2+x,1/2-y,1/2-z
1/2-x,1/2+y,1/2-z
y,x,-z
-y,-x,-z
-x,-y,-z
1/2+y,1/2-x,1/2-z
x,y,-z
1/2-y,1/2+x,1/2-z
1/2-x,1/2+y,1/2+z
1/2+x,1/2-y,1/2+z
-y,-x,z
y,x,z
loop_
_atom_site_type_symbol
_atom_site_label
_atom_site_fract_x
_atom_site_fract_y
_atom_site_fract_z
Si Si1 0.424651 0.424651 0.760767
Si Si2 0.745996 0.016145 0.866078
Si Si3 0.102486 0.897515 0.500000
Si Si4 0.576350 0.275612 0.000000
Si Si5 0.696994 0.854784 0.721221
O O1 0.500000 0.500000 0.802467
O O2 0.348594 0.476221 0.686006
O O3 0.375100 0.375100 0.868131
O O4 0.690452 0.099851 0.808726
O O5 0.702323 0.918619 0.830854
O O6 0.748073 0.029440 0.000000
O O7 0.000118 0.854580 0.500000
O O8 0.576756 0.220020 0.884077
O O9 0.675332 0.324669 0.000000
O O10 0.775249 0.775249 0.728234
#
# Coordination Sequence:
#
# PCOD9569399 Si02
#       5
#     8  16   4   8  16
#     4  12  24  40  71 109 142 182 235 297 364 424
#     4  12  26  46  71 101 144 189 238 298 366 436
#     4  12  21  38  68 110 140 176 236 303 356 419
#     4  10  19  36  66  92 134 179 229 289 349 420
#     4  11  24  45  70 102 140 189 239 291 362 438
#
# _framework density 20.900438999999999
#
# number of rings (size 3 to 8) (size 9 to 14) (size 15 to 20)
#    0.000    0.615    6.154    2.769    0.000    3.692 
#    5.538    1.538    0.000    0.000    0.000    0.000 
#    0.000    0.000    0.000    0.000    0.000    0.000 
#
# Total GULP energy -290117.630332 kJ/mol
# GULP energy per Si atom -5579.185199 kJ/mol
# Density = 2.085287 g / cm^3
# Si number density = 20.900439 Si / 1000 Ang^3
#
#
#
# Elastic Constant Matrix: (Units=GPa)
#
#
# Indices 1 2 3 4 5 6 
#
# 1 87.5905 38.2049 33.2430 0.0000 0.0000 0.0000
# 2 38.2049 87.5903 33.2434 0.0000 0.0000 0.0000
# 3 33.2430 33.2434 101.6417 0.0000 0.0000 0.0000
# 4 0.0000 0.0000 0.0000 23.4729 0.0000 0.0000
# 5 0.0000 0.0000 0.0000 0.0000 23.4726 0.0000
# 6 0.0000 0.0000 0.0000 0.0000 0.0000 19.0158
#
#
#
# Elastic Compliance Matrix: (Units=1/GPa)
#
#
# Indices 1 2 3 4 5 6 
#
# 1 0.014930 -0.005319 -0.003143 0.000000 0.000000 0.000000
# 2 -0.005319 0.014930 -0.003143 0.000000 0.000000 0.000000
# 3 -0.003143 -0.003143 0.011895 0.000000 0.000000 0.000000
# 4 0.000000 0.000000 0.000000 0.042602 0.000000 0.000000
# 5 0.000000 0.000000 0.000000 0.000000 0.042603 0.000000
# 6 0.000000 0.000000 0.000000 0.000000 0.000000 0.052588
#
#
# Mechanical properties :
#
#
# Convention : Reuss Voigt Hill
#
# Bulk Modulus (GPa) = 53.92915 54.02277 53.97596
# Shear Modulus (GPa) = 23.93037 24.66769 24.29903
#
# Velocity S-wave (km/s) = 3.38741 3.43920 3.41340
# Velocity P-wave (km/s) = 6.41547 6.45559 6.43556
#
# Compressibility (1/GPa) = 0.01854285
#
# Stress axis : x y z
#
# Youngs Moduli (GPa) = 66.98026 66.97992 84.07180
#
# Poissons Ratio (x) = 0.35627 0.26426
# Poissons Ratio (y) = 0.35627 0.26427
# Poissons Ratio (z) = 0.21054 0.21054
#
# Static dielectric constant tensor:
#      x y z
#    x 1.737720 0.000000 0.000000 
#    y 0.000000 1.737710 0.000000 
#    z 0.000000 0.000000 1.795090 
# 
# From -- ./inp_files/3133.got.cif
#   From: 2010.05.17/outbox.cif.g08.bks.cpg/sg136_2_cif.got.tgz:3133.got - 2010.05.20 12:54:53.
