data_PCOD9569729
_publ_section_title
;
Structure prediction by ZEFSAII (Michael W. Deem and Ramdas Pophale) SiO2 
 PCOD9569729
Probable space group: P 42/M N M
;
_chemical_formula_sum "Si O2"
_cell_formula_units_Z 80
_cell_length_a 11.623506
_cell_length_b 11.623506
_cell_length_c 30.560758
_cell_angle_alpha 90.000000
_cell_angle_beta 90.000000
_cell_angle_gamma 90.000000
_cell_volume 4128.938462
_symmetry_space_group_name_H-M "P 42/M N M"
_symmetry_group_IT_number 136
_symmetry_cell_setting 'tetragonal'
loop_
_space_group_symop_operation_xyz
x,y,z
1/2-y,1/2+x,1/2+z
-x,-y,z
1/2+y,1/2-x,1/2+z
1/2+x,1/2-y,1/2-z
1/2-x,1/2+y,1/2-z
y,x,-z
-y,-x,-z
-x,-y,-z
1/2+y,1/2-x,1/2-z
x,y,-z
1/2-y,1/2+x,1/2-z
1/2-x,1/2+y,1/2+z
1/2+x,1/2-y,1/2+z
-y,-x,z
y,x,z
loop_
_atom_site_type_symbol
_atom_site_label
_atom_site_fract_x
_atom_site_fract_y
_atom_site_fract_z
Si Si1 0.978095 0.685125 0.641968
Si Si2 0.402504 0.597497 0.198037
Si Si3 0.463510 0.272310 0.451153
Si Si4 0.306036 0.027048 0.858545
Si Si5 0.096755 0.096755 0.201751
Si Si6 0.233914 0.575352 0.953269
O O1 0.950204 0.791800 0.672551
O O2 0.870352 0.596415 0.644135
O O3 0.992019 0.723200 0.591454
O O4 0.094392 0.617974 0.652403
O O5 0.500000 0.500000 0.197628
O O6 0.373142 0.626859 0.248237
O O7 0.516851 0.277228 0.500000
O O8 0.389113 0.389113 0.444624
O O9 0.537107 0.243604 0.408183
O O10 0.369399 0.169042 0.453115
O O11 0.204276 0.045664 0.824651
O O12 0.000000 0.000000 0.203088
O O13 0.350187 0.649814 0.951977
O O14 0.227422 0.512504 0.000000
#
# Coordination Sequence:
#
# PCOD9569729 Si02
#       6
#    16   8  16  16   8  16
#     4  10  21  39  63  91 122 158 198 247 303 362
#     4  11  26  44  65  86 114 156 201 252 315 367
#     4   8  14  27  52  86 123 162 200 237 286 350
#     4  10  22  38  62  93 123 156 198 250 301 355
#     4  11  26  44  63  88 116 153 200 254 311 368
#     4   8  13  25  51  85 118 158 201 235 276 345
#
# _framework density 19.375437999999999
#
# number of rings (size 3 to 8) (size 9 to 14) (size 15 to 20)
#    0.000    2.600    1.000    1.800    4.200    2.400 
#    0.000    6.500    0.000    3.000    0.000    0.000 
#    0.000    0.000    0.000    0.000    0.000    0.000 
#
# Total GULP energy -446129.441754 kJ/mol
# GULP energy per Si atom -5576.618022 kJ/mol
# Density = 1.933134 g / cm^3
# Si number density = 19.375438 Si / 1000 Ang^3
#
#
#
# Elastic Constant Matrix: (Units=GPa)
#
#
# Indices 1 2 3 4 5 6 
#
# 1 72.1505 18.8745 58.9473 0.0000 0.0000 0.0000
# 2 18.8745 72.1505 58.9473 0.0000 0.0000 0.0000
# 3 58.9473 58.9473 171.3114 0.0000 0.0000 0.0000
# 4 0.0000 0.0000 0.0000 5.0517 0.0000 0.0000
# 5 0.0000 0.0000 0.0000 0.0000 5.0517 0.0000
# 6 0.0000 0.0000 0.0000 0.0000 0.0000 5.2788
#
#
#
# Elastic Compliance Matrix: (Units=1/GPa)
#
#
# Indices 1 2 3 4 5 6 
#
# 1 0.019294 0.000524 -0.006819 0.000000 0.000000 0.000000
# 2 0.000524 0.019294 -0.006819 0.000000 0.000000 0.000000
# 3 -0.006819 -0.006819 0.010530 0.000000 0.000000 0.000000
# 4 0.000000 0.000000 0.000000 0.197953 0.000000 0.000000
# 5 0.000000 0.000000 0.000000 0.000000 0.197953 0.000000
# 6 0.000000 0.000000 0.000000 0.000000 0.000000 0.189435
#
#
# Mechanical properties :
#
#
# Convention : Reuss Voigt Hill
#
# Bulk Modulus (GPa) = 43.68801 65.46119 54.57460
# Shear Modulus (GPa) = 7.48145 14.99933 11.24039
#
# Velocity S-wave (km/s) = 1.96715 2.78536 2.41121
# Velocity P-wave (km/s) = 5.26846 6.64856 5.99833
#
# Compressibility (1/GPa) = 0.02288958
#
# Stress axis : x y z
#
# Youngs Moduli (GPa) = 51.82876 51.82876 94.96345
#
# Poissons Ratio (x) = -0.02716 0.64760
# Poissons Ratio (y) = -0.02716 0.64760
# Poissons Ratio (z) = 0.35344 0.35344
#
# Static dielectric constant tensor:
#      x y z
#    x 1.670770 0.000000 0.000000 
#    y 0.000000 1.670770 0.000000 
#    z 0.000000 0.000000 1.697620 
# 
# From -- ./inp_files/9585.got.cif
#   From: 2010.05.17/outbox.cif.g08.bks.cpg/sg136_5_cif.got.tgz:9585.got - 2010.05.20 12:54:53.
