data_PCOD9569479
_publ_section_title
;
Structure prediction by ZEFSAII (Michael W. Deem and Ramdas Pophale) SiO2 
 PCOD9569479
Probable space group: P 42/M N M
;
_chemical_formula_sum "Si O2"
_cell_formula_units_Z 96
_cell_length_a 24.590900
_cell_length_b 24.590900
_cell_length_c 7.714470
_cell_angle_alpha 90.000000
_cell_angle_beta 90.000000
_cell_angle_gamma 90.000000
_cell_volume 4665.035382
_symmetry_space_group_name_H-M "P 42/M N M"
_symmetry_group_IT_number 136
_symmetry_cell_setting 'tetragonal'
loop_
_space_group_symop_operation_xyz
x,y,z
1/2-y,1/2+x,1/2+z
-x,-y,z
1/2+y,1/2-x,1/2+z
1/2+x,1/2-y,1/2-z
1/2-x,1/2+y,1/2-z
y,x,-z
-y,-x,-z
-x,-y,-z
1/2+y,1/2-x,1/2-z
x,y,-z
1/2-y,1/2+x,1/2-z
1/2-x,1/2+y,1/2+z
1/2+x,1/2-y,1/2+z
-y,-x,z
y,x,z
loop_
_atom_site_type_symbol
_atom_site_label
_atom_site_fract_x
_atom_site_fract_y
_atom_site_fract_z
Si Si1 0.134794 0.221149 0.211542
Si Si2 0.012694 0.212197 0.207846
Si Si3 0.190653 0.722874 0.290359
Si Si4 0.587121 0.499200 0.791204
Si Si5 0.423764 0.958053 0.798875
Si Si6 0.431639 0.195806 0.294779
O O1 0.166828 0.166828 0.264841
O O2 0.073548 0.222137 0.275188
O O3 0.171899 0.271989 0.264633
O O4 0.134002 0.221366 0.000000
O O5 0.997216 0.149698 0.240501
O O6 0.971364 0.257566 0.276832
O O7 0.014374 0.218303 0.000000
O O8 0.189790 0.723231 0.500000
O O9 0.222719 0.777282 0.234391
O O10 0.129898 0.715301 0.227577
O O11 0.555625 0.444376 0.731140
O O12 0.550012 0.550012 0.732390
O O13 0.585402 0.498817 0.000000
O O14 0.476729 0.931712 0.711222
O O15 0.365154 0.941159 0.724475
O O16 0.426574 0.941527 0.000000
O O17 0.443124 0.191063 0.500000
#
# Coordination Sequence:
#
# PCOD9569479 Si02
#       6
#    16  16  16  16  16  16
#     4   8  15  30  54  80 101 127 169 220 265 304
#     4  10  20  34  53  79 108 138 174 218 266 317
#     4   9  19  36  58  80 102 139 187 223 262 320
#     4   9  19  36  55  76 107 144 178 218 268 317
#     4  10  21  38  59  83 110 143 184 228 278 332
#     4  10  23  37  52  81 115 146 179 220 274 326
#
# _framework density 20.578621999999999
#
# number of rings (size 3 to 8) (size 9 to 14) (size 15 to 20)
#    0.000    2.667    0.000    3.000    2.333    4.333 
#    0.000    5.000    0.000    1.000    0.000    0.000 
#    0.000    0.000    0.000    0.000    0.000    0.000 
#
# Total GULP energy -535788.727513 kJ/mol
# GULP energy per Si atom -5581.132578 kJ/mol
# Density = 2.053178 g / cm^3
# Si number density = 20.578622 Si / 1000 Ang^3
#
#
#
# Elastic Constant Matrix: (Units=GPa)
#
#
# Indices 1 2 3 4 5 6 
#
# 1 85.1563 132.5945 -9.4518 0.0000 0.0000 0.0000
# 2 132.5945 85.1563 -9.4518 0.0000 0.0000 0.0000
# 3 -9.4518 -9.4518 30.7692 0.0000 0.0000 0.0000
# 4 0.0000 0.0000 0.0000 26.4261 0.0000 0.0000
# 5 0.0000 0.0000 0.0000 0.0000 26.4261 0.0000
# 6 0.0000 0.0000 0.0000 0.0000 0.0000 15.6300
#
#
#
# Elastic Compliance Matrix: (Units=1/GPa)
#
#
# Indices 1 2 3 4 5 6 
#
# 1 -0.008181 0.012899 0.001449 0.000000 0.000000 0.000000
# 2 0.012899 -0.008181 0.001449 0.000000 0.000000 0.000000
# 3 0.001449 0.001449 0.033391 0.000000 0.000000 0.000000
# 4 0.000000 0.000000 0.000000 0.037841 0.000000 0.000000
# 5 0.000000 0.000000 0.000000 0.000000 0.037841 0.000000
# 6 0.000000 0.000000 0.000000 0.000000 0.000000 0.063980
#
#
# Mechanical properties :
#
#
# Convention : Reuss Voigt Hill
#
# Bulk Modulus (GPa) = 20.56580 47.60709 34.08644
# Shear Modulus (GPa) = 35.38483 19.52250 27.45367
#
# Velocity S-wave (km/s) = 4.15118 3.08340 3.65648
# Velocity P-wave (km/s) = 5.74385 5.98840 5.86740
#
# Compressibility (1/GPa) = 0.04862442
#
# Stress axis : x y z
#
# Youngs Moduli (GPa) = -122.23573 -122.23573 29.94863
#
# Poissons Ratio (x) = 1.57674 -0.04341
# Poissons Ratio (y) = 1.57674 -0.04341
# Poissons Ratio (z) = 0.17716 0.17716
#
# Static dielectric constant tensor:
#      x y z
#    x 1.716330 0.000000 0.000000 
#    y 0.000000 1.716330 0.000000 
#    z 0.000000 0.000000 1.770980 
# 
# From -- ./inp_files/1975.got.cif
#   From: 2010.05.17/outbox.cif.g08.bks.cpg/sg136_1_cif.got.tgz:1975.got - 2010.05.20 12:54:53.
