data_PCOD9569124
_publ_section_title
;
Structure prediction by ZEFSAII (Michael W. Deem and Ramdas Pophale) SiO2 
 PCOD9569124
Probable space group: P 42/M N M
;
_chemical_formula_sum "Si O2"
_cell_formula_units_Z 64
_cell_length_a 11.933886
_cell_length_b 11.933886
_cell_length_c 22.119593
_cell_angle_alpha 90.000000
_cell_angle_beta 90.000000
_cell_angle_gamma 90.000000
_cell_volume 3150.220124
_symmetry_space_group_name_H-M "P 42/M N M"
_symmetry_group_IT_number 136
_symmetry_cell_setting 'tetragonal'
loop_
_space_group_symop_operation_xyz
x,y,z
1/2-y,1/2+x,1/2+z
-x,-y,z
1/2+y,1/2-x,1/2+z
1/2+x,1/2-y,1/2-z
1/2-x,1/2+y,1/2-z
y,x,-z
-y,-x,-z
-x,-y,-z
1/2+y,1/2-x,1/2-z
x,y,-z
1/2-y,1/2+x,1/2-z
1/2-x,1/2+y,1/2+z
1/2+x,1/2-y,1/2+z
-y,-x,z
y,x,z
loop_
_atom_site_type_symbol
_atom_site_label
_atom_site_fract_x
_atom_site_fract_y
_atom_site_fract_z
Si Si1 0.544670 0.874099 0.500000
Si Si2 0.724128 0.096467 0.882852
Si Si3 0.286188 0.526936 0.000000
Si Si4 0.529476 0.284664 0.130863
Si Si5 0.313436 0.970257 0.752202
O O1 0.516107 0.812649 0.437508
O O2 0.680084 0.888253 0.500000
O O3 0.500000 0.000000 0.500000
O O4 0.830021 0.169980 0.901831
O O5 0.620036 0.182807 0.873039
O O6 0.744246 0.044416 0.817082
O O7 0.281877 0.468690 0.065505
O O8 0.397421 0.602580 0.000000
O O9 0.602143 0.397858 0.134981
O O10 0.464540 0.263081 0.192712
O O11 0.410466 0.877063 0.746272
#
# Coordination Sequence:
#
# PCOD9569124 Si02
#       5
#     8  16   8  16  16
#     4  10  18  22  40  62  87 120 160 197 236 285
#     4   9  17  28  39  57  90 128 155 188 239 293
#     4   8  14  24  38  56  87 122 152 188 237 294
#     4   8  14  25  40  59  85 118 151 188 237 287
#     4   9  17  25  40  62  90 115 153 198 233 279
#
# _framework density 20.316039
#
# number of rings (size 3 to 8) (size 9 to 14) (size 15 to 20)
#    0.000    3.250    0.000    2.625   10.500    0.000 
#    0.000    0.000    0.000    0.750    0.000    1.750 
#    0.000   13.000    0.000    0.000    0.000    0.000 
#
# Total GULP energy -356333.904778 kJ/mol
# GULP energy per Si atom -5567.717262 kJ/mol
# Density = 2.026980 g / cm^3
# Si number density = 20.316039 Si / 1000 Ang^3
#
#
#
# Elastic Constant Matrix: (Units=GPa)
#
#
# Indices 1 2 3 4 5 6 
#
# 1 13.8067 15.1117 41.6427 0.0000 0.0000 0.0000
# 2 15.1117 13.8072 41.6424 0.0000 0.0000 0.0000
# 3 41.6427 41.6424 250.7163 0.0000 0.0000 0.0000
# 4 0.0000 0.0000 0.0000 -173.9276 0.0000 0.0000
# 5 0.0000 0.0000 0.0000 0.0000 -173.9423 0.0000
# 6 0.0000 0.0000 0.0000 0.0000 0.0000 4.6983
#
#
#
# Elastic Compliance Matrix: (Units=1/GPa)
#
#
# Indices 1 2 3 4 5 6 
#
# 1 -0.350078 0.416354 -0.011008 0.000000 0.000000 0.000000
# 2 0.416354 -0.350051 -0.011013 0.000000 0.000000 0.000000
# 3 -0.011008 -0.011013 0.007646 0.000000 0.000000 0.000000
# 4 0.000000 0.000000 0.000000 -0.005750 0.000000 0.000000
# 5 0.000000 0.000000 0.000000 0.000000 -0.005749 0.000000
# 6 0.000000 0.000000 0.000000 0.000000 0.000000 0.212844
#
#
# Mechanical properties :
#
#
# Convention : Reuss Voigt Hill
#
# Bulk Modulus (GPa) = 10.39684 52.79153 31.59419
# Shear Modulus (GPa) = -4.00723 -56.63877 -30.32300
#
# Velocity S-wave (km/s) = -1.40596 -5.28577 -3.86756
# Velocity P-wave (km/s) = 1.57893 3.34827 2.08781
#
# Compressibility (1/GPa) = 0.09618303
#
# Stress axis : x y z
#
# Youngs Moduli (GPa) = -2.85650 -2.85672 130.78667
#
# Poissons Ratio (x) = 1.18941 1.43965
# Poissons Ratio (y) = 1.18932 1.44033
# Poissons Ratio (z) = -0.03144 -0.03146
#
# Static dielectric constant tensor:
#      x y z
#    x 1.725600 0.000000 0.000000 
#    y 0.000000 1.725600 0.000000 
#    z 0.000000 0.000000 1.810810 
# 
# From -- ./inp_files/7157.got.cif
#   From: 2010.05.17/outbox.cif.g08.bks.cpg/sg136_4_cif.got.tgz:7157.got - 2010.05.20 12:54:53.
