data_PCOD9569097
_publ_section_title
;
Structure prediction by ZEFSAII (Michael W. Deem and Ramdas Pophale) SiO2 
 PCOD9569097
Probable space group: P 42/M N M
;
_chemical_formula_sum "Si O2"
_cell_formula_units_Z 104
_cell_length_a 23.062353
_cell_length_b 23.062353
_cell_length_c 12.944597
_cell_angle_alpha 90.000000
_cell_angle_beta 90.000000
_cell_angle_gamma 90.000000
_cell_volume 6884.870325
_symmetry_space_group_name_H-M "P 42/M N M"
_symmetry_group_IT_number 136
_symmetry_cell_setting 'tetragonal'
loop_
_space_group_symop_operation_xyz
x,y,z
1/2-y,1/2+x,1/2+z
-x,-y,z
1/2+y,1/2-x,1/2+z
1/2+x,1/2-y,1/2-z
1/2-x,1/2+y,1/2-z
y,x,-z
-y,-x,-z
-x,-y,-z
1/2+y,1/2-x,1/2-z
x,y,-z
1/2-y,1/2+x,1/2-z
1/2-x,1/2+y,1/2+z
1/2+x,1/2-y,1/2+z
-y,-x,z
y,x,z
loop_
_atom_site_type_symbol
_atom_site_label
_atom_site_fract_x
_atom_site_fract_y
_atom_site_fract_z
Si Si1 0.202333 0.616948 0.380147
Si Si2 0.882412 0.882412 0.873016
Si Si3 0.593921 0.759513 0.623888
Si Si4 0.479687 0.698776 0.376475
Si Si5 0.569828 0.995893 0.616904
Si Si6 0.227746 0.772254 0.121859
Si Si7 0.710861 0.289140 0.689919
Si Si8 0.882785 0.592113 0.730804
O O1 0.184401 0.610640 0.500000
O O2 0.248154 0.565151 0.356895
O O3 0.235866 0.678162 0.365725
O O4 0.149502 0.613942 0.300918
O O5 0.860045 0.946412 0.844694
O O6 0.838643 0.838643 0.815252
O O7 0.874981 0.874981 0.000000
O O8 0.587034 0.767522 0.500000
O O9 0.543736 0.715211 0.660757
O O10 0.659764 0.739405 0.641164
O O11 0.585265 0.820132 0.681066
O O12 0.484351 0.694304 0.500000
O O13 0.583502 0.012467 0.500000
O O14 0.591004 0.931378 0.642125
O O15 0.500000 0.000000 0.628917
O O16 0.600228 0.038668 0.696308
O O17 0.266423 0.733578 0.199440
O O18 0.239666 0.760335 0.000000
#
# Coordination Sequence:
#
# PCOD9569097 Si02
#       8
#    16   8  16  16  16   8   8  16
#     4  10  19  29  49  73  94 118 155 196 239 288
#     4   8  14  26  48  73  94 109 141 193 247 292
#     4  10  20  32  49  67  91 124 162 197 230 286
#     4   8  15  27  44  68  89 112 144 185 230 277
#     4  11  23  36  47  63  91 126 166 208 244 282
#     4  10  20  34  46  65  94 131 168 195 229 287
#     4  10  16  32  46  66  96 124 149 193 239 281
#     4  12  19  34  47  65  89 122 165 199 244 274
#
# _framework density 15.105585
#
# number of rings (size 3 to 8) (size 9 to 14) (size 15 to 20)
#    0.000    2.000    3.077    3.462    0.000    0.000 
#    0.000    0.000    0.000    0.462    0.000    3.231 
#    0.000    0.000    0.000    0.000    0.000    1.769 
#
# Total GULP energy -579191.348220 kJ/mol
# GULP energy per Si atom -5569.147579 kJ/mol
# Density = 1.507120 g / cm^3
# Si number density = 15.105585 Si / 1000 Ang^3
#
#
#
# Elastic Constant Matrix: (Units=GPa)
#
#
# Indices 1 2 3 4 5 6 
#
# 1 47.0376 9.6726 15.6926 0.0000 0.0000 0.0000
# 2 9.6726 47.0381 15.6925 0.0000 0.0000 0.0000
# 3 15.6926 15.6925 43.7793 0.0000 0.0000 0.0000
# 4 0.0000 0.0000 0.0000 13.2165 0.0000 0.0000
# 5 0.0000 0.0000 0.0000 0.0000 13.2166 0.0000
# 6 0.0000 0.0000 0.0000 0.0000 0.0000 20.6445
#
#
#
# Elastic Compliance Matrix: (Units=1/GPa)
#
#
# Indices 1 2 3 4 5 6 
#
# 1 0.024380 -0.002383 -0.007885 0.000000 0.000000 0.000000
# 2 -0.002383 0.024380 -0.007885 0.000000 0.000000 0.000000
# 3 -0.007885 -0.007885 0.028494 0.000000 0.000000 0.000000
# 4 0.000000 0.000000 0.000000 0.075663 0.000000 0.000000
# 5 0.000000 0.000000 0.000000 0.000000 0.075663 0.000000
# 6 0.000000 0.000000 0.000000 0.000000 0.000000 0.048439
#
#
# Mechanical properties :
#
#
# Convention : Reuss Voigt Hill
#
# Bulk Modulus (GPa) = 24.42037 24.44116 24.43077
# Shear Modulus (GPa) = 15.29176 15.86867 15.58022
#
# Velocity S-wave (km/s) = 3.18516 3.24468 3.21506
# Velocity P-wave (km/s) = 5.45239 5.50024 5.47637
#
# Compressibility (1/GPa) = 0.04094942
#
# Stress axis : x y z
#
# Youngs Moduli (GPa) = 41.01693 41.01763 35.09459
#
# Poissons Ratio (x) = 0.09774 0.27672
# Poissons Ratio (y) = 0.09774 0.27671
# Poissons Ratio (z) = 0.32341 0.32341
#
# Static dielectric constant tensor:
#      x y z
#    x 1.515500 0.000000 0.000000 
#    y 0.000000 1.515500 0.000000 
#    z 0.000000 0.000000 1.485480 
# 
# From -- ./inp_files/5293.got.cif
#   From: 2010.05.17/outbox.cif.g08.bks.cpg/sg136_3_cif.got.tgz:5293.got - 2010.05.20 12:54:53.
