data_PCOD9569329
_publ_section_title
;
Structure prediction by ZEFSAII (Michael W. Deem and Ramdas Pophale) SiO2 
 PCOD9569329
Probable space group: P 42/M N M
;
_chemical_formula_sum "Si O2"
_cell_formula_units_Z 56
_cell_length_a 17.355983
_cell_length_b 17.355983
_cell_length_c 7.717962
_cell_angle_alpha 90.000000
_cell_angle_beta 90.000000
_cell_angle_gamma 90.000000
_cell_volume 2324.882819
_symmetry_space_group_name_H-M "P 42/M N M"
_symmetry_group_IT_number 136
_symmetry_cell_setting 'tetragonal'
loop_
_space_group_symop_operation_xyz
x,y,z
1/2-y,1/2+x,1/2+z
-x,-y,z
1/2+y,1/2-x,1/2+z
1/2+x,1/2-y,1/2-z
1/2-x,1/2+y,1/2-z
y,x,-z
-y,-x,-z
-x,-y,-z
1/2+y,1/2-x,1/2-z
x,y,-z
1/2-y,1/2+x,1/2-z
1/2-x,1/2+y,1/2+z
1/2+x,1/2-y,1/2+z
-y,-x,z
y,x,z
loop_
_atom_site_type_symbol
_atom_site_label
_atom_site_fract_x
_atom_site_fract_y
_atom_site_fract_z
Si Si1 0.674127 0.205038 0.711852
Si Si2 0.628819 0.495408 0.500000
Si Si3 0.295812 0.425787 0.805427
Si Si4 0.464812 0.884674 0.302073
O O1 0.672099 0.206178 0.500000
O O2 0.717372 0.282629 0.769021
O O3 0.729778 0.133055 0.757964
O O4 0.588842 0.182839 0.770266
O O5 0.561274 0.561274 0.500000
O O6 0.586015 0.413986 0.500000
O O7 0.680995 0.510349 0.667405
O O8 0.370528 0.370528 0.817909
O O9 0.277833 0.452260 0.000000
O O10 0.487752 0.868523 0.500000
O O11 0.539576 0.910190 0.198428
#
# Coordination Sequence:
#
# PCOD9569329 Si02
#       4
#    16   8  16  16
#     4   8  15  30  53  76  98 133 179 221 264 320
#     4   9  16  24  36  60  92 123 162 212 261 314
#     4   8  14  26  42  62  89 121 163 212 260 307
#     4  10  19  33  53  79 112 143 176 219 272 331
#
# _framework density 24.087235
#
# number of rings (size 3 to 8) (size 9 to 14) (size 15 to 20)
#    0.000    3.286    0.000    3.429    0.000    0.571 
#    5.143    2.857    0.000    1.714    0.000    4.000 
#    0.000    0.000    0.000    0.000    0.000    0.000 
#
# Total GULP energy -312892.471062 kJ/mol
# GULP energy per Si atom -5587.365555 kJ/mol
# Density = 2.403241 g / cm^3
# Si number density = 24.087235 Si / 1000 Ang^3
#
#
#
# Elastic Constant Matrix: (Units=GPa)
#
#
# Indices 1 2 3 4 5 6 
#
# 1 65.0846 71.7199 18.3473 0.0000 0.0000 0.0000
# 2 71.7199 65.0861 18.3478 0.0000 0.0000 0.0000
# 3 18.3473 18.3478 76.6263 0.0000 0.0000 0.0000
# 4 0.0000 0.0000 0.0000 14.9288 0.0000 0.0000
# 5 0.0000 0.0000 0.0000 0.0000 14.9286 0.0000
# 6 0.0000 0.0000 0.0000 0.0000 0.0000 36.2756
#
#
#
# Elastic Compliance Matrix: (Units=1/GPa)
#
#
# Indices 1 2 3 4 5 6 
#
# 1 -0.071458 0.079269 -0.001871 0.000000 0.000000 0.000000
# 2 0.079269 -0.071456 -0.001870 0.000000 0.000000 0.000000
# 3 -0.001871 -0.001870 0.013946 0.000000 0.000000 0.000000
# 4 0.000000 0.000000 0.000000 0.066985 0.000000 0.000000
# 5 0.000000 0.000000 0.000000 0.000000 0.066986 0.000000
# 6 0.000000 0.000000 0.000000 0.000000 0.000000 0.027567
#
#
# Mechanical properties :
#
#
# Convention : Reuss Voigt Hill
#
# Bulk Modulus (GPa) = 45.27494 47.06965 46.17230
# Shear Modulus (GPa) = -44.99447 19.78540 -12.60453
#
# Velocity S-wave (km/s) = -4.32670 2.86913 -2.29003
# Velocity P-wave (km/s) = 2.47456 5.52807 3.49544
#
# Compressibility (1/GPa) = 0.02208728
#
# Stress axis : x y z
#
# Youngs Moduli (GPa) = -13.99423 -13.99453 71.70499
#
# Poissons Ratio (x) = 1.10933 0.13413
# Poissons Ratio (y) = 1.10930 0.13410
# Poissons Ratio (z) = -0.02618 -0.02617
#
# Static dielectric constant tensor:
#      x y z
#    x 1.934120 0.000000 0.000000 
#    y 0.000000 1.934110 0.000000 
#    z 0.000000 0.000000 1.782660 
# 
# From -- ./inp_files/1119.got.cif
#   From: 2010.05.17/outbox.cif.g08.bks.cpg/sg136_1_cif.got.tgz:1119.got - 2010.05.20 12:54:53.
