data_PCOD9569832
_publ_section_title
;
Structure prediction by ZEFSAII (Michael W. Deem and Ramdas Pophale) SiO2 
 PCOD9569832
Probable space group: P 42/M N M
;
_chemical_formula_sum "Si O2"
_cell_formula_units_Z 56
_cell_length_a 12.070268
_cell_length_b 12.070268
_cell_length_c 18.134011
_cell_angle_alpha 90.000000
_cell_angle_beta 90.000000
_cell_angle_gamma 90.000000
_cell_volume 2641.968899
_symmetry_space_group_name_H-M "P 42/M N M"
_symmetry_group_IT_number 136
_symmetry_cell_setting 'tetragonal'
loop_
_space_group_symop_operation_xyz
x,y,z
1/2-y,1/2+x,1/2+z
-x,-y,z
1/2+y,1/2-x,1/2+z
1/2+x,1/2-y,1/2-z
1/2-x,1/2+y,1/2-z
y,x,-z
-y,-x,-z
-x,-y,-z
1/2+y,1/2-x,1/2-z
x,y,-z
1/2-y,1/2+x,1/2-z
1/2-x,1/2+y,1/2+z
1/2+x,1/2-y,1/2+z
-y,-x,z
y,x,z
loop_
_atom_site_type_symbol
_atom_site_label
_atom_site_fract_x
_atom_site_fract_y
_atom_site_fract_z
Si Si1 0.317475 0.500091 0.280325
Si Si2 0.912098 0.087903 0.412743
Si Si3 0.175348 0.490262 0.143466
Si Si4 0.980115 0.328718 0.088091
O O1 0.388420 0.611581 0.268249
O O2 0.396544 0.396544 0.260939
O O3 0.207333 0.498998 0.229728
O O4 0.282957 0.488786 0.365315
O O5 0.916670 0.083331 0.500000
O O6 0.790082 0.051461 0.390211
O O7 0.000000 0.000000 0.381723
O O8 0.131784 0.606404 0.111267
O O9 0.081076 0.404022 0.119026
O O10 0.987142 0.318736 0.000000
#
# Coordination Sequence:
#
# PCOD9569832 Si02
#       4
#    16   8  16  16
#     4  11  25  44  66  96 133 178 229 283 338 402
#     4  11  22  36  64 102 134 170 216 279 346 398
#     4  11  22  43  68  96 133 172 224 286 336 400
#     4  11  25  43  66  99 138 178 222 276 344 415
#
# _framework density 21.196313
#
# number of rings (size 3 to 8) (size 9 to 14) (size 15 to 20)
#    0.000    1.000    1.429    6.000    2.000    8.000 
#    0.000    1.429    0.000    0.000    0.000    0.000 
#    0.000    0.000    0.000    0.000    0.000    0.000 
#
# Total GULP energy -313036.835966 kJ/mol
# GULP energy per Si atom -5589.943499 kJ/mol
# Density = 2.114807 g / cm^3
# Si number density = 21.196313 Si / 1000 Ang^3
#
#
#
# Elastic Constant Matrix: (Units=GPa)
#
#
# Indices 1 2 3 4 5 6 
#
# 1 91.8757 40.5042 45.2305 0.0000 0.0000 0.0000
# 2 40.5042 91.8757 45.2305 0.0000 0.0000 0.0000
# 3 45.2305 45.2305 185.7210 0.0000 0.0000 0.0000
# 4 0.0000 0.0000 0.0000 24.3112 0.0000 0.0000
# 5 0.0000 0.0000 0.0000 0.0000 24.3109 0.0000
# 6 0.0000 0.0000 0.0000 0.0000 0.0000 17.4311
#
#
#
# Elastic Compliance Matrix: (Units=1/GPa)
#
#
# Indices 1 2 3 4 5 6 
#
# 1 0.014264 -0.005202 -0.002207 0.000000 0.000000 0.000000
# 2 -0.005202 0.014264 -0.002207 0.000000 0.000000 0.000000
# 3 -0.002207 -0.002207 0.006459 0.000000 0.000000 0.000000
# 4 0.000000 0.000000 0.000000 0.041133 0.000000 0.000000
# 5 0.000000 0.000000 0.000000 0.000000 0.041134 0.000000
# 6 0.000000 0.000000 0.000000 0.000000 0.000000 0.057369
#
#
# Mechanical properties :
#
#
# Convention : Reuss Voigt Hill
#
# Bulk Modulus (GPa) = 63.46901 70.15588 66.81244
# Shear Modulus (GPa) = 25.11208 29.11111 27.11160
#
# Velocity S-wave (km/s) = 3.44574 3.70997 3.58029
# Velocity P-wave (km/s) = 6.77047 7.17787 6.97714
#
# Compressibility (1/GPa) = 0.01575572
#
# Stress axis : x y z
#
# Youngs Moduli (GPa) = 70.10611 70.10610 154.81297
#
# Poissons Ratio (x) = 0.36469 0.34167
# Poissons Ratio (y) = 0.36469 0.34167
# Poissons Ratio (z) = 0.15472 0.15472
#
# Static dielectric constant tensor:
#      x y z
#    x 1.751920 0.000000 0.000000 
#    y 0.000000 1.751920 0.000000 
#    z 0.000000 0.000000 1.806580 
# 
# From -- ./inp_files/7043.got.cif
#   From: 2010.05.17/outbox.cif.g08.bks.cpg/sg136_4_cif.got.tgz:7043.got - 2010.05.20 12:54:53.
