data_PCOD9569424
_publ_section_title
;
Structure prediction by ZEFSAII (Michael W. Deem and Ramdas Pophale) SiO2 
 PCOD9569424
Probable space group: P 42/M N M
;
_chemical_formula_sum "Si O2"
_cell_formula_units_Z 80
_cell_length_a 15.982643
_cell_length_b 15.982643
_cell_length_c 18.450104
_cell_angle_alpha 90.000000
_cell_angle_beta 90.000000
_cell_angle_gamma 90.000000
_cell_volume 4712.984552
_symmetry_space_group_name_H-M "P 42/M N M"
_symmetry_group_IT_number 136
_symmetry_cell_setting 'tetragonal'
loop_
_space_group_symop_operation_xyz
x,y,z
1/2-y,1/2+x,1/2+z
-x,-y,z
1/2+y,1/2-x,1/2+z
1/2+x,1/2-y,1/2-z
1/2-x,1/2+y,1/2-z
y,x,-z
-y,-x,-z
-x,-y,-z
1/2+y,1/2-x,1/2-z
x,y,-z
1/2-y,1/2+x,1/2-z
1/2-x,1/2+y,1/2+z
1/2+x,1/2-y,1/2+z
-y,-x,z
y,x,z
loop_
_atom_site_type_symbol
_atom_site_label
_atom_site_fract_x
_atom_site_fract_y
_atom_site_fract_z
Si Si1 0.663313 0.800449 0.916188
Si Si2 0.639701 0.501135 0.718198
Si Si3 0.806929 0.511077 0.195322
Si Si4 0.451231 0.089037 0.657500
Si Si5 0.245837 0.522752 0.582342
O O1 0.716194 0.716194 0.905823
O O2 0.589453 0.808003 0.858624
O O3 0.725376 0.879092 0.906746
O O4 0.633437 0.803703 0.000000
O O5 0.578034 0.421967 0.720331
O O6 0.583037 0.583037 0.730042
O O7 0.714101 0.494463 0.776384
O O8 0.686046 0.505124 0.640658
O O9 0.864814 0.528708 0.266220
O O10 0.853710 0.434192 0.157050
O O11 0.478580 0.156691 0.598387
O O12 0.500000 0.000000 0.650639
O O13 0.272465 0.508881 0.500000
#
# Coordination Sequence:
#
# PCOD9569424 Si02
#       5
#    16  16  16  16  16
#     4  10  20  32  49  76 108 142 180 221 267 316
#     4  10  22  38  56  77 101 139 186 225 267 315
#     4  11  18  33  54  77 106 135 174 225 270 317
#     4  11  18  31  52  80 110 136 168 210 264 323
#     4  10  21  34  52  79 110 143 176 214 263 321
#
# _framework density 16.974381000000001
#
# number of rings (size 3 to 8) (size 9 to 14) (size 15 to 20)
#    0.000    1.600    4.000    2.400    0.000    2.800 
#    0.000    5.000    0.000    0.600    0.000    2.800 
#    0.000    0.000    0.000    0.000    0.000    0.000 
#
# Total GULP energy -446306.820580 kJ/mol
# GULP energy per Si atom -5578.835257 kJ/mol
# Density = 1.693575 g / cm^3
# Si number density = 16.974381 Si / 1000 Ang^3
#
#
#
# Elastic Constant Matrix: (Units=GPa)
#
#
# Indices 1 2 3 4 5 6 
#
# 1 88.9921 30.9285 11.4489 0.0000 0.0000 0.0000
# 2 30.9285 88.9921 11.4489 0.0000 0.0000 0.0000
# 3 11.4489 11.4489 31.9384 0.0000 0.0000 0.0000
# 4 0.0000 0.0000 0.0000 17.4717 0.0000 0.0000
# 5 0.0000 0.0000 0.0000 0.0000 17.4717 0.0000
# 6 0.0000 0.0000 0.0000 0.0000 0.0000 22.7310
#
#
#
# Elastic Compliance Matrix: (Units=1/GPa)
#
#
# Indices 1 2 3 4 5 6 
#
# 1 0.013087 -0.004135 -0.003209 0.000000 0.000000 0.000000
# 2 -0.004135 0.013087 -0.003209 0.000000 0.000000 0.000000
# 3 -0.003209 -0.003209 0.033611 0.000000 0.000000 0.000000
# 4 0.000000 0.000000 0.000000 0.057235 0.000000 0.000000
# 5 0.000000 0.000000 0.000000 0.000000 0.057235 0.000000
# 6 0.000000 0.000000 0.000000 0.000000 0.000000 0.043993
#
#
# Mechanical properties :
#
#
# Convention : Reuss Voigt Hill
#
# Bulk Modulus (GPa) = 25.85415 35.28615 30.57015
# Shear Modulus (GPa) = 19.82182 21.94133 20.88157
#
# Velocity S-wave (km/s) = 3.42094 3.59920 3.51120
# Velocity P-wave (km/s) = 5.55591 6.17295 5.87254
#
# Compressibility (1/GPa) = 0.03867852
#
# Stress axis : x y z
#
# Youngs Moduli (GPa) = 76.41160 76.41160 29.75233
#
# Poissons Ratio (x) = 0.31600 0.09547
# Poissons Ratio (y) = 0.31600 0.09547
# Poissons Ratio (z) = 0.24519 0.24519
#
# Static dielectric constant tensor:
#      x y z
#    x 1.575580 0.000000 0.000000 
#    y 0.000000 1.575580 0.000000 
#    z 0.000000 0.000000 1.576450 
# 
# From -- ./inp_files/7238.got.cif
#   From: 2010.05.17/outbox.cif.g08.bks.cpg/sg136_4_cif.got.tgz:7238.got - 2010.05.20 12:54:53.
