data_PCOD9569551
_publ_section_title
;
Structure prediction by ZEFSAII (Michael W. Deem and Ramdas Pophale) SiO2 
 PCOD9569551
Probable space group: P 42/M N M
;
_chemical_formula_sum "Si O2"
_cell_formula_units_Z 120
_cell_length_a 14.015837
_cell_length_b 14.015837
_cell_length_c 27.201751
_cell_angle_alpha 90.000000
_cell_angle_beta 90.000000
_cell_angle_gamma 90.000000
_cell_volume 5343.612254
_symmetry_space_group_name_H-M "P 42/M N M"
_symmetry_group_IT_number 136
_symmetry_cell_setting 'tetragonal'
loop_
_space_group_symop_operation_xyz
x,y,z
1/2-y,1/2+x,1/2+z
-x,-y,z
1/2+y,1/2-x,1/2+z
1/2+x,1/2-y,1/2-z
1/2-x,1/2+y,1/2-z
y,x,-z
-y,-x,-z
-x,-y,-z
1/2+y,1/2-x,1/2-z
x,y,-z
1/2-y,1/2+x,1/2-z
1/2-x,1/2+y,1/2+z
1/2+x,1/2-y,1/2+z
-y,-x,z
y,x,z
loop_
_atom_site_type_symbol
_atom_site_label
_atom_site_fract_x
_atom_site_fract_y
_atom_site_fract_z
Si Si1 0.873789 0.126212 0.372168
Si Si2 0.841678 0.598106 0.150020
Si Si3 0.273977 0.117673 0.944828
Si Si4 0.055512 0.404816 0.411546
Si Si5 0.228329 0.924705 0.218888
Si Si6 0.779716 0.062593 0.103842
Si Si7 0.623125 0.217396 0.256604
Si Si8 0.307937 0.540216 0.054836
O O1 0.770624 0.110424 0.344558
O O2 0.969747 0.148730 0.405230
O O3 0.868041 0.649992 0.098379
O O4 0.881339 0.492666 0.141373
O O5 0.888180 0.654170 0.194393
O O6 0.215976 0.215976 0.946173
O O7 0.204096 0.032919 0.927595
O O8 0.310966 0.098865 0.000000
O O9 0.168403 0.417749 0.407236
O O10 0.041083 0.306317 0.440673
O O11 0.000000 0.500000 0.430002
O O12 0.136342 0.863659 0.234818
O O13 0.210736 0.954725 0.162336
O O14 0.317724 0.851741 0.220649
O O15 0.247614 0.016178 0.252905
O O16 0.850449 0.149552 0.091343
O O17 0.691214 0.308787 0.265181
O O18 0.355880 0.644121 0.061582
O O19 0.332474 0.506756 0.000000
#
# Coordination Sequence:
#
# PCOD9569551 Si02
#       8
#     8  16  16  16  16  16  16  16
#     4  10  20  35  62  90 119 165 202 260 336 380
#     4  11  21  39  63  97 131 168 214 277 335 391
#     4  11  23  40  66  97 132 175 228 281 337 400
#     4  11  22  38  60  87 121 166 219 268 328 392
#     4  10  24  41  67 102 130 176 223 272 346 417
#     4  11  24  45  64  92 137 174 218 274 337 403
#     4  11  22  42  69  98 139 171 220 280 339 414
#     4  10  22  38  57  85 122 166 221 271 323 392
#
# _framework density 22.456719
#
# number of rings (size 3 to 8) (size 9 to 14) (size 15 to 20)
#    0.000    1.333    4.000    0.800    1.867    5.067 
#    0.000    2.000    0.000    0.800    0.000    0.000 
#    0.000    0.000    0.000    0.000    0.000    0.000 
#
# Total GULP energy -668202.536849 kJ/mol
# GULP energy per Si atom -5568.354474 kJ/mol
# Density = 2.240561 g / cm^3
# Si number density = 22.456719 Si / 1000 Ang^3
#
#
#
# Elastic Constant Matrix: (Units=GPa)
#
#
# Indices 1 2 3 4 5 6 
#
# 1 50.3553 -0.4891 -6.5185 0.0000 0.0000 0.0000
# 2 -0.4891 50.3553 -6.5185 0.0000 0.0000 0.0000
# 3 -6.5185 -6.5185 60.9672 0.0000 0.0000 0.0000
# 4 0.0000 0.0000 0.0000 9.1975 0.0000 0.0000
# 5 0.0000 0.0000 0.0000 0.0000 9.1975 0.0000
# 6 0.0000 0.0000 0.0000 0.0000 0.0000 33.9290
#
#
#
# Elastic Compliance Matrix: (Units=1/GPa)
#
#
# Indices 1 2 3 4 5 6 
#
# 1 0.020149 0.000481 0.002206 0.000000 0.000000 0.000000
# 2 0.000481 0.020149 0.002206 0.000000 0.000000 0.000000
# 3 0.002206 0.002206 0.016874 0.000000 0.000000 0.000000
# 4 0.000000 0.000000 0.000000 0.108725 0.000000 0.000000
# 5 0.000000 0.000000 0.000000 0.000000 0.108725 0.000000
# 6 0.000000 0.000000 0.000000 0.000000 0.000000 0.029473
#
#
# Mechanical properties :
#
#
# Convention : Reuss Voigt Hill
#
# Bulk Modulus (GPa) = 14.93481 14.95839 14.94660
# Shear Modulus (GPa) = 15.79135 22.14508 18.96821
#
# Velocity S-wave (km/s) = 2.65465 3.14367 2.90945
# Velocity P-wave (km/s) = 4.00764 4.45559 4.23754
#
# Compressibility (1/GPa) = 0.06695766
#
# Stress axis : x y z
#
# Youngs Moduli (GPa) = 49.63004 49.63004 59.26304
#
# Poissons Ratio (x) = -0.02388 -0.13072
# Poissons Ratio (y) = -0.02388 -0.13072
# Poissons Ratio (z) = -0.10947 -0.10947
#
# Static dielectric constant tensor:
#      x y z
#    x 1.863690 0.000000 0.000000 
#    y 0.000000 1.863690 0.000000 
#    z 0.000000 0.000000 1.896710 
# 
# From -- ./inp_files/10030.got.cif
#   From: 2010.05.17/outbox.cif.g08.bks.cpg/sg136_6_cif.got.tgz:10030.got - 2010.05.20 12:54:53.
