data_PCOD9569139
_publ_section_title
;
Structure prediction by ZEFSAII (Michael W. Deem and Ramdas Pophale) SiO2 
 PCOD9569139
Probable space group: P 42/M N M
;
_chemical_formula_sum "Si O2"
_cell_formula_units_Z 72
_cell_length_a 19.978416
_cell_length_b 19.978416
_cell_length_c 7.806938
_cell_angle_alpha 90.000000
_cell_angle_beta 90.000000
_cell_angle_gamma 90.000000
_cell_volume 3116.038639
_symmetry_space_group_name_H-M "P 42/M N M"
_symmetry_group_IT_number 136
_symmetry_cell_setting 'tetragonal'
loop_
_space_group_symop_operation_xyz
x,y,z
1/2-y,1/2+x,1/2+z
-x,-y,z
1/2+y,1/2-x,1/2+z
1/2+x,1/2-y,1/2-z
1/2-x,1/2+y,1/2-z
y,x,-z
-y,-x,-z
-x,-y,-z
1/2+y,1/2-x,1/2-z
x,y,-z
1/2-y,1/2+x,1/2-z
1/2-x,1/2+y,1/2+z
1/2+x,1/2-y,1/2+z
-y,-x,z
y,x,z
loop_
_atom_site_type_symbol
_atom_site_label
_atom_site_fract_x
_atom_site_fract_y
_atom_site_fract_z
Si Si1 0.646545 0.248490 0.206783
Si Si2 0.506562 0.300049 0.706201
Si Si3 0.275513 0.881696 0.201784
Si Si4 0.415002 0.950338 0.814488
Si Si5 0.445060 0.554940 0.709222
O O1 0.682625 0.317376 0.261145
O O2 0.568734 0.249683 0.258119
O O3 0.695038 0.188375 0.270643
O O4 0.647366 0.244545 0.000000
O O5 0.500057 0.302261 0.500000
O O6 0.432181 0.280754 0.772505
O O7 0.531619 0.372102 0.769610
O O8 0.340527 0.928573 0.214717
O O9 0.259518 0.869065 0.000000
O O10 0.422396 0.029849 0.812289
O O11 0.434954 0.922928 0.000000
O O12 0.500000 0.500000 0.755561
O O13 0.442128 0.557873 0.500000
#
# Coordination Sequence:
#
# PCOD9569139 Si02
#       5
#    16  16  16  16   8
#     4  10  20  35  55  78 108 145 184 224 279 343
#     4  10  19  35  57  80 109 143 184 230 280 330
#     4   9  19  32  49  75 103 134 173 219 265 320
#     4  10  18  29  44  64  94 129 166 204 248 299
#     4   9  18  32  55  85 109 135 177 230 279 326
#
# _framework density 23.106259999999999
#
# number of rings (size 3 to 8) (size 9 to 14) (size 15 to 20)
#    0.000    2.333    1.111    2.667    0.000    0.889 
#    0.000    7.778    0.000    1.333    0.000    0.000 
#    0.000    0.000    0.000    0.000    0.000    0.000 
#
# Total GULP energy -401437.359507 kJ/mol
# GULP energy per Si atom -5575.518882 kJ/mol
# Density = 2.305367 g / cm^3
# Si number density = 23.106260 Si / 1000 Ang^3
#
#
#
# Elastic Constant Matrix: (Units=GPa)
#
#
# Indices 1 2 3 4 5 6 
#
# 1 71.6992 53.2891 0.6248 0.0000 0.0000 0.0000
# 2 53.2891 71.6988 0.6246 0.0000 0.0000 0.0000
# 3 0.6248 0.6246 21.9017 0.0000 0.0000 0.0000
# 4 0.0000 0.0000 0.0000 3.4613 0.0000 0.0000
# 5 0.0000 0.0000 0.0000 0.0000 3.4629 0.0000
# 6 0.0000 0.0000 0.0000 0.0000 0.0000 26.3682
#
#
#
# Elastic Compliance Matrix: (Units=1/GPa)
#
#
# Indices 1 2 3 4 5 6 
#
# 1 0.031161 -0.023158 -0.000229 0.000000 0.000000 0.000000
# 2 -0.023158 0.031161 -0.000228 0.000000 0.000000 0.000000
# 3 -0.000229 -0.000228 0.045672 0.000000 0.000000 0.000000
# 4 0.000000 0.000000 0.000000 0.288905 0.000000 0.000000
# 5 0.000000 0.000000 0.000000 0.000000 0.288777 0.000000
# 6 0.000000 0.000000 0.000000 0.000000 0.000000 0.037925
#
#
# Mechanical properties :
#
#
# Convention : Reuss Voigt Hill
#
# Bulk Modulus (GPa) = 16.45695 30.48629 23.47162
# Shear Modulus (GPa) = 6.32045 14.04255 10.18150
#
# Velocity S-wave (km/s) = 1.65569 2.46791 2.10142
# Velocity P-wave (km/s) = 3.28525 4.61989 4.00850
#
# Compressibility (1/GPa) = 0.06076461
#
# Stress axis : x y z
#
# Youngs Moduli (GPa) = 32.09159 32.09140 21.89546
#
# Poissons Ratio (x) = 0.74317 0.00500
# Poissons Ratio (y) = 0.74317 0.00499
# Poissons Ratio (z) = 0.00733 0.00732
#
# Static dielectric constant tensor:
#      x y z
#    x 1.886250 0.000000 0.000000 
#    y 0.000000 1.886250 0.000000 
#    z 0.000000 0.000000 1.863890 
# 
# From -- ./inp_files/1533.got.cif
#   From: 2010.05.17/outbox.cif.g08.bks.cpg/sg136_1_cif.got.tgz:1533.got - 2010.05.20 12:54:53.
