data_PCOD9569713
_publ_section_title
;
Structure prediction by ZEFSAII (Michael W. Deem and Ramdas Pophale) SiO2 
 PCOD9569713
Probable space group: P 42/M N M
;
_chemical_formula_sum "Si O2"
_cell_formula_units_Z 84
_cell_length_a 12.819190
_cell_length_b 12.819190
_cell_length_c 28.329933
_cell_angle_alpha 90.000000
_cell_angle_beta 90.000000
_cell_angle_gamma 90.000000
_cell_volume 4655.504132
_symmetry_space_group_name_H-M "P 42/M N M"
_symmetry_group_IT_number 136
_symmetry_cell_setting 'tetragonal'
loop_
_space_group_symop_operation_xyz
x,y,z
1/2-y,1/2+x,1/2+z
-x,-y,z
1/2+y,1/2-x,1/2+z
1/2+x,1/2-y,1/2-z
1/2-x,1/2+y,1/2-z
y,x,-z
-y,-x,-z
-x,-y,-z
1/2+y,1/2-x,1/2-z
x,y,-z
1/2-y,1/2+x,1/2-z
1/2-x,1/2+y,1/2+z
1/2+x,1/2-y,1/2+z
-y,-x,z
y,x,z
loop_
_atom_site_type_symbol
_atom_site_label
_atom_site_fract_x
_atom_site_fract_y
_atom_site_fract_z
Si Si1 0.126183 0.699622 0.203505
Si Si2 0.375695 0.993562 0.118838
Si Si3 0.392245 0.222907 0.902792
Si Si4 0.500000 0.500000 0.785945
Si Si5 0.984606 0.248914 0.701113
Si Si6 0.210234 0.618347 0.055898
O O1 0.199365 0.800636 0.196276
O O2 0.194836 0.595955 0.196149
O O3 0.079972 0.701465 0.255974
O O4 0.032868 0.689553 0.165595
O O5 0.352659 0.103972 0.094714
O O6 0.500000 0.000000 0.130694
O O7 0.359580 0.896200 0.083973
O O8 0.305477 0.305477 0.916889
O O9 0.423827 0.239867 0.848086
O O10 0.498995 0.237864 0.931696
O O11 0.499666 0.371796 0.787496
O O12 0.302093 0.697908 0.070638
O O13 0.194762 0.628868 0.000000
#
# Coordination Sequence:
#
# PCOD9569713 Si02
#       6
#    16  16  16   4  16  16
#     4  12  23  37  57  82 113 158 207 249 291 354
#     4  10  21  38  59  86 116 156 200 246 302 353
#     4  11  23  39  59  90 124 159 196 247 309 366
#     4  12  24  40  52  88 121 164 201 246 320 358
#     4  12  24  37  58  83 120 161 205 250 302 361
#     4  10  22  40  65  93 119 155 205 253 300 362
#
# _framework density 18.043157999999998
#
# number of rings (size 3 to 8) (size 9 to 14) (size 15 to 20)
#    0.000    0.952    6.667    1.714    1.333    4.190 
#    1.714    0.952    0.000    1.714    0.000    1.333 
#    0.000    0.000    0.000    0.000    0.000    0.000 
#
# Total GULP energy -468210.361052 kJ/mol
# GULP energy per Si atom -5573.932870 kJ/mol
# Density = 1.800209 g / cm^3
# Si number density = 18.043158 Si / 1000 Ang^3
#
#
#
# Elastic Constant Matrix: (Units=GPa)
#
#
# Indices 1 2 3 4 5 6 
#
# 1 58.5989 12.7268 -1.8341 0.0000 0.0000 0.0000
# 2 12.7268 58.5989 -1.8341 0.0000 0.0000 0.0000
# 3 -1.8341 -1.8341 47.9580 0.0000 0.0000 0.0000
# 4 0.0000 0.0000 0.0000 5.2038 0.0000 0.0000
# 5 0.0000 0.0000 0.0000 0.0000 5.2038 0.0000
# 6 0.0000 0.0000 0.0000 0.0000 0.0000 14.7860
#
#
#
# Elastic Compliance Matrix: (Units=1/GPa)
#
#
# Indices 1 2 3 4 5 6 
#
# 1 0.017924 -0.003876 0.000537 0.000000 0.000000 0.000000
# 2 -0.003876 0.017924 0.000537 0.000000 0.000000 0.000000
# 3 0.000537 0.000537 0.020893 0.000000 0.000000 0.000000
# 4 0.000000 0.000000 0.000000 0.192167 0.000000 0.000000
# 5 0.000000 0.000000 0.000000 0.000000 0.192167 0.000000
# 6 0.000000 0.000000 0.000000 0.000000 0.000000 0.067631
#
#
# Mechanical properties :
#
#
# Convention : Reuss Voigt Hill
#
# Bulk Modulus (GPa) = 19.55521 20.36367 19.95944
# Shear Modulus (GPa) = 9.40990 15.44520 12.42755
#
# Velocity S-wave (km/s) = 2.28616 2.92895 2.62729
# Velocity P-wave (km/s) = 4.22259 4.76958 4.50440
#
# Compressibility (1/GPa) = 0.05113727
#
# Stress axis : x y z
#
# Youngs Moduli (GPa) = 55.79178 55.79178 47.86370
#
# Poissons Ratio (x) = 0.21625 -0.02571
# Poissons Ratio (y) = 0.21625 -0.02571
# Poissons Ratio (z) = -0.02997 -0.02997
#
# Static dielectric constant tensor:
#      x y z
#    x 1.618000 0.000000 0.000000 
#    y 0.000000 1.618000 0.000000 
#    z 0.000000 0.000000 1.614550 
# 
# From -- ./inp_files/9679.got.cif
#   From: 2010.05.17/outbox.cif.g08.bks.cpg/sg136_5_cif.got.tgz:9679.got - 2010.05.20 12:54:53.
