data_PCOD9569889
_publ_section_title
;
Structure prediction by ZEFSAII (Michael W. Deem and Ramdas Pophale) SiO2 
 PCOD9569889
Probable space group: P 42/M N M
;
_chemical_formula_sum "Si O2"
_cell_formula_units_Z 80
_cell_length_a 16.025332
_cell_length_b 16.025332
_cell_length_c 13.974169
_cell_angle_alpha 90.000000
_cell_angle_beta 90.000000
_cell_angle_gamma 90.000000
_cell_volume 3588.724028
_symmetry_space_group_name_H-M "P 42/M N M"
_symmetry_group_IT_number 136
_symmetry_cell_setting 'tetragonal'
loop_
_space_group_symop_operation_xyz
x,y,z
1/2-y,1/2+x,1/2+z
-x,-y,z
1/2+y,1/2-x,1/2+z
1/2+x,1/2-y,1/2-z
1/2-x,1/2+y,1/2-z
y,x,-z
-y,-x,-z
-x,-y,-z
1/2+y,1/2-x,1/2-z
x,y,-z
1/2-y,1/2+x,1/2-z
1/2-x,1/2+y,1/2+z
1/2+x,1/2-y,1/2+z
-y,-x,z
y,x,z
loop_
_atom_site_type_symbol
_atom_site_label
_atom_site_fract_x
_atom_site_fract_y
_atom_site_fract_z
Si Si1 0.821454 0.696099 0.883870
Si Si2 0.118363 0.257980 0.393164
Si Si3 0.773645 0.583750 0.389293
Si Si4 0.953387 0.818901 0.784939
Si Si5 0.923269 0.449843 0.610583
O O1 0.730933 0.730933 0.854315
O O2 0.887287 0.766050 0.849186
O O3 0.862244 0.609645 0.848439
O O4 0.822888 0.693514 0.000000
O O5 0.087637 0.279966 0.500000
O O6 0.178634 0.178634 0.400357
O O7 0.178787 0.332318 0.358040
O O8 0.050600 0.229001 0.316838
O O9 0.748582 0.597236 0.500000
O O10 0.697394 0.543556 0.330972
O O11 0.846346 0.513861 0.388195
O O12 0.911034 0.911034 0.778097
O O13 0.945721 0.432499 0.500000
O O14 0.000000 0.500000 0.652518
#
# Coordination Sequence:
#
# PCOD9569889 Si02
#       5
#    16  16  16  16  16
#     4   8  13  22  38  60  85 114 151 197 244 287
#     4   9  18  33  50  67  94 133 170 201 238 295
#     4   9  17  30  47  69  95 124 159 201 251 299
#     4   9  16  28  47  69  91 120 164 206 239 287
#     4   8  13  22  36  56  86 120 150 184 232 288
#
# _framework density 22.292045999999999
#
# number of rings (size 3 to 8) (size 9 to 14) (size 15 to 20)
#    0.000    3.400    0.000    1.800    0.000    1.200 
#    7.200    0.000    0.000    0.600    0.000    2.800 
#    0.000    0.000    0.000    5.000    0.000    0.200 
#
# Total GULP energy -445531.284320 kJ/mol
# GULP energy per Si atom -5569.141054 kJ/mol
# Density = 2.224131 g / cm^3
# Si number density = 22.292046 Si / 1000 Ang^3
#
#
#
# Elastic Constant Matrix: (Units=GPa)
#
#
# Indices 1 2 3 4 5 6 
#
# 1 52.6834 37.6756 12.8276 0.0000 0.0000 0.0000
# 2 37.6756 52.6834 12.8276 0.0000 0.0000 0.0000
# 3 12.8276 12.8276 89.4995 0.0000 0.0000 0.0000
# 4 0.0000 0.0000 0.0000 5.1671 0.0000 0.0000
# 5 0.0000 0.0000 0.0000 0.0000 5.1671 0.0000
# 6 0.0000 0.0000 0.0000 0.0000 0.0000 46.6432
#
#
#
# Elastic Compliance Matrix: (Units=1/GPa)
#
#
# Indices 1 2 3 4 5 6 
#
# 1 0.039084 -0.027548 -0.001653 0.000000 0.000000 0.000000
# 2 -0.027548 0.039084 -0.001653 0.000000 0.000000 0.000000
# 3 -0.001653 -0.001653 0.011647 0.000000 0.000000 0.000000
# 4 0.000000 0.000000 0.000000 0.193533 0.000000 0.000000
# 5 0.000000 0.000000 0.000000 0.000000 0.193533 0.000000
# 6 0.000000 0.000000 0.000000 0.000000 0.000000 0.021439
#
#
# Mechanical properties :
#
#
# Convention : Reuss Voigt Hill
#
# Bulk Modulus (GPa) = 35.57935 35.72533 35.65234
# Shear Modulus (GPa) = 8.78119 20.16449 14.47284
#
# Velocity S-wave (km/s) = 1.98688 3.01085 2.55078
# Velocity P-wave (km/s) = 4.61073 5.30545 4.97024
#
# Compressibility (1/GPa) = 0.02810619
#
# Stress axis : x y z
#
# Youngs Moduli (GPa) = 25.58578 25.58578 85.85740
#
# Poissons Ratio (x) = 0.70483 0.14196
# Poissons Ratio (y) = 0.70483 0.14196
# Poissons Ratio (z) = 0.04231 0.04231
#
# Static dielectric constant tensor:
#      x y z
#    x 1.952600 0.000000 0.000000 
#    y 0.000000 1.952600 0.000000 
#    z 0.000000 0.000000 1.882290 
# 
# From -- ./inp_files/4901.got.cif
#   From: 2010.05.17/outbox.cif.g08.bks.cpg/sg136_3_cif.got.tgz:4901.got - 2010.05.20 12:54:53.
