data_PCOD9569108
_publ_section_title
;
Structure prediction by ZEFSAII (Michael W. Deem and Ramdas Pophale) SiO2 
 PCOD9569108
Probable space group: P 42/M N M
;
_chemical_formula_sum "Si O2"
_cell_formula_units_Z 96
_cell_length_a 19.078366
_cell_length_b 19.078366
_cell_length_c 20.552885
_cell_angle_alpha 90.000000
_cell_angle_beta 90.000000
_cell_angle_gamma 90.000000
_cell_volume 7480.922306
_symmetry_space_group_name_H-M "P 42/M N M"
_symmetry_group_IT_number 136
_symmetry_cell_setting 'tetragonal'
loop_
_space_group_symop_operation_xyz
x,y,z
1/2-y,1/2+x,1/2+z
-x,-y,z
1/2+y,1/2-x,1/2+z
1/2+x,1/2-y,1/2-z
1/2-x,1/2+y,1/2-z
y,x,-z
-y,-x,-z
-x,-y,-z
1/2+y,1/2-x,1/2-z
x,y,-z
1/2-y,1/2+x,1/2-z
1/2-x,1/2+y,1/2+z
1/2+x,1/2-y,1/2+z
-y,-x,z
y,x,z
loop_
_atom_site_type_symbol
_atom_site_label
_atom_site_fract_x
_atom_site_fract_y
_atom_site_fract_z
Si Si1 0.560755 0.096292 0.500000
Si Si2 0.813405 0.464723 0.376726
Si Si3 0.056614 0.395592 0.500000
Si Si4 0.780765 0.219236 0.921261
Si Si5 0.940384 0.599085 0.251128
Si Si6 0.350062 0.871387 0.122054
Si Si7 0.545493 0.337202 0.423055
Si Si8 0.898962 0.101039 0.077669
O O1 0.568364 0.142132 0.564500
O O2 0.478983 0.073048 0.500000
O O3 0.608156 0.027128 0.500000
O O4 0.848907 0.443061 0.309506
O O5 0.817317 0.549835 0.383955
O O6 0.733693 0.442265 0.384395
O O7 0.093675 0.365230 0.436150
O O8 0.813340 0.289769 0.889505
O O9 0.840278 0.159723 0.912254
O O10 0.771471 0.228530 0.000000
O O11 0.913232 0.521919 0.229187
O O12 0.892278 0.626866 0.309916
O O13 0.535652 0.318783 0.500000
O O14 0.608406 0.391595 0.418613
O O15 0.474154 0.373366 0.398444
O O16 0.907803 0.092198 0.000000
#
# Coordination Sequence:
#
# PCOD9569108 Si02
#       8
#     8  16   8   8  16  16  16   8
#     4   9  16  24  41  62  80  99 135 172 207 243
#     4  10  17  28  43  60  82 111 139 176 210 247
#     4   9  16  25  40  62  79 101 133 172 209 246
#     4  11  18  27  44  65  86 111 139 180 220 260
#     4   9  18  31  45  61  84 113 145 178 213 256
#     4  10  18  28  43  60  84 110 140 175 214 253
#     4  10  18  28  41  60  84 110 141 174 207 246
#     4   9  17  26  43  60  82 110 139 171 206 246
#
# _framework density 12.832642
#
# number of rings (size 3 to 8) (size 9 to 14) (size 15 to 20)
#    0.000    2.333    3.333    1.250    0.000    5.000 
#    1.500    0.000    0.000    0.000    0.000    0.000 
#    0.000    0.000    0.000    0.000    0.000    0.000 
#
# Total GULP energy -534584.180829 kJ/mol
# GULP energy per Si atom -5568.585217 kJ/mol
# Density = 1.280343 g / cm^3
# Si number density = 12.832642 Si / 1000 Ang^3
#
#
#
# Elastic Constant Matrix: (Units=GPa)
#
#
# Indices 1 2 3 4 5 6 
#
# 1 68.5966 37.0263 39.6814 0.0000 0.0000 0.0000
# 2 37.0263 68.5984 39.6815 0.0000 0.0000 0.0000
# 3 39.6814 39.6815 65.4413 0.0000 0.0000 0.0000
# 4 0.0000 0.0000 0.0000 12.4120 0.0000 0.0000
# 5 0.0000 0.0000 0.0000 0.0000 12.4120 0.0000
# 6 0.0000 0.0000 0.0000 0.0000 0.0000 18.4533
#
#
#
# Elastic Compliance Matrix: (Units=1/GPa)
#
#
# Indices 1 2 3 4 5 6 
#
# 1 0.024533 -0.007142 -0.010546 0.000000 0.000000 0.000000
# 2 -0.007142 0.024532 -0.010545 0.000000 0.000000 0.000000
# 3 -0.010546 -0.010545 0.028070 0.000000 0.000000 0.000000
# 4 0.000000 0.000000 0.000000 0.080567 0.000000 0.000000
# 5 0.000000 0.000000 0.000000 0.000000 0.080567 0.000000
# 6 0.000000 0.000000 0.000000 0.000000 0.000000 0.054191
#
#
# Mechanical properties :
#
#
# Convention : Reuss Voigt Hill
#
# Bulk Modulus (GPa) = 48.37868 48.37940 48.37904
# Shear Modulus (GPa) = 14.05224 14.40528 14.22876
#
# Velocity S-wave (km/s) = 3.31273 3.35408 3.33347
# Velocity P-wave (km/s) = 7.23974 7.26512 7.25244
#
# Compressibility (1/GPa) = 0.02067026
#
# Stress axis : x y z
#
# Youngs Moduli (GPa) = 40.76110 40.76259 35.62569
#
# Poissons Ratio (x) = 0.29111 0.37570
# Poissons Ratio (y) = 0.29110 0.37568
# Poissons Ratio (z) = 0.42985 0.42985
#
# Static dielectric constant tensor:
#      x y z
#    x 1.413920 0.000000 0.000000 
#    y 0.000000 1.413920 0.000000 
#    z 0.000000 0.000000 1.409220 
# 
# From -- ./inp_files/7716.got.cif
#   From: 2010.05.17/outbox.cif.g08.bks.cpg/sg136_4_cif.got.tgz:7716.got - 2010.05.20 12:54:53.
