data_PCOD9569474
_publ_section_title
;
Structure prediction by ZEFSAII (Michael W. Deem and Ramdas Pophale) SiO2 
 PCOD9569474
Probable space group: P 42/M N M
;
_chemical_formula_sum "Si O2"
_cell_formula_units_Z 96
_cell_length_a 15.498475
_cell_length_b 15.498475
_cell_length_c 20.514094
_cell_angle_alpha 90.000000
_cell_angle_beta 90.000000
_cell_angle_gamma 90.000000
_cell_volume 4927.541327
_symmetry_space_group_name_H-M "P 42/M N M"
_symmetry_group_IT_number 136
_symmetry_cell_setting 'tetragonal'
loop_
_space_group_symop_operation_xyz
x,y,z
1/2-y,1/2+x,1/2+z
-x,-y,z
1/2+y,1/2-x,1/2+z
1/2+x,1/2-y,1/2-z
1/2-x,1/2+y,1/2-z
y,x,-z
-y,-x,-z
-x,-y,-z
1/2+y,1/2-x,1/2-z
x,y,-z
1/2-y,1/2+x,1/2-z
1/2-x,1/2+y,1/2+z
1/2+x,1/2-y,1/2+z
-y,-x,z
y,x,z
loop_
_atom_site_type_symbol
_atom_site_label
_atom_site_fract_x
_atom_site_fract_y
_atom_site_fract_z
Si Si1 0.361188 0.497523 0.593506
Si Si2 0.513270 0.123685 0.715691
Si Si3 0.862332 0.996198 0.381345
Si Si4 0.544297 0.322687 0.735768
Si Si5 0.128728 0.733040 0.422354
Si Si6 0.467927 0.839957 0.425705
O O1 0.420426 0.579575 0.574135
O O2 0.411871 0.411871 0.572126
O O3 0.359185 0.498106 0.672041
O O4 0.262104 0.509248 0.573201
O O5 0.591898 0.062705 0.736950
O O6 0.537780 0.221021 0.730827
O O7 0.488334 0.118375 0.638731
O O8 0.932457 0.067544 0.402742
O O9 0.771122 0.034873 0.403889
O O10 0.856432 0.993860 0.303202
O O11 0.903710 0.903710 0.401797
O O12 0.641734 0.358267 0.732612
O O13 0.133538 0.739115 0.500000
O O14 0.203138 0.796863 0.394466
O O15 0.148034 0.633452 0.408371
O O16 0.483456 0.873155 0.500000
#
# Coordination Sequence:
#
# PCOD9569474 Si02
#       6
#    16  16  16  16  16  16
#     4   9  17  29  47  74 109 145 176 209 255 314
#     4  10  21  38  57  77 102 132 172 219 262 307
#     4   9  16  26  44  71 102 136 174 219 270 319
#     4   9  17  31  51  75 103 134 170 211 258 313
#     4   9  17  28  43  67 101 139 177 217 263 318
#     4  10  20  34  52  75 103 136 175 218 265 316
#
# _framework density 19.482332
#
# number of rings (size 3 to 8) (size 9 to 14) (size 15 to 20)
#    0.000    2.667    0.000    2.000    0.000    4.333 
#    0.000    8.333    0.000    1.000    0.000    0.000 
#    0.000    0.000    0.000    0.000    0.000    0.000 
#
# Total GULP energy -534452.792555 kJ/mol
# GULP energy per Si atom -5567.216589 kJ/mol
# Density = 1.943799 g / cm^3
# Si number density = 19.482332 Si / 1000 Ang^3
#
#
#
# Elastic Constant Matrix: (Units=GPa)
#
#
# Indices 1 2 3 4 5 6 
#
# 1 68.7479 39.7271 18.6487 0.0000 0.0000 0.0000
# 2 39.7271 68.7479 18.6487 0.0000 0.0000 0.0000
# 3 18.6487 18.6487 71.9528 0.0000 0.0000 0.0000
# 4 0.0000 0.0000 0.0000 4.0386 0.0000 0.0000
# 5 0.0000 0.0000 0.0000 0.0000 4.0386 0.0000
# 6 0.0000 0.0000 0.0000 0.0000 0.0000 11.2312
#
#
#
# Elastic Compliance Matrix: (Units=1/GPa)
#
#
# Indices 1 2 3 4 5 6 
#
# 1 0.022289 -0.012169 -0.002623 0.000000 0.000000 0.000000
# 2 -0.012169 0.022289 -0.002623 0.000000 0.000000 0.000000
# 3 -0.002623 -0.002623 0.015258 0.000000 0.000000 0.000000
# 4 0.000000 0.000000 0.000000 0.247608 0.000000 0.000000
# 5 0.000000 0.000000 0.000000 0.000000 0.247608 0.000000
# 6 0.000000 0.000000 0.000000 0.000000 0.000000 0.089038
#
#
# Mechanical properties :
#
#
# Convention : Reuss Voigt Hill
#
# Bulk Modulus (GPa) = 39.98931 40.38862 40.18896
# Shear Modulus (GPa) = 7.27531 12.68996 9.98263
#
# Velocity S-wave (km/s) = 1.93453 2.55494 2.26607
# Velocity P-wave (km/s) = 5.05573 5.42950 5.24595
#
# Compressibility (1/GPa) = 0.02500668
#
# Stress axis : x y z
#
# Youngs Moduli (GPa) = 44.86447 44.86447 65.54072
#
# Poissons Ratio (x) = 0.54594 0.17192
# Poissons Ratio (y) = 0.54594 0.17192
# Poissons Ratio (z) = 0.11768 0.11768
#
# Static dielectric constant tensor:
#      x y z
#    x 1.702500 0.000000 0.000000 
#    y 0.000000 1.702500 0.000000 
#    z 0.000000 0.000000 1.719850 
# 
# From -- ./inp_files/7499.got.cif
#   From: 2010.05.17/outbox.cif.g08.bks.cpg/sg136_4_cif.got.tgz:7499.got - 2010.05.20 12:54:53.
