data_PCOD9569220
_publ_section_title
;
Structure prediction by ZEFSAII (Michael W. Deem and Ramdas Pophale) SiO2 
 PCOD9569220
Probable space group: P 42/M N M
;
_chemical_formula_sum "Si O2"
_cell_formula_units_Z 96
_cell_length_a 22.994777
_cell_length_b 22.994777
_cell_length_c 13.109447
_cell_angle_alpha 90.000000
_cell_angle_beta 90.000000
_cell_angle_gamma 90.000000
_cell_volume 6931.748171
_symmetry_space_group_name_H-M "P 42/M N M"
_symmetry_group_IT_number 136
_symmetry_cell_setting 'tetragonal'
loop_
_space_group_symop_operation_xyz
x,y,z
1/2-y,1/2+x,1/2+z
-x,-y,z
1/2+y,1/2-x,1/2+z
1/2+x,1/2-y,1/2-z
1/2-x,1/2+y,1/2-z
y,x,-z
-y,-x,-z
-x,-y,-z
1/2+y,1/2-x,1/2-z
x,y,-z
1/2-y,1/2+x,1/2-z
1/2-x,1/2+y,1/2+z
1/2+x,1/2-y,1/2+z
-y,-x,z
y,x,z
loop_
_atom_site_type_symbol
_atom_site_label
_atom_site_fract_x
_atom_site_fract_y
_atom_site_fract_z
Si Si1 0.497049 0.595464 0.308642
Si Si2 0.692303 0.791965 0.703186
Si Si3 0.144370 0.755371 0.000000
Si Si4 0.868239 0.229676 0.380925
Si Si5 0.623434 0.279840 0.880227
Si Si6 0.676142 0.506098 0.118422
Si Si7 0.849817 0.049736 0.000000
O O1 0.434648 0.565353 0.320905
O O2 0.544646 0.544646 0.317898
O O3 0.504201 0.624374 0.199001
O O4 0.511842 0.640002 0.399019
O O5 0.742510 0.742510 0.701291
O O6 0.653753 0.780885 0.602752
O O7 0.655460 0.778554 0.804169
O O8 0.728120 0.851234 0.688771
O O9 0.195100 0.804901 0.000000
O O10 0.083920 0.789579 0.000000
O O11 0.861689 0.245595 0.500000
O O12 0.828082 0.171919 0.363905
O O13 0.935379 0.213047 0.362240
O O14 0.661458 0.338543 0.860012
O O15 0.555067 0.290578 0.868219
O O16 0.634730 0.265561 0.000000
O O17 0.656706 0.508812 0.000000
O O18 0.899966 0.100035 0.000000
#
# Coordination Sequence:
#
# PCOD9569220 Si02
#       7
#    16  16   8  16  16  16   8
#     4  10  19  29  40  54  77 114 156 187 209 237
#     4   9  15  25  42  62  81 102 134 176 215 254
#     4   9  14  21  38  61  76  90 122 172 224 253
#     4   9  17  28  42  61  85 112 141 172 209 252
#     4   9  16  27  42  61  85 111 140 172 210 255
#     4  10  19  29  42  61  86 113 140 176 217 253
#     4   9  17  28  41  56  76 104 141 185 221 244
#
# _framework density 13.849320000000001
#
# number of rings (size 3 to 8) (size 9 to 14) (size 15 to 20)
#    0.000    2.667    0.833    2.250    0.000    5.667 
#    0.000    0.833    1.833    0.000    0.000    0.000 
#    0.000    0.667    0.000    6.000    0.000    0.000 
#
# Total GULP energy -534472.357731 kJ/mol
# GULP energy per Si atom -5567.420393 kJ/mol
# Density = 1.381780 g / cm^3
# Si number density = 13.849320 Si / 1000 Ang^3
#
#
#
# Elastic Constant Matrix: (Units=GPa)
#
#
# Indices 1 2 3 4 5 6 
#
# 1 41.1428 21.5830 26.7246 0.0000 0.0000 0.0000
# 2 21.5830 41.1428 26.7247 0.0000 0.0000 0.0000
# 3 26.7246 26.7247 55.0739 0.0000 0.0000 0.0000
# 4 0.0000 0.0000 0.0000 15.6314 0.0000 0.0000
# 5 0.0000 0.0000 0.0000 0.0000 15.6313 0.0000
# 6 0.0000 0.0000 0.0000 0.0000 0.0000 10.6223
#
#
#
# Elastic Compliance Matrix: (Units=1/GPa)
#
#
# Indices 1 2 3 4 5 6 
#
# 1 0.039153 -0.011972 -0.013190 0.000000 0.000000 0.000000
# 2 -0.011972 0.039154 -0.013190 0.000000 0.000000 0.000000
# 3 -0.013190 -0.013190 0.030958 0.000000 0.000000 0.000000
# 4 0.000000 0.000000 0.000000 0.063974 0.000000 0.000000
# 5 0.000000 0.000000 0.000000 0.000000 0.063974 0.000000
# 6 0.000000 0.000000 0.000000 0.000000 0.000000 0.094142
#
#
# Mechanical properties :
#
#
# Convention : Reuss Voigt Hill
#
# Bulk Modulus (GPa) = 30.71071 31.93599 31.32335
# Shear Modulus (GPa) = 11.93566 12.53213 12.23390
#
# Velocity S-wave (km/s) = 2.93887 3.01141 2.97536
# Velocity P-wave (km/s) = 5.80852 5.93305 5.87112
#
# Compressibility (1/GPa) = 0.03256193
#
# Stress axis : x y z
#
# Youngs Moduli (GPa) = 25.54052 25.54047 32.30153
#
# Poissons Ratio (x) = 0.30577 0.42605
# Poissons Ratio (y) = 0.30577 0.42606
# Poissons Ratio (z) = 0.33688 0.33688
#
# Static dielectric constant tensor:
#      x y z
#    x 1.447870 0.000000 0.000000 
#    y 0.000000 1.447870 0.000000 
#    z 0.000000 0.000000 1.468050 
# 
# From -- ./inp_files/3941.got.cif
#   From: 2010.05.17/outbox.cif.g08.bks.cpg/sg136_2_cif.got.tgz:3941.got - 2010.05.20 12:54:53.
