data_PCOD9569837
_publ_section_title
;
Structure prediction by ZEFSAII (Michael W. Deem and Ramdas Pophale) SiO2 
 PCOD9569837
Probable space group: P 42/M N M
;
_chemical_formula_sum "Si O2"
_cell_formula_units_Z 72
_cell_length_a 12.510318
_cell_length_b 12.510318
_cell_length_c 22.751595
_cell_angle_alpha 90.000000
_cell_angle_beta 90.000000
_cell_angle_gamma 90.000000
_cell_volume 3560.807915
_symmetry_space_group_name_H-M "P 42/M N M"
_symmetry_group_IT_number 136
_symmetry_cell_setting 'tetragonal'
loop_
_space_group_symop_operation_xyz
x,y,z
1/2-y,1/2+x,1/2+z
-x,-y,z
1/2+y,1/2-x,1/2+z
1/2+x,1/2-y,1/2-z
1/2-x,1/2+y,1/2-z
y,x,-z
-y,-x,-z
-x,-y,-z
1/2+y,1/2-x,1/2-z
x,y,-z
1/2-y,1/2+x,1/2-z
1/2-x,1/2+y,1/2+z
1/2+x,1/2-y,1/2+z
-y,-x,z
y,x,z
loop_
_atom_site_type_symbol
_atom_site_label
_atom_site_fract_x
_atom_site_fract_y
_atom_site_fract_z
Si Si1 0.415022 0.415022 0.428682
Si Si2 0.341182 0.175958 0.882032
Si Si3 0.919221 0.655472 0.245129
Si Si4 0.758923 0.931005 0.367654
Si Si5 0.446860 0.170513 0.569838
O O1 0.500000 0.500000 0.405805
O O2 0.417970 0.417970 0.500000
O O3 0.294940 0.443785 0.411450
O O4 0.238699 0.238699 0.906687
O O5 0.318283 0.141120 0.814755
O O6 0.443297 0.254197 0.881407
O O7 0.369854 0.065202 0.914150
O O8 0.869917 0.543382 0.268140
O O9 0.916516 0.738976 0.297870
O O10 0.862231 0.862231 0.385377
O O11 0.652838 0.884730 0.398902
O O12 0.431749 0.163433 0.500000
#
# Coordination Sequence:
#
# PCOD9569837 Si02
#       5
#     8  16  16  16  16
#     4   9  18  34  58  88 123 155 185 237 303 355
#     4  11  23  38  59  87 121 160 200 247 297 353
#     4   9  17  34  60  87 115 149 197 250 301 352
#     4  11  22  38  61  87 118 160 204 247 293 352
#     4  11  22  39  62  89 119 153 198 247 298 358
#
# _framework density 20.220130000000001
#
# number of rings (size 3 to 8) (size 9 to 14) (size 15 to 20)
#    0.000    1.667    3.333    2.000    0.000    3.556 
#    0.000    0.000    0.000    0.000    0.000    3.111 
#    0.000    0.000    0.000    0.000    0.000    0.000 
#
# Total GULP energy -402009.546300 kJ/mol
# GULP energy per Si atom -5583.465921 kJ/mol
# Density = 2.017411 g / cm^3
# Si number density = 20.220130 Si / 1000 Ang^3
#
#
#
# Elastic Constant Matrix: (Units=GPa)
#
#
# Indices 1 2 3 4 5 6 
#
# 1 34.3226 6.6202 -4.2489 0.0000 0.0000 0.0000
# 2 6.6202 34.3226 -4.2489 0.0000 0.0000 0.0000
# 3 -4.2489 -4.2489 41.0884 0.0000 0.0000 0.0000
# 4 0.0000 0.0000 0.0000 17.2897 0.0000 0.0000
# 5 0.0000 0.0000 0.0000 0.0000 17.2897 0.0000
# 6 0.0000 0.0000 0.0000 0.0000 0.0000 39.7342
#
#
#
# Elastic Compliance Matrix: (Units=1/GPa)
#
#
# Indices 1 2 3 4 5 6 
#
# 1 0.030529 -0.005569 0.002581 0.000000 0.000000 0.000000
# 2 -0.005569 0.030529 0.002581 0.000000 0.000000 0.000000
# 3 0.002581 0.002581 0.024872 0.000000 0.000000 0.000000
# 4 0.000000 0.000000 0.000000 0.057838 0.000000 0.000000
# 5 0.000000 0.000000 0.000000 0.000000 0.057838 0.000000
# 6 0.000000 0.000000 0.000000 0.000000 0.000000 0.025167
#
#
# Mechanical properties :
#
#
# Convention : Reuss Voigt Hill
#
# Bulk Modulus (GPa) = 11.74866 11.77536 11.76201
# Shear Modulus (GPa) = 19.53443 22.30346 20.91895
#
# Velocity S-wave (km/s) = 3.11157 3.32480 3.21995
# Velocity P-wave (km/s) = 4.32806 4.53600 4.43325
#
# Compressibility (1/GPa) = 0.08511609
#
# Stress axis : x y z
#
# Youngs Moduli (GPa) = 32.75574 32.75574 40.20656
#
# Poissons Ratio (x) = 0.18242 -0.10378
# Poissons Ratio (y) = 0.18242 -0.10378
# Poissons Ratio (z) = -0.08455 -0.08455
#
# Static dielectric constant tensor:
#      x y z
#    x 1.716620 0.000000 0.000000 
#    y 0.000000 1.716620 0.000000 
#    z 0.000000 0.000000 1.704060 
# 
# From -- ./inp_files/8927.got.cif
#   From: 2010.05.17/outbox.cif.g08.bks.cpg/sg136_5_cif.got.tgz:8927.got - 2010.05.20 12:54:53.
