data_PCOD9569321
_publ_section_title
;
Structure prediction by ZEFSAII (Michael W. Deem and Ramdas Pophale) SiO2 
 PCOD9569321
Probable space group: P 42/M N M
;
_chemical_formula_sum "Si O2"
_cell_formula_units_Z 64
_cell_length_a 13.704820
_cell_length_b 13.704820
_cell_length_c 20.426347
_cell_angle_alpha 90.000000
_cell_angle_beta 90.000000
_cell_angle_gamma 90.000000
_cell_volume 3836.519210
_symmetry_space_group_name_H-M "P 42/M N M"
_symmetry_group_IT_number 136
_symmetry_cell_setting 'tetragonal'
loop_
_space_group_symop_operation_xyz
x,y,z
1/2-y,1/2+x,1/2+z
-x,-y,z
1/2+y,1/2-x,1/2+z
1/2+x,1/2-y,1/2-z
1/2-x,1/2+y,1/2-z
y,x,-z
-y,-x,-z
-x,-y,-z
1/2+y,1/2-x,1/2-z
x,y,-z
1/2-y,1/2+x,1/2-z
1/2-x,1/2+y,1/2+z
1/2+x,1/2-y,1/2+z
-y,-x,z
y,x,z
loop_
_atom_site_type_symbol
_atom_site_label
_atom_site_fract_x
_atom_site_fract_y
_atom_site_fract_z
Si Si1 0.629995 0.904709 0.751353
Si Si2 0.862843 0.296046 0.386230
Si Si3 0.316136 0.840473 0.000000
Si Si4 0.260503 0.582075 0.875899
Si Si5 0.452191 0.892089 0.500000
O O1 0.519748 0.875208 0.731226
O O2 0.656359 0.842120 0.814838
O O3 0.702908 0.893302 0.690871
O O4 0.776185 0.223816 0.405483
O O5 0.877788 0.383810 0.437165
O O6 0.965667 0.238713 0.382953
O O7 0.373315 0.800301 0.063513
O O8 0.210681 0.789320 0.000000
O O9 0.318800 0.956635 0.000000
O O10 0.364534 0.635467 0.875922
O O11 0.500000 0.000000 0.500000
#
# Coordination Sequence:
#
# PCOD9569321 Si02
#       5
#    16  16   8  16   8
#     4   9  18  31  53  78 106 137 184 230 269 311
#     4  11  22  34  52  80 110 144 179 222 274 327
#     4  10  20  34  56  82 103 133 178 222 269 315
#     4  10  19  33  51  76 109 144 179 221 268 321
#     4  12  21  36  59  78 107 139 180 229 271 316
#
# _framework density 16.681788000000001
#
# number of rings (size 3 to 8) (size 9 to 14) (size 15 to 20)
#    0.000    1.750    2.500    2.625    3.500    0.500 
#    0.000    0.000    0.000    5.250    0.000    0.000 
#    0.000    0.000    0.000    0.000    0.000    0.000 
#
# Total GULP energy -357212.595230 kJ/mol
# GULP energy per Si atom -5581.446800 kJ/mol
# Density = 1.664382 g / cm^3
# Si number density = 16.681788 Si / 1000 Ang^3
#
#
#
# Elastic Constant Matrix: (Units=GPa)
#
#
# Indices 1 2 3 4 5 6 
#
# 1 89.6881 62.5409 39.9463 0.0000 0.0000 0.0000
# 2 62.5409 89.6882 39.9462 0.0000 0.0000 0.0000
# 3 39.9463 39.9462 87.5739 0.0000 0.0000 0.0000
# 4 0.0000 0.0000 0.0000 15.4986 0.0000 0.0000
# 5 0.0000 0.0000 0.0000 0.0000 15.4988 0.0000
# 6 0.0000 0.0000 0.0000 0.0000 0.0000 34.2108
#
#
#
# Elastic Compliance Matrix: (Units=1/GPa)
#
#
# Indices 1 2 3 4 5 6 
#
# 1 0.022736 -0.014100 -0.003940 0.000000 0.000000 0.000000
# 2 -0.014100 0.022736 -0.003939 0.000000 0.000000 0.000000
# 3 -0.003940 -0.003939 0.015013 0.000000 0.000000 0.000000
# 4 0.000000 0.000000 0.000000 0.064522 0.000000 0.000000
# 5 0.000000 0.000000 0.000000 0.000000 0.064521 0.000000
# 6 0.000000 0.000000 0.000000 0.000000 0.000000 0.029231
#
#
# Mechanical properties :
#
#
# Convention : Reuss Voigt Hill
#
# Bulk Modulus (GPa) = 60.50345 61.31300 60.90823
# Shear Modulus (GPa) = 18.64098 21.34276 19.99187
#
# Velocity S-wave (km/s) = 3.34645 3.58076 3.46558
# Velocity P-wave (km/s) = 7.16097 7.34371 7.25291
#
# Compressibility (1/GPa) = 0.01652798
#
# Stress axis : x y z
#
# Youngs Moduli (GPa) = 43.98236 43.98258 66.60942
#
# Poissons Ratio (x) = 0.62014 0.26241
# Poissons Ratio (y) = 0.62014 0.26240
# Poissons Ratio (z) = 0.17327 0.17327
#
# Static dielectric constant tensor:
#      x y z
#    x 1.548840 0.000000 0.000000 
#    y 0.000000 1.548840 0.000000 
#    z 0.000000 0.000000 1.557770 
# 
# From -- ./inp_files/5958.got.cif
#   From: 2010.05.17/outbox.cif.g08.bks.cpg/sg136_3_cif.got.tgz:5958.got - 2010.05.20 12:54:53.
