data_PCOD9569050
_publ_section_title
;
Structure prediction by ZEFSAII (Michael W. Deem and Ramdas Pophale) SiO2 
 PCOD9569050
Probable space group: P 42/M B C
;
_chemical_formula_sum "Si O2"
_cell_formula_units_Z 48
_cell_length_a 8.903123
_cell_length_b 8.903123
_cell_length_c 25.707371
_cell_angle_alpha 90.000000
_cell_angle_beta 90.000000
_cell_angle_gamma 90.000000
_cell_volume 2037.710165
_symmetry_space_group_name_H-M "P 42/M B C"
_symmetry_group_IT_number 135
_symmetry_cell_setting 'tetragonal'
loop_
_space_group_symop_operation_xyz
x,y,z
-y,x,1/2+z
-x,-y,z
y,-x,1/2+z
1/2+x,1/2-y,-z
1/2-x,1/2+y,-z
1/2+y,1/2+x,1/2-z
1/2-y,1/2-x,1/2-z
-x,-y,-z
y,-x,1/2-z
x,y,-z
-y,x,1/2-z
1/2-x,1/2+y,z
1/2+x,1/2-y,z
1/2-y,1/2-x,1/2+z
1/2+y,1/2+x,1/2+z
loop_
_atom_site_type_symbol
_atom_site_label
_atom_site_fract_x
_atom_site_fract_y
_atom_site_fract_z
Si Si1 0.408638 0.364769 0.210970
Si Si2 0.405027 0.139027 0.875284
Si Si3 0.888037 0.860132 0.059084
O O1 0.500000 0.500000 0.181845
O O2 0.303508 0.462254 0.249345
O O3 0.349838 0.245092 0.171628
O O4 0.521956 0.231108 0.910798
O O5 0.262366 0.097337 0.909998
O O6 0.500000 0.000000 0.854398
O O7 0.849553 0.813140 0.000000
O O8 0.000000 0.000000 0.056409
#
# Coordination Sequence:
#
# PCOD9569050 Si02
#       3
#    16  16  16
#     4   6  17  41  76  93 140 185 240 291 349 429
#     4  12  23  42  78 106 143 190 243 307 374 435
#     4  11  26  46  72 105 148 193 243 300 371 453
#
# _framework density 23.55585
#
# number of rings (size 3 to 8) (size 9 to 14) (size 15 to 20)
#    2.000    0.333    0.000    4.000    0.000    5.333 
#    0.000    1.667   14.667    0.000    0.000    0.000 
#    0.000    0.000    0.000    0.000    0.000    0.000 
#
# Total GULP energy -268010.838544 kJ/mol
# GULP energy per Si atom -5583.559136 kJ/mol
# Density = 2.350224 g / cm^3
# Si number density = 23.555850 Si / 1000 Ang^3
#
#
#
# Elastic Constant Matrix: (Units=GPa)
#
#
# Indices 1 2 3 4 5 6 
#
# 1 72.6472 6.6800 20.2676 0.0000 0.0000 0.0000
# 2 6.6800 72.6472 20.2676 0.0000 0.0000 0.0000
# 3 20.2676 20.2676 119.7572 0.0000 0.0000 0.0000
# 4 0.0000 0.0000 0.0000 18.2789 0.0000 0.0000
# 5 0.0000 0.0000 0.0000 0.0000 18.2789 0.0000
# 6 0.0000 0.0000 0.0000 0.0000 0.0000 36.6511
#
#
#
# Elastic Compliance Matrix: (Units=1/GPa)
#
#
# Indices 1 2 3 4 5 6 
#
# 1 0.014479 -0.000680 -0.002335 0.000000 0.000000 0.000000
# 2 -0.000680 0.014479 -0.002335 0.000000 0.000000 0.000000
# 3 -0.002335 -0.002335 0.009141 0.000000 0.000000 0.000000
# 4 0.000000 0.000000 0.000000 0.054708 0.000000 0.000000
# 5 0.000000 0.000000 0.000000 0.000000 0.054708 0.000000
# 6 0.000000 0.000000 0.000000 0.000000 0.000000 0.027284
#
#
# Mechanical properties :
#
#
# Convention : Reuss Voigt Hill
#
# Bulk Modulus (GPa) = 36.49916 39.94242 38.22079
# Shear Modulus (GPa) = 25.68935 29.16420 27.42678
#
# Velocity S-wave (km/s) = 3.30596 3.52246 3.41593
# Velocity P-wave (km/s) = 5.48643 5.79111 5.64083
#
# Compressibility (1/GPa) = 0.02739789
#
# Stress axis : x y z
#
# Youngs Moduli (GPa) = 69.06454 69.06454 109.40074
#
# Poissons Ratio (x) = 0.04695 0.25549
# Poissons Ratio (y) = 0.04695 0.25549
# Poissons Ratio (z) = 0.16129 0.16129
#
# Static dielectric constant tensor:
#      x y z
#    x 1.846200 0.000000 0.000000 
#    y 0.000000 1.846200 0.000000 
#    z 0.000000 0.000000 1.905230 
# 
# From -- ./inp_files/6606.got.cif
#   From: 2010.05.17/outbox.cif.g08.bks.cpg/sg135_4_cif.got.tgz:6606.got - 2010.05.20 12:50:20.
