data_PCOD9569877
_publ_section_title
;
Structure prediction by ZEFSAII (Michael W. Deem and Ramdas Pophale) SiO2 
 PCOD9569877
Probable space group: P 42/M N M
;
_chemical_formula_sum "Si O2"
_cell_formula_units_Z 52
_cell_length_a 14.978035
_cell_length_b 14.978035
_cell_length_c 10.776648
_cell_angle_alpha 90.000000
_cell_angle_beta 90.000000
_cell_angle_gamma 90.000000
_cell_volume 2417.649727
_symmetry_space_group_name_H-M "P 42/M N M"
_symmetry_group_IT_number 136
_symmetry_cell_setting 'tetragonal'
loop_
_space_group_symop_operation_xyz
x,y,z
1/2-y,1/2+x,1/2+z
-x,-y,z
1/2+y,1/2-x,1/2+z
1/2+x,1/2-y,1/2-z
1/2-x,1/2+y,1/2-z
y,x,-z
-y,-x,-z
-x,-y,-z
1/2+y,1/2-x,1/2-z
x,y,-z
1/2-y,1/2+x,1/2-z
1/2-x,1/2+y,1/2+z
1/2+x,1/2-y,1/2+z
-y,-x,z
y,x,z
loop_
_atom_site_type_symbol
_atom_site_label
_atom_site_fract_x
_atom_site_fract_y
_atom_site_fract_z
Si Si1 0.789760 0.789760 0.714251
Si Si2 0.797439 0.530602 0.500000
Si Si3 0.508299 0.230559 0.774209
Si Si4 0.895457 0.479115 0.000000
Si Si5 0.668394 0.668394 0.853662
Si Si6 0.685639 0.685639 0.500000
O O1 0.744937 0.744937 0.836329
O O2 0.733167 0.733167 0.615211
O O3 0.894762 0.772184 0.700177
O O4 0.805330 0.484890 0.366877
O O5 0.872025 0.607395 0.500000
O O6 0.703945 0.581235 0.500000
O O7 0.424261 0.296680 0.793155
O O8 0.490035 0.153425 0.875497
O O9 0.000000 0.500000 0.000000
O O10 0.653732 0.653732 0.000000
#
# Coordination Sequence:
#
# PCOD9569877 Si02
#       6
#     8   8  16   8   8   4
#     4  12  26  47  76 101 146 191 243 301 366 447
#     4  12  26  43  72 102 144 189 234 305 361 442
#     4  12  26  48  72 108 142 195 247 304 374 433
#     4  12  28  41  68 105 148 188 242 297 369 446
#     4  12  26  47  72 108 151 190 250 310 362 445
#     4  12  20  48  68  94 140 192 230 286 364 430
#
# _framework density 21.508492
#
# number of rings (size 3 to 8) (size 9 to 14) (size 15 to 20)
#    0.000    0.000    7.692    0.000   10.769    0.615 
#    0.000    0.769    0.000    2.769    0.000    0.000 
#    0.000    0.000    0.000    0.000    0.000    0.000 
#
# Total GULP energy -290451.200342 kJ/mol
# GULP energy per Si atom -5585.600007 kJ/mol
# Density = 2.145954 g / cm^3
# Si number density = 21.508492 Si / 1000 Ang^3
#
#
#
# Elastic Constant Matrix: (Units=GPa)
#
#
# Indices 1 2 3 4 5 6 
#
# 1 108.3429 46.7644 38.0074 0.0000 0.0000 0.0000
# 2 46.7644 108.3429 38.0074 0.0000 0.0000 0.0000
# 3 38.0074 38.0074 188.6800 0.0000 0.0000 0.0000
# 4 0.0000 0.0000 0.0000 16.6506 0.0000 0.0000
# 5 0.0000 0.0000 0.0000 0.0000 16.6506 0.0000
# 6 0.0000 0.0000 0.0000 0.0000 0.0000 42.8774
#
#
#
# Elastic Compliance Matrix: (Units=1/GPa)
#
#
# Indices 1 2 3 4 5 6 
#
# 1 0.011696 -0.004543 -0.001441 0.000000 0.000000 0.000000
# 2 -0.004543 0.011696 -0.001441 0.000000 0.000000 0.000000
# 3 -0.001441 -0.001441 0.005881 0.000000 0.000000 0.000000
# 4 0.000000 0.000000 0.000000 0.060058 0.000000 0.000000
# 5 0.000000 0.000000 0.000000 0.000000 0.060058 0.000000
# 6 0.000000 0.000000 0.000000 0.000000 0.000000 0.023322
#
#
# Mechanical properties :
#
#
# Convention : Reuss Voigt Hill
#
# Bulk Modulus (GPa) = 69.33206 72.32493 70.82850
# Shear Modulus (GPa) = 25.99173 34.07483 30.03328
#
# Velocity S-wave (km/s) = 3.48003 3.98458 3.74082
# Velocity P-wave (km/s) = 6.96076 7.40732 7.18751
#
# Compressibility (1/GPa) = 0.01442334
#
# Stress axis : x y z
#
# Youngs Moduli (GPa) = 85.49654 85.49654 170.05340
#
# Poissons Ratio (x) = 0.38842 0.24504
# Poissons Ratio (y) = 0.38842 0.24504
# Poissons Ratio (z) = 0.12320 0.12320
#
# Static dielectric constant tensor:
#      x y z
#    x 1.808660 0.000000 0.000000 
#    y 0.000000 1.808660 0.000000 
#    z 0.000000 0.000000 1.913920 
# 
# From -- ./inp_files/3158.got.cif
#   From: 2010.05.17/outbox.cif.g08.bks.cpg/sg136_2_cif.got.tgz:3158.got - 2010.05.20 12:54:53.
