data_PCOD9569730
_publ_section_title
;
Structure prediction by ZEFSAII (Michael W. Deem and Ramdas Pophale) SiO2 
 PCOD9569730
Probable space group: P 42/M N M
;
_chemical_formula_sum "Si O2"
_cell_formula_units_Z 80
_cell_length_a 11.113751
_cell_length_b 11.113751
_cell_length_c 31.748936
_cell_angle_alpha 90.000000
_cell_angle_beta 90.000000
_cell_angle_gamma 90.000000
_cell_volume 3921.484476
_symmetry_space_group_name_H-M "P 42/M N M"
_symmetry_group_IT_number 136
_symmetry_cell_setting 'tetragonal'
loop_
_space_group_symop_operation_xyz
x,y,z
1/2-y,1/2+x,1/2+z
-x,-y,z
1/2+y,1/2-x,1/2+z
1/2+x,1/2-y,1/2-z
1/2-x,1/2+y,1/2-z
y,x,-z
-y,-x,-z
-x,-y,-z
1/2+y,1/2-x,1/2-z
x,y,-z
1/2-y,1/2+x,1/2-z
1/2-x,1/2+y,1/2+z
1/2+x,1/2-y,1/2+z
-y,-x,z
y,x,z
loop_
_atom_site_type_symbol
_atom_site_label
_atom_site_fract_x
_atom_site_fract_y
_atom_site_fract_z
Si Si1 0.980218 0.709011 0.654554
Si Si2 0.398209 0.601792 0.221248
Si Si3 0.181713 0.387889 0.452409
Si Si4 0.321780 0.007528 0.866266
Si Si5 0.098729 0.098729 0.184631
Si Si6 0.308982 0.494428 0.935463
O O1 0.956211 0.786141 0.695966
O O2 0.865145 0.624182 0.647817
O O3 0.998846 0.797335 0.615131
O O4 0.087288 0.611770 0.649456
O O5 0.500000 0.500000 0.221284
O O6 0.361018 0.638983 0.268627
O O7 0.198556 0.431739 0.500000
O O8 0.286905 0.286905 0.443960
O O9 0.184487 0.490513 0.416771
O O10 0.053239 0.316785 0.450166
O O11 0.200566 0.040156 0.843586
O O12 0.000000 0.000000 0.192905
O O13 0.408831 0.591170 0.949343
O O14 0.363841 0.363841 0.947034
#
# Coordination Sequence:
#
# PCOD9569730 Si02
#       6
#    16   8  16  16   8  16
#     4  10  21  39  63  91 123 169 206 249 317 384
#     4  11  24  40  66  96 124 160 209 258 318 388
#     4   9  18  35  61  90 123 166 212 258 312 374
#     4  10  23  41  62  92 125 169 211 257 316 376
#     4  11  26  42  61  91 126 164 210 269 314 368
#     4   9  16  28  53  87 122 160 202 249 312 377
#
# _framework density 20.400438999999999
#
# number of rings (size 3 to 8) (size 9 to 14) (size 15 to 20)
#    0.000    2.200    1.000    1.200    5.600    2.000 
#    0.000   12.500    0.000    1.800    0.000    0.000 
#    0.000    0.000    0.000    0.000    0.000    0.000 
#
# Total GULP energy -445925.256212 kJ/mol
# GULP energy per Si atom -5574.065703 kJ/mol
# Density = 2.035401 g / cm^3
# Si number density = 20.400439 Si / 1000 Ang^3
#
#
#
# Elastic Constant Matrix: (Units=GPa)
#
#
# Indices 1 2 3 4 5 6 
#
# 1 65.1917 37.1096 57.6474 0.0000 0.0000 0.0000
# 2 37.1096 65.1917 57.6474 0.0000 0.0000 0.0000
# 3 57.6474 57.6474 156.4780 0.0000 0.0000 0.0000
# 4 0.0000 0.0000 0.0000 -8.1981 0.0000 0.0000
# 5 0.0000 0.0000 0.0000 0.0000 -8.1981 0.0000
# 6 0.0000 0.0000 0.0000 0.0000 0.0000 26.8801
#
#
#
# Elastic Compliance Matrix: (Units=1/GPa)
#
#
# Indices 1 2 3 4 5 6 
#
# 1 0.026162 -0.009447 -0.006158 0.000000 0.000000 0.000000
# 2 -0.009447 0.026162 -0.006158 0.000000 0.000000 0.000000
# 3 -0.006158 -0.006158 0.010928 0.000000 0.000000 0.000000
# 4 0.000000 0.000000 0.000000 -0.121979 0.000000 0.000000
# 5 0.000000 0.000000 0.000000 0.000000 -0.121979 0.000000
# 6 0.000000 0.000000 0.000000 0.000000 0.000000 0.037202
#
#
# Mechanical properties :
#
#
# Convention : Reuss Voigt Hill
#
# Bulk Modulus (GPa) = 50.69351 65.74116 58.21734
# Shear Modulus (GPa) = -53.53246 11.06057 -21.23595
#
# Velocity S-wave (km/s) = -5.12814 2.33099 -3.22988
# Velocity P-wave (km/s) = 3.18756 6.28808 3.83272
#
# Compressibility (1/GPa) = 0.01972639
#
# Stress axis : x y z
#
# Youngs Moduli (GPa) = 38.22266 38.22266 91.50861
#
# Poissons Ratio (x) = 0.36110 0.56351
# Poissons Ratio (y) = 0.36110 0.56351
# Poissons Ratio (z) = 0.23537 0.23537
#
# Static dielectric constant tensor:
#      x y z
#    x 1.751750 0.000000 0.000000 
#    y 0.000000 1.751750 0.000000 
#    z 0.000000 0.000000 1.760730 
# 
# From -- ./inp_files/9583.got.cif
#   From: 2010.05.17/outbox.cif.g08.bks.cpg/sg136_5_cif.got.tgz:9583.got - 2010.05.20 12:54:53.
