data_PCOD9569871
_publ_section_title
;
Structure prediction by ZEFSAII (Michael W. Deem and Ramdas Pophale) SiO2 
 PCOD9569871
Probable space group: P 42/M N M
;
_chemical_formula_sum "Si O2"
_cell_formula_units_Z 52
_cell_length_a 17.663105
_cell_length_b 17.663105
_cell_length_c 7.496402
_cell_angle_alpha 90.000000
_cell_angle_beta 90.000000
_cell_angle_gamma 90.000000
_cell_volume 2338.767064
_symmetry_space_group_name_H-M "P 42/M N M"
_symmetry_group_IT_number 136
_symmetry_cell_setting 'tetragonal'
loop_
_space_group_symop_operation_xyz
x,y,z
1/2-y,1/2+x,1/2+z
-x,-y,z
1/2+y,1/2-x,1/2+z
1/2+x,1/2-y,1/2-z
1/2-x,1/2+y,1/2-z
y,x,-z
-y,-x,-z
-x,-y,-z
1/2+y,1/2-x,1/2-z
x,y,-z
1/2-y,1/2+x,1/2-z
1/2-x,1/2+y,1/2+z
1/2+x,1/2-y,1/2+z
-y,-x,z
y,x,z
loop_
_atom_site_type_symbol
_atom_site_label
_atom_site_fract_x
_atom_site_fract_y
_atom_site_fract_z
Si Si1 0.799084 0.200917 0.000000
Si Si2 0.795117 0.477102 0.704585
Si Si3 0.878076 0.003861 0.284525
Si Si4 0.317938 0.859267 0.704276
O O1 0.841239 0.251781 0.157378
O O2 0.820113 0.479690 0.500000
O O3 0.704430 0.486761 0.713964
O O4 0.828929 0.550340 0.798582
O O5 0.818634 0.394469 0.770566
O O6 0.873073 0.007982 0.500000
O O7 0.936378 0.936378 0.240881
O O8 0.918531 0.081470 0.221212
O O9 0.301505 0.834529 0.500000
#
# Coordination Sequence:
#
# PCOD9569871 Si02
#       4
#     4  16  16  16
#     4  12  26  48  76 108 138 196 242 300 362 416
#     4  11  25  44  66 100 137 185 237 293 358 427
#     4   9  20  37  60  91 129 176 224 280 353 424
#     4  11  27  46  72 106 145 186 241 300 359 425
#
# _framework density 22.233937999999998
#
# number of rings (size 3 to 8) (size 9 to 14) (size 15 to 20)
#    0.000    1.538    1.538    2.308    8.615    1.846 
#    0.000    4.615    0.000    0.000    0.000    0.000 
#    0.000    0.000    0.000    0.000    0.000    0.000 
#
# Total GULP energy -289754.409304 kJ/mol
# GULP energy per Si atom -5572.200179 kJ/mol
# Density = 2.218333 g / cm^3
# Si number density = 22.233938 Si / 1000 Ang^3
#
#
#
# Elastic Constant Matrix: (Units=GPa)
#
#
# Indices 1 2 3 4 5 6 
#
# 1 62.5383 48.0703 2.7890 0.0000 0.0000 0.0000
# 2 48.0703 62.5398 2.7898 0.0000 0.0000 0.0000
# 3 2.7890 2.7898 106.1533 0.0000 0.0000 0.0000
# 4 0.0000 0.0000 0.0000 42.0097 0.0000 0.0000
# 5 0.0000 0.0000 0.0000 0.0000 42.0076 0.0000
# 6 0.0000 0.0000 0.0000 0.0000 0.0000 29.5828
#
#
#
# Elastic Compliance Matrix: (Units=1/GPa)
#
#
# Indices 1 2 3 4 5 6 
#
# 1 0.039084 -0.030031 -0.000238 0.000000 0.000000 0.000000
# 2 -0.030031 0.039083 -0.000238 0.000000 0.000000 0.000000
# 3 -0.000238 -0.000238 0.009433 0.000000 0.000000 0.000000
# 4 0.000000 0.000000 0.000000 0.023804 0.000000 0.000000
# 5 0.000000 0.000000 0.000000 0.000000 0.023805 0.000000
# 6 0.000000 0.000000 0.000000 0.000000 0.000000 0.033803
#
#
# Mechanical properties :
#
#
# Convention : Reuss Voigt Hill
#
# Bulk Modulus (GPa) = 37.61242 37.61440 37.61341
# Shear Modulus (GPa) = 20.93029 34.55883 27.74456
#
# Velocity S-wave (km/s) = 3.07150 3.94677 3.53632
# Velocity P-wave (km/s) = 5.43435 6.14196 5.79896
#
# Compressibility (1/GPa) = 0.02658696
#
# Stress axis : x y z
#
# Youngs Moduli (GPa) = 25.58586 25.58645 106.01262
#
# Poissons Ratio (x) = 0.76838 0.02519
# Poissons Ratio (y) = 0.76836 0.02525
# Poissons Ratio (z) = 0.00608 0.00609
#
# Static dielectric constant tensor:
#      x y z
#    x 1.816670 0.000000 0.000000 
#    y 0.000000 1.816670 0.000000 
#    z 0.000000 0.000000 1.838880 
# 
# From -- ./inp_files/1000.got.cif
#   From: 2010.05.17/outbox.cif.g08.bks.cpg/sg136_1_cif.got.tgz:1000.got - 2010.05.20 12:54:53.
