data_PCOD9569767
_publ_section_title
;
Structure prediction by ZEFSAII (Michael W. Deem and Ramdas Pophale) SiO2 
 PCOD9569767
Probable space group: P 42/M N M
;
_chemical_formula_sum "Si O2"
_cell_formula_units_Z 88
_cell_length_a 11.715672
_cell_length_b 11.715672
_cell_length_c 27.838985
_cell_angle_alpha 90.000000
_cell_angle_beta 90.000000
_cell_angle_gamma 90.000000
_cell_volume 3821.094740
_symmetry_space_group_name_H-M "P 42/M N M"
_symmetry_group_IT_number 136
_symmetry_cell_setting 'tetragonal'
loop_
_space_group_symop_operation_xyz
x,y,z
1/2-y,1/2+x,1/2+z
-x,-y,z
1/2+y,1/2-x,1/2+z
1/2+x,1/2-y,1/2-z
1/2-x,1/2+y,1/2-z
y,x,-z
-y,-x,-z
-x,-y,-z
1/2+y,1/2-x,1/2-z
x,y,-z
1/2-y,1/2+x,1/2-z
1/2-x,1/2+y,1/2+z
1/2+x,1/2-y,1/2+z
-y,-x,z
y,x,z
loop_
_atom_site_type_symbol
_atom_site_label
_atom_site_fract_x
_atom_site_fract_y
_atom_site_fract_z
Si Si1 0.206238 0.387166 0.809411
Si Si2 0.848657 0.668671 0.300626
Si Si3 0.825989 0.501632 0.943717
Si Si4 0.713199 0.464251 0.649182
Si Si5 0.978720 0.304097 0.944764
Si Si6 0.404513 0.404513 0.056771
O O1 0.335176 0.335176 0.810412
O O2 0.178233 0.520038 0.816459
O O3 0.157250 0.355390 0.756492
O O4 0.131419 0.311317 0.845318
O O5 0.788803 0.788803 0.310084
O O6 0.766783 0.571558 0.323235
O O7 0.874863 0.382338 0.925140
O O8 0.710886 0.547719 0.920965
O O9 0.918865 0.602432 0.944610
O O10 0.803236 0.474825 0.000000
O O11 0.597232 0.402769 0.666514
O O12 0.706728 0.495670 0.593156
O O13 0.961792 0.268634 0.000000
O O14 0.500000 0.500000 0.057928
O O15 0.378720 0.378720 0.000000
#
# Coordination Sequence:
#
# PCOD9569767 Si02
#       6
#    16  16  16  16  16   8
#     4  10  22  40  65  99 133 169 215 264 325 399
#     4  11  23  41  67  96 132 173 212 265 331 398
#     4   8  16  30  48  76 110 150 205 257 311 372
#     4  11  24  39  63  98 129 169 221 275 334 395
#     4   9  19  36  59  84 118 165 219 278 325 374
#     4   9  16  28  50  78 112 148 187 249 323 393
#
# _framework density 23.030049999999999
#
# number of rings (size 3 to 8) (size 9 to 14) (size 15 to 20)
#    0.000    2.273    1.818    1.636    6.364    1.091 
#    0.000    2.727    0.000    1.636    0.000    1.273 
#    0.000    0.000    0.000    0.000    0.000    0.000 
#
# Total GULP energy -491327.946988 kJ/mol
# GULP energy per Si atom -5583.272125 kJ/mol
# Density = 2.297763 g / cm^3
# Si number density = 23.030050 Si / 1000 Ang^3
#
#
#
# Elastic Constant Matrix: (Units=GPa)
#
#
# Indices 1 2 3 4 5 6 
#
# 1 77.0235 81.3917 15.0875 0.0000 0.0000 0.0000
# 2 81.3917 77.0235 15.0875 0.0000 0.0000 0.0000
# 3 15.0875 15.0875 92.5024 0.0000 0.0000 0.0000
# 4 0.0000 0.0000 0.0000 -1.7251 0.0000 0.0000
# 5 0.0000 0.0000 0.0000 0.0000 -1.7251 0.0000
# 6 0.0000 0.0000 0.0000 0.0000 0.0000 28.8434
#
#
#
# Elastic Compliance Matrix: (Units=1/GPa)
#
#
# Indices 1 2 3 4 5 6 
#
# 1 -0.111206 0.117721 -0.001063 0.000000 0.000000 0.000000
# 2 0.117721 -0.111206 -0.001063 0.000000 0.000000 0.000000
# 3 -0.001063 -0.001063 0.011157 0.000000 0.000000 0.000000
# 4 0.000000 0.000000 0.000000 -0.579676 0.000000 0.000000
# 5 0.000000 0.000000 0.000000 0.000000 -0.579676 0.000000
# 6 0.000000 0.000000 0.000000 0.000000 0.000000 0.034670
#
#
# Mechanical properties :
#
#
# Convention : Reuss Voigt Hill
#
# Bulk Modulus (GPa) = 50.15906 52.18699 51.17303
# Shear Modulus (GPa) = -3.20414 14.07749 5.43668
#
# Velocity S-wave (km/s) = -1.18081 2.47506 1.53812
# Velocity P-wave (km/s) = 4.46856 5.55675 5.04210
#
# Compressibility (1/GPa) = 0.01993658
#
# Stress axis : x y z
#
# Youngs Moduli (GPa) = -8.99232 -8.99232 89.62853
#
# Poissons Ratio (x) = 1.05858 0.09524
# Poissons Ratio (y) = 1.05858 0.09524
# Poissons Ratio (z) = -0.00956 -0.00956
#
# Static dielectric constant tensor:
#      x y z
#    x 1.864700 0.000000 0.000000 
#    y 0.000000 1.864700 0.000000 
#    z 0.000000 0.000000 1.893990 
# 
# From -- ./inp_files/9686.got.cif
#   From: 2010.05.17/outbox.cif.g08.bks.cpg/sg136_5_cif.got.tgz:9686.got - 2010.05.20 12:54:53.
