data_PCOD9569964
_publ_section_title
;
Structure prediction by ZEFSAII (Michael W. Deem and Ramdas Pophale) SiO2 
 PCOD9569964
Probable space group: P 42/N M C
;
_chemical_formula_sum "Si O2"
_cell_formula_units_Z 84
_cell_length_a 19.567864
_cell_length_b 19.567864
_cell_length_c 13.270628
_cell_angle_alpha 90.000000
_cell_angle_beta 90.000000
_cell_angle_gamma 90.000000
_cell_volume 5081.340733
_symmetry_space_group_name_H-M "P 42/N M C"
_symmetry_group_IT_number 137
_space_group.IT_coordinate_system_code '2'
_symmetry_cell_setting 'tetragonal'
loop_
_space_group_symop_operation_xyz
x,y,z
1/2-y,x,1/2+z
1/2-x,1/2-y,z
y,1/2-x,1/2+z
1/2+x,-y,-z
-x,1/2+y,-z
1/2+y,1/2+x,1/2-z
-y,-x,1/2-z
-x,-y,-z
1/2+y,-x,1/2-z
1/2+x,1/2+y,-z
-y,1/2+x,1/2-z
1/2-x,y,z
x,1/2-y,z
1/2-y,1/2-x,1/2+z
y,x,1/2+z
loop_
_atom_site_type_symbol
_atom_site_label
_atom_site_fract_x
_atom_site_fract_y
_atom_site_fract_z
Si Si1 0.112218 0.750000 0.320496
Si Si2 0.881332 0.871894 0.488404
Si Si3 0.750000 0.397951 0.583256
Si Si4 0.750000 0.250000 0.943876
Si Si5 0.667512 0.750000 0.625925
Si Si6 0.250000 0.167347 0.636158
Si Si7 0.010399 0.626611 0.348362
Si Si8 0.010436 0.883629 0.112755
O O1 0.124601 0.750000 0.201080
O O2 0.181415 0.750000 0.380088
O O3 0.068365 0.684257 0.349629
O O4 0.865926 0.815662 0.573544
O O5 0.816304 0.865429 0.414981
O O6 0.888359 0.945139 0.541435
O O7 0.948108 0.857291 0.421714
O O8 0.750000 0.329147 0.514565
O O9 0.818326 0.444264 0.576841
O O10 0.750000 0.750000 0.609703
O O11 0.656136 0.750000 0.744813
O O12 0.250000 0.250000 0.619791
O O13 0.048774 0.557507 0.382591
O O14 0.988733 0.625602 0.230393
#
# Coordination Sequence:
#
# PCOD9569964 Si02
#       8
#     8  16   8   4   8   8  16  16
#     4  10  18  29  48  75 104 134 168 208 259 314
#     4  12  20  38  54  76 102 148 176 224 262 322
#     4  10  18  29  48  75 104 134 168 208 259 314
#     4  12  17  28  52  72 104 136 165 206 257 312
#     4  11  23  38  55  79 104 134 180 225 270 318
#     4  11  23  38  55  79 104 134 180 225 270 318
#     4  10  21  34  51  78 109 142 178 219 269 321
#     4  10  21  34  51  78 109 142 178 219 269 321
#
# _framework density 16.531071000000001
#
# number of rings (size 3 to 8) (size 9 to 14) (size 15 to 20)
#    0.000    1.333    3.810    3.714    0.000    0.000 
#    0.000    0.000    0.000    0.000    0.000    0.000 
#    0.000    0.000    0.000   13.333    0.000    1.143 
#
# Total GULP energy -468595.530205 kJ/mol
# GULP energy per Si atom -5578.518217 kJ/mol
# Density = 1.649345 g / cm^3
# Si number density = 16.531071 Si / 1000 Ang^3
#
#
#
# Elastic Constant Matrix: (Units=GPa)
#
#
# Indices 1 2 3 4 5 6 
#
# 1 92.5116 19.6888 42.0000 0.0000 0.0000 0.0000
# 2 19.6888 92.5116 42.0000 0.0000 0.0000 0.0000
# 3 42.0000 42.0000 90.4692 0.0000 0.0000 0.0000
# 4 0.0000 0.0000 0.0000 12.4608 0.0000 0.0000
# 5 0.0000 0.0000 0.0000 0.0000 12.4608 0.0000
# 6 0.0000 0.0000 0.0000 0.0000 0.0000 19.5238
#
#
#
# Elastic Compliance Matrix: (Units=1/GPa)
#
#
# Indices 1 2 3 4 5 6 
#
# 1 0.013696 -0.000036 -0.006342 0.000000 0.000000 0.000000
# 2 -0.000036 0.013696 -0.006342 0.000000 0.000000 0.000000
# 3 -0.006342 -0.006342 0.016942 0.000000 0.000000 0.000000
# 4 0.000000 0.000000 0.000000 0.080252 0.000000 0.000000
# 5 0.000000 0.000000 0.000000 0.000000 0.080252 0.000000
# 6 0.000000 0.000000 0.000000 0.000000 0.000000 0.051220
#
#
# Mechanical properties :
#
#
# Convention : Reuss Voigt Hill
#
# Bulk Modulus (GPa) = 52.92266 53.65221 53.28744
# Shear Modulus (GPa) = 17.37347 20.34264 18.85806
#
# Velocity S-wave (km/s) = 3.24537 3.51175 3.38118
# Velocity P-wave (km/s) = 6.79167 6.99779 6.89550
#
# Compressibility (1/GPa) = 0.01889550
#
# Stress axis : x y z
#
# Youngs Moduli (GPa) = 73.01280 73.01280 59.02556
#
# Poissons Ratio (x) = 0.00261 0.37433
# Poissons Ratio (y) = 0.00261 0.37433
# Poissons Ratio (z) = 0.46303 0.46303
#
# Static dielectric constant tensor:
#      x y z
#    x 1.566720 0.000000 0.000000 
#    y 0.000000 1.566720 0.000000 
#    z 0.000000 0.000000 1.526780 
# 
# From -- ./inp_files/3716.got.cif
#   From: 2010.05.17/outbox.cif.g08.bks.cpg/sg137_2_cif.got.tgz:3716.got - 2010.05.20 13:01:12.
