data_PCOD9569494
_publ_section_title
;
Structure prediction by ZEFSAII (Michael W. Deem and Ramdas Pophale) SiO2 
 PCOD9569494
Probable space group: P 42/M N M
;
_chemical_formula_sum "Si O2"
_cell_formula_units_Z 56
_cell_length_a 16.052958
_cell_length_b 16.052958
_cell_length_c 10.866257
_cell_angle_alpha 90.000000
_cell_angle_beta 90.000000
_cell_angle_gamma 90.000000
_cell_volume 2800.206835
_symmetry_space_group_name_H-M "P 42/M N M"
_symmetry_group_IT_number 136
_symmetry_cell_setting 'tetragonal'
loop_
_space_group_symop_operation_xyz
x,y,z
1/2-y,1/2+x,1/2+z
-x,-y,z
1/2+y,1/2-x,1/2+z
1/2+x,1/2-y,1/2-z
1/2-x,1/2+y,1/2-z
y,x,-z
-y,-x,-z
-x,-y,-z
1/2+y,1/2-x,1/2-z
x,y,-z
1/2-y,1/2+x,1/2-z
1/2-x,1/2+y,1/2+z
1/2+x,1/2-y,1/2+z
-y,-x,z
y,x,z
loop_
_atom_site_type_symbol
_atom_site_label
_atom_site_fract_x
_atom_site_fract_y
_atom_site_fract_z
Si Si1 0.459373 0.678059 0.729606
Si Si2 0.253860 0.883309 0.132790
Si Si3 0.186318 0.673084 0.638222
Si Si4 0.638084 0.503671 0.000000
O O1 0.407644 0.592357 0.714639
O O2 0.543286 0.687587 0.653029
O O3 0.399235 0.751401 0.683129
O O4 0.485123 0.685210 0.873264
O O5 0.203114 0.796887 0.128851
O O6 0.311618 0.879201 0.252817
O O7 0.295977 0.894168 0.000000
O O8 0.154288 0.657149 0.500000
O O9 0.244160 0.755841 0.630113
O O10 0.594906 0.594906 0.000000
O O11 0.562717 0.437284 0.000000
#
# Coordination Sequence:
#
# PCOD9569494 Si02
#       4
#    16  16  16   8
#     4  10  20  34  55  79 109 148 186 224 275 339
#     4  10  21  34  52  80 112 141 176 229 282 330
#     4   9  19  35  54  75 104 145 190 229 270 330
#     4   9  18  30  48  80 116 145 175 219 274 335
#
# _framework density 19.998524
#
# number of rings (size 3 to 8) (size 9 to 14) (size 15 to 20)
#    0.000    2.429    0.000    1.714    4.000    3.429 
#    0.000    1.429    0.000    0.857    0.000    4.000 
#    0.000    0.000    0.000    0.000    0.000    0.000 
#
# Total GULP energy -312082.119701 kJ/mol
# GULP energy per Si atom -5572.894995 kJ/mol
# Density = 1.995301 g / cm^3
# Si number density = 19.998524 Si / 1000 Ang^3
#
#
#
# Elastic Constant Matrix: (Units=GPa)
#
#
# Indices 1 2 3 4 5 6 
#
# 1 15.4066 14.9111 40.4892 0.0000 0.0000 0.0000
# 2 14.9111 15.4066 40.4891 0.0000 0.0000 0.0000
# 3 40.4892 40.4891 225.1078 0.0000 0.0000 0.0000
# 4 0.0000 0.0000 0.0000 15.0414 0.0000 0.0000
# 5 0.0000 0.0000 0.0000 0.0000 15.0418 0.0000
# 6 0.0000 0.0000 0.0000 0.0000 0.0000 16.1232
#
#
#
# Elastic Compliance Matrix: (Units=1/GPa)
#
#
# Indices 1 2 3 4 5 6 
#
# 1 1.040815 -0.977328 -0.011419 0.000000 0.000000 0.000000
# 2 -0.977328 1.040806 -0.011417 0.000000 0.000000 0.000000
# 3 -0.011419 -0.011417 0.008550 0.000000 0.000000 0.000000
# 4 0.000000 0.000000 0.000000 0.066483 0.000000 0.000000
# 5 0.000000 0.000000 0.000000 0.000000 0.066482 0.000000
# 6 0.000000 0.000000 0.000000 0.000000 0.000000 0.062022
#
#
# Mechanical properties :
#
#
# Convention : Reuss Voigt Hill
#
# Bulk Modulus (GPa) = 11.13078 49.74443 30.43760
# Shear Modulus (GPa) = 1.15863 19.91004 10.53434
#
# Velocity S-wave (km/s) = 0.76198 3.15870 2.29761
# Velocity P-wave (km/s) = 2.52032 6.18314 4.72140
#
# Compressibility (1/GPa) = 0.08984100
#
# Stress axis : x y z
#
# Youngs Moduli (GPa) = 0.96079 0.96079 116.96149
#
# Poissons Ratio (x) = 0.93901 1.33562
# Poissons Ratio (y) = 0.93900 1.33537
# Poissons Ratio (z) = 0.01097 0.01097
#
# Static dielectric constant tensor:
#      x y z
#    x 1.701820 0.000000 0.000000 
#    y 0.000000 1.701820 0.000000 
#    z 0.000000 0.000000 1.775100 
# 
# From -- ./inp_files/1134.got.cif
#   From: 2010.05.17/outbox.cif.g08.bks.cpg/sg136_1_cif.got.tgz:1134.got - 2010.05.20 12:54:53.
