data_PCOD9569340
_publ_section_title
;
Structure prediction by ZEFSAII (Michael W. Deem and Ramdas Pophale) SiO2 
 PCOD9569340
Probable space group: P 42/M N M
;
_chemical_formula_sum "Si O2"
_cell_formula_units_Z 56
_cell_length_a 16.840752
_cell_length_b 16.840752
_cell_length_c 8.387884
_cell_angle_alpha 90.000000
_cell_angle_beta 90.000000
_cell_angle_gamma 90.000000
_cell_volume 2378.895565
_symmetry_space_group_name_H-M "P 42/M N M"
_symmetry_group_IT_number 136
_symmetry_cell_setting 'tetragonal'
loop_
_space_group_symop_operation_xyz
x,y,z
1/2-y,1/2+x,1/2+z
-x,-y,z
1/2+y,1/2-x,1/2+z
1/2+x,1/2-y,1/2-z
1/2-x,1/2+y,1/2-z
y,x,-z
-y,-x,-z
-x,-y,-z
1/2+y,1/2-x,1/2-z
x,y,-z
1/2-y,1/2+x,1/2-z
1/2-x,1/2+y,1/2+z
1/2+x,1/2-y,1/2+z
-y,-x,z
y,x,z
loop_
_atom_site_type_symbol
_atom_site_label
_atom_site_fract_x
_atom_site_fract_y
_atom_site_fract_z
Si Si1 0.693339 0.179967 0.695326
Si Si2 0.568646 0.431355 0.680057
Si Si3 0.312489 0.449015 0.819983
Si Si4 0.461859 0.888092 0.683859
O O1 0.696427 0.176525 0.500000
O O2 0.743162 0.256839 0.744738
O O3 0.741105 0.101744 0.758051
O O4 0.600778 0.178268 0.736597
O O5 0.500000 0.500000 0.685700
O O6 0.587945 0.412056 0.500000
O O7 0.646218 0.473141 0.750802
O O8 0.382925 0.382925 0.824201
O O9 0.288766 0.467115 0.000000
O O10 0.487098 0.877242 0.500000
O O11 0.532243 0.907917 0.803520
#
# Coordination Sequence:
#
# PCOD9569340 Si02
#       4
#    16   8  16  16
#     4   8  15  29  51  76  98 127 170 214 254 301
#     4   9  15  21  31  53  87 121 153 193 241 289
#     4   8  13  23  40  60  81 113 160 202 234 278
#     4  10  19  33  55  80 106 135 171 215 258 307
#
# _framework density 23.540334999999999
#
# number of rings (size 3 to 8) (size 9 to 14) (size 15 to 20)
#    0.000    3.286    0.000    3.857    0.000    1.714 
#    0.000    2.857    3.143    6.857    0.000    0.000 
#    0.000    0.000    0.000    0.000    0.000    0.000 
#
# Total GULP energy -312128.941295 kJ/mol
# GULP energy per Si atom -5573.731095 kJ/mol
# Density = 2.348676 g / cm^3
# Si number density = 23.540335 Si / 1000 Ang^3
#
#
#
# Elastic Constant Matrix: (Units=GPa)
#
#
# Indices 1 2 3 4 5 6 
#
# 1 42.4739 14.1402 1.6745 0.0000 0.0000 0.0000
# 2 14.1402 42.4745 1.6744 0.0000 0.0000 0.0000
# 3 1.6745 1.6744 37.9167 0.0000 0.0000 0.0000
# 4 0.0000 0.0000 0.0000 10.2332 0.0000 0.0000
# 5 0.0000 0.0000 0.0000 0.0000 10.2332 0.0000
# 6 0.0000 0.0000 0.0000 0.0000 0.0000 4.0772
#
#
#
# Elastic Compliance Matrix: (Units=1/GPa)
#
#
# Indices 1 2 3 4 5 6 
#
# 1 0.026502 -0.008792 -0.000782 0.000000 0.000000 0.000000
# 2 -0.008792 0.026501 -0.000782 0.000000 0.000000 0.000000
# 3 -0.000782 -0.000782 0.026443 0.000000 0.000000 0.000000
# 4 0.000000 0.000000 0.000000 0.097721 0.000000 0.000000
# 5 0.000000 0.000000 0.000000 0.000000 0.097721 0.000000
# 6 0.000000 0.000000 0.000000 0.000000 0.000000 0.245268
#
#
# Mechanical properties :
#
#
# Convention : Reuss Voigt Hill
#
# Bulk Modulus (GPa) = 17.02604 17.53816 17.28210
# Shear Modulus (GPa) = 8.92147 11.93378 10.42762
#
# Velocity S-wave (km/s) = 1.94887 2.25400 2.10696
# Velocity P-wave (km/s) = 3.50892 3.77365 3.64369
#
# Compressibility (1/GPa) = 0.05873356
#
# Stress axis : x y z
#
# Youngs Moduli (GPa) = 37.73345 37.73407 37.81761
#
# Poissons Ratio (x) = 0.33175 0.02958
# Poissons Ratio (y) = 0.33175 0.02957
# Poissons Ratio (z) = 0.02951 0.02951
#
# Static dielectric constant tensor:
#      x y z
#    x 1.997780 0.000000 0.000000 
#    y 0.000000 1.997780 0.000000 
#    z 0.000000 0.000000 1.790470 
# 
# From -- ./inp_files/1117.got.cif
#   From: 2010.05.17/outbox.cif.g08.bks.cpg/sg136_1_cif.got.tgz:1117.got - 2010.05.20 12:54:53.
