data_PCOD9569661
_publ_section_title
;
Structure prediction by ZEFSAII (Michael W. Deem and Ramdas Pophale) SiO2 
 PCOD9569661
Probable space group: P 42/M N M
;
_chemical_formula_sum "Si O2"
_cell_formula_units_Z 96
_cell_length_a 24.766836
_cell_length_b 24.766836
_cell_length_c 8.489211
_cell_angle_alpha 90.000000
_cell_angle_beta 90.000000
_cell_angle_gamma 90.000000
_cell_volume 5207.249475
_symmetry_space_group_name_H-M "P 42/M N M"
_symmetry_group_IT_number 136
_symmetry_cell_setting 'tetragonal'
loop_
_space_group_symop_operation_xyz
x,y,z
1/2-y,1/2+x,1/2+z
-x,-y,z
1/2+y,1/2-x,1/2+z
1/2+x,1/2-y,1/2-z
1/2-x,1/2+y,1/2-z
y,x,-z
-y,-x,-z
-x,-y,-z
1/2+y,1/2-x,1/2-z
x,y,-z
1/2-y,1/2+x,1/2-z
1/2-x,1/2+y,1/2+z
1/2+x,1/2-y,1/2+z
-y,-x,z
y,x,z
loop_
_atom_site_type_symbol
_atom_site_label
_atom_site_fract_x
_atom_site_fract_y
_atom_site_fract_z
Si Si1 0.442258 0.062473 0.687329
Si Si2 0.853133 0.939015 0.690152
Si Si3 0.062321 0.851239 0.311413
Si Si4 0.854787 0.352565 0.312211
Si Si5 0.733588 0.647144 0.686956
Si Si6 0.146280 0.232160 0.189789
O O1 0.502059 0.073598 0.756576
O O2 0.446624 0.062182 0.500000
O O3 0.398439 0.106865 0.739161
O O4 0.849449 0.937962 0.500000
O O5 0.908125 0.908125 0.734771
O O6 0.804738 0.903538 0.758741
O O7 0.851312 0.000713 0.741249
O O8 0.064412 0.840367 0.500000
O O9 0.091479 0.908522 0.286131
O O10 0.098332 0.806943 0.224557
O O11 0.856388 0.360218 0.500000
O O12 0.864099 0.289872 0.271684
O O13 0.793229 0.361384 0.253641
O O14 0.742495 0.651440 0.500000
O O15 0.701485 0.701485 0.740401
O O16 0.200422 0.200422 0.245408
O O17 0.149017 0.233994 0.000000
#
# Coordination Sequence:
#
# PCOD9569661 Si02
#       6
#    16  16  16  16  16  16
#     4  11  23  42  64  86 114 146 181 223 273 325
#     4   9  18  32  51  76 105 138 178 224 270 315
#     4   9  18  33  52  74 104 143 183 223 269 321
#     4  11  22  37  59  85 110 142 184 224 268 328
#     4  10  21  36  54  79 111 144 180 227 280 329
#     4   9  19  35  54  77 107 142 177 217 267 321
#
# _framework density 18.435836999999999
#
# number of rings (size 3 to 8) (size 9 to 14) (size 15 to 20)
#    0.000    2.167    0.000    3.500    0.000    5.333 
#    0.000    6.667    0.000    0.000    0.000    4.667 
#    0.000    0.000    0.000    0.000    0.000    0.000 
#
# Total GULP energy -535766.223638 kJ/mol
# GULP energy per Si atom -5580.898163 kJ/mol
# Density = 1.839388 g / cm^3
# Si number density = 18.435837 Si / 1000 Ang^3
#
#
#
# Elastic Constant Matrix: (Units=GPa)
#
#
# Indices 1 2 3 4 5 6 
#
# 1 131.7239 52.3836 12.3933 0.0000 0.0000 0.0000
# 2 52.3836 131.7239 12.3933 0.0000 0.0000 0.0000
# 3 12.3933 12.3933 31.2363 0.0000 0.0000 0.0000
# 4 0.0000 0.0000 0.0000 23.2014 0.0000 0.0000
# 5 0.0000 0.0000 0.0000 0.0000 23.2014 0.0000
# 6 0.0000 0.0000 0.0000 0.0000 0.0000 22.9213
#
#
#
# Elastic Compliance Matrix: (Units=1/GPa)
#
#
# Indices 1 2 3 4 5 6 
#
# 1 0.009171 -0.003433 -0.002277 0.000000 0.000000 0.000000
# 2 -0.003433 0.009171 -0.002277 0.000000 0.000000 0.000000
# 3 -0.002277 -0.002277 0.033821 0.000000 0.000000 0.000000
# 4 0.000000 0.000000 0.000000 0.043101 0.000000 0.000000
# 5 0.000000 0.000000 0.000000 0.000000 0.043101 0.000000
# 6 0.000000 0.000000 0.000000 0.000000 0.000000 0.043628
#
#
# Mechanical properties :
#
#
# Convention : Reuss Voigt Hill
#
# Bulk Modulus (GPa) = 27.63176 49.89161 38.76168
# Shear Modulus (GPa) = 23.80639 28.36575 26.08607
#
# Velocity S-wave (km/s) = 3.59738 3.92678 3.76568
# Velocity P-wave (km/s) = 5.68115 6.90511 6.32281
#
# Compressibility (1/GPa) = 0.03619024
#
# Stress axis : x y z
#
# Youngs Moduli (GPa) = 109.03901 109.03901 29.56775
#
# Poissons Ratio (x) = 0.37432 0.06732
# Poissons Ratio (y) = 0.37432 0.06732
# Poissons Ratio (z) = 0.24824 0.24824
#
# Static dielectric constant tensor:
#      x y z
#    x 1.620360 0.000000 0.000000 
#    y 0.000000 1.620360 0.000000 
#    z 0.000000 0.000000 1.636860 
# 
# From -- ./inp_files/1917.got.cif
#   From: 2010.05.17/outbox.cif.g08.bks.cpg/sg136_1_cif.got.tgz:1917.got - 2010.05.20 12:54:53.
