data_PCOD9569007
_publ_section_title
;
Structure prediction by ZEFSAII (Michael W. Deem and Ramdas Pophale) SiO2 
 PCOD9569007
Probable space group: P 42/M B C
;
_chemical_formula_sum "Si O2"
_cell_formula_units_Z 64
_cell_length_a 12.898465
_cell_length_b 12.898465
_cell_length_c 14.822269
_cell_angle_alpha 90.000000
_cell_angle_beta 90.000000
_cell_angle_gamma 90.000000
_cell_volume 2465.986813
_symmetry_space_group_name_H-M "P 42/M B C"
_symmetry_group_IT_number 135
_symmetry_cell_setting 'tetragonal'
loop_
_space_group_symop_operation_xyz
x,y,z
-y,x,1/2+z
-x,-y,z
y,-x,1/2+z
1/2+x,1/2-y,-z
1/2-x,1/2+y,-z
1/2+y,1/2+x,1/2-z
1/2-y,1/2-x,1/2-z
-x,-y,-z
y,-x,1/2-z
x,y,-z
-y,x,1/2-z
1/2-x,1/2+y,z
1/2+x,1/2-y,z
1/2-y,1/2-x,1/2+z
1/2+y,1/2+x,1/2+z
loop_
_atom_site_type_symbol
_atom_site_label
_atom_site_fract_x
_atom_site_fract_y
_atom_site_fract_z
Si Si1 0.885120 0.134295 0.601509
Si Si2 0.660709 0.088893 0.392000
Si Si3 0.671901 0.861578 0.354584
Si Si4 0.809946 0.094678 0.108751
O O1 0.888226 0.089013 0.500000
O O2 0.778584 0.096947 0.645640
O O3 0.870854 0.259661 0.596297
O O4 0.997356 0.126277 0.645799
O O5 0.668578 0.104609 0.500000
O O6 0.600045 0.190109 0.357611
O O7 0.623385 0.972300 0.378455
O O8 0.656609 0.843392 0.250000
O O9 0.794566 0.860895 0.374432
O O10 0.807418 0.080556 0.000000
#
# Coordination Sequence:
#
# PCOD9569007 Si02
#       4
#    16  16  16  16
#     4   9  19  36  57  81 108 143 192 242 281 326
#     4   9  18  35  58  82 111 147 189 235 283 336
#     4  11  22  34  52  80 116 153 184 229 286 345
#     4   9  19  37  60  83 109 145 193 244 285 329
#
# _framework density 25.953098000000001
#
# number of rings (size 3 to 8) (size 9 to 14) (size 15 to 20)
#    0.000    2.500    0.000    3.750    0.000    6.000 
#    0.000    8.750    0.000    6.000    0.000    0.000 
#    0.000    0.000    0.000    0.000    0.000    0.000 
#
# Total GULP energy -357929.931117 kJ/mol
# GULP energy per Si atom -5592.655174 kJ/mol
# Density = 2.589403 g / cm^3
# Si number density = 25.953098 Si / 1000 Ang^3
#
#
#
# Elastic Constant Matrix: (Units=GPa)
#
#
# Indices 1 2 3 4 5 6 
#
# 1 109.8437 -11.8250 -3.9394 0.0000 0.0000 0.0000
# 2 -11.8250 109.8432 -3.9396 0.0000 0.0000 0.0000
# 3 -3.9394 -3.9396 54.4421 0.0000 0.0000 0.0000
# 4 0.0000 0.0000 0.0000 1.7418 0.0000 0.0000
# 5 0.0000 0.0000 0.0000 0.0000 1.7443 0.0000
# 6 0.0000 0.0000 0.0000 0.0000 0.0000 -2.7450
#
#
#
# Elastic Compliance Matrix: (Units=1/GPa)
#
#
# Indices 1 2 3 4 5 6 
#
# 1 0.009240 0.001021 0.000743 0.000000 0.000000 0.000000
# 2 0.001021 0.009240 0.000743 0.000000 0.000000 0.000000
# 3 0.000743 0.000743 0.018476 0.000000 0.000000 0.000000
# 4 0.000000 0.000000 0.000000 0.574119 0.000000 0.000000
# 5 0.000000 0.000000 0.000000 0.000000 0.573303 0.000000
# 6 0.000000 0.000000 0.000000 0.000000 0.000000 -0.364296
#
#
# Mechanical properties :
#
#
# Convention : Reuss Voigt Hill
#
# Bulk Modulus (GPa) = 23.82680 26.08012 24.95346
# Shear Modulus (GPa) = 6.03093 19.73707 12.88400
#
# Velocity S-wave (km/s) = 1.52605 2.76069 2.23050
# Velocity P-wave (km/s) = 3.50795 4.49807 4.03351
#
# Compressibility (1/GPa) = 0.04196954
#
# Stress axis : x y z
#
# Youngs Moduli (GPa) = 108.22001 108.21957 54.12541
#
# Poissons Ratio (x) = -0.11053 -0.04019
# Poissons Ratio (y) = -0.11054 -0.04019
# Poissons Ratio (z) = -0.08036 -0.08036
#
# Static dielectric constant tensor:
#      x y z
#    x 2.062710 0.000000 0.000000 
#    y 0.000000 2.062710 0.000000 
#    z 0.000000 0.000000 2.018200 
# 
# From -- ./inp_files/3167.got.cif
#   From: 2010.05.17/outbox.cif.g08.bks.cpg/sg135_2_cif.got.tgz:3167.got - 2010.05.20 12:50:20.
