data_PCOD9569890
_publ_section_title
;
Structure prediction by ZEFSAII (Michael W. Deem and Ramdas Pophale) SiO2 
 PCOD9569890
Probable space group: P 42/M N M
;
_chemical_formula_sum "Si O2"
_cell_formula_units_Z 72
_cell_length_a 22.073115
_cell_length_b 22.073115
_cell_length_c 7.443793
_cell_angle_alpha 90.000000
_cell_angle_beta 90.000000
_cell_angle_gamma 90.000000
_cell_volume 3626.782734
_symmetry_space_group_name_H-M "P 42/M N M"
_symmetry_group_IT_number 136
_symmetry_cell_setting 'tetragonal'
loop_
_space_group_symop_operation_xyz
x,y,z
1/2-y,1/2+x,1/2+z
-x,-y,z
1/2+y,1/2-x,1/2+z
1/2+x,1/2-y,1/2-z
1/2-x,1/2+y,1/2-z
y,x,-z
-y,-x,-z
-x,-y,-z
1/2+y,1/2-x,1/2-z
x,y,-z
1/2-y,1/2+x,1/2-z
1/2-x,1/2+y,1/2+z
1/2+x,1/2-y,1/2+z
-y,-x,z
y,x,z
loop_
_atom_site_type_symbol
_atom_site_label
_atom_site_fract_x
_atom_site_fract_y
_atom_site_fract_z
Si Si1 0.031968 0.317191 0.711781
Si Si2 0.874089 0.221268 0.718626
Si Si3 0.683796 0.491023 0.218500
Si Si4 0.645859 0.099134 0.283611
Si Si5 0.949644 0.949644 0.719906
O O1 0.021335 0.309344 0.500000
O O2 0.039105 0.247738 0.779461
O O3 0.088718 0.360928 0.732044
O O4 0.970495 0.349118 0.781684
O O5 0.873233 0.221297 0.500000
O O6 0.819395 0.180606 0.783276
O O7 0.871586 0.290757 0.775841
O O8 0.938564 0.192359 0.768443
O O9 0.618738 0.466300 0.279049
O O10 0.681711 0.487410 0.000000
O O11 0.644930 0.097906 0.500000
O O12 0.950158 0.950158 0.500000
O O13 0.000000 0.000000 0.774183
#
# Coordination Sequence:
#
# PCOD9569890 Si02
#       5
#    16  16  16  16   8
#     4   9  18  32  46  63  91 120 145 181 230 269
#     4   8  13  24  42  61  82 111 147 183 214 247
#     4   8  14  24  38  59  89 119 143 175 220 262
#     4   9  18  31  47  66  87 115 150 185 220 264
#     4   9  14  20  36  64  93 121 151 177 211 268
#
# _framework density 19.852305999999999
#
# number of rings (size 3 to 8) (size 9 to 14) (size 15 to 20)
#    0.000    3.444    0.000    3.333    0.000    4.000 
#    2.000    2.222    0.000    0.000    0.000    0.000 
#    0.000    3.556    0.000    0.000    0.000    0.444 
#
# Total GULP energy -401129.998836 kJ/mol
# GULP energy per Si atom -5571.249984 kJ/mol
# Density = 1.980712 g / cm^3
# Si number density = 19.852306 Si / 1000 Ang^3
#
#
#
# Elastic Constant Matrix: (Units=GPa)
#
#
# Indices 1 2 3 4 5 6 
#
# 1 169.0819 143.9714 -1.7299 0.0000 0.0000 0.0000
# 2 143.9714 169.0819 -1.7299 0.0000 0.0000 0.0000
# 3 -1.7299 -1.7299 54.5197 0.0000 0.0000 0.0000
# 4 0.0000 0.0000 0.0000 9.6630 0.0000 0.0000
# 5 0.0000 0.0000 0.0000 0.0000 9.6630 0.0000
# 6 0.0000 0.0000 0.0000 0.0000 0.0000 39.0596
#
#
#
# Elastic Compliance Matrix: (Units=1/GPa)
#
#
# Indices 1 2 3 4 5 6 
#
# 1 0.021510 -0.018314 0.000101 0.000000 0.000000 0.000000
# 2 -0.018314 0.021510 0.000101 0.000000 0.000000 0.000000
# 3 0.000101 0.000101 0.018348 0.000000 0.000000 0.000000
# 4 0.000000 0.000000 0.000000 0.103488 0.000000 0.000000
# 5 0.000000 0.000000 0.000000 0.000000 0.103488 0.000000
# 6 0.000000 0.000000 0.000000 0.000000 0.000000 0.025602
#
#
# Mechanical properties :
#
#
# Convention : Reuss Voigt Hill
#
# Bulk Modulus (GPa) = 39.76948 74.85633 57.31290
# Shear Modulus (GPa) = 14.76886 28.48856 21.62871
#
# Velocity S-wave (km/s) = 2.73048 3.79228 3.30431
# Velocity P-wave (km/s) = 5.47876 7.54743 6.59472
#
# Compressibility (1/GPa) = 0.02514491
#
# Stress axis : x y z
#
# Youngs Moduli (GPa) = 46.49066 46.49066 54.50058
#
# Poissons Ratio (x) = 0.85144 -0.00553
# Poissons Ratio (y) = 0.85144 -0.00553
# Poissons Ratio (z) = -0.00471 -0.00471
#
# Static dielectric constant tensor:
#      x y z
#    x 1.682180 0.000000 0.000000 
#    y 0.000000 1.682180 0.000000 
#    z 0.000000 0.000000 1.799720 
# 
# From -- ./inp_files/1529.got.cif
#   From: 2010.05.17/outbox.cif.g08.bks.cpg/sg136_1_cif.got.tgz:1529.got - 2010.05.20 12:54:53.
