data_PCOD9569520
_publ_section_title
;
Structure prediction by ZEFSAII (Michael W. Deem and Ramdas Pophale) SiO2 
 PCOD9569520
Probable space group: P 42/M N M
;
_chemical_formula_sum "Si O2"
_cell_formula_units_Z 72
_cell_length_a 21.929309
_cell_length_b 21.929309
_cell_length_c 8.359705
_cell_angle_alpha 90.000000
_cell_angle_beta 90.000000
_cell_angle_gamma 90.000000
_cell_volume 4020.136935
_symmetry_space_group_name_H-M "P 42/M N M"
_symmetry_group_IT_number 136
_symmetry_cell_setting 'tetragonal'
loop_
_space_group_symop_operation_xyz
x,y,z
1/2-y,1/2+x,1/2+z
-x,-y,z
1/2+y,1/2-x,1/2+z
1/2+x,1/2-y,1/2-z
1/2-x,1/2+y,1/2-z
y,x,-z
-y,-x,-z
-x,-y,-z
1/2+y,1/2-x,1/2-z
x,y,-z
1/2-y,1/2+x,1/2-z
1/2-x,1/2+y,1/2+z
1/2+x,1/2-y,1/2+z
-y,-x,z
y,x,z
loop_
_atom_site_type_symbol
_atom_site_label
_atom_site_fract_x
_atom_site_fract_y
_atom_site_fract_z
Si Si1 0.184080 0.989252 0.808232
Si Si2 0.353693 0.096963 0.193614
Si Si3 0.682481 0.036191 0.308315
Si Si4 0.779742 0.875369 0.194788
Si Si5 0.949478 0.050523 0.691312
O O1 0.247881 0.958410 0.754164
O O2 0.119452 0.965095 0.745660
O O3 0.192696 0.059656 0.755649
O O4 0.182314 0.987223 0.000000
O O5 0.410420 0.137276 0.248558
O O6 0.290331 0.128552 0.242318
O O7 0.346587 0.028181 0.255581
O O8 0.355815 0.093749 0.000000
O O9 0.685373 0.038071 0.500000
O O10 0.820860 0.820860 0.254927
O O11 0.781039 0.875039 0.000000
O O12 0.951222 0.048779 0.500000
O O13 0.000000 0.000000 0.749675
#
# Coordination Sequence:
#
# PCOD9569520 Si02
#       5
#    16  16  16  16   8
#     4  10  20  35  55  78 108 144 181 223 272 329
#     4   9  19  34  52  77 105 138 180 222 274 335
#     4  10  20  35  54  78 108 141 181 228 279 328
#     4   8  14  28  51  75  97 127 172 218 258 310
#     4  11  23  37  55  83 115 147 187 231 273 318
#
# _framework density 17.909838000000001
#
# number of rings (size 3 to 8) (size 9 to 14) (size 15 to 20)
#    0.000    2.556    0.000    3.667    0.000    4.000 
#    2.000    2.222    0.000    6.000    0.000    0.000 
#    0.000    0.000    0.000    0.000    0.000    0.000 
#
# Total GULP energy -401296.674936 kJ/mol
# GULP energy per Si atom -5573.564930 kJ/mol
# Density = 1.786907 g / cm^3
# Si number density = 17.909838 Si / 1000 Ang^3
#
#
#
# Elastic Constant Matrix: (Units=GPa)
#
#
# Indices 1 2 3 4 5 6 
#
# 1 145.7384 129.1196 27.8910 0.0000 0.0000 0.0000
# 2 129.1196 145.7387 27.8910 0.0000 0.0000 0.0000
# 3 27.8910 27.8910 35.0236 0.0000 0.0000 0.0000
# 4 0.0000 0.0000 0.0000 24.0152 0.0000 0.0000
# 5 0.0000 0.0000 0.0000 0.0000 24.0151 0.0000
# 6 0.0000 0.0000 0.0000 0.0000 0.0000 37.6066
#
#
#
# Elastic Compliance Matrix: (Units=1/GPa)
#
#
# Indices 1 2 3 4 5 6 
#
# 1 0.032256 -0.027916 -0.003456 0.000000 0.000000 0.000000
# 2 -0.027916 0.032256 -0.003456 0.000000 0.000000 0.000000
# 3 -0.003456 -0.003456 0.034056 0.000000 0.000000 0.000000
# 4 0.000000 0.000000 0.000000 0.041640 0.000000 0.000000
# 5 0.000000 0.000000 0.000000 0.000000 0.041640 0.000000
# 6 0.000000 0.000000 0.000000 0.000000 0.000000 0.026591
#
#
# Mechanical properties :
#
#
# Convention : Reuss Voigt Hill
#
# Bulk Modulus (GPa) = 34.58757 77.36711 55.97734
# Shear Modulus (GPa) = 17.37720 26.56734 21.97227
#
# Velocity S-wave (km/s) = 3.11828 3.85566 3.50641
# Velocity P-wave (km/s) = 5.68497 7.94439 6.90769
#
# Compressibility (1/GPa) = 0.02891212
#
# Stress axis : x y z
#
# Youngs Moduli (GPa) = 31.00202 31.00206 29.36320
#
# Poissons Ratio (x) = 0.86546 0.10147
# Poissons Ratio (y) = 0.86546 0.10148
# Poissons Ratio (z) = 0.10714 0.10714
#
# Static dielectric constant tensor:
#      x y z
#    x 1.605490 0.000000 0.000000 
#    y 0.000000 1.605490 0.000000 
#    z 0.000000 0.000000 1.625660 
# 
# From -- ./inp_files/1595.got.cif
#   From: 2010.05.17/outbox.cif.g08.bks.cpg/sg136_1_cif.got.tgz:1595.got - 2010.05.20 12:54:53.
