data_PCOD9569687
_publ_section_title
;
Structure prediction by ZEFSAII (Michael W. Deem and Ramdas Pophale) SiO2 
 PCOD9569687
Probable space group: P 42/M N M
;
_chemical_formula_sum "Si O2"
_cell_formula_units_Z 64
_cell_length_a 12.095954
_cell_length_b 12.095954
_cell_length_c 23.352660
_cell_angle_alpha 90.000000
_cell_angle_beta 90.000000
_cell_angle_gamma 90.000000
_cell_volume 3416.776799
_symmetry_space_group_name_H-M "P 42/M N M"
_symmetry_group_IT_number 136
_symmetry_cell_setting 'tetragonal'
loop_
_space_group_symop_operation_xyz
x,y,z
1/2-y,1/2+x,1/2+z
-x,-y,z
1/2+y,1/2-x,1/2+z
1/2+x,1/2-y,1/2-z
1/2-x,1/2+y,1/2-z
y,x,-z
-y,-x,-z
-x,-y,-z
1/2+y,1/2-x,1/2-z
x,y,-z
1/2-y,1/2+x,1/2-z
1/2-x,1/2+y,1/2+z
1/2+x,1/2-y,1/2+z
-y,-x,z
y,x,z
loop_
_atom_site_type_symbol
_atom_site_label
_atom_site_fract_x
_atom_site_fract_y
_atom_site_fract_z
Si Si1 0.682355 0.501014 0.748466
Si Si2 0.149519 0.335319 0.934543
Si Si3 0.743546 0.564399 0.620773
Si Si4 0.372073 0.021825 0.660243
O O1 0.604112 0.395889 0.759088
O O2 0.610067 0.610067 0.762619
O O3 0.709746 0.508686 0.681306
O O4 0.791245 0.493661 0.786482
O O5 0.247899 0.247899 0.926247
O O6 0.157194 0.434169 0.889195
O O7 0.033145 0.274434 0.922350
O O8 0.152144 0.375425 0.000000
O O9 0.645080 0.645080 0.602438
O O10 0.854454 0.632797 0.635246
O O11 0.500000 0.000000 0.675841
#
# Coordination Sequence:
#
# PCOD9569687 Si02
#       4
#    16  16  16  16
#     4  10  21  37  57  82 115 152 189 233 284 339
#     4  10  22  40  61  83 111 151 195 238 282 334
#     4  10  22  36  55  85 117 150 189 235 287 343
#     4  10  22  35  57  84 115 147 189 233 286 339
#
# _framework density 18.731103999999998
#
# number of rings (size 3 to 8) (size 9 to 14) (size 15 to 20)
#    0.000    2.000    0.000    2.250    7.000    6.500 
#    0.000    1.250    0.000    2.250    0.000    8.750 
#    0.000    0.000    0.000    0.000    0.000    0.000 
#
# Total GULP energy -357694.168923 kJ/mol
# GULP energy per Si atom -5588.971389 kJ/mol
# Density = 1.868847 g / cm^3
# Si number density = 18.731104 Si / 1000 Ang^3
#
#
#
# Elastic Constant Matrix: (Units=GPa)
#
#
# Indices 1 2 3 4 5 6 
#
# 1 53.0602 16.5768 19.8537 0.0000 0.0000 0.0000
# 2 16.5768 53.0602 19.8537 0.0000 0.0000 0.0000
# 3 19.8537 19.8537 42.0121 0.0000 0.0000 0.0000
# 4 0.0000 0.0000 0.0000 24.3117 0.0000 0.0000
# 5 0.0000 0.0000 0.0000 0.0000 24.3117 0.0000
# 6 0.0000 0.0000 0.0000 0.0000 0.0000 15.7753
#
#
#
# Elastic Compliance Matrix: (Units=1/GPa)
#
#
# Indices 1 2 3 4 5 6 
#
# 1 0.023533 -0.003876 -0.009289 0.000000 0.000000 0.000000
# 2 -0.003876 0.023533 -0.009289 0.000000 0.000000 0.000000
# 3 -0.009289 -0.009289 0.032582 0.000000 0.000000 0.000000
# 4 0.000000 0.000000 0.000000 0.041133 0.000000 0.000000
# 5 0.000000 0.000000 0.000000 0.000000 0.041133 0.000000
# 6 0.000000 0.000000 0.000000 0.000000 0.000000 0.063390
#
#
# Mechanical properties :
#
#
# Convention : Reuss Voigt Hill
#
# Bulk Modulus (GPa) = 28.78599 28.96675 28.87637
# Shear Modulus (GPa) = 17.74345 19.00295 18.37320
#
# Velocity S-wave (km/s) = 3.08112 3.18860 3.13532
# Velocity P-wave (km/s) = 5.29708 5.39020 5.34385
#
# Compressibility (1/GPa) = 0.03473912
#
# Stress axis : x y z
#
# Youngs Moduli (GPa) = 42.49284 42.49284 30.69141
#
# Poissons Ratio (x) = 0.16472 0.28510
# Poissons Ratio (y) = 0.16472 0.28510
# Poissons Ratio (z) = 0.39473 0.39473
#
# Static dielectric constant tensor:
#      x y z
#    x 1.643470 0.000000 0.000000 
#    y 0.000000 1.643470 0.000000 
#    z 0.000000 0.000000 1.619240 
# 
# From -- ./inp_files/7019.got.cif
#   From: 2010.05.17/outbox.cif.g08.bks.cpg/sg136_4_cif.got.tgz:7019.got - 2010.05.20 12:54:53.
