data_PCOD9569317
_publ_section_title
;
Structure prediction by ZEFSAII (Michael W. Deem and Ramdas Pophale) SiO2 
 PCOD9569317
Probable space group: P 42/M N M
;
_chemical_formula_sum "Si O2"
_cell_formula_units_Z 96
_cell_length_a 14.431116
_cell_length_b 14.431116
_cell_length_c 26.046705
_cell_angle_alpha 90.000000
_cell_angle_beta 90.000000
_cell_angle_gamma 90.000000
_cell_volume 5424.411482
_symmetry_space_group_name_H-M "P 42/M N M"
_symmetry_group_IT_number 136
_symmetry_cell_setting 'tetragonal'
loop_
_space_group_symop_operation_xyz
x,y,z
1/2-y,1/2+x,1/2+z
-x,-y,z
1/2+y,1/2-x,1/2+z
1/2+x,1/2-y,1/2-z
1/2-x,1/2+y,1/2-z
y,x,-z
-y,-x,-z
-x,-y,-z
1/2+y,1/2-x,1/2-z
x,y,-z
1/2-y,1/2+x,1/2-z
1/2-x,1/2+y,1/2+z
1/2+x,1/2-y,1/2+z
-y,-x,z
y,x,z
loop_
_atom_site_type_symbol
_atom_site_label
_atom_site_fract_x
_atom_site_fract_y
_atom_site_fract_z
Si Si1 0.655940 0.048889 0.644803
Si Si2 0.179448 0.820553 0.354730
Si Si3 0.689854 0.310147 0.286717
Si Si4 0.367592 0.951315 0.136150
Si Si5 0.728233 0.001261 0.757534
Si Si6 0.295605 0.448718 0.558629
Si Si7 0.577474 0.577474 0.768905
Si Si8 0.425113 0.574888 0.371315
O O1 0.740817 0.110754 0.621778
O O2 0.557710 0.096702 0.632751
O O3 0.629350 0.943801 0.630281
O O4 0.678794 0.036470 0.705659
O O5 0.240282 0.759719 0.314694
O O6 0.110645 0.889356 0.324996
O O7 0.610278 0.248706 0.258532
O O8 0.631826 0.368175 0.329260
O O9 0.295910 0.935575 0.091028
O O10 0.323892 0.957423 0.193215
O O11 0.831497 0.041308 0.758546
O O12 0.281274 0.479897 0.500000
O O13 0.355209 0.355209 0.557159
O O14 0.355562 0.520453 0.591776
O O15 0.500000 0.500000 0.772356
O O16 0.500000 0.500000 0.350114
#
# Coordination Sequence:
#
# PCOD9569317 Si02
#       8
#    16   8   8  16  16  16   8   8
#     4  10  22  37  53  76 113 148 196 237 281 329
#     4  10  20  38  49  72 104 151 189 239 272 329
#     4  12  20  31  52  82 110 153 192 228 275 338
#     4  11  21  36  56  81 108 152 190 235 286 349
#     4  11  21  33  51  76 116 149 191 228 275 336
#     4  10  21  37  57  86 119 148 186 239 299 359
#     4  10  22  32  46  69 102 145 187 228 269 318
#     4  10  19  32  56  84 120 158 187 222 278 359
#
# _framework density 17.697772000000001
#
# number of rings (size 3 to 8) (size 9 to 14) (size 15 to 20)
#    0.000    1.500    4.167    1.250    4.667    2.333 
#    1.500    1.667    0.000    0.000    0.000    1.750 
#    0.000    1.333    0.000    0.000    0.000    0.500 
#
# Total GULP energy -534751.595961 kJ/mol
# GULP energy per Si atom -5570.329125 kJ/mol
# Density = 1.765749 g / cm^3
# Si number density = 17.697772 Si / 1000 Ang^3
#
#
#
# Elastic Constant Matrix: (Units=GPa)
#
#
# Indices 1 2 3 4 5 6 
#
# 1 90.2246 39.7780 16.6884 0.0000 0.0000 0.0000
# 2 39.7780 90.2246 16.6884 0.0000 0.0000 0.0000
# 3 16.6884 16.6884 50.5468 0.0000 0.0000 0.0000
# 4 0.0000 0.0000 0.0000 -131.4094 0.0000 0.0000
# 5 0.0000 0.0000 0.0000 0.0000 -131.4094 0.0000
# 6 0.0000 0.0000 0.0000 0.0000 0.0000 31.9219
#
#
#
# Elastic Compliance Matrix: (Units=1/GPa)
#
#
# Indices 1 2 3 4 5 6 
#
# 1 0.014114 -0.005709 -0.002775 0.000000 0.000000 0.000000
# 2 -0.005709 0.014114 -0.002775 0.000000 0.000000 0.000000
# 3 -0.002775 -0.002775 0.021616 0.000000 0.000000 0.000000
# 4 0.000000 0.000000 0.000000 -0.007610 0.000000 0.000000
# 5 0.000000 0.000000 0.000000 0.000000 -0.007610 0.000000
# 6 0.000000 0.000000 0.000000 0.000000 0.000000 0.031326
#
#
# Mechanical properties :
#
#
# Convention : Reuss Voigt Hill
#
# Bulk Modulus (GPa) = 36.59554 41.92283 39.25919
# Shear Modulus (GPa) = 51.24182 -35.65663 7.79260
#
# Velocity S-wave (km/s) = 5.38671 -4.49347 2.10065
# Velocity P-wave (km/s) = 7.70791 1.78383 5.30235
#
# Compressibility (1/GPa) = 0.02732574
#
# Stress axis : x y z
#
# Youngs Moduli (GPa) = 70.85282 70.85282 46.26219
#
# Poissons Ratio (x) = 0.40451 0.12837
# Poissons Ratio (y) = 0.40451 0.12837
# Poissons Ratio (z) = 0.19660 0.19660
#
# Static dielectric constant tensor:
#      x y z
#    x 1.642300 0.000000 0.000000 
#    y 0.000000 1.642300 0.000000 
#    z 0.000000 0.000000 1.580240 
# 
# From -- ./inp_files/9148.got.cif
#   From: 2010.05.17/outbox.cif.g08.bks.cpg/sg136_5_cif.got.tgz:9148.got - 2010.05.20 12:54:53.
