data_PCOD9569368
_publ_section_title
;
Structure prediction by ZEFSAII (Michael W. Deem and Ramdas Pophale) SiO2 
 PCOD9569368
Probable space group: P 42/M N M
;
_chemical_formula_sum "Si O2"
_cell_formula_units_Z 120
_cell_length_a 13.757786
_cell_length_b 13.757786
_cell_length_c 35.840275
_cell_angle_alpha 90.000000
_cell_angle_beta 90.000000
_cell_angle_gamma 90.000000
_cell_volume 6783.728105
_symmetry_space_group_name_H-M "P 42/M N M"
_symmetry_group_IT_number 136
_symmetry_cell_setting 'tetragonal'
loop_
_space_group_symop_operation_xyz
x,y,z
1/2-y,1/2+x,1/2+z
-x,-y,z
1/2+y,1/2-x,1/2+z
1/2+x,1/2-y,1/2-z
1/2-x,1/2+y,1/2-z
y,x,-z
-y,-x,-z
-x,-y,-z
1/2+y,1/2-x,1/2-z
x,y,-z
1/2-y,1/2+x,1/2-z
1/2-x,1/2+y,1/2+z
1/2+x,1/2-y,1/2+z
-y,-x,z
y,x,z
loop_
_atom_site_type_symbol
_atom_site_label
_atom_site_fract_x
_atom_site_fract_y
_atom_site_fract_z
Si Si1 0.163733 0.503165 0.248320
Si Si2 0.741725 0.584014 0.177876
Si Si3 0.394649 0.762155 0.601369
Si Si4 0.276821 0.956355 0.592360
Si Si5 0.416895 0.416895 0.955144
Si Si6 0.569100 0.095136 0.958738
Si Si7 0.750872 0.908219 0.818989
Si Si8 0.042491 0.796477 0.042050
O O1 0.094556 0.409742 0.255143
O O2 0.228098 0.487407 0.211316
O O3 0.228936 0.522668 0.284543
O O4 0.639188 0.639188 0.182820
O O5 0.748373 0.541137 0.135988
O O6 0.824240 0.668004 0.180578
O O7 0.297961 0.702040 0.610671
O O8 0.352517 0.865626 0.588633
O O9 0.453995 0.763480 0.640029
O O10 0.455087 0.704714 0.570896
O O11 0.183109 0.944352 0.565992
O O12 0.335437 0.045980 0.575614
O O13 0.500000 0.500000 0.950046
O O14 0.403818 0.403818 0.000000
O O15 0.683143 0.072932 0.958212
O O16 0.500000 0.000000 0.955920
O O17 0.546442 0.138414 0.000000
O O18 0.853994 0.853994 0.815116
O O19 0.130590 0.869411 0.051512
O O20 0.010705 0.821126 0.000000
#
# Coordination Sequence:
#
# PCOD9569368 Si02
#       8
#    16  16  16  16   8  16  16  16
#     4   9  17  30  50  80 107 134 174 219 265 323
#     4   9  17  32  53  76 106 138 172 221 277 323
#     4  10  19  34  57  83 106 140 186 229 271 323
#     4  11  19  36  58  81 105 142 189 230 278 330
#     4  11  24  38  54  80 113 145 185 239 290 334
#     4  10  20  34  54  81 108 140 184 229 272 328
#     4   8  16  31  52  76 107 138 173 217 266 322
#     4  10  22  38  53  76 113 147 177 223 282 331
#
# _framework density 17.689388000000001
#
# number of rings (size 3 to 8) (size 9 to 14) (size 15 to 20)
#    0.000    2.333    2.667    1.200    0.000    2.667 
#    2.400    3.333    0.000    4.000    0.000    0.000 
#    0.000    0.000    0.000    0.000    0.000    0.000 
#
# Total GULP energy -668066.589598 kJ/mol
# GULP energy per Si atom -5567.221580 kJ/mol
# Density = 1.764913 g / cm^3
# Si number density = 17.689388 Si / 1000 Ang^3
#
#
#
# Elastic Constant Matrix: (Units=GPa)
#
#
# Indices 1 2 3 4 5 6 
#
# 1 47.8137 20.8887 50.6421 0.0000 0.0000 0.0000
# 2 20.8887 47.8137 50.6421 0.0000 0.0000 0.0000
# 3 50.6421 50.6421 149.0500 0.0000 0.0000 0.0000
# 4 0.0000 0.0000 0.0000 28.1804 0.0000 0.0000
# 5 0.0000 0.0000 0.0000 0.0000 28.1804 0.0000
# 6 0.0000 0.0000 0.0000 0.0000 0.0000 21.0964
#
#
#
# Elastic Compliance Matrix: (Units=1/GPa)
#
#
# Indices 1 2 3 4 5 6 
#
# 1 0.033152 -0.003988 -0.009909 0.000000 0.000000 0.000000
# 2 -0.003988 0.033152 -0.009909 0.000000 0.000000 0.000000
# 3 -0.009909 -0.009909 0.013442 0.000000 0.000000 0.000000
# 4 0.000000 0.000000 0.000000 0.035486 0.000000 0.000000
# 5 0.000000 0.000000 0.000000 0.000000 0.035486 0.000000
# 6 0.000000 0.000000 0.000000 0.000000 0.000000 0.047402
#
#
# Mechanical properties :
#
#
# Convention : Reuss Voigt Hill
#
# Bulk Modulus (GPa) = 31.11934 54.33591 42.72762
# Shear Modulus (GPa) = 19.49759 23.65840 21.57800
#
# Velocity S-wave (km/s) = 3.32357 3.66106 3.49639
# Velocity P-wave (km/s) = 5.68845 6.97528 6.36447
#
# Compressibility (1/GPa) = 0.03213436
#
# Stress axis : x y z
#
# Youngs Moduli (GPa) = 30.16429 30.16429 74.39126
#
# Poissons Ratio (x) = 0.12031 0.73712
# Poissons Ratio (y) = 0.12031 0.73712
# Poissons Ratio (z) = 0.29889 0.29889
#
# Static dielectric constant tensor:
#      x y z
#    x 1.603160 0.000000 0.000000 
#    y 0.000000 1.603160 0.000000 
#    z 0.000000 0.000000 1.652080 
# 
# From -- ./inp_files/10033.got.cif
#   From: 2010.05.17/outbox.cif.g08.bks.cpg/sg136_6_cif.got.tgz:10033.got - 2010.05.20 12:54:53.
