data_PCOD9569044
_publ_section_title
;
Structure prediction by ZEFSAII (Michael W. Deem and Ramdas Pophale) SiO2 
 PCOD9569044
Probable space group: P 42/M B C
;
_chemical_formula_sum "Si O2"
_cell_formula_units_Z 88
_cell_length_a 11.566358
_cell_length_b 11.566358
_cell_length_c 27.848380
_cell_angle_alpha 90.000000
_cell_angle_beta 90.000000
_cell_angle_gamma 90.000000
_cell_volume 3725.574027
_symmetry_space_group_name_H-M "P 42/M B C"
_symmetry_group_IT_number 135
_symmetry_cell_setting 'tetragonal'
loop_
_space_group_symop_operation_xyz
x,y,z
-y,x,1/2+z
-x,-y,z
y,-x,1/2+z
1/2+x,1/2-y,-z
1/2-x,1/2+y,-z
1/2+y,1/2+x,1/2-z
1/2-y,1/2-x,1/2-z
-x,-y,-z
y,-x,1/2-z
x,y,-z
-y,x,1/2-z
1/2-x,1/2+y,z
1/2+x,1/2-y,z
1/2-y,1/2-x,1/2+z
1/2+y,1/2+x,1/2+z
loop_
_atom_site_type_symbol
_atom_site_label
_atom_site_fract_x
_atom_site_fract_y
_atom_site_fract_z
Si Si1 0.923077 0.399322 0.625435
Si Si2 0.086825 0.781626 0.797537
Si Si3 0.559039 0.306959 0.000000
Si Si4 0.673615 0.464365 0.077226
Si Si5 0.338780 0.704386 0.500000
Si Si6 0.000000 0.000000 0.660062
Si Si7 0.697989 0.055720 0.786218
O O1 0.811545 0.425574 0.659168
O O2 0.898961 0.293030 0.589661
O O3 0.000000 0.500000 0.600696
O O4 0.014912 0.354866 0.664551
O O5 0.210376 0.843416 0.795832
O O6 0.053558 0.743789 0.743905
O O7 0.998085 0.884896 0.809174
O O8 0.585237 0.385909 0.046709
O O9 0.422453 0.273464 0.000000
O O10 0.670612 0.222580 0.000000
O O11 0.700657 0.576732 0.045952
O O12 0.610927 0.499463 0.126009
O O13 0.603731 0.103731 0.750000
#
# Coordination Sequence:
#
# PCOD9569044 Si02
#       7
#    16  16   8  16   8   8  16
#     4  12  27  46  69 106 149 189 243 316 370 433
#     4  12  27  42  69 102 141 195 252 303 366 439
#     4  11  25  47  82 104 146 193 235 305 381 460
#     4  11  25  47  72 104 142 186 239 294 368 449
#     4  11  25  49  76 112 148 188 240 303 379 461
#     4  12  24  46  72 102 138 186 252 291 357 446
#     4  12  24  44  66  96 143 195 246 303 366 430
#
# _framework density 23.620519999999999
#
# number of rings (size 3 to 8) (size 9 to 14) (size 15 to 20)
#    0.000    0.364    5.455    3.273    5.091    2.909 
#    0.000    1.818    0.000    0.000    0.000    0.000 
#    0.000    0.000    0.000    0.000    0.000    0.000 
#
# Total GULP energy -492127.819525 kJ/mol
# GULP energy per Si atom -5592.361586 kJ/mol
# Density = 2.356676 g / cm^3
# Si number density = 23.620520 Si / 1000 Ang^3
#
#
#
# Elastic Constant Matrix: (Units=GPa)
#
#
# Indices 1 2 3 4 5 6 
#
# 1 81.9592 33.1156 -3.8394 0.0000 0.0000 0.0000
# 2 33.1156 81.9592 -3.8394 0.0000 0.0000 0.0000
# 3 -3.8394 -3.8394 31.0845 0.0000 0.0000 0.0000
# 4 0.0000 0.0000 0.0000 13.3899 0.0000 0.0000
# 5 0.0000 0.0000 0.0000 0.0000 13.3899 0.0000
# 6 0.0000 0.0000 0.0000 0.0000 0.0000 48.7039
#
#
#
# Elastic Compliance Matrix: (Units=1/GPa)
#
#
# Indices 1 2 3 4 5 6 
#
# 1 0.014618 -0.005856 0.001082 0.000000 0.000000 0.000000
# 2 -0.005856 0.014618 0.001082 0.000000 0.000000 0.000000
# 3 0.001082 0.001082 0.032438 0.000000 0.000000 0.000000
# 4 0.000000 0.000000 0.000000 0.074683 0.000000 0.000000
# 5 0.000000 0.000000 0.000000 0.000000 0.074683 0.000000
# 6 0.000000 0.000000 0.000000 0.000000 0.000000 0.020532
#
#
# Mechanical properties :
#
#
# Convention : Reuss Voigt Hill
#
# Bulk Modulus (GPa) = 18.41916 27.31960 22.86938
# Shear Modulus (GPa) = 19.45140 26.40117 22.92628
#
# Velocity S-wave (km/s) = 2.87277 3.34686 3.11884
# Velocity P-wave (km/s) = 4.33805 5.15038 4.76157
#
# Compressibility (1/GPa) = 0.05429130
#
# Stress axis : x y z
#
# Youngs Moduli (GPa) = 68.40942 68.40942 30.82827
#
# Poissons Ratio (x) = 0.40058 -0.03336
# Poissons Ratio (y) = 0.40058 -0.03336
# Poissons Ratio (z) = -0.07404 -0.07404
#
# Static dielectric constant tensor:
#      x y z
#    x 1.957600 0.000000 0.000000 
#    y 0.000000 1.957600 0.000000 
#    z 0.000000 0.000000 0.857780 
# 
# From -- ./inp_files/6808.got.cif
#   From: 2010.05.17/outbox.cif.g08.bks.cpg/sg135_4_cif.got.tgz:6808.got - 2010.05.20 12:50:20.
