data_PCOD9569181
_publ_section_title
;
Structure prediction by ZEFSAII (Michael W. Deem and Ramdas Pophale) SiO2 
 PCOD9569181
Probable space group: P 42/M N M
;
_chemical_formula_sum "Si O2"
_cell_formula_units_Z 120
_cell_length_a 26.463297
_cell_length_b 26.463297
_cell_length_c 8.540843
_cell_angle_alpha 90.000000
_cell_angle_beta 90.000000
_cell_angle_gamma 90.000000
_cell_volume 5981.204350
_symmetry_space_group_name_H-M "P 42/M N M"
_symmetry_group_IT_number 136
_symmetry_cell_setting 'tetragonal'
loop_
_space_group_symop_operation_xyz
x,y,z
1/2-y,1/2+x,1/2+z
-x,-y,z
1/2+y,1/2-x,1/2+z
1/2+x,1/2-y,1/2-z
1/2-x,1/2+y,1/2-z
y,x,-z
-y,-x,-z
-x,-y,-z
1/2+y,1/2-x,1/2-z
x,y,-z
1/2-y,1/2+x,1/2-z
1/2-x,1/2+y,1/2+z
1/2+x,1/2-y,1/2+z
-y,-x,z
y,x,z
loop_
_atom_site_type_symbol
_atom_site_label
_atom_site_fract_x
_atom_site_fract_y
_atom_site_fract_z
Si Si1 0.542206 0.457794 0.828442
Si Si2 0.922544 0.511767 0.314198
Si Si3 0.706260 0.874662 0.312908
Si Si4 0.820137 0.263171 0.808445
Si Si5 0.989807 0.686385 0.311185
Si Si6 0.401748 0.681621 0.815975
Si Si7 0.567702 0.729260 0.309639
Si Si8 0.643345 0.500341 0.681836
O O1 0.500000 0.500000 0.836656
O O2 0.590436 0.483506 0.751721
O O3 0.558896 0.441104 0.000000
O O4 0.924624 0.520223 0.500000
O O5 0.947374 0.457837 0.271231
O O6 0.866025 0.511897 0.251774
O O7 0.696030 0.875365 0.500000
O O8 0.684341 0.821540 0.252889
O O9 0.766521 0.872459 0.289853
O O10 0.690535 0.930857 0.256226
O O11 0.774231 0.225770 0.759783
O O12 0.875098 0.241862 0.762734
O O13 0.818404 0.264249 0.000000
O O14 0.989179 0.687449 0.500000
O O15 0.026817 0.730437 0.251974
O O16 0.365698 0.634303 0.784059
O O17 0.451618 0.678464 0.713090
O O18 0.416378 0.681151 0.000000
O O19 0.565847 0.730391 0.500000
O O20 0.548327 0.674083 0.255480
O O21 0.635178 0.508475 0.500000
#
# Coordination Sequence:
#
# PCOD9569181 Si02
#       8
#     8  16  16  16  16  16  16  16
#     4  11  25  43  63  87 115 153 203 253 309 379
#     4  11  23  41  62  87 120 158 203 252 307 369
#     4   9  18  32  54  86 118 151 198 248 297 350
#     4   9  18  35  59  87 117 152 202 255 301 357
#     4  11  22  36  57  89 124 163 206 249 303 362
#     4  10  18  31  55  84 114 149 189 240 297 353
#     4  10  22  38  59  88 122 163 204 251 308 370
#     4  11  22  36  56  86 121 155 195 243 306 368
#
# _framework density 20.062849
#
# number of rings (size 3 to 8) (size 9 to 14) (size 15 to 20)
#    0.000    1.800    2.000    3.000    1.867    3.200 
#    0.000    1.333    0.000    1.200    0.000    0.000 
#    0.000    0.000    0.000    0.000    0.000    0.000 
#
# Total GULP energy -669627.049605 kJ/mol
# GULP energy per Si atom -5580.225413 kJ/mol
# Density = 2.001718 g / cm^3
# Si number density = 20.062849 Si / 1000 Ang^3
#
#
#
# Elastic Constant Matrix: (Units=GPa)
#
#
# Indices 1 2 3 4 5 6 
#
# 1 59.2195 37.3822 7.1631 0.0000 0.0000 0.0000
# 2 37.3822 59.2182 7.1628 0.0000 0.0000 0.0000
# 3 7.1631 7.1628 16.7332 0.0000 0.0000 0.0000
# 4 0.0000 0.0000 0.0000 30.4791 0.0000 0.0000
# 5 0.0000 0.0000 0.0000 0.0000 30.4825 0.0000
# 6 0.0000 0.0000 0.0000 0.0000 0.0000 29.9502
#
#
#
# Elastic Compliance Matrix: (Units=1/GPa)
#
#
# Indices 1 2 3 4 5 6 
#
# 1 0.028424 -0.017371 -0.004732 0.000000 0.000000 0.000000
# 2 -0.017371 0.028424 -0.004731 0.000000 0.000000 0.000000
# 3 -0.004732 -0.004731 0.063812 0.000000 0.000000 0.000000
# 4 0.000000 0.000000 0.000000 0.032809 0.000000 0.000000
# 5 0.000000 0.000000 0.000000 0.000000 0.032806 0.000000
# 6 0.000000 0.000000 0.000000 0.000000 0.000000 0.033389
#
#
# Mechanical properties :
#
#
# Convention : Reuss Voigt Hill
#
# Bulk Modulus (GPa) = 14.92696 26.50969 20.71833
# Shear Modulus (GPa) = 16.91113 23.74655 20.32884
#
# Velocity S-wave (km/s) = 2.90644 3.44409 3.18662
# Velocity P-wave (km/s) = 4.32659 5.39052 4.88759
#
# Compressibility (1/GPa) = 0.06699287
#
# Stress axis : x y z
#
# Youngs Moduli (GPa) = 35.18176 35.18110 15.67091
#
# Poissons Ratio (x) = 0.61111 0.07415
# Poissons Ratio (y) = 0.61113 0.07415
# Poissons Ratio (z) = 0.16648 0.16646
#
# Static dielectric constant tensor:
#      x y z
#    x 1.728340 0.000000 0.000000 
#    y 0.000000 1.728340 0.000000 
#    z 0.000000 0.000000 1.703080 
# 
# From -- ./inp_files/2319.got.cif
#   From: 2010.05.17/outbox.cif.g08.bks.cpg/sg136_2_cif.got.tgz:2319.got - 2010.05.20 12:54:53.
