data_PCOD9569313
_publ_section_title
;
Structure prediction by ZEFSAII (Michael W. Deem and Ramdas Pophale) SiO2 
 PCOD9569313
Probable space group: P 42/M N M
;
_chemical_formula_sum "Si O2"
_cell_formula_units_Z 98
_cell_length_a 15.810601
_cell_length_b 15.810601
_cell_length_c 22.648713
_cell_angle_alpha 90.000000
_cell_angle_beta 90.000000
_cell_angle_gamma 90.000000
_cell_volume 5661.614387
_symmetry_space_group_name_H-M "P 42/M N M"
_symmetry_group_IT_number 136
_symmetry_cell_setting 'tetragonal'
loop_
_space_group_symop_operation_xyz
x,y,z
1/2-y,1/2+x,1/2+z
-x,-y,z
1/2+y,1/2-x,1/2+z
1/2+x,1/2-y,1/2-z
1/2-x,1/2+y,1/2-z
y,x,-z
-y,-x,-z
-x,-y,-z
1/2+y,1/2-x,1/2-z
x,y,-z
1/2-y,1/2+x,1/2-z
1/2-x,1/2+y,1/2+z
1/2+x,1/2-y,1/2+z
-y,-x,z
y,x,z
loop_
_atom_site_type_symbol
_atom_site_label
_atom_site_fract_x
_atom_site_fract_y
_atom_site_fract_z
Si Si1 0.500000 0.500000 0.500000
Si Si2 0.070948 0.619386 0.248710
Si Si3 0.582612 0.951228 0.429409
Si Si4 0.068595 0.931406 0.571949
Si Si5 0.238513 0.436318 0.070988
Si Si6 0.877271 0.122730 0.066634
Si Si7 0.039183 0.719838 0.869512
Si Si8 0.841690 0.703242 0.851546
O O1 0.447023 0.447023 0.550423
O O2 0.103637 0.525693 0.229651
O O3 0.065969 0.685828 0.195171
O O4 0.135572 0.650918 0.298365
O O5 0.581245 0.959780 0.500000
O O6 0.569296 0.855477 0.411956
O O7 0.500000 0.000000 0.404899
O O8 0.670555 0.993040 0.409802
O O9 0.067222 0.932779 0.500000
O O10 0.048617 0.835027 0.590553
O O11 0.000000 0.000000 0.592371
O O12 0.203405 0.348495 0.096050
O O13 0.239357 0.433291 0.000000
O O14 0.803235 0.081619 0.105110
O O15 0.847927 0.152074 0.000000
O O16 0.937324 0.726841 0.869216
O O17 0.784049 0.784049 0.836670
#
# Coordination Sequence:
#
# PCOD9569313 Si02
#       8
#     2  16  16   8  16   8  16  16
#     4   8  24  48  60  76 116 160 220 242 292 348
#     4   9  20  37  60  86 116 149 188 242 312 374
#     4  10  19  32  55  87 121 146 182 240 304 358
#     4   9  18  34  52  75 112 158 196 223 269 344
#     4  10  19  33  54  84 118 154 188 235 295 357
#     4  10  24  42  61  84 118 168 212 252 294 367
#     4  11  22  38  61  83 116 159 201 248 309 360
#     4  11  22  34  58  89 115 145 199 252 296 357
#
# _framework density 17.309550000000002
#
# number of rings (size 3 to 8) (size 9 to 14) (size 15 to 20)
#    0.245    1.714    2.449    1.469    4.571    0.653 
#    1.469    0.000    0.000    0.980    2.122    0.000 
#    0.000    0.000    0.000    0.000    0.000    0.000 
#
# Total GULP energy -545739.887510 kJ/mol
# GULP energy per Si atom -5568.774362 kJ/mol
# Density = 1.727015 g / cm^3
# Si number density = 17.309550 Si / 1000 Ang^3
#
#
#
# Elastic Constant Matrix: (Units=GPa)
#
#
# Indices 1 2 3 4 5 6 
#
# 1 139.6755 112.4351 43.9047 0.0000 0.0000 0.0000
# 2 112.4351 139.6754 43.9048 0.0000 0.0000 0.0000
# 3 43.9047 43.9048 46.6026 0.0000 0.0000 0.0000
# 4 0.0000 0.0000 0.0000 2.1894 0.0000 0.0000
# 5 0.0000 0.0000 0.0000 0.0000 2.1893 0.0000
# 6 0.0000 0.0000 0.0000 0.0000 0.0000 35.4064
#
#
#
# Elastic Compliance Matrix: (Units=1/GPa)
#
#
# Indices 1 2 3 4 5 6 
#
# 1 0.021307 -0.015403 -0.005562 0.000000 0.000000 0.000000
# 2 -0.015403 0.021307 -0.005562 0.000000 0.000000 0.000000
# 3 -0.005562 -0.005562 0.031938 0.000000 0.000000 0.000000
# 4 0.000000 0.000000 0.000000 0.456736 0.000000 0.000000
# 5 0.000000 0.000000 0.000000 0.000000 0.456767 0.000000
# 6 0.000000 0.000000 0.000000 0.000000 0.000000 0.028243
#
#
# Mechanical properties :
#
#
# Convention : Reuss Voigt Hill
#
# Bulk Modulus (GPa) = 46.51678 80.71586 63.61632
# Shear Modulus (GPa) = 4.64460 16.33762 10.49111
#
# Velocity S-wave (km/s) = 1.63984 3.07555 2.46456
# Velocity P-wave (km/s) = 5.52424 7.70351 6.70303
#
# Compressibility (1/GPa) = 0.02149762
#
# Stress axis : x y z
#
# Youngs Moduli (GPa) = 46.93307 46.93297 31.31062
#
# Poissons Ratio (x) = 0.72292 0.17415
# Poissons Ratio (y) = 0.72292 0.17415
# Poissons Ratio (z) = 0.26104 0.26104
#
# Static dielectric constant tensor:
#      x y z
#    x 2.163600 0.000000 0.000000 
#    y 0.000000 2.163250 0.000000 
#    z 0.000000 0.000000 1.609140 
# 
# From -- ./inp_files/8460.got.cif
#   From: 2010.05.17/outbox.cif.g08.bks.cpg/sg136_5_cif.got.tgz:8460.got - 2010.05.20 12:54:53.
