data_PCOD9569634
_publ_section_title
;
Structure prediction by ZEFSAII (Michael W. Deem and Ramdas Pophale) SiO2 
 PCOD9569634
Probable space group: P 42/M N M
;
_chemical_formula_sum "Si O2"
_cell_formula_units_Z 96
_cell_length_a 16.354008
_cell_length_b 16.354008
_cell_length_c 22.113864
_cell_angle_alpha 90.000000
_cell_angle_beta 90.000000
_cell_angle_gamma 90.000000
_cell_volume 5914.432043
_symmetry_space_group_name_H-M "P 42/M N M"
_symmetry_group_IT_number 136
_symmetry_cell_setting 'tetragonal'
loop_
_space_group_symop_operation_xyz
x,y,z
1/2-y,1/2+x,1/2+z
-x,-y,z
1/2+y,1/2-x,1/2+z
1/2+x,1/2-y,1/2-z
1/2-x,1/2+y,1/2-z
y,x,-z
-y,-x,-z
-x,-y,-z
1/2+y,1/2-x,1/2-z
x,y,-z
1/2-y,1/2+x,1/2-z
1/2-x,1/2+y,1/2+z
1/2+x,1/2-y,1/2+z
-y,-x,z
y,x,z
loop_
_atom_site_type_symbol
_atom_site_label
_atom_site_fract_x
_atom_site_fract_y
_atom_site_fract_z
Si Si1 0.249521 0.491457 0.258952
Si Si2 0.243481 0.243481 0.137151
Si Si3 0.138687 0.138687 0.218501
Si Si4 0.693829 0.693829 0.267232
Si Si5 0.111473 0.646470 0.570644
Si Si6 0.010540 0.593056 0.844543
Si Si7 0.200961 0.200961 0.350589
Si Si8 0.805744 0.446907 0.126601
O O1 0.325318 0.547767 0.279730
O O2 0.280816 0.399968 0.265335
O O3 0.166908 0.503361 0.298023
O O4 0.221890 0.514587 0.191075
O O5 0.177063 0.177063 0.157861
O O6 0.272651 0.272651 0.203258
O O7 0.200980 0.317769 0.101628
O O8 0.170552 0.170552 0.284269
O O9 0.733143 0.733143 0.327359
O O10 0.127868 0.636673 0.500000
O O11 0.104555 0.558663 0.604169
O O12 0.023035 0.688339 0.581487
O O13 0.000000 0.500000 0.820261
O O14 0.104155 0.592884 0.866979
O O15 0.242411 0.125954 0.385107
#
# Coordination Sequence:
#
# PCOD9569634 Si02
#       8
#    16   8   8   8  16  16   8  16
#     4  11  20  35  52  84 115 145 181 225 279 331
#     4  11  19  38  55  84 108 151 183 230 265 328
#     4   9  20  32  54  78 116 142 180 222 274 336
#     4  11  20  32  58  82 117 137 184 225 274 337
#     4  11  23  38  56  80 113 150 189 230 271 325
#     4  10  22  30  52  83 113 146 175 227 281 335
#     4   9  18  32  50  80 108 145 177 226 278 329
#     4  10  21  33  53  78 112 146 184 226 278 331
#
# _framework density 16.231482
#
# number of rings (size 3 to 8) (size 9 to 14) (size 15 to 20)
#    0.000    1.667    5.000    0.250    4.667    3.333 
#    0.000    0.417    0.000    0.500    0.000    1.750 
#    0.000    1.333    0.000    0.000    0.000    0.000 
#
# Total GULP energy -534751.274762 kJ/mol
# GULP energy per Si atom -5570.325779 kJ/mol
# Density = 1.619454 g / cm^3
# Si number density = 16.231482 Si / 1000 Ang^3
#
#
#
# Elastic Constant Matrix: (Units=GPa)
#
#
# Indices 1 2 3 4 5 6 
#
# 1 47.3357 41.3314 16.9414 0.0000 0.0000 0.0000
# 2 41.3314 47.3357 16.9414 0.0000 0.0000 0.0000
# 3 16.9414 16.9414 51.0444 0.0000 0.0000 0.0000
# 4 0.0000 0.0000 0.0000 12.7094 0.0000 0.0000
# 5 0.0000 0.0000 0.0000 0.0000 12.7094 0.0000
# 6 0.0000 0.0000 0.0000 0.0000 0.0000 35.0704
#
#
#
# Elastic Compliance Matrix: (Units=1/GPa)
#
#
# Indices 1 2 3 4 5 6 
#
# 1 0.089731 -0.076815 -0.004287 0.000000 0.000000 0.000000
# 2 -0.076815 0.089731 -0.004287 0.000000 0.000000 0.000000
# 3 -0.004287 -0.004287 0.022436 0.000000 0.000000 0.000000
# 4 0.000000 0.000000 0.000000 0.078682 0.000000 0.000000
# 5 0.000000 0.000000 0.000000 0.000000 0.078682 0.000000
# 6 0.000000 0.000000 0.000000 0.000000 0.000000 0.028514
#
#
# Mechanical properties :
#
#
# Convention : Reuss Voigt Hill
#
# Bulk Modulus (GPa) = 32.13207 32.90488 32.51848
# Shear Modulus (GPa) = 8.78846 16.79797 12.79321
#
# Velocity S-wave (km/s) = 2.32942 3.22048 2.81049
# Velocity P-wave (km/s) = 5.20327 5.84336 5.53258
#
# Compressibility (1/GPa) = 0.03112155
#
# Stress axis : x y z
#
# Youngs Moduli (GPa) = 11.14438 11.14438 44.57050
#
# Poissons Ratio (x) = 0.85606 0.19107
# Poissons Ratio (y) = 0.85606 0.19107
# Poissons Ratio (z) = 0.04777 0.04777
#
# Static dielectric constant tensor:
#      x y z
#    x 1.561750 0.000000 0.000000 
#    y 0.000000 1.561750 0.000000 
#    z 0.000000 0.000000 1.512070 
# 
# From -- ./inp_files/8445.got.cif
#   From: 2010.05.17/outbox.cif.g08.bks.cpg/sg136_5_cif.got.tgz:8445.got - 2010.05.20 12:54:53.
