data_PCOD9569901
_publ_section_title
;
Structure prediction by ZEFSAII (Michael W. Deem and Ramdas Pophale) SiO2 
 PCOD9569901
Probable space group: P 42/M N M
;
_chemical_formula_sum "Si O2"
_cell_formula_units_Z 96
_cell_length_a 15.000000
_cell_length_b 15.000000
_cell_length_c 21.000000
_cell_angle_alpha 90.000000
_cell_angle_beta 90.000000
_cell_angle_gamma 90.000000
_cell_volume 4725.000000
_symmetry_space_group_name_H-M "P 42/M N M"
_symmetry_group_IT_number 136
_symmetry_cell_setting 'tetragonal'
loop_
_space_group_symop_operation_xyz
x,y,z
1/2-y,1/2+x,1/2+z
-x,-y,z
1/2+y,1/2-x,1/2+z
1/2+x,1/2-y,1/2-z
1/2-x,1/2+y,1/2-z
y,x,-z
-y,-x,-z
-x,-y,-z
1/2+y,1/2-x,1/2-z
x,y,-z
1/2-y,1/2+x,1/2-z
1/2-x,1/2+y,1/2+z
1/2+x,1/2-y,1/2+z
-y,-x,z
y,x,z
loop_
_atom_site_type_symbol
_atom_site_label
_atom_site_fract_x
_atom_site_fract_y
_atom_site_fract_z
Si Si1 0.526553 0.331029 0.246812
Si Si2 0.641902 0.495537 0.903017
Si Si3 0.730984 0.411937 0.573426
Si Si4 0.169744 0.321935 0.252427
Si Si5 0.405418 0.265900 0.647260
Si Si6 0.874538 0.278355 0.382595
O O1 0.587647 0.412354 0.269692
O O2 0.505149 0.352581 0.173915
O O3 0.584004 0.240513 0.252566
O O4 0.442982 0.316374 0.290565
O O5 0.600939 0.399062 0.921817
O O6 0.567419 0.567419 0.923387
O O7 0.738651 0.537817 0.916889
O O8 0.711141 0.424443 0.500000
O O9 0.651758 0.348243 0.600847
O O10 0.740555 0.508159 0.604186
O O11 0.820867 0.354930 0.581338
O O12 0.251825 0.251825 0.253378
O O13 0.175185 0.370224 0.320535
O O14 0.184534 0.382559 0.189887
O O15 0.325096 0.325096 0.619301
O O16 0.805437 0.194564 0.379333
#
# Coordination Sequence:
#
# PCOD9569901 Si02
#       6
#    16  16  16  16  16  16
#     4  10  17  26  42  67  99 130 160 200 261 330
#     4   9  16  25  43  73 101 122 152 206 277 336
#     4  10  21  35  51  72 103 149 191 215 248 307
#     4   9  17  28  43  66  97 135 172 214 266 319
#     4  11  20  30  47  72 103 138 179 225 267 305
#     4   9  15  28  46  66  98 135 173 213 258 324
#
# _framework density 20.317460000000001
#
# number of rings (size 3 to 8) (size 9 to 14) (size 15 to 20)
#    0.000    2.333    3.333    1.000    0.000    2.333 
#    0.000    0.833    0.000    4.000    0.000    5.833 
#    0.000    4.000    0.000    0.167    0.000    0.000 
#
# Total GULP energy -534425.262365 kJ/mol
# GULP energy per Si atom -5566.929816 kJ/mol
# Density = 2.027122 g / cm^3
# Si number density = 20.317460 Si / 1000 Ang^3
#
#
#
# Elastic Constant Matrix: (Units=GPa)
#
#
# Indices 1 2 3 4 5 6 
#
# 1 82.6015 11.8402 11.2540 0.0000 0.0000 0.0000
# 2 11.8402 82.6015 11.2540 0.0000 0.0000 0.0000
# 3 11.2540 11.2540 60.2379 0.0000 0.0000 0.0000
# 4 0.0000 0.0000 0.0000 -2.0756 0.0000 0.0000
# 5 0.0000 0.0000 0.0000 0.0000 -2.0756 0.0000
# 6 0.0000 0.0000 0.0000 0.0000 0.0000 33.4247
#
#
#
# Elastic Compliance Matrix: (Units=1/GPa)
#
#
# Indices 1 2 3 4 5 6 
#
# 1 0.012607 -0.001525 -0.002070 0.000000 0.000000 0.000000
# 2 -0.001525 0.012607 -0.002070 0.000000 0.000000 0.000000
# 3 -0.002070 -0.002070 0.017374 0.000000 0.000000 0.000000
# 4 0.000000 0.000000 0.000000 -0.481790 0.000000 0.000000
# 5 0.000000 0.000000 0.000000 0.000000 -0.481790 0.000000
# 6 0.000000 0.000000 0.000000 0.000000 0.000000 0.029918
#
#
# Mechanical properties :
#
#
# Convention : Reuss Voigt Hill
#
# Bulk Modulus (GPa) = 31.99304 32.68192 32.33748
# Shear Modulus (GPa) = -5.75160 18.59423 6.42131
#
# Velocity S-wave (km/s) = -1.68434 3.02848 1.77971
# Velocity P-wave (km/s) = 3.46382 5.32443 4.49152
#
# Compressibility (1/GPa) = 0.03125680
#
# Stress axis : x y z
#
# Youngs Moduli (GPa) = 79.32107 79.32107 57.55574
#
# Poissons Ratio (x) = 0.12097 0.11916
# Poissons Ratio (y) = 0.12097 0.11916
# Poissons Ratio (z) = 0.16423 0.16423
#
# Static dielectric constant tensor:
#      x y z
#    x 1.770580 0.000000 0.000000 
#    y 0.000000 1.770580 0.000000 
#    z 0.000000 0.000000 1.766250 
# 
# From -- ./inp_files/7490.got.cif
#   From: 2010.05.17/outbox.ucp.g08.bks.cvg/sg136_4_cif.got.tgz:7490.got - 2010.06.11 11:40:42.
