data_PCOD9569670
_publ_section_title
;
Structure prediction by ZEFSAII (Michael W. Deem and Ramdas Pophale) SiO2 
 PCOD9569670
Probable space group: P 42/M N M
;
_chemical_formula_sum "Si O2"
_cell_formula_units_Z 64
_cell_length_a 19.697715
_cell_length_b 19.697715
_cell_length_c 7.734526
_cell_angle_alpha 90.000000
_cell_angle_beta 90.000000
_cell_angle_gamma 90.000000
_cell_volume 3000.995904
_symmetry_space_group_name_H-M "P 42/M N M"
_symmetry_group_IT_number 136
_symmetry_cell_setting 'tetragonal'
loop_
_space_group_symop_operation_xyz
x,y,z
1/2-y,1/2+x,1/2+z
-x,-y,z
1/2+y,1/2-x,1/2+z
1/2+x,1/2-y,1/2-z
1/2-x,1/2+y,1/2-z
y,x,-z
-y,-x,-z
-x,-y,-z
1/2+y,1/2-x,1/2-z
x,y,-z
1/2-y,1/2+x,1/2-z
1/2-x,1/2+y,1/2+z
1/2+x,1/2-y,1/2+z
-y,-x,z
y,x,z
loop_
_atom_site_type_symbol
_atom_site_label
_atom_site_fract_x
_atom_site_fract_y
_atom_site_fract_z
Si Si1 0.606158 0.767539 0.792032
Si Si2 0.127452 0.127452 0.288009
Si Si3 0.866121 0.027617 0.711205
Si Si4 0.476106 0.104327 0.800720
Si Si5 0.236855 0.236855 0.295261
O O1 0.575311 0.696113 0.731810
O O2 0.559680 0.829153 0.727652
O O3 0.685107 0.777357 0.752466
O O4 0.600960 0.767597 0.000000
O O5 0.128330 0.128330 0.500000
O O6 0.182423 0.182423 0.225263
O O7 0.050049 0.142674 0.233883
O O8 0.866009 0.026985 0.500000
O O9 0.936089 0.063912 0.764200
O O10 0.577648 0.957282 0.794418
O O11 0.495744 0.116362 0.000000
O O12 0.232168 0.232168 0.500000
#
# Coordination Sequence:
#
# PCOD9569670 Si02
#       5
#    16   8  16  16   8
#     4  10  21  37  57  79 111 152 188 223 275 340
#     4   9  19  31  52  87 112 134 175 229 284 319
#     4   9  16  31  55  80 107 140 178 223 271 328
#     4  10  21  36  57  82 112 148 189 238 283 338
#     4  11  23  36  55  83 117 146 181 236 277 328
#
# _framework density 21.326253000000001
#
# number of rings (size 3 to 8) (size 9 to 14) (size 15 to 20)
#    0.000    2.250    1.250    2.250    3.500    3.500 
#    0.000    0.000    0.000    0.000    0.000    0.875 
#    0.000    0.000    0.000    0.000    0.000    0.000 
#
# Total GULP energy -357390.366673 kJ/mol
# GULP energy per Si atom -5584.224479 kJ/mol
# Density = 2.127771 g / cm^3
# Si number density = 21.326253 Si / 1000 Ang^3
#
#
#
# Elastic Constant Matrix: (Units=GPa)
#
#
# Indices 1 2 3 4 5 6 
#
# 1 173.9472 34.3388 -3.2764 0.0000 0.0000 0.0000
# 2 34.3388 173.9472 -3.2764 0.0000 0.0000 0.0000
# 3 -3.2764 -3.2764 34.0907 0.0000 0.0000 0.0000
# 4 0.0000 0.0000 0.0000 5.2239 0.0000 0.0000
# 5 0.0000 0.0000 0.0000 0.0000 5.2239 0.0000
# 6 0.0000 0.0000 0.0000 0.0000 0.0000 42.0935
#
#
#
# Elastic Compliance Matrix: (Units=1/GPa)
#
#
# Indices 1 2 3 4 5 6 
#
# 1 0.005989 -0.001174 0.000463 0.000000 0.000000 0.000000
# 2 -0.001174 0.005989 0.000463 0.000000 0.000000 0.000000
# 3 0.000463 0.000463 0.029422 0.000000 0.000000 0.000000
# 4 0.000000 0.000000 0.000000 0.191427 0.000000 0.000000
# 5 0.000000 0.000000 0.000000 0.000000 0.191427 0.000000
# 6 0.000000 0.000000 0.000000 0.000000 0.000000 0.023757
#
#
# Mechanical properties :
#
#
# Convention : Reuss Voigt Hill
#
# Bulk Modulus (GPa) = 24.44686 48.61744 36.53215
# Shear Modulus (GPa) = 10.81918 34.12155 22.47037
#
# Velocity S-wave (km/s) = 2.25481 4.00431 3.24952
# Velocity P-wave (km/s) = 4.27400 6.65025 5.58985
#
# Compressibility (1/GPa) = 0.04090505
#
# Stress axis : x y z
#
# Youngs Moduli (GPa) = 166.96515 166.96515 33.98767
#
# Poissons Ratio (x) = 0.19595 -0.01573
# Poissons Ratio (y) = 0.19595 -0.01573
# Poissons Ratio (z) = -0.07728 -0.07728
#
# Static dielectric constant tensor:
#      x y z
#    x 1.792540 0.000000 0.000000 
#    y 0.000000 1.792540 0.000000 
#    z 0.000000 0.000000 1.795370 
# 
# From -- ./inp_files/1466.got.cif
#   From: 2010.05.17/outbox.cif.g08.bks.cpg/sg136_1_cif.got.tgz:1466.got - 2010.05.20 12:54:53.
