data_PCOD9569478
_publ_section_title
;
Structure prediction by ZEFSAII (Michael W. Deem and Ramdas Pophale) SiO2 
 PCOD9569478
Probable space group: P 42/M N M
;
_chemical_formula_sum "Si O2"
_cell_formula_units_Z 96
_cell_length_a 24.668841
_cell_length_b 24.668841
_cell_length_c 7.658192
_cell_angle_alpha 90.000000
_cell_angle_beta 90.000000
_cell_angle_gamma 90.000000
_cell_volume 4660.405885
_symmetry_space_group_name_H-M "P 42/M N M"
_symmetry_group_IT_number 136
_symmetry_cell_setting 'tetragonal'
loop_
_space_group_symop_operation_xyz
x,y,z
1/2-y,1/2+x,1/2+z
-x,-y,z
1/2+y,1/2-x,1/2+z
1/2+x,1/2-y,1/2-z
1/2-x,1/2+y,1/2-z
y,x,-z
-y,-x,-z
-x,-y,-z
1/2+y,1/2-x,1/2-z
x,y,-z
1/2-y,1/2+x,1/2-z
1/2-x,1/2+y,1/2+z
1/2+x,1/2-y,1/2+z
-y,-x,z
y,x,z
loop_
_atom_site_type_symbol
_atom_site_label
_atom_site_fract_x
_atom_site_fract_y
_atom_site_fract_z
Si Si1 0.572146 0.802343 0.714768
Si Si2 0.522656 0.916125 0.701844
Si Si3 0.218106 0.132442 0.210855
Si Si4 0.913043 0.999009 0.289345
Si Si5 0.288478 0.511324 0.707247
Si Si6 0.278789 0.806861 0.208616
O O1 0.573604 0.803404 0.500000
O O2 0.549514 0.861034 0.770697
O O3 0.532214 0.754488 0.773910
O O4 0.632926 0.789324 0.775753
O O5 0.466869 0.936085 0.788406
O O6 0.508754 0.906679 0.500000
O O7 0.165022 0.165022 0.273139
O O8 0.220637 0.071646 0.279512
O O9 0.269380 0.169035 0.258503
O O10 0.215267 0.130400 0.000000
O O11 0.913566 0.998561 0.500000
O O12 0.944178 0.944178 0.230240
O O13 0.851294 0.003218 0.232508
O O14 0.950731 0.049269 0.232234
O O15 0.278749 0.514083 0.500000
O O16 0.226954 0.773047 0.277999
O O17 0.271554 0.811100 0.000000
#
# Coordination Sequence:
#
# PCOD9569478 Si02
#       6
#    16  16  16  16  16  16
#     4   9  20  35  52  78 109 138 172 218 264 309
#     4  10  20  36  56  78 105 137 175 219 267 317
#     4   9  18  32  51  76 104 132 165 212 262 303
#     4   9  19  36  55  76 107 144 177 214 261 309
#     4  10  20  34  53  79 107 136 172 216 264 311
#     4   9  18  34  54  73  97 134 175 210 250 305
#
# _framework density 20.599065
#
# number of rings (size 3 to 8) (size 9 to 14) (size 15 to 20)
#    0.000    2.667    0.000    2.000    2.333    2.667 
#    0.000    7.500    0.000    2.000    0.000    0.000 
#    0.000    0.000    0.000    0.000    0.000    0.000 
#
# Total GULP energy -535815.355433 kJ/mol
# GULP energy per Si atom -5581.409952 kJ/mol
# Density = 2.055218 g / cm^3
# Si number density = 20.599065 Si / 1000 Ang^3
#
#
#
# Elastic Constant Matrix: (Units=GPa)
#
#
# Indices 1 2 3 4 5 6 
#
# 1 194.3279 97.7747 -5.9742 0.0000 0.0000 0.0000
# 2 97.7747 194.3279 -5.9742 0.0000 0.0000 0.0000
# 3 -5.9742 -5.9742 33.8435 0.0000 0.0000 0.0000
# 4 0.0000 0.0000 0.0000 16.0033 0.0000 0.0000
# 5 0.0000 0.0000 0.0000 0.0000 16.0033 0.0000
# 6 0.0000 0.0000 0.0000 0.0000 0.0000 14.3069
#
#
#
# Elastic Compliance Matrix: (Units=1/GPa)
#
#
# Indices 1 2 3 4 5 6 
#
# 1 0.006903 -0.003454 0.000609 0.000000 0.000000 0.000000
# 2 -0.003454 0.006903 0.000609 0.000000 0.000000 0.000000
# 3 0.000609 0.000609 0.029763 0.000000 0.000000 0.000000
# 4 0.000000 0.000000 0.000000 0.062487 0.000000 0.000000
# 5 0.000000 0.000000 0.000000 0.000000 0.062487 0.000000
# 6 0.000000 0.000000 0.000000 0.000000 0.000000 0.069896
#
#
# Mechanical properties :
#
#
# Convention : Reuss Voigt Hill
#
# Bulk Modulus (GPa) = 25.57917 66.01687 45.79802
# Shear Modulus (GPa) = 19.53553 31.70756 25.62154
#
# Velocity S-wave (km/s) = 3.08290 3.92761 3.53061
# Velocity P-wave (km/s) = 5.01168 7.25853 6.23711
#
# Compressibility (1/GPa) = 0.03909432
#
# Stress axis : x y z
#
# Youngs Moduli (GPa) = 144.87146 144.87146 33.59908
#
# Poissons Ratio (x) = 0.50043 -0.02045
# Poissons Ratio (y) = 0.50043 -0.02045
# Poissons Ratio (z) = -0.08819 -0.08819
#
# Static dielectric constant tensor:
#      x y z
#    x 1.713730 0.000000 0.000000 
#    y 0.000000 1.713730 0.000000 
#    z 0.000000 0.000000 1.765750 
# 
# From -- ./inp_files/1974.got.cif
#   From: 2010.05.17/outbox.cif.g08.bks.cpg/sg136_1_cif.got.tgz:1974.got - 2010.05.20 12:54:53.
