data_PCOD9569052
_publ_section_title
;
Structure prediction by ZEFSAII (Michael W. Deem and Ramdas Pophale) SiO2 
 PCOD9569052
Probable space group: P 42/M B C
;
_chemical_formula_sum "Si O2"
_cell_formula_units_Z 48
_cell_length_a 9.074424
_cell_length_b 9.074424
_cell_length_c 25.538661
_cell_angle_alpha 90.000000
_cell_angle_beta 90.000000
_cell_angle_gamma 90.000000
_cell_volume 2102.985405
_symmetry_space_group_name_H-M "P 42/M B C"
_symmetry_group_IT_number 135
_symmetry_cell_setting 'tetragonal'
loop_
_space_group_symop_operation_xyz
x,y,z
-y,x,1/2+z
-x,-y,z
y,-x,1/2+z
1/2+x,1/2-y,-z
1/2-x,1/2+y,-z
1/2+y,1/2+x,1/2-z
1/2-y,1/2-x,1/2-z
-x,-y,-z
y,-x,1/2-z
x,y,-z
-y,x,1/2-z
1/2-x,1/2+y,z
1/2+x,1/2-y,z
1/2-y,1/2-x,1/2+z
1/2+y,1/2+x,1/2+z
loop_
_atom_site_type_symbol
_atom_site_label
_atom_site_fract_x
_atom_site_fract_y
_atom_site_fract_z
Si Si1 0.924499 0.651347 0.382208
Si Si2 0.718997 0.566840 0.771798
Si Si3 0.868583 0.883381 0.939491
O O1 0.929067 0.766028 0.334172
O O2 0.759236 0.625642 0.402489
O O3 0.000000 0.500000 0.364887
O O4 0.026012 0.720455 0.427457
O O5 0.871178 0.628823 0.750000
O O6 0.673766 0.408897 0.749745
O O7 0.874377 0.835752 0.000000
O O8 0.000000 0.000000 0.930647
#
# Coordination Sequence:
#
# PCOD9569052 Si02
#       3
#    16  16  16
#     4  12  27  46  77 107 149 203 253 314 392 462
#     4  11  28  47  73 108 148 192 249 309 375 451
#     4  11  26  47  76 112 153 197 251 318 384 463
#
# _framework density 22.824695999999999
#
# number of rings (size 3 to 8) (size 9 to 14) (size 15 to 20)
#    0.000    0.667    0.000    5.000   18.667    5.333 
#    0.000    0.000    0.000    0.000    0.000    0.000 
#    0.000    0.000    0.000    0.000    0.000    0.000 
#
# Total GULP energy -268895.451742 kJ/mol
# GULP energy per Si atom -5601.988578 kJ/mol
# Density = 2.277275 g / cm^3
# Si number density = 22.824696 Si / 1000 Ang^3
#
#
#
# Elastic Constant Matrix: (Units=GPa)
#
#
# Indices 1 2 3 4 5 6 
#
# 1 107.5471 62.7585 58.6099 0.0000 0.0000 0.0000
# 2 62.7585 107.5514 58.6088 0.0000 0.0000 0.0000
# 3 58.6099 58.6088 131.3384 0.0000 0.0000 0.0000
# 4 0.0000 0.0000 0.0000 16.1646 0.0000 0.0000
# 5 0.0000 0.0000 0.0000 0.0000 16.1648 0.0000
# 6 0.0000 0.0000 0.0000 0.0000 0.0000 52.6911
#
#
#
# Elastic Compliance Matrix: (Units=1/GPa)
#
#
# Indices 1 2 3 4 5 6 
#
# 1 0.015401 -0.006926 -0.003782 0.000000 0.000000 0.000000
# 2 -0.006926 0.015400 -0.003781 0.000000 0.000000 0.000000
# 3 -0.003782 -0.003781 0.010989 0.000000 0.000000 0.000000
# 4 0.000000 0.000000 0.000000 0.061863 0.000000 0.000000
# 5 0.000000 0.000000 0.000000 0.000000 0.061863 0.000000
# 6 0.000000 0.000000 0.000000 0.000000 0.000000 0.018979
#
#
# Mechanical properties :
#
#
# Convention : Reuss Voigt Hill
#
# Bulk Modulus (GPa) = 78.05618 78.48791 78.27205
# Shear Modulus (GPa) = 22.96280 28.10143 25.53211
#
# Velocity S-wave (km/s) = 3.17527 3.51263 3.34820
# Velocity P-wave (km/s) = 6.90764 7.13536 7.02242
#
# Compressibility (1/GPa) = 0.01281129
#
# Stress axis : x y z
#
# Youngs Moduli (GPa) = 64.93154 64.93578 90.99904
#
# Poissons Ratio (x) = 0.44973 0.34417
# Poissons Ratio (y) = 0.44970 0.34411
# Poissons Ratio (z) = 0.24558 0.24555
#
# Static dielectric constant tensor:
#      x y z
#    x 1.825720 0.000000 0.000000 
#    y 0.000000 1.825720 0.000000 
#    z 0.000000 0.000000 1.877920 
# 
# From -- ./inp_files/6573.got.cif
#   From: 2010.05.17/outbox.cif.g08.bks.cpg/sg135_4_cif.got.tgz:6573.got - 2010.05.20 12:50:20.
