data_PCOD9569787
_publ_section_title
;
Structure prediction by ZEFSAII (Michael W. Deem and Ramdas Pophale) SiO2 
 PCOD9569787
Probable space group: P 42/M N M
;
_chemical_formula_sum "Si O2"
_cell_formula_units_Z 52
_cell_length_a 15.915990
_cell_length_b 15.915990
_cell_length_c 9.542442
_cell_angle_alpha 90.000000
_cell_angle_beta 90.000000
_cell_angle_gamma 90.000000
_cell_volume 2417.279362
_symmetry_space_group_name_H-M "P 42/M N M"
_symmetry_group_IT_number 136
_symmetry_cell_setting 'tetragonal'
loop_
_space_group_symop_operation_xyz
x,y,z
1/2-y,1/2+x,1/2+z
-x,-y,z
1/2+y,1/2-x,1/2+z
1/2+x,1/2-y,1/2-z
1/2-x,1/2+y,1/2-z
y,x,-z
-y,-x,-z
-x,-y,-z
1/2+y,1/2-x,1/2-z
x,y,-z
1/2-y,1/2+x,1/2-z
1/2-x,1/2+y,1/2+z
1/2+x,1/2-y,1/2+z
-y,-x,z
y,x,z
loop_
_atom_site_type_symbol
_atom_site_label
_atom_site_fract_x
_atom_site_fract_y
_atom_site_fract_z
Si Si1 0.212465 0.072239 0.500000
Si Si2 0.500000 0.000000 0.750000
Si Si3 0.178400 0.301832 0.000000
Si Si4 0.083941 0.781401 0.710322
Si Si5 0.900693 0.463489 0.500000
Si Si6 0.190834 0.376150 0.500000
O O1 0.124779 0.124779 0.500000
O O2 0.285098 0.145058 0.500000
O O3 0.220868 0.007312 0.366410
O O4 0.447980 0.057567 0.856467
O O5 0.219987 0.352776 0.126329
O O6 0.080497 0.312399 0.000000
O O7 0.207729 0.207729 0.000000
O O8 0.126095 0.873906 0.697590
O O9 0.097744 0.746573 0.866324
O O10 0.888808 0.561960 0.500000
#
# Coordination Sequence:
#
# PCOD9569787 Si02
#       6
#     8   4   8  16   8   8
#     4  11  26  48  76 102 132 188 245 276 337 434
#     4  10  24  34  56  90 136 178 212 282 336 418
#     4   9  20  39  63  88 130 184 227 265 333 417
#     4  10  23  44  69 100 139 180 226 290 346 394
#     4  11  23  37  59  93 135 175 223 270 344 409
#     4  12  26  41  69 103 144 176 223 288 353 408
#
# _framework density 21.511787999999999
#
# number of rings (size 3 to 8) (size 9 to 14) (size 15 to 20)
#    0.000    1.538    0.000    4.615   17.231    1.231 
#    0.000    0.769    0.000    1.846    0.000    0.000 
#    0.000    0.000    0.000    0.000    0.000    0.000 
#
# Total GULP energy -289658.713245 kJ/mol
# GULP energy per Si atom -5570.359870 kJ/mol
# Density = 2.146283 g / cm^3
# Si number density = 21.511788 Si / 1000 Ang^3
#
#
#
# Elastic Constant Matrix: (Units=GPa)
#
#
# Indices 1 2 3 4 5 6 
#
# 1 106.8436 60.1519 38.2190 0.0000 0.0000 0.0000
# 2 60.1519 106.8436 38.2190 0.0000 0.0000 0.0000
# 3 38.2190 38.2190 188.5812 0.0000 0.0000 0.0000
# 4 0.0000 0.0000 0.0000 59.6403 0.0000 0.0000
# 5 0.0000 0.0000 0.0000 0.0000 59.6403 0.0000
# 6 0.0000 0.0000 0.0000 0.0000 0.0000 46.9992
#
#
#
# Elastic Compliance Matrix: (Units=1/GPa)
#
#
# Indices 1 2 3 4 5 6 
#
# 1 0.014009 -0.007408 -0.001338 0.000000 0.000000 0.000000
# 2 -0.007408 0.014009 -0.001338 0.000000 0.000000 0.000000
# 3 -0.001338 -0.001338 0.005845 0.000000 0.000000 0.000000
# 4 0.000000 0.000000 0.000000 0.016767 0.000000 0.000000
# 5 0.000000 0.000000 0.000000 0.000000 0.016767 0.000000
# 6 0.000000 0.000000 0.000000 0.000000 0.000000 0.021277
#
#
# Mechanical properties :
#
#
# Convention : Reuss Voigt Hill
#
# Bulk Modulus (GPa) = 73.01852 75.04979 74.03416
# Shear Modulus (GPa) = 44.08924 50.96785 47.52855
#
# Velocity S-wave (km/s) = 4.53209 4.87282 4.70554
# Velocity P-wave (km/s) = 7.83605 8.16227 8.00083
#
# Compressibility (1/GPa) = 0.01369516
#
# Stress axis : x y z
#
# Youngs Moduli (GPa) = 71.38372 71.38372 171.08741
#
# Poissons Ratio (x) = 0.52883 0.22886
# Poissons Ratio (y) = 0.52883 0.22886
# Poissons Ratio (z) = 0.09549 0.09549
#
# Static dielectric constant tensor:
#      x y z
#    x 1.803860 0.000000 0.000000 
#    y 0.000000 1.803860 0.000000 
#    z 0.000000 0.000000 1.868010 
# 
# From -- ./inp_files/1079.got.cif
#   From: 2010.05.17/outbox.cif.g08.bks.cpg/sg136_1_cif.got.tgz:1079.got - 2010.05.20 12:54:53.
