data_PCOD9569714
_publ_section_title
;
Structure prediction by ZEFSAII (Michael W. Deem and Ramdas Pophale) SiO2 
 PCOD9569714
Probable space group: P 42/M N M
;
_chemical_formula_sum "Si O2"
_cell_formula_units_Z 96
_cell_length_a 14.550717
_cell_length_b 14.550717
_cell_length_c 19.861180
_cell_angle_alpha 90.000000
_cell_angle_beta 90.000000
_cell_angle_gamma 90.000000
_cell_volume 4205.075867
_symmetry_space_group_name_H-M "P 42/M N M"
_symmetry_group_IT_number 136
_symmetry_cell_setting 'tetragonal'
loop_
_space_group_symop_operation_xyz
x,y,z
1/2-y,1/2+x,1/2+z
-x,-y,z
1/2+y,1/2-x,1/2+z
1/2+x,1/2-y,1/2-z
1/2-x,1/2+y,1/2-z
y,x,-z
-y,-x,-z
-x,-y,-z
1/2+y,1/2-x,1/2-z
x,y,-z
1/2-y,1/2+x,1/2-z
1/2-x,1/2+y,1/2+z
1/2+x,1/2-y,1/2+z
-y,-x,z
y,x,z
loop_
_atom_site_type_symbol
_atom_site_label
_atom_site_fract_x
_atom_site_fract_y
_atom_site_fract_z
Si Si1 0.708547 0.564869 0.419233
Si Si2 0.667963 0.903518 0.922253
Si Si3 0.921230 0.078771 0.692262
Si Si4 0.065169 0.385367 0.214017
Si Si5 0.289013 0.132696 0.423952
Si Si6 0.815101 0.184900 0.423209
Si Si7 0.434822 0.718190 0.790664
O O1 0.698606 0.567155 0.500000
O O2 0.618433 0.618433 0.391638
O O3 0.738114 0.460310 0.404870
O O4 0.798564 0.627585 0.404953
O O5 0.598779 0.936974 0.864881
O O6 0.672085 0.794269 0.914762
O O7 0.645503 0.924997 0.000000
O O8 0.876734 0.123267 0.625566
O O9 0.971883 0.164486 0.727448
O O10 0.000000 0.000000 0.679647
O O11 0.116642 0.464530 0.253532
O O12 0.103110 0.287354 0.235045
O O13 0.303873 0.094978 0.500000
O O14 0.201184 0.201184 0.428396
O O15 0.269276 0.062216 0.363510
O O16 0.838974 0.161027 0.500000
O O17 0.360416 0.639585 0.799325
#
# Coordination Sequence:
#
# PCOD9569714 Si02
#       7
#    16  16   8  16  16   8  16
#     4   8  14  28  53  86 121 157 202 255 304 358
#     4  10  21  39  63  90 126 171 217 266 324 390
#     4  10  22  41  62  87 122 160 210 274 327 387
#     4  11  24  42  62  92 129 164 213 266 319 389
#     4   8  14  27  51  84 121 157 199 248 302 365
#     4  10  22  39  61  90 124 168 218 262 328 406
#     4  10  21  38  60  88 120 159 205 255 317 381
#
# _framework density 22.829554000000002
#
# number of rings (size 3 to 8) (size 9 to 14) (size 15 to 20)
#    0.000    2.500    0.000    3.000    1.167    0.833 
#    3.000    4.583    0.000    2.500    0.000    0.000 
#    0.000    0.000    0.000    0.000    0.000    0.000 
#
# Total GULP energy -535209.946706 kJ/mol
# GULP energy per Si atom -5575.103612 kJ/mol
# Density = 2.277759 g / cm^3
# Si number density = 22.829554 Si / 1000 Ang^3
#
#
#
# Elastic Constant Matrix: (Units=GPa)
#
#
# Indices 1 2 3 4 5 6 
#
# 1 45.4879 -3.1199 7.0001 0.0000 0.0000 0.0000
# 2 -3.1199 45.4880 7.0000 0.0000 0.0000 0.0000
# 3 7.0001 7.0000 101.0387 0.0000 0.0000 0.0000
# 4 0.0000 0.0000 0.0000 16.8859 0.0000 0.0000
# 5 0.0000 0.0000 0.0000 0.0000 16.8859 0.0000
# 6 0.0000 0.0000 0.0000 0.0000 0.0000 12.7225
#
#
#
# Elastic Compliance Matrix: (Units=1/GPa)
#
#
# Indices 1 2 3 4 5 6 
#
# 1 0.022364 0.001791 -0.001674 0.000000 0.000000 0.000000
# 2 0.001791 0.022364 -0.001674 0.000000 0.000000 0.000000
# 3 -0.001674 -0.001674 0.010129 0.000000 0.000000 0.000000
# 4 0.000000 0.000000 0.000000 0.059221 0.000000 0.000000
# 5 0.000000 0.000000 0.000000 0.000000 0.059221 0.000000
# 6 0.000000 0.000000 0.000000 0.000000 0.000000 0.078601
#
#
# Mechanical properties :
#
#
# Convention : Reuss Voigt Hill
#
# Bulk Modulus (GPa) = 19.32506 23.75280 21.53893
# Shear Modulus (GPa) = 18.36478 21.37449 19.86963
#
# Velocity S-wave (km/s) = 2.83932 3.06316 2.95337
# Velocity P-wave (km/s) = 4.38547 4.78932 4.59184
#
# Compressibility (1/GPa) = 0.05174629
#
# Stress axis : x y z
#
# Youngs Moduli (GPa) = 44.71419 44.71429 98.72560
#
# Poissons Ratio (x) = -0.08010 0.16522
# Poissons Ratio (y) = -0.08010 0.16522
# Poissons Ratio (z) = 0.07483 0.07483
#
# Static dielectric constant tensor:
#      x y z
#    x 1.912720 0.000000 0.000000 
#    y 0.000000 1.912720 0.000000 
#    z 0.000000 0.000000 2.044960 
# 
# From -- ./inp_files/7526.got.cif
#   From: 2010.05.17/outbox.cif.g08.bks.cpg/sg136_4_cif.got.tgz:7526.got - 2010.05.20 12:54:53.
