data_PCOD9569470
_publ_section_title
;
Structure prediction by ZEFSAII (Michael W. Deem and Ramdas Pophale) SiO2 
 PCOD9569470
Probable space group: P 42/M N M
;
_chemical_formula_sum "Si O2"
_cell_formula_units_Z 96
_cell_length_a 25.317429
_cell_length_b 25.317429
_cell_length_c 9.220626
_cell_angle_alpha 90.000000
_cell_angle_beta 90.000000
_cell_angle_gamma 90.000000
_cell_volume 5910.165036
_symmetry_space_group_name_H-M "P 42/M N M"
_symmetry_group_IT_number 136
_symmetry_cell_setting 'tetragonal'
loop_
_space_group_symop_operation_xyz
x,y,z
1/2-y,1/2+x,1/2+z
-x,-y,z
1/2+y,1/2-x,1/2+z
1/2+x,1/2-y,1/2-z
1/2-x,1/2+y,1/2-z
y,x,-z
-y,-x,-z
-x,-y,-z
1/2+y,1/2-x,1/2-z
x,y,-z
1/2-y,1/2+x,1/2-z
1/2-x,1/2+y,1/2+z
1/2+x,1/2-y,1/2+z
-y,-x,z
y,x,z
loop_
_atom_site_type_symbol
_atom_site_label
_atom_site_fract_x
_atom_site_fract_y
_atom_site_fract_z
Si Si1 0.107139 0.254771 0.830354
Si Si2 0.128647 0.578961 0.673521
Si Si3 0.573621 0.426380 0.825681
Si Si4 0.237793 0.982190 0.828657
Si Si5 0.661863 0.338138 0.171921
Si Si6 0.382053 0.469090 0.673531
Si Si7 0.530177 0.846112 0.173470
O O1 0.109272 0.316660 0.793837
O O2 0.143270 0.217180 0.736443
O O3 0.045803 0.238377 0.809900
O O4 0.119675 0.247794 0.000000
O O5 0.129174 0.568057 0.500000
O O6 0.131375 0.523727 0.757550
O O7 0.078382 0.614715 0.707913
O O8 0.617746 0.382255 0.788967
O O9 0.592412 0.481631 0.757475
O O10 0.569578 0.430423 0.000000
O O11 0.179533 0.962658 0.786060
O O12 0.287726 0.961184 0.739491
O O13 0.246008 0.971748 0.000000
O O14 0.664378 0.335623 0.000000
O O15 0.383354 0.480453 0.500000
O O16 0.417401 0.417401 0.699651
O O17 0.525093 0.842507 0.000000
#
# Coordination Sequence:
#
# PCOD9569470 Si02
#       7
#    16  16   8  16   8  16  16
#     4   9  17  32  53  71  94 133 172 205 248 302
#     4   9  20  37  54  79 109 137 170 206 249 306
#     4  11  22  32  45  72 110 138 162 218 274 306
#     4   9  18  33  52  74 100 133 171 210 252 301
#     4  11  21  30  46  75 104 128 166 220 264 301
#     4  10  20  34  52  72  97 136 181 216 251 309
#     4  10  20  34  56  81 106 135 168 208 253 303
#
# _framework density 16.243200000000002
#
# number of rings (size 3 to 8) (size 9 to 14) (size 15 to 20)
#    0.000    2.333    1.667    2.250    0.000    7.000 
#    0.000    1.667    1.833    0.000    0.000    0.000 
#    0.000    0.000    0.000    0.000    0.000    0.000 
#
# Total GULP energy -535471.377058 kJ/mol
# GULP energy per Si atom -5577.826844 kJ/mol
# Density = 1.620623 g / cm^3
# Si number density = 16.243200 Si / 1000 Ang^3
#
#
#
# Elastic Constant Matrix: (Units=GPa)
#
#
# Indices 1 2 3 4 5 6 
#
# 1 121.2602 92.6446 62.4863 0.0000 0.0000 0.0000
# 2 92.6446 121.2608 62.4870 0.0000 0.0000 0.0000
# 3 62.4863 62.4870 48.7967 0.0000 0.0000 0.0000
# 4 0.0000 0.0000 0.0000 24.1234 0.0000 0.0000
# 5 0.0000 0.0000 0.0000 0.0000 24.1234 0.0000
# 6 0.0000 0.0000 0.0000 0.0000 0.0000 21.7964
#
#
#
# Elastic Compliance Matrix: (Units=1/GPa)
#
#
# Indices 1 2 3 4 5 6 
#
# 1 0.026754 -0.008191 -0.023770 0.000000 0.000000 0.000000
# 2 -0.008191 0.026755 -0.023772 0.000000 0.000000 0.000000
# 3 -0.023770 -0.023772 0.081373 0.000000 0.000000 0.000000
# 4 0.000000 0.000000 0.000000 0.041454 0.000000 0.000000
# 5 0.000000 0.000000 0.000000 0.000000 0.041454 0.000000
# 6 0.000000 0.000000 0.000000 0.000000 0.000000 0.045879
#
#
# Mechanical properties :
#
#
# Convention : Reuss Voigt Hill
#
# Bulk Modulus (GPa) = 42.70701 80.72813 61.71757
# Shear Modulus (GPa) = 13.05690 18.92195 15.98942
#
# Velocity S-wave (km/s) = 2.83828 3.41679 3.14088
# Velocity P-wave (km/s) = 6.09019 8.08539 7.15765
#
# Compressibility (1/GPa) = 0.02341536
#
# Stress axis : x y z
#
# Youngs Moduli (GPa) = 37.37765 37.37663 12.28908
#
# Poissons Ratio (x) = 0.30616 0.29211
# Poissons Ratio (y) = 0.30617 0.29213
# Poissons Ratio (z) = 0.88848 0.88850
#
# Static dielectric constant tensor:
#      x y z
#    x 1.529480 0.000000 0.000000 
#    y 0.000000 1.529480 0.000000 
#    z 0.000000 0.000000 1.541210 
# 
# From -- ./inp_files/2042.got.cif
#   From: 2010.05.17/outbox.cif.g08.bks.cpg/sg136_2_cif.got.tgz:2042.got - 2010.05.20 12:54:53.
