data_PCOD9569485
_publ_section_title
;
Structure prediction by ZEFSAII (Michael W. Deem and Ramdas Pophale) SiO2 
 PCOD9569485
Probable space group: P 42/M N M
;
_chemical_formula_sum "Si O2"
_cell_formula_units_Z 88
_cell_length_a 14.273188
_cell_length_b 14.273188
_cell_length_c 22.656570
_cell_angle_alpha 90.000000
_cell_angle_beta 90.000000
_cell_angle_gamma 90.000000
_cell_volume 4615.684703
_symmetry_space_group_name_H-M "P 42/M N M"
_symmetry_group_IT_number 136
_symmetry_cell_setting 'tetragonal'
loop_
_space_group_symop_operation_xyz
x,y,z
1/2-y,1/2+x,1/2+z
-x,-y,z
1/2+y,1/2-x,1/2+z
1/2+x,1/2-y,1/2-z
1/2-x,1/2+y,1/2-z
y,x,-z
-y,-x,-z
-x,-y,-z
1/2+y,1/2-x,1/2-z
x,y,-z
1/2-y,1/2+x,1/2-z
1/2-x,1/2+y,1/2+z
1/2+x,1/2-y,1/2+z
-y,-x,z
y,x,z
loop_
_atom_site_type_symbol
_atom_site_label
_atom_site_fract_x
_atom_site_fract_y
_atom_site_fract_z
Si Si1 0.536921 0.681334 0.430642
Si Si2 0.332795 0.180588 0.630256
Si Si3 0.853654 0.553379 0.253169
Si Si4 0.292184 0.141368 0.929665
Si Si5 0.079533 0.920468 0.429601
Si Si6 0.967399 0.278867 0.372090
O O1 0.521905 0.663676 0.500000
O O2 0.588198 0.588198 0.405779
O O3 0.610878 0.764851 0.420372
O O4 0.439897 0.722781 0.406904
O O5 0.236637 0.236637 0.640307
O O6 0.396780 0.185657 0.688882
O O7 0.313267 0.072788 0.616915
O O8 0.888985 0.447513 0.264783
O O9 0.783167 0.549992 0.198227
O O10 0.239270 0.239270 0.919840
O O11 0.392681 0.149359 0.900150
O O12 0.303177 0.128147 0.000000
O O13 0.093372 0.906629 0.500000
O O14 0.047974 0.822802 0.400300
O O15 0.000000 0.000000 0.421628
#
# Coordination Sequence:
#
# PCOD9569485 Si02
#       6
#    16  16  16  16   8  16
#     4   9  19  35  54  80 112 148 188 237 298 362
#     4  10  21  36  55  81 114 149 189 239 301 358
#     4   9  19  35  56  83 111 143 188 241 297 356
#     4  10  20  34  54  80 110 146 192 242 290 348
#     4  11  24  40  58  84 121 163 206 250 298 351
#     4  11  21  36  58  83 112 151 198 244 293 356
#
# _framework density 19.065428000000001
#
# number of rings (size 3 to 8) (size 9 to 14) (size 15 to 20)
#    0.000    2.091    0.909    2.182    1.273    4.000 
#    0.000    5.455    0.000    1.091    0.000    0.000 
#    0.000    0.000    0.000    0.000    0.000    0.000 
#
# Total GULP energy -490850.005595 kJ/mol
# GULP energy per Si atom -5577.840973 kJ/mol
# Density = 1.902203 g / cm^3
# Si number density = 19.065428 Si / 1000 Ang^3
#
#
#
# Elastic Constant Matrix: (Units=GPa)
#
#
# Indices 1 2 3 4 5 6 
#
# 1 81.2574 20.0949 25.9094 0.0000 0.0000 0.0000
# 2 20.0949 81.2571 25.9093 0.0000 0.0000 0.0000
# 3 25.9094 25.9093 44.2757 0.0000 0.0000 0.0000
# 4 0.0000 0.0000 0.0000 25.9916 0.0000 0.0000
# 5 0.0000 0.0000 0.0000 0.0000 25.9916 0.0000
# 6 0.0000 0.0000 0.0000 0.0000 0.0000 29.6626
#
#
#
# Elastic Compliance Matrix: (Units=1/GPa)
#
#
# Indices 1 2 3 4 5 6 
#
# 1 0.015214 -0.001136 -0.008239 0.000000 0.000000 0.000000
# 2 -0.001136 0.015214 -0.008239 0.000000 0.000000 0.000000
# 3 -0.008239 -0.008239 0.032228 0.000000 0.000000 0.000000
# 4 0.000000 0.000000 0.000000 0.038474 0.000000 0.000000
# 5 0.000000 0.000000 0.000000 0.000000 0.038474 0.000000
# 6 0.000000 0.000000 0.000000 0.000000 0.000000 0.033713
#
#
# Mechanical properties :
#
#
# Convention : Reuss Voigt Hill
#
# Bulk Modulus (GPa) = 36.45521 38.95750 37.70636
# Shear Modulus (GPa) = 22.96880 25.32093 24.14486
#
# Velocity S-wave (km/s) = 3.47470 3.64827 3.56254
# Velocity P-wave (km/s) = 5.93807 6.18259 6.06156
#
# Compressibility (1/GPa) = 0.02743092
#
# Stress axis : x y z
#
# Youngs Moduli (GPa) = 65.72746 65.72728 31.02894
#
# Poissons Ratio (x) = 0.07464 0.25564
# Poissons Ratio (y) = 0.07464 0.25564
# Poissons Ratio (z) = 0.54151 0.54150
#
# Static dielectric constant tensor:
#      x y z
#    x 1.672080 0.000000 0.000000 
#    y 0.000000 1.672080 0.000000 
#    z 0.000000 0.000000 1.653860 
# 
# From -- ./inp_files/7386.got.cif
#   From: 2010.05.17/outbox.cif.g08.bks.cpg/sg136_4_cif.got.tgz:7386.got - 2010.05.20 12:54:53.
