data_PCOD9569214
_publ_section_title
;
Structure prediction by ZEFSAII (Michael W. Deem and Ramdas Pophale) SiO2 
 PCOD9569214
Probable space group: P 42/M N M
;
_chemical_formula_sum "Si O2"
_cell_formula_units_Z 76
_cell_length_a 15.194827
_cell_length_b 15.194827
_cell_length_c 17.950822
_cell_angle_alpha 90.000000
_cell_angle_beta 90.000000
_cell_angle_gamma 90.000000
_cell_volume 4144.535463
_symmetry_space_group_name_H-M "P 42/M N M"
_symmetry_group_IT_number 136
_symmetry_cell_setting 'tetragonal'
loop_
_space_group_symop_operation_xyz
x,y,z
1/2-y,1/2+x,1/2+z
-x,-y,z
1/2+y,1/2-x,1/2+z
1/2+x,1/2-y,1/2-z
1/2-x,1/2+y,1/2-z
y,x,-z
-y,-x,-z
-x,-y,-z
1/2+y,1/2-x,1/2-z
x,y,-z
1/2-y,1/2+x,1/2-z
1/2-x,1/2+y,1/2+z
1/2+x,1/2-y,1/2+z
-y,-x,z
y,x,z
loop_
_atom_site_type_symbol
_atom_site_label
_atom_site_fract_x
_atom_site_fract_y
_atom_site_fract_z
Si Si1 0.382035 0.118532 0.830053
Si Si2 0.581391 0.165562 0.157428
Si Si3 0.500000 0.500000 0.240007
Si Si4 0.357320 0.642681 0.807601
Si Si5 0.760269 0.239732 0.702422
Si Si6 0.041026 0.712860 0.913776
Si Si7 0.869852 0.130149 0.173098
O O1 0.371030 0.106319 0.740418
O O2 0.482392 0.132024 0.852644
O O3 0.330890 0.208333 0.844936
O O4 0.332732 0.039246 0.870318
O O5 0.597818 0.270410 0.156611
O O6 0.645799 0.121615 0.098358
O O7 0.568333 0.431668 0.201359
O O8 0.435458 0.435458 0.285358
O O9 0.311023 0.688978 0.734460
O O10 0.810445 0.189556 0.770215
O O11 0.072288 0.802810 0.875444
O O12 0.020423 0.725378 0.000000
#
# Coordination Sequence:
#
# PCOD9569214 Si02
#       7
#    16  16   4   8   8  16   8
#     4  11  20  35  60  89 118 160 205 270 307 367
#     4  11  20  36  60  84 121 161 211 257 312 364
#     4  12  24  34  65 100 127 154 212 268 308 374
#     4  10  20  35  55  92 120 154 202 259 305 356
#     4  10  18  37  63  87 118 164 220 248 307 368
#     4  12  25  39  60  92 128 166 208 257 321 387
#     4  12  21  43  60  87 129 168 207 256 308 382
#
# _framework density 18.337399000000001
#
# number of rings (size 3 to 8) (size 9 to 14) (size 15 to 20)
#    0.000    0.842    6.316    4.737    0.000    1.684 
#    0.000    2.632    0.000    0.000    0.000    2.947 
#    0.000    0.000    0.000    0.211    0.000    0.000 
#
# Total GULP energy -424003.383096 kJ/mol
# GULP energy per Si atom -5578.991883 kJ/mol
# Density = 1.829566 g / cm^3
# Si number density = 18.337399 Si / 1000 Ang^3
#
#
#
# Elastic Constant Matrix: (Units=GPa)
#
#
# Indices 1 2 3 4 5 6 
#
# 1 387.8816 -281.7658 22.5907 0.0000 0.0000 0.0000
# 2 -281.7658 387.8816 22.5907 0.0000 0.0000 0.0000
# 3 22.5907 22.5907 38.7681 0.0000 0.0000 0.0000
# 4 0.0000 0.0000 0.0000 10.9151 0.0000 0.0000
# 5 0.0000 0.0000 0.0000 0.0000 10.9151 0.0000
# 6 0.0000 0.0000 0.0000 0.0000 0.0000 48.4316
#
#
#
# Elastic Compliance Matrix: (Units=1/GPa)
#
#
# Indices 1 2 3 4 5 6 
#
# 1 0.007013 0.005520 -0.007303 0.000000 0.000000 0.000000
# 2 0.005520 0.007013 -0.007303 0.000000 0.000000 0.000000
# 3 -0.007303 -0.007303 0.034306 0.000000 0.000000 0.000000
# 4 0.000000 0.000000 0.000000 0.091616 0.000000 0.000000
# 5 0.000000 0.000000 0.000000 0.000000 0.091616 0.000000
# 6 0.000000 0.000000 0.000000 0.000000 0.000000 0.020648
#
#
# Mechanical properties :
#
#
# Convention : Reuss Voigt Hill
#
# Bulk Modulus (GPa) = 33.15742 37.92919 35.54330
# Shear Modulus (GPa) = 17.82916 84.12673 50.97795
#
# Velocity S-wave (km/s) = 3.12153 6.78061 5.27829
# Velocity P-wave (km/s) = 5.57791 9.05711 7.52145
#
# Compressibility (1/GPa) = 0.03015917
#
# Stress axis : x y z
#
# Youngs Moduli (GPa) = 142.58675 142.58675 29.14948
#
# Poissons Ratio (x) = -0.78707 0.21289
# Poissons Ratio (y) = -0.78707 0.21289
# Poissons Ratio (z) = 1.04135 1.04135
#
# Static dielectric constant tensor:
#      x y z
#    x 1.650680 0.000000 0.000000 
#    y 0.000000 1.650680 0.000000 
#    z 0.000000 0.000000 1.607970 
# 
# From -- ./inp_files/7311.got.cif
#   From: 2010.05.17/outbox.cif.g08.bks.cpg/sg136_4_cif.got.tgz:7311.got - 2010.05.20 12:54:53.
