data_PCOD9569528
_publ_section_title
;
Structure prediction by ZEFSAII (Michael W. Deem and Ramdas Pophale) SiO2 
 PCOD9569528
Probable space group: P 42/M N M
;
_chemical_formula_sum "Si O2"
_cell_formula_units_Z 80
_cell_length_a 12.257878
_cell_length_b 12.257878
_cell_length_c 29.238524
_cell_angle_alpha 90.000000
_cell_angle_beta 90.000000
_cell_angle_gamma 90.000000
_cell_volume 4393.251179
_symmetry_space_group_name_H-M "P 42/M N M"
_symmetry_group_IT_number 136
_symmetry_cell_setting 'tetragonal'
loop_
_space_group_symop_operation_xyz
x,y,z
1/2-y,1/2+x,1/2+z
-x,-y,z
1/2+y,1/2-x,1/2+z
1/2+x,1/2-y,1/2-z
1/2-x,1/2+y,1/2-z
y,x,-z
-y,-x,-z
-x,-y,-z
1/2+y,1/2-x,1/2-z
x,y,-z
1/2-y,1/2+x,1/2-z
1/2-x,1/2+y,1/2+z
1/2+x,1/2-y,1/2+z
-y,-x,z
y,x,z
loop_
_atom_site_type_symbol
_atom_site_label
_atom_site_fract_x
_atom_site_fract_y
_atom_site_fract_z
Si Si1 0.006127 0.819468 0.695225
Si Si2 0.633428 0.816976 0.947749
Si Si3 0.685360 0.499594 0.298443
Si Si4 0.007202 0.628328 0.874230
Si Si5 0.420748 0.760734 0.101203
O O1 0.122110 0.877891 0.687555
O O2 0.003851 0.771432 0.746104
O O3 0.974394 0.748387 0.651923
O O4 0.916065 0.916065 0.696667
O O5 0.728470 0.728470 0.942982
O O6 0.517920 0.762354 0.935009
O O7 0.647801 0.913293 0.911407
O O8 0.631741 0.856828 0.000000
O O9 0.606071 0.393930 0.303544
O O10 0.604765 0.604765 0.304283
O O11 0.784972 0.498364 0.333478
O O12 0.124429 0.640814 0.898441
O O13 0.000000 0.500000 0.860308
O O14 0.339383 0.660618 0.095116
#
# Coordination Sequence:
#
# PCOD9569528 Si02
#       5
#    16  16  16  16  16
#     4   8  15  30  52  77 106 141 179 221 268 314
#     4  10  22  40  60  80 104 141 187 231 276 327
#     4   9  17  33  58  81 103 140 190 233 266 310
#     4  10  21  36  52  78 113 149 175 217 273 336
#     4  10  20  35  55  82 113 142 177 226 280 331
#
# _framework density 18.209748000000001
#
# number of rings (size 3 to 8) (size 9 to 14) (size 15 to 20)
#    0.000    2.600    0.000    3.000    0.000    5.200 
#    7.200    1.000    0.000    1.800    0.000    7.000 
#    0.000    0.000    0.000    0.000    0.000    0.000 
#
# Total GULP energy -446147.410492 kJ/mol
# GULP energy per Si atom -5576.842631 kJ/mol
# Density = 1.816830 g / cm^3
# Si number density = 18.209748 Si / 1000 Ang^3
#
#
#
# Elastic Constant Matrix: (Units=GPa)
#
#
# Indices 1 2 3 4 5 6 
#
# 1 61.4850 11.3766 28.4547 0.0000 0.0000 0.0000
# 2 11.3766 61.4850 28.4547 0.0000 0.0000 0.0000
# 3 28.4547 28.4547 43.8239 0.0000 0.0000 0.0000
# 4 0.0000 0.0000 0.0000 717.7097 0.0000 0.0000
# 5 0.0000 0.0000 0.0000 0.0000 717.7097 0.0000
# 6 0.0000 0.0000 0.0000 0.0000 0.0000 11.8231
#
#
#
# Elastic Compliance Matrix: (Units=1/GPa)
#
#
# Indices 1 2 3 4 5 6 
#
# 1 0.023902 0.003945 -0.018081 0.000000 0.000000 0.000000
# 2 0.003945 0.023902 -0.018081 0.000000 0.000000 0.000000
# 3 -0.018081 -0.018081 0.046298 0.000000 0.000000 0.000000
# 4 0.000000 0.000000 0.000000 0.001393 0.000000 0.000000
# 5 0.000000 0.000000 0.000000 0.000000 0.001393 0.000000
# 6 0.000000 0.000000 0.000000 0.000000 0.000000 0.084580
#
#
# Mechanical properties :
#
#
# Convention : Reuss Voigt Hill
#
# Bulk Modulus (GPa) = 33.70571 33.70733 33.70652
# Shear Modulus (GPa) = 19.54715 296.01571 157.78143
#
# Velocity S-wave (km/s) = 3.27990 12.76369 9.31852
# Velocity P-wave (km/s) = 5.73529 15.35469 11.59008
#
# Compressibility (1/GPa) = 0.02966856
#
# Stress axis : x y z
#
# Youngs Moduli (GPa) = 41.83780 41.83780 21.59908
#
# Poissons Ratio (x) = -0.16505 0.39053
# Poissons Ratio (y) = -0.16505 0.39053
# Poissons Ratio (z) = 0.75646 0.75646
#
# Static dielectric constant tensor:
#      x y z
#    x 1.630570 0.000000 0.000000 
#    y 0.000000 1.630570 0.000000 
#    z 0.000000 0.000000 1.610530 
# 
# From -- ./inp_files/9528.got.cif
#   From: 2010.05.17/outbox.cif.g08.bks.cpg/sg136_5_cif.got.tgz:9528.got - 2010.05.20 12:54:53.
