data_PCOD9569534
_publ_section_title
;
Structure prediction by ZEFSAII (Michael W. Deem and Ramdas Pophale) SiO2 
 PCOD9569534
Probable space group: P 42/M N M
;
_chemical_formula_sum "Si O2"
_cell_formula_units_Z 80
_cell_length_a 18.653812
_cell_length_b 18.653812
_cell_length_c 12.737067
_cell_angle_alpha 90.000000
_cell_angle_beta 90.000000
_cell_angle_gamma 90.000000
_cell_volume 4432.049725
_symmetry_space_group_name_H-M "P 42/M N M"
_symmetry_group_IT_number 136
_symmetry_cell_setting 'tetragonal'
loop_
_space_group_symop_operation_xyz
x,y,z
1/2-y,1/2+x,1/2+z
-x,-y,z
1/2+y,1/2-x,1/2+z
1/2+x,1/2-y,1/2-z
1/2-x,1/2+y,1/2-z
y,x,-z
-y,-x,-z
-x,-y,-z
1/2+y,1/2-x,1/2-z
x,y,-z
1/2-y,1/2+x,1/2-z
1/2-x,1/2+y,1/2+z
1/2+x,1/2-y,1/2+z
-y,-x,z
y,x,z
loop_
_atom_site_type_symbol
_atom_site_label
_atom_site_fract_x
_atom_site_fract_y
_atom_site_fract_z
Si Si1 0.491433 0.181702 0.703227
Si Si2 0.238463 0.353601 0.227055
Si Si3 0.288324 0.408912 0.000000
Si Si4 0.266401 0.621462 0.770653
Si Si5 0.080857 0.195753 0.500000
Si Si6 0.069386 0.449531 0.885206
O O1 0.413773 0.216427 0.688426
O O2 0.543920 0.246969 0.728247
O O3 0.535824 0.129634 0.627000
O O4 0.474067 0.126561 0.799241
O O5 0.311251 0.311251 0.252048
O O6 0.248370 0.386045 0.108976
O O7 0.175301 0.295112 0.231239
O O8 0.361708 0.361708 0.000000
O O9 0.301857 0.494443 0.000000
O O10 0.341749 0.658252 0.741678
O O11 0.266414 0.611745 0.896266
O O12 0.115768 0.115768 0.500000
O O13 0.000000 0.500000 0.876828
O O14 0.102035 0.458559 0.000000
#
# Coordination Sequence:
#
# PCOD9569534 Si02
#       6
#    16  16   8  16   8  16
#     4  12  19  36  55  76 108 144 181 218 278 321
#     4  10  21  35  53  78 107 143 184 222 268 326
#     4  10  20  35  58  81 105 143 180 226 280 326
#     4  10  21  35  53  77 108 146 184 221 265 328
#     4  10  20  35  56  81 109 143 178 224 282 330
#     4  11  22  34  51  81 111 137 175 221 274 335
#
# _framework density 18.050339000000001
#
# number of rings (size 3 to 8) (size 9 to 14) (size 15 to 20)
#    0.000    1.400    6.000    0.000    2.800    0.200 
#    1.800    0.000    0.000    0.600    0.000    0.000 
#    0.000    0.000    0.000    1.800    0.000   11.600 
#
# Total GULP energy -445613.212202 kJ/mol
# GULP energy per Si atom -5570.165153 kJ/mol
# Density = 1.800926 g / cm^3
# Si number density = 18.050339 Si / 1000 Ang^3
#
#
#
# Elastic Constant Matrix: (Units=GPa)
#
#
# Indices 1 2 3 4 5 6 
#
# 1 75.8088 25.6074 13.2204 0.0000 0.0000 0.0000
# 2 25.6074 75.8088 13.2204 0.0000 0.0000 0.0000
# 3 13.2204 13.2204 43.8976 0.0000 0.0000 0.0000
# 4 0.0000 0.0000 0.0000 8.3369 0.0000 0.0000
# 5 0.0000 0.0000 0.0000 0.0000 8.3369 0.0000
# 6 0.0000 0.0000 0.0000 0.0000 0.0000 39.4525
#
#
#
# Elastic Compliance Matrix: (Units=1/GPa)
#
#
# Indices 1 2 3 4 5 6 
#
# 1 0.015310 -0.004610 -0.003223 0.000000 0.000000 0.000000
# 2 -0.004610 0.015310 -0.003223 0.000000 0.000000 0.000000
# 3 -0.003223 -0.003223 0.024721 0.000000 0.000000 0.000000
# 4 0.000000 0.000000 0.000000 0.119949 0.000000 0.000000
# 5 0.000000 0.000000 0.000000 0.000000 0.119949 0.000000
# 6 0.000000 0.000000 0.000000 0.000000 0.000000 0.025347
#
#
# Mechanical properties :
#
#
# Convention : Reuss Voigt Hill
#
# Bulk Modulus (GPa) = 30.09151 33.29018 31.69085
# Shear Modulus (GPa) = 14.13332 20.78970 17.46151
#
# Velocity S-wave (km/s) = 2.80124 3.39744 3.11365
# Velocity P-wave (km/s) = 5.21245 5.82007 5.52462
#
# Compressibility (1/GPa) = 0.03323196
#
# Stress axis : x y z
#
# Youngs Moduli (GPa) = 65.31607 65.31607 40.45079
#
# Poissons Ratio (x) = 0.30108 0.13036
# Poissons Ratio (y) = 0.30108 0.13036
# Poissons Ratio (z) = 0.21049 0.21049
#
# Static dielectric constant tensor:
#      x y z
#    x 1.641430 0.000000 0.000000 
#    y 0.000000 1.641430 0.000000 
#    z 0.000000 0.000000 1.650950 
# 
# From -- ./inp_files/4927.got.cif
#   From: 2010.05.17/outbox.cif.g08.bks.cpg/sg136_3_cif.got.tgz:4927.got - 2010.05.20 12:54:53.
