data_PCOD9569859
_publ_section_title
;
Structure prediction by ZEFSAII (Michael W. Deem and Ramdas Pophale) SiO2 
 PCOD9569859
Probable space group: P 42/M N M
;
_chemical_formula_sum "Si O2"
_cell_formula_units_Z 48
_cell_length_a 11.543034
_cell_length_b 11.543034
_cell_length_c 17.054563
_cell_angle_alpha 90.000000
_cell_angle_beta 90.000000
_cell_angle_gamma 90.000000
_cell_volume 2272.377840
_symmetry_space_group_name_H-M "P 42/M N M"
_symmetry_group_IT_number 136
_symmetry_cell_setting 'tetragonal'
loop_
_space_group_symop_operation_xyz
x,y,z
1/2-y,1/2+x,1/2+z
-x,-y,z
1/2+y,1/2-x,1/2+z
1/2+x,1/2-y,1/2-z
1/2-x,1/2+y,1/2-z
y,x,-z
-y,-x,-z
-x,-y,-z
1/2+y,1/2-x,1/2-z
x,y,-z
1/2-y,1/2+x,1/2-z
1/2-x,1/2+y,1/2+z
1/2+x,1/2-y,1/2+z
-y,-x,z
y,x,z
loop_
_atom_site_type_symbol
_atom_site_label
_atom_site_fract_x
_atom_site_fract_y
_atom_site_fract_z
Si Si1 0.304002 0.499551 0.500000
Si Si2 0.863732 0.467722 0.356063
Si Si3 0.100122 0.100122 0.590163
Si Si4 0.741874 0.556206 0.198731
O O1 0.393110 0.393110 0.500000
O O2 0.384291 0.615710 0.500000
O O3 0.219389 0.494292 0.425524
O O4 0.810926 0.515827 0.275135
O O5 0.863723 0.329171 0.349443
O O6 0.000000 0.500000 0.365096
O O7 0.129083 0.129083 0.500000
O O8 0.047169 0.203880 0.641230
O O9 0.000000 0.000000 0.586990
O O10 0.627926 0.627926 0.221676
#
# Coordination Sequence:
#
# PCOD9569859 Si02
#       4
#     8  16   8  16
#     4  11  27  48  74 105 141 187 242 296 357 433
#     4  12  24  46  67 102 143 182 235 293 357 428
#     4   9  22  42  66 103 139 178 237 293 349 422
#     4  11  23  41  70 100 139 186 233 295 355 422
#
# _framework density 21.123246999999999
#
# number of rings (size 3 to 8) (size 9 to 14) (size 15 to 20)
#    0.000    1.000    3.333    2.500    7.000    0.000 
#    3.000    0.000    0.000    0.000    0.000    0.000 
#    0.000    0.000    0.000    0.000    0.000    0.000 
#
# Total GULP energy -268293.945113 kJ/mol
# GULP energy per Si atom -5589.457190 kJ/mol
# Density = 2.107517 g / cm^3
# Si number density = 21.123247 Si / 1000 Ang^3
#
#
#
# Elastic Constant Matrix: (Units=GPa)
#
#
# Indices 1 2 3 4 5 6 
#
# 1 121.3944 52.2442 80.4794 0.0000 0.0000 0.0000
# 2 52.2442 121.3933 80.4788 0.0000 0.0000 0.0000
# 3 80.4794 80.4788 172.9688 0.0000 0.0000 0.0000
# 4 0.0000 0.0000 0.0000 30.7791 0.0000 0.0000
# 5 0.0000 0.0000 0.0000 0.0000 30.7780 0.0000
# 6 0.0000 0.0000 0.0000 0.0000 0.0000 40.1155
#
#
#
# Elastic Compliance Matrix: (Units=1/GPa)
#
#
# Indices 1 2 3 4 5 6 
#
# 1 0.012294 -0.002167 -0.004712 0.000000 0.000000 0.000000
# 2 -0.002167 0.012294 -0.004712 0.000000 0.000000 0.000000
# 3 -0.004712 -0.004712 0.010166 0.000000 0.000000 0.000000
# 4 0.000000 0.000000 0.000000 0.032490 0.000000 0.000000
# 5 0.000000 0.000000 0.000000 0.000000 0.032491 0.000000
# 6 0.000000 0.000000 0.000000 0.000000 0.000000 0.024928
#
#
# Mechanical properties :
#
#
# Convention : Reuss Voigt Hill
#
# Bulk Modulus (GPa) = 86.41230 93.57347 89.99289
# Shear Modulus (GPa) = 32.95934 33.83811 33.39872
#
# Velocity S-wave (km/s) = 3.95439 4.00676 3.98066
# Velocity P-wave (km/s) = 7.86429 8.11175 7.98898
#
# Compressibility (1/GPa) = 0.01157243
#
# Stress axis : x y z
#
# Youngs Moduli (GPa) = 81.33992 81.33936 98.36660
#
# Poissons Ratio (x) = 0.17628 0.46349
# Poissons Ratio (y) = 0.17628 0.46349
# Poissons Ratio (z) = 0.38326 0.38326
#
# Static dielectric constant tensor:
#      x y z
#    x 1.781630 0.000000 0.000000 
#    y 0.000000 1.781630 0.000000 
#    z 0.000000 0.000000 1.745750 
# 
# From -- ./inp_files/5741.got.cif
#   From: 2010.05.17/outbox.cif.g08.bks.cpg/sg136_3_cif.got.tgz:5741.got - 2010.05.20 12:54:53.
