data_PCOD9569616
_publ_section_title
;
Structure prediction by ZEFSAII (Michael W. Deem and Ramdas Pophale) SiO2 
 PCOD9569616
Probable space group: P 42/M N M
;
_chemical_formula_sum "Si O2"
_cell_formula_units_Z 68
_cell_length_a 18.146123
_cell_length_b 18.146123
_cell_length_c 11.579916
_cell_angle_alpha 90.000000
_cell_angle_beta 90.000000
_cell_angle_gamma 90.000000
_cell_volume 3813.055352
_symmetry_space_group_name_H-M "P 42/M N M"
_symmetry_group_IT_number 136
_symmetry_cell_setting 'tetragonal'
loop_
_space_group_symop_operation_xyz
x,y,z
1/2-y,1/2+x,1/2+z
-x,-y,z
1/2+y,1/2-x,1/2+z
1/2+x,1/2-y,1/2-z
1/2-x,1/2+y,1/2-z
y,x,-z
-y,-x,-z
-x,-y,-z
1/2+y,1/2-x,1/2-z
x,y,-z
1/2-y,1/2+x,1/2-z
1/2-x,1/2+y,1/2+z
1/2+x,1/2-y,1/2+z
-y,-x,z
y,x,z
loop_
_atom_site_type_symbol
_atom_site_label
_atom_site_fract_x
_atom_site_fract_y
_atom_site_fract_z
Si Si1 0.500000 0.000000 0.250000
Si Si2 0.155075 0.540417 0.362307
Si Si3 0.787504 0.674764 0.136887
Si Si4 0.291069 0.465135 0.231948
Si Si5 0.940668 0.059332 0.137378
Si Si6 0.999525 0.874479 0.500000
O O1 0.574721 0.988677 0.176040
O O2 0.164929 0.528910 0.500000
O O3 0.160791 0.627585 0.337476
O O4 0.221288 0.504480 0.289900
O O5 0.756314 0.756314 0.161640
O O6 0.737183 0.616278 0.201633
O O7 0.778211 0.661779 0.000000
O O8 0.360318 0.461749 0.317013
O O9 0.323105 0.499308 0.113316
O O10 0.941780 0.058221 0.000000
O O11 0.000000 0.000000 0.182722
O O12 0.073254 0.926747 0.500000
O O13 0.930644 0.930644 0.500000
#
# Coordination Sequence:
#
# PCOD9569616 Si02
#       6
#     4  16  16  16   8   8
#     4  12  22  44  68  94 120 166 224 276 322 380
#     4  11  25  42  65  94 128 164 212 268 325 384
#     4  10  20  38  63  90 117 159 207 255 312 378
#     4  12  21  39  64  93 127 165 210 261 316 379
#     4  11  24  39  61  93 133 174 211 252 319 388
#     4  11  22  38  66  99 130 166 214 268 321 385
#
# _framework density 17.833468
#
# number of rings (size 3 to 8) (size 9 to 14) (size 15 to 20)
#    0.000    0.941    5.882    1.765    0.000    1.882 
#    2.118    2.353    0.000    0.000    0.000    0.000 
#    0.000    0.000    0.000    0.000    0.000    0.000 
#
# Total GULP energy -379638.981406 kJ/mol
# GULP energy per Si atom -5582.926197 kJ/mol
# Density = 1.779288 g / cm^3
# Si number density = 17.833468 Si / 1000 Ang^3
#
#
#
# Elastic Constant Matrix: (Units=GPa)
#
#
# Indices 1 2 3 4 5 6 
#
# 1 118.0833 83.9245 57.9682 0.0000 0.0000 0.0000
# 2 83.9245 118.0833 57.9681 0.0000 0.0000 0.0000
# 3 57.9682 57.9681 93.7067 0.0000 0.0000 0.0000
# 4 0.0000 0.0000 0.0000 26.6854 0.0000 0.0000
# 5 0.0000 0.0000 0.0000 0.0000 26.6852 0.0000
# 6 0.0000 0.0000 0.0000 0.0000 0.0000 35.4749
#
#
#
# Elastic Compliance Matrix: (Units=1/GPa)
#
#
# Indices 1 2 3 4 5 6 
#
# 1 0.018475 -0.010800 -0.004748 0.000000 0.000000 0.000000
# 2 -0.010800 0.018475 -0.004748 0.000000 0.000000 0.000000
# 3 -0.004748 -0.004748 0.016546 0.000000 0.000000 0.000000
# 4 0.000000 0.000000 0.000000 0.037474 0.000000 0.000000
# 5 0.000000 0.000000 0.000000 0.000000 0.037474 0.000000
# 6 0.000000 0.000000 0.000000 0.000000 0.000000 0.028189
#
#
# Mechanical properties :
#
#
# Convention : Reuss Voigt Hill
#
# Bulk Modulus (GPa) = 77.49275 81.06611 79.27943
# Shear Modulus (GPa) = 24.81068 26.43661 25.62364
#
# Velocity S-wave (km/s) = 3.73398 3.85439 3.79466
# Velocity P-wave (km/s) = 7.88277 8.08483 7.98444
#
# Compressibility (1/GPa) = 0.01290443
#
# Stress axis : x y z
#
# Youngs Moduli (GPa) = 54.12678 54.12681 60.43765
#
# Poissons Ratio (x) = 0.58456 0.28696
# Poissons Ratio (y) = 0.58456 0.28696
# Poissons Ratio (z) = 0.25700 0.25700
#
# Static dielectric constant tensor:
#      x y z
#    x 1.605520 0.000000 0.000000 
#    y 0.000000 1.605520 0.000000 
#    z 0.000000 0.000000 1.596130 
# 
# From -- ./inp_files/3515.got.cif
#   From: 2010.05.17/outbox.cif.g08.bks.cpg/sg136_2_cif.got.tgz:3515.got - 2010.05.20 12:54:53.
