data_PCOD9569207
_publ_section_title
;
Structure prediction by ZEFSAII (Michael W. Deem and Ramdas Pophale) SiO2 
 PCOD9569207
Probable space group: P 42/M N M
;
_chemical_formula_sum "Si O2"
_cell_formula_units_Z 96
_cell_length_a 15.713835
_cell_length_b 15.713835
_cell_length_c 20.669547
_cell_angle_alpha 90.000000
_cell_angle_beta 90.000000
_cell_angle_gamma 90.000000
_cell_volume 5103.819840
_symmetry_space_group_name_H-M "P 42/M N M"
_symmetry_group_IT_number 136
_symmetry_cell_setting 'tetragonal'
loop_
_space_group_symop_operation_xyz
x,y,z
1/2-y,1/2+x,1/2+z
-x,-y,z
1/2+y,1/2-x,1/2+z
1/2+x,1/2-y,1/2-z
1/2-x,1/2+y,1/2-z
y,x,-z
-y,-x,-z
-x,-y,-z
1/2+y,1/2-x,1/2-z
x,y,-z
1/2-y,1/2+x,1/2-z
1/2-x,1/2+y,1/2+z
1/2+x,1/2-y,1/2+z
-y,-x,z
y,x,z
loop_
_atom_site_type_symbol
_atom_site_label
_atom_site_fract_x
_atom_site_fract_y
_atom_site_fract_z
Si Si1 0.691107 0.169186 0.870334
Si Si2 0.398490 0.092972 0.752503
Si Si3 0.228606 0.089890 0.816336
Si Si4 0.825152 0.037584 0.075792
Si Si5 0.559582 0.294207 0.071800
Si Si6 0.640388 0.505724 0.798946
O O1 0.752630 0.247371 0.851346
O O2 0.654502 0.126071 0.806274
O O3 0.748389 0.103935 0.910813
O O4 0.614680 0.210867 0.911011
O O5 0.495565 0.107017 0.772263
O O6 0.329115 0.102841 0.809006
O O7 0.177013 0.177013 0.807601
O O8 0.195534 0.043145 0.880343
O O9 0.201554 0.027485 0.757258
O O10 0.911638 0.088363 0.095038
O O11 0.830872 0.018078 0.000000
O O12 0.628371 0.371630 0.070724
O O13 0.497608 0.314653 0.131361
O O14 0.521709 0.288782 0.000000
O O15 0.565015 0.434986 0.800895
O O16 0.595315 0.595315 0.785138
#
# Coordination Sequence:
#
# PCOD9569207 Si02
#       6
#    16  16  16  16  16  16
#     4  10  18  34  57  82 114 149 189 236 288 343
#     4  11  22  37  59  85 113 140 188 246 293 336
#     4  11  21  37  58  82 115 154 194 235 288 352
#     4  10  21  36  58  90 123 154 192 238 288 343
#     4   9  16  26  45  73 105 143 184 226 272 325
#     4   9  17  28  44  71 107 144 181 222 272 334
#
# _framework density 18.809442000000001
#
# number of rings (size 3 to 8) (size 9 to 14) (size 15 to 20)
#    0.000    2.000    3.333    1.500    0.000    3.667 
#    0.000    2.500    0.000    3.000    0.000    0.000 
#    0.000    0.000    0.000    0.000    0.000    0.000 
#
# Total GULP energy -535784.453678 kJ/mol
# GULP energy per Si atom -5581.088059 kJ/mol
# Density = 1.876663 g / cm^3
# Si number density = 18.809442 Si / 1000 Ang^3
#
#
#
# Elastic Constant Matrix: (Units=GPa)
#
#
# Indices 1 2 3 4 5 6 
#
# 1 57.0078 12.2873 3.5923 0.0000 0.0000 0.0000
# 2 12.2873 57.0078 3.5923 0.0000 0.0000 0.0000
# 3 3.5923 3.5923 69.6993 0.0000 0.0000 0.0000
# 4 0.0000 0.0000 0.0000 23.7611 0.0000 0.0000
# 5 0.0000 0.0000 0.0000 0.0000 23.7611 0.0000
# 6 0.0000 0.0000 0.0000 0.0000 0.0000 14.9222
#
#
#
# Elastic Compliance Matrix: (Units=1/GPa)
#
#
# Indices 1 2 3 4 5 6 
#
# 1 0.018435 -0.003926 -0.000748 0.000000 0.000000 0.000000
# 2 -0.003926 0.018435 -0.000748 0.000000 0.000000 0.000000
# 3 -0.000748 -0.000748 0.014424 0.000000 0.000000 0.000000
# 4 0.000000 0.000000 0.000000 0.042086 0.000000 0.000000
# 5 0.000000 0.000000 0.000000 0.000000 0.042086 0.000000
# 6 0.000000 0.000000 0.000000 0.000000 0.000000 0.067014
#
#
# Mechanical properties :
#
#
# Convention : Reuss Voigt Hill
#
# Bulk Modulus (GPa) = 24.72159 24.73985 24.73072
# Shear Modulus (GPa) = 22.04522 23.43840 22.74181
#
# Velocity S-wave (km/s) = 3.42721 3.53384 3.48093
# Velocity P-wave (km/s) = 5.36961 5.46188 5.41594
#
# Compressibility (1/GPa) = 0.04045048
#
# Stress axis : x y z
#
# Youngs Moduli (GPa) = 54.24509 54.24509 69.32683
#
# Poissons Ratio (x) = 0.21298 0.05184
# Poissons Ratio (y) = 0.21298 0.05184
# Poissons Ratio (z) = 0.04056 0.04056
#
# Static dielectric constant tensor:
#      x y z
#    x 1.662110 0.000000 0.000000 
#    y 0.000000 1.662110 0.000000 
#    z 0.000000 0.000000 1.635740 
# 
# From -- ./inp_files/7487.got.cif
#   From: 2010.05.17/outbox.cif.g08.bks.cpg/sg136_4_cif.got.tgz:7487.got - 2010.05.20 12:54:53.
