data_PCOD9569078
_publ_section_title
;
Structure prediction by ZEFSAII (Michael W. Deem and Ramdas Pophale) SiO2 
 PCOD9569078
Probable space group: P 42/M B C
;
_chemical_formula_sum "Si O2"
_cell_formula_units_Z 112
_cell_length_a 15.000000
_cell_length_b 15.000000
_cell_length_c 27.000000
_cell_angle_alpha 90.000000
_cell_angle_beta 90.000000
_cell_angle_gamma 90.000000
_cell_volume 6075.000000
_symmetry_space_group_name_H-M "P 42/M B C"
_symmetry_group_IT_number 135
_symmetry_cell_setting 'tetragonal'
loop_
_space_group_symop_operation_xyz
x,y,z
-y,x,1/2+z
-x,-y,z
y,-x,1/2+z
1/2+x,1/2-y,-z
1/2-x,1/2+y,-z
1/2+y,1/2+x,1/2-z
1/2-y,1/2-x,1/2-z
-x,-y,-z
y,-x,1/2-z
x,y,-z
-y,x,1/2-z
1/2-x,1/2+y,z
1/2+x,1/2-y,z
1/2-y,1/2-x,1/2+z
1/2+y,1/2+x,1/2+z
loop_
_atom_site_type_symbol
_atom_site_label
_atom_site_fract_x
_atom_site_fract_y
_atom_site_fract_z
Si Si1 0.078009 0.430344 0.134280
Si Si2 0.275429 0.868682 0.706357
Si Si3 0.195350 0.176617 0.558609
Si Si4 0.320335 0.326757 0.605605
Si Si5 0.280355 0.983505 0.441441
Si Si6 0.523686 0.356931 0.264801
Si Si7 0.782813 0.021512 0.877028
O O1 0.097825 0.364628 0.179879
O O2 0.044385 0.368626 0.088729
O O3 0.175080 0.472105 0.123697
O O4 0.000000 0.500000 0.144859
O O5 0.299795 0.799795 0.750000
O O6 0.213933 0.828812 0.662625
O O7 0.226551 0.951909 0.731027
O O8 0.176542 0.185753 0.500000
O O9 0.259858 0.255020 0.577244
O O10 0.104213 0.182405 0.590110
O O11 0.248642 0.084564 0.566445
O O12 0.296284 0.420806 0.581034
O O13 0.424529 0.308005 0.602702
O O14 0.291980 0.968419 0.500000
O O15 0.431031 0.401539 0.248426
O O16 0.527224 0.325646 0.321829
#
# Coordination Sequence:
#
# PCOD9569078 Si02
#       7
#    16  16  16  16  16  16  16
#     4  11  24  42  64  93 130 170 217 264 322 387
#     4  11  21  43  62  90 128 170 211 266 318 384
#     4  11  24  43  69  97 130 174 220 275 336 398
#     4  11  23  42  67  94 133 171 217 275 327 390
#     4  10  23  43  66  92 128 169 213 270 332 384
#     4  11  24  41  65  94 129 171 216 264 331 398
#     4  12  24  42  67  98 131 175 223 270 332 399
#
# _framework density 18.436214
#
# number of rings (size 3 to 8) (size 9 to 14) (size 15 to 20)
#    0.000    1.000    5.714    1.286    4.000    2.286 
#    2.571    1.429    0.000    0.000    0.000    0.000 
#    0.000    0.000    0.000    0.000    0.000    0.000 
#
# Total GULP energy -625603.619490 kJ/mol
# GULP energy per Si atom -5585.746603 kJ/mol
# Density = 1.839425 g / cm^3
# Si number density = 18.436214 Si / 1000 Ang^3
#
#
#
# Elastic Constant Matrix: (Units=GPa)
#
#
# Indices 1 2 3 4 5 6 
#
# 1 57.8006 -5.0332 6.1778 0.0000 0.0000 0.0000
# 2 -5.0332 57.8006 6.1778 0.0000 0.0000 0.0000
# 3 6.1778 6.1778 58.9746 0.0000 0.0000 0.0000
# 4 0.0000 0.0000 0.0000 17.3145 0.0000 0.0000
# 5 0.0000 0.0000 0.0000 0.0000 17.3145 0.0000
# 6 0.0000 0.0000 0.0000 0.0000 0.0000 25.7949
#
#
#
# Elastic Compliance Matrix: (Units=1/GPa)
#
#
# Indices 1 2 3 4 5 6 
#
# 1 0.017671 0.001756 -0.002035 0.000000 0.000000 0.000000
# 2 0.001756 0.017671 -0.002035 0.000000 0.000000 0.000000
# 3 -0.002035 -0.002035 0.017383 0.000000 0.000000 0.000000
# 4 0.000000 0.000000 0.000000 0.057755 0.000000 0.000000
# 5 0.000000 0.000000 0.000000 0.000000 0.057755 0.000000
# 6 0.000000 0.000000 0.000000 0.000000 0.000000 0.038767
#
#
# Mechanical properties :
#
#
# Convention : Reuss Voigt Hill
#
# Bulk Modulus (GPa) = 20.79106 21.02452 20.90779
# Shear Modulus (GPa) = 21.96230 23.23504 22.59867
#
# Velocity S-wave (km/s) = 3.45521 3.55391 3.50491
# Velocity P-wave (km/s) = 5.21725 5.31687 5.26729
#
# Compressibility (1/GPa) = 0.04809761
#
# Stress axis : x y z
#
# Youngs Moduli (GPa) = 56.58891 56.58891 57.52810
#
# Poissons Ratio (x) = -0.09939 0.11708
# Poissons Ratio (y) = -0.09939 0.11708
# Poissons Ratio (z) = 0.11516 0.11516
#
# Static dielectric constant tensor:
#      x y z
#    x 1.627840 0.000000 0.000000 
#    y 0.000000 1.627840 0.000000 
#    z 0.000000 0.000000 1.610390 
# 
# From -- ./inp_files/6154.got.cif
#   From: 2010.05.17/outbox.ucp.g08.bks.cvg/sg135_4_cif.got.tgz:6154.got - 2010.06.11 11:40:18.
