data_PCOD9569840
_publ_section_title
;
Structure prediction by ZEFSAII (Michael W. Deem and Ramdas Pophale) SiO2 
 PCOD9569840
Probable space group: P 42/M N M
;
_chemical_formula_sum "Si O2"
_cell_formula_units_Z 52
_cell_length_a 16.722218
_cell_length_b 16.722218
_cell_length_c 7.702833
_cell_angle_alpha 90.000000
_cell_angle_beta 90.000000
_cell_angle_gamma 90.000000
_cell_volume 2153.963025
_symmetry_space_group_name_H-M "P 42/M N M"
_symmetry_group_IT_number 136
_symmetry_cell_setting 'tetragonal'
loop_
_space_group_symop_operation_xyz
x,y,z
1/2-y,1/2+x,1/2+z
-x,-y,z
1/2+y,1/2-x,1/2+z
1/2+x,1/2-y,1/2-z
1/2-x,1/2+y,1/2-z
y,x,-z
-y,-x,-z
-x,-y,-z
1/2+y,1/2-x,1/2-z
x,y,-z
1/2-y,1/2+x,1/2-z
1/2-x,1/2+y,1/2+z
1/2+x,1/2-y,1/2+z
-y,-x,z
y,x,z
loop_
_atom_site_type_symbol
_atom_site_label
_atom_site_fract_x
_atom_site_fract_y
_atom_site_fract_z
Si Si1 0.601102 0.398898 0.500000
Si Si2 0.521032 0.658097 0.795393
Si Si3 0.841803 0.283872 0.291993
Si Si4 0.393158 0.053021 0.313598
O O1 0.547546 0.354110 0.654492
O O2 0.581392 0.581392 0.781187
O O3 0.576458 0.735358 0.754356
O O4 0.496756 0.662401 0.000000
O O5 0.836070 0.285840 0.500000
O O6 0.769978 0.230023 0.223076
O O7 0.836574 0.374093 0.228402
O O8 0.480277 0.095154 0.314981
O O9 0.374206 0.016893 0.500000
#
# Coordination Sequence:
#
# PCOD9569840 Si02
#       4
#     4  16  16  16
#     4  12  19  26  48  74 110 150 206 252 286 356
#     4   9  18  30  46  73 108 151 197 245 295 347
#     4   9  19  37  60  86 121 159 197 245 304 365
#     4  11  22  38  64  93 121 153 198 252 303 357
#
# _framework density 24.141548
#
# number of rings (size 3 to 8) (size 9 to 14) (size 15 to 20)
#    0.000    2.154    0.000    7.385    2.154    1.846 
#    0.000    0.000    3.385    0.000    0.000    0.000 
#    0.000    0.000    0.000    0.000    0.000    0.000 
#
# Total GULP energy -289608.467212 kJ/mol
# GULP energy per Si atom -5569.393600 kJ/mol
# Density = 2.408660 g / cm^3
# Si number density = 24.141548 Si / 1000 Ang^3
#
#
#
# Elastic Constant Matrix: (Units=GPa)
#
#
# Indices 1 2 3 4 5 6 
#
# 1 14.7040 50.4401 10.7464 0.0000 0.0000 0.0000
# 2 50.4401 14.7043 10.7474 0.0000 0.0000 0.0000
# 3 10.7464 10.7474 103.4381 0.0000 0.0000 0.0000
# 4 0.0000 0.0000 0.0000 13.4913 0.0000 0.0000
# 5 0.0000 0.0000 0.0000 0.0000 13.4920 0.0000
# 6 0.0000 0.0000 0.0000 0.0000 0.0000 -0.2510
#
#
#
# Elastic Compliance Matrix: (Units=1/GPa)
#
#
# Indices 1 2 3 4 5 6 
#
# 1 -0.006044 0.021939 -0.001652 0.000000 0.000000 0.000000
# 2 0.021939 -0.006044 -0.001651 0.000000 0.000000 0.000000
# 3 -0.001652 -0.001651 0.010011 0.000000 0.000000 0.000000
# 4 0.000000 0.000000 0.000000 0.074122 0.000000 0.000000
# 5 0.000000 0.000000 0.000000 0.000000 0.074118 0.000000
# 6 0.000000 0.000000 0.000000 0.000000 0.000000 -3.983875
#
#
# Mechanical properties :
#
#
# Convention : Reuss Voigt Hill
#
# Bulk Modulus (GPa) = 28.41253 30.74602 29.57927
# Shear Modulus (GPa) = -1.29425 9.40729 4.05652
#
# Velocity S-wave (km/s) = -0.73299 1.97615 1.29767
# Velocity P-wave (km/s) = 3.32841 4.23914 3.81108
#
# Compressibility (1/GPa) = 0.03519574
#
# Stress axis : x y z
#
# Youngs Moduli (GPa) = -165.45815 -165.46011 99.89230
#
# Poissons Ratio (x) = 3.63007 0.16498
# Poissons Ratio (y) = 3.63003 0.16496
# Poissons Ratio (z) = -0.27327 -0.27323
#
# Static dielectric constant tensor:
#      x y z
#    x 2.077270 0.000000 0.000000 
#    y 0.000000 2.077270 0.000000 
#    z 0.000000 0.000000 1.891330 
# 
# From -- ./inp_files/967.got.cif
#   From: 2010.05.17/outbox.cif.g08.bks.cpg/sg136_1_cif.got.tgz:967.got - 2010.05.20 12:54:53.
