data_PCOD9569772
_publ_section_title
;
Structure prediction by ZEFSAII (Michael W. Deem and Ramdas Pophale) SiO2 
 PCOD9569772
Probable space group: P 42/M N M
;
_chemical_formula_sum "Si O2"
_cell_formula_units_Z 84
_cell_length_a 11.921048
_cell_length_b 11.921048
_cell_length_c 29.035539
_cell_angle_alpha 90.000000
_cell_angle_beta 90.000000
_cell_angle_gamma 90.000000
_cell_volume 4126.280674
_symmetry_space_group_name_H-M "P 42/M N M"
_symmetry_group_IT_number 136
_symmetry_cell_setting 'tetragonal'
loop_
_space_group_symop_operation_xyz
x,y,z
1/2-y,1/2+x,1/2+z
-x,-y,z
1/2+y,1/2-x,1/2+z
1/2+x,1/2-y,1/2-z
1/2-x,1/2+y,1/2-z
y,x,-z
-y,-x,-z
-x,-y,-z
1/2+y,1/2-x,1/2-z
x,y,-z
1/2-y,1/2+x,1/2-z
1/2-x,1/2+y,1/2+z
1/2+x,1/2-y,1/2+z
-y,-x,z
y,x,z
loop_
_atom_site_type_symbol
_atom_site_label
_atom_site_fract_x
_atom_site_fract_y
_atom_site_fract_z
Si Si1 0.154016 0.337081 0.448095
Si Si2 0.237209 0.418993 0.698183
Si Si3 0.776224 0.960533 0.899428
Si Si4 0.950997 0.374675 0.616708
Si Si5 0.230025 0.519369 0.795311
Si Si6 0.500000 0.500000 0.802197
O O1 0.117688 0.366300 0.500000
O O2 0.223171 0.223171 0.448362
O O3 0.241152 0.432987 0.430598
O O4 0.047505 0.322114 0.414918
O O5 0.349220 0.349220 0.709258
O O6 0.263965 0.491033 0.652684
O O7 0.204916 0.493173 0.742131
O O8 0.138327 0.327653 0.691561
O O9 0.892122 0.892122 0.905996
O O10 0.670239 0.878352 0.906303
O O11 0.000000 0.500000 0.622469
O O12 0.937885 0.324805 0.667258
O O13 0.361758 0.504091 0.801471
#
# Coordination Sequence:
#
# PCOD9569772 Si02
#       6
#    16  16  16  16  16   4
#     4  10  22  43  70  99 128 171 223 276 336 399
#     4  12  25  40  65  91 137 176 225 276 331 404
#     4  11  25  41  64  99 135 173 217 274 334 403
#     4  10  22  42  65  94 125 170 224 270 326 395
#     4  12  25  41  61  96 125 180 222 274 327 389
#     4  12  28  40  60  96 135 162 235 274 324 396
#
# _framework density 20.357313999999999
#
# number of rings (size 3 to 8) (size 9 to 14) (size 15 to 20)
#    0.000    0.952    5.714    1.714    4.000    6.857 
#    0.000    0.952    0.000    0.000    0.000    2.000 
#    0.000    0.000    0.000    0.000    0.000    0.000 
#
# Total GULP energy -467613.687456 kJ/mol
# GULP energy per Si atom -5566.829613 kJ/mol
# Density = 2.031098 g / cm^3
# Si number density = 20.357314 Si / 1000 Ang^3
#
#
#
# Elastic Constant Matrix: (Units=GPa)
#
#
# Indices 1 2 3 4 5 6 
#
# 1 22.5347 45.1834 -0.4795 0.0000 0.0000 0.0000
# 2 45.1834 22.5347 -0.4795 0.0000 0.0000 0.0000
# 3 -0.4795 -0.4795 88.8814 0.0000 0.0000 0.0000
# 4 0.0000 0.0000 0.0000 3.1209 0.0000 0.0000
# 5 0.0000 0.0000 0.0000 0.0000 3.1209 0.0000
# 6 0.0000 0.0000 0.0000 0.0000 0.0000 32.7150
#
#
#
# Elastic Compliance Matrix: (Units=1/GPa)
#
#
# Indices 1 2 3 4 5 6 
#
# 1 -0.014692 0.029460 0.000080 0.000000 0.000000 0.000000
# 2 0.029460 -0.014692 0.000080 0.000000 0.000000 0.000000
# 3 0.000080 0.000080 0.011252 0.000000 0.000000 0.000000
# 4 0.000000 0.000000 0.000000 0.320424 0.000000 0.000000
# 5 0.000000 0.000000 0.000000 0.000000 0.320424 0.000000
# 6 0.000000 0.000000 0.000000 0.000000 0.000000 0.030567
#
#
# Mechanical properties :
#
#
# Convention : Reuss Voigt Hill
#
# Bulk Modulus (GPa) = 24.32676 24.71104 24.51890
# Shear Modulus (GPa) = 8.22714 13.77311 11.00013
#
# Velocity S-wave (km/s) = 2.01250 2.60391 2.32707
# Velocity P-wave (km/s) = 4.16846 4.60494 4.39212
#
# Compressibility (1/GPa) = 0.04110699
#
# Stress axis : x y z
#
# Youngs Moduli (GPa) = -68.06307 -68.06307 88.87459
#
# Poissons Ratio (x) = 2.00517 -0.00708
# Poissons Ratio (y) = 2.00517 -0.00708
# Poissons Ratio (z) = 0.00542 0.00542
#
# Static dielectric constant tensor:
#      x y z
#    x 1.740460 0.000000 0.000000 
#    y 0.000000 1.740460 0.000000 
#    z 0.000000 0.000000 1.760100 
# 
# From -- ./inp_files/9712.got.cif
#   From: 2010.05.17/outbox.cif.g08.bks.cpg/sg136_5_cif.got.tgz:9712.got - 2010.05.20 12:54:53.
