data_PCOD9569945
_publ_section_title
;
Structure prediction by ZEFSAII (Michael W. Deem and Ramdas Pophale) SiO2 
 PCOD9569945
Probable space group: P 42/N M C
;
_chemical_formula_sum "Si O2"
_cell_formula_units_Z 64
_cell_length_a 12.783403
_cell_length_b 12.783403
_cell_length_c 19.473128
_cell_angle_alpha 90.000000
_cell_angle_beta 90.000000
_cell_angle_gamma 90.000000
_cell_volume 3182.208851
_symmetry_space_group_name_H-M "P 42/N M C"
_symmetry_group_IT_number 137
_space_group.IT_coordinate_system_code '2'
_symmetry_cell_setting 'tetragonal'
loop_
_space_group_symop_operation_xyz
x,y,z
1/2-y,x,1/2+z
1/2-x,1/2-y,z
y,1/2-x,1/2+z
1/2+x,-y,-z
-x,1/2+y,-z
1/2+y,1/2+x,1/2-z
-y,-x,1/2-z
-x,-y,-z
1/2+y,-x,1/2-z
1/2+x,1/2+y,-z
-y,1/2+x,1/2-z
1/2-x,y,z
x,1/2-y,z
1/2-y,1/2-x,1/2+z
y,x,1/2+z
loop_
_atom_site_type_symbol
_atom_site_label
_atom_site_fract_x
_atom_site_fract_y
_atom_site_fract_z
Si Si1 0.250000 0.377241 0.000874
Si Si2 0.623141 0.750000 0.658880
Si Si3 0.454145 0.369262 0.752618
Si Si4 0.124425 0.423804 0.604656
Si Si5 0.623132 0.131953 0.330499
O O1 0.250000 0.250000 0.005308
O O2 0.353240 0.414668 0.041931
O O3 0.250000 0.403012 0.921305
O O4 0.750000 0.750000 0.663430
O O5 0.595242 0.641090 0.697365
O O6 0.553939 0.446062 0.750000
O O7 0.483635 0.250000 0.771255
O O8 0.405329 0.369895 0.676407
O O9 0.250000 0.427213 0.599484
O O10 0.086806 0.542785 0.616843
O O11 0.605523 0.105523 0.250000
O O12 0.750000 0.133571 0.335357
O O13 0.587371 0.250000 0.343718
#
# Coordination Sequence:
#
# PCOD9569945 Si02
#       5
#     8   8  16  16  16
#     4   9  18  32  58  90 120 162 205 254 310 360
#     4   9  20  40  64  91 125 161 206 264 317 365
#     4  11  22  38  63  91 122 160 212 264 308 362
#     4  10  17  30  56  85 118 156 202 254 303 367
#     4   8  14  24  40  71 117 156 187 240 308 370
#
# _framework density 20.111816999999999
#
# number of rings (size 3 to 8) (size 9 to 14) (size 15 to 20)
#    0.000    2.500    2.500    1.500    0.000    0.250 
#    2.250    1.250    0.000    1.875    0.000    7.000 
#    3.750    0.000    0.000    0.000    0.000    0.000 
#
# Total GULP energy -357090.533828 kJ/mol
# GULP energy per Si atom -5579.539591 kJ/mol
# Density = 2.006604 g / cm^3
# Si number density = 20.111817 Si / 1000 Ang^3
#
#
#
# Elastic Constant Matrix: (Units=GPa)
#
#
# Indices 1 2 3 4 5 6 
#
# 1 123.6623 71.6958 59.8312 0.0000 0.0000 0.0000
# 2 71.6958 123.6624 59.8316 0.0000 0.0000 0.0000
# 3 59.8312 59.8316 136.8422 0.0000 0.0000 0.0000
# 4 0.0000 0.0000 0.0000 15.4882 0.0000 0.0000
# 5 0.0000 0.0000 0.0000 0.0000 15.4878 0.0000
# 6 0.0000 0.0000 0.0000 0.0000 0.0000 32.6958
#
#
#
# Elastic Compliance Matrix: (Units=1/GPa)
#
#
# Indices 1 2 3 4 5 6 
#
# 1 0.013117 -0.006126 -0.003057 0.000000 0.000000 0.000000
# 2 -0.006126 0.013117 -0.003057 0.000000 0.000000 0.000000
# 3 -0.003057 -0.003057 0.009981 0.000000 0.000000 0.000000
# 4 0.000000 0.000000 0.000000 0.064565 0.000000 0.000000
# 5 0.000000 0.000000 0.000000 0.000000 0.064567 0.000000
# 6 0.000000 0.000000 0.000000 0.000000 0.000000 0.030585
#
#
# Mechanical properties :
#
#
# Convention : Reuss Voigt Hill
#
# Bulk Modulus (GPa) = 85.20766 85.20933 85.20849
# Shear Modulus (GPa) = 22.28927 25.58825 23.93876
#
# Velocity S-wave (km/s) = 3.33268 3.57080 3.45379
# Velocity P-wave (km/s) = 7.56756 7.71107 7.63965
#
# Compressibility (1/GPa) = 0.01173603
#
# Stress axis : x y z
#
# Youngs Moduli (GPa) = 76.23626 76.23600 100.19366
#
# Poissons Ratio (x) = 0.46702 0.30626
# Poissons Ratio (y) = 0.46702 0.30627
# Poissons Ratio (z) = 0.23303 0.23304
#
# Static dielectric constant tensor:
#      x y z
#    x 1.792810 0.000000 0.000000 
#    y 0.000000 1.792810 0.000000 
#    z 0.000000 0.000000 1.663850 
# 
# From -- ./inp_files/7485.got.cif
#   From: 2010.05.17/outbox.cif.g08.bks.cpg/sg137_4_cif.got.tgz:7485.got - 2010.05.20 13:01:12.
