data_PCOD9569593
_publ_section_title
;
Structure prediction by ZEFSAII (Michael W. Deem and Ramdas Pophale) SiO2 
 PCOD9569593
Probable space group: P 42/M N M
;
_chemical_formula_sum "Si O2"
_cell_formula_units_Z 112
_cell_length_a 16.534834
_cell_length_b 16.534834
_cell_length_c 23.731247
_cell_angle_alpha 90.000000
_cell_angle_beta 90.000000
_cell_angle_gamma 90.000000
_cell_volume 6488.140382
_symmetry_space_group_name_H-M "P 42/M N M"
_symmetry_group_IT_number 136
_symmetry_cell_setting 'tetragonal'
loop_
_space_group_symop_operation_xyz
x,y,z
1/2-y,1/2+x,1/2+z
-x,-y,z
1/2+y,1/2-x,1/2+z
1/2+x,1/2-y,1/2-z
1/2-x,1/2+y,1/2-z
y,x,-z
-y,-x,-z
-x,-y,-z
1/2+y,1/2-x,1/2-z
x,y,-z
1/2-y,1/2+x,1/2-z
1/2-x,1/2+y,1/2+z
1/2+x,1/2-y,1/2+z
-y,-x,z
y,x,z
loop_
_atom_site_type_symbol
_atom_site_label
_atom_site_fract_x
_atom_site_fract_y
_atom_site_fract_z
Si Si1 0.431379 0.931330 0.435419
Si Si2 0.007603 0.710886 0.356818
Si Si3 0.772097 0.538656 0.566421
Si Si4 0.365454 0.503045 0.651984
Si Si5 0.633914 0.496873 0.065508
Si Si6 0.816721 0.683223 0.647940
Si Si7 0.223737 0.909958 0.753749
O O1 0.399787 0.933115 0.500000
O O2 0.362117 0.951199 0.390925
O O3 0.476409 0.846355 0.426222
O O4 0.500000 0.000000 0.431233
O O5 0.053294 0.729506 0.298793
O O6 0.011313 0.790742 0.395062
O O7 0.912534 0.693447 0.347855
O O8 0.757663 0.549293 0.500000
O O9 0.695073 0.504280 0.599673
O O10 0.795625 0.623268 0.596111
O O11 0.413073 0.586928 0.655063
O O12 0.432151 0.432151 0.645994
O O13 0.316731 0.480823 0.708648
O O14 0.584005 0.415996 0.080623
O O15 0.570087 0.570087 0.069696
O O16 0.658411 0.490028 0.000000
O O17 0.766460 0.766460 0.641347
O O18 0.781391 0.638814 0.703351
O O19 0.152043 0.847958 0.736380
#
# Coordination Sequence:
#
# PCOD9569593 Si02
#       7
#    16  16  16  16  16  16  16
#     4  10  21  38  56  79 113 149 184 227 276 328
#     4  12  21  35  60  83 105 147 196 227 268 338
#     4  10  20  37  59  82 112 150 187 229 283 339
#     4   9  19  37  60  85 115 148 183 231 288 341
#     4   9  19  35  54  82 118 145 173 225 281 326
#     4  10  22  38  54  81 114 138 178 240 291 326
#     4   9  21  39  55  77 111 147 183 229 278 327
#
# _framework density 17.262263999999998
#
# number of rings (size 3 to 8) (size 9 to 14) (size 15 to 20)
#    0.000    2.143    1.429    3.000    0.000    5.429 
#    0.000    5.000    0.000    1.714    0.000    0.000 
#    0.000    0.000    0.000    0.000    0.000    0.000 
#
# Total GULP energy -625089.490138 kJ/mol
# GULP energy per Si atom -5581.156162 kJ/mol
# Density = 1.722297 g / cm^3
# Si number density = 17.262264 Si / 1000 Ang^3
#
#
#
# Elastic Constant Matrix: (Units=GPa)
#
#
# Indices 1 2 3 4 5 6 
#
# 1 71.8033 23.1558 60.8166 0.0000 0.0000 0.0000
# 2 23.1558 71.8033 60.8166 0.0000 0.0000 0.0000
# 3 60.8166 60.8166 127.4321 0.0000 0.0000 0.0000
# 4 0.0000 0.0000 0.0000 25.4081 0.0000 0.0000
# 5 0.0000 0.0000 0.0000 0.0000 25.4081 0.0000
# 6 0.0000 0.0000 0.0000 0.0000 0.0000 20.8119
#
#
#
# Elastic Compliance Matrix: (Units=1/GPa)
#
#
# Indices 1 2 3 4 5 6 
#
# 1 0.023824 0.003268 -0.012930 0.000000 0.000000 0.000000
# 2 0.003268 0.023824 -0.012930 0.000000 0.000000 0.000000
# 3 -0.012930 -0.012930 0.020189 0.000000 0.000000 0.000000
# 4 0.000000 0.000000 0.000000 0.039358 0.000000 0.000000
# 5 0.000000 0.000000 0.000000 0.000000 0.039358 0.000000
# 6 0.000000 0.000000 0.000000 0.000000 0.000000 0.048050
#
#
# Mechanical properties :
#
#
# Convention : Reuss Voigt Hill
#
# Bulk Modulus (GPa) = 44.14095 62.29077 53.21586
# Shear Modulus (GPa) = 20.21530 22.74224 21.47877
#
# Velocity S-wave (km/s) = 3.42580 3.63361 3.53124
# Velocity P-wave (km/s) = 6.42452 7.33263 6.89354
#
# Compressibility (1/GPa) = 0.02265470
#
# Stress axis : x y z
#
# Youngs Moduli (GPa) = 41.97362 41.97362 49.53201
#
# Poissons Ratio (x) = -0.13719 0.64045
# Poissons Ratio (y) = -0.13719 0.64045
# Poissons Ratio (z) = 0.54272 0.54272
#
# Static dielectric constant tensor:
#      x y z
#    x 1.572600 0.000000 0.000000 
#    y 0.000000 1.572600 0.000000 
#    z 0.000000 0.000000 1.565940 
# 
# From -- ./inp_files/8505.got.cif
#   From: 2010.05.17/outbox.cif.g08.bks.cpg/sg136_5_cif.got.tgz:8505.got - 2010.05.20 12:54:53.
