data_PCOD9569910
_publ_section_title
;
Structure prediction by ZEFSAII (Michael W. Deem and Ramdas Pophale) SiO2 
 PCOD9569910
Probable space group: P 42/M N M
;
_chemical_formula_sum "Si O2"
_cell_formula_units_Z 96
_cell_length_a 24.000000
_cell_length_b 24.000000
_cell_length_c 9.000000
_cell_angle_alpha 90.000000
_cell_angle_beta 90.000000
_cell_angle_gamma 90.000000
_cell_volume 5184.000000
_symmetry_space_group_name_H-M "P 42/M N M"
_symmetry_group_IT_number 136
_symmetry_cell_setting 'tetragonal'
loop_
_space_group_symop_operation_xyz
x,y,z
1/2-y,1/2+x,1/2+z
-x,-y,z
1/2+y,1/2-x,1/2+z
1/2+x,1/2-y,1/2-z
1/2-x,1/2+y,1/2-z
y,x,-z
-y,-x,-z
-x,-y,-z
1/2+y,1/2-x,1/2-z
x,y,-z
1/2-y,1/2+x,1/2-z
1/2-x,1/2+y,1/2+z
1/2+x,1/2-y,1/2+z
-y,-x,z
y,x,z
loop_
_atom_site_type_symbol
_atom_site_label
_atom_site_fract_x
_atom_site_fract_y
_atom_site_fract_z
Si Si1 0.959168 0.435127 0.166080
Si Si2 0.068239 0.068239 0.322336
Si Si3 0.224401 0.607176 0.320841
Si Si4 0.630943 0.543220 0.179064
Si Si5 0.153913 0.153913 0.821314
Si Si6 0.878458 0.330953 0.829671
Si Si7 0.748980 0.021040 0.819640
O O1 0.928713 0.491337 0.216581
O O2 0.917099 0.385264 0.166615
O O3 0.982841 0.439444 0.000000
O O4 0.073572 0.073572 0.500000
O O5 0.110581 0.110581 0.246056
O O6 0.005988 0.087220 0.284914
O O7 0.219670 0.607122 0.500000
O O8 0.283918 0.634459 0.278507
O O9 0.175872 0.647085 0.256900
O O10 0.225145 0.540836 0.275130
O O11 0.601702 0.601702 0.220356
O O12 0.688651 0.528575 0.258685
O O13 0.639279 0.543291 0.000000
O O14 0.151216 0.151216 0.000000
O O15 0.923054 0.284933 0.771698
O O16 0.862925 0.315836 0.000000
O O17 0.748338 0.020959 0.000000
#
# Coordination Sequence:
#
# PCOD9569910 Si02
#       7
#    16   8  16  16   8  16  16
#     4  10  19  32  51  76 106 139 178 227 281 337
#     4  10  19  34  60  90 120 150 182 228 283 339
#     4  10  21  38  61  84 112 149 191 239 287 336
#     4  10  21  37  58  87 120 152 186 228 282 344
#     4  10  20  37  61  87 112 148 194 237 281 334
#     4  10  22  37  54  80 111 146 189 233 282 337
#     4  10  21  39  60  83 114 152 193 239 287 338
#
# _framework density 18.518519000000001
#
# number of rings (size 3 to 8) (size 9 to 14) (size 15 to 20)
#    0.000    2.000    1.667    2.250    0.000    6.000 
#    1.500    0.000    0.000    1.500    0.000    0.000 
#    0.000    0.000    0.000    0.000    0.000    0.000 
#
# Total GULP energy -534944.809775 kJ/mol
# GULP energy per Si atom -5572.341768 kJ/mol
# Density = 1.847637 g / cm^3
# Si number density = 18.518519 Si / 1000 Ang^3
#
#
#
# Elastic Constant Matrix: (Units=GPa)
#
#
# Indices 1 2 3 4 5 6 
#
# 1 134.8009 27.2348 21.9100 0.0000 0.0000 0.0000
# 2 27.2348 134.8009 21.9100 0.0000 0.0000 0.0000
# 3 21.9100 21.9100 17.6160 0.0000 0.0000 0.0000
# 4 0.0000 0.0000 0.0000 20.5462 0.0000 0.0000
# 5 0.0000 0.0000 0.0000 0.0000 20.5462 0.0000
# 6 0.0000 0.0000 0.0000 0.0000 0.0000 41.2661
#
#
#
# Elastic Compliance Matrix: (Units=1/GPa)
#
#
# Indices 1 2 3 4 5 6 
#
# 1 0.009298 0.000001 -0.011566 0.000000 0.000000 0.000000
# 2 0.000001 0.009298 -0.011566 0.000000 0.000000 0.000000
# 3 -0.011566 -0.011566 0.085537 0.000000 0.000000 0.000000
# 4 0.000000 0.000000 0.000000 0.048671 0.000000 0.000000
# 5 0.000000 0.000000 0.000000 0.000000 0.048671 0.000000
# 6 0.000000 0.000000 0.000000 0.000000 0.000000 0.024233
#
#
# Mechanical properties :
#
#
# Convention : Reuss Voigt Hill
#
# Bulk Modulus (GPa) = 17.27967 47.70303 32.49135
# Shear Modulus (GPa) = 17.16682 30.88257 24.02469
#
# Velocity S-wave (km/s) = 3.04798 4.08813 3.60576
# Velocity P-wave (km/s) = 4.66243 6.93536 5.90921
#
# Compressibility (1/GPa) = 0.05787147
#
# Stress axis : x y z
#
# Youngs Moduli (GPa) = 107.55036 107.55036 11.69085
#
# Poissons Ratio (x) = -0.00015 0.13522
# Poissons Ratio (y) = -0.00015 0.13522
# Poissons Ratio (z) = 1.24393 1.24393
#
# Static dielectric constant tensor:
#      x y z
#    x 1.647720 0.000000 0.000000 
#    y 0.000000 1.647720 0.000000 
#    z 0.000000 0.000000 1.649570 
# 
# From -- ./inp_files/2030.got.cif
#   From: 2010.05.17/outbox.ucp.g08.bks.cvg/sg136_2_cif.got.tgz:2030.got - 2010.06.11 11:40:42.
