data_PCOD9569487
_publ_section_title
;
Structure prediction by ZEFSAII (Michael W. Deem and Ramdas Pophale) SiO2 
 PCOD9569487
Probable space group: P 42/M N M
;
_chemical_formula_sum "Si O2"
_cell_formula_units_Z 48
_cell_length_a 16.529750
_cell_length_b 16.529750
_cell_length_c 8.842859
_cell_angle_alpha 90.000000
_cell_angle_beta 90.000000
_cell_angle_gamma 90.000000
_cell_volume 2416.157666
_symmetry_space_group_name_H-M "P 42/M N M"
_symmetry_group_IT_number 136
_symmetry_cell_setting 'tetragonal'
loop_
_space_group_symop_operation_xyz
x,y,z
1/2-y,1/2+x,1/2+z
-x,-y,z
1/2+y,1/2-x,1/2+z
1/2+x,1/2-y,1/2-z
1/2-x,1/2+y,1/2-z
y,x,-z
-y,-x,-z
-x,-y,-z
1/2+y,1/2-x,1/2-z
x,y,-z
1/2-y,1/2+x,1/2-z
1/2-x,1/2+y,1/2+z
1/2+x,1/2-y,1/2+z
-y,-x,z
y,x,z
loop_
_atom_site_type_symbol
_atom_site_label
_atom_site_fract_x
_atom_site_fract_y
_atom_site_fract_z
Si Si1 0.613567 0.750326 0.175205
Si Si2 0.366980 0.506032 0.675556
Si Si3 0.919378 0.409641 0.177237
O O1 0.685803 0.685803 0.192013
O O2 0.531544 0.704373 0.226171
O O3 0.627025 0.828856 0.276510
O O4 0.607591 0.773957 0.000000
O O5 0.341753 0.514693 0.500000
O O6 0.411106 0.588895 0.724821
O O7 0.437660 0.437660 0.677965
O O8 0.894320 0.487360 0.274738
O O9 0.913435 0.427355 0.000000
#
# Coordination Sequence:
#
# PCOD9569487 Si02
#       3
#    16  16  16
#     4  10  20  34  54  82 115 147 181 224 274 325
#     4   8  14  26  45  70 102 141 182 220 262 316
#     4  11  22  39  62  84 109 141 182 226 270 323
#
# _framework density 19.866253
#
# number of rings (size 3 to 8) (size 9 to 14) (size 15 to 20)
#    0.000    2.333    0.000    6.000    0.000    2.667 
#    0.000    5.000    0.000   10.000    0.000    0.000 
#    0.000    0.000    0.000    0.000    0.000    0.000 
#
# Total GULP energy -267858.267134 kJ/mol
# GULP energy per Si atom -5580.380565 kJ/mol
# Density = 1.982104 g / cm^3
# Si number density = 19.866253 Si / 1000 Ang^3
#
#
#
# Elastic Constant Matrix: (Units=GPa)
#
#
# Indices 1 2 3 4 5 6 
#
# 1 37.0250 -3.3795 8.5620 0.0000 0.0000 0.0000
# 2 -3.3795 37.0250 8.5620 0.0000 0.0000 0.0000
# 3 8.5620 8.5620 53.0146 0.0000 0.0000 0.0000
# 4 0.0000 0.0000 0.0000 27.9832 0.0000 0.0000
# 5 0.0000 0.0000 0.0000 0.0000 27.9832 0.0000
# 6 0.0000 0.0000 0.0000 0.0000 0.0000 -0.0211
#
#
#
# Elastic Compliance Matrix: (Units=1/GPa)
#
#
# Indices 1 2 3 4 5 6 
#
# 1 0.028567 0.003817 -0.005230 0.000000 0.000000 0.000000
# 2 0.003817 0.028567 -0.005230 0.000000 0.000000 0.000000
# 3 -0.005230 -0.005230 0.020552 0.000000 0.000000 0.000000
# 4 0.000000 0.000000 0.000000 0.035736 0.000000 0.000000
# 5 0.000000 0.000000 0.000000 0.000000 0.035736 0.000000
# 6 0.000000 0.000000 0.000000 0.000000 0.000000-47.310809
#
#
# Mechanical properties :
#
#
# Convention : Reuss Voigt Hill
#
# Bulk Modulus (GPa) = 15.52821 17.17261 16.35041
# Shear Modulus (GPa) = -0.10610 18.74372 9.31881
#
# Velocity S-wave (km/s) = -0.23135 3.07497 2.16817
# Velocity P-wave (km/s) = 2.78603 4.61196 3.80999
#
# Compressibility (1/GPa) = 0.06439893
#
# Stress axis : x y z
#
# Youngs Moduli (GPa) = 35.00594 35.00594 48.65697
#
# Poissons Ratio (x) = -0.13361 0.25448
# Poissons Ratio (y) = -0.13361 0.25448
# Poissons Ratio (z) = 0.18308 0.18308
#
# Static dielectric constant tensor:
#      x y z
#    x 1.726120 0.000000 0.000000 
#    y 0.000000 1.726120 0.000000 
#    z 0.000000 0.000000 1.672350 
# 
# From -- ./inp_files/827.got.cif
#   From: 2010.05.17/outbox.cif.g08.bks.cpg/sg136_1_cif.got.tgz:827.got - 2010.05.20 12:54:53.
