data_PCOD9569414
_publ_section_title
;
Structure prediction by ZEFSAII (Michael W. Deem and Ramdas Pophale) SiO2 
 PCOD9569414
Probable space group: P 42/M N M
;
_chemical_formula_sum "Si O2"
_cell_formula_units_Z 80
_cell_length_a 13.687763
_cell_length_b 13.687763
_cell_length_c 26.067865
_cell_angle_alpha 90.000000
_cell_angle_beta 90.000000
_cell_angle_gamma 90.000000
_cell_volume 4883.941092
_symmetry_space_group_name_H-M "P 42/M N M"
_symmetry_group_IT_number 136
_symmetry_cell_setting 'tetragonal'
loop_
_space_group_symop_operation_xyz
x,y,z
1/2-y,1/2+x,1/2+z
-x,-y,z
1/2+y,1/2-x,1/2+z
1/2+x,1/2-y,1/2-z
1/2-x,1/2+y,1/2-z
y,x,-z
-y,-x,-z
-x,-y,-z
1/2+y,1/2-x,1/2-z
x,y,-z
1/2-y,1/2+x,1/2-z
1/2-x,1/2+y,1/2+z
1/2+x,1/2-y,1/2+z
-y,-x,z
y,x,z
loop_
_atom_site_type_symbol
_atom_site_label
_atom_site_fract_x
_atom_site_fract_y
_atom_site_fract_z
Si Si1 0.260197 0.423311 0.139990
Si Si2 0.241756 0.593720 0.940130
Si Si3 0.619578 0.782522 0.363032
Si Si4 0.902212 0.739303 0.716287
Si Si5 0.398171 0.762704 0.661742
O O1 0.355816 0.355816 0.141451
O O2 0.258143 0.494484 0.091115
O O3 0.254587 0.493981 0.189368
O O4 0.167689 0.351182 0.140835
O O5 0.337589 0.662412 0.935072
O O6 0.156329 0.653786 0.911377
O O7 0.222154 0.578505 0.000000
O O8 0.684051 0.684051 0.361989
O O9 0.652363 0.846246 0.313415
O O10 0.505397 0.762177 0.361951
O O11 0.834701 0.834701 0.706773
O O12 0.907838 0.723775 0.776791
O O13 0.336339 0.663662 0.653260
#
# Coordination Sequence:
#
# PCOD9569414 Si02
#       5
#    16  16  16  16  16
#     4  10  20  33  49  74 108 135 161 205 252 294
#     4   9  19  36  57  78  98 126 164 203 250 306
#     4   9  18  34  52  70  96 128 166 210 247 287
#     4   9  18  31  48  71  99 134 170 200 239 293
#     4  10  20  32  47  71 102 134 167 202 244 292
#
# _framework density 16.380213000000001
#
# number of rings (size 3 to 8) (size 9 to 14) (size 15 to 20)
#    0.000    2.600    0.000    3.000    0.000    8.000 
#    0.000    9.000    0.000    1.800    0.000    2.800 
#    0.000    0.000    0.000    0.000    0.000    0.000 
#
# Total GULP energy -446198.352724 kJ/mol
# GULP energy per Si atom -5577.479409 kJ/mol
# Density = 1.634293 g / cm^3
# Si number density = 16.380213 Si / 1000 Ang^3
#
#
#
# Elastic Constant Matrix: (Units=GPa)
#
#
# Indices 1 2 3 4 5 6 
#
# 1 135.8647 60.1560 51.3503 0.0000 0.0000 0.0000
# 2 60.1560 135.8647 51.3503 0.0000 0.0000 0.0000
# 3 51.3503 51.3503 80.6761 0.0000 0.0000 0.0000
# 4 0.0000 0.0000 0.0000 11.4473 0.0000 0.0000
# 5 0.0000 0.0000 0.0000 0.0000 11.4473 0.0000
# 6 0.0000 0.0000 0.0000 0.0000 0.0000 7.5404
#
#
#
# Elastic Compliance Matrix: (Units=1/GPa)
#
#
# Indices 1 2 3 4 5 6 
#
# 1 0.010431 -0.002777 -0.004872 0.000000 0.000000 0.000000
# 2 -0.002777 0.010431 -0.004872 0.000000 0.000000 0.000000
# 3 -0.004872 -0.004872 0.018597 0.000000 0.000000 0.000000
# 4 0.000000 0.000000 0.000000 0.087357 0.000000 0.000000
# 5 0.000000 0.000000 0.000000 0.000000 0.087357 0.000000
# 6 0.000000 0.000000 0.000000 0.000000 0.000000 0.132620
#
#
# Mechanical properties :
#
#
# Convention : Reuss Voigt Hill
#
# Bulk Modulus (GPa) = 69.35817 75.34653 72.35235
# Shear Modulus (GPa) = 13.27525 18.72357 15.99941
#
# Velocity S-wave (km/s) = 2.84992 3.38459 3.12869
# Velocity P-wave (km/s) = 7.29822 7.83404 7.57087
#
# Compressibility (1/GPa) = 0.01441791
#
# Stress axis : x y z
#
# Youngs Moduli (GPa) = 95.86600 95.86600 53.77223
#
# Poissons Ratio (x) = 0.26625 0.26196
# Poissons Ratio (y) = 0.26625 0.26196
# Poissons Ratio (z) = 0.46703 0.46703
#
# Static dielectric constant tensor:
#      x y z
#    x 1.536190 0.000000 0.000000 
#    y 0.000000 1.536190 0.000000 
#    z 0.000000 0.000000 1.541160 
# 
# From -- ./inp_files/9525.got.cif
#   From: 2010.05.17/outbox.cif.g08.bks.cpg/sg136_5_cif.got.tgz:9525.got - 2010.05.20 12:54:53.
