data_PCOD9569303
_publ_section_title
;
Structure prediction by ZEFSAII (Michael W. Deem and Ramdas Pophale) SiO2 
 PCOD9569303
Probable space group: P 42/M N M
;
_chemical_formula_sum "Si O2"
_cell_formula_units_Z 96
_cell_length_a 20.679465
_cell_length_b 20.679465
_cell_length_c 13.735167
_cell_angle_alpha 90.000000
_cell_angle_beta 90.000000
_cell_angle_gamma 90.000000
_cell_volume 5873.710561
_symmetry_space_group_name_H-M "P 42/M N M"
_symmetry_group_IT_number 136
_symmetry_cell_setting 'tetragonal'
loop_
_space_group_symop_operation_xyz
x,y,z
1/2-y,1/2+x,1/2+z
-x,-y,z
1/2+y,1/2-x,1/2+z
1/2+x,1/2-y,1/2-z
1/2-x,1/2+y,1/2-z
y,x,-z
-y,-x,-z
-x,-y,-z
1/2+y,1/2-x,1/2-z
x,y,-z
1/2-y,1/2+x,1/2-z
1/2-x,1/2+y,1/2+z
1/2+x,1/2-y,1/2+z
-y,-x,z
y,x,z
loop_
_atom_site_type_symbol
_atom_site_label
_atom_site_fract_x
_atom_site_fract_y
_atom_site_fract_z
Si Si1 0.312092 0.880190 0.616428
Si Si2 0.503655 0.392567 0.889795
Si Si3 0.364673 0.738592 0.382237
Si Si4 0.775439 0.509454 0.383662
Si Si5 0.809718 0.082303 0.260582
Si Si6 0.398419 0.970558 0.249672
O O1 0.313322 0.886078 0.500000
O O2 0.332633 0.807278 0.643676
O O3 0.241512 0.892453 0.660208
O O4 0.360633 0.931431 0.666303
O O5 0.570372 0.429628 0.869389
O O6 0.448119 0.448119 0.891226
O O7 0.480492 0.342589 0.809524
O O8 0.506092 0.365485 0.000000
O O9 0.363685 0.734855 0.500000
O O10 0.321666 0.678335 0.345555
O O11 0.439743 0.745114 0.355368
O O12 0.779200 0.513474 0.500000
O O13 0.729490 0.562955 0.335343
O O14 0.846015 0.516941 0.335070
O O15 0.864437 0.135564 0.242617
O O16 0.460153 0.927443 0.218502
#
# Coordination Sequence:
#
# PCOD9569303 Si02
#       6
#    16  16  16  16  16  16
#     4  10  19  32  52  80 107 131 168 217 265 311
#     4   8  14  26  45  70 101 134 166 206 259 309
#     4   9  17  31  51  72  97 132 170 209 256 304
#     4  10  21  36  51  73 107 141 178 216 257 313
#     4  10  20  32  50  76 104 136 177 221 259 300
#     4  10  20  34  54  79 107 137 170 211 264 324
#
# _framework density 16.344011999999999
#
# number of rings (size 3 to 8) (size 9 to 14) (size 15 to 20)
#    0.000    2.500    1.667    1.500    0.000    3.333 
#    0.000    1.667    0.000    0.000    0.000    4.667 
#    0.000    0.000    0.000    0.000    0.000    0.000 
#
# Total GULP energy -534733.891605 kJ/mol
# GULP energy per Si atom -5570.144704 kJ/mol
# Density = 1.630681 g / cm^3
# Si number density = 16.344012 Si / 1000 Ang^3
#
#
#
# Elastic Constant Matrix: (Units=GPa)
#
#
# Indices 1 2 3 4 5 6 
#
# 1 92.6237 45.9347 41.1537 0.0000 0.0000 0.0000
# 2 45.9347 92.6237 41.1537 0.0000 0.0000 0.0000
# 3 41.1537 41.1537 70.6488 0.0000 0.0000 0.0000
# 4 0.0000 0.0000 0.0000 13.1954 0.0000 0.0000
# 5 0.0000 0.0000 0.0000 0.0000 13.1954 0.0000
# 6 0.0000 0.0000 0.0000 0.0000 0.0000 29.0414
#
#
#
# Elastic Compliance Matrix: (Units=1/GPa)
#
#
# Indices 1 2 3 4 5 6 
#
# 1 0.016227 -0.005191 -0.006429 0.000000 0.000000 0.000000
# 2 -0.005191 0.016227 -0.006429 0.000000 0.000000 0.000000
# 3 -0.006429 -0.006429 0.021644 0.000000 0.000000 0.000000
# 4 0.000000 0.000000 0.000000 0.075784 0.000000 0.000000
# 5 0.000000 0.000000 0.000000 0.000000 0.075784 0.000000
# 6 0.000000 0.000000 0.000000 0.000000 0.000000 0.034434
#
#
# Mechanical properties :
#
#
# Convention : Reuss Voigt Hill
#
# Bulk Modulus (GPa) = 55.55068 56.93114 56.24091
# Shear Modulus (GPa) = 17.71812 19.59671 18.65742
#
# Velocity S-wave (km/s) = 3.29610 3.46644 3.38234
# Velocity P-wave (km/s) = 6.96763 7.13654 7.05259
#
# Compressibility (1/GPa) = 0.01800158
#
# Stress axis : x y z
#
# Youngs Moduli (GPa) = 61.62534 61.62534 46.20239
#
# Poissons Ratio (x) = 0.31991 0.29701
# Poissons Ratio (y) = 0.31991 0.29701
# Poissons Ratio (z) = 0.39616 0.39616
#
# Static dielectric constant tensor:
#      x y z
#    x 1.555240 0.000000 0.000000 
#    y 0.000000 1.555240 0.000000 
#    z 0.000000 0.000000 1.522220 
# 
# From -- ./inp_files/3780.got.cif
#   From: 2010.05.17/outbox.cif.g08.bks.cpg/sg136_2_cif.got.tgz:3780.got - 2010.05.20 12:54:53.
