data_PCOD9569174
_publ_section_title
;
Structure prediction by ZEFSAII (Michael W. Deem and Ramdas Pophale) SiO2 
 PCOD9569174
Probable space group: P 42/M N M
;
_chemical_formula_sum "Si O2"
_cell_formula_units_Z 96
_cell_length_a 23.691214
_cell_length_b 23.691214
_cell_length_c 7.597387
_cell_angle_alpha 90.000000
_cell_angle_beta 90.000000
_cell_angle_gamma 90.000000
_cell_volume 4264.212910
_symmetry_space_group_name_H-M "P 42/M N M"
_symmetry_group_IT_number 136
_symmetry_cell_setting 'tetragonal'
loop_
_space_group_symop_operation_xyz
x,y,z
1/2-y,1/2+x,1/2+z
-x,-y,z
1/2+y,1/2-x,1/2+z
1/2+x,1/2-y,1/2-z
1/2-x,1/2+y,1/2-z
y,x,-z
-y,-x,-z
-x,-y,-z
1/2+y,1/2-x,1/2-z
x,y,-z
1/2-y,1/2+x,1/2-z
1/2-x,1/2+y,1/2+z
1/2+x,1/2-y,1/2+z
-y,-x,z
y,x,z
loop_
_atom_site_type_symbol
_atom_site_label
_atom_site_fract_x
_atom_site_fract_y
_atom_site_fract_z
Si Si1 0.490023 0.164852 0.708396
Si Si2 0.997893 0.091121 0.785479
Si Si3 0.998209 0.784900 0.196504
Si Si4 0.783175 0.304621 0.289020
Si Si5 0.712177 0.623389 0.789613
Si Si6 0.375718 0.107357 0.707999
O O1 0.481967 0.175282 0.500000
O O2 0.511997 0.224651 0.785672
O O3 0.429967 0.142584 0.779576
O O4 0.543026 0.123556 0.727150
O O5 0.940737 0.059264 0.725421
O O6 0.011339 0.153881 0.719104
O O7 0.994016 0.095267 0.000000
O O8 0.048567 0.048567 0.744750
O O9 0.066030 0.783055 0.188000
O O10 0.972041 0.785510 0.000000
O O11 0.778793 0.305331 0.500000
O O12 0.723426 0.276574 0.225372
O O13 0.831066 0.259067 0.238183
O O14 0.815111 0.362617 0.242630
O O15 0.652670 0.652670 0.756987
O O16 0.717745 0.613578 0.000000
O O17 0.382875 0.105600 0.500000
#
# Coordination Sequence:
#
# PCOD9569174 Si02
#       6
#    16  16  16  16  16  16
#     4  10  23  40  57  81 112 142 183 238 292 354
#     4   8  14  25  44  74 109 142 179 223 269 316
#     4  10  18  31  51  76 106 140 181 229 273 321
#     4   9  18  34  57  84 116 151 182 221 277 336
#     4   9  17  28  46  76 110 140 171 211 264 325
#     4  11  23  40  61  86 114 147 188 237 290 342
#
# _framework density 22.512948000000002
#
# number of rings (size 3 to 8) (size 9 to 14) (size 15 to 20)
#    0.000    2.500    1.667    2.500    0.000    3.667 
#    0.000    4.167    0.000    3.500    0.000    2.333 
#    0.000    0.000    0.000    0.000    0.000    0.000 
#
# Total GULP energy -534826.295348 kJ/mol
# GULP energy per Si atom -5571.107243 kJ/mol
# Density = 2.246171 g / cm^3
# Si number density = 22.512948 Si / 1000 Ang^3
#
#
#
# Elastic Constant Matrix: (Units=GPa)
#
#
# Indices 1 2 3 4 5 6 
#
# 1 99.9584 49.8251 2.4039 0.0000 0.0000 0.0000
# 2 49.8251 99.9584 2.4039 0.0000 0.0000 0.0000
# 3 2.4039 2.4039 44.1509 0.0000 0.0000 0.0000
# 4 0.0000 0.0000 0.0000 16.2312 0.0000 0.0000
# 5 0.0000 0.0000 0.0000 0.0000 16.2312 0.0000
# 6 0.0000 0.0000 0.0000 0.0000 0.0000 24.2676
#
#
#
# Elastic Compliance Matrix: (Units=1/GPa)
#
#
# Indices 1 2 3 4 5 6 
#
# 1 0.013317 -0.006629 -0.000364 0.000000 0.000000 0.000000
# 2 -0.006629 0.013317 -0.000364 0.000000 0.000000 0.000000
# 3 -0.000364 -0.000364 0.022689 0.000000 0.000000 0.000000
# 4 0.000000 0.000000 0.000000 0.061610 0.000000 0.000000
# 5 0.000000 0.000000 0.000000 0.000000 0.061610 0.000000
# 6 0.000000 0.000000 0.000000 0.000000 0.000000 0.041207
#
#
# Mechanical properties :
#
#
# Convention : Reuss Voigt Hill
#
# Bulk Modulus (GPa) = 28.89451 39.25929 34.07690
# Shear Modulus (GPa) = 20.83312 23.97498 22.40405
#
# Velocity S-wave (km/s) = 3.04531 3.26689 3.15804
# Velocity P-wave (km/s) = 5.02272 5.63085 5.33546
#
# Compressibility (1/GPa) = 0.03460865
#
# Stress axis : x y z
#
# Youngs Moduli (GPa) = 75.08965 75.08965 44.07374
#
# Poissons Ratio (x) = 0.49780 0.01605
# Poissons Ratio (y) = 0.49780 0.01605
# Poissons Ratio (z) = 0.02734 0.02734
#
# Static dielectric constant tensor:
#      x y z
#    x 1.879980 0.000000 0.000000 
#    y 0.000000 1.879980 0.000000 
#    z 0.000000 0.000000 1.905460 
# 
# From -- ./inp_files/1915.got.cif
#   From: 2010.05.17/outbox.cif.g08.bks.cpg/sg136_1_cif.got.tgz:1915.got - 2010.05.20 12:54:53.
