data_PCOD9569885
_publ_section_title
;
Structure prediction by ZEFSAII (Michael W. Deem and Ramdas Pophale) SiO2 
 PCOD9569885
Probable space group: P 42/M N M
;
_chemical_formula_sum "Si O2"
_cell_formula_units_Z 72
_cell_length_a 24.055553
_cell_length_b 24.055553
_cell_length_c 7.410851
_cell_angle_alpha 90.000000
_cell_angle_beta 90.000000
_cell_angle_gamma 90.000000
_cell_volume 4288.434407
_symmetry_space_group_name_H-M "P 42/M N M"
_symmetry_group_IT_number 136
_symmetry_cell_setting 'tetragonal'
loop_
_space_group_symop_operation_xyz
x,y,z
1/2-y,1/2+x,1/2+z
-x,-y,z
1/2+y,1/2-x,1/2+z
1/2+x,1/2-y,1/2-z
1/2-x,1/2+y,1/2-z
y,x,-z
-y,-x,-z
-x,-y,-z
1/2+y,1/2-x,1/2-z
x,y,-z
1/2-y,1/2+x,1/2-z
1/2-x,1/2+y,1/2+z
1/2+x,1/2-y,1/2+z
-y,-x,z
y,x,z
loop_
_atom_site_type_symbol
_atom_site_label
_atom_site_fract_x
_atom_site_fract_y
_atom_site_fract_z
Si Si1 0.893482 0.803641 0.286652
Si Si2 0.869648 0.222577 0.280199
Si Si3 0.045141 0.954860 0.280175
Si Si4 0.170794 0.983390 0.720795
Si Si5 0.692490 0.216739 0.716538
O O1 0.896854 0.813946 0.500000
O O2 0.849759 0.849759 0.212866
O O3 0.866722 0.742567 0.265134
O O4 0.955756 0.810636 0.216301
O O5 0.870293 0.222517 0.500000
O O6 0.827623 0.172378 0.229064
O O7 0.931663 0.208693 0.219863
O O8 0.841333 0.280655 0.222105
O O9 0.044931 0.955070 0.500000
O O10 0.028969 0.892684 0.225060
O O11 0.000000 0.000000 0.220793
O O12 0.171767 0.983274 0.500000
O O13 0.694119 0.215969 0.500000
O O14 0.736715 0.263286 0.779892
#
# Coordination Sequence:
#
# PCOD9569885 Si02
#       5
#    16  16   8  16  16
#     4   9  16  24  34  52  77 100 119 142 178 220
#     4   8  12  20  34  51  68  89 121 157 184 205
#     4   9  14  18  26  44  73 105 127 145 175 210
#     4   9  14  20  31  49  74  99 122 149 179 210
#     4   8  14  24  38  52  66  89 123 155 181 210
#
# _framework density 16.789344
#
# number of rings (size 3 to 8) (size 9 to 14) (size 15 to 20)
#    0.000    3.444    1.111    2.000    0.000    2.667 
#    0.000    0.000    0.000    1.333    0.000    0.778 
#    0.000    5.333    0.000   11.111    0.000    0.000 
#
# Total GULP energy -400911.726148 kJ/mol
# GULP energy per Si atom -5568.218419 kJ/mol
# Density = 1.675113 g / cm^3
# Si number density = 16.789344 Si / 1000 Ang^3
#
#
#
# Elastic Constant Matrix: (Units=GPa)
#
#
# Indices 1 2 3 4 5 6 
#
# 1 120.0945 106.2962 3.5028 0.0000 0.0000 0.0000
# 2 106.2962 120.0944 3.5028 0.0000 0.0000 0.0000
# 3 3.5028 3.5028 52.5627 0.0000 0.0000 0.0000
# 4 0.0000 0.0000 0.0000 2.6443 0.0000 0.0000
# 5 0.0000 0.0000 0.0000 0.0000 2.6442 0.0000
# 6 0.0000 0.0000 0.0000 0.0000 0.0000 31.3162
#
#
#
# Elastic Compliance Matrix: (Units=1/GPa)
#
#
# Indices 1 2 3 4 5 6 
#
# 1 0.038450 -0.034024 -0.000295 0.000000 0.000000 0.000000
# 2 -0.034024 0.038450 -0.000295 0.000000 0.000000 0.000000
# 3 -0.000295 -0.000295 0.019064 0.000000 0.000000 0.000000
# 4 0.000000 0.000000 0.000000 0.378175 0.000000 0.000000
# 5 0.000000 0.000000 0.000000 0.000000 0.378180 0.000000
# 6 0.000000 0.000000 0.000000 0.000000 0.000000 0.031932
#
#
# Mechanical properties :
#
#
# Convention : Reuss Voigt Hill
#
# Bulk Modulus (GPa) = 37.40151 57.70613 47.55382
# Shear Modulus (GPa) = 5.19539 19.28425 12.23982
#
# Velocity S-wave (km/s) = 1.76102 3.39278 2.70297
# Velocity P-wave (km/s) = 5.14395 7.05643 6.17468
#
# Compressibility (1/GPa) = 0.02673689
#
# Stress axis : x y z
#
# Youngs Moduli (GPa) = 26.00796 26.00794 52.45427
#
# Poissons Ratio (x) = 0.88488 0.01547
# Poissons Ratio (y) = 0.88488 0.01547
# Poissons Ratio (z) = 0.00767 0.00767
#
# Static dielectric constant tensor:
#      x y z
#    x 1.571660 0.000000 0.000000 
#    y 0.000000 1.571660 0.000000 
#    z 0.000000 0.000000 1.671400 
# 
# From -- ./inp_files/1712.got.cif
#   From: 2010.05.17/outbox.cif.g08.bks.cpg/sg136_1_cif.got.tgz:1712.got - 2010.05.20 12:54:53.
