data_PCOD9569096
_publ_section_title
;
Structure prediction by ZEFSAII (Michael W. Deem and Ramdas Pophale) SiO2 
 PCOD9569096
Probable space group: P 42/M N M
;
_chemical_formula_sum "Si O2"
_cell_formula_units_Z 84
_cell_length_a 12.042773
_cell_length_b 12.042773
_cell_length_c 30.592608
_cell_angle_alpha 90.000000
_cell_angle_beta 90.000000
_cell_angle_gamma 90.000000
_cell_volume 4436.796425
_symmetry_space_group_name_H-M "P 42/M N M"
_symmetry_group_IT_number 136
_symmetry_cell_setting 'tetragonal'
loop_
_space_group_symop_operation_xyz
x,y,z
1/2-y,1/2+x,1/2+z
-x,-y,z
1/2+y,1/2-x,1/2+z
1/2+x,1/2-y,1/2-z
1/2-x,1/2+y,1/2-z
y,x,-z
-y,-x,-z
-x,-y,-z
1/2+y,1/2-x,1/2-z
x,y,-z
1/2-y,1/2+x,1/2-z
1/2-x,1/2+y,1/2+z
1/2+x,1/2-y,1/2+z
-y,-x,z
y,x,z
loop_
_atom_site_type_symbol
_atom_site_label
_atom_site_fract_x
_atom_site_fract_y
_atom_site_fract_z
Si Si1 0.910395 0.089605 0.126348
Si Si2 0.974066 0.332192 0.232188
Si Si3 0.476204 0.868589 0.000000
Si Si4 0.589125 0.589125 0.267070
Si Si5 0.168074 0.496512 0.372238
Si Si6 0.197234 0.197234 0.500000
Si Si7 0.092297 0.092297 0.411985
Si Si8 0.819436 0.516206 0.903303
O O1 0.909056 0.090945 0.179667
O O2 0.788747 0.046790 0.112859
O O3 0.000000 0.000000 0.112005
O O4 0.877037 0.416774 0.244375
O O5 0.944229 0.210506 0.247557
O O6 0.991165 0.334604 0.180268
O O7 0.347360 0.824446 0.000000
O O8 0.527755 0.820105 0.044264
O O9 0.500000 0.000000 0.000000
O O10 0.500000 0.500000 0.252678
O O11 0.126755 0.620477 0.384836
O O12 0.080346 0.407714 0.391081
O O13 0.143607 0.143607 0.456516
O O14 0.029642 0.197990 0.389497
O O15 0.000000 0.000000 0.421139
#
# Coordination Sequence:
#
# PCOD9569096 Si02
#       8
#     8  16   8   8  16   4   8  16
#     4   9  19  35  52  78 101 139 179 211 259 324
#     4  10  20  35  58  79 104 140 178 213 268 325
#     4  10  16  31  49  82 103 131 179 225 262 307
#     4   9  20  35  55  79 107 136 176 222 260 311
#     4  10  19  34  57  76 104 137 171 226 264 309
#     4   8  19  30  50  72 106 144 173 216 265 322
#     4  10  20  33  50  74 110 144 178 213 265 325
#     4  10  19  32  54  79 105 136 179 221 267 311
#
# _framework density 18.932580000000002
#
# number of rings (size 3 to 8) (size 9 to 14) (size 15 to 20)
#    0.000    2.286    1.905    3.000    1.333    0.762 
#    0.000    0.000    8.381    0.000    0.000    3.333 
#    0.000    0.000    0.000    0.000    0.000    0.000 
#
# Total GULP energy -467912.835646 kJ/mol
# GULP energy per Si atom -5570.390901 kJ/mol
# Density = 1.888949 g / cm^3
# Si number density = 18.932580 Si / 1000 Ang^3
#
#
#
# Elastic Constant Matrix: (Units=GPa)
#
#
# Indices 1 2 3 4 5 6 
#
# 1 150.4811 80.3286 16.4926 0.0000 0.0000 0.0000
# 2 80.3286 150.4811 16.4926 0.0000 0.0000 0.0000
# 3 16.4926 16.4926 46.6805 0.0000 0.0000 0.0000
# 4 0.0000 0.0000 0.0000 10.8828 0.0000 0.0000
# 5 0.0000 0.0000 0.0000 0.0000 10.8828 0.0000
# 6 0.0000 0.0000 0.0000 0.0000 0.0000 -1.5628
#
#
#
# Elastic Compliance Matrix: (Units=1/GPa)
#
#
# Indices 1 2 3 4 5 6 
#
# 1 0.009409 -0.004846 -0.001612 0.000000 0.000000 0.000000
# 2 -0.004846 0.009409 -0.001612 0.000000 0.000000 0.000000
# 3 -0.001612 -0.001612 0.022561 0.000000 0.000000 0.000000
# 4 0.000000 0.000000 0.000000 0.091888 0.000000 0.000000
# 5 0.000000 0.000000 0.000000 0.000000 0.091888 0.000000
# 6 0.000000 0.000000 0.000000 0.000000 0.000000 -0.639884
#
#
# Mechanical properties :
#
#
# Convention : Reuss Voigt Hill
#
# Bulk Modulus (GPa) = 39.62157 63.80782 51.71470
# Shear Modulus (GPa) = -12.81473 19.66249 3.42388
#
# Velocity S-wave (km/s) = -2.60448 3.22616 1.34625
# Velocity P-wave (km/s) = 3.45380 6.90313 5.45811
#
# Compressibility (1/GPa) = 0.02523878
#
# Stress axis : x y z
#
# Youngs Moduli (GPa) = 106.28336 106.28336 44.32350
#
# Poissons Ratio (x) = 0.51503 0.07146
# Poissons Ratio (y) = 0.51503 0.07146
# Poissons Ratio (z) = 0.17134 0.17134
#
# Static dielectric constant tensor:
#      x y z
#    x 1.663600 0.000000 0.000000 
#    y 0.000000 1.663600 0.000000 
#    z 0.000000 0.000000 1.663610 
# 
# From -- ./inp_files/9814.got.cif
#   From: 2010.05.17/outbox.cif.g08.bks.cpg/sg136_5_cif.got.tgz:9814.got - 2010.05.20 12:54:53.
