data_PCOD9569589
_publ_section_title
;
Structure prediction by ZEFSAII (Michael W. Deem and Ramdas Pophale) SiO2 
 PCOD9569589
Probable space group: P 42/M N M
;
_chemical_formula_sum "Si O2"
_cell_formula_units_Z 72
_cell_length_a 22.345392
_cell_length_b 22.345392
_cell_length_c 7.851249
_cell_angle_alpha 90.000000
_cell_angle_beta 90.000000
_cell_angle_gamma 90.000000
_cell_volume 3920.258514
_symmetry_space_group_name_H-M "P 42/M N M"
_symmetry_group_IT_number 136
_symmetry_cell_setting 'tetragonal'
loop_
_space_group_symop_operation_xyz
x,y,z
1/2-y,1/2+x,1/2+z
-x,-y,z
1/2+y,1/2-x,1/2+z
1/2+x,1/2-y,1/2-z
1/2-x,1/2+y,1/2-z
y,x,-z
-y,-x,-z
-x,-y,-z
1/2+y,1/2-x,1/2-z
x,y,-z
1/2-y,1/2+x,1/2-z
1/2-x,1/2+y,1/2+z
1/2+x,1/2-y,1/2+z
-y,-x,z
y,x,z
loop_
_atom_site_type_symbol
_atom_site_label
_atom_site_fract_x
_atom_site_fract_y
_atom_site_fract_z
Si Si1 0.100986 0.000416 0.000000
Si Si2 0.181888 0.511601 0.301655
Si Si3 0.477131 0.308857 0.804088
Si Si4 0.889427 0.374184 0.197545
Si Si5 0.152126 0.752711 0.295067
O O1 0.143008 0.998386 0.166925
O O2 0.058330 0.058330 0.000000
O O3 0.057326 0.942675 0.000000
O O4 0.194683 0.498398 0.500000
O O5 0.246181 0.513043 0.211291
O O6 0.144551 0.571974 0.287029
O O7 0.143061 0.455394 0.234364
O O8 0.408857 0.289431 0.760795
O O9 0.478980 0.330059 0.000000
O O10 0.853185 0.312377 0.214557
O O11 0.895253 0.391197 0.000000
O O12 0.154858 0.745343 0.500000
O O13 0.208364 0.791637 0.238386
#
# Coordination Sequence:
#
# PCOD9569589 Si02
#       5
#     8  16  16  16  16
#     4  11  24  40  60  90 122 153 198 246 290 351
#     4  10  20  37  58  82 116 155 196 241 295 350
#     4  10  20  38  62  86 116 156 195 238 295 352
#     4  10  21  34  53  82 112 150 194 241 293 347
#     4   9  18  33  55  83 110 141 187 240 295 346
#
# _framework density 18.366136000000001
#
# number of rings (size 3 to 8) (size 9 to 14) (size 15 to 20)
#    0.000    2.111    1.111    2.000    1.556    5.333 
#    0.000    4.444    0.000    2.667    0.000    0.000 
#    0.000    0.000    0.000    0.000    0.000    0.000 
#
# Total GULP energy -401882.227255 kJ/mol
# GULP energy per Si atom -5581.697601 kJ/mol
# Density = 1.832433 g / cm^3
# Si number density = 18.366136 Si / 1000 Ang^3
#
#
#
# Elastic Constant Matrix: (Units=GPa)
#
#
# Indices 1 2 3 4 5 6 
#
# 1 94.7998 72.3387 30.0687 0.0000 0.0000 0.0000
# 2 72.3387 94.8006 30.0680 0.0000 0.0000 0.0000
# 3 30.0687 30.0680 68.1595 0.0000 0.0000 0.0000
# 4 0.0000 0.0000 0.0000 26.4711 0.0000 0.0000
# 5 0.0000 0.0000 0.0000 0.0000 26.4707 0.0000
# 6 0.0000 0.0000 0.0000 0.0000 0.0000 28.5381
#
#
#
# Elastic Compliance Matrix: (Units=1/GPa)
#
#
# Indices 1 2 3 4 5 6 
#
# 1 0.025816 -0.018704 -0.003138 0.000000 0.000000 0.000000
# 2 -0.018704 0.025816 -0.003137 0.000000 0.000000 0.000000
# 3 -0.003138 -0.003137 0.017440 0.000000 0.000000 0.000000
# 4 0.000000 0.000000 0.000000 0.037777 0.000000 0.000000
# 5 0.000000 0.000000 0.000000 0.000000 0.037778 0.000000
# 6 0.000000 0.000000 0.000000 0.000000 0.000000 0.035041
#
#
# Mechanical properties :
#
#
# Convention : Reuss Voigt Hill
#
# Bulk Modulus (GPa) = 52.31825 58.07897 55.19861
# Shear Modulus (GPa) = 21.18671 24.64829 22.91750
#
# Velocity S-wave (km/s) = 3.40012 3.66738 3.53627
# Velocity P-wave (km/s) = 6.63042 7.04446 6.84057
#
# Compressibility (1/GPa) = 0.01911379
#
# Stress axis : x y z
#
# Youngs Moduli (GPa) = 38.73499 38.73569 57.34086
#
# Poissons Ratio (x) = 0.72453 0.17992
# Poissons Ratio (y) = 0.72451 0.17988
# Poissons Ratio (z) = 0.12154 0.12152
#
# Static dielectric constant tensor:
#      x y z
#    x 1.612710 0.000000 0.000000 
#    y 0.000000 1.612710 0.000000 
#    z 0.000000 0.000000 1.672410 
# 
# From -- ./inp_files/1605.got.cif
#   From: 2010.05.17/outbox.cif.g08.bks.cpg/sg136_1_cif.got.tgz:1605.got - 2010.05.20 12:54:53.
