data_PCOD9569134
_publ_section_title
;
Structure prediction by ZEFSAII (Michael W. Deem and Ramdas Pophale) SiO2 
 PCOD9569134
Probable space group: P 42/M N M
;
_chemical_formula_sum "Si O2"
_cell_formula_units_Z 72
_cell_length_a 23.519300
_cell_length_b 23.519300
_cell_length_c 9.049041
_cell_angle_alpha 90.000000
_cell_angle_beta 90.000000
_cell_angle_gamma 90.000000
_cell_volume 5005.544648
_symmetry_space_group_name_H-M "P 42/M N M"
_symmetry_group_IT_number 136
_symmetry_cell_setting 'tetragonal'
loop_
_space_group_symop_operation_xyz
x,y,z
1/2-y,1/2+x,1/2+z
-x,-y,z
1/2+y,1/2-x,1/2+z
1/2+x,1/2-y,1/2-z
1/2-x,1/2+y,1/2-z
y,x,-z
-y,-x,-z
-x,-y,-z
1/2+y,1/2-x,1/2-z
x,y,-z
1/2-y,1/2+x,1/2-z
1/2-x,1/2+y,1/2+z
1/2+x,1/2-y,1/2+z
-y,-x,z
y,x,z
loop_
_atom_site_type_symbol
_atom_site_label
_atom_site_fract_x
_atom_site_fract_y
_atom_site_fract_z
Si Si1 0.109818 0.795988 0.677534
Si Si2 0.308883 0.211280 0.330133
Si Si3 0.954088 0.954088 0.320290
Si Si4 0.724838 0.370596 0.323580
Si Si5 0.980632 0.824788 0.678600
O O1 0.112967 0.789562 0.500000
O O2 0.149369 0.850632 0.715464
O O3 0.137468 0.741070 0.753597
O O4 0.044519 0.806621 0.718488
O O5 0.320253 0.196292 0.500000
O O6 0.260275 0.260275 0.328447
O O7 0.280784 0.159279 0.242521
O O8 0.955227 0.955227 0.500000
O O9 0.890292 0.970185 0.276061
O O10 0.000000 0.000000 0.267837
O O11 0.728808 0.374277 0.500000
O O12 0.671603 0.328398 0.287814
O O13 0.712320 0.431366 0.252034
O O14 0.975440 0.821827 0.500000
#
# Coordination Sequence:
#
# PCOD9569134 Si02
#       5
#    16  16   8  16  16
#     4   9  17  29  44  64  89 117 149 185 225 264
#     4   9  17  29  46  64  82 108 144 184 228 275
#     4   9  16  26  41  61  85 119 161 195 217 244
#     4  10  19  30  44  62  86 114 146 187 232 271
#     4  10  18  28  44  64  88 118 154 190 220 260
#
# _framework density 14.384048999999999
#
# number of rings (size 3 to 8) (size 9 to 14) (size 15 to 20)
#    0.000    2.556    1.111    2.000    0.000    7.111 
#    0.000    0.000    0.000    2.667    0.000    0.000 
#    0.000    0.889    0.000    9.333    0.000    4.000 
#
# Total GULP energy -401310.244715 kJ/mol
# GULP energy per Si atom -5573.753399 kJ/mol
# Density = 1.435131 g / cm^3
# Si number density = 14.384049 Si / 1000 Ang^3
#
#
#
# Elastic Constant Matrix: (Units=GPa)
#
#
# Indices 1 2 3 4 5 6 
#
# 1 98.5237 85.1185 45.0688 0.0000 0.0000 0.0000
# 2 85.1185 98.5237 45.0688 0.0000 0.0000 0.0000
# 3 45.0688 45.0688 40.0997 0.0000 0.0000 0.0000
# 4 0.0000 0.0000 0.0000 21.5945 0.0000 0.0000
# 5 0.0000 0.0000 0.0000 0.0000 21.5945 0.0000
# 6 0.0000 0.0000 0.0000 0.0000 0.0000 26.8989
#
#
#
# Elastic Compliance Matrix: (Units=1/GPa)
#
#
# Indices 1 2 3 4 5 6 
#
# 1 0.043372 -0.031226 -0.013651 0.000000 0.000000 0.000000
# 2 -0.031226 0.043372 -0.013651 0.000000 0.000000 0.000000
# 3 -0.013651 -0.013651 0.055622 0.000000 0.000000 0.000000
# 4 0.000000 0.000000 0.000000 0.046308 0.000000 0.000000
# 5 0.000000 0.000000 0.000000 0.000000 0.046308 0.000000
# 6 0.000000 0.000000 0.000000 0.000000 0.000000 0.037176
#
#
# Mechanical properties :
#
#
# Convention : Reuss Voigt Hill
#
# Bulk Modulus (GPa) = 39.50871 65.29548 52.40209
# Shear Modulus (GPa) = 12.57388 18.14363 15.35875
#
# Velocity S-wave (km/s) = 2.95982 3.55543 3.27121
# Velocity P-wave (km/s) = 6.26158 7.89606 7.12584
#
# Compressibility (1/GPa) = 0.02531087
#
# Stress axis : x y z
#
# Youngs Moduli (GPa) = 23.05651 23.05651 17.97844
#
# Poissons Ratio (x) = 0.71997 0.24542
# Poissons Ratio (y) = 0.71997 0.24542
# Poissons Ratio (z) = 0.31474 0.31474
#
# Static dielectric constant tensor:
#      x y z
#    x 1.457370 0.000000 0.000000 
#    y 0.000000 1.457370 0.000000 
#    z 0.000000 0.000000 1.482700 
# 
# From -- ./inp_files/1567.got.cif
#   From: 2010.05.17/outbox.cif.g08.bks.cpg/sg136_1_cif.got.tgz:1567.got - 2010.05.20 12:54:53.
