data_PCOD9569659
_publ_section_title
;
Structure prediction by ZEFSAII (Michael W. Deem and Ramdas Pophale) SiO2 
 PCOD9569659
Probable space group: P 42/M N M
;
_chemical_formula_sum "Si O2"
_cell_formula_units_Z 64
_cell_length_a 20.396278
_cell_length_b 20.396278
_cell_length_c 9.023386
_cell_angle_alpha 90.000000
_cell_angle_beta 90.000000
_cell_angle_gamma 90.000000
_cell_volume 3753.802173
_symmetry_space_group_name_H-M "P 42/M N M"
_symmetry_group_IT_number 136
_symmetry_cell_setting 'tetragonal'
loop_
_space_group_symop_operation_xyz
x,y,z
1/2-y,1/2+x,1/2+z
-x,-y,z
1/2+y,1/2-x,1/2+z
1/2+x,1/2-y,1/2-z
1/2-x,1/2+y,1/2-z
y,x,-z
-y,-x,-z
-x,-y,-z
1/2+y,1/2-x,1/2-z
x,y,-z
1/2-y,1/2+x,1/2-z
1/2-x,1/2+y,1/2+z
1/2+x,1/2-y,1/2+z
-y,-x,z
y,x,z
loop_
_atom_site_type_symbol
_atom_site_label
_atom_site_fract_x
_atom_site_fract_y
_atom_site_fract_z
Si Si1 0.427449 0.681085 0.177410
Si Si2 0.923265 0.678647 0.823219
Si Si3 0.924073 0.326602 0.823374
Si Si4 0.324808 0.432795 0.677942
O O1 0.373319 0.626682 0.215106
O O2 0.409866 0.751455 0.246998
O O3 0.498523 0.662135 0.241759
O O4 0.431044 0.686872 0.000000
O O5 0.874442 0.623770 0.763374
O O6 0.999219 0.661019 0.789895
O O7 0.917913 0.685771 0.000000
O O8 0.912021 0.249945 0.787393
O O9 0.914382 0.335178 0.000000
O O10 0.327274 0.443417 0.500000
O O11 0.377194 0.377194 0.717047
#
# Coordination Sequence:
#
# PCOD9569659 Si02
#       4
#    16  16  16  16
#     4  10  21  36  54  77 106 139 174 215 262 309
#     4  10  21  36  55  79 105 136 175 215 257 309
#     4   9  19  35  53  76 107 139 172 212 257 306
#     4   9  19  36  56  78 106 140 176 214 258 309
#
# _framework density 17.049378999999998
#
# number of rings (size 3 to 8) (size 9 to 14) (size 15 to 20)
#    0.000    2.500    0.000    3.000    0.000    9.500 
#    0.000    7.500    0.000    0.000    0.000    0.000 
#    0.000    0.000    0.000    0.000    0.000    0.000 
#
# Total GULP energy -357118.115403 kJ/mol
# GULP energy per Si atom -5579.970553 kJ/mol
# Density = 1.701057 g / cm^3
# Si number density = 17.049379 Si / 1000 Ang^3
#
#
#
# Elastic Constant Matrix: (Units=GPa)
#
#
# Indices 1 2 3 4 5 6 
#
# 1 140.6625 132.5278 74.2987 0.0000 0.0000 0.0000
# 2 132.5278 140.6625 74.2987 0.0000 0.0000 0.0000
# 3 74.2987 74.2987 55.6021 0.0000 0.0000 0.0000
# 4 0.0000 0.0000 0.0000 23.0059 0.0000 0.0000
# 5 0.0000 0.0000 0.0000 0.0000 23.0059 0.0000
# 6 0.0000 0.0000 0.0000 0.0000 0.0000 38.9836
#
#
#
# Elastic Compliance Matrix: (Units=1/GPa)
#
#
# Indices 1 2 3 4 5 6 
#
# 1 0.068165 -0.054765 -0.017906 0.000000 0.000000 0.000000
# 2 -0.054765 0.068165 -0.017906 0.000000 0.000000 0.000000
# 3 -0.017906 -0.017906 0.065839 0.000000 0.000000 0.000000
# 4 0.000000 0.000000 0.000000 0.043467 0.000000 0.000000
# 5 0.000000 0.000000 0.000000 0.000000 0.043467 0.000000
# 6 0.000000 0.000000 0.000000 0.000000 0.000000 0.025652
#
#
# Mechanical properties :
#
#
# Convention : Reuss Voigt Hill
#
# Bulk Modulus (GPa) = 47.58448 99.90862 73.74655
# Shear Modulus (GPa) = 9.94201 20.71918 15.33059
#
# Velocity S-wave (km/s) = 2.41743 3.48982 3.00190
# Velocity P-wave (km/s) = 5.98016 8.65825 7.44068
#
# Compressibility (1/GPa) = 0.02101525
#
# Stress axis : x y z
#
# Youngs Moduli (GPa) = 14.67018 14.67018 15.18850
#
# Poissons Ratio (x) = 0.80342 0.27197
# Poissons Ratio (y) = 0.80342 0.27197
# Poissons Ratio (z) = 0.26269 0.26269
#
# Static dielectric constant tensor:
#      x y z
#    x 1.554720 0.000000 0.000000 
#    y 0.000000 1.554720 0.000000 
#    z 0.000000 0.000000 1.569610 
# 
# From -- ./inp_files/1412.got.cif
#   From: 2010.05.17/outbox.cif.g08.bks.cpg/sg136_1_cif.got.tgz:1412.got - 2010.05.20 12:54:53.
