data_PCOD9569064
_publ_section_title
;
Structure prediction by ZEFSAII (Michael W. Deem and Ramdas Pophale) SiO2 
 PCOD9569064
Probable space group: P 42/M B C
;
_chemical_formula_sum "Si O2"
_cell_formula_units_Z 96
_cell_length_a 24.000000
_cell_length_b 24.000000
_cell_length_c 9.000000
_cell_angle_alpha 90.000000
_cell_angle_beta 90.000000
_cell_angle_gamma 90.000000
_cell_volume 5184.000000
_symmetry_space_group_name_H-M "P 42/M B C"
_symmetry_group_IT_number 135
_symmetry_cell_setting 'tetragonal'
loop_
_space_group_symop_operation_xyz
x,y,z
-y,x,1/2+z
-x,-y,z
y,-x,1/2+z
1/2+x,1/2-y,-z
1/2-x,1/2+y,-z
1/2+y,1/2+x,1/2-z
1/2-y,1/2-x,1/2-z
-x,-y,-z
y,-x,1/2-z
x,y,-z
-y,x,1/2-z
1/2-x,1/2+y,z
1/2+x,1/2-y,z
1/2-y,1/2-x,1/2+z
1/2+y,1/2+x,1/2+z
loop_
_atom_site_type_symbol
_atom_site_label
_atom_site_fract_x
_atom_site_fract_y
_atom_site_fract_z
Si Si1 0.781453 0.950632 0.177533
Si Si2 0.070994 0.651022 0.326485
Si Si3 0.932641 0.037919 0.333251
Si Si4 0.138072 0.447329 0.179973
Si Si5 0.147164 0.858730 0.329843
Si Si6 0.932953 0.759191 0.180609
O O1 0.717132 0.933387 0.193071
O O2 0.817612 0.898771 0.237448
O O3 0.787042 0.009380 0.261289
O O4 0.793587 0.958473 0.000000
O O5 0.122686 0.622686 0.250000
O O6 0.075597 0.639818 0.500000
O O7 0.011502 0.626897 0.275916
O O8 0.937293 0.014874 0.500000
O O9 0.884128 0.082090 0.333584
O O10 0.988612 0.070653 0.285380
O O11 0.092727 0.407274 0.250000
O O12 0.198225 0.432457 0.247894
O O13 0.140126 0.444004 0.000000
O O14 0.155783 0.838933 0.500000
O O15 0.206656 0.877854 0.268790
O O16 0.933691 0.757464 0.000000
#
# Coordination Sequence:
#
# PCOD9569064 Si02
#       6
#    16  16  16  16  16  16
#     4   9  18  35  53  72 102 141 177 215 262 312
#     4   9  19  34  55  79 105 134 166 202 249 304
#     4  10  18  28  41  61  89 123 162 211 265 312
#     4  10  21  38  58  82 108 138 169 204 253 310
#     4   9  18  31  49  70  96 133 177 217 258 303
#     4  10  19  33  53  78 105 137 177 223 266 310
#
# _framework density 18.518519000000001
#
# number of rings (size 3 to 8) (size 9 to 14) (size 15 to 20)
#    0.000    2.500    0.000    4.000    0.000    3.667 
#    0.000    7.500    0.000    2.000    0.000    0.000 
#    0.000    0.000    0.000    0.000    0.000    0.000 
#
# Total GULP energy -534602.168961 kJ/mol
# GULP energy per Si atom -5568.772593 kJ/mol
# Density = 1.847637 g / cm^3
# Si number density = 18.518519 Si / 1000 Ang^3
#
#
#
# Elastic Constant Matrix: (Units=GPa)
#
#
# Indices 1 2 3 4 5 6 
#
# 1 12.9418 12.7910 18.2141 0.0000 0.0000 0.0000
# 2 12.7910 12.9364 18.2141 0.0000 0.0000 0.0000
# 3 18.2141 18.2141 45.3243 0.0000 0.0000 0.0000
# 4 0.0000 0.0000 0.0000 22.8695 0.0000 0.0000
# 5 0.0000 0.0000 0.0000 0.0000 22.8697 0.0000
# 6 0.0000 0.0000 0.0000 0.0000 0.0000 38.9267
#
#
#
# Elastic Compliance Matrix: (Units=1/GPa)
#
#
# Indices 1 2 3 4 5 6 
#
# 1 3.420577 -3.332058 -0.035570 0.000000 0.000000 0.000000
# 2 -3.332058 3.423865 -0.036896 0.000000 0.000000 0.000000
# 3 -0.035570 -0.036896 0.051184 0.000000 0.000000 0.000000
# 4 0.000000 0.000000 0.000000 0.043726 0.000000 0.000000
# 5 0.000000 0.000000 0.000000 0.000000 0.043726 0.000000
# 6 0.000000 0.000000 0.000000 0.000000 0.000000 0.025689
#
#
# Mechanical properties :
#
#
# Convention : Reuss Voigt Hill
#
# Bulk Modulus (GPa) = 11.55023 18.84898 15.19961
# Shear Modulus (GPa) = 0.36110 18.39873 9.37992
#
# Velocity S-wave (km/s) = 0.44206 3.15545 2.25303
# Velocity P-wave (km/s) = 2.55171 4.84524 3.87218
#
# Compressibility (1/GPa) = 0.08657836
#
# Stress axis : x y z
#
# Youngs Moduli (GPa) = 0.29235 0.29207 19.53718
#
# Poissons Ratio (x) = 0.97319 0.69494
# Poissons Ratio (y) = 0.97412 0.72084
# Poissons Ratio (z) = 0.01040 0.01078
#
# Static dielectric constant tensor:
#      x y z
#    x 1.685530 0.000000 0.000000 
#    y 0.000000 1.685530 0.000000 
#    z 0.000000 0.000000 1.633810 
# 
# From -- ./inp_files/1263.got.cif
#   From: 2010.05.17/outbox.ucp.g08.bks.cvg/sg135_1_cif.got.tgz:1263.got - 2010.06.11 11:40:18.
