data_PCOD9569818
_publ_section_title
;
Structure prediction by ZEFSAII (Michael W. Deem and Ramdas Pophale) SiO2 
 PCOD9569818
Probable space group: P 42/M N M
;
_chemical_formula_sum "Si O2"
_cell_formula_units_Z 64
_cell_length_a 10.884613
_cell_length_b 10.884613
_cell_length_c 27.360835
_cell_angle_alpha 90.000000
_cell_angle_beta 90.000000
_cell_angle_gamma 90.000000
_cell_volume 3241.569459
_symmetry_space_group_name_H-M "P 42/M N M"
_symmetry_group_IT_number 136
_symmetry_cell_setting 'tetragonal'
loop_
_space_group_symop_operation_xyz
x,y,z
1/2-y,1/2+x,1/2+z
-x,-y,z
1/2+y,1/2-x,1/2+z
1/2+x,1/2-y,1/2-z
1/2-x,1/2+y,1/2-z
y,x,-z
-y,-x,-z
-x,-y,-z
1/2+y,1/2-x,1/2-z
x,y,-z
1/2-y,1/2+x,1/2-z
1/2-x,1/2+y,1/2+z
1/2+x,1/2-y,1/2+z
-y,-x,z
y,x,z
loop_
_atom_site_type_symbol
_atom_site_label
_atom_site_fract_x
_atom_site_fract_y
_atom_site_fract_z
Si Si1 0.236378 0.570123 0.683140
Si Si2 0.036462 0.772017 0.287808
Si Si3 0.508757 0.702613 0.057000
Si Si4 0.836500 0.361349 0.866722
O O1 0.348426 0.651575 0.662989
O O2 0.281215 0.496691 0.731024
O O3 0.134633 0.664112 0.703371
O O4 0.173754 0.474664 0.646516
O O5 0.102560 0.897441 0.304208
O O6 0.921012 0.729812 0.319483
O O7 0.403398 0.596602 0.060446
O O8 0.635189 0.635189 0.072494
O O9 0.461293 0.811446 0.091101
O O10 0.519081 0.735981 0.000000
O O11 0.762366 0.237635 0.879412
#
# Coordination Sequence:
#
# PCOD9569818 Si02
#       4
#    16  16  16  16
#     4  11  23  37  52  73 107 151 192 231 278 340
#     4  11  22  36  53  74 104 145 190 233 277 333
#     4   8  15  30  53  82 114 144 181 236 295 347
#     4  11  21  33  54  83 110 141 181 232 293 347
#
# _framework density 19.743524000000001
#
# number of rings (size 3 to 8) (size 9 to 14) (size 15 to 20)
#    0.000    1.750    2.500    3.750    0.000    4.500 
#    0.000    0.000    0.000    3.750    0.000    7.000 
#    0.000    0.000    0.000    0.000    0.000    0.000 
#
# Total GULP energy -357476.553956 kJ/mol
# GULP energy per Si atom -5585.571156 kJ/mol
# Density = 1.969859 g / cm^3
# Si number density = 19.743524 Si / 1000 Ang^3
#
#
#
# Elastic Constant Matrix: (Units=GPa)
#
#
# Indices 1 2 3 4 5 6 
#
# 1 53.4877 111.3760 34.9920 0.0000 0.0000 0.0000
# 2 111.3760 53.4877 34.9920 0.0000 0.0000 0.0000
# 3 34.9920 34.9920 81.8488 0.0000 0.0000 0.0000
# 4 0.0000 0.0000 0.0000 12.6670 0.0000 0.0000
# 5 0.0000 0.0000 0.0000 0.0000 12.6670 0.0000
# 6 0.0000 0.0000 0.0000 0.0000 0.0000 36.2949
#
#
#
# Elastic Compliance Matrix: (Units=1/GPa)
#
#
# Indices 1 2 3 4 5 6 
#
# 1 -0.004932 0.012343 -0.003168 0.000000 0.000000 0.000000
# 2 0.012343 -0.004932 -0.003168 0.000000 0.000000 0.000000
# 3 -0.003168 -0.003168 0.014927 0.000000 0.000000 0.000000
# 4 0.000000 0.000000 0.000000 0.078945 0.000000 0.000000
# 5 0.000000 0.000000 0.000000 0.000000 0.078945 0.000000
# 6 0.000000 0.000000 0.000000 0.000000 0.000000 0.027552
#
#
# Mechanical properties :
#
#
# Convention : Reuss Voigt Hill
#
# Bulk Modulus (GPa) = 58.56526 61.28269 59.92398
# Shear Modulus (GPa) = 27.14679 12.82341 19.98510
#
# Velocity S-wave (km/s) = 3.71208 2.55129 3.18502
# Velocity P-wave (km/s) = 6.93543 6.30758 6.62894
#
# Compressibility (1/GPa) = 0.01707497
#
# Stress axis : x y z
#
# Youngs Moduli (GPa) = -202.75345 -202.75345 66.99481
#
# Poissons Ratio (x) = 2.50250 0.21225
# Poissons Ratio (y) = 2.50250 0.21225
# Poissons Ratio (z) = -0.64235 -0.64235
#
# Static dielectric constant tensor:
#      x y z
#    x 1.720840 0.000000 0.000000 
#    y 0.000000 1.720840 0.000000 
#    z 0.000000 0.000000 1.689150 
# 
# From -- ./inp_files/8829.got.cif
#   From: 2010.05.17/outbox.cif.g08.bks.cpg/sg136_5_cif.got.tgz:8829.got - 2010.05.20 12:54:53.
