data_PCOD9569306
_publ_section_title
;
Structure prediction by ZEFSAII (Michael W. Deem and Ramdas Pophale) SiO2 
 PCOD9569306
Probable space group: P 42/M N M
;
_chemical_formula_sum "Si O2"
_cell_formula_units_Z 80
_cell_length_a 12.331112
_cell_length_b 12.331112
_cell_length_c 29.625572
_cell_angle_alpha 90.000000
_cell_angle_beta 90.000000
_cell_angle_gamma 90.000000
_cell_volume 4504.755550
_symmetry_space_group_name_H-M "P 42/M N M"
_symmetry_group_IT_number 136
_symmetry_cell_setting 'tetragonal'
loop_
_space_group_symop_operation_xyz
x,y,z
1/2-y,1/2+x,1/2+z
-x,-y,z
1/2+y,1/2-x,1/2+z
1/2+x,1/2-y,1/2-z
1/2-x,1/2+y,1/2-z
y,x,-z
-y,-x,-z
-x,-y,-z
1/2+y,1/2-x,1/2-z
x,y,-z
1/2-y,1/2+x,1/2-z
1/2-x,1/2+y,1/2+z
1/2+x,1/2-y,1/2+z
-y,-x,z
y,x,z
loop_
_atom_site_type_symbol
_atom_site_label
_atom_site_fract_x
_atom_site_fract_y
_atom_site_fract_z
Si Si1 0.632311 0.006774 0.639022
Si Si2 0.374519 0.804192 0.293422
Si Si3 0.304360 0.871212 0.806232
Si Si4 0.994790 0.174170 0.945191
Si Si5 0.088212 0.405098 0.949604
O O1 0.664855 0.095879 0.675802
O O2 0.664996 0.050230 0.589796
O O3 0.500000 0.000000 0.639883
O O4 0.665077 0.887576 0.654724
O O5 0.300729 0.699272 0.301469
O O6 0.500085 0.786451 0.305393
O O7 0.360462 0.839193 0.241363
O O8 0.193315 0.806686 0.809681
O O9 0.883016 0.116985 0.929324
O O10 0.028100 0.295748 0.932352
O O11 0.989233 0.176152 0.000000
O O12 0.091882 0.091882 0.932861
O O13 0.000000 0.500000 0.954581
O O14 0.133791 0.383968 0.000000
#
# Coordination Sequence:
#
# PCOD9569306 Si02
#       5
#    16  16  16  16  16
#     4   9  18  32  51  71  98 136 174 213 251 306
#     4  10  19  32  53  79 105 134 169 211 260 317
#     4  10  19  33  54  77 104 137 171 213 262 313
#     4   8  14  26  46  72 101 132 165 207 264 319
#     4   9  17  30  47  70 101 138 178 215 254 304
#
# _framework density 17.759011000000001
#
# number of rings (size 3 to 8) (size 9 to 14) (size 15 to 20)
#    0.000    2.800    2.000    0.600    0.000    1.200 
#    0.000    9.000    0.000    2.400    0.000    0.000 
#    0.000    2.400    0.000   29.200    0.000    0.000 
#
# Total GULP energy -445399.749494 kJ/mol
# GULP energy per Si atom -5567.496869 kJ/mol
# Density = 1.771859 g / cm^3
# Si number density = 17.759011 Si / 1000 Ang^3
#
#
#
# Elastic Constant Matrix: (Units=GPa)
#
#
# Indices 1 2 3 4 5 6 
#
# 1 82.4199 35.6486 10.3689 0.0000 0.0000 0.0000
# 2 35.6486 82.4199 10.3689 0.0000 0.0000 0.0000
# 3 10.3689 10.3689 69.0745 0.0000 0.0000 0.0000
# 4 0.0000 0.0000 0.0000 14.0140 0.0000 0.0000
# 5 0.0000 0.0000 0.0000 0.0000 14.0140 0.0000
# 6 0.0000 0.0000 0.0000 0.0000 0.0000 8.6212
#
#
#
# Elastic Compliance Matrix: (Units=1/GPa)
#
#
# Indices 1 2 3 4 5 6 
#
# 1 0.015040 -0.006341 -0.001306 0.000000 0.000000 0.000000
# 2 -0.006341 0.015040 -0.001306 0.000000 0.000000 0.000000
# 3 -0.001306 -0.001306 0.014869 0.000000 0.000000 0.000000
# 4 0.000000 0.000000 0.000000 0.071357 0.000000 0.000000
# 5 0.000000 0.000000 0.000000 0.000000 0.071357 0.000000
# 6 0.000000 0.000000 0.000000 0.000000 0.000000 0.115994
#
#
# Mechanical properties :
#
#
# Convention : Reuss Voigt Hill
#
# Bulk Modulus (GPa) = 36.97691 38.52078 37.74885
# Shear Modulus (GPa) = 15.12509 19.16502 17.14506
#
# Velocity S-wave (km/s) = 2.92153 3.28864 3.11051
# Velocity P-wave (km/s) = 5.67866 6.01316 5.84830
#
# Compressibility (1/GPa) = 0.02704390
#
# Stress axis : x y z
#
# Youngs Moduli (GPa) = 66.49015 66.49015 67.25327
#
# Poissons Ratio (x) = 0.42160 0.08782
# Poissons Ratio (y) = 0.42160 0.08782
# Poissons Ratio (z) = 0.08682 0.08682
#
# Static dielectric constant tensor:
#      x y z
#    x 1.615830 0.000000 0.000000 
#    y 0.000000 1.615830 0.000000 
#    z 0.000000 0.000000 1.704810 
# 
# From -- ./inp_files/9560.got.cif
#   From: 2010.05.17/outbox.cif.g08.bks.cpg/sg136_5_cif.got.tgz:9560.got - 2010.05.20 12:54:53.
