data_PCOD9569105
_publ_section_title
;
Structure prediction by ZEFSAII (Michael W. Deem and Ramdas Pophale) SiO2 
 PCOD9569105
Probable space group: P 42/M N M
;
_chemical_formula_sum "Si O2"
_cell_formula_units_Z 76
_cell_length_a 18.172290
_cell_length_b 18.172290
_cell_length_c 14.889905
_cell_angle_alpha 90.000000
_cell_angle_beta 90.000000
_cell_angle_gamma 90.000000
_cell_volume 4917.124952
_symmetry_space_group_name_H-M "P 42/M N M"
_symmetry_group_IT_number 136
_symmetry_cell_setting 'tetragonal'
loop_
_space_group_symop_operation_xyz
x,y,z
1/2-y,1/2+x,1/2+z
-x,-y,z
1/2+y,1/2-x,1/2+z
1/2+x,1/2-y,1/2-z
1/2-x,1/2+y,1/2-z
y,x,-z
-y,-x,-z
-x,-y,-z
1/2+y,1/2-x,1/2-z
x,y,-z
1/2-y,1/2+x,1/2-z
1/2-x,1/2+y,1/2+z
1/2+x,1/2-y,1/2+z
-y,-x,z
y,x,z
loop_
_atom_site_type_symbol
_atom_site_label
_atom_site_fract_x
_atom_site_fract_y
_atom_site_fract_z
Si Si1 0.201735 0.007920 0.314811
Si Si2 0.236018 0.889201 0.821546
Si Si3 0.561544 0.677400 0.500000
Si Si4 0.936345 0.936345 0.197801
Si Si5 0.498070 0.621169 0.000000
Si Si6 0.577499 0.422502 0.500000
Si Si7 0.851257 0.726652 0.393719
O O1 0.130782 0.029333 0.253959
O O2 0.168428 0.989639 0.411688
O O3 0.253745 0.077285 0.335638
O O4 0.241137 0.940504 0.265221
O O5 0.165943 0.834058 0.809604
O O6 0.220879 0.941848 0.907480
O O7 0.304936 0.839275 0.849396
O O8 0.643634 0.643634 0.500000
O O9 0.504365 0.611020 0.500000
O O10 0.904223 0.904223 0.104138
O O11 0.000000 0.000000 0.181822
O O12 0.555283 0.555283 0.000000
O O13 0.416766 0.583235 0.000000
O O14 0.867124 0.712335 0.500000
O O15 0.797561 0.797561 0.391659
#
# Coordination Sequence:
#
# PCOD9569105 Si02
#       7
#    16  16   8   8   8   4  16
#     4  12  21  32  50  79 110 146 182 224 275 322
#     4  10  20  33  52  76 107 145 188 225 269 323
#     4  10  17  27  44  71 103 142 175 215 252 312
#     4  12  21  29  46  77 117 148 177 211 269 341
#     4  11  20  29  45  76 118 150 171 205 264 344
#     4  12  21  28  44  74 122 150 178 208 256 333
#     4  10  19  35  55  79 108 143 190 234 267 323
#
# _framework density 15.456187
#
# number of rings (size 3 to 8) (size 9 to 14) (size 15 to 20)
#    0.000    1.158    6.316    2.842    0.000    0.000 
#    0.000    0.000    0.000    3.158    0.000    1.474 
#    0.000    0.000    0.000    0.000    0.000    0.000 
#
# Total GULP energy -423238.975399 kJ/mol
# GULP energy per Si atom -5568.933887 kJ/mol
# Density = 1.542101 g / cm^3
# Si number density = 15.456187 Si / 1000 Ang^3
#
#
#
# Elastic Constant Matrix: (Units=GPa)
#
#
# Indices 1 2 3 4 5 6 
#
# 1 72.3676 43.9258 41.1546 0.0000 0.0000 0.0000
# 2 43.9258 72.3675 41.1547 0.0000 0.0000 0.0000
# 3 41.1546 41.1547 131.3609 0.0000 0.0000 0.0000
# 4 0.0000 0.0000 0.0000 7.5393 0.0000 0.0000
# 5 0.0000 0.0000 0.0000 0.0000 7.5408 0.0000
# 6 0.0000 0.0000 0.0000 0.0000 0.0000 26.1321
#
#
#
# Elastic Compliance Matrix: (Units=1/GPa)
#
#
# Indices 1 2 3 4 5 6 
#
# 1 0.023104 -0.012055 -0.003462 0.000000 0.000000 0.000000
# 2 -0.012055 0.023104 -0.003462 0.000000 0.000000 0.000000
# 3 -0.003462 -0.003462 0.009782 0.000000 0.000000 0.000000
# 4 0.000000 0.000000 0.000000 0.132639 0.000000 0.000000
# 5 0.000000 0.000000 0.000000 0.000000 0.132612 0.000000
# 6 0.000000 0.000000 0.000000 0.000000 0.000000 0.038267
#
#
# Mechanical properties :
#
#
# Convention : Reuss Voigt Hill
#
# Bulk Modulus (GPa) = 55.45325 58.72956 57.09140
# Shear Modulus (GPa) = 12.39231 18.23316 15.31274
#
# Velocity S-wave (km/s) = 2.83463 3.43836 3.15098
# Velocity P-wave (km/s) = 6.83148 7.33778 7.08915
#
# Compressibility (1/GPa) = 0.01803321
#
# Stress axis : x y z
#
# Youngs Moduli (GPa) = 43.28218 43.28209 102.23280
#
# Poissons Ratio (x) = 0.52178 0.35388
# Poissons Ratio (y) = 0.52178 0.35389
# Poissons Ratio (z) = 0.14982 0.14982
#
# Static dielectric constant tensor:
#      x y z
#    x 1.516370 0.000000 0.000000 
#    y 0.000000 1.516370 0.000000 
#    z 0.000000 0.000000 1.543030 
# 
# From -- ./inp_files/4998.got.cif
#   From: 2010.05.17/outbox.cif.g08.bks.cpg/sg136_3_cif.got.tgz:4998.got - 2010.05.20 12:54:53.
