data_PCOD9569888
_publ_section_title
;
Structure prediction by ZEFSAII (Michael W. Deem and Ramdas Pophale) SiO2 
 PCOD9569888
Probable space group: P 42/M N M
;
_chemical_formula_sum "Si O2"
_cell_formula_units_Z 64
_cell_length_a 13.533071
_cell_length_b 13.533071
_cell_length_c 15.099975
_cell_angle_alpha 90.000000
_cell_angle_beta 90.000000
_cell_angle_gamma 90.000000
_cell_volume 2765.469983
_symmetry_space_group_name_H-M "P 42/M N M"
_symmetry_group_IT_number 136
_symmetry_cell_setting 'tetragonal'
loop_
_space_group_symop_operation_xyz
x,y,z
1/2-y,1/2+x,1/2+z
-x,-y,z
1/2+y,1/2-x,1/2+z
1/2+x,1/2-y,1/2-z
1/2-x,1/2+y,1/2-z
y,x,-z
-y,-x,-z
-x,-y,-z
1/2+y,1/2-x,1/2-z
x,y,-z
1/2-y,1/2+x,1/2-z
1/2-x,1/2+y,1/2+z
1/2+x,1/2-y,1/2+z
-y,-x,z
y,x,z
loop_
_atom_site_type_symbol
_atom_site_label
_atom_site_fract_x
_atom_site_fract_y
_atom_site_fract_z
Si Si1 0.631549 0.802575 0.789462
Si Si2 0.071105 0.224389 0.102958
Si Si3 0.163727 0.005495 0.396476
Si Si4 0.704490 0.134633 0.096747
O O1 0.714291 0.714291 0.785250
O O2 0.679057 0.886104 0.850401
O O3 0.536042 0.749924 0.833295
O O4 0.623929 0.847329 0.690965
O O5 0.129284 0.129284 0.138039
O O6 0.954196 0.216510 0.107301
O O7 0.095048 0.236175 0.000000
O O8 0.195206 0.015255 0.500000
O O9 0.079392 0.920609 0.395857
O O10 0.106456 0.106456 0.370371
O O11 0.762952 0.237048 0.093414
O O12 0.655780 0.119810 0.000000
#
# Coordination Sequence:
#
# PCOD9569888 Si02
#       4
#    16  16  16  16
#     4   9  16  27  45  67  93 129 170 207 244 292
#     4   9  17  29  47  72 100 131 169 210 250 296
#     4   8  13  21  35  58  88 121 158 202 251 297
#     4   9  18  31  47  70 100 132 164 202 252 307
#
# _framework density 23.14254
#
# number of rings (size 3 to 8) (size 9 to 14) (size 15 to 20)
#    0.000    3.250    0.000    1.500    0.000    4.500 
#    0.000    5.000    0.000    3.750    0.000    7.000 
#    0.000    0.000    0.000    0.000    0.000    0.000 
#
# Total GULP energy -356640.389016 kJ/mol
# GULP energy per Si atom -5572.506078 kJ/mol
# Density = 2.308987 g / cm^3
# Si number density = 23.142540 Si / 1000 Ang^3
#
#
#
# Elastic Constant Matrix: (Units=GPa)
#
#
# Indices 1 2 3 4 5 6 
#
# 1 45.1265 64.2171 21.1453 0.0000 0.0000 0.0000
# 2 64.2171 45.1265 21.1453 0.0000 0.0000 0.0000
# 3 21.1453 21.1453 116.5355 0.0000 0.0000 0.0000
# 4 0.0000 0.0000 0.0000 -0.9171 0.0000 0.0000
# 5 0.0000 0.0000 0.0000 0.0000 -0.9171 0.0000
# 6 0.0000 0.0000 0.0000 0.0000 0.0000 23.2762
#
#
#
# Elastic Compliance Matrix: (Units=1/GPa)
#
#
# Indices 1 2 3 4 5 6 
#
# 1 -0.021273 0.031109 -0.001785 0.000000 0.000000 0.000000
# 2 0.031109 -0.021273 -0.001785 0.000000 0.000000 0.000000
# 3 -0.001785 -0.001785 0.009229 0.000000 0.000000 0.000000
# 4 0.000000 0.000000 0.000000 -1.090373 0.000000 0.000000
# 5 0.000000 0.000000 0.000000 0.000000 -1.090373 0.000000
# 6 0.000000 0.000000 0.000000 0.000000 0.000000 0.042962
#
#
# Mechanical properties :
#
#
# Convention : Reuss Voigt Hill
#
# Bulk Modulus (GPa) = 45.95277 46.64486 46.29881
# Shear Modulus (GPa) = -2.25334 10.97379 4.36022
#
# Velocity S-wave (km/s) = -0.98782 2.17994 1.37410
# Velocity P-wave (km/s) = 4.31259 5.15125 4.75046
#
# Compressibility (1/GPa) = 0.02176147
#
# Stress axis : x y z
#
# Youngs Moduli (GPa) = -47.00804 -47.00804 108.35725
#
# Poissons Ratio (x) = 1.46236 0.19338
# Poissons Ratio (y) = 1.46236 0.19338
# Poissons Ratio (z) = -0.08389 -0.08389
#
# Static dielectric constant tensor:
#      x y z
#    x 1.862110 0.000000 0.000000 
#    y 0.000000 1.862110 0.000000 
#    z 0.000000 0.000000 1.913680 
# 
# From -- ./inp_files/4699.got.cif
#   From: 2010.05.17/outbox.cif.g08.bks.cpg/sg136_3_cif.got.tgz:4699.got - 2010.05.20 12:54:53.
