data_PCOD9569385
_publ_section_title
;
Structure prediction by ZEFSAII (Michael W. Deem and Ramdas Pophale) SiO2 
 PCOD9569385
Probable space group: P 42/M N M
;
_chemical_formula_sum "Si O2"
_cell_formula_units_Z 72
_cell_length_a 21.548600
_cell_length_b 21.548600
_cell_length_c 8.916350
_cell_angle_alpha 90.000000
_cell_angle_beta 90.000000
_cell_angle_gamma 90.000000
_cell_volume 4140.237236
_symmetry_space_group_name_H-M "P 42/M N M"
_symmetry_group_IT_number 136
_symmetry_cell_setting 'tetragonal'
loop_
_space_group_symop_operation_xyz
x,y,z
1/2-y,1/2+x,1/2+z
-x,-y,z
1/2+y,1/2-x,1/2+z
1/2+x,1/2-y,1/2-z
1/2-x,1/2+y,1/2-z
y,x,-z
-y,-x,-z
-x,-y,-z
1/2+y,1/2-x,1/2-z
x,y,-z
1/2-y,1/2+x,1/2-z
1/2-x,1/2+y,1/2+z
1/2+x,1/2-y,1/2+z
-y,-x,z
y,x,z
loop_
_atom_site_type_symbol
_atom_site_label
_atom_site_fract_x
_atom_site_fract_y
_atom_site_fract_z
Si Si1 0.187225 0.963546 0.822869
Si Si2 0.162307 0.737182 0.831368
Si Si3 0.491238 0.811858 0.820849
Si Si4 0.620108 0.876596 0.824984
Si Si5 0.447934 0.447934 0.819725
O O1 0.214175 0.893582 0.806521
O O2 0.119894 0.966462 0.745570
O O3 0.243427 0.004041 0.752964
O O4 0.180824 0.976390 0.000000
O O5 0.225437 0.774564 0.829007
O O6 0.160574 0.684216 0.708610
O O7 0.152728 0.710776 0.000000
O O8 0.551788 0.852768 0.777732
O O9 0.432277 0.850468 0.767229
O O10 0.492271 0.804378 0.000000
O O11 0.618745 0.892655 0.000000
O O12 0.500000 0.500000 0.782569
O O13 0.443663 0.443663 0.000000
#
# Coordination Sequence:
#
# PCOD9569385 Si02
#       5
#    16  16  16  16   8
#     4  10  19  35  58  82 108 140 180 227 273 322
#     4   9  17  32  54  80 106 135 174 221 275 325
#     4  10  21  37  56  80 111 147 184 228 283 332
#     4  10  21  35  53  80 109 144 187 228 275 330
#     4  11  23  37  55  83 117 151 187 225 273 334
#
# _framework density 17.390307
#
# number of rings (size 3 to 8) (size 9 to 14) (size 15 to 20)
#    0.000    2.111    1.111    2.333    0.000    5.333 
#    0.000    3.333    0.000    6.667    0.000    0.000 
#    0.000    0.000    0.000    0.000    0.000    0.000 
#
# Total GULP energy -401402.283766 kJ/mol
# GULP energy per Si atom -5575.031719 kJ/mol
# Density = 1.735073 g / cm^3
# Si number density = 17.390307 Si / 1000 Ang^3
#
#
#
# Elastic Constant Matrix: (Units=GPa)
#
#
# Indices 1 2 3 4 5 6 
#
# 1 91.4517 71.4880 51.1773 0.0000 0.0000 0.0000
# 2 71.4880 91.4517 51.1773 0.0000 0.0000 0.0000
# 3 51.1773 51.1773 68.7718 0.0000 0.0000 0.0000
# 4 0.0000 0.0000 0.0000 30.2400 0.0000 0.0000
# 5 0.0000 0.0000 0.0000 0.0000 30.2400 0.0000
# 6 0.0000 0.0000 0.0000 0.0000 0.0000 22.8052
#
#
#
# Elastic Compliance Matrix: (Units=1/GPa)
#
#
# Indices 1 2 3 4 5 6 
#
# 1 0.030808 -0.019283 -0.008576 0.000000 0.000000 0.000000
# 2 -0.019283 0.030808 -0.008576 0.000000 0.000000 0.000000
# 3 -0.008576 -0.008576 0.027305 0.000000 0.000000 0.000000
# 4 0.000000 0.000000 0.000000 0.033069 0.000000 0.000000
# 5 0.000000 0.000000 0.000000 0.000000 0.033069 0.000000
# 6 0.000000 0.000000 0.000000 0.000000 0.000000 0.043850
#
#
# Mechanical properties :
#
#
# Convention : Reuss Voigt Hill
#
# Bulk Modulus (GPa) = 62.30729 66.59559 64.45144
# Shear Modulus (GPa) = 18.04222 21.84590 19.94406
#
# Velocity S-wave (km/s) = 3.22450 3.54815 3.39019
# Velocity P-wave (km/s) = 7.05477 7.42722 7.24339
#
# Compressibility (1/GPa) = 0.01604949
#
# Stress axis : x y z
#
# Youngs Moduli (GPa) = 32.45944 32.45944 36.62360
#
# Poissons Ratio (x) = 0.62592 0.31409
# Poissons Ratio (y) = 0.62592 0.31409
# Poissons Ratio (z) = 0.27837 0.27837
#
# Static dielectric constant tensor:
#      x y z
#    x 1.581720 0.000000 0.000000 
#    y 0.000000 1.581720 0.000000 
#    z 0.000000 0.000000 1.604830 
# 
# From -- ./inp_files/1538.got.cif
#   From: 2010.05.17/outbox.cif.g08.bks.cpg/sg136_1_cif.got.tgz:1538.got - 2010.05.20 12:54:53.
