data_PCOD9569376
_publ_section_title
;
Structure prediction by ZEFSAII (Michael W. Deem and Ramdas Pophale) SiO2 
 PCOD9569376
Probable space group: P 42/M N M
;
_chemical_formula_sum "Si O2"
_cell_formula_units_Z 84
_cell_length_a 11.923734
_cell_length_b 11.923734
_cell_length_c 29.022497
_cell_angle_alpha 90.000000
_cell_angle_beta 90.000000
_cell_angle_gamma 90.000000
_cell_volume 4126.286063
_symmetry_space_group_name_H-M "P 42/M N M"
_symmetry_group_IT_number 136
_symmetry_cell_setting 'tetragonal'
loop_
_space_group_symop_operation_xyz
x,y,z
1/2-y,1/2+x,1/2+z
-x,-y,z
1/2+y,1/2-x,1/2+z
1/2+x,1/2-y,1/2-z
1/2-x,1/2+y,1/2-z
y,x,-z
-y,-x,-z
-x,-y,-z
1/2+y,1/2-x,1/2-z
x,y,-z
1/2-y,1/2+x,1/2-z
1/2-x,1/2+y,1/2+z
1/2+x,1/2-y,1/2+z
-y,-x,z
y,x,z
loop_
_atom_site_type_symbol
_atom_site_label
_atom_site_fract_x
_atom_site_fract_y
_atom_site_fract_z
Si Si1 0.256923 0.071754 0.854143
Si Si2 0.871338 0.449386 0.000000
Si Si3 0.178324 0.362959 0.769214
Si Si4 0.131177 0.467403 0.096724
Si Si5 0.096990 0.903011 0.100059
Si Si6 0.765672 0.422174 0.814320
Si Si7 0.681154 0.681154 0.500000
O O1 0.148958 0.148958 0.845787
O O2 0.336172 0.087270 0.809162
O O3 0.335068 0.128278 0.893198
O O4 0.204288 0.955085 0.872453
O O5 0.822806 0.498312 0.047193
O O6 0.851929 0.314525 0.000000
O O7 0.000000 0.500000 0.000000
O O8 0.255443 0.255443 0.768946
O O9 0.255248 0.465673 0.784701
O O10 0.129134 0.363473 0.718028
O O11 0.193965 0.536416 0.136281
O O12 0.000000 0.500000 0.099520
O O13 0.131259 0.868742 0.047979
O O14 0.000000 0.000000 0.097618
O O15 0.662996 0.337005 0.817635
#
# Coordination Sequence:
#
# PCOD9569376 Si02
#       7
#    16   8  16  16   8  16   4
#     4   9  19  37  59  85 120 153 193 241 295 355
#     4  10  22  39  56  81 117 152 195 243 298 349
#     4   9  20  38  56  83 117 152 193 242 292 352
#     4  10  21  38  59  83 115 156 196 241 292 350
#     4  10  19  34  58  88 118 157 195 237 293 362
#     4  10  22  37  58  85 113 149 197 239 293 355
#     4  12  23  36  56  84 129 152 192 254 296 354
#
# _framework density 20.357289999999999
#
# number of rings (size 3 to 8) (size 9 to 14) (size 15 to 20)
#    0.000    2.286    0.000    2.429    6.667    0.381 
#    3.429    1.429    0.000    0.000    0.000    0.667 
#    0.000    0.000    0.000    0.000    0.000    0.000 
#
# Total GULP energy -467752.018834 kJ/mol
# GULP energy per Si atom -5568.476415 kJ/mol
# Density = 2.031096 g / cm^3
# Si number density = 20.357290 Si / 1000 Ang^3
#
#
#
# Elastic Constant Matrix: (Units=GPa)
#
#
# Indices 1 2 3 4 5 6 
#
# 1 74.6690 40.5443 38.6840 0.0000 0.0000 0.0000
# 2 40.5443 74.6690 38.6840 0.0000 0.0000 0.0000
# 3 38.6840 38.6840 118.8845 0.0000 0.0000 0.0000
# 4 0.0000 0.0000 0.0000 14.5597 0.0000 0.0000
# 5 0.0000 0.0000 0.0000 0.0000 14.5597 0.0000
# 6 0.0000 0.0000 0.0000 0.0000 0.0000 24.4506
#
#
#
# Elastic Compliance Matrix: (Units=1/GPa)
#
#
# Indices 1 2 3 4 5 6 
#
# 1 0.020205 -0.009099 -0.003614 0.000000 0.000000 0.000000
# 2 -0.009099 0.020205 -0.003614 0.000000 0.000000 0.000000
# 3 -0.003614 -0.003614 0.010763 0.000000 0.000000 0.000000
# 4 0.000000 0.000000 0.000000 0.068683 0.000000 0.000000
# 5 0.000000 0.000000 0.000000 0.000000 0.068683 0.000000
# 6 0.000000 0.000000 0.000000 0.000000 0.000000 0.040899
#
#
# Mechanical properties :
#
#
# Convention : Reuss Voigt Hill
#
# Bulk Modulus (GPa) = 53.99431 56.00523 54.99977
# Shear Modulus (GPa) = 18.63827 20.73468 19.68648
#
# Velocity S-wave (km/s) = 3.02910 3.19492 3.11311
# Velocity P-wave (km/s) = 6.23016 6.41723 6.32439
#
# Compressibility (1/GPa) = 0.01852047
#
# Stress axis : x y z
#
# Youngs Moduli (GPa) = 49.49188 49.49188 92.90740
#
# Poissons Ratio (x) = 0.45032 0.33576
# Poissons Ratio (y) = 0.45032 0.33576
# Poissons Ratio (z) = 0.17886 0.17886
#
# Static dielectric constant tensor:
#      x y z
#    x 1.771640 0.000000 0.000000 
#    y 0.000000 1.771640 0.000000 
#    z 0.000000 0.000000 1.774420 
# 
# From -- ./inp_files/9778.got.cif
#   From: 2010.05.17/outbox.cif.g08.bks.cpg/sg136_5_cif.got.tgz:9778.got - 2010.05.20 12:54:53.
