data_PCOD9569225
_publ_section_title
;
Structure prediction by ZEFSAII (Michael W. Deem and Ramdas Pophale) SiO2 
 PCOD9569225
Probable space group: P 42/M N M
;
_chemical_formula_sum "Si O2"
_cell_formula_units_Z 72
_cell_length_a 12.191602
_cell_length_b 12.191602
_cell_length_c 34.512063
_cell_angle_alpha 90.000000
_cell_angle_beta 90.000000
_cell_angle_gamma 90.000000
_cell_volume 5129.705983
_symmetry_space_group_name_H-M "P 42/M N M"
_symmetry_group_IT_number 136
_symmetry_cell_setting 'tetragonal'
loop_
_space_group_symop_operation_xyz
x,y,z
1/2-y,1/2+x,1/2+z
-x,-y,z
1/2+y,1/2-x,1/2+z
1/2+x,1/2-y,1/2-z
1/2-x,1/2+y,1/2-z
y,x,-z
-y,-x,-z
-x,-y,-z
1/2+y,1/2-x,1/2-z
x,y,-z
1/2-y,1/2+x,1/2-z
1/2-x,1/2+y,1/2+z
1/2+x,1/2-y,1/2+z
-y,-x,z
y,x,z
loop_
_atom_site_type_symbol
_atom_site_label
_atom_site_fract_x
_atom_site_fract_y
_atom_site_fract_z
Si Si1 0.313767 0.501968 0.914154
Si Si2 0.901481 0.722470 0.795454
Si Si3 0.182906 0.995120 0.500000
Si Si4 0.624332 0.021699 0.350975
Si Si5 0.851802 0.327368 0.210720
O O1 0.390189 0.609812 0.908169
O O2 0.399354 0.399354 0.912236
O O3 0.263948 0.506507 0.957819
O O4 0.218130 0.490711 0.882956
O O5 0.834541 0.834541 0.799173
O O6 0.872924 0.640033 0.830353
O O7 0.864554 0.666328 0.755016
O O8 0.032135 0.733544 0.793365
O O9 0.121421 0.878580 0.500000
O O10 0.086692 0.086692 0.500000
O O11 0.500000 0.000000 0.365657
O O12 0.643913 0.932323 0.317118
O O13 0.752558 0.247443 0.200010
#
# Coordination Sequence:
#
# PCOD9569225 Si02
#       5
#    16  16   8  16  16
#     4   9  16  28  46  68  90 110 140 178 212 254
#     4  10  19  31  45  59  80 110 142 177 215 253
#     4   7  12  24  43  64  88 116 135 161 214 262
#     4  10  19  29  45  62  86 114 144 172 216 252
#     4  10  19  31  45  59  80 110 142 177 215 253
#
# _framework density 14.035892
#
# number of rings (size 3 to 8) (size 9 to 14) (size 15 to 20)
#    0.000    2.556    2.222    2.667    0.000    0.444 
#    0.000    0.556    0.000    0.000    0.000    0.000 
#    0.000    0.000    0.000    0.000    0.000  133.333 
#
# Total GULP energy -400840.174283 kJ/mol
# GULP energy per Si atom -5567.224643 kJ/mol
# Density = 1.400395 g / cm^3
# Si number density = 14.035892 Si / 1000 Ang^3
#
#
#
# Elastic Constant Matrix: (Units=GPa)
#
#
# Indices 1 2 3 4 5 6 
#
# 1 36.7427 -6.6153 6.8609 0.0000 0.0000 0.0000
# 2 -6.6153 36.7429 6.8610 0.0000 0.0000 0.0000
# 3 6.8609 6.8610 65.5160 0.0000 0.0000 0.0000
# 4 0.0000 0.0000 0.0000 17.1634 0.0000 0.0000
# 5 0.0000 0.0000 0.0000 0.0000 17.1633 0.0000
# 6 0.0000 0.0000 0.0000 0.0000 0.0000 16.6591
#
#
#
# Elastic Compliance Matrix: (Units=1/GPa)
#
#
# Indices 1 2 3 4 5 6 
#
# 1 0.028959 0.005895 -0.003650 0.000000 0.000000 0.000000
# 2 0.005895 0.028959 -0.003650 0.000000 0.000000 0.000000
# 3 -0.003650 -0.003650 0.016028 0.000000 0.000000 0.000000
# 4 0.000000 0.000000 0.000000 0.058263 0.000000 0.000000
# 5 0.000000 0.000000 0.000000 0.000000 0.058264 0.000000
# 6 0.000000 0.000000 0.000000 0.000000 0.000000 0.060027
#
#
# Mechanical properties :
#
#
# Convention : Reuss Voigt Hill
#
# Bulk Modulus (GPa) = 14.05736 17.02388 15.54062
# Shear Modulus (GPa) = 18.04906 18.99016 18.51961
#
# Velocity S-wave (km/s) = 3.58987 3.68227 3.63636
# Velocity P-wave (km/s) = 5.21727 5.49854 5.35975
#
# Compressibility (1/GPa) = 0.07113709
#
# Stress axis : x y z
#
# Youngs Moduli (GPa) = 34.53127 34.53140 62.39116
#
# Poissons Ratio (x) = -0.20358 0.22773
# Poissons Ratio (y) = -0.20358 0.22773
# Poissons Ratio (z) = 0.12604 0.12604
#
# Static dielectric constant tensor:
#      x y z
#    x 1.446510 0.000000 0.000000 
#    y 0.000000 1.446510 0.000000 
#    z 0.000000 0.000000 1.464180 
# 
# From -- ./inp_files/9436.got.cif
#   From: 2010.05.17/outbox.cif.g08.bks.cpg/sg136_5_cif.got.tgz:9436.got - 2010.05.20 12:54:53.
