data_PCOD9569455
_publ_section_title
;
Structure prediction by ZEFSAII (Michael W. Deem and Ramdas Pophale) SiO2 
 PCOD9569455
Probable space group: P 42/M N M
;
_chemical_formula_sum "Si O2"
_cell_formula_units_Z 92
_cell_length_a 14.281537
_cell_length_b 14.281537
_cell_length_c 20.986496
_cell_angle_alpha 90.000000
_cell_angle_beta 90.000000
_cell_angle_gamma 90.000000
_cell_volume 4280.453974
_symmetry_space_group_name_H-M "P 42/M N M"
_symmetry_group_IT_number 136
_symmetry_cell_setting 'tetragonal'
loop_
_space_group_symop_operation_xyz
x,y,z
1/2-y,1/2+x,1/2+z
-x,-y,z
1/2+y,1/2-x,1/2+z
1/2+x,1/2-y,1/2-z
1/2-x,1/2+y,1/2-z
y,x,-z
-y,-x,-z
-x,-y,-z
1/2+y,1/2-x,1/2-z
x,y,-z
1/2-y,1/2+x,1/2-z
1/2-x,1/2+y,1/2+z
1/2+x,1/2-y,1/2+z
-y,-x,z
y,x,z
loop_
_atom_site_type_symbol
_atom_site_label
_atom_site_fract_x
_atom_site_fract_y
_atom_site_fract_z
Si Si1 0.091705 0.241145 0.290439
Si Si2 0.923517 0.076484 0.078097
Si Si3 0.257229 0.742772 0.500000
Si Si4 0.787915 0.548298 0.425480
Si Si5 0.125383 0.638634 0.396666
Si Si6 0.927434 0.715540 0.429657
Si Si7 0.115382 0.730651 0.741979
O O1 0.159500 0.159500 0.265626
O O2 0.071660 0.223621 0.365506
O O3 0.150872 0.337448 0.285466
O O4 0.994775 0.251230 0.253374
O O5 0.818261 0.052506 0.098661
O O6 0.922715 0.077286 0.000000
O O7 0.000000 0.000000 0.097936
O O8 0.197702 0.686624 0.444599
O O9 0.784036 0.519318 0.500000
O O10 0.848291 0.469918 0.390608
O O11 0.837025 0.648980 0.426105
O O12 0.130206 0.690735 0.329256
O O13 0.020676 0.652472 0.423501
O O14 0.929084 0.761055 0.500000
O O15 0.175479 0.824522 0.750995
#
# Coordination Sequence:
#
# PCOD9569455 Si02
#       7
#    16   8   4  16  16  16  16
#     4  10  24  43  66  95 124 167 211 256 316 373
#     4   9  20  32  48  75 114 161 203 242 294 364
#     4  12  20  32  62  95 125 162 196 256 334 370
#     4  10  20  33  53  79 119 161 206 250 302 359
#     4  11  21  35  61  91 123 163 206 258 315 373
#     4  10  21  38  61  92 127 161 206 259 314 370
#     4  10  23  43  65  92 125 163 209 263 307 376
#
# _framework density 21.493047000000001
#
# number of rings (size 3 to 8) (size 9 to 14) (size 15 to 20)
#    0.000    1.826    2.609    0.522    4.870    2.435 
#    0.000    0.000    0.000    0.000    0.000    4.870 
#    0.000    0.000    0.000    0.000    0.000    0.000 
#
# Total GULP energy -512922.413049 kJ/mol
# GULP energy per Si atom -5575.243620 kJ/mol
# Density = 2.144413 g / cm^3
# Si number density = 21.493047 Si / 1000 Ang^3
#
#
#
# Elastic Constant Matrix: (Units=GPa)
#
#
# Indices 1 2 3 4 5 6 
#
# 1 70.6169 35.4973 -3.2831 0.0000 0.0000 0.0000
# 2 35.4973 70.6178 -3.2830 0.0000 0.0000 0.0000
# 3 -3.2831 -3.2830 96.4157 0.0000 0.0000 0.0000
# 4 0.0000 0.0000 0.0000 17.9861 0.0000 0.0000
# 5 0.0000 0.0000 0.0000 0.0000 17.9860 0.0000
# 6 0.0000 0.0000 0.0000 0.0000 0.0000 26.2514
#
#
#
# Elastic Compliance Matrix: (Units=1/GPa)
#
#
# Indices 1 2 3 4 5 6 
#
# 1 0.018959 -0.009515 0.000322 0.000000 0.000000 0.000000
# 2 -0.009515 0.018959 0.000322 0.000000 0.000000 0.000000
# 3 0.000322 0.000322 0.010394 0.000000 0.000000 0.000000
# 4 0.000000 0.000000 0.000000 0.055599 0.000000 0.000000
# 5 0.000000 0.000000 0.000000 0.000000 0.055599 0.000000
# 6 0.000000 0.000000 0.000000 0.000000 0.000000 0.038093
#
#
# Mechanical properties :
#
#
# Convention : Reuss Voigt Hill
#
# Bulk Modulus (GPa) = 32.71476 32.83477 32.77476
# Shear Modulus (GPa) = 22.16956 26.35932 24.26444
#
# Velocity S-wave (km/s) = 3.21514 3.50581 3.36362
# Velocity P-wave (km/s) = 5.38860 5.63007 5.51066
#
# Compressibility (1/GPa) = 0.03056724
#
# Stress axis : x y z
#
# Youngs Moduli (GPa) = 52.74584 52.74656 96.21259
#
# Poissons Ratio (x) = 0.50189 -0.03094
# Poissons Ratio (y) = 0.50188 -0.03094
# Poissons Ratio (z) = -0.01696 -0.01696
#
# Static dielectric constant tensor:
#      x y z
#    x 1.750420 0.000000 0.000000 
#    y 0.000000 1.750420 0.000000 
#    z 0.000000 0.000000 1.841070 
# 
# From -- ./inp_files/7546.got.cif
#   From: 2010.05.17/outbox.cif.g08.bks.cpg/sg136_4_cif.got.tgz:7546.got - 2010.05.20 12:54:53.
