data_PCOD9569860
_publ_section_title
;
Structure prediction by ZEFSAII (Michael W. Deem and Ramdas Pophale) SiO2 
 PCOD9569860
Probable space group: P 42/M N M
;
_chemical_formula_sum "Si O2"
_cell_formula_units_Z 72
_cell_length_a 14.490250
_cell_length_b 14.490250
_cell_length_c 16.930966
_cell_angle_alpha 90.000000
_cell_angle_beta 90.000000
_cell_angle_gamma 90.000000
_cell_volume 3554.949980
_symmetry_space_group_name_H-M "P 42/M N M"
_symmetry_group_IT_number 136
_symmetry_cell_setting 'tetragonal'
loop_
_space_group_symop_operation_xyz
x,y,z
1/2-y,1/2+x,1/2+z
-x,-y,z
1/2+y,1/2-x,1/2+z
1/2+x,1/2-y,1/2-z
1/2-x,1/2+y,1/2-z
y,x,-z
-y,-x,-z
-x,-y,-z
1/2+y,1/2-x,1/2-z
x,y,-z
1/2-y,1/2+x,1/2-z
1/2-x,1/2+y,1/2+z
1/2+x,1/2-y,1/2+z
-y,-x,z
y,x,z
loop_
_atom_site_type_symbol
_atom_site_label
_atom_site_fract_x
_atom_site_fract_y
_atom_site_fract_z
Si Si1 0.764812 0.610806 0.088561
Si Si2 0.598735 0.051942 0.088715
Si Si3 0.077544 0.077544 0.094995
Si Si4 0.739912 0.412140 0.858818
Si Si5 0.425967 0.776269 0.325205
O O1 0.686652 0.686652 0.082988
O O2 0.719660 0.519351 0.124599
O O3 0.845943 0.659702 0.137421
O O4 0.799902 0.589469 0.000000
O O5 0.597728 0.161852 0.097714
O O6 0.500000 0.000000 0.096845
O O7 0.663298 0.016101 0.158731
O O8 0.633201 0.028754 0.000000
O O9 0.058855 0.179620 0.129557
O O10 0.081227 0.081227 0.000000
O O11 0.000000 0.000000 0.116580
O O12 0.661205 0.338796 0.882870
O O13 0.756320 0.403591 0.765174
#
# Coordination Sequence:
#
# PCOD9569860 Si02
#       5
#    16  16   8  16  16
#     4  11  23  42  71  98 127 178 235 282 335 416
#     4  11  24  41  69 103 134 177 230 283 341 413
#     4  11  24  42  68 100 136 180 232 281 330 400
#     4  12  26  43  65 103 141 175 221 289 356 404
#     4  12  23  43  70  98 136 180 228 277 346 417
#
# _framework density 20.253450000000001
#
# number of rings (size 3 to 8) (size 9 to 14) (size 15 to 20)
#    0.000    0.556    4.444    4.000    0.000    4.000 
#    0.000    1.111    0.000    0.000    0.000    0.000 
#    0.000    0.000    0.000    0.000    0.000    0.000 
#
# Total GULP energy -402069.876807 kJ/mol
# GULP energy per Si atom -5584.303845 kJ/mol
# Density = 2.020735 g / cm^3
# Si number density = 20.253450 Si / 1000 Ang^3
#
#
#
# Elastic Constant Matrix: (Units=GPa)
#
#
# Indices 1 2 3 4 5 6 
#
# 1 73.6513 3.4752 8.9508 0.0000 0.0000 0.0000
# 2 3.4752 73.6513 8.9508 0.0000 0.0000 0.0000
# 3 8.9508 8.9508 82.5010 0.0000 0.0000 0.0000
# 4 0.0000 0.0000 0.0000 16.4613 0.0000 0.0000
# 5 0.0000 0.0000 0.0000 0.0000 16.4613 0.0000
# 6 0.0000 0.0000 0.0000 0.0000 0.0000 49.9951
#
#
#
# Elastic Compliance Matrix: (Units=1/GPa)
#
#
# Indices 1 2 3 4 5 6 
#
# 1 0.013775 -0.000475 -0.001443 0.000000 0.000000 0.000000
# 2 -0.000475 0.013775 -0.001443 0.000000 0.000000 0.000000
# 3 -0.001443 -0.001443 0.012434 0.000000 0.000000 0.000000
# 4 0.000000 0.000000 0.000000 0.060748 0.000000 0.000000
# 5 0.000000 0.000000 0.000000 0.000000 0.060748 0.000000
# 6 0.000000 0.000000 0.000000 0.000000 0.000000 0.020002
#
#
# Mechanical properties :
#
#
# Convention : Reuss Voigt Hill
#
# Bulk Modulus (GPa) = 30.06310 30.28412 30.17361
# Shear Modulus (GPa) = 25.08875 30.47868 27.78372
#
# Velocity S-wave (km/s) = 3.52339 3.88347 3.70780
# Velocity P-wave (km/s) = 5.60607 5.92397 5.76721
#
# Compressibility (1/GPa) = 0.03326337
#
# Stress axis : x y z
#
# Youngs Moduli (GPa) = 72.59393 72.59393 80.42345
#
# Poissons Ratio (x) = 0.03445 0.11605
# Poissons Ratio (y) = 0.03445 0.11605
# Poissons Ratio (z) = 0.10476 0.10476
#
# Static dielectric constant tensor:
#      x y z
#    x 1.774260 0.000000 0.000000 
#    y 0.000000 1.774260 0.000000 
#    z 0.000000 0.000000 1.707040 
# 
# From -- ./inp_files/6057.got.cif
#   From: 2010.05.17/outbox.cif.g08.bks.cpg/sg136_4_cif.got.tgz:6057.got - 2010.05.20 12:54:53.
