data_PCOD9569805
_publ_section_title
;
Structure prediction by ZEFSAII (Michael W. Deem and Ramdas Pophale) SiO2 
 PCOD9569805
Probable space group: P 42/M N M
;
_chemical_formula_sum "Si O2"
_cell_formula_units_Z 64
_cell_length_a 20.459659
_cell_length_b 20.459659
_cell_length_c 8.429062
_cell_angle_alpha 90.000000
_cell_angle_beta 90.000000
_cell_angle_gamma 90.000000
_cell_volume 3528.385515
_symmetry_space_group_name_H-M "P 42/M N M"
_symmetry_group_IT_number 136
_symmetry_cell_setting 'tetragonal'
loop_
_space_group_symop_operation_xyz
x,y,z
1/2-y,1/2+x,1/2+z
-x,-y,z
1/2+y,1/2-x,1/2+z
1/2+x,1/2-y,1/2-z
1/2-x,1/2+y,1/2-z
y,x,-z
-y,-x,-z
-x,-y,-z
1/2+y,1/2-x,1/2-z
x,y,-z
1/2-y,1/2+x,1/2-z
1/2-x,1/2+y,1/2+z
1/2+x,1/2-y,1/2+z
-y,-x,z
y,x,z
loop_
_atom_site_type_symbol
_atom_site_label
_atom_site_fract_x
_atom_site_fract_y
_atom_site_fract_z
Si Si1 0.855174 0.248922 0.693787
Si Si2 0.499715 0.742886 0.819887
Si Si3 0.391057 0.500478 0.678924
Si Si4 0.252475 0.644080 0.690479
O O1 0.858056 0.246580 0.500000
O O2 0.818468 0.181533 0.743911
O O3 0.806553 0.307731 0.738193
O O4 0.929110 0.260686 0.751553
O O5 0.501963 0.664391 0.808121
O O6 0.430020 0.759063 0.743152
O O7 0.498125 0.766506 0.000000
O O8 0.361870 0.501377 0.500000
O O9 0.435763 0.564238 0.693334
O O10 0.439433 0.439433 0.689236
O O11 0.255051 0.644243 0.500000
O O12 0.319679 0.680322 0.745974
#
# Coordination Sequence:
#
# PCOD9569805 Si02
#       4
#    16  16  16  16
#     4   8  16  32  51  69  92 126 163 194 229 279
#     4  11  20  29  47  74  98 118 150 200 250 285
#     4   9  18  31  44  61  91 130 164 187 215 271
#     4   9  18  34  53  69  91 128 167 194 224 280
#
# _framework density 18.138608000000001
#
# number of rings (size 3 to 8) (size 9 to 14) (size 15 to 20)
#    0.000    2.750    0.000    4.500    0.000    5.500 
#    0.000    3.750    0.000    3.750    0.000    5.250 
#    0.000    0.000    0.000    0.000    0.000    0.000 
#
# Total GULP energy -356393.882072 kJ/mol
# GULP energy per Si atom -5568.654407 kJ/mol
# Density = 1.809732 g / cm^3
# Si number density = 18.138608 Si / 1000 Ang^3
#
#
#
# Elastic Constant Matrix: (Units=GPa)
#
#
# Indices 1 2 3 4 5 6 
#
# 1 117.1485 46.1244 12.1353 0.0000 0.0000 0.0000
# 2 46.1244 117.1485 12.1353 0.0000 0.0000 0.0000
# 3 12.1353 12.1353 8.7177 0.0000 0.0000 0.0000
# 4 0.0000 0.0000 0.0000 62.6941 0.0000 0.0000
# 5 0.0000 0.0000 0.0000 0.0000 62.6941 0.0000
# 6 0.0000 0.0000 0.0000 0.0000 0.0000 17.1395
#
#
#
# Elastic Compliance Matrix: (Units=1/GPa)
#
#
# Indices 1 2 3 4 5 6 
#
# 1 0.010901 -0.003178 -0.010750 0.000000 0.000000 0.000000
# 2 -0.003178 0.010901 -0.010750 0.000000 0.000000 0.000000
# 3 -0.010750 -0.010750 0.144639 0.000000 0.000000 0.000000
# 4 0.000000 0.000000 0.000000 0.015950 0.000000 0.000000
# 5 0.000000 0.000000 0.000000 0.000000 0.015950 0.000000
# 6 0.000000 0.000000 0.000000 0.000000 0.000000 0.058345
#
#
# Mechanical properties :
#
#
# Convention : Reuss Voigt Hill
#
# Bulk Modulus (GPa) = 8.54093 42.64495 25.59294
# Shear Modulus (GPa) = 14.48968 40.01354 27.25161
#
# Velocity S-wave (km/s) = 2.82943 4.70189 3.88030
# Velocity P-wave (km/s) = 3.92341 7.28276 5.84944
#
# Compressibility (1/GPa) = 0.11708321
#
# Stress axis : x y z
#
# Youngs Moduli (GPa) = 91.73275 91.73275 6.91377
#
# Poissons Ratio (x) = 0.29157 0.07433
# Poissons Ratio (y) = 0.29157 0.07433
# Poissons Ratio (z) = 0.98615 0.98615
#
# Static dielectric constant tensor:
#      x y z
#    x 1.639260 0.000000 0.000000 
#    y 0.000000 1.639260 0.000000 
#    z 0.000000 0.000000 1.674680 
# 
# From -- ./inp_files/1408.got.cif
#   From: 2010.05.17/outbox.cif.g08.bks.cpg/sg136_1_cif.got.tgz:1408.got - 2010.05.20 12:54:53.
