data_PCOD9569800
_publ_section_title
;
Structure prediction by ZEFSAII (Michael W. Deem and Ramdas Pophale) SiO2 
 PCOD9569800
Probable space group: P 42/M N M
;
_chemical_formula_sum "Si O2"
_cell_formula_units_Z 96
_cell_length_a 14.598263
_cell_length_b 14.598263
_cell_length_c 25.663416
_cell_angle_alpha 90.000000
_cell_angle_beta 90.000000
_cell_angle_gamma 90.000000
_cell_volume 5469.112173
_symmetry_space_group_name_H-M "P 42/M N M"
_symmetry_group_IT_number 136
_symmetry_cell_setting 'tetragonal'
loop_
_space_group_symop_operation_xyz
x,y,z
1/2-y,1/2+x,1/2+z
-x,-y,z
1/2+y,1/2-x,1/2+z
1/2+x,1/2-y,1/2-z
1/2-x,1/2+y,1/2-z
y,x,-z
-y,-x,-z
-x,-y,-z
1/2+y,1/2-x,1/2-z
x,y,-z
1/2-y,1/2+x,1/2-z
1/2-x,1/2+y,1/2+z
1/2+x,1/2-y,1/2+z
-y,-x,z
y,x,z
loop_
_atom_site_type_symbol
_atom_site_label
_atom_site_fract_x
_atom_site_fract_y
_atom_site_fract_z
Si Si1 0.171619 0.673664 0.637381
Si Si2 0.488835 0.111787 0.317242
Si Si3 0.522543 0.764980 0.221691
Si Si4 0.767799 0.522401 0.938303
Si Si5 0.575184 0.575184 0.236998
Si Si6 0.925319 0.074682 0.389549
Si Si7 0.787213 0.366098 0.858158
O O1 0.263401 0.736600 0.633782
O O2 0.170002 0.567854 0.653699
O O3 0.107549 0.716002 0.683306
O O4 0.109424 0.678421 0.585440
O O5 0.494151 0.147310 0.257709
O O6 0.390728 0.144289 0.338566
O O7 0.500000 0.000000 0.324485
O O8 0.545874 0.675552 0.254811
O O9 0.434336 0.745071 0.185880
O O10 0.666944 0.543386 0.916772
O O11 0.793476 0.427048 0.910510
O O12 0.772786 0.517744 0.000000
O O13 0.500000 0.500000 0.249864
O O14 0.581576 0.581576 0.173237
O O15 0.000000 0.000000 0.400541
O O16 0.722772 0.277229 0.863002
#
# Coordination Sequence:
#
# PCOD9569800 Si02
#       7
#    16  16  16  16   8   8  16
#     4  11  22  39  56  84 121 153 192 247 293 339
#     4  12  25  39  61  85 111 159 206 242 284 347
#     4  11  21  33  58  83 113 157 198 236 288 350
#     4  11  21  36  61  87 115 153 192 232 294 365
#     4  11  20  35  54  83 126 160 191 243 293 337
#     4  11  19  32  51  82 124 158 186 225 284 353
#     4  11  24  39  57  85 121 154 192 247 298 342
#
# _framework density 17.553124
#
# number of rings (size 3 to 8) (size 9 to 14) (size 15 to 20)
#    0.000    0.833    8.333    2.250    3.500    4.333 
#    0.000    1.667    0.000    0.000    0.000    0.000 
#    0.000    0.000    0.000    3.000    0.000    0.000 
#
# Total GULP energy -535359.545919 kJ/mol
# GULP energy per Si atom -5576.661937 kJ/mol
# Density = 1.751317 g / cm^3
# Si number density = 17.553124 Si / 1000 Ang^3
#
#
#
# Elastic Constant Matrix: (Units=GPa)
#
#
# Indices 1 2 3 4 5 6 
#
# 1 21.7410 113.9616 20.6563 0.0000 0.0000 0.0000
# 2 113.9616 21.7410 20.6563 0.0000 0.0000 0.0000
# 3 20.6563 20.6563 75.0740 0.0000 0.0000 0.0000
# 4 0.0000 0.0000 0.0000 13.6295 0.0000 0.0000
# 5 0.0000 0.0000 0.0000 0.0000 13.6295 0.0000
# 6 0.0000 0.0000 0.0000 0.0000 0.0000 11.9346
#
#
#
# Elastic Compliance Matrix: (Units=1/GPa)
#
#
# Indices 1 2 3 4 5 6 
#
# 1 -0.001400 0.009443 -0.002213 0.000000 0.000000 0.000000
# 2 0.009443 -0.001400 -0.002213 0.000000 0.000000 0.000000
# 3 -0.002213 -0.002213 0.014538 0.000000 0.000000 0.000000
# 4 0.000000 0.000000 0.000000 0.073370 0.000000 0.000000
# 5 0.000000 0.000000 0.000000 0.000000 0.073370 0.000000
# 6 0.000000 0.000000 0.000000 0.000000 0.000000 0.083790
#
#
# Mechanical properties :
#
#
# Convention : Reuss Voigt Hill
#
# Bulk Modulus (GPa) = 45.93112 47.67827 46.80470
# Shear Modulus (GPa) = 20.87772 5.39086 13.13429
#
# Velocity S-wave (km/s) = 3.45251 1.75438 2.73840
# Velocity P-wave (km/s) = 6.48975 5.59688 6.05978
#
# Compressibility (1/GPa) = 0.02177173
#
# Stress axis : x y z
#
# Youngs Moduli (GPa) = -714.07588 -714.07588 68.78553
#
# Poissons Ratio (x) = 6.74313 0.15222
# Poissons Ratio (y) = 6.74313 0.15222
# Poissons Ratio (z) = -1.58020 -1.58020
#
# Static dielectric constant tensor:
#      x y z
#    x 1.650730 0.000000 0.000000 
#    y 0.000000 1.650730 0.000000 
#    z 0.000000 0.000000 1.595980 
# 
# From -- ./inp_files/8424.got.cif
#   From: 2010.05.17/outbox.cif.g08.bks.cpg/sg136_5_cif.got.tgz:8424.got - 2010.05.20 12:54:53.
