data_PCOD9569517
_publ_section_title
;
Structure prediction by ZEFSAII (Michael W. Deem and Ramdas Pophale) SiO2 
 PCOD9569517
Probable space group: P 42/M N M
;
_chemical_formula_sum "Si O2"
_cell_formula_units_Z 112
_cell_length_a 13.420805
_cell_length_b 13.420805
_cell_length_c 30.103872
_cell_angle_alpha 90.000000
_cell_angle_beta 90.000000
_cell_angle_gamma 90.000000
_cell_volume 5422.249423
_symmetry_space_group_name_H-M "P 42/M N M"
_symmetry_group_IT_number 136
_symmetry_cell_setting 'tetragonal'
loop_
_space_group_symop_operation_xyz
x,y,z
1/2-y,1/2+x,1/2+z
-x,-y,z
1/2+y,1/2-x,1/2+z
1/2+x,1/2-y,1/2-z
1/2-x,1/2+y,1/2-z
y,x,-z
-y,-x,-z
-x,-y,-z
1/2+y,1/2-x,1/2-z
x,y,-z
1/2-y,1/2+x,1/2-z
1/2-x,1/2+y,1/2+z
1/2+x,1/2-y,1/2+z
-y,-x,z
y,x,z
loop_
_atom_site_type_symbol
_atom_site_label
_atom_site_fract_x
_atom_site_fract_y
_atom_site_fract_z
Si Si1 0.304649 0.855554 0.658841
Si Si2 0.283355 0.883525 0.194385
Si Si3 0.978631 0.743286 0.550118
Si Si4 0.993131 0.844735 0.639304
Si Si5 0.595784 0.241983 0.742624
Si Si6 0.561656 0.102453 0.421843
Si Si7 0.787171 0.624401 0.587116
O O1 0.221986 0.778015 0.640792
O O2 0.252454 0.962390 0.661503
O O3 0.340804 0.814511 0.704873
O O4 0.394149 0.864203 0.624935
O O5 0.190744 0.809257 0.201700
O O6 0.378605 0.827225 0.215243
O O7 0.294793 0.892031 0.140688
O O8 0.260385 0.985018 0.221797
O O9 0.964784 0.777578 0.500000
O O10 0.877271 0.693496 0.569202
O O11 0.002331 0.825928 0.586680
O O12 0.065875 0.658958 0.551245
O O13 0.069042 0.930959 0.652931
O O14 0.882473 0.882473 0.649240
O O15 0.648778 0.351223 0.747766
O O16 0.482649 0.187628 0.435582
O O17 0.500000 0.000000 0.417289
O O18 0.684230 0.684230 0.578413
#
# Coordination Sequence:
#
# PCOD9569517 Si02
#       7
#    16  16  16  16  16  16  16
#     4   9  17  33  54  77 108 143 185 228 271 325
#     4  10  22  39  57  85 118 148 190 238 284 333
#     4  10  21  35  52  76 108 145 185 229 281 340
#     4   9  18  32  51  77 110 147 186 229 275 330
#     4  10  21  38  60  85 114 151 192 235 278 335
#     4   9  18  32  53  75 103 139 181 224 271 325
#     4  10  20  35  54  76 108 142 177 230 284 332
#
# _framework density 20.655633000000002
#
# number of rings (size 3 to 8) (size 9 to 14) (size 15 to 20)
#    0.000    2.429    1.429    0.429    0.000    8.000 
#    0.000    2.857    0.000    3.000    0.000    0.000 
#    0.000    0.571    0.000   16.143    0.000    0.000 
#
# Total GULP energy -624066.262939 kJ/mol
# GULP energy per Si atom -5572.020205 kJ/mol
# Density = 2.060862 g / cm^3
# Si number density = 20.655633 Si / 1000 Ang^3
#
#
#
# Elastic Constant Matrix: (Units=GPa)
#
#
# Indices 1 2 3 4 5 6 
#
# 1 54.8930 58.3941 17.5764 0.0000 0.0000 0.0000
# 2 58.3941 54.8930 17.5764 0.0000 0.0000 0.0000
# 3 17.5764 17.5764 59.9125 0.0000 0.0000 0.0000
# 4 0.0000 0.0000 0.0000 -0.6458 0.0000 0.0000
# 5 0.0000 0.0000 0.0000 0.0000 -0.6458 0.0000
# 6 0.0000 0.0000 0.0000 0.0000 0.0000 31.1287
#
#
#
# Elastic Compliance Matrix: (Units=1/GPa)
#
#
# Indices 1 2 3 4 5 6 
#
# 1 -0.137954 0.147665 -0.002849 0.000000 0.000000 0.000000
# 2 0.147665 -0.137954 -0.002849 0.000000 0.000000 0.000000
# 3 -0.002849 -0.002849 0.018363 0.000000 0.000000 0.000000
# 4 0.000000 0.000000 0.000000 -1.548558 0.000000 0.000000
# 5 0.000000 0.000000 0.000000 0.000000 -1.548558 0.000000
# 6 0.000000 0.000000 0.000000 0.000000 0.000000 0.032125
#
#
# Mechanical properties :
#
#
# Convention : Reuss Voigt Hill
#
# Bulk Modulus (GPa) = 37.89438 39.64358 38.76898
# Shear Modulus (GPa) = -1.38979 11.04422 4.82722
#
# Velocity S-wave (km/s) = -0.82116 2.31483 1.53038
# Velocity P-wave (km/s) = 4.18169 5.13604 4.68324
#
# Compressibility (1/GPa) = 0.02638914
#
# Stress axis : x y z
#
# Youngs Moduli (GPa) = -7.24878 -7.24878 54.45864
#
# Poissons Ratio (x) = 1.07039 0.15515
# Poissons Ratio (y) = 1.07039 0.15515
# Poissons Ratio (z) = -0.02065 -0.02065
#
# Static dielectric constant tensor:
#      x y z
#    x 1.817890 0.000000 0.000000 
#    y 0.000000 1.817890 0.000000 
#    z 0.000000 0.000000 1.756070 
# 
# From -- ./inp_files/9967.got.cif
#   From: 2010.05.17/outbox.cif.g08.bks.cpg/sg136_5_cif.got.tgz:9967.got - 2010.05.20 12:54:53.
