data_PCOD9569339
_publ_section_title
;
Structure prediction by ZEFSAII (Michael W. Deem and Ramdas Pophale) SiO2 
 PCOD9569339
Probable space group: P 42/M N M
;
_chemical_formula_sum "Si O2"
_cell_formula_units_Z 96
_cell_length_a 25.369598
_cell_length_b 25.369598
_cell_length_c 8.885370
_cell_angle_alpha 90.000000
_cell_angle_beta 90.000000
_cell_angle_gamma 90.000000
_cell_volume 5718.770764
_symmetry_space_group_name_H-M "P 42/M N M"
_symmetry_group_IT_number 136
_symmetry_cell_setting 'tetragonal'
loop_
_space_group_symop_operation_xyz
x,y,z
1/2-y,1/2+x,1/2+z
-x,-y,z
1/2+y,1/2-x,1/2+z
1/2+x,1/2-y,1/2-z
1/2-x,1/2+y,1/2-z
y,x,-z
-y,-x,-z
-x,-y,-z
1/2+y,1/2-x,1/2-z
x,y,-z
1/2-y,1/2+x,1/2-z
1/2-x,1/2+y,1/2+z
1/2+x,1/2-y,1/2+z
-y,-x,z
y,x,z
loop_
_atom_site_type_symbol
_atom_site_label
_atom_site_fract_x
_atom_site_fract_y
_atom_site_fract_z
Si Si1 0.425828 0.425828 0.320475
Si Si2 0.084396 0.631369 0.179699
Si Si3 0.467085 0.620356 0.820509
Si Si4 0.268580 0.515594 0.680476
Si Si5 0.655353 0.655353 0.822316
Si Si6 0.150080 0.537590 0.319642
Si Si7 0.596665 0.759259 0.178702
O O1 0.429507 0.429507 0.500000
O O2 0.406909 0.481499 0.252537
O O3 0.382511 0.382511 0.272638
O O4 0.114185 0.580141 0.238211
O O5 0.108438 0.683718 0.254111
O O6 0.022120 0.632732 0.219642
O O7 0.087792 0.635222 0.000000
O O8 0.416853 0.583148 0.792218
O O9 0.460942 0.678804 0.752871
O O10 0.475411 0.624054 0.000000
O O11 0.273637 0.514219 0.500000
O O12 0.212392 0.542654 0.717547
O O13 0.262237 0.456248 0.742508
O O14 0.715749 0.641114 0.793973
O O15 0.644523 0.644523 0.000000
O O16 0.144900 0.543432 0.500000
O O17 0.587469 0.763333 0.000000
#
# Coordination Sequence:
#
# PCOD9569339 Si02
#       7
#     8  16  16  16   8  16  16
#     4  12  23  33  52  79 110 144 180 232 282 324
#     4  10  21  36  56  84 113 143 182 223 266 324
#     4  11  23  37  53  75 107 146 186 229 277 331
#     4  10  20  35  55  80 107 139 182 225 266 320
#     4  10  20  33  53  80 108 141 182 224 274 333
#     4   9  20  37  56  81 113 143 176 219 270 326
#     4  10  19  33  55  79 108 142 177 219 272 326
#
# _framework density 16.786825
#
# number of rings (size 3 to 8) (size 9 to 14) (size 15 to 20)
#    0.000    1.833    1.667    4.000    0.000    7.333 
#    0.000    1.667    1.833    0.000    0.000    0.000 
#    0.000    0.000    0.000    0.000    0.000    0.000 
#
# Total GULP energy -535906.364626 kJ/mol
# GULP energy per Si atom -5582.357965 kJ/mol
# Density = 1.674862 g / cm^3
# Si number density = 16.786825 Si / 1000 Ang^3
#
#
#
# Elastic Constant Matrix: (Units=GPa)
#
#
# Indices 1 2 3 4 5 6 
#
# 1 115.9491 85.5611 67.6178 0.0000 0.0000 0.0000
# 2 85.5611 115.9491 67.6178 0.0000 0.0000 0.0000
# 3 67.6178 67.6178 79.8327 0.0000 0.0000 0.0000
# 4 0.0000 0.0000 0.0000 25.9412 0.0000 0.0000
# 5 0.0000 0.0000 0.0000 0.0000 25.9412 0.0000
# 6 0.0000 0.0000 0.0000 0.0000 0.0000 25.3401
#
#
#
# Elastic Compliance Matrix: (Units=1/GPa)
#
#
# Indices 1 2 3 4 5 6 
#
# 1 0.022203 -0.010704 -0.009739 0.000000 0.000000 0.000000
# 2 -0.010704 0.022203 -0.009739 0.000000 0.000000 0.000000
# 3 -0.009739 -0.009739 0.029025 0.000000 0.000000 0.000000
# 4 0.000000 0.000000 0.000000 0.038549 0.000000 0.000000
# 5 0.000000 0.000000 0.000000 0.000000 0.038549 0.000000
# 6 0.000000 0.000000 0.000000 0.000000 0.000000 0.039463
#
#
# Mechanical properties :
#
#
# Convention : Reuss Voigt Hill
#
# Bulk Modulus (GPa) = 76.54282 83.70271 80.12277
# Shear Modulus (GPa) = 19.62996 21.50676 20.56836
#
# Velocity S-wave (km/s) = 3.42331 3.58323 3.50418
# Velocity P-wave (km/s) = 7.83080 8.19083 8.01284
#
# Compressibility (1/GPa) = 0.01306458
#
# Stress axis : x y z
#
# Youngs Moduli (GPa) = 45.03859 45.03859 34.45364
#
# Poissons Ratio (x) = 0.48211 0.33556
# Poissons Ratio (y) = 0.48211 0.33556
# Poissons Ratio (z) = 0.43865 0.43865
#
# Static dielectric constant tensor:
#      x y z
#    x 1.553180 0.000000 0.000000 
#    y 0.000000 1.553180 0.000000 
#    z 0.000000 0.000000 1.562870 
# 
# From -- ./inp_files/2071.got.cif
#   From: 2010.05.17/outbox.cif.g08.bks.cpg/sg136_2_cif.got.tgz:2071.got - 2010.05.20 12:54:53.
