data_PCOD9569271
_publ_section_title
;
Structure prediction by ZEFSAII (Michael W. Deem and Ramdas Pophale) SiO2 
 PCOD9569271
Probable space group: P 42/M N M
;
_chemical_formula_sum "Si O2"
_cell_formula_units_Z 96
_cell_length_a 25.097772
_cell_length_b 25.097772
_cell_length_c 9.231573
_cell_angle_alpha 90.000000
_cell_angle_beta 90.000000
_cell_angle_gamma 90.000000
_cell_volume 5814.950841
_symmetry_space_group_name_H-M "P 42/M N M"
_symmetry_group_IT_number 136
_symmetry_cell_setting 'tetragonal'
loop_
_space_group_symop_operation_xyz
x,y,z
1/2-y,1/2+x,1/2+z
-x,-y,z
1/2+y,1/2-x,1/2+z
1/2+x,1/2-y,1/2-z
1/2-x,1/2+y,1/2-z
y,x,-z
-y,-x,-z
-x,-y,-z
1/2+y,1/2-x,1/2-z
x,y,-z
1/2-y,1/2+x,1/2-z
1/2-x,1/2+y,1/2+z
1/2+x,1/2-y,1/2+z
-y,-x,z
y,x,z
loop_
_atom_site_type_symbol
_atom_site_label
_atom_site_fract_x
_atom_site_fract_y
_atom_site_fract_z
Si Si1 0.700135 0.700135 0.324042
Si Si2 0.776962 0.527339 0.671611
Si Si3 0.165080 0.983562 0.669820
Si Si4 0.188489 0.101088 0.668973
Si Si5 0.388657 0.388657 0.673305
Si Si6 0.852571 0.312382 0.827408
Si Si7 0.299095 0.089734 0.171327
O O1 0.700826 0.700826 0.500000
O O2 0.655851 0.655851 0.282783
O O3 0.759069 0.680061 0.278231
O O4 0.761673 0.525325 0.500000
O O5 0.724687 0.525233 0.770311
O O6 0.803740 0.584384 0.695758
O O7 0.809884 0.473151 0.701548
O O8 0.161663 0.970507 0.500000
O O9 0.128325 0.944977 0.761905
O O10 0.155428 0.046548 0.687836
O O11 0.206443 0.101803 0.500000
O O12 0.151833 0.151833 0.694524
O O13 0.239049 0.099150 0.772442
O O14 0.389704 0.389704 0.500000
O O15 0.833995 0.366124 0.750903
O O16 0.843547 0.316921 0.000000
O O17 0.302692 0.097481 0.000000
#
# Coordination Sequence:
#
# PCOD9569271 Si02
#       7
#     8  16  16  16   8  16  16
#     4   9  18  31  51  74  98 133 174 201 235 300
#     4   9  18  35  55  72  99 138 174 203 249 313
#     4  10  19  31  50  76  99 125 171 222 259 293
#     4   9  19  36  54  70  96 138 178 209 249 308
#     4  11  19  33  52  72 101 138 170 204 259 317
#     4  10  19  34  54  76 102 138 174 203 243 307
#     4  10  21  34  51  80 108 131 164 214 261 297
#
# _framework density 16.509169
#
# number of rings (size 3 to 8) (size 9 to 14) (size 15 to 20)
#    0.000    2.333    1.667    1.250    1.167    2.333 
#    0.000    0.417    0.000    3.000    0.000    3.500 
#    0.000    0.000    0.000    0.000    0.000    0.000 
#
# Total GULP energy -535054.603181 kJ/mol
# GULP energy per Si atom -5573.485450 kJ/mol
# Density = 1.647159 g / cm^3
# Si number density = 16.509169 Si / 1000 Ang^3
#
#
#
# Elastic Constant Matrix: (Units=GPa)
#
#
# Indices 1 2 3 4 5 6 
#
# 1 70.0194 44.6962 32.9933 0.0000 0.0000 0.0000
# 2 44.6962 70.0194 32.9933 0.0000 0.0000 0.0000
# 3 32.9933 32.9933 40.3904 0.0000 0.0000 0.0000
# 4 0.0000 0.0000 0.0000 26.3979 0.0000 0.0000
# 5 0.0000 0.0000 0.0000 0.0000 26.3979 0.0000
# 6 0.0000 0.0000 0.0000 0.0000 0.0000 22.4143
#
#
#
# Elastic Compliance Matrix: (Units=1/GPa)
#
#
# Indices 1 2 3 4 5 6 
#
# 1 0.027967 -0.011523 -0.013432 0.000000 0.000000 0.000000
# 2 -0.011523 0.027967 -0.013432 0.000000 0.000000 0.000000
# 3 -0.013432 -0.013432 0.046703 0.000000 0.000000 0.000000
# 4 0.000000 0.000000 0.000000 0.037882 0.000000 0.000000
# 5 0.000000 0.000000 0.000000 0.000000 0.037882 0.000000
# 6 0.000000 0.000000 0.000000 0.000000 0.000000 0.044614
#
#
# Mechanical properties :
#
#
# Convention : Reuss Voigt Hill
#
# Bulk Modulus (GPa) = 38.66767 44.64386 41.65576
# Shear Modulus (GPa) = 16.21225 19.69177 17.95201
#
# Velocity S-wave (km/s) = 3.13711 3.45741 3.30115
# Velocity P-wave (km/s) = 6.04936 6.56040 6.31005
#
# Compressibility (1/GPa) = 0.02586140
#
# Stress axis : x y z
#
# Youngs Moduli (GPa) = 35.75698 35.75698 21.41204
#
# Poissons Ratio (x) = 0.41203 0.28761
# Poissons Ratio (y) = 0.41203 0.28761
# Poissons Ratio (z) = 0.48029 0.48029
#
# Static dielectric constant tensor:
#      x y z
#    x 1.555400 0.000000 0.000000 
#    y 0.000000 1.555400 0.000000 
#    z 0.000000 0.000000 1.550410 
# 
# From -- ./inp_files/2095.got.cif
#   From: 2010.05.17/outbox.cif.g08.bks.cpg/sg136_2_cif.got.tgz:2095.got - 2010.05.20 12:54:53.
