data_PCOD9569723
_publ_section_title
;
Structure prediction by ZEFSAII (Michael W. Deem and Ramdas Pophale) SiO2 
 PCOD9569723
Probable space group: P 42/M N M
;
_chemical_formula_sum "Si O2"
_cell_formula_units_Z 88
_cell_length_a 12.426887
_cell_length_b 12.426887
_cell_length_c 28.503244
_cell_angle_alpha 90.000000
_cell_angle_beta 90.000000
_cell_angle_gamma 90.000000
_cell_volume 4401.685297
_symmetry_space_group_name_H-M "P 42/M N M"
_symmetry_group_IT_number 136
_symmetry_cell_setting 'tetragonal'
loop_
_space_group_symop_operation_xyz
x,y,z
1/2-y,1/2+x,1/2+z
-x,-y,z
1/2+y,1/2-x,1/2+z
1/2+x,1/2-y,1/2-z
1/2-x,1/2+y,1/2-z
y,x,-z
-y,-x,-z
-x,-y,-z
1/2+y,1/2-x,1/2-z
x,y,-z
1/2-y,1/2+x,1/2-z
1/2-x,1/2+y,1/2+z
1/2+x,1/2-y,1/2+z
-y,-x,z
y,x,z
loop_
_atom_site_type_symbol
_atom_site_label
_atom_site_fract_x
_atom_site_fract_y
_atom_site_fract_z
Si Si1 0.600383 0.225664 0.793965
Si Si2 0.274616 0.453758 0.709257
Si Si3 0.061592 0.757712 0.898399
Si Si4 0.591087 0.408914 0.944926
Si Si5 0.310796 0.032049 0.607230
Si Si6 0.857672 0.681822 0.945095
O O1 0.688490 0.311511 0.811976
O O2 0.667357 0.118051 0.784004
O O3 0.546872 0.268862 0.747034
O O4 0.519642 0.206880 0.836944
O O5 0.376350 0.376350 0.718058
O O6 0.276233 0.483286 0.654389
O O7 0.150073 0.849928 0.907563
O O8 0.121207 0.641853 0.898828
O O9 0.962856 0.752104 0.933818
O O10 0.500000 0.500000 0.941886
O O11 0.698363 0.449634 0.919378
O O12 0.612452 0.387549 0.000000
O O13 0.363443 0.926553 0.585185
O O14 0.751776 0.751776 0.933551
O O15 0.853364 0.654320 0.000000
#
# Coordination Sequence:
#
# PCOD9569723 Si02
#       6
#    16  16  16   8  16  16
#     4  10  21  39  60  89 124 162 206 253 307 376
#     4   9  21  38  58  86 122 157 198 252 304 362
#     4  10  22  44  67  91 125 165 218 268 318 378
#     4  11  22  36  60  94 131 167 201 253 325 385
#     4  11  21  42  64  92 127 166 212 264 316 385
#     4  11  26  44  63  93 131 168 212 266 323 384
#
# _framework density 19.992341
#
# number of rings (size 3 to 8) (size 9 to 14) (size 15 to 20)
#    0.000    1.727    1.818    2.727    2.545    7.273 
#    0.000    2.727    0.000    0.000    0.000    0.000 
#    0.000    0.000    0.000    0.000    0.000    0.000 
#
# Total GULP energy -491743.784591 kJ/mol
# GULP energy per Si atom -5587.997552 kJ/mol
# Density = 1.994684 g / cm^3
# Si number density = 19.992341 Si / 1000 Ang^3
#
#
#
# Elastic Constant Matrix: (Units=GPa)
#
#
# Indices 1 2 3 4 5 6 
#
# 1 60.6535 1.5488 25.7714 0.0000 0.0000 0.0000
# 2 1.5488 60.6536 25.7714 0.0000 0.0000 0.0000
# 3 25.7714 25.7714 47.9854 0.0000 0.0000 0.0000
# 4 0.0000 0.0000 0.0000 52.5898 0.0000 0.0000
# 5 0.0000 0.0000 0.0000 0.0000 52.5940 0.0000
# 6 0.0000 0.0000 0.0000 0.0000 0.0000 15.1609
#
#
#
# Elastic Compliance Matrix: (Units=1/GPa)
#
#
# Indices 1 2 3 4 5 6 
#
# 1 0.022944 0.006025 -0.015558 0.000000 0.000000 0.000000
# 2 0.006025 0.022944 -0.015558 0.000000 0.000000 0.000000
# 3 -0.015558 -0.015558 0.037551 0.000000 0.000000 0.000000
# 4 0.000000 0.000000 0.000000 0.019015 0.000000 0.000000
# 5 0.000000 0.000000 0.000000 0.000000 0.019014 0.000000
# 6 0.000000 0.000000 0.000000 0.000000 0.000000 0.065959
#
#
# Mechanical properties :
#
#
# Convention : Reuss Voigt Hill
#
# Bulk Modulus (GPa) = 30.06985 30.60842 30.33913
# Shear Modulus (GPa) = 20.10496 31.81565 25.96030
#
# Velocity S-wave (km/s) = 3.17461 3.99355 3.60740
# Velocity P-wave (km/s) = 5.33956 6.05045 5.70609
#
# Compressibility (1/GPa) = 0.03325590
#
# Stress axis : x y z
#
# Youngs Moduli (GPa) = 43.58476 43.58479 26.63034
#
# Poissons Ratio (x) = -0.26258 0.41432
# Poissons Ratio (y) = -0.26258 0.41432
# Poissons Ratio (z) = 0.67809 0.67809
#
# Static dielectric constant tensor:
#      x y z
#    x 1.711290 0.000000 0.000000 
#    y 0.000000 1.711290 0.000000 
#    z 0.000000 0.000000 1.689250 
# 
# From -- ./inp_files/9746.got.cif
#   From: 2010.05.17/outbox.cif.g08.bks.cpg/sg136_5_cif.got.tgz:9746.got - 2010.05.20 12:54:53.
