data_PCOD9569649
_publ_section_title
;
Structure prediction by ZEFSAII (Michael W. Deem and Ramdas Pophale) SiO2 
 PCOD9569649
Probable space group: P 42/M N M
;
_chemical_formula_sum "Si O2"
_cell_formula_units_Z 72
_cell_length_a 21.511592
_cell_length_b 21.511592
_cell_length_c 9.299067
_cell_angle_alpha 90.000000
_cell_angle_beta 90.000000
_cell_angle_gamma 90.000000
_cell_volume 4303.130146
_symmetry_space_group_name_H-M "P 42/M N M"
_symmetry_group_IT_number 136
_symmetry_cell_setting 'tetragonal'
loop_
_space_group_symop_operation_xyz
x,y,z
1/2-y,1/2+x,1/2+z
-x,-y,z
1/2+y,1/2-x,1/2+z
1/2+x,1/2-y,1/2-z
1/2-x,1/2+y,1/2-z
y,x,-z
-y,-x,-z
-x,-y,-z
1/2+y,1/2-x,1/2-z
x,y,-z
1/2-y,1/2+x,1/2-z
1/2-x,1/2+y,1/2+z
1/2+x,1/2-y,1/2+z
-y,-x,z
y,x,z
loop_
_atom_site_type_symbol
_atom_site_label
_atom_site_fract_x
_atom_site_fract_y
_atom_site_fract_z
Si Si1 0.194137 0.964534 0.830641
Si Si2 0.164272 0.734155 0.839753
Si Si3 0.490202 0.814356 0.828821
Si Si4 0.623538 0.876603 0.831447
Si Si5 0.448732 0.448732 0.675142
O O1 0.218680 0.893481 0.820724
O O2 0.122180 0.966059 0.781205
O O3 0.246072 0.002730 0.742960
O O4 0.196188 0.982050 0.000000
O O5 0.226264 0.773737 0.837310
O O6 0.163362 0.682522 0.718616
O O7 0.156321 0.705779 0.000000
O O8 0.553365 0.853494 0.800884
O O9 0.434489 0.852837 0.759424
O O10 0.483247 0.807838 0.000000
O O11 0.629236 0.889623 0.000000
O O12 0.500000 0.500000 0.719185
O O13 0.447554 0.447554 0.500000
#
# Coordination Sequence:
#
# PCOD9569649 Si02
#       5
#    16  16  16  16   8
#     4   9  16  30  52  76 103 135 170 210 255 304
#     4   9  16  29  51  76 100 129 168 213 260 308
#     4  10  21  36  53  75 103 136 175 218 267 317
#     4  10  21  35  52  76 103 135 175 218 264 316
#     4   9  16  28  51  83 111 137 175 215 253 304
#
# _framework density 16.732005000000001
#
# number of rings (size 3 to 8) (size 9 to 14) (size 15 to 20)
#    0.000    2.556    1.111    1.333    0.000    3.556 
#    0.000    3.889    0.000    5.333    0.000    0.000 
#    0.000    0.000    0.000    0.000    0.000    0.000 
#
# Total GULP energy -401113.497726 kJ/mol
# GULP energy per Si atom -5571.020802 kJ/mol
# Density = 1.669392 g / cm^3
# Si number density = 16.732005 Si / 1000 Ang^3
#
#
#
# Elastic Constant Matrix: (Units=GPa)
#
#
# Indices 1 2 3 4 5 6 
#
# 1 88.7673 66.7050 55.8156 0.0000 0.0000 0.0000
# 2 66.7050 88.7673 55.8156 0.0000 0.0000 0.0000
# 3 55.8156 55.8156 55.6715 0.0000 0.0000 0.0000
# 4 0.0000 0.0000 0.0000 20.0473 0.0000 0.0000
# 5 0.0000 0.0000 0.0000 0.0000 20.0473 0.0000
# 6 0.0000 0.0000 0.0000 0.0000 0.0000 19.5589
#
#
#
# Elastic Compliance Matrix: (Units=1/GPa)
#
#
# Indices 1 2 3 4 5 6 
#
# 1 0.034143 -0.011183 -0.023020 0.000000 0.000000 0.000000
# 2 -0.011183 0.034143 -0.023020 0.000000 0.000000 0.000000
# 3 -0.023020 -0.023020 0.064122 0.000000 0.000000 0.000000
# 4 0.000000 0.000000 0.000000 0.049882 0.000000 0.000000
# 5 0.000000 0.000000 0.000000 0.000000 0.049882 0.000000
# 6 0.000000 0.000000 0.000000 0.000000 0.000000 0.051128
#
#
# Mechanical properties :
#
#
# Convention : Reuss Voigt Hill
#
# Bulk Modulus (GPa) = 55.67054 65.54204 60.60629
# Shear Modulus (GPa) = 12.38436 15.58871 13.98654
#
# Velocity S-wave (km/s) = 2.72354 3.05564 2.89436
# Velocity P-wave (km/s) = 6.57528 7.19068 6.88986
#
# Compressibility (1/GPa) = 0.01796282
#
# Stress axis : x y z
#
# Youngs Moduli (GPa) = 29.28818 29.28818 15.59521
#
# Poissons Ratio (x) = 0.32752 0.35901
# Poissons Ratio (y) = 0.32752 0.35901
# Poissons Ratio (z) = 0.67422 0.67422
#
# Static dielectric constant tensor:
#      x y z
#    x 1.557390 0.000000 0.000000 
#    y 0.000000 1.557390 0.000000 
#    z 0.000000 0.000000 1.568750 
# 
# From -- ./inp_files/1536.got.cif
#   From: 2010.05.17/outbox.cif.g08.bks.cpg/sg136_1_cif.got.tgz:1536.got - 2010.05.20 12:54:53.
