data_PCOD9569918
_publ_section_title
;
Structure prediction by ZEFSAII (Michael W. Deem and Ramdas Pophale) SiO2 
 PCOD9569918
Probable space group: P 42/M N M
;
_chemical_formula_sum "Si O2"
_cell_formula_units_Z 72
_cell_length_a 21.000000
_cell_length_b 21.000000
_cell_length_c 9.000000
_cell_angle_alpha 90.000000
_cell_angle_beta 90.000000
_cell_angle_gamma 90.000000
_cell_volume 3969.000000
_symmetry_space_group_name_H-M "P 42/M N M"
_symmetry_group_IT_number 136
_symmetry_cell_setting 'tetragonal'
loop_
_space_group_symop_operation_xyz
x,y,z
1/2-y,1/2+x,1/2+z
-x,-y,z
1/2+y,1/2-x,1/2+z
1/2+x,1/2-y,1/2-z
1/2-x,1/2+y,1/2-z
y,x,-z
-y,-x,-z
-x,-y,-z
1/2+y,1/2-x,1/2-z
x,y,-z
1/2-y,1/2+x,1/2-z
1/2-x,1/2+y,1/2+z
1/2+x,1/2-y,1/2+z
-y,-x,z
y,x,z
loop_
_atom_site_type_symbol
_atom_site_label
_atom_site_fract_x
_atom_site_fract_y
_atom_site_fract_z
Si Si1 0.145164 0.397090 0.172800
Si Si2 0.732876 0.626639 0.332055
Si Si3 0.959032 0.685551 0.675264
Si Si4 0.684782 0.484005 0.674186
Si Si5 0.447557 0.552443 0.822138
O O1 0.212053 0.364737 0.213136
O O2 0.157404 0.471061 0.208074
O O3 0.091906 0.365232 0.272007
O O4 0.129181 0.390621 0.000000
O O5 0.760596 0.624403 0.500000
O O6 0.682134 0.682134 0.325405
O O7 0.698043 0.559378 0.308042
O O8 0.955428 0.697639 0.500000
O O9 0.951131 0.752053 0.761024
O O10 0.677735 0.470079 0.500000
O O11 0.621342 0.465774 0.759939
O O12 0.500000 0.500000 0.774534
O O13 0.446348 0.553653 0.000000
#
# Coordination Sequence:
#
# PCOD9569918 Si02
#       5
#    16  16  16  16   8
#     4  10  21  36  56  82 110 143 183 227 275 330
#     4   9  18  34  56  81 108 141 181 224 274 326
#     4  10  21  38  58  81 112 146 182 228 282 334
#     4  10  20  36  58  82 111 145 184 232 278 327
#     4  11  23  37  55  83 117 153 191 229 277 336
#
# _framework density 18.14059
#
# number of rings (size 3 to 8) (size 9 to 14) (size 15 to 20)
#    0.000    2.111    0.000    3.000    0.000    6.222 
#    2.000    2.222    0.000    0.000    0.000    0.000 
#    0.000    0.000    0.000    0.000    0.000    0.000 
#
# Total GULP energy -401773.063457 kJ/mol
# GULP energy per Si atom -5580.181437 kJ/mol
# Density = 1.809930 g / cm^3
# Si number density = 18.140590 Si / 1000 Ang^3
#
#
#
# Elastic Constant Matrix: (Units=GPa)
#
#
# Indices 1 2 3 4 5 6 
#
# 1 41.5308 60.3172 49.7552 0.0000 0.0000 0.0000
# 2 60.3172 41.5304 49.7548 0.0000 0.0000 0.0000
# 3 49.7552 49.7548 50.1112 0.0000 0.0000 0.0000
# 4 0.0000 0.0000 0.0000 30.3539 0.0000 0.0000
# 5 0.0000 0.0000 0.0000 0.0000 30.3537 0.0000
# 6 0.0000 0.0000 0.0000 0.0000 0.0000 11.0755
#
#
#
# Elastic Compliance Matrix: (Units=1/GPa)
#
#
# Indices 1 2 3 4 5 6 
#
# 1 0.137581 0.190813 -0.326059 0.000000 0.000000 0.000000
# 2 0.190813 0.137586 -0.326064 0.000000 0.000000 0.000000
# 3 -0.326059 -0.326064 0.667443 0.000000 0.000000 0.000000
# 4 0.000000 0.000000 0.000000 0.032945 0.000000 0.000000
# 5 0.000000 0.000000 0.000000 0.000000 0.032945 0.000000
# 6 0.000000 0.000000 0.000000 0.000000 0.000000 0.090290
#
#
# Mechanical properties :
#
#
# Convention : Reuss Voigt Hill
#
# Bulk Modulus (GPa) = 50.02803 50.31409 50.17106
# Shear Modulus (GPa) = 2.46539 12.57963 7.52251
#
# Velocity S-wave (km/s) = 1.16705 2.63620 2.03857
# Velocity P-wave (km/s) = 5.42714 6.08785 5.76697
#
# Compressibility (1/GPa) = 0.01998879
#
# Stress axis : x y z
#
# Youngs Moduli (GPa) = 7.26846 7.26818 1.49825
#
# Poissons Ratio (x) = -1.38686 0.48852
# Poissons Ratio (y) = -1.38692 0.48853
# Poissons Ratio (z) = 2.36995 2.36990
#
# Static dielectric constant tensor:
#      x y z
#    x 1.629120 0.000000 0.000000 
#    y 0.000000 1.629110 0.000000 
#    z 0.000000 0.000000 1.622710 
# 
# From -- ./inp_files/1537.got.cif
#   From: 2010.05.17/outbox.ucp.g08.bks.cvg/sg136_1_cif.got.tgz:1537.got - 2010.06.11 11:40:42.
