data_PCOD9569398
_publ_section_title
;
Structure prediction by ZEFSAII (Michael W. Deem and Ramdas Pophale) SiO2 
 PCOD9569398
Probable space group: P 42/M N M
;
_chemical_formula_sum "Si O2"
_cell_formula_units_Z 96
_cell_length_a 14.398314
_cell_length_b 14.398314
_cell_length_c 23.307879
_cell_angle_alpha 90.000000
_cell_angle_beta 90.000000
_cell_angle_gamma 90.000000
_cell_volume 4831.990100
_symmetry_space_group_name_H-M "P 42/M N M"
_symmetry_group_IT_number 136
_symmetry_cell_setting 'tetragonal'
loop_
_space_group_symop_operation_xyz
x,y,z
1/2-y,1/2+x,1/2+z
-x,-y,z
1/2+y,1/2-x,1/2+z
1/2+x,1/2-y,1/2-z
1/2-x,1/2+y,1/2-z
y,x,-z
-y,-x,-z
-x,-y,-z
1/2+y,1/2-x,1/2-z
x,y,-z
1/2-y,1/2+x,1/2-z
1/2-x,1/2+y,1/2+z
1/2+x,1/2-y,1/2+z
-y,-x,z
y,x,z
loop_
_atom_site_type_symbol
_atom_site_label
_atom_site_fract_x
_atom_site_fract_y
_atom_site_fract_z
Si Si1 0.015756 0.776904 0.433417
Si Si2 0.157858 0.691683 0.650731
Si Si3 0.000879 0.252475 0.862428
Si Si4 0.962819 0.192671 0.266446
Si Si5 0.825219 0.672468 0.433282
Si Si6 0.599711 0.400290 0.849064
Si Si7 0.078971 0.078971 0.066757
O O1 0.027679 0.800227 0.500000
O O2 0.932158 0.701316 0.429092
O O3 0.977091 0.861081 0.395680
O O4 0.106654 0.734068 0.404720
O O5 0.256434 0.743567 0.657439
O O6 0.173226 0.582915 0.645184
O O7 0.093953 0.724310 0.703660
O O8 0.040287 0.169990 0.902016
O O9 0.977160 0.211936 0.800114
O O10 0.910386 0.294986 0.892556
O O11 0.900401 0.099599 0.274103
O O12 0.056613 0.172318 0.300766
O O13 0.804870 0.649575 0.500000
O O14 0.765160 0.765160 0.418463
O O15 0.098205 0.098205 0.000000
O O16 0.000000 0.000000 0.070113
#
# Coordination Sequence:
#
# PCOD9569398 Si02
#       7
#    16  16  16  16  16   8   8
#     4  10  21  40  67  94 125 167 211 259 324 386
#     4  10  24  44  58  90 132 165 213 261 311 387
#     4  12  23  41  64  90 126 176 211 254 328 378
#     4  10  22  39  62  90 124 163 219 270 314 375
#     4  10  21  39  64  96 126 158 213 272 316 376
#     4  10  19  36  63  92 121 155 200 278 320 363
#     4  11  23  38  61  95 130 164 215 268 312 377
#
# _framework density 19.867591999999998
#
# number of rings (size 3 to 8) (size 9 to 14) (size 15 to 20)
#    0.000    1.583    1.667    3.000    0.000    7.000 
#    3.000    1.667    0.000    5.000    0.000    0.000 
#    0.000    0.000    0.000    0.000    0.000    0.000 
#
# Total GULP energy -534500.177736 kJ/mol
# GULP energy per Si atom -5567.710185 kJ/mol
# Density = 1.982237 g / cm^3
# Si number density = 19.867592 Si / 1000 Ang^3
#
#
#
# Elastic Constant Matrix: (Units=GPa)
#
#
# Indices 1 2 3 4 5 6 
#
# 1 95.6731 -52.7853 10.5414 0.0000 0.0000 0.0000
# 2 -52.7853 95.6731 10.5414 0.0000 0.0000 0.0000
# 3 10.5414 10.5414 126.8425 0.0000 0.0000 0.0000
# 4 0.0000 0.0000 0.0000 27.8559 0.0000 0.0000
# 5 0.0000 0.0000 0.0000 0.0000 27.8559 0.0000
# 6 0.0000 0.0000 0.0000 0.0000 0.0000 27.3350
#
#
#
# Elastic Compliance Matrix: (Units=1/GPa)
#
#
# Indices 1 2 3 4 5 6 
#
# 1 0.015523 0.008787 -0.002020 0.000000 0.000000 0.000000
# 2 0.008787 0.015523 -0.002020 0.000000 0.000000 0.000000
# 3 -0.002020 -0.002020 0.008220 0.000000 0.000000 0.000000
# 4 0.000000 0.000000 0.000000 0.035899 0.000000 0.000000
# 5 0.000000 0.000000 0.000000 0.000000 0.035899 0.000000
# 6 0.000000 0.000000 0.000000 0.000000 0.000000 0.036583
#
#
# Mechanical properties :
#
#
# Convention : Reuss Voigt Hill
#
# Bulk Modulus (GPa) = 20.50945 28.30928 24.40937
# Shear Modulus (GPa) = 32.38206 39.93543 36.15875
#
# Velocity S-wave (km/s) = 4.04157 4.48825 4.27076
# Velocity P-wave (km/s) = 5.66785 6.41398 6.05243
#
# Compressibility (1/GPa) = 0.04875801
#
# Stress axis : x y z
#
# Youngs Moduli (GPa) = 64.42119 64.42119 121.66054
#
# Poissons Ratio (x) = -0.56607 0.24579
# Poissons Ratio (y) = -0.56607 0.24579
# Poissons Ratio (z) = 0.13015 0.13015
#
# Static dielectric constant tensor:
#      x y z
#    x 1.694820 0.000000 0.000000 
#    y 0.000000 1.694820 0.000000 
#    z 0.000000 0.000000 1.692800 
# 
# From -- ./inp_files/7551.got.cif
#   From: 2010.05.17/outbox.cif.g08.bks.cpg/sg136_4_cif.got.tgz:7551.got - 2010.05.20 12:54:53.
