data_PCOD9569128
_publ_section_title
;
Structure prediction by ZEFSAII (Michael W. Deem and Ramdas Pophale) SiO2 
 PCOD9569128
Probable space group: P 42/M N M
;
_chemical_formula_sum "Si O2"
_cell_formula_units_Z 64
_cell_length_a 20.354521
_cell_length_b 20.354521
_cell_length_c 7.623081
_cell_angle_alpha 90.000000
_cell_angle_beta 90.000000
_cell_angle_gamma 90.000000
_cell_volume 3158.292200
_symmetry_space_group_name_H-M "P 42/M N M"
_symmetry_group_IT_number 136
_symmetry_cell_setting 'tetragonal'
loop_
_space_group_symop_operation_xyz
x,y,z
1/2-y,1/2+x,1/2+z
-x,-y,z
1/2+y,1/2-x,1/2+z
1/2+x,1/2-y,1/2-z
1/2-x,1/2+y,1/2-z
y,x,-z
-y,-x,-z
-x,-y,-z
1/2+y,1/2-x,1/2-z
x,y,-z
1/2-y,1/2+x,1/2-z
1/2-x,1/2+y,1/2+z
1/2+x,1/2-y,1/2+z
-y,-x,z
y,x,z
loop_
_atom_site_type_symbol
_atom_site_label
_atom_site_fract_x
_atom_site_fract_y
_atom_site_fract_z
Si Si1 0.477357 0.098173 0.696725
Si Si2 0.725604 0.832217 0.788759
Si Si3 0.982207 0.740088 0.785484
Si Si4 0.879385 0.226081 0.210719
O O1 0.450009 0.100930 0.500000
O O2 0.434117 0.049502 0.808868
O O3 0.489571 0.169484 0.767116
O O4 0.781904 0.781904 0.725657
O O5 0.656229 0.796631 0.746142
O O6 0.740960 0.906409 0.725242
O O7 0.728404 0.834678 0.000000
O O8 0.044920 0.783904 0.729929
O O9 0.979211 0.742658 0.000000
O O10 0.829302 0.170699 0.279975
O O11 0.880940 0.221029 0.000000
#
# Coordination Sequence:
#
# PCOD9569128 Si02
#       4
#    16  16  16  16
#     4  10  18  27  38  54  81 110 136 165 198 243
#     4   9  17  30  47  65  87 114 144 178 214 254
#     4   9  17  28  43  63  84 109 140 173 212 252
#     4   9  17  30  47  65  87 114 144 178 214 254
#
# _framework density 20.264116000000001
#
# number of rings (size 3 to 8) (size 9 to 14) (size 15 to 20)
#    0.000    2.750    0.000    3.000    0.000    0.000 
#    0.000    3.750    0.000    0.750    0.000    5.250 
#    0.000    0.000    0.000   12.500    0.000   13.000 
#
# Total GULP energy -356367.212033 kJ/mol
# GULP energy per Si atom -5568.237688 kJ/mol
# Density = 2.021799 g / cm^3
# Si number density = 20.264116 Si / 1000 Ang^3
#
#
#
# Elastic Constant Matrix: (Units=GPa)
#
#
# Indices 1 2 3 4 5 6 
#
# 1 109.8530 19.0773 -1.2304 0.0000 0.0000 0.0000
# 2 19.0773 109.8530 -1.2304 0.0000 0.0000 0.0000
# 3 -1.2304 -1.2304 41.4119 0.0000 0.0000 0.0000
# 4 0.0000 0.0000 0.0000 16.9891 0.0000 0.0000
# 5 0.0000 0.0000 0.0000 0.0000 16.9891 0.0000
# 6 0.0000 0.0000 0.0000 0.0000 0.0000 0.1013
#
#
#
# Elastic Compliance Matrix: (Units=1/GPa)
#
#
# Indices 1 2 3 4 5 6 
#
# 1 0.009388 -0.001628 0.000231 0.000000 0.000000 0.000000
# 2 -0.001628 0.009388 0.000231 0.000000 0.000000 0.000000
# 3 0.000231 0.000231 0.024161 0.000000 0.000000 0.000000
# 4 0.000000 0.000000 0.000000 0.058861 0.000000 0.000000
# 5 0.000000 0.000000 0.000000 0.000000 0.058861 0.000000
# 6 0.000000 0.000000 0.000000 0.000000 0.000000 9.868490
#
#
# Mechanical properties :
#
#
# Convention : Reuss Voigt Hill
#
# Bulk Modulus (GPa) = 24.62769 32.70566 28.66668
# Shear Modulus (GPa) = 0.49776 23.11599 11.80687
#
# Velocity S-wave (km/s) = 0.49615 3.38114 2.41643
# Velocity P-wave (km/s) = 3.53666 5.60514 4.68644
#
# Compressibility (1/GPa) = 0.04060470
#
# Stress axis : x y z
#
# Youngs Moduli (GPa) = 106.51496 106.51496 41.38841
#
# Poissons Ratio (x) = 0.17339 -0.00954
# Poissons Ratio (y) = 0.17339 -0.00954
# Poissons Ratio (z) = -0.02456 -0.02456
#
# Static dielectric constant tensor:
#      x y z
#    x 1.769870 0.000000 0.000000 
#    y 0.000000 1.769870 0.000000 
#    z 0.000000 0.000000 1.723620 
# 
# From -- ./inp_files/1397.got.cif
#   From: 2010.05.17/outbox.cif.g08.bks.cpg/sg136_1_cif.got.tgz:1397.got - 2010.05.20 12:54:53.
