data_PCOD9569117
_publ_section_title
;
Structure prediction by ZEFSAII (Michael W. Deem and Ramdas Pophale) SiO2 
 PCOD9569117
Probable space group: P 42/M N M
;
_chemical_formula_sum "Si O2"
_cell_formula_units_Z 52
_cell_length_a 15.015411
_cell_length_b 15.015411
_cell_length_c 10.606878
_cell_angle_alpha 90.000000
_cell_angle_beta 90.000000
_cell_angle_gamma 90.000000
_cell_volume 2391.453947
_symmetry_space_group_name_H-M "P 42/M N M"
_symmetry_group_IT_number 136
_symmetry_cell_setting 'tetragonal'
loop_
_space_group_symop_operation_xyz
x,y,z
1/2-y,1/2+x,1/2+z
-x,-y,z
1/2+y,1/2-x,1/2+z
1/2+x,1/2-y,1/2-z
1/2-x,1/2+y,1/2-z
y,x,-z
-y,-x,-z
-x,-y,-z
1/2+y,1/2-x,1/2-z
x,y,-z
1/2-y,1/2+x,1/2-z
1/2-x,1/2+y,1/2+z
1/2+x,1/2-y,1/2+z
-y,-x,z
y,x,z
loop_
_atom_site_type_symbol
_atom_site_label
_atom_site_fract_x
_atom_site_fract_y
_atom_site_fract_z
Si Si1 0.425317 0.425317 0.232118
Si Si2 0.210932 0.073323 0.000000
Si Si3 0.596486 0.596486 0.500000
Si Si4 0.741749 0.998853 0.729171
Si Si5 0.172325 0.679724 0.143250
O O1 0.500000 0.500000 0.261017
O O2 0.379517 0.379517 0.356892
O O3 0.476491 0.340490 0.177007
O O4 0.128500 0.004241 0.000000
O O5 0.255010 0.049808 0.132987
O O6 0.172343 0.172343 0.000000
O O7 0.694856 0.092664 0.757979
O O8 0.696864 0.924222 0.644716
O O9 0.259884 0.740117 0.170756
O O10 0.142742 0.705208 0.000000
#
# Coordination Sequence:
#
# PCOD9569117 Si02
#       5
#     8   8   4  16  16
#     4  10  17  30  59  94 123 154 208 274 323 370
#     4  10  17  30  58  95 121 151 206 272 325 369
#     4   8  13  20  44  86 118 132 176 261 322 357
#     4  11  21  39  63  95 128 170 217 264 329 391
#     4  11  24  44  67  95 133 174 218 269 331 392
#
# _framework density 21.744094
#
# number of rings (size 3 to 8) (size 9 to 14) (size 15 to 20)
#    0.000    1.538    3.077    6.000    0.000    0.615 
#    2.769    2.308    0.000    2.769    0.000    0.000 
#    0.000    0.000    0.000    0.000    0.000    0.000 
#
# Total GULP energy -289525.351760 kJ/mol
# GULP energy per Si atom -5567.795226 kJ/mol
# Density = 2.169460 g / cm^3
# Si number density = 21.744094 Si / 1000 Ang^3
#
#
#
# Elastic Constant Matrix: (Units=GPa)
#
#
# Indices 1 2 3 4 5 6 
#
# 1 105.4516 57.1071 9.1852 0.0000 0.0000 0.0000
# 2 57.1071 105.4516 9.1852 0.0000 0.0000 0.0000
# 3 9.1852 9.1852 42.8348 0.0000 0.0000 0.0000
# 4 0.0000 0.0000 0.0000 23.0053 0.0000 0.0000
# 5 0.0000 0.0000 0.0000 0.0000 23.0053 0.0000
# 6 0.0000 0.0000 0.0000 0.0000 0.0000 41.7668
#
#
#
# Elastic Compliance Matrix: (Units=1/GPa)
#
#
# Indices 1 2 3 4 5 6 
#
# 1 0.013495 -0.007190 -0.001352 0.000000 0.000000 0.000000
# 2 -0.007190 0.013495 -0.001352 0.000000 0.000000 0.000000
# 3 -0.001352 -0.001352 0.023925 0.000000 0.000000 0.000000
# 4 0.000000 0.000000 0.000000 0.043468 0.000000 0.000000
# 5 0.000000 0.000000 0.000000 0.000000 0.043468 0.000000
# 6 0.000000 0.000000 0.000000 0.000000 0.000000 0.023942
#
#
# Mechanical properties :
#
#
# Convention : Reuss Voigt Hill
#
# Bulk Modulus (GPa) = 32.12689 44.96590 38.54639
# Shear Modulus (GPa) = 26.04749 29.43950 27.74349
#
# Velocity S-wave (km/s) = 3.46484 3.68354 3.57586
# Velocity P-wave (km/s) = 5.55103 6.23023 5.90041
#
# Compressibility (1/GPa) = 0.03112658
#
# Stress axis : x y z
#
# Youngs Moduli (GPa) = 74.10354 74.10354 41.79679
#
# Poissons Ratio (x) = 0.53282 0.05650
# Poissons Ratio (y) = 0.53282 0.05650
# Poissons Ratio (z) = 0.10018 0.10018
#
# Static dielectric constant tensor:
#      x y z
#    x 1.812640 0.000000 0.000000 
#    y 0.000000 1.812640 0.000000 
#    z 0.000000 0.000000 1.860010 
# 
# From -- ./inp_files/3112.got.cif
#   From: 2010.05.17/outbox.cif.g08.bks.cpg/sg136_2_cif.got.tgz:3112.got - 2010.05.20 12:54:53.
