data_PCOD9569180
_publ_section_title
;
Structure prediction by ZEFSAII (Michael W. Deem and Ramdas Pophale) SiO2 
 PCOD9569180
Probable space group: P 42/M N M
;
_chemical_formula_sum "Si O2"
_cell_formula_units_Z 52
_cell_length_a 17.507776
_cell_length_b 17.507776
_cell_length_c 7.700190
_cell_angle_alpha 90.000000
_cell_angle_beta 90.000000
_cell_angle_gamma 90.000000
_cell_volume 2360.279337
_symmetry_space_group_name_H-M "P 42/M N M"
_symmetry_group_IT_number 136
_symmetry_cell_setting 'tetragonal'
loop_
_space_group_symop_operation_xyz
x,y,z
1/2-y,1/2+x,1/2+z
-x,-y,z
1/2+y,1/2-x,1/2+z
1/2+x,1/2-y,1/2-z
1/2-x,1/2+y,1/2-z
y,x,-z
-y,-x,-z
-x,-y,-z
1/2+y,1/2-x,1/2-z
x,y,-z
1/2-y,1/2+x,1/2-z
1/2-x,1/2+y,1/2+z
1/2+x,1/2-y,1/2+z
-y,-x,z
y,x,z
loop_
_atom_site_type_symbol
_atom_site_label
_atom_site_fract_x
_atom_site_fract_y
_atom_site_fract_z
Si Si1 0.379125 0.620876 0.288986
Si Si2 0.000000 0.000000 0.745024
Si Si3 0.712590 0.074335 0.203991
Si Si4 0.908294 0.701131 0.791350
Si Si5 0.373314 0.373314 0.301151
O O1 0.391653 0.608348 0.500000
O O2 0.436303 0.563698 0.190687
O O3 0.290453 0.604912 0.251400
O O4 0.062130 0.937871 0.811539
O O5 0.655075 0.144266 0.219636
O O6 0.795276 0.095766 0.280638
O O7 0.681658 0.993669 0.272568
O O8 0.725603 0.058260 0.000000
O O9 0.902213 0.693426 0.000000
O O10 0.352769 0.352769 0.500000
#
# Coordination Sequence:
#
# PCOD9569180 Si02
#       5
#     8   4  16  16   8
#     4  10  18  31  54  85 114 138 171 221 278 327
#     4  12  17  28  60  92 113 134 169 228 281 318
#     4  10  21  36  55  81 110 142 182 223 267 320
#     4  10  21  36  55  81 110 142 182 223 267 320
#     4  10  18  31  54  85 114 138 171 221 278 327
#
# _framework density 22.031289999999998
#
# number of rings (size 3 to 8) (size 9 to 14) (size 15 to 20)
#    0.000    1.846    3.077    2.308    0.000    1.846 
#    0.000    3.077    0.000    0.000    0.000    4.308 
#    0.000    0.000    0.000    0.000    0.000    0.000 
#
# Total GULP energy -289787.010814 kJ/mol
# GULP energy per Si atom -5572.827131 kJ/mol
# Density = 2.198115 g / cm^3
# Si number density = 22.031290 Si / 1000 Ang^3
#
#
#
# Elastic Constant Matrix: (Units=GPa)
#
#
# Indices 1 2 3 4 5 6 
#
# 1 113.8711 63.4234 -0.5769 0.0000 0.0000 0.0000
# 2 63.4234 113.8721 -0.5772 0.0000 0.0000 0.0000
# 3 -0.5769 -0.5772 34.1631 0.0000 0.0000 0.0000
# 4 0.0000 0.0000 0.0000 -18.3348 0.0000 0.0000
# 5 0.0000 0.0000 0.0000 0.0000 -18.3332 0.0000
# 6 0.0000 0.0000 0.0000 0.0000 0.0000 45.2597
#
#
#
# Elastic Compliance Matrix: (Units=1/GPa)
#
#
# Indices 1 2 3 4 5 6 
#
# 1 0.012732 -0.007091 0.000095 0.000000 0.000000 0.000000
# 2 -0.007091 0.012732 0.000095 0.000000 0.000000 0.000000
# 3 0.000095 0.000095 0.029275 0.000000 0.000000 0.000000
# 4 0.000000 0.000000 0.000000 -0.054541 0.000000 0.000000
# 5 0.000000 0.000000 0.000000 0.000000 -0.054546 0.000000
# 6 0.000000 0.000000 0.000000 0.000000 0.000000 0.022095
#
#
# Mechanical properties :
#
#
# Convention : Reuss Voigt Hill
#
# Bulk Modulus (GPa) = 24.42743 42.93832 33.68287
# Shear Modulus (GPa) = -1039.84867 15.02748 -512.41060
#
# Velocity S-wave (km/s) = -21.74884 2.61453 -15.26722
# Velocity P-wave (km/s) = 24.89118 5.35223 17.18901
#
# Compressibility (1/GPa) = 0.04093759
#
# Stress axis : x y z
#
# Youngs Moduli (GPa) = 78.54427 78.54496 34.15930
#
# Poissons Ratio (x) = 0.55694 -0.00325
# Poissons Ratio (y) = 0.55693 -0.00326
# Poissons Ratio (z) = -0.00748 -0.00749
#
# Static dielectric constant tensor:
#      x y z
#    x 1.785680 0.000000 0.000000 
#    y 0.000000 1.785680 0.000000 
#    z 0.000000 0.000000 1.906180 
# 
# From -- ./inp_files/3129.got.cif
#   From: 2010.05.17/outbox.cif.g08.bks.cpg/sg136_2_cif.got.tgz:3129.got - 2010.05.20 12:54:53.
