data_PCOD9569282
_publ_section_title
;
Structure prediction by ZEFSAII (Michael W. Deem and Ramdas Pophale) SiO2 
 PCOD9569282
Probable space group: P 42/M N M
;
_chemical_formula_sum "Si O2"
_cell_formula_units_Z 72
_cell_length_a 23.916263
_cell_length_b 23.916263
_cell_length_c 8.066066
_cell_angle_alpha 90.000000
_cell_angle_beta 90.000000
_cell_angle_gamma 90.000000
_cell_volume 4613.690022
_symmetry_space_group_name_H-M "P 42/M N M"
_symmetry_group_IT_number 136
_symmetry_cell_setting 'tetragonal'
loop_
_space_group_symop_operation_xyz
x,y,z
1/2-y,1/2+x,1/2+z
-x,-y,z
1/2+y,1/2-x,1/2+z
1/2+x,1/2-y,1/2-z
1/2-x,1/2+y,1/2-z
y,x,-z
-y,-x,-z
-x,-y,-z
1/2+y,1/2-x,1/2-z
x,y,-z
1/2-y,1/2+x,1/2-z
1/2-x,1/2+y,1/2+z
1/2+x,1/2-y,1/2+z
-y,-x,z
y,x,z
loop_
_atom_site_type_symbol
_atom_site_label
_atom_site_fract_x
_atom_site_fract_y
_atom_site_fract_z
Si Si1 0.497565 0.408399 0.500000
Si Si2 0.617144 0.710413 0.298168
Si Si3 0.208864 0.116269 0.805759
Si Si4 0.700573 0.203739 0.190957
Si Si5 0.998689 0.828392 0.314327
O O1 0.437040 0.437040 0.500000
O O2 0.544257 0.455744 0.500000
O O3 0.503761 0.373291 0.332955
O O4 0.612644 0.710839 0.500000
O O5 0.657763 0.657763 0.255781
O O6 0.648753 0.767478 0.246583
O O7 0.556451 0.704096 0.219142
O O8 0.158578 0.158578 0.751831
O O9 0.266700 0.149794 0.783739
O O10 0.206592 0.058334 0.708141
O O11 0.200116 0.104701 0.000000
O O12 0.749823 0.250178 0.190927
O O13 0.683888 0.194707 0.000000
O O14 0.999957 0.852142 0.500000
#
# Coordination Sequence:
#
# PCOD9569282 Si02
#       5
#     8  16  16  16  16
#     4  11  24  40  52  66  94 130 174 221 256 290
#     4   9  17  32  51  70  98 130 160 201 253 300
#     4  10  19  32  49  69  97 129 162 204 253 299
#     4   8  15  28  48  72  95 122 155 196 247 304
#     4  12  23  34  52  73  96 131 171 212 254 298
#
# _framework density 15.605731
#
# number of rings (size 3 to 8) (size 9 to 14) (size 15 to 20)
#    0.000    2.111    2.222    3.333    0.000    5.333 
#    0.000    3.333    0.000    0.000    0.000    0.000 
#    0.000    0.889    0.000    9.333    0.000    4.000 
#
# Total GULP energy -401350.598754 kJ/mol
# GULP energy per Si atom -5574.313872 kJ/mol
# Density = 1.557021 g / cm^3
# Si number density = 15.605731 Si / 1000 Ang^3
#
#
#
# Elastic Constant Matrix: (Units=GPa)
#
#
# Indices 1 2 3 4 5 6 
#
# 1 78.8033 48.5240 31.5788 0.0000 0.0000 0.0000
# 2 48.5240 78.8035 31.5788 0.0000 0.0000 0.0000
# 3 31.5788 31.5788 77.7521 0.0000 0.0000 0.0000
# 4 0.0000 0.0000 0.0000 14.5147 0.0000 0.0000
# 5 0.0000 0.0000 0.0000 0.0000 14.5139 0.0000
# 6 0.0000 0.0000 0.0000 0.0000 0.0000 21.7035
#
#
#
# Elastic Compliance Matrix: (Units=1/GPa)
#
#
# Indices 1 2 3 4 5 6 
#
# 1 0.021430 -0.011595 -0.003995 0.000000 0.000000 0.000000
# 2 -0.011595 0.021430 -0.003995 0.000000 0.000000 0.000000
# 3 -0.003995 -0.003995 0.016106 0.000000 0.000000 0.000000
# 4 0.000000 0.000000 0.000000 0.068896 0.000000 0.000000
# 5 0.000000 0.000000 0.000000 0.000000 0.068900 0.000000
# 6 0.000000 0.000000 0.000000 0.000000 0.000000 0.046076
#
#
# Mechanical properties :
#
#
# Convention : Reuss Voigt Hill
#
# Bulk Modulus (GPa) = 50.50928 50.96911 50.73919
# Shear Modulus (GPa) = 17.32468 18.39158 17.85813
#
# Velocity S-wave (km/s) = 3.33550 3.43667 3.38647
# Velocity P-wave (km/s) = 6.87533 6.96269 6.91915
#
# Compressibility (1/GPa) = 0.01979834
#
# Stress axis : x y z
#
# Youngs Moduli (GPa) = 46.66251 46.66262 62.08829
#
# Poissons Ratio (x) = 0.54107 0.24801
# Poissons Ratio (y) = 0.54107 0.24801
# Poissons Ratio (z) = 0.18639 0.18639
#
# Static dielectric constant tensor:
#      x y z
#    x 1.528570 0.000000 0.000000 
#    y 0.000000 1.528570 0.000000 
#    z 0.000000 0.000000 1.549520 
# 
# From -- ./inp_files/1709.got.cif
#   From: 2010.05.17/outbox.cif.g08.bks.cpg/sg136_1_cif.got.tgz:1709.got - 2010.05.20 12:54:53.
