data_PCOD9569293
_publ_section_title
;
Structure prediction by ZEFSAII (Michael W. Deem and Ramdas Pophale) SiO2 
 PCOD9569293
Probable space group: P 42/M N M
;
_chemical_formula_sum "Si O2"
_cell_formula_units_Z 96
_cell_length_a 25.312904
_cell_length_b 25.312904
_cell_length_c 8.853463
_cell_angle_alpha 90.000000
_cell_angle_beta 90.000000
_cell_angle_gamma 90.000000
_cell_volume 5672.795407
_symmetry_space_group_name_H-M "P 42/M N M"
_symmetry_group_IT_number 136
_symmetry_cell_setting 'tetragonal'
loop_
_space_group_symop_operation_xyz
x,y,z
1/2-y,1/2+x,1/2+z
-x,-y,z
1/2+y,1/2-x,1/2+z
1/2+x,1/2-y,1/2-z
1/2-x,1/2+y,1/2-z
y,x,-z
-y,-x,-z
-x,-y,-z
1/2+y,1/2-x,1/2-z
x,y,-z
1/2-y,1/2+x,1/2-z
1/2-x,1/2+y,1/2+z
1/2+x,1/2-y,1/2+z
-y,-x,z
y,x,z
loop_
_atom_site_type_symbol
_atom_site_label
_atom_site_fract_x
_atom_site_fract_y
_atom_site_fract_z
Si Si1 0.581403 0.418598 0.818522
Si Si2 0.835863 0.835863 0.179757
Si Si3 0.877383 0.035853 0.318190
Si Si4 0.232281 0.988827 0.819397
Si Si5 0.415192 0.867766 0.320691
Si Si6 0.462221 0.149041 0.679776
Si Si7 0.243212 0.602496 0.820393
O O1 0.621198 0.378803 0.736901
O O2 0.521043 0.403610 0.781072
O O3 0.587790 0.412211 0.000000
O O4 0.853715 0.779992 0.245785
O O5 0.835172 0.835172 0.000000
O O6 0.870659 0.037112 0.500000
O O7 0.917329 0.082672 0.275447
O O8 0.820377 0.038969 0.240157
O O9 0.288163 0.960471 0.785602
O O10 0.235994 0.046019 0.740685
O O11 0.229769 0.996296 0.000000
O O12 0.410252 0.858926 0.500000
O O13 0.384625 0.919781 0.270031
O O14 0.477932 0.869667 0.286983
O O15 0.393075 0.817029 0.232951
O O16 0.453335 0.142686 0.500000
O O17 0.247594 0.603796 0.000000
#
# Coordination Sequence:
#
# PCOD9569293 Si02
#       7
#     8   8  16  16  16  16  16
#     4  10  19  32  50  76 109 145 182 226 282 332
#     4  12  22  33  53  81 111 141 182 234 278 326
#     4  10  20  33  51  76 108 146 187 231 278 331
#     4  10  20  35  54  78 108 143 183 228 271 320
#     4  10  21  37  58  86 115 145 182 225 269 322
#     4   9  20  37  56  81 113 145 179 220 274 332
#     4  11  21  35  56  80 108 143 181 222 275 330
#
# _framework density 16.922874
#
# number of rings (size 3 to 8) (size 9 to 14) (size 15 to 20)
#    0.000    1.833    1.667    4.500    0.000    5.667 
#    0.000    1.667    1.833    1.500    0.000    0.000 
#    0.000    0.000    0.000    0.000    0.000    0.000 
#
# Total GULP energy -536055.123556 kJ/mol
# GULP energy per Si atom -5583.907537 kJ/mol
# Density = 1.688436 g / cm^3
# Si number density = 16.922874 Si / 1000 Ang^3
#
#
#
# Elastic Constant Matrix: (Units=GPa)
#
#
# Indices 1 2 3 4 5 6 
#
# 1 95.2554 70.6868 55.0669 0.0000 0.0000 0.0000
# 2 70.6868 95.2554 55.0664 0.0000 0.0000 0.0000
# 3 55.0669 55.0664 80.1560 0.0000 0.0000 0.0000
# 4 0.0000 0.0000 0.0000 18.9984 0.0000 0.0000
# 5 0.0000 0.0000 0.0000 0.0000 18.9985 0.0000
# 6 0.0000 0.0000 0.0000 0.0000 0.0000 27.9128
#
#
#
# Elastic Compliance Matrix: (Units=1/GPa)
#
#
# Indices 1 2 3 4 5 6 
#
# 1 0.025890 -0.014813 -0.007610 0.000000 0.000000 0.000000
# 2 -0.014813 0.025889 -0.007609 0.000000 0.000000 0.000000
# 3 -0.007610 -0.007609 0.022931 0.000000 0.000000 0.000000
# 4 0.000000 0.000000 0.000000 0.052636 0.000000 0.000000
# 5 0.000000 0.000000 0.000000 0.000000 0.052636 0.000000
# 6 0.000000 0.000000 0.000000 0.000000 0.000000 0.035826
#
#
# Mechanical properties :
#
#
# Convention : Reuss Voigt Hill
#
# Bulk Modulus (GPa) = 68.27769 70.25632 69.26701
# Shear Modulus (GPa) = 17.80923 19.17172 18.49048
#
# Velocity S-wave (km/s) = 3.24755 3.36949 3.30908
# Velocity P-wave (km/s) = 7.38215 7.53284 7.45788
#
# Compressibility (1/GPa) = 0.01464607
#
# Stress axis : x y z
#
# Youngs Moduli (GPa) = 38.62555 38.62597 43.60914
#
# Poissons Ratio (x) = 0.57217 0.33185
# Poissons Ratio (y) = 0.57216 0.33183
# Poissons Ratio (z) = 0.29393 0.29391
#
# Static dielectric constant tensor:
#      x y z
#    x 1.560760 0.000000 0.000000 
#    y 0.000000 1.560760 0.000000 
#    z 0.000000 0.000000 1.561990 
# 
# From -- ./inp_files/2081.got.cif
#   From: 2010.05.17/outbox.cif.g08.bks.cpg/sg136_2_cif.got.tgz:2081.got - 2010.05.20 12:54:53.
