data_PCOD9569231
_publ_section_title
;
Structure prediction by ZEFSAII (Michael W. Deem and Ramdas Pophale) SiO2 
 PCOD9569231
Probable space group: P 42/M N M
;
_chemical_formula_sum "Si O2"
_cell_formula_units_Z 96
_cell_length_a 24.623360
_cell_length_b 24.623360
_cell_length_c 7.427586
_cell_angle_alpha 90.000000
_cell_angle_beta 90.000000
_cell_angle_gamma 90.000000
_cell_volume 4503.418611
_symmetry_space_group_name_H-M "P 42/M N M"
_symmetry_group_IT_number 136
_symmetry_cell_setting 'tetragonal'
loop_
_space_group_symop_operation_xyz
x,y,z
1/2-y,1/2+x,1/2+z
-x,-y,z
1/2+y,1/2-x,1/2+z
1/2+x,1/2-y,1/2-z
1/2-x,1/2+y,1/2-z
y,x,-z
-y,-x,-z
-x,-y,-z
1/2+y,1/2-x,1/2-z
x,y,-z
1/2-y,1/2+x,1/2-z
1/2-x,1/2+y,1/2+z
1/2+x,1/2-y,1/2+z
-y,-x,z
y,x,z
loop_
_atom_site_type_symbol
_atom_site_label
_atom_site_fract_x
_atom_site_fract_y
_atom_site_fract_z
Si Si1 0.775924 0.690001 0.780221
Si Si2 0.982320 0.414434 0.705910
Si Si3 0.789364 0.987087 0.218284
Si Si4 0.721433 0.364490 0.281031
Si Si5 0.087482 0.000220 0.780680
Si Si6 0.071051 0.694718 0.710092
O O1 0.720896 0.720896 0.722314
O O2 0.826111 0.728702 0.727629
O O3 0.786590 0.629210 0.715302
O O4 0.774172 0.689271 0.000000
O O5 0.938560 0.463295 0.706829
O O6 0.997964 0.402874 0.500000
O O7 0.956348 0.359941 0.786366
O O8 0.775467 0.926155 0.279434
O O9 0.850473 0.000790 0.278654
O O10 0.744379 0.029580 0.277848
O O11 0.789352 0.987329 0.000000
O O12 0.721245 0.365312 0.500000
O O13 0.666342 0.333659 0.225911
O O14 0.054072 0.054072 0.726216
O O15 0.087939 0.000503 0.000000
O O16 0.051353 0.948648 0.724772
O O17 0.081235 0.681647 0.500000
#
# Coordination Sequence:
#
# PCOD9569231 Si02
#       6
#    16  16  16  16  16  16
#     4   8  15  30  50  69  92 126 165 203 243 286
#     4  10  21  37  57  78 103 133 169 211 257 308
#     4  10  19  29  48  76 101 128 166 209 248 292
#     4   8  14  26  48  75  95 116 158 212 249 276
#     4   8  14  26  45  71 104 137 168 208 257 302
#     4  10  22  35  49  74 105 136 166 203 252 305
#
# _framework density 21.317139999999998
#
# number of rings (size 3 to 8) (size 9 to 14) (size 15 to 20)
#    0.000    3.000    0.000    3.000    2.333    4.000 
#    0.000    0.000    0.000    2.000    0.000    3.500 
#    0.000    0.000    0.000    0.000    0.000    0.000 
#
# Total GULP energy -535838.079600 kJ/mol
# GULP energy per Si atom -5581.646663 kJ/mol
# Density = 2.126862 g / cm^3
# Si number density = 21.317140 Si / 1000 Ang^3
#
#
#
# Elastic Constant Matrix: (Units=GPa)
#
#
# Indices 1 2 3 4 5 6 
#
# 1 125.1546 141.9777 -9.0562 0.0000 0.0000 0.0000
# 2 141.9777 125.1546 -9.0562 0.0000 0.0000 0.0000
# 3 -9.0562 -9.0562 63.4722 0.0000 0.0000 0.0000
# 4 0.0000 0.0000 0.0000 6.5577 0.0000 0.0000
# 5 0.0000 0.0000 0.0000 0.0000 6.5577 0.0000
# 6 0.0000 0.0000 0.0000 0.0000 0.0000 18.3587
#
#
#
# Elastic Compliance Matrix: (Units=1/GPa)
#
#
# Indices 1 2 3 4 5 6 
#
# 1 -0.027831 0.031611 0.000539 0.000000 0.000000 0.000000
# 2 0.031611 -0.027831 0.000539 0.000000 0.000000 0.000000
# 3 0.000539 0.000539 0.015909 0.000000 0.000000 0.000000
# 4 0.000000 0.000000 0.000000 0.152492 0.000000 0.000000
# 5 0.000000 0.000000 0.000000 0.000000 0.152492 0.000000
# 6 0.000000 0.000000 0.000000 0.000000 0.000000 0.054470
#
#
# Mechanical properties :
#
#
# Convention : Reuss Voigt Hill
#
# Bulk Modulus (GPa) = 39.02250 62.39020 50.70635
# Shear Modulus (GPa) = 19.02126 18.95590 18.98858
#
# Velocity S-wave (km/s) = 2.99038 2.98524 2.98781
# Velocity P-wave (km/s) = 5.50169 6.41976 5.97837
#
# Compressibility (1/GPa) = 0.02562624
#
# Stress axis : x y z
#
# Youngs Moduli (GPa) = -35.93122 -35.93122 62.85817
#
# Poissons Ratio (x) = 1.13582 -0.03390
# Poissons Ratio (y) = 1.13582 -0.03390
# Poissons Ratio (z) = 0.01938 0.01938
#
# Static dielectric constant tensor:
#      x y z
#    x 1.735370 0.000000 0.000000 
#    y 0.000000 1.735370 0.000000 
#    z 0.000000 0.000000 1.826960 
# 
# From -- ./inp_files/1919.got.cif
#   From: 2010.05.17/outbox.cif.g08.bks.cpg/sg136_1_cif.got.tgz:1919.got - 2010.05.20 12:54:53.
