data_PCOD9569883
_publ_section_title
;
Structure prediction by ZEFSAII (Michael W. Deem and Ramdas Pophale) SiO2 
 PCOD9569883
Probable space group: P 42/M N M
;
_chemical_formula_sum "Si O2"
_cell_formula_units_Z 64
_cell_length_a 9.302066
_cell_length_b 9.302066
_cell_length_c 26.131623
_cell_angle_alpha 90.000000
_cell_angle_beta 90.000000
_cell_angle_gamma 90.000000
_cell_volume 2261.128360
_symmetry_space_group_name_H-M "P 42/M N M"
_symmetry_group_IT_number 136
_symmetry_cell_setting 'tetragonal'
loop_
_space_group_symop_operation_xyz
x,y,z
1/2-y,1/2+x,1/2+z
-x,-y,z
1/2+y,1/2-x,1/2+z
1/2+x,1/2-y,1/2-z
1/2-x,1/2+y,1/2-z
y,x,-z
-y,-x,-z
-x,-y,-z
1/2+y,1/2-x,1/2-z
x,y,-z
1/2-y,1/2+x,1/2-z
1/2-x,1/2+y,1/2+z
1/2+x,1/2-y,1/2+z
-y,-x,z
y,x,z
loop_
_atom_site_type_symbol
_atom_site_label
_atom_site_fract_x
_atom_site_fract_y
_atom_site_fract_z
Si Si1 0.997374 0.760257 0.833766
Si Si2 0.438631 0.807570 0.555243
Si Si3 0.991453 0.761284 0.606890
Si Si4 0.744659 0.501968 0.221478
O O1 0.845924 0.845924 0.836019
O O2 0.019805 0.699685 0.890706
O O3 0.997737 0.684401 0.778054
O O4 0.119591 0.880410 0.828547
O O5 0.511619 0.803936 0.500000
O O6 0.329303 0.670698 0.555157
O O7 0.341589 0.949443 0.562963
O O8 0.842743 0.842743 0.597986
O O9 0.996906 0.691866 0.664042
O O10 0.111704 0.888297 0.609550
O O11 0.634336 0.365665 0.221216
O O12 0.642128 0.642128 0.221919
#
# Coordination Sequence:
#
# PCOD9569883 Si02
#       4
#    16  16  16  16
#     4   8  13  21  32  45  64  95 136 178 219 266
#     4   9  16  22  28  44  72 105 139 174 215 263
#     4   8  13  21  32  45  64  95 136 178 219 266
#     4   7  10  18  32  46  58  81 124 172 216 261
#
# _framework density 28.304455000000001
#
# number of rings (size 3 to 8) (size 9 to 14) (size 15 to 20)
#    0.000    4.000    0.000    3.000    0.000    1.000 
#    0.000    5.000    0.000    0.000    0.000    0.000 
#    0.000    1.000    0.000    4.750    0.000   61.000 
#
# Total GULP energy -358154.097216 kJ/mol
# GULP energy per Si atom -5596.157769 kJ/mol
# Density = 2.824003 g / cm^3
# Si number density = 28.304455 Si / 1000 Ang^3
#
#
#
# Elastic Constant Matrix: (Units=GPa)
#
#
# Indices 1 2 3 4 5 6 
#
# 1 63.1069 20.4554 45.9916 0.0000 0.0000 0.0000
# 2 20.4554 63.1069 45.9916 0.0000 0.0000 0.0000
# 3 45.9916 45.9916 277.5894 0.0000 0.0000 0.0000
# 4 0.0000 0.0000 0.0000 33.2490 0.0000 0.0000
# 5 0.0000 0.0000 0.0000 0.0000 33.2490 0.0000
# 6 0.0000 0.0000 0.0000 0.0000 0.0000 42.5580
#
#
#
# Elastic Compliance Matrix: (Units=1/GPa)
#
#
# Indices 1 2 3 4 5 6 
#
# 1 0.019041 -0.004405 -0.002425 0.000000 0.000000 0.000000
# 2 -0.004405 0.019041 -0.002425 0.000000 0.000000 0.000000
# 3 -0.002425 -0.002425 0.004406 0.000000 0.000000 0.000000
# 4 0.000000 0.000000 0.000000 0.030076 0.000000 0.000000
# 5 0.000000 0.000000 0.000000 0.000000 0.030076 0.000000
# 6 0.000000 0.000000 0.000000 0.000000 0.000000 0.023497
#
#
# Mechanical properties :
#
#
# Convention : Reuss Voigt Hill
#
# Bulk Modulus (GPa) = 41.70317 69.85338 55.77827
# Shear Modulus (GPa) = 32.75677 41.23551 36.99614
#
# Velocity S-wave (km/s) = 3.40560 3.82102 3.61928
# Velocity P-wave (km/s) = 5.49818 6.64829 6.10040
#
# Compressibility (1/GPa) = 0.02397899
#
# Stress axis : x y z
#
# Youngs Moduli (GPa) = 52.51776 52.51776 226.96299
#
# Poissons Ratio (x) = 0.23132 0.55039
# Poissons Ratio (y) = 0.23132 0.55039
# Poissons Ratio (z) = 0.12736 0.12736
#
# Static dielectric constant tensor:
#      x y z
#    x 2.260950 0.000000 0.000000 
#    y 0.000000 2.260950 0.000000 
#    z 0.000000 0.000000 2.072480 
# 
# From -- ./inp_files/8122.got.cif
#   From: 2010.05.17/outbox.cif.g08.bks.cpg/sg136_5_cif.got.tgz:8122.got - 2010.05.20 12:54:53.
