data_PCOD9569940
_publ_section_title
;
Structure prediction by ZEFSAII (Michael W. Deem and Ramdas Pophale) SiO2 
 PCOD9569940
Probable space group: P 42/N M C
;
_chemical_formula_sum "Si O2"
_cell_formula_units_Z 112
_cell_length_a 19.021101
_cell_length_b 19.021101
_cell_length_c 19.922803
_cell_angle_alpha 90.000000
_cell_angle_beta 90.000000
_cell_angle_gamma 90.000000
_cell_volume 7208.115614
_symmetry_space_group_name_H-M "P 42/N M C"
_symmetry_group_IT_number 137
_space_group.IT_coordinate_system_code '2'
_symmetry_cell_setting 'tetragonal'
loop_
_space_group_symop_operation_xyz
x,y,z
1/2-y,x,1/2+z
1/2-x,1/2-y,z
y,1/2-x,1/2+z
1/2+x,-y,-z
-x,1/2+y,-z
1/2+y,1/2+x,1/2-z
-y,-x,1/2-z
-x,-y,-z
1/2+y,-x,1/2-z
1/2+x,1/2+y,-z
-y,1/2+x,1/2-z
1/2-x,y,z
x,1/2-y,z
1/2-y,1/2-x,1/2+z
y,x,1/2+z
loop_
_atom_site_type_symbol
_atom_site_label
_atom_site_fract_x
_atom_site_fract_y
_atom_site_fract_z
Si Si1 0.946711 0.565168 0.761051
Si Si2 0.466865 0.331259 0.006540
Si Si3 0.073569 0.035393 0.095518
Si Si4 0.978944 0.170068 0.477935
Si Si5 0.069634 0.669074 0.792540
Si Si6 0.565134 0.935318 0.609558
Si Si7 0.878213 0.327805 0.053898
O O1 0.902843 0.546476 0.827484
O O2 0.914893 0.574024 0.687325
O O3 0.001506 0.501506 0.750000
O O4 0.995351 0.631382 0.780674
O O5 0.443700 0.250000 0.016762
O O6 0.443249 0.388479 0.062481
O O7 0.551381 0.330426 0.009238
O O8 0.443107 0.366666 0.937097
O O9 0.003152 0.986517 0.098106
O O10 0.128027 0.998179 0.045721
O O11 0.002495 0.250000 0.482360
O O12 0.895753 0.166360 0.464025
O O13 0.018838 0.129282 0.418109
O O14 0.126466 0.626466 0.750000
O O15 0.066806 0.750000 0.772291
O O16 0.093271 0.665421 0.869920
O O17 0.845601 0.250000 0.047207
#
# Coordination Sequence:
#
# PCOD9569940 Si02
#       7
#    16  16  16  16  16  16  16
#     4   9  17  28  47  68  89 119 158 206 246 282
#     4  10  17  29  50  71  92 123 163 201 236 280
#     4  10  17  33  50  70  95 124 162 204 249 289
#     4  11  20  31  48  72 103 133 161 201 247 289
#     4  10  19  29  42  66  99 135 166 195 233 287
#     4  10  18  32  50  71  94 126 161 204 247 291
#     4  10  18  30  47  69  98 134 170 195 226 284
#
# _framework density 15.538042000000001
#
# number of rings (size 3 to 8) (size 9 to 14) (size 15 to 20)
#    0.000    2.000    4.286    2.571    0.000    2.714 
#    0.000    2.143    0.000    6.857    0.000    0.000 
#    0.000   10.286    0.000    0.000    0.000    0.000 
#
# Total GULP energy -623831.087457 kJ/mol
# GULP energy per Si atom -5569.920424 kJ/mol
# Density = 1.550268 g / cm^3
# Si number density = 15.538042 Si / 1000 Ang^3
#
#
#
# Elastic Constant Matrix: (Units=GPa)
#
#
# Indices 1 2 3 4 5 6 
#
# 1 58.7448 5.6874 14.2584 0.0000 0.0000 0.0000
# 2 5.6874 58.7448 14.2584 0.0000 0.0000 0.0000
# 3 14.2584 14.2584 75.6715 0.0000 0.0000 0.0000
# 4 0.0000 0.0000 0.0000 1.3324 0.0000 0.0000
# 5 0.0000 0.0000 0.0000 0.0000 1.3324 0.0000
# 6 0.0000 0.0000 0.0000 0.0000 0.0000 6.9938
#
#
#
# Elastic Compliance Matrix: (Units=1/GPa)
#
#
# Indices 1 2 3 4 5 6 
#
# 1 0.017890 -0.000958 -0.003190 0.000000 0.000000 0.000000
# 2 -0.000958 0.017890 -0.003190 0.000000 0.000000 0.000000
# 3 -0.003190 -0.003190 0.014417 0.000000 0.000000 0.000000
# 4 0.000000 0.000000 0.000000 0.750542 0.000000 0.000000
# 5 0.000000 0.000000 0.000000 0.000000 0.750542 0.000000
# 6 0.000000 0.000000 0.000000 0.000000 0.000000 0.142983
#
#
# Mechanical properties :
#
#
# Convention : Reuss Voigt Hill
#
# Bulk Modulus (GPa) = 28.15314 29.06326 28.60820
# Shear Modulus (GPa) = 2.90566 12.52884 7.71725
#
# Velocity S-wave (km/s) = 1.36897 2.84268 2.23102
# Velocity P-wave (km/s) = 4.54499 5.43320 5.00882
#
# Compressibility (1/GPa) = 0.03552001
#
# Stress axis : x y z
#
# Youngs Moduli (GPa) = 55.89753 55.89753 69.36098
#
# Poissons Ratio (x) = 0.05353 0.22129
# Poissons Ratio (y) = 0.05353 0.22129
# Poissons Ratio (z) = 0.17834 0.17834
#
# Static dielectric constant tensor:
#      x y z
#    x 1.514050 0.000000 0.000000 
#    y 0.000000 1.514050 0.000000 
#    z 0.000000 0.000000 1.548510 
# 
# From -- ./inp_files/8139.got.cif
#   From: 2010.05.17/outbox.cif.g08.bks.cpg/sg137_5_cif.got.tgz:8139.got - 2010.05.20 13:01:12.
