data_PCOD9569378
_publ_section_title
;
Structure prediction by ZEFSAII (Michael W. Deem and Ramdas Pophale) SiO2 
 PCOD9569378
Probable space group: P 42/M N M
;
_chemical_formula_sum "Si O2"
_cell_formula_units_Z 88
_cell_length_a 16.445501
_cell_length_b 16.445501
_cell_length_c 17.011102
_cell_angle_alpha 90.000000
_cell_angle_beta 90.000000
_cell_angle_gamma 90.000000
_cell_volume 4600.729139
_symmetry_space_group_name_H-M "P 42/M N M"
_symmetry_group_IT_number 136
_symmetry_cell_setting 'tetragonal'
loop_
_space_group_symop_operation_xyz
x,y,z
1/2-y,1/2+x,1/2+z
-x,-y,z
1/2+y,1/2-x,1/2+z
1/2+x,1/2-y,1/2-z
1/2-x,1/2+y,1/2-z
y,x,-z
-y,-x,-z
-x,-y,-z
1/2+y,1/2-x,1/2-z
x,y,-z
1/2-y,1/2+x,1/2-z
1/2-x,1/2+y,1/2+z
1/2+x,1/2-y,1/2+z
-y,-x,z
y,x,z
loop_
_atom_site_type_symbol
_atom_site_label
_atom_site_fract_x
_atom_site_fract_y
_atom_site_fract_z
Si Si1 0.173712 0.173712 0.748484
Si Si2 0.250942 0.525292 0.852732
Si Si3 0.640583 0.115585 0.086949
Si Si4 0.093844 0.906157 0.907679
Si Si5 0.135657 0.001475 0.500000
Si Si6 0.973445 0.367986 0.236747
Si Si7 0.214717 0.785284 0.155932
Si Si8 0.600403 0.399598 0.407548
O O1 0.206720 0.094749 0.700978
O O2 0.243271 0.243271 0.732460
O O3 0.148159 0.148159 0.837518
O O4 0.171174 0.562281 0.895839
O O5 0.310840 0.496869 0.920918
O O6 0.210418 0.463245 0.791250
O O7 0.651408 0.042896 0.147060
O O8 0.713310 0.176431 0.105249
O O9 0.640173 0.084741 0.000000
O O10 0.145598 0.854403 0.845034
O O11 0.997525 0.888729 0.898108
O O12 0.113982 0.886019 0.000000
O O13 0.087618 0.087618 0.500000
O O14 0.068824 0.931177 0.500000
O O15 0.907977 0.437841 0.256411
O O16 0.620338 0.379663 0.500000
#
# Coordination Sequence:
#
# PCOD9569378 Si02
#       8
#     8  16  16   8   8  16   8   8
#     4  10  21  36  57  88 123 160 194 244 310 353
#     4  10  20  38  60  84 120 153 198 252 297 350
#     4  10  19  34  60  87 114 154 196 246 300 353
#     4   9  18  36  57  89 125 156 200 258 302 356
#     4  11  22  40  62  87 118 160 208 252 301 359
#     4   9  20  39  57  87 124 155 193 245 301 361
#     4  10  21  33  56  91 118 146 199 254 294 348
#     4   9  20  38  60  87 129 166 197 241 309 377
#
# _framework density 19.127402
#
# number of rings (size 3 to 8) (size 9 to 14) (size 15 to 20)
#    0.000    2.273    1.818    1.364    2.545    0.000 
#    6.545    1.818    0.000    0.000    2.364    0.000 
#    0.000    0.000    0.000    0.000    0.000    0.000 
#
# Total GULP energy -490334.780132 kJ/mol
# GULP energy per Si atom -5571.986138 kJ/mol
# Density = 1.908387 g / cm^3
# Si number density = 19.127402 Si / 1000 Ang^3
#
#
#
# Elastic Constant Matrix: (Units=GPa)
#
#
# Indices 1 2 3 4 5 6 
#
# 1 53.4887 29.5698 59.8538 0.0000 0.0000 0.0000
# 2 29.5698 53.4880 59.8534 0.0000 0.0000 0.0000
# 3 59.8538 59.8534 182.5045 0.0000 0.0000 0.0000
# 4 0.0000 0.0000 0.0000 31.9357 0.0000 0.0000
# 5 0.0000 0.0000 0.0000 0.0000 31.9357 0.0000
# 6 0.0000 0.0000 0.0000 0.0000 0.0000 19.3668
#
#
#
# Elastic Compliance Matrix: (Units=1/GPa)
#
#
# Indices 1 2 3 4 5 6 
#
# 1 0.032320 -0.009489 -0.007488 0.000000 0.000000 0.000000
# 2 -0.009489 0.032320 -0.007488 0.000000 0.000000 0.000000
# 3 -0.007488 -0.007488 0.010391 0.000000 0.000000 0.000000
# 4 0.000000 0.000000 0.000000 0.031313 0.000000 0.000000
# 5 0.000000 0.000000 0.000000 0.000000 0.031313 0.000000
# 6 0.000000 0.000000 0.000000 0.000000 0.000000 0.051635
#
#
# Mechanical properties :
#
#
# Convention : Reuss Voigt Hill
#
# Bulk Modulus (GPa) = 38.31046 65.33725 51.82386
# Shear Modulus (GPa) = 20.24947 25.99458 23.12203
#
# Velocity S-wave (km/s) = 3.25724 3.69049 3.48061
# Velocity P-wave (km/s) = 5.84968 7.23829 6.58071
#
# Compressibility (1/GPa) = 0.02610253
#
# Stress axis : x y z
#
# Youngs Moduli (GPa) = 30.94086 30.94041 96.24078
#
# Poissons Ratio (x) = 0.29358 0.72062
# Poissons Ratio (y) = 0.29358 0.72063
# Poissons Ratio (z) = 0.23167 0.23167
#
# Static dielectric constant tensor:
#      x y z
#    x 1.690240 0.000000 0.000000 
#    y 0.000000 1.690240 0.000000 
#    z 0.000000 0.000000 1.683000 
# 
# From -- ./inp_files/5118.got.cif
#   From: 2010.05.17/outbox.cif.g08.bks.cpg/sg136_3_cif.got.tgz:5118.got - 2010.05.20 12:54:53.
