data_PCOD9569429
_publ_section_title
;
Structure prediction by ZEFSAII (Michael W. Deem and Ramdas Pophale) SiO2 
 PCOD9569429
Probable space group: P 42/M N M
;
_chemical_formula_sum "Si O2"
_cell_formula_units_Z 128
_cell_length_a 22.051981
_cell_length_b 22.051981
_cell_length_c 14.089200
_cell_angle_alpha 90.000000
_cell_angle_beta 90.000000
_cell_angle_gamma 90.000000
_cell_volume 6851.435180
_symmetry_space_group_name_H-M "P 42/M N M"
_symmetry_group_IT_number 136
_symmetry_cell_setting 'tetragonal'
loop_
_space_group_symop_operation_xyz
x,y,z
1/2-y,1/2+x,1/2+z
-x,-y,z
1/2+y,1/2-x,1/2+z
1/2+x,1/2-y,1/2-z
1/2-x,1/2+y,1/2-z
y,x,-z
-y,-x,-z
-x,-y,-z
1/2+y,1/2-x,1/2-z
x,y,-z
1/2-y,1/2+x,1/2-z
1/2-x,1/2+y,1/2+z
1/2+x,1/2-y,1/2+z
-y,-x,z
y,x,z
loop_
_atom_site_type_symbol
_atom_site_label
_atom_site_fract_x
_atom_site_fract_y
_atom_site_fract_z
Si Si1 0.061632 0.675015 0.226654
Si Si2 0.129924 0.622402 0.607289
Si Si3 0.403960 0.496274 0.809587
Si Si4 0.430975 0.989359 0.108759
Si Si5 0.847891 0.998123 0.892101
Si Si6 0.240687 0.568257 0.707882
Si Si7 0.415970 0.687879 0.108066
Si Si8 0.125899 0.776213 0.109703
O O1 0.086204 0.663924 0.331088
O O2 0.053081 0.610093 0.174664
O O3 0.108430 0.717809 0.170547
O O4 0.996119 0.707080 0.225257
O O5 0.136773 0.643148 0.500000
O O6 0.100728 0.555013 0.606260
O O7 0.194192 0.613403 0.658284
O O8 0.455735 0.544265 0.836340
O O9 0.429974 0.429974 0.831602
O O10 0.393522 0.501928 0.696350
O O11 0.344895 0.520422 0.863480
O O12 0.500000 0.000000 0.139517
O O13 0.432036 0.965846 0.000000
O O14 0.817338 0.064859 0.890208
O O15 0.796530 0.949321 0.861601
O O16 0.869741 0.987570 0.000000
O O17 0.264275 0.593140 0.808085
O O18 0.363129 0.636871 0.113850
O O19 0.417619 0.710465 0.000000
O O20 0.182014 0.817987 0.142195
O O21 0.136782 0.758905 0.000000
#
# Coordination Sequence:
#
# PCOD9569429 Si02
#       8
#    16  16  16  16  16  16  16  16
#     4  10  20  32  54  77 106 140 171 210 256 314
#     4  10  21  35  52  76 104 137 169 203 252 309
#     4   9  17  27  41  69 107 138 166 205 258 317
#     4   9  19  33  52  79 111 140 168 205 250 310
#     4   9  16  28  48  70  95 132 176 214 251 299
#     4   9  19  35  53  75 102 137 169 212 259 311
#     4   9  18  34  55  76 100 134 178 224 267 310
#     4   9  17  31  51  73  97 128 171 218 260 302
#
# _framework density 18.682217999999999
#
# number of rings (size 3 to 8) (size 9 to 14) (size 15 to 20)
#    0.000    2.750    0.000    1.125    3.500    4.750 
#    0.000    3.750    0.000    3.750    0.000    0.000 
#    0.000    0.000    0.000    0.000    0.000    0.000 
#
# Total GULP energy -713529.075700 kJ/mol
# GULP energy per Si atom -5574.445904 kJ/mol
# Density = 1.863970 g / cm^3
# Si number density = 18.682218 Si / 1000 Ang^3
#
#
#
# Elastic Constant Matrix: (Units=GPa)
#
#
# Indices 1 2 3 4 5 6 
#
# 1 42.7944 4.8604 29.6136 0.0000 0.0000 0.0000
# 2 4.8604 42.7944 29.6136 0.0000 0.0000 0.0000
# 3 29.6136 29.6136 127.1434 0.0000 0.0000 0.0000
# 4 0.0000 0.0000 0.0000 16.7498 0.0000 0.0000
# 5 0.0000 0.0000 0.0000 0.0000 16.7498 0.0000
# 6 0.0000 0.0000 0.0000 0.0000 0.0000 12.3133
#
#
#
# Elastic Compliance Matrix: (Units=1/GPa)
#
#
# Indices 1 2 3 4 5 6 
#
# 1 0.027947 0.001586 -0.006879 0.000000 0.000000 0.000000
# 2 0.001586 0.027947 -0.006879 0.000000 0.000000 0.000000
# 3 -0.006879 -0.006879 0.011069 0.000000 0.000000 0.000000
# 4 0.000000 0.000000 0.000000 0.059702 0.000000 0.000000
# 5 0.000000 0.000000 0.000000 0.000000 0.059702 0.000000
# 6 0.000000 0.000000 0.000000 0.000000 0.000000 0.081213
#
#
# Mechanical properties :
#
#
# Convention : Reuss Voigt Hill
#
# Bulk Modulus (GPa) = 23.46248 37.87858 30.67053
# Shear Modulus (GPa) = 16.33283 19.07224 17.70253
#
# Velocity S-wave (km/s) = 2.95997 3.19858 3.08159
# Velocity P-wave (km/s) = 4.92625 5.82756 5.39576
#
# Compressibility (1/GPa) = 0.04262123
#
# Stress axis : x y z
#
# Youngs Moduli (GPa) = 35.78141 35.78141 90.33862
#
# Poissons Ratio (x) = -0.05675 0.62142
# Poissons Ratio (y) = -0.05675 0.62142
# Poissons Ratio (z) = 0.24613 0.24613
#
# Static dielectric constant tensor:
#      x y z
#    x 1.660580 0.000000 0.000000 
#    y 0.000000 1.660580 0.000000 
#    z 0.000000 0.000000 1.644410 
# 
# From -- ./inp_files/4074.got.cif
#   From: 2010.05.17/outbox.cif.g08.bks.cpg/sg136_3_cif.got.tgz:4074.got - 2010.05.20 12:54:53.
