data_PCOD9569626
_publ_section_title
;
Structure prediction by ZEFSAII (Michael W. Deem and Ramdas Pophale) SiO2 
 PCOD9569626
Probable space group: P 42/M N M
;
_chemical_formula_sum "Si O2"
_cell_formula_units_Z 72
_cell_length_a 20.330207
_cell_length_b 20.330207
_cell_length_c 8.452973
_cell_angle_alpha 90.000000
_cell_angle_beta 90.000000
_cell_angle_gamma 90.000000
_cell_volume 3493.760118
_symmetry_space_group_name_H-M "P 42/M N M"
_symmetry_group_IT_number 136
_symmetry_cell_setting 'tetragonal'
loop_
_space_group_symop_operation_xyz
x,y,z
1/2-y,1/2+x,1/2+z
-x,-y,z
1/2+y,1/2-x,1/2+z
1/2+x,1/2-y,1/2-z
1/2-x,1/2+y,1/2-z
y,x,-z
-y,-x,-z
-x,-y,-z
1/2+y,1/2-x,1/2-z
x,y,-z
1/2-y,1/2+x,1/2-z
1/2-x,1/2+y,1/2+z
1/2+x,1/2-y,1/2+z
-y,-x,z
y,x,z
loop_
_atom_site_type_symbol
_atom_site_label
_atom_site_fract_x
_atom_site_fract_y
_atom_site_fract_z
Si Si1 0.349706 0.862163 0.810942
Si Si2 0.160100 0.160100 0.823646
Si Si3 0.522034 0.326183 0.178438
Si Si4 0.242929 0.757072 0.817672
Si Si5 0.444182 0.444182 0.686684
Si Si6 0.996200 0.675069 0.682137
O O1 0.284918 0.820628 0.751248
O O2 0.421940 0.837324 0.754497
O O3 0.349401 0.939712 0.773978
O O4 0.349049 0.851134 0.000000
O O5 0.170995 0.083489 0.795282
O O6 0.201100 0.201100 0.696810
O O7 0.180164 0.180164 0.000000
O O8 0.469192 0.378329 0.233611
O O9 0.495192 0.253193 0.178455
O O10 0.544607 0.341782 0.000000
O O11 0.226591 0.773409 0.000000
O O12 0.500000 0.500000 0.709682
O O13 0.435132 0.435132 0.500000
O O14 0.998368 0.650140 0.500000
#
# Coordination Sequence:
#
# PCOD9569626 Si02
#       6
#    16   8  16   8   8  16
#     4  10  22  41  66  93 123 163 208 256 312 369
#     4  12  22  33  58  93 120 151 202 258 302 351
#     4  11  22  39  61  84 119 164 204 244 306 378
#     4  10  20  41  66  89 121 164 210 251 305 375
#     4  11  23  36  53  88 127 156 203 256 302 361
#     4  10  23  42  63  90 122 159 206 258 311 372
#
# _framework density 20.608169
#
# number of rings (size 3 to 8) (size 9 to 14) (size 15 to 20)
#    0.000    1.444    3.333    2.000    0.000    5.333 
#    0.000    4.444    0.000    0.000    0.000    0.000 
#    0.000    0.000    0.000    0.000    0.000    0.000 
#
# Total GULP energy -401426.115062 kJ/mol
# GULP energy per Si atom -5575.362709 kJ/mol
# Density = 2.056126 g / cm^3
# Si number density = 20.608169 Si / 1000 Ang^3
#
#
#
# Elastic Constant Matrix: (Units=GPa)
#
#
# Indices 1 2 3 4 5 6 
#
# 1 109.0850 10.9727 15.0472 0.0000 0.0000 0.0000
# 2 10.9727 109.0841 15.0480 0.0000 0.0000 0.0000
# 3 15.0472 15.0480 32.5982 0.0000 0.0000 0.0000
# 4 0.0000 0.0000 0.0000 26.2822 0.0000 0.0000
# 5 0.0000 0.0000 0.0000 0.0000 26.2814 0.0000
# 6 0.0000 0.0000 0.0000 0.0000 0.0000 25.6537
#
#
#
# Elastic Compliance Matrix: (Units=1/GPa)
#
#
# Indices 1 2 3 4 5 6 
#
# 1 0.009806 -0.000387 -0.004348 0.000000 0.000000 0.000000
# 2 -0.000387 0.009806 -0.004348 0.000000 0.000000 0.000000
# 3 -0.004348 -0.004348 0.034691 0.000000 0.000000 0.000000
# 4 0.000000 0.000000 0.000000 0.038049 0.000000 0.000000
# 5 0.000000 0.000000 0.000000 0.000000 0.038050 0.000000
# 6 0.000000 0.000000 0.000000 0.000000 0.000000 0.038981
#
#
# Mechanical properties :
#
#
# Convention : Reuss Voigt Hill
#
# Bulk Modulus (GPa) = 27.67233 36.98925 32.33079
# Shear Modulus (GPa) = 25.05106 29.62343 27.33724
#
# Velocity S-wave (km/s) = 3.49031 3.79550 3.64610
# Velocity P-wave (km/s) = 5.44977 6.09881 5.78341
#
# Compressibility (1/GPa) = 0.03613718
#
# Stress axis : x y z
#
# Youngs Moduli (GPa) = 101.98055 101.97890 28.82617
#
# Poissons Ratio (x) = 0.03942 0.12533
# Poissons Ratio (y) = 0.03942 0.12534
# Poissons Ratio (z) = 0.44340 0.44342
#
# Static dielectric constant tensor:
#      x y z
#    x 1.722080 0.000000 0.000000 
#    y 0.000000 1.722090 0.000000 
#    z 0.000000 0.000000 1.769870 
# 
# From -- ./inp_files/1647.got.cif
#   From: 2010.05.17/outbox.cif.g08.bks.cpg/sg136_1_cif.got.tgz:1647.got - 2010.05.20 12:54:53.
