data_PCOD9569917
_publ_section_title
;
Structure prediction by ZEFSAII (Michael W. Deem and Ramdas Pophale) SiO2 
 PCOD9569917
Probable space group: P 42/M N M
;
_chemical_formula_sum "Si O2"
_cell_formula_units_Z 88
_cell_length_a 18.000000
_cell_length_b 18.000000
_cell_length_c 15.000000
_cell_angle_alpha 90.000000
_cell_angle_beta 90.000000
_cell_angle_gamma 90.000000
_cell_volume 4860.000000
_symmetry_space_group_name_H-M "P 42/M N M"
_symmetry_group_IT_number 136
_symmetry_cell_setting 'tetragonal'
loop_
_space_group_symop_operation_xyz
x,y,z
1/2-y,1/2+x,1/2+z
-x,-y,z
1/2+y,1/2-x,1/2+z
1/2+x,1/2-y,1/2-z
1/2-x,1/2+y,1/2-z
y,x,-z
-y,-x,-z
-x,-y,-z
1/2+y,1/2-x,1/2-z
x,y,-z
1/2-y,1/2+x,1/2-z
1/2-x,1/2+y,1/2+z
1/2+x,1/2-y,1/2+z
-y,-x,z
y,x,z
loop_
_atom_site_type_symbol
_atom_site_label
_atom_site_fract_x
_atom_site_fract_y
_atom_site_fract_z
Si Si1 0.698585 0.516435 0.282190
Si Si2 0.024326 0.149938 0.596034
Si Si3 0.786028 0.658961 0.234335
Si Si4 0.123813 0.250433 0.104350
Si Si5 0.438726 0.438726 0.394047
Si Si6 0.853636 0.726549 0.595774
O O1 0.648524 0.511324 0.192683
O O2 0.759366 0.576099 0.252194
O O3 0.733141 0.442052 0.325459
O O4 0.642600 0.543031 0.358356
O O5 0.983277 0.147981 0.500000
O O6 0.083341 0.083341 0.593216
O O7 0.070671 0.226905 0.598909
O O8 0.713923 0.713923 0.237592
O O9 0.829486 0.680231 0.144101
O O10 0.838648 0.679443 0.317437
O O11 0.179798 0.179798 0.108396
O O12 0.101889 0.259620 0.000000
O O13 0.500000 0.500000 0.363483
O O14 0.439850 0.439850 0.500000
O O15 0.848986 0.686840 0.500000
O O16 0.789389 0.789389 0.596136
#
# Coordination Sequence:
#
# PCOD9569917 Si02
#       6
#    16  16  16  16   8  16
#     4  12  21  35  57  84 117 152 194 245 296 348
#     4   9  17  31  53  78 101 136 186 228 271 335
#     4  10  20  35  52  82 114 145 190 243 288 334
#     4  10  21  38  60  82 114 161 204 237 286 365
#     4  11  24  38  53  83 127 165 194 233 299 374
#     4   8  14  27  49  73  97 126 165 221 273 316
#
# _framework density 18.106995999999999
#
# number of rings (size 3 to 8) (size 9 to 14) (size 15 to 20)
#    0.000    2.091    2.727    3.273    0.000    3.636 
#    0.000    0.455    0.000    2.182    0.000    1.273 
#    0.000    0.000    0.000    0.000    0.000    0.000 
#
# Total GULP energy -489890.805119 kJ/mol
# GULP energy per Si atom -5566.940967 kJ/mol
# Density = 1.806578 g / cm^3
# Si number density = 18.106996 Si / 1000 Ang^3
#
#
#
# Elastic Constant Matrix: (Units=GPa)
#
#
# Indices 1 2 3 4 5 6 
#
# 1 35.1870 37.7256 24.7417 0.0000 0.0000 0.0000
# 2 37.7256 35.1870 24.7417 0.0000 0.0000 0.0000
# 3 24.7417 24.7417 126.4562 0.0000 0.0000 0.0000
# 4 0.0000 0.0000 0.0000 14.8154 0.0000 0.0000
# 5 0.0000 0.0000 0.0000 0.0000 14.8154 0.0000
# 6 0.0000 0.0000 0.0000 0.0000 0.0000 21.1725
#
#
#
# Elastic Compliance Matrix: (Units=1/GPa)
#
#
# Indices 1 2 3 4 5 6 
#
# 1 -0.189049 0.204864 -0.003094 0.000000 0.000000 0.000000
# 2 0.204864 -0.189049 -0.003094 0.000000 0.000000 0.000000
# 3 -0.003094 -0.003094 0.009119 0.000000 0.000000 0.000000
# 4 0.000000 0.000000 0.000000 0.067497 0.000000 0.000000
# 5 0.000000 0.000000 0.000000 0.000000 0.067497 0.000000
# 6 0.000000 0.000000 0.000000 0.000000 0.000000 0.047231
#
#
# Mechanical properties :
#
#
# Convention : Reuss Voigt Hill
#
# Bulk Modulus (GPa) = 35.24645 41.24978 38.24812
# Shear Modulus (GPa) = -8.70100 17.46873 4.38387
#
# Velocity S-wave (km/s) = -2.19448 3.10941 1.55767
# Velocity P-wave (km/s) = 3.61758 5.97678 4.94008
#
# Compressibility (1/GPa) = 0.02837165
#
# Stress axis : x y z
#
# Youngs Moduli (GPa) = -5.28964 -5.28964 109.66489
#
# Poissons Ratio (x) = 1.08366 0.33933
# Poissons Ratio (y) = 1.08366 0.33933
# Poissons Ratio (z) = -0.01637 -0.01637
#
# Static dielectric constant tensor:
#      x y z
#    x 1.651180 0.000000 0.000000 
#    y 0.000000 1.651180 0.000000 
#    z 0.000000 0.000000 1.679930 
# 
# From -- ./inp_files/5035.got.cif
#   From: 2010.05.17/outbox.ucp.g08.bks.cvg/sg136_3_cif.got.tgz:5035.got - 2010.06.11 11:40:42.
