data_PCOD9569748
_publ_section_title
;
Structure prediction by ZEFSAII (Michael W. Deem and Ramdas Pophale) SiO2 
 PCOD9569748
Probable space group: P 42/M N M
;
_chemical_formula_sum "Si O2"
_cell_formula_units_Z 48
_cell_length_a 12.168793
_cell_length_b 12.168793
_cell_length_c 15.661723
_cell_angle_alpha 90.000000
_cell_angle_beta 90.000000
_cell_angle_gamma 90.000000
_cell_volume 2319.180472
_symmetry_space_group_name_H-M "P 42/M N M"
_symmetry_group_IT_number 136
_symmetry_cell_setting 'tetragonal'
loop_
_space_group_symop_operation_xyz
x,y,z
1/2-y,1/2+x,1/2+z
-x,-y,z
1/2+y,1/2-x,1/2+z
1/2+x,1/2-y,1/2-z
1/2-x,1/2+y,1/2-z
y,x,-z
-y,-x,-z
-x,-y,-z
1/2+y,1/2-x,1/2-z
x,y,-z
1/2-y,1/2+x,1/2-z
1/2-x,1/2+y,1/2+z
1/2+x,1/2-y,1/2+z
-y,-x,z
y,x,z
loop_
_atom_site_type_symbol
_atom_site_label
_atom_site_fract_x
_atom_site_fract_y
_atom_site_fract_z
Si Si1 0.877214 0.460370 0.098173
Si Si2 0.538483 0.721528 0.407203
Si Si3 0.680867 0.496379 0.221288
O O1 0.883681 0.328024 0.100866
O O2 0.786821 0.504534 0.162406
O O3 0.000000 0.500000 0.119974
O O4 0.854787 0.493286 0.000000
O O5 0.481185 0.731556 0.500000
O O6 0.612604 0.612604 0.410090
O O7 0.472602 0.714589 0.319453
O O8 0.601701 0.398300 0.190972
O O9 0.606885 0.606885 0.220407
#
# Coordination Sequence:
#
# PCOD9569748 Si02
#       3
#    16  16  16
#     4  10  22  39  59  85 119 159 202 248 300 358
#     4   9  19  36  57  83 118 160 201 242 295 359
#     4  10  22  38  60  92 123 157 201 249 305 361
#
# _framework density 20.696967999999998
#
# number of rings (size 3 to 8) (size 9 to 14) (size 15 to 20)
#    0.000    2.333    0.000    1.000    4.667    3.333 
#    0.000    5.000    0.000    6.000    0.000    0.000 
#    0.000    0.000    0.000    0.000    0.000    0.000 
#
# Total GULP energy -267871.395839 kJ/mol
# GULP energy per Si atom -5580.654080 kJ/mol
# Density = 2.064986 g / cm^3
# Si number density = 20.696968 Si / 1000 Ang^3
#
#
#
# Elastic Constant Matrix: (Units=GPa)
#
#
# Indices 1 2 3 4 5 6 
#
# 1 64.9551 20.0024 71.3722 0.0000 0.0000 0.0000
# 2 20.0024 64.9551 71.3722 0.0000 0.0000 0.0000
# 3 71.3722 71.3722 150.2616 0.0000 0.0000 0.0000
# 4 0.0000 0.0000 0.0000 30.6841 0.0000 0.0000
# 5 0.0000 0.0000 0.0000 0.0000 30.6841 0.0000
# 6 0.0000 0.0000 0.0000 0.0000 0.0000 12.5018
#
#
#
# Elastic Compliance Matrix: (Units=1/GPa)
#
#
# Indices 1 2 3 4 5 6 
#
# 1 0.040267 0.018022 -0.027687 0.000000 0.000000 0.000000
# 2 0.018022 0.040267 -0.027687 0.000000 0.000000 0.000000
# 3 -0.027687 -0.027687 0.032956 0.000000 0.000000 0.000000
# 4 0.000000 0.000000 0.000000 0.032590 0.000000 0.000000
# 5 0.000000 0.000000 0.000000 0.000000 0.032590 0.000000
# 6 0.000000 0.000000 0.000000 0.000000 0.000000 0.079988
#
#
# Mechanical properties :
#
#
# Convention : Reuss Voigt Hill
#
# Bulk Modulus (GPa) = 25.78074 67.29612 46.53843
# Shear Modulus (GPa) = 14.43869 22.60234 18.52051
#
# Velocity S-wave (km/s) = 2.64412 3.30822 2.99464
# Velocity P-wave (km/s) = 4.66960 6.86862 5.87295
#
# Compressibility (1/GPa) = 0.03878864
#
# Stress axis : x y z
#
# Youngs Moduli (GPa) = 24.83401 24.83401 30.34304
#
# Poissons Ratio (x) = -0.44755 0.84009
# Poissons Ratio (y) = -0.44755 0.84009
# Poissons Ratio (z) = 0.68757 0.68757
#
# Static dielectric constant tensor:
#      x y z
#    x 1.741790 0.000000 0.000000 
#    y 0.000000 1.741790 0.000000 
#    z 0.000000 0.000000 1.769200 
# 
# From -- ./inp_files/5704.got.cif
#   From: 2010.05.17/outbox.cif.g08.bks.cpg/sg136_3_cif.got.tgz:5704.got - 2010.05.20 12:54:53.
