data_PCOD9569295
_publ_section_title
;
Structure prediction by ZEFSAII (Michael W. Deem and Ramdas Pophale) SiO2 
 PCOD9569295
Probable space group: P 42/M N M
;
_chemical_formula_sum "Si O2"
_cell_formula_units_Z 80
_cell_length_a 13.603909
_cell_length_b 13.603909
_cell_length_c 26.645125
_cell_angle_alpha 90.000000
_cell_angle_beta 90.000000
_cell_angle_gamma 90.000000
_cell_volume 4931.115765
_symmetry_space_group_name_H-M "P 42/M N M"
_symmetry_group_IT_number 136
_symmetry_cell_setting 'tetragonal'
loop_
_space_group_symop_operation_xyz
x,y,z
1/2-y,1/2+x,1/2+z
-x,-y,z
1/2+y,1/2-x,1/2+z
1/2+x,1/2-y,1/2-z
1/2-x,1/2+y,1/2-z
y,x,-z
-y,-x,-z
-x,-y,-z
1/2+y,1/2-x,1/2-z
x,y,-z
1/2-y,1/2+x,1/2-z
1/2-x,1/2+y,1/2+z
1/2+x,1/2-y,1/2+z
-y,-x,z
y,x,z
loop_
_atom_site_type_symbol
_atom_site_label
_atom_site_fract_x
_atom_site_fract_y
_atom_site_fract_z
Si Si1 0.706958 0.128698 0.634879
Si Si2 0.259687 0.579915 0.177072
Si Si3 0.759624 0.923200 0.795860
Si Si4 0.113606 0.531926 0.440947
Si Si5 0.765212 0.604675 0.632532
O O1 0.793911 0.206090 0.627893
O O2 0.638507 0.169429 0.680304
O O3 0.635865 0.125779 0.586907
O O4 0.749179 0.022604 0.648677
O O5 0.362329 0.637672 0.169326
O O6 0.247232 0.563177 0.236589
O O7 0.175007 0.652773 0.157287
O O8 0.855986 0.855986 0.804037
O O9 0.766388 0.024426 0.826077
O O10 0.134133 0.537156 0.500000
O O11 0.184609 0.454490 0.413008
O O12 0.000000 0.500000 0.433988
O O13 0.673882 0.673882 0.617934
#
# Coordination Sequence:
#
# PCOD9569295 Si02
#       5
#    16  16  16  16  16
#     4  10  20  35  53  77 107 139 175 218 263 310
#     4  10  19  32  50  77 109 144 181 213 255 310
#     4   9  19  32  50  76 108 145 181 215 255 308
#     4  10  20  37  59  79  99 131 175 220 267 317
#     4  10  20  34  53  79 110 139 173 219 266 311
#
# _framework density 16.223507999999999
#
# number of rings (size 3 to 8) (size 9 to 14) (size 15 to 20)
#    0.000    2.200    2.000    1.200    0.000    4.000 
#    0.000    4.000    0.000    0.600    0.000    7.000 
#    0.000    0.000    0.000    0.000    0.000    0.000 
#
# Total GULP energy -446282.094952 kJ/mol
# GULP energy per Si atom -5578.526187 kJ/mol
# Density = 1.618658 g / cm^3
# Si number density = 16.223508 Si / 1000 Ang^3
#
#
#
# Elastic Constant Matrix: (Units=GPa)
#
#
# Indices 1 2 3 4 5 6 
#
# 1 108.6585 72.9952 69.7831 0.0000 0.0000 0.0000
# 2 72.9952 108.6585 69.7831 0.0000 0.0000 0.0000
# 3 69.7831 69.7831 119.5657 0.0000 0.0000 0.0000
# 4 0.0000 0.0000 0.0000 17.8934 0.0000 0.0000
# 5 0.0000 0.0000 0.0000 0.0000 17.8934 0.0000
# 6 0.0000 0.0000 0.0000 0.0000 0.0000 15.7051
#
#
#
# Elastic Compliance Matrix: (Units=1/GPa)
#
#
# Indices 1 2 3 4 5 6 
#
# 1 0.019010 -0.009030 -0.005825 0.000000 0.000000 0.000000
# 2 -0.009030 0.019010 -0.005825 0.000000 0.000000 0.000000
# 3 -0.005825 -0.005825 0.015163 0.000000 0.000000 0.000000
# 4 0.000000 0.000000 0.000000 0.055887 0.000000 0.000000
# 5 0.000000 0.000000 0.000000 0.000000 0.055887 0.000000
# 6 0.000000 0.000000 0.000000 0.000000 0.000000 0.063674
#
#
# Mechanical properties :
#
#
# Convention : Reuss Voigt Hill
#
# Bulk Modulus (GPa) = 84.57439 84.66728 84.62083
# Shear Modulus (GPa) = 18.25280 18.58646 18.41963
#
# Velocity S-wave (km/s) = 3.35787 3.38842 3.37318
# Velocity P-wave (km/s) = 8.20229 8.22252 8.21241
#
# Compressibility (1/GPa) = 0.01182391
#
# Stress axis : x y z
#
# Youngs Moduli (GPa) = 52.60342 52.60342 65.95074
#
# Poissons Ratio (x) = 0.47500 0.38415
# Poissons Ratio (y) = 0.47500 0.38415
# Poissons Ratio (z) = 0.30641 0.30641
#
# Static dielectric constant tensor:
#      x y z
#    x 1.531520 0.000000 0.000000 
#    y 0.000000 1.531520 0.000000 
#    z 0.000000 0.000000 1.514320 
# 
# From -- ./inp_files/9505.got.cif
#   From: 2010.05.17/outbox.cif.g08.bks.cpg/sg136_5_cif.got.tgz:9505.got - 2010.05.20 12:54:53.
