data_PCOD9569370
_publ_section_title
;
Structure prediction by ZEFSAII (Michael W. Deem and Ramdas Pophale) SiO2 
 PCOD9569370
Probable space group: P 42/M N M
;
_chemical_formula_sum "Si O2"
_cell_formula_units_Z 80
_cell_length_a 13.471854
_cell_length_b 13.471854
_cell_length_c 25.536880
_cell_angle_alpha 90.000000
_cell_angle_beta 90.000000
_cell_angle_gamma 90.000000
_cell_volume 4634.710063
_symmetry_space_group_name_H-M "P 42/M N M"
_symmetry_group_IT_number 136
_symmetry_cell_setting 'tetragonal'
loop_
_space_group_symop_operation_xyz
x,y,z
1/2-y,1/2+x,1/2+z
-x,-y,z
1/2+y,1/2-x,1/2+z
1/2+x,1/2-y,1/2-z
1/2-x,1/2+y,1/2-z
y,x,-z
-y,-x,-z
-x,-y,-z
1/2+y,1/2-x,1/2-z
x,y,-z
1/2-y,1/2+x,1/2-z
1/2-x,1/2+y,1/2+z
1/2+x,1/2-y,1/2+z
-y,-x,z
y,x,z
loop_
_atom_site_type_symbol
_atom_site_label
_atom_site_fract_x
_atom_site_fract_y
_atom_site_fract_z
Si Si1 0.722464 0.562987 0.845181
Si Si2 0.747409 0.419188 0.059013
Si Si3 0.886499 0.524968 0.561943
Si Si4 0.981444 0.665722 0.751972
Si Si5 0.891627 0.730680 0.859040
O O1 0.620302 0.620302 0.834344
O O2 0.718311 0.498375 0.897476
O O3 0.761167 0.498209 0.796587
O O4 0.806147 0.646885 0.854353
O O5 0.668970 0.331031 0.059726
O O6 0.857343 0.377630 0.069656
O O7 0.749974 0.462849 0.000000
O O8 0.878822 0.502330 0.500000
O O9 0.807206 0.463341 0.594967
O O10 0.000000 0.500000 0.578917
O O11 0.897019 0.583102 0.739939
O O12 0.950452 0.723510 0.804272
O O13 0.834638 0.834638 0.866926
#
# Coordination Sequence:
#
# PCOD9569370 Si02
#       5
#    16  16  16  16  16
#     4  10  20  34  53  80 113 146 181 223 274 329
#     4  10  21  36  55  81 111 145 184 224 270 327
#     4  10  19  34  58  82 106 141 183 224 267 319
#     4   9  18  32  53  75 103 147 191 232 271 318
#     4  10  20  33  53  82 112 137 175 231 281 323
#
# _framework density 17.261057000000001
#
# number of rings (size 3 to 8) (size 9 to 14) (size 15 to 20)
#    0.000    2.200    2.000    1.200    2.800    2.000 
#    0.000    8.000    0.000    1.800    0.000    2.800 
#    0.000    0.000    0.000    0.000    0.000    0.000 
#
# Total GULP energy -446269.922827 kJ/mol
# GULP energy per Si atom -5578.374035 kJ/mol
# Density = 1.722177 g / cm^3
# Si number density = 17.261057 Si / 1000 Ang^3
#
#
#
# Elastic Constant Matrix: (Units=GPa)
#
#
# Indices 1 2 3 4 5 6 
#
# 1 63.2776 48.0824 63.6239 0.0000 0.0000 0.0000
# 2 48.0824 63.2776 63.6239 0.0000 0.0000 0.0000
# 3 63.6239 63.6239 111.9104 0.0000 0.0000 0.0000
# 4 0.0000 0.0000 0.0000 12.7296 0.0000 0.0000
# 5 0.0000 0.0000 0.0000 0.0000 12.7296 0.0000
# 6 0.0000 0.0000 0.0000 0.0000 0.0000 17.0167
#
#
#
# Elastic Compliance Matrix: (Units=1/GPa)
#
#
# Indices 1 2 3 4 5 6 
#
# 1 0.045720 -0.020090 -0.014572 0.000000 0.000000 0.000000
# 2 -0.020090 0.045720 -0.014572 0.000000 0.000000 0.000000
# 3 -0.014572 -0.014572 0.025504 0.000000 0.000000 0.000000
# 4 0.000000 0.000000 0.000000 0.078557 0.000000 0.000000
# 5 0.000000 0.000000 0.000000 0.000000 0.078557 0.000000
# 6 0.000000 0.000000 0.000000 0.000000 0.000000 0.058766
#
#
# Mechanical properties :
#
#
# Convention : Reuss Voigt Hill
#
# Bulk Modulus (GPa) = 54.11571 65.45845 59.78708
# Shear Modulus (GPa) = 11.42989 12.70423 12.06706
#
# Velocity S-wave (km/s) = 2.57607 2.71588 2.64690
# Velocity P-wave (km/s) = 6.34568 6.91662 6.63729
#
# Compressibility (1/GPa) = 0.01847892
#
# Stress axis : x y z
#
# Youngs Moduli (GPa) = 21.87214 21.87214 39.20913
#
# Poissons Ratio (x) = 0.43941 0.57134
# Poissons Ratio (y) = 0.43941 0.57134
# Poissons Ratio (z) = 0.31871 0.31871
#
# Static dielectric constant tensor:
#      x y z
#    x 1.575620 0.000000 0.000000 
#    y 0.000000 1.575620 0.000000 
#    z 0.000000 0.000000 1.587550 
# 
# From -- ./inp_files/7214.got.cif
#   From: 2010.05.17/outbox.cif.g08.bks.cpg/sg136_4_cif.got.tgz:7214.got - 2010.05.20 12:54:53.
