data_PCOD9569493
_publ_section_title
;
Structure prediction by ZEFSAII (Michael W. Deem and Ramdas Pophale) SiO2 
 PCOD9569493
Probable space group: P 42/M N M
;
_chemical_formula_sum "Si O2"
_cell_formula_units_Z 88
_cell_length_a 13.996306
_cell_length_b 13.996306
_cell_length_c 22.823846
_cell_angle_alpha 90.000000
_cell_angle_beta 90.000000
_cell_angle_gamma 90.000000
_cell_volume 4471.113411
_symmetry_space_group_name_H-M "P 42/M N M"
_symmetry_group_IT_number 136
_symmetry_cell_setting 'tetragonal'
loop_
_space_group_symop_operation_xyz
x,y,z
1/2-y,1/2+x,1/2+z
-x,-y,z
1/2+y,1/2-x,1/2+z
1/2+x,1/2-y,1/2-z
1/2-x,1/2+y,1/2-z
y,x,-z
-y,-x,-z
-x,-y,-z
1/2+y,1/2-x,1/2-z
x,y,-z
1/2-y,1/2+x,1/2-z
1/2-x,1/2+y,1/2+z
1/2+x,1/2-y,1/2+z
-y,-x,z
y,x,z
loop_
_atom_site_type_symbol
_atom_site_label
_atom_site_fract_x
_atom_site_fract_y
_atom_site_fract_z
Si Si1 0.435170 0.722810 0.375358
Si Si2 0.006580 0.848398 0.000000
Si Si3 0.018701 0.391458 0.067569
Si Si4 0.258300 0.416794 0.272588
Si Si5 0.297283 0.142351 0.564750
Si Si6 0.240143 0.600174 0.192534
O O1 0.345278 0.654723 0.362311
O O2 0.474672 0.699364 0.440006
O O3 0.416681 0.835388 0.385629
O O4 0.519394 0.711348 0.328840
O O5 0.938681 0.938681 0.000000
O O6 0.114786 0.885214 0.000000
O O7 0.910832 0.350273 0.066869
O O8 0.000000 0.500000 0.084949
O O9 0.055248 0.390797 0.000000
O O10 0.343650 0.343650 0.257378
O O11 0.239656 0.498915 0.224773
O O12 0.166685 0.350333 0.288281
O O13 0.272857 0.102720 0.500000
O O14 0.243872 0.243872 0.569894
O O15 0.264786 0.086673 0.622396
O O16 0.334507 0.665493 0.205779
#
# Coordination Sequence:
#
# PCOD9569493 Si02
#       6
#    16   8  16  16  16  16
#     4  11  21  35  57  88 126 165 202 250 311 379
#     4   9  18  30  49  84 128 168 197 228 288 367
#     4  10  20  34  54  86 125 166 206 248 299 366
#     4  11  24  42  62  90 127 165 211 262 318 386
#     4   9  18  36  62  88 116 152 199 258 309 355
#     4  10  22  40  62  91 123 163 213 256 310 381
#
# _framework density 19.681898
#
# number of rings (size 3 to 8) (size 9 to 14) (size 15 to 20)
#    0.000    1.909    2.727    1.091    0.000    4.727 
#    0.000    0.000    0.000    0.545    0.000    2.545 
#    0.000    0.000    0.000    0.000    0.000    0.000 
#
# Total GULP energy -490283.317831 kJ/mol
# GULP energy per Si atom -5571.401339 kJ/mol
# Density = 1.963710 g / cm^3
# Si number density = 19.681898 Si / 1000 Ang^3
#
#
#
# Elastic Constant Matrix: (Units=GPa)
#
#
# Indices 1 2 3 4 5 6 
#
# 1 98.6647 52.8140 45.8788 0.0000 0.0000 0.0000
# 2 52.8140 98.6650 45.8788 0.0000 0.0000 0.0000
# 3 45.8788 45.8788 116.7474 0.0000 0.0000 0.0000
# 4 0.0000 0.0000 0.0000 21.5433 0.0000 0.0000
# 5 0.0000 0.0000 0.0000 0.0000 21.5428 0.0000
# 6 0.0000 0.0000 0.0000 0.0000 0.0000 15.9015
#
#
#
# Elastic Compliance Matrix: (Units=1/GPa)
#
#
# Indices 1 2 3 4 5 6 
#
# 1 0.015237 -0.006573 -0.003405 0.000000 0.000000 0.000000
# 2 -0.006573 0.015237 -0.003405 0.000000 0.000000 0.000000
# 3 -0.003405 -0.003405 0.011241 0.000000 0.000000 0.000000
# 4 0.000000 0.000000 0.000000 0.046418 0.000000 0.000000
# 5 0.000000 0.000000 0.000000 0.000000 0.046419 0.000000
# 6 0.000000 0.000000 0.000000 0.000000 0.000000 0.062887
#
#
# Mechanical properties :
#
#
# Convention : Reuss Voigt Hill
#
# Bulk Modulus (GPa) = 66.88740 67.02448 66.95594
# Shear Modulus (GPa) = 21.81615 23.09789 22.45702
#
# Velocity S-wave (km/s) = 3.33293 3.42944 3.38153
# Velocity P-wave (km/s) = 6.99065 7.05757 7.02419
#
# Compressibility (1/GPa) = 0.01495050
#
# Stress axis : x y z
#
# Youngs Moduli (GPa) = 65.63002 65.63026 88.95652
#
# Poissons Ratio (x) = 0.43138 0.30287
# Poissons Ratio (y) = 0.43138 0.30287
# Poissons Ratio (z) = 0.22345 0.22345
#
# Static dielectric constant tensor:
#      x y z
#    x 1.690540 0.000000 0.000000 
#    y 0.000000 1.690540 0.000000 
#    z 0.000000 0.000000 1.567750 
# 
# From -- ./inp_files/8346.got.cif
#   From: 2010.05.17/outbox.cif.g08.bks.cpg/sg136_5_cif.got.tgz:8346.got - 2010.05.20 12:54:53.
