data_PCOD9569758
_publ_section_title
;
Structure prediction by ZEFSAII (Michael W. Deem and Ramdas Pophale) SiO2 
 PCOD9569758
Probable space group: P 42/M N M
;
_chemical_formula_sum "Si O2"
_cell_formula_units_Z 96
_cell_length_a 23.999479
_cell_length_b 23.999479
_cell_length_c 8.704307
_cell_angle_alpha 90.000000
_cell_angle_beta 90.000000
_cell_angle_gamma 90.000000
_cell_volume 5013.463157
_symmetry_space_group_name_H-M "P 42/M N M"
_symmetry_group_IT_number 136
_symmetry_cell_setting 'tetragonal'
loop_
_space_group_symop_operation_xyz
x,y,z
1/2-y,1/2+x,1/2+z
-x,-y,z
1/2+y,1/2-x,1/2+z
1/2+x,1/2-y,1/2-z
1/2-x,1/2+y,1/2-z
y,x,-z
-y,-x,-z
-x,-y,-z
1/2+y,1/2-x,1/2-z
x,y,-z
1/2-y,1/2+x,1/2-z
1/2-x,1/2+y,1/2+z
1/2+x,1/2-y,1/2+z
-y,-x,z
y,x,z
loop_
_atom_site_type_symbol
_atom_site_label
_atom_site_fract_x
_atom_site_fract_y
_atom_site_fract_z
Si Si1 0.974763 0.417195 0.261283
Si Si2 0.290098 0.473071 0.318353
Si Si3 0.542108 0.190985 0.830568
Si Si4 0.637663 0.132116 0.680311
Si Si5 0.999390 0.908653 0.315137
Si Si6 0.847882 0.242974 0.183618
O O1 0.945293 0.473135 0.330472
O O2 0.919947 0.382515 0.211998
O O3 0.007722 0.366992 0.340994
O O4 0.282472 0.481522 0.500000
O O5 0.239528 0.502359 0.229422
O O6 0.349278 0.496447 0.264365
O O7 0.287173 0.406916 0.287850
O O8 0.592611 0.179666 0.714744
O O9 0.563590 0.204607 0.000000
O O10 0.635425 0.115607 0.500000
O O11 0.698917 0.150407 0.727308
O O12 0.999713 0.901670 0.500000
O O13 0.944672 0.944672 0.274839
O O14 0.052366 0.947635 0.275089
O O15 0.797285 0.202716 0.227765
O O16 0.844275 0.253617 0.000000
#
# Coordination Sequence:
#
# PCOD9569758 Si02
#       6
#    16  16  16  16  16  16
#     4   9  19  36  57  86 118 156 198 242 286 343
#     4  11  22  37  59  90 120 153 193 242 294 348
#     4  11  22  39  59  84 119 161 200 242 294 348
#     4  11  22  39  59  86 118 154 200 248 293 345
#     4   9  19  37  61  89 120 153 188 229 285 354
#     4  10  22  40  60  85 117 154 196 242 294 351
#
# _framework density 19.148440999999998
#
# number of rings (size 3 to 8) (size 9 to 14) (size 15 to 20)
#    0.000    1.833    1.667    3.000    0.000    2.333 
#    0.000   31.667    0.000    5.000    0.000    0.000 
#    0.000    0.000    0.000    0.000    0.000    0.000 
#
# Total GULP energy -534423.930680 kJ/mol
# GULP energy per Si atom -5566.915945 kJ/mol
# Density = 1.910486 g / cm^3
# Si number density = 19.148441 Si / 1000 Ang^3
#
#
#
# Elastic Constant Matrix: (Units=GPa)
#
#
# Indices 1 2 3 4 5 6 
#
# 1 121.1962 63.7086 41.3833 0.0000 0.0000 0.0000
# 2 63.7086 121.1962 41.3833 0.0000 0.0000 0.0000
# 3 41.3833 41.3833 50.6012 0.0000 0.0000 0.0000
# 4 0.0000 0.0000 0.0000 33.4363 0.0000 0.0000
# 5 0.0000 0.0000 0.0000 0.0000 33.4363 0.0000
# 6 0.0000 0.0000 0.0000 0.0000 0.0000 31.6354
#
#
#
# Elastic Compliance Matrix: (Units=1/GPa)
#
#
# Indices 1 2 3 4 5 6 
#
# 1 0.012963 -0.004432 -0.006977 0.000000 0.000000 0.000000
# 2 -0.004432 0.012963 -0.006977 0.000000 0.000000 0.000000
# 3 -0.006977 -0.006977 0.031175 0.000000 0.000000 0.000000
# 4 0.000000 0.000000 0.000000 0.029908 0.000000 0.000000
# 5 0.000000 0.000000 0.000000 0.000000 0.029908 0.000000
# 6 0.000000 0.000000 0.000000 0.000000 0.000000 0.031610
#
#
# Mechanical properties :
#
#
# Convention : Reuss Voigt Hill
#
# Bulk Modulus (GPa) = 49.19179 65.10489 57.14834
# Shear Modulus (GPa) = 26.03150 29.46950 27.75050
#
# Velocity S-wave (km/s) = 3.69108 3.92727 3.81101
# Velocity P-wave (km/s) = 6.62653 7.39179 7.01959
#
# Compressibility (1/GPa) = 0.02032860
#
# Stress axis : x y z
#
# Youngs Moduli (GPa) = 77.14166 77.14166 32.07731
#
# Poissons Ratio (x) = 0.34188 0.22381
# Poissons Ratio (y) = 0.34188 0.22381
# Poissons Ratio (z) = 0.53823 0.53823
#
# Static dielectric constant tensor:
#      x y z
#    x 1.652290 0.000000 0.000000 
#    y 0.000000 1.652290 0.000000 
#    z 0.000000 0.000000 1.681840 
# 
# From -- ./inp_files/2000.got.cif
#   From: 2010.05.17/outbox.cif.g08.bks.cpg/sg136_1_cif.got.tgz:2000.got - 2010.05.20 12:54:53.
