data_PCOD9569279
_publ_section_title
;
Structure prediction by ZEFSAII (Michael W. Deem and Ramdas Pophale) SiO2 
 PCOD9569279
Probable space group: P 42/M N M
;
_chemical_formula_sum "Si O2"
_cell_formula_units_Z 88
_cell_length_a 15.244529
_cell_length_b 15.244529
_cell_length_c 20.071247
_cell_angle_alpha 90.000000
_cell_angle_beta 90.000000
_cell_angle_gamma 90.000000
_cell_volume 4664.470783
_symmetry_space_group_name_H-M "P 42/M N M"
_symmetry_group_IT_number 136
_symmetry_cell_setting 'tetragonal'
loop_
_space_group_symop_operation_xyz
x,y,z
1/2-y,1/2+x,1/2+z
-x,-y,z
1/2+y,1/2-x,1/2+z
1/2+x,1/2-y,1/2-z
1/2-x,1/2+y,1/2-z
y,x,-z
-y,-x,-z
-x,-y,-z
1/2+y,1/2-x,1/2-z
x,y,-z
1/2-y,1/2+x,1/2-z
1/2-x,1/2+y,1/2+z
1/2+x,1/2-y,1/2+z
-y,-x,z
y,x,z
loop_
_atom_site_type_symbol
_atom_site_label
_atom_site_fract_x
_atom_site_fract_y
_atom_site_fract_z
Si Si1 0.120794 0.731509 0.718353
Si Si2 0.759788 0.385127 0.639976
Si Si3 0.014486 0.239827 0.500000
Si Si4 0.693596 0.158214 0.000000
Si Si5 0.585997 0.731158 0.634666
Si Si6 0.824816 0.317164 0.500000
Si Si7 0.145177 0.005150 0.641980
O O1 0.194551 0.805450 0.702799
O O2 0.157010 0.643283 0.684842
O O3 0.117915 0.722531 0.797660
O O4 0.032224 0.775023 0.687649
O O5 0.680750 0.319251 0.655800
O O6 0.724312 0.482697 0.644297
O O7 0.791803 0.366444 0.565086
O O8 0.096800 0.304118 0.500000
O O9 0.926888 0.297796 0.500000
O O10 0.015435 0.181453 0.433033
O O11 0.716120 0.106028 0.932711
O O12 0.758635 0.241366 0.000000
O O13 0.639528 0.639528 0.630606
O O14 0.777605 0.222396 0.500000
O O15 0.070033 0.929968 0.642401
O O16 0.095274 0.095274 0.662688
#
# Coordination Sequence:
#
# PCOD9569279 Si02
#       7
#    16  16   8   8  16   8  16
#     4   9  19  36  57  83 118 157 187 230 299 365
#     4  10  20  37  63  89 115 151 194 238 297 361
#     4  12  20  33  59  85 119 159 195 232 283 359
#     4  10  23  41  57  79 112 155 199 244 300 350
#     4  10  22  41  62  83 116 153 198 255 302 347
#     4  10  19  35  61  88 119 157 193 238 295 357
#     4  10  19  31  53  89 124 150 186 236 288 352
#
# _framework density 18.866021
#
# number of rings (size 3 to 8) (size 9 to 14) (size 15 to 20)
#    0.000    2.000    1.818    2.182    0.000    3.273 
#    0.000    5.455    0.000    3.273    0.000    0.000 
#    0.000    0.000    0.000    0.000    0.000    0.000 
#
# Total GULP energy -490824.664452 kJ/mol
# GULP energy per Si atom -5577.553005 kJ/mol
# Density = 1.882308 g / cm^3
# Si number density = 18.866021 Si / 1000 Ang^3
#
#
#
# Elastic Constant Matrix: (Units=GPa)
#
#
# Indices 1 2 3 4 5 6 
#
# 1 82.4249 27.5069 36.0679 0.0000 0.0000 0.0000
# 2 27.5069 82.4262 36.0679 0.0000 0.0000 0.0000
# 3 36.0679 36.0679 104.7635 0.0000 0.0000 0.0000
# 4 0.0000 0.0000 0.0000 -206.4535 0.0000 0.0000
# 5 0.0000 0.0000 0.0000 0.0000 -206.4932 0.0000
# 6 0.0000 0.0000 0.0000 0.0000 0.0000 6.5126
#
#
#
# Elastic Compliance Matrix: (Units=1/GPa)
#
#
# Indices 1 2 3 4 5 6 
#
# 1 0.014980 -0.003229 -0.004046 0.000000 0.000000 0.000000
# 2 -0.003229 0.014980 -0.004046 0.000000 0.000000 0.000000
# 3 -0.004046 -0.004046 0.012331 0.000000 0.000000 0.000000
# 4 0.000000 0.000000 0.000000 -0.004844 0.000000 0.000000
# 5 0.000000 0.000000 0.000000 0.000000 -0.004843 0.000000
# 6 0.000000 0.000000 0.000000 0.000000 0.000000 0.153547
#
#
# Mechanical properties :
#
#
# Convention : Reuss Voigt Hill
#
# Bulk Modulus (GPa) = 50.88893 52.10000 51.49447
# Shear Modulus (GPa) = 23.21884 -69.95536 -23.36826
#
# Velocity S-wave (km/s) = 3.51197 -6.09595 -3.52325
# Velocity P-wave (km/s) = 6.59376 4.67672 3.28679
#
# Compressibility (1/GPa) = 0.01965064
#
# Stress axis : x y z
#
# Youngs Moduli (GPa) = 66.75506 66.75643 81.09639
#
# Poissons Ratio (x) = 0.21554 0.32810
# Poissons Ratio (y) = 0.21554 0.32809
# Poissons Ratio (z) = 0.27007 0.27007
#
# Static dielectric constant tensor:
#      x y z
#    x 1.661990 0.000000 0.000000 
#    y 0.000000 1.661990 0.000000 
#    z 0.000000 0.000000 1.667480 
# 
# From -- ./inp_files/7442.got.cif
#   From: 2010.05.17/outbox.cif.g08.bks.cpg/sg136_4_cif.got.tgz:7442.got - 2010.05.20 12:54:53.
