data_PCOD9569850
_publ_section_title
;
Structure prediction by ZEFSAII (Michael W. Deem and Ramdas Pophale) SiO2 
 PCOD9569850
Probable space group: P 42/M N M
;
_chemical_formula_sum "Si O2"
_cell_formula_units_Z 68
_cell_length_a 11.332193
_cell_length_b 11.332193
_cell_length_c 25.352095
_cell_angle_alpha 90.000000
_cell_angle_beta 90.000000
_cell_angle_gamma 90.000000
_cell_volume 3255.680501
_symmetry_space_group_name_H-M "P 42/M N M"
_symmetry_group_IT_number 136
_symmetry_cell_setting 'tetragonal'
loop_
_space_group_symop_operation_xyz
x,y,z
1/2-y,1/2+x,1/2+z
-x,-y,z
1/2+y,1/2-x,1/2+z
1/2+x,1/2-y,1/2-z
1/2-x,1/2+y,1/2-z
y,x,-z
-y,-x,-z
-x,-y,-z
1/2+y,1/2-x,1/2-z
x,y,-z
1/2-y,1/2+x,1/2-z
1/2-x,1/2+y,1/2+z
1/2+x,1/2-y,1/2+z
-y,-x,z
y,x,z
loop_
_atom_site_type_symbol
_atom_site_label
_atom_site_fract_x
_atom_site_fract_y
_atom_site_fract_z
Si Si1 0.805361 0.992611 0.937625
Si Si2 0.500000 0.500000 0.674005
Si Si3 0.650728 0.850915 0.367401
Si Si4 0.075266 0.736380 0.675251
Si Si5 0.518329 0.235631 0.710997
O O1 0.911761 0.088240 0.930069
O O2 0.694577 0.048955 0.907254
O O3 0.780744 0.987864 0.000000
O O4 0.866955 0.866955 0.923109
O O5 0.501829 0.356012 0.679339
O O6 0.760853 0.760853 0.371283
O O7 0.589657 0.842869 0.309953
O O8 0.692701 0.985528 0.369564
O O9 0.151247 0.848754 0.659139
O O10 0.000075 0.767393 0.727970
O O11 0.165673 0.634814 0.694316
#
# Coordination Sequence:
#
# PCOD9569850 Si02
#       5
#    16   4  16  16  16
#     4   8  16  33  60  93 126 159 206 268 322 375
#     4  12  24  36  64  80 109 156 213 270 304 358
#     4  11  23  36  58  89 122 162 204 251 316 384
#     4  12  25  39  56  79 122 165 214 262 308 365
#     4  12  24  39  55  84 115 159 207 258 313 362
#
# _framework density 20.886569999999999
#
# number of rings (size 3 to 8) (size 9 to 14) (size 15 to 20)
#    0.000    1.176    5.882    1.412    3.294    0.471 
#    0.000    0.000    0.000    3.529    0.000    3.294 
#    0.000    0.000    0.000    0.000    0.000    1.176 
#
# Total GULP energy -378679.159478 kJ/mol
# GULP energy per Si atom -5568.811169 kJ/mol
# Density = 2.083903 g / cm^3
# Si number density = 20.886570 Si / 1000 Ang^3
#
#
#
# Elastic Constant Matrix: (Units=GPa)
#
#
# Indices 1 2 3 4 5 6 
#
# 1 105.9681 42.6747 34.9244 0.0000 0.0000 0.0000
# 2 42.6747 105.9681 34.9244 0.0000 0.0000 0.0000
# 3 34.9244 34.9244 79.5391 0.0000 0.0000 0.0000
# 4 0.0000 0.0000 0.0000 19.3342 0.0000 0.0000
# 5 0.0000 0.0000 0.0000 0.0000 19.3342 0.0000
# 6 0.0000 0.0000 0.0000 0.0000 0.0000 46.5640
#
#
#
# Elastic Compliance Matrix: (Units=1/GPa)
#
#
# Indices 1 2 3 4 5 6 
#
# 1 0.012138 -0.003661 -0.003722 0.000000 0.000000 0.000000
# 2 -0.003661 0.012138 -0.003722 0.000000 0.000000 0.000000
# 3 -0.003722 -0.003722 0.015841 0.000000 0.000000 0.000000
# 4 0.000000 0.000000 0.000000 0.051722 0.000000 0.000000
# 5 0.000000 0.000000 0.000000 0.000000 0.051722 0.000000
# 6 0.000000 0.000000 0.000000 0.000000 0.000000 0.021476
#
#
# Mechanical properties :
#
#
# Convention : Reuss Voigt Hill
#
# Bulk Modulus (GPa) = 55.84634 57.39138 56.61886
# Shear Modulus (GPa) = 25.87785 28.97660 27.42723
#
# Velocity S-wave (km/s) = 3.52372 3.72873 3.62767
# Velocity P-wave (km/s) = 6.58418 6.78787 6.68680
#
# Compressibility (1/GPa) = 0.01790628
#
# Stress axis : x y z
#
# Youngs Moduli (GPa) = 82.38611 82.38611 63.12776
#
# Poissons Ratio (x) = 0.30165 0.23496
# Poissons Ratio (y) = 0.30165 0.23496
# Poissons Ratio (z) = 0.30663 0.30663
#
# Static dielectric constant tensor:
#      x y z
#    x 1.825210 0.000000 0.000000 
#    y 0.000000 1.825210 0.000000 
#    z 0.000000 0.000000 1.835670 
# 
# From -- ./inp_files/8928.got.cif
#   From: 2010.05.17/outbox.cif.g08.bks.cpg/sg136_5_cif.got.tgz:8928.got - 2010.05.20 12:54:53.
