data_PCOD9569844
_publ_section_title
;
Structure prediction by ZEFSAII (Michael W. Deem and Ramdas Pophale) SiO2 
 PCOD9569844
Probable space group: P 42/M N M
;
_chemical_formula_sum "Si O2"
_cell_formula_units_Z 96
_cell_length_a 14.610083
_cell_length_b 14.610083
_cell_length_c 21.204041
_cell_angle_alpha 90.000000
_cell_angle_beta 90.000000
_cell_angle_gamma 90.000000
_cell_volume 4526.098505
_symmetry_space_group_name_H-M "P 42/M N M"
_symmetry_group_IT_number 136
_symmetry_cell_setting 'tetragonal'
loop_
_space_group_symop_operation_xyz
x,y,z
1/2-y,1/2+x,1/2+z
-x,-y,z
1/2+y,1/2-x,1/2+z
1/2+x,1/2-y,1/2-z
1/2-x,1/2+y,1/2-z
y,x,-z
-y,-x,-z
-x,-y,-z
1/2+y,1/2-x,1/2-z
x,y,-z
1/2-y,1/2+x,1/2-z
1/2-x,1/2+y,1/2+z
1/2+x,1/2-y,1/2+z
-y,-x,z
y,x,z
loop_
_atom_site_type_symbol
_atom_site_label
_atom_site_fract_x
_atom_site_fract_y
_atom_site_fract_z
Si Si1 0.152539 0.999590 0.500000
Si Si2 0.557107 0.142475 0.238779
Si Si3 0.097566 0.547975 0.572770
Si Si4 0.344187 0.344187 0.819049
Si Si5 0.923546 0.076455 0.194298
Si Si6 0.037771 0.242165 0.143290
Si Si7 0.725838 0.274163 0.575633
Si Si8 0.993663 0.271009 0.378125
O O1 0.101191 0.898810 0.500000
O O2 0.217717 0.018117 0.559106
O O3 0.070983 0.070983 0.500000
O O4 0.449442 0.113760 0.246567
O O5 0.576732 0.220942 0.290031
O O6 0.565869 0.183305 0.169051
O O7 0.123339 0.554261 0.500000
O O8 0.168815 0.489539 0.613701
O O9 0.075518 0.648063 0.601018
O O10 0.000000 0.500000 0.576444
O O11 0.362937 0.362937 0.744276
O O12 0.281256 0.281256 0.868246
O O13 0.306758 0.442511 0.838272
O O14 0.980939 0.151271 0.154661
O O15 0.000000 0.000000 0.218053
O O16 0.118988 0.236042 0.092617
O O17 0.744913 0.255088 0.500000
#
# Coordination Sequence:
#
# PCOD9569844 Si02
#       8
#     8  16  16   8   8  16   8  16
#     4  11  26  44  65  94 136 183 228 272 346 434
#     4  11  22  40  69 103 142 174 227 290 363 436
#     4  11  23  42  73 103 138 181 237 302 374 433
#     4  12  24  40  70 100 136 181 228 307 357 415
#     4  12  28  50  66 102 161 204 245 297 385 465
#     4  12  24  44  68 103 145 191 243 309 366 443
#     4  12  26  45  76 109 136 189 260 314 365 430
#     4  12  22  39  67 100 132 175 227 286 344 422
#
# _framework density 21.210321
#
# number of rings (size 3 to 8) (size 9 to 14) (size 15 to 20)
#    0.000    0.417    7.500    1.500    1.167    0.667 
#    1.500    2.083    5.500    0.000    0.000    0.000 
#    0.000    0.000    0.000    0.000    0.000    0.000 
#
# Total GULP energy -534742.434451 kJ/mol
# GULP energy per Si atom -5570.233692 kJ/mol
# Density = 2.116205 g / cm^3
# Si number density = 21.210321 Si / 1000 Ang^3
#
#
#
# Elastic Constant Matrix: (Units=GPa)
#
#
# Indices 1 2 3 4 5 6 
#
# 1 59.4839 33.5778 45.3685 0.0000 0.0000 0.0000
# 2 33.5778 59.4850 45.3690 0.0000 0.0000 0.0000
# 3 45.3685 45.3690 139.6964 0.0000 0.0000 0.0000
# 4 0.0000 0.0000 0.0000 50.3088 0.0000 0.0000
# 5 0.0000 0.0000 0.0000 0.0000 50.3045 0.0000
# 6 0.0000 0.0000 0.0000 0.0000 0.0000 31.8202
#
#
#
# Elastic Compliance Matrix: (Units=1/GPa)
#
#
# Indices 1 2 3 4 5 6 
#
# 1 0.027163 -0.011438 -0.005107 0.000000 0.000000 0.000000
# 2 -0.011438 0.027162 -0.005107 0.000000 0.000000 0.000000
# 3 -0.005107 -0.005107 0.010475 0.000000 0.000000 0.000000
# 4 0.000000 0.000000 0.000000 0.019877 0.000000 0.000000
# 5 0.000000 0.000000 0.000000 0.000000 0.019879 0.000000
# 6 0.000000 0.000000 0.000000 0.000000 0.000000 0.031427
#
#
# Mechanical properties :
#
#
# Convention : Reuss Voigt Hill
#
# Bulk Modulus (GPa) = 46.51697 56.36622 51.44159
# Shear Modulus (GPa) = 26.81658 35.44336 31.12997
#
# Velocity S-wave (km/s) = 3.55958 4.09227 3.83519
# Velocity P-wave (km/s) = 6.23483 6.99725 6.62701
#
# Compressibility (1/GPa) = 0.02149753
#
# Stress axis : x y z
#
# Youngs Moduli (GPa) = 36.81521 36.81589 95.46098
#
# Poissons Ratio (x) = 0.42109 0.48751
# Poissons Ratio (y) = 0.42108 0.48751
# Poissons Ratio (z) = 0.18801 0.18801
#
# Static dielectric constant tensor:
#      x y z
#    x 1.941310 0.000000 0.000000 
#    y 0.000000 1.941310 0.000000 
#    z 0.000000 0.000000 -9.156950 
# 
# From -- ./inp_files/7561.got.cif
#   From: 2010.05.17/outbox.cif.g08.bks.cpg/sg136_4_cif.got.tgz:7561.got - 2010.05.20 12:54:53.
