data_PCOD9569904
_publ_section_title
;
Structure prediction by ZEFSAII (Michael W. Deem and Ramdas Pophale) SiO2 
 PCOD9569904
Probable space group: P 42/M N M
;
_chemical_formula_sum "Si O2"
_cell_formula_units_Z 112
_cell_length_a 24.000000
_cell_length_b 24.000000
_cell_length_c 12.000000
_cell_angle_alpha 90.000000
_cell_angle_beta 90.000000
_cell_angle_gamma 90.000000
_cell_volume 6912.000000
_symmetry_space_group_name_H-M "P 42/M N M"
_symmetry_group_IT_number 136
_symmetry_cell_setting 'tetragonal'
loop_
_space_group_symop_operation_xyz
x,y,z
1/2-y,1/2+x,1/2+z
-x,-y,z
1/2+y,1/2-x,1/2+z
1/2+x,1/2-y,1/2-z
1/2-x,1/2+y,1/2-z
y,x,-z
-y,-x,-z
-x,-y,-z
1/2+y,1/2-x,1/2-z
x,y,-z
1/2-y,1/2+x,1/2-z
1/2-x,1/2+y,1/2+z
1/2+x,1/2-y,1/2+z
-y,-x,z
y,x,z
loop_
_atom_site_type_symbol
_atom_site_label
_atom_site_fract_x
_atom_site_fract_y
_atom_site_fract_z
Si Si1 0.821777 0.677824 0.867862
Si Si2 0.713725 0.191773 0.000000
Si Si3 0.870532 0.562620 0.781153
Si Si4 0.762521 0.412531 0.226566
Si Si5 0.764291 0.524421 0.363738
Si Si6 0.948080 0.619193 0.376055
Si Si7 0.716107 0.377994 0.000000
Si Si8 0.360337 0.269087 0.294301
O O1 0.853548 0.619710 0.841999
O O2 0.855590 0.725146 0.797131
O O3 0.761026 0.663198 0.816480
O O4 0.820725 0.689659 0.000000
O O5 0.658184 0.226883 0.000000
O O6 0.724436 0.155935 0.109247
O O7 0.762145 0.237856 0.000000
O O8 0.823311 0.542298 0.692871
O O9 0.878594 0.514181 0.869155
O O10 0.924948 0.574418 0.709495
O O11 0.750484 0.463539 0.311935
O O12 0.821140 0.426966 0.167274
O O13 0.720109 0.407927 0.121284
O O14 0.764862 0.524233 0.500000
O O15 0.724784 0.573538 0.312991
O O16 0.927312 0.608899 0.500000
O O17 0.664144 0.335857 0.000000
O O18 0.325479 0.325479 0.311940
#
# Coordination Sequence:
#
# PCOD9569904 Si02
#       8
#    16   8  16  16  16  16   8  16
#     4  10  19  31  46  66  99 134 168 207 253 306
#     4   9  16  28  50  76 100 122 161 208 242 280
#     4   9  20  30  45  66  83 122 170 210 254 291
#     4  10  20  32  50  73  94 128 164 202 251 300
#     4  10  19  32  49  71  99 129 163 202 246 303
#     4  10  18  32  47  60  87 118 159 209 251 291
#     4  11  20  34  56  78  99 124 168 215 250 299
#     4  10  19  31  50  76 102 134 170 205 249 297
#
# _framework density 16.203703999999998
#
# number of rings (size 3 to 8) (size 9 to 14) (size 15 to 20)
#    0.000    2.143    2.857    1.286    0.000    0.571 
#    1.286    2.857    0.000    1.286    0.000    0.000 
#    0.000    1.143    0.000    1.286    0.000    0.000 
#
# Total GULP energy -623624.510280 kJ/mol
# GULP energy per Si atom -5568.075985 kJ/mol
# Density = 1.616682 g / cm^3
# Si number density = 16.203704 Si / 1000 Ang^3
#
#
#
# Elastic Constant Matrix: (Units=GPa)
#
#
# Indices 1 2 3 4 5 6 
#
# 1 41.6643 17.1219 19.7596 0.0000 0.0000 0.0000
# 2 17.1219 41.6644 19.7598 0.0000 0.0000 0.0000
# 3 19.7596 19.7598 118.1545 0.0000 0.0000 0.0000
# 4 0.0000 0.0000 0.0000 18.7943 0.0000 0.0000
# 5 0.0000 0.0000 0.0000 0.0000 18.7946 0.0000
# 6 0.0000 0.0000 0.0000 0.0000 0.0000 14.4524
#
#
#
# Elastic Compliance Matrix: (Units=1/GPa)
#
#
# Indices 1 2 3 4 5 6 
#
# 1 0.029956 -0.010790 -0.003205 0.000000 0.000000 0.000000
# 2 -0.010790 0.029956 -0.003205 0.000000 0.000000 0.000000
# 3 -0.003205 -0.003205 0.009536 0.000000 0.000000 0.000000
# 4 0.000000 0.000000 0.000000 0.053208 0.000000 0.000000
# 5 0.000000 0.000000 0.000000 0.000000 0.053207 0.000000
# 6 0.000000 0.000000 0.000000 0.000000 0.000000 0.069193
#
#
# Mechanical properties :
#
#
# Convention : Reuss Voigt Hill
#
# Bulk Modulus (GPa) = 28.53408 34.97400 31.75404
# Shear Modulus (GPa) = 17.17406 20.06438 18.61922
#
# Velocity S-wave (km/s) = 3.25912 3.52271 3.39347
# Velocity P-wave (km/s) = 5.64006 6.17874 5.91553
#
# Compressibility (1/GPa) = 0.03504581
#
# Stress axis : x y z
#
# Youngs Moduli (GPa) = 33.38269 33.38276 104.87096
#
# Poissons Ratio (x) = 0.36021 0.33613
# Poissons Ratio (y) = 0.36020 0.33613
# Poissons Ratio (z) = 0.10700 0.10700
#
# Static dielectric constant tensor:
#      x y z
#    x 1.555270 0.000000 0.000000 
#    y 0.000000 1.555270 0.000000 
#    z 0.000000 0.000000 1.563440 
# 
# From -- ./inp_files/4047.got.cif
#   From: 2010.05.17/outbox.ucp.g08.bks.cvg/sg136_3_cif.got.tgz:4047.got - 2010.06.11 11:40:42.
