data_PCOD9569812
_publ_section_title
;
Structure prediction by ZEFSAII (Michael W. Deem and Ramdas Pophale) SiO2 
 PCOD9569812
Probable space group: P 42/M N M
;
_chemical_formula_sum "Si O2"
_cell_formula_units_Z 88
_cell_length_a 13.164812
_cell_length_b 13.164812
_cell_length_c 26.526544
_cell_angle_alpha 90.000000
_cell_angle_beta 90.000000
_cell_angle_gamma 90.000000
_cell_volume 4597.375688
_symmetry_space_group_name_H-M "P 42/M N M"
_symmetry_group_IT_number 136
_symmetry_cell_setting 'tetragonal'
loop_
_space_group_symop_operation_xyz
x,y,z
1/2-y,1/2+x,1/2+z
-x,-y,z
1/2+y,1/2-x,1/2+z
1/2+x,1/2-y,1/2-z
1/2-x,1/2+y,1/2-z
y,x,-z
-y,-x,-z
-x,-y,-z
1/2+y,1/2-x,1/2-z
x,y,-z
1/2-y,1/2+x,1/2-z
1/2-x,1/2+y,1/2+z
1/2+x,1/2-y,1/2+z
-y,-x,z
y,x,z
loop_
_atom_site_type_symbol
_atom_site_label
_atom_site_fract_x
_atom_site_fract_y
_atom_site_fract_z
Si Si1 0.660451 0.498182 0.288064
Si Si2 0.422040 0.577961 0.441374
Si Si3 0.036928 0.618164 0.441608
Si Si4 0.722910 0.965199 0.114077
Si Si5 0.634769 0.189957 0.127511
Si Si6 0.495720 0.851275 0.771062
O O1 0.584274 0.415727 0.265039
O O2 0.591974 0.591974 0.306149
O O3 0.719982 0.446038 0.333641
O O4 0.743826 0.533181 0.248722
O O5 0.500000 0.500000 0.415286
O O6 0.430871 0.569130 0.500000
O O7 0.309121 0.549367 0.426978
O O8 0.060583 0.645747 0.500000
O O9 0.131208 0.607502 0.402954
O O10 0.000000 0.500000 0.443175
O O11 0.950597 0.689824 0.416829
O O12 0.691864 0.083402 0.117466
O O13 0.714898 0.285103 0.129477
O O14 0.572541 0.168662 0.179708
O O15 0.591998 0.926566 0.771828
#
# Coordination Sequence:
#
# PCOD9569812 Si02
#       6
#    16   8  16  16  16  16
#     4  11  22  36  56  83 118 157 194 242 301 361
#     4  11  22  34  54  88 127 161 201 247 299 369
#     4   9  20  37  57  81 112 150 193 244 300 353
#     4  11  20  36  57  82 118 160 197 240 297 366
#     4  11  22  37  61  88 115 153 201 252 301 360
#     4  11  23  37  58  85 118 156 199 247 299 359
#
# _framework density 19.141355999999998
#
# number of rings (size 3 to 8) (size 9 to 14) (size 15 to 20)
#    0.000    1.364    2.727    3.818    5.091    1.818 
#    0.000    0.000    0.000    0.000    0.000    0.000 
#    0.000    2.182    0.000    0.000    0.000    0.000 
#
# Total GULP energy -490161.357563 kJ/mol
# GULP energy per Si atom -5570.015427 kJ/mol
# Density = 1.909779 g / cm^3
# Si number density = 19.141356 Si / 1000 Ang^3
#
#
#
# Elastic Constant Matrix: (Units=GPa)
#
#
# Indices 1 2 3 4 5 6 
#
# 1 87.2519 23.1676 22.8886 0.0000 0.0000 0.0000
# 2 23.1676 87.2519 22.8885 0.0000 0.0000 0.0000
# 3 22.8886 22.8885 68.1690 0.0000 0.0000 0.0000
# 4 0.0000 0.0000 0.0000 25.1527 0.0000 0.0000
# 5 0.0000 0.0000 0.0000 0.0000 25.1530 0.0000
# 6 0.0000 0.0000 0.0000 0.0000 0.0000 25.2993
#
#
#
# Elastic Compliance Matrix: (Units=1/GPa)
#
#
# Indices 1 2 3 4 5 6 
#
# 1 0.013063 -0.002542 -0.003533 0.000000 0.000000 0.000000
# 2 -0.002542 0.013063 -0.003532 0.000000 0.000000 0.000000
# 3 -0.003533 -0.003532 0.017042 0.000000 0.000000 0.000000
# 4 0.000000 0.000000 0.000000 0.039757 0.000000 0.000000
# 5 0.000000 0.000000 0.000000 0.000000 0.039757 0.000000
# 6 0.000000 0.000000 0.000000 0.000000 0.000000 0.039527
#
#
# Mechanical properties :
#
#
# Convention : Reuss Voigt Hill
#
# Bulk Modulus (GPa) = 41.74791 42.28467 42.01629
# Shear Modulus (GPa) = 26.39839 26.70288 26.55063
#
# Velocity S-wave (km/s) = 3.71769 3.73907 3.72840
# Velocity P-wave (km/s) = 6.34712 6.38589 6.36653
#
# Compressibility (1/GPa) = 0.02395329
#
# Stress axis : x y z
#
# Youngs Moduli (GPa) = 76.55416 76.55420 58.68006
#
# Poissons Ratio (x) = 0.19458 0.20729
# Poissons Ratio (y) = 0.19458 0.20729
# Poissons Ratio (z) = 0.27043 0.27043
#
# Static dielectric constant tensor:
#      x y z
#    x 1.669870 0.000000 0.000000 
#    y 0.000000 1.669870 0.000000 
#    z 0.000000 0.000000 1.703580 
# 
# From -- ./inp_files/9691.got.cif
#   From: 2010.05.17/outbox.cif.g08.bks.cpg/sg136_5_cif.got.tgz:9691.got - 2010.05.20 12:54:53.
