data_PCOD9569536
_publ_section_title
;
Structure prediction by ZEFSAII (Michael W. Deem and Ramdas Pophale) SiO2 
 PCOD9569536
Probable space group: P 42/M N M
;
_chemical_formula_sum "Si O2"
_cell_formula_units_Z 120
_cell_length_a 14.402516
_cell_length_b 14.402516
_cell_length_c 30.923366
_cell_angle_alpha 90.000000
_cell_angle_beta 90.000000
_cell_angle_gamma 90.000000
_cell_volume 6414.510101
_symmetry_space_group_name_H-M "P 42/M N M"
_symmetry_group_IT_number 136
_symmetry_cell_setting 'tetragonal'
loop_
_space_group_symop_operation_xyz
x,y,z
1/2-y,1/2+x,1/2+z
-x,-y,z
1/2+y,1/2-x,1/2+z
1/2+x,1/2-y,1/2-z
1/2-x,1/2+y,1/2-z
y,x,-z
-y,-x,-z
-x,-y,-z
1/2+y,1/2-x,1/2-z
x,y,-z
1/2-y,1/2+x,1/2-z
1/2-x,1/2+y,1/2+z
1/2+x,1/2-y,1/2+z
-y,-x,z
y,x,z
loop_
_atom_site_type_symbol
_atom_site_label
_atom_site_fract_x
_atom_site_fract_y
_atom_site_fract_z
Si Si1 0.607380 0.987916 0.450031
Si Si2 0.665864 0.809869 0.911421
Si Si3 0.784975 0.060460 0.332604
Si Si4 0.879667 0.731602 0.618527
Si Si5 0.024432 0.655103 0.750331
Si Si6 0.652664 0.496583 0.500000
Si Si7 0.184950 0.032017 0.905861
Si Si8 0.744357 0.598814 0.670333
O O1 0.608973 0.958162 0.500000
O O2 0.666265 0.922058 0.418609
O O3 0.500000 0.000000 0.436208
O O4 0.653689 0.088502 0.443816
O O5 0.725357 0.725357 0.930367
O O6 0.619259 0.774784 0.867258
O O7 0.736862 0.890755 0.899651
O O8 0.880584 0.119417 0.325915
O O9 0.724483 0.045552 0.289346
O O10 0.788438 0.960182 0.356295
O O11 0.804078 0.804078 0.601168
O O12 0.826129 0.663418 0.651416
O O13 0.102446 0.574003 0.752881
O O14 0.030729 0.713677 0.794269
O O15 0.570266 0.570266 0.500000
O O16 0.606477 0.393524 0.500000
O O17 0.701847 0.507100 0.545831
O O18 0.085378 0.085378 0.904867
O O19 0.197916 0.956046 0.869284
O O20 0.667537 0.667537 0.690149
#
# Coordination Sequence:
#
# PCOD9569536 Si02
#       8
#    16  16  16  16  16   8  16  16
#     4  10  21  36  58  87 119 157 200 251 302 357
#     4   9  19  34  56  83 111 147 189 242 298 347
#     4  10  20  39  62  86 115 151 199 250 302 363
#     4  10  22  41  61  85 120 161 201 249 306 359
#     4  11  22  37  61  90 118 152 194 242 301 368
#     4   9  18  32  50  74 109 154 196 230 275 350
#     4  10  20  35  56  83 117 156 196 239 292 358
#     4  11  22  38  58  83 117 153 193 245 296 352
#
# _framework density 18.707585999999999
#
# number of rings (size 3 to 8) (size 9 to 14) (size 15 to 20)
#    0.000    1.933    1.333    2.400    0.933    2.667 
#    1.200    1.333    0.000    1.600    0.000    3.733 
#    0.000    0.000    0.000    0.000    0.000    0.000 
#
# Total GULP energy -669442.511787 kJ/mol
# GULP energy per Si atom -5578.687598 kJ/mol
# Density = 1.866501 g / cm^3
# Si number density = 18.707586 Si / 1000 Ang^3
#
#
#
# Elastic Constant Matrix: (Units=GPa)
#
#
# Indices 1 2 3 4 5 6 
#
# 1 65.8009 41.0729 37.2271 0.0000 0.0000 0.0000
# 2 41.0729 65.8009 37.2272 0.0000 0.0000 0.0000
# 3 37.2271 37.2272 85.2125 0.0000 0.0000 0.0000
# 4 0.0000 0.0000 0.0000 19.6747 0.0000 0.0000
# 5 0.0000 0.0000 0.0000 0.0000 19.6751 0.0000
# 6 0.0000 0.0000 0.0000 0.0000 0.0000 30.6246
#
#
#
# Elastic Compliance Matrix: (Units=1/GPa)
#
#
# Indices 1 2 3 4 5 6 
#
# 1 0.026945 -0.013495 -0.005876 0.000000 0.000000 0.000000
# 2 -0.013495 0.026945 -0.005876 0.000000 0.000000 0.000000
# 3 -0.005876 -0.005876 0.016870 0.000000 0.000000 0.000000
# 4 0.000000 0.000000 0.000000 0.050827 0.000000 0.000000
# 5 0.000000 0.000000 0.000000 0.000000 0.050826 0.000000
# 6 0.000000 0.000000 0.000000 0.000000 0.000000 0.032653
#
#
# Mechanical properties :
#
#
# Convention : Reuss Voigt Hill
#
# Bulk Modulus (GPa) = 49.34384 49.76321 49.55352
# Shear Modulus (GPa) = 19.06100 20.74734 19.90417
#
# Velocity S-wave (km/s) = 3.19547 3.33383 3.26538
# Velocity P-wave (km/s) = 6.32838 6.44030 6.38459
#
# Compressibility (1/GPa) = 0.02026596
#
# Stress axis : x y z
#
# Youngs Moduli (GPa) = 37.11237 37.11227 59.27791
#
# Poissons Ratio (x) = 0.50082 0.34833
# Poissons Ratio (y) = 0.50082 0.34833
# Poissons Ratio (z) = 0.21808 0.21808
#
# Static dielectric constant tensor:
#      x y z
#    x 1.655890 0.000000 0.000000 
#    y 0.000000 1.655890 0.000000 
#    z 0.000000 0.000000 1.633900 
# 
# From -- ./inp_files/10042.got.cif
#   From: 2010.05.17/outbox.cif.g08.bks.cpg/sg136_6_cif.got.tgz:10042.got - 2010.05.20 12:54:53.
