data_PCOD9569093
_publ_section_title
;
Structure prediction by ZEFSAII (Michael W. Deem and Ramdas Pophale) SiO2 
 PCOD9569093
Probable space group: P 42/M N M
;
_chemical_formula_sum "Si O2"
_cell_formula_units_Z 112
_cell_length_a 16.594520
_cell_length_b 16.594520
_cell_length_c 19.771329
_cell_angle_alpha 90.000000
_cell_angle_beta 90.000000
_cell_angle_gamma 90.000000
_cell_volume 5444.590896
_symmetry_space_group_name_H-M "P 42/M N M"
_symmetry_group_IT_number 136
_symmetry_cell_setting 'tetragonal'
loop_
_space_group_symop_operation_xyz
x,y,z
1/2-y,1/2+x,1/2+z
-x,-y,z
1/2+y,1/2-x,1/2+z
1/2+x,1/2-y,1/2-z
1/2-x,1/2+y,1/2-z
y,x,-z
-y,-x,-z
-x,-y,-z
1/2+y,1/2-x,1/2-z
x,y,-z
1/2-y,1/2+x,1/2-z
1/2-x,1/2+y,1/2+z
1/2+x,1/2-y,1/2+z
-y,-x,z
y,x,z
loop_
_atom_site_type_symbol
_atom_site_label
_atom_site_fract_x
_atom_site_fract_y
_atom_site_fract_z
Si Si1 0.260488 0.399499 0.922110
Si Si2 0.598381 0.128341 0.256476
Si Si3 0.632897 0.496068 0.168747
Si Si4 0.535704 0.755770 0.425138
Si Si5 0.271957 0.138417 0.130609
Si Si6 0.038423 0.574725 0.866021
Si Si7 0.589441 0.718157 0.720560
O O1 0.330119 0.330119 0.919018
O O2 0.297005 0.475858 0.882744
O O3 0.181699 0.355657 0.891726
O O4 0.245680 0.419028 0.000000
O O5 0.613246 0.214034 0.291509
O O6 0.532532 0.092156 0.309298
O O7 0.689276 0.093341 0.245387
O O8 0.562307 0.116325 0.181676
O O9 0.591316 0.408685 0.163163
O O10 0.560332 0.560332 0.157368
O O11 0.669437 0.519462 0.241480
O O12 0.558092 0.728244 0.500000
O O13 0.439638 0.752073 0.413180
O O14 0.553360 0.850371 0.413796
O O15 0.576325 0.715577 0.359785
O O16 0.202683 0.202683 0.123176
O O17 0.000000 0.500000 0.904105
O O18 0.672292 0.672292 0.739260
#
# Coordination Sequence:
#
# PCOD9569093 Si02
#       7
#    16  16  16  16  16  16  16
#     4   9  16  27  46  72 103 138 170 210 271 330
#     4  10  16  29  53  82 108 135 174 214 271 331
#     4   9  17  30  48  72 102 137 182 228 270 323
#     4  10  23  36  52  80 107 141 187 230 277 330
#     4  10  19  32  52  76 110 145 178 227 279 328
#     4  10  18  32  55  81 114 140 159 212 276 337
#     4  10  20  35  55  76 105 145 190 238 278 322
#
# _framework density 20.570875999999998
#
# number of rings (size 3 to 8) (size 9 to 14) (size 15 to 20)
#    0.000    2.286    2.857    0.857    0.000    2.286 
#    0.000    1.429    0.000    0.000    0.000    3.000 
#    0.000    2.286    0.000    0.000    0.000    0.000 
#
# Total GULP energy -623886.142443 kJ/mol
# GULP energy per Si atom -5570.411986 kJ/mol
# Density = 2.052406 g / cm^3
# Si number density = 20.570876 Si / 1000 Ang^3
#
#
#
# Elastic Constant Matrix: (Units=GPa)
#
#
# Indices 1 2 3 4 5 6 
#
# 1 59.3192 8.6630 14.7195 0.0000 0.0000 0.0000
# 2 8.6630 59.3192 14.7195 0.0000 0.0000 0.0000
# 3 14.7195 14.7195 96.5182 0.0000 0.0000 0.0000
# 4 0.0000 0.0000 0.0000 13.2593 0.0000 0.0000
# 5 0.0000 0.0000 0.0000 0.0000 13.2593 0.0000
# 6 0.0000 0.0000 0.0000 0.0000 0.0000 23.2522
#
#
#
# Elastic Compliance Matrix: (Units=1/GPa)
#
#
# Indices 1 2 3 4 5 6 
#
# 1 0.017745 -0.001996 -0.002402 0.000000 0.000000 0.000000
# 2 -0.001996 0.017745 -0.002402 0.000000 0.000000 0.000000
# 3 -0.002402 -0.002402 0.011093 0.000000 0.000000 0.000000
# 4 0.000000 0.000000 0.000000 0.075419 0.000000 0.000000
# 5 0.000000 0.000000 0.000000 0.000000 0.075419 0.000000
# 6 0.000000 0.000000 0.000000 0.000000 0.000000 0.043007
#
#
# Mechanical properties :
#
#
# Convention : Reuss Voigt Hill
#
# Bulk Modulus (GPa) = 30.31650 32.37342 31.34496
# Shear Modulus (GPa) = 18.86632 21.75778 20.31205
#
# Velocity S-wave (km/s) = 3.03171 3.25576 3.14573
# Velocity P-wave (km/s) = 5.19852 5.46854 5.33524
#
# Compressibility (1/GPa) = 0.03298534
#
# Stress axis : x y z
#
# Youngs Moduli (GPa) = 56.35261 56.35261 90.14411
#
# Poissons Ratio (x) = 0.11245 0.21652
# Poissons Ratio (y) = 0.11245 0.21652
# Poissons Ratio (z) = 0.13536 0.13536
#
# Static dielectric constant tensor:
#      x y z
#    x 1.791930 0.000000 0.000000 
#    y 0.000000 1.791930 0.000000 
#    z 0.000000 0.000000 1.749760 
# 
# From -- ./inp_files/7738.got.cif
#   From: 2010.05.17/outbox.cif.g08.bks.cpg/sg136_4_cif.got.tgz:7738.got - 2010.05.20 12:54:53.
