data_PCOD9569754
_publ_section_title
;
Structure prediction by ZEFSAII (Michael W. Deem and Ramdas Pophale) SiO2 
 PCOD9569754
Probable space group: P 42/M N M
;
_chemical_formula_sum "Si O2"
_cell_formula_units_Z 96
_cell_length_a 15.310874
_cell_length_b 15.310874
_cell_length_c 19.373321
_cell_angle_alpha 90.000000
_cell_angle_beta 90.000000
_cell_angle_gamma 90.000000
_cell_volume 4541.549368
_symmetry_space_group_name_H-M "P 42/M N M"
_symmetry_group_IT_number 136
_symmetry_cell_setting 'tetragonal'
loop_
_space_group_symop_operation_xyz
x,y,z
1/2-y,1/2+x,1/2+z
-x,-y,z
1/2+y,1/2-x,1/2+z
1/2+x,1/2-y,1/2-z
1/2-x,1/2+y,1/2-z
y,x,-z
-y,-x,-z
-x,-y,-z
1/2+y,1/2-x,1/2-z
x,y,-z
1/2-y,1/2+x,1/2-z
1/2-x,1/2+y,1/2+z
1/2+x,1/2-y,1/2+z
-y,-x,z
y,x,z
loop_
_atom_site_type_symbol
_atom_site_label
_atom_site_fract_x
_atom_site_fract_y
_atom_site_fract_z
Si Si1 0.530697 0.671335 0.678640
Si Si2 0.422375 0.949023 0.923643
Si Si3 0.946724 0.809278 0.680231
Si Si4 0.175850 0.686011 0.836617
Si Si5 0.272575 0.092933 0.078598
Si Si6 0.253872 0.397432 0.919021
O O1 0.591701 0.591701 0.652591
O O2 0.494130 0.651024 0.753736
O O3 0.596465 0.754624 0.690435
O O4 0.451976 0.700595 0.627952
O O5 0.379974 0.865473 0.890554
O O6 0.500000 0.000000 0.885386
O O7 0.345110 0.018006 0.927180
O O8 0.454881 0.925944 0.000000
O O9 0.884163 0.884163 0.647890
O O10 0.879539 0.734376 0.708783
O O11 0.018240 0.767492 0.629003
O O12 0.243939 0.756062 0.866894
O O13 0.328225 0.177663 0.102551
O O14 0.241469 0.109415 0.000000
O O15 0.343216 0.343216 0.915559
O O16 0.236945 0.418763 0.000000
#
# Coordination Sequence:
#
# PCOD9569754 Si02
#       6
#    16  16  16  16  16  16
#     4  10  22  39  60  88 124 164 208 259 315 374
#     4   9  16  29  52  81 115 149 185 238 297 355
#     4  11  24  40  61  88 121 163 210 259 315 375
#     4   9  20  37  54  79 113 152 197 244 299 364
#     4   9  19  36  60  89 119 158 205 253 311 373
#     4  10  22  40  63  90 122 164 211 259 314 376
#
# _framework density 21.138161
#
# number of rings (size 3 to 8) (size 9 to 14) (size 15 to 20)
#    0.000    2.333    0.000    1.500    2.333    5.000 
#    0.000    5.833    0.000    0.000    0.000    3.500 
#    0.000    0.000    0.000    0.000    0.000    0.000 
#
# Total GULP energy -534581.565816 kJ/mol
# GULP energy per Si atom -5568.557977 kJ/mol
# Density = 2.109005 g / cm^3
# Si number density = 21.138161 Si / 1000 Ang^3
#
#
#
# Elastic Constant Matrix: (Units=GPa)
#
#
# Indices 1 2 3 4 5 6 
#
# 1 87.6581 76.9372 34.9565 0.0000 0.0000 0.0000
# 2 76.9372 87.6581 34.9565 0.0000 0.0000 0.0000
# 3 34.9565 34.9565 47.8591 0.0000 0.0000 0.0000
# 4 0.0000 0.0000 0.0000 6.1001 0.0000 0.0000
# 5 0.0000 0.0000 0.0000 0.0000 6.1001 0.0000
# 6 0.0000 0.0000 0.0000 0.0000 0.0000 43.6309
#
#
#
# Elastic Compliance Matrix: (Units=1/GPa)
#
#
# Indices 1 2 3 4 5 6 
#
# 1 0.051042 -0.042233 -0.006434 0.000000 0.000000 0.000000
# 2 -0.042233 0.051042 -0.006434 0.000000 0.000000 0.000000
# 3 -0.006434 -0.006434 0.030293 0.000000 0.000000 0.000000
# 4 0.000000 0.000000 0.000000 0.163932 0.000000 0.000000
# 5 0.000000 0.000000 0.000000 0.000000 0.163932 0.000000
# 6 0.000000 0.000000 0.000000 0.000000 0.000000 0.022920
#
#
# Mechanical properties :
#
#
# Convention : Reuss Voigt Hill
#
# Bulk Modulus (GPa) = 45.09570 57.43063 51.26316
# Shear Modulus (GPa) = 8.32289 16.25457 12.28873
#
# Velocity S-wave (km/s) = 1.98644 2.77604 2.41374
# Velocity P-wave (km/s) = 5.16152 6.12399 5.66324
#
# Compressibility (1/GPa) = 0.02217506
#
# Stress axis : x y z
#
# Youngs Moduli (GPa) = 19.59186 19.59186 33.01110
#
# Poissons Ratio (x) = 0.82743 0.21238
# Poissons Ratio (y) = 0.82743 0.21238
# Poissons Ratio (z) = 0.12605 0.12605
#
# Static dielectric constant tensor:
#      x y z
#    x 1.840100 0.000000 0.000000 
#    y 0.000000 1.840100 0.000000 
#    z 0.000000 0.000000 1.747440 
# 
# From -- ./inp_files/7505.got.cif
#   From: 2010.05.17/outbox.cif.g08.bks.cpg/sg136_4_cif.got.tgz:7505.got - 2010.05.20 12:54:53.
