data_PCOD9569065
_publ_section_title
;
Structure prediction by ZEFSAII (Michael W. Deem and Ramdas Pophale) SiO2 
 PCOD9569065
Probable space group: P 42/M B C
;
_chemical_formula_sum "Si O2"
_cell_formula_units_Z 112
_cell_length_a 18.000000
_cell_length_b 18.000000
_cell_length_c 21.000000
_cell_angle_alpha 90.000000
_cell_angle_beta 90.000000
_cell_angle_gamma 90.000000
_cell_volume 6804.000000
_symmetry_space_group_name_H-M "P 42/M B C"
_symmetry_group_IT_number 135
_symmetry_cell_setting 'tetragonal'
loop_
_space_group_symop_operation_xyz
x,y,z
-y,x,1/2+z
-x,-y,z
y,-x,1/2+z
1/2+x,1/2-y,-z
1/2-x,1/2+y,-z
1/2+y,1/2+x,1/2-z
1/2-y,1/2-x,1/2-z
-x,-y,-z
y,-x,1/2-z
x,y,-z
-y,x,1/2-z
1/2-x,1/2+y,z
1/2+x,1/2-y,z
1/2-y,1/2-x,1/2+z
1/2+y,1/2+x,1/2+z
loop_
_atom_site_type_symbol
_atom_site_label
_atom_site_fract_x
_atom_site_fract_y
_atom_site_fract_z
Si Si1 0.913285 0.482538 0.077066
Si Si2 0.060440 0.259556 0.573918
Si Si3 0.170423 0.673620 0.422837
Si Si4 0.583694 0.506648 0.574285
Si Si5 0.565912 0.606087 0.744553
Si Si6 0.832386 0.864107 0.630939
Si Si7 0.589322 0.674973 0.392005
O O1 0.843851 0.537721 0.096507
O O2 0.881530 0.399577 0.092825
O O3 0.000000 0.500000 0.097686
O O4 0.914632 0.486545 0.000000
O O5 0.083011 0.265746 0.500000
O O6 0.121849 0.209806 0.609963
O O7 0.985571 0.209343 0.577501
O O8 0.179366 0.672691 0.500000
O O9 0.246734 0.648197 0.389055
O O10 0.147901 0.758102 0.402400
O O11 0.500000 0.500000 0.603593
O O12 0.576517 0.491792 0.500000
O O13 0.634853 0.439661 0.598829
O O14 0.609066 0.592579 0.581636
O O15 0.596464 0.521303 0.736278
O O16 0.616283 0.648410 0.796205
O O17 0.571002 0.654530 0.680797
#
# Coordination Sequence:
#
# PCOD9569065 Si02
#       7
#    16  16  16  16  16  16  16
#     4   8  16  34  57  78 107 150 193 230 278 352
#     4  10  18  31  55  84 112 147 189 235 295 355
#     4  10  22  38  56  84 119 148 194 253 304 353
#     4  11  19  30  53  83 113 146 187 233 297 363
#     4  11  21  37  57  84 119 156 201 237 278 360
#     4  12  22  35  54  84 120 151 185 248 302 351
#     4  11  20  36  56  79 111 155 193 233 290 357
#
# _framework density 16.460905
#
# number of rings (size 3 to 8) (size 9 to 14) (size 15 to 20)
#    0.000    1.571    4.286    3.429    0.000    0.571 
#    2.571    0.000    0.000    0.000    0.000    4.000 
#    0.000    0.000    0.000    0.000    0.000    0.000 
#
# Total GULP energy -623842.569959 kJ/mol
# GULP energy per Si atom -5570.022946 kJ/mol
# Density = 1.642344 g / cm^3
# Si number density = 16.460905 Si / 1000 Ang^3
#
#
#
# Elastic Constant Matrix: (Units=GPa)
#
#
# Indices 1 2 3 4 5 6 
#
# 1 119.4089 48.4549 15.3733 0.0000 0.0000 0.0000
# 2 48.4549 119.4089 15.3733 0.0000 0.0000 0.0000
# 3 15.3733 15.3733 60.3737 0.0000 0.0000 0.0000
# 4 0.0000 0.0000 0.0000 23.4469 0.0000 0.0000
# 5 0.0000 0.0000 0.0000 0.0000 23.4469 0.0000
# 6 0.0000 0.0000 0.0000 0.0000 0.0000 34.7113
#
#
#
# Elastic Compliance Matrix: (Units=1/GPa)
#
#
# Indices 1 2 3 4 5 6 
#
# 1 0.010171 -0.003923 -0.001591 0.000000 0.000000 0.000000
# 2 -0.003923 0.010171 -0.001591 0.000000 0.000000 0.000000
# 3 -0.001591 -0.001591 0.017374 0.000000 0.000000 0.000000
# 4 0.000000 0.000000 0.000000 0.042650 0.000000 0.000000
# 5 0.000000 0.000000 0.000000 0.000000 0.042650 0.000000
# 6 0.000000 0.000000 0.000000 0.000000 0.000000 0.028809
#
#
# Mechanical properties :
#
#
# Convention : Reuss Voigt Hill
#
# Bulk Modulus (GPa) = 42.54121 50.84381 46.69251
# Shear Modulus (GPa) = 28.75720 30.98700 29.87210
#
# Velocity S-wave (km/s) = 4.18425 4.34344 4.26459
# Velocity P-wave (km/s) = 7.01739 7.49057 7.25784
#
# Compressibility (1/GPa) = 0.02350662
#
# Stress axis : x y z
#
# Youngs Moduli (GPa) = 98.31733 98.31733 57.55785
#
# Poissons Ratio (x) = 0.38565 0.09158
# Poissons Ratio (y) = 0.38565 0.09158
# Poissons Ratio (z) = 0.15644 0.15644
#
# Static dielectric constant tensor:
#      x y z
#    x 1.555810 0.000000 0.000000 
#    y 0.000000 1.555810 0.000000 
#    z 0.000000 0.000000 1.587420 
# 
# From -- ./inp_files/5653.got.cif
#   From: 2010.05.17/outbox.ucp.g08.bks.cvg/sg135_3_cif.got.tgz:5653.got - 2010.06.11 11:40:18.
