data_PCOD9569648
_publ_section_title
;
Structure prediction by ZEFSAII (Michael W. Deem and Ramdas Pophale) SiO2 
 PCOD9569648
Probable space group: P 42/M N M
;
_chemical_formula_sum "Si O2"
_cell_formula_units_Z 80
_cell_length_a 10.971459
_cell_length_b 10.971459
_cell_length_c 33.185554
_cell_angle_alpha 90.000000
_cell_angle_beta 90.000000
_cell_angle_gamma 90.000000
_cell_volume 3994.641791
_symmetry_space_group_name_H-M "P 42/M N M"
_symmetry_group_IT_number 136
_symmetry_cell_setting 'tetragonal'
loop_
_space_group_symop_operation_xyz
x,y,z
1/2-y,1/2+x,1/2+z
-x,-y,z
1/2+y,1/2-x,1/2+z
1/2+x,1/2-y,1/2-z
1/2-x,1/2+y,1/2-z
y,x,-z
-y,-x,-z
-x,-y,-z
1/2+y,1/2-x,1/2-z
x,y,-z
1/2-y,1/2+x,1/2-z
1/2-x,1/2+y,1/2+z
1/2+x,1/2-y,1/2+z
-y,-x,z
y,x,z
loop_
_atom_site_type_symbol
_atom_site_label
_atom_site_fract_x
_atom_site_fract_y
_atom_site_fract_z
Si Si1 0.861356 0.333631 0.608662
Si Si2 0.459654 0.736799 0.173226
Si Si3 0.798281 0.004574 0.762103
Si Si4 0.008988 0.200834 0.452849
Si Si5 0.566784 0.764260 0.650408
O O1 0.741984 0.258017 0.596865
O O2 0.961560 0.311989 0.573885
O O3 0.816052 0.467963 0.619553
O O4 0.921809 0.266180 0.647298
O O5 0.398915 0.601086 0.171494
O O6 0.479964 0.768979 0.220234
O O7 0.360077 0.825617 0.154596
O O8 0.902891 0.902891 0.764224
O O9 0.736164 0.004309 0.805357
O O10 0.864311 0.135690 0.758031
O O11 0.021547 0.230660 0.500000
O O12 0.904161 0.095840 0.449705
O O13 0.133267 0.133267 0.438908
O O14 0.632063 0.632063 0.643350
#
# Coordination Sequence:
#
# PCOD9569648 Si02
#       5
#    16  16  16  16  16
#     4  11  21  33  55  82 108 139 178 223 275 338
#     4  10  21  35  52  75 104 136 177 231 282 328
#     4   9  18  33  51  71  98 134 180 232 279 319
#     4   8  15  30  54  85 116 140 169 221 287 344
#     4  10  22  37  51  71 105 148 188 226 268 325
#
# _framework density 20.026827000000001
#
# number of rings (size 3 to 8) (size 9 to 14) (size 15 to 20)
#    0.000    2.400    0.000    3.000    2.800    3.200 
#    0.000    0.000    0.000    3.000    0.000    5.600 
#    0.000    0.000    0.000    0.000    0.000    0.000 
#
# Total GULP energy -446025.808636 kJ/mol
# GULP energy per Si atom -5575.322608 kJ/mol
# Density = 1.998125 g / cm^3
# Si number density = 20.026827 Si / 1000 Ang^3
#
#
#
# Elastic Constant Matrix: (Units=GPa)
#
#
# Indices 1 2 3 4 5 6 
#
# 1 71.9083 39.1600 42.5601 0.0000 0.0000 0.0000
# 2 39.1600 71.9083 42.5601 0.0000 0.0000 0.0000
# 3 42.5601 42.5601 87.2277 0.0000 0.0000 0.0000
# 4 0.0000 0.0000 0.0000 6.1426 0.0000 0.0000
# 5 0.0000 0.0000 0.0000 0.0000 6.1426 0.0000
# 6 0.0000 0.0000 0.0000 0.0000 0.0000 19.2150
#
#
#
# Elastic Compliance Matrix: (Units=1/GPa)
#
#
# Indices 1 2 3 4 5 6 
#
# 1 0.022458 -0.008077 -0.007017 0.000000 0.000000 0.000000
# 2 -0.008077 0.022458 -0.007017 0.000000 0.000000 0.000000
# 3 -0.007017 -0.007017 0.018311 0.000000 0.000000 0.000000
# 4 0.000000 0.000000 0.000000 0.162797 0.000000 0.000000
# 5 0.000000 0.000000 0.000000 0.000000 0.162797 0.000000
# 6 0.000000 0.000000 0.000000 0.000000 0.000000 0.052043
#
#
# Mechanical properties :
#
#
# Convention : Reuss Voigt Hill
#
# Bulk Modulus (GPa) = 52.61395 53.28943 52.95169
# Shear Modulus (GPa) = 10.17457 13.41768 11.79612
#
# Velocity S-wave (km/s) = 2.25644 2.59122 2.42960
# Velocity P-wave (km/s) = 5.75478 5.96819 5.86245
#
# Compressibility (1/GPa) = 0.01900636
#
# Stress axis : x y z
#
# Youngs Moduli (GPa) = 44.52677 44.52677 54.61060
#
# Poissons Ratio (x) = 0.35966 0.38319
# Poissons Ratio (y) = 0.35966 0.38319
# Poissons Ratio (z) = 0.31243 0.31243
#
# Static dielectric constant tensor:
#      x y z
#    x 1.742010 0.000000 0.000000 
#    y 0.000000 1.742010 0.000000 
#    z 0.000000 0.000000 1.724100 
# 
# From -- ./inp_files/9529.got.cif
#   From: 2010.05.17/outbox.cif.g08.bks.cpg/sg136_5_cif.got.tgz:9529.got - 2010.05.20 12:54:53.
