data_PCOD9569967
_publ_section_title
;
Structure prediction by ZEFSAII (Michael W. Deem and Ramdas Pophale) SiO2 
 PCOD9569967
Probable space group: P 42/N M C
;
_chemical_formula_sum "Si O2"
_cell_formula_units_Z 112
_cell_length_a 14.457928
_cell_length_b 14.457928
_cell_length_c 34.309891
_cell_angle_alpha 90.000000
_cell_angle_beta 90.000000
_cell_angle_gamma 90.000000
_cell_volume 7171.854227
_symmetry_space_group_name_H-M "P 42/N M C"
_symmetry_group_IT_number 137
_space_group.IT_coordinate_system_code '2'
_symmetry_cell_setting 'tetragonal'
loop_
_space_group_symop_operation_xyz
x,y,z
1/2-y,x,1/2+z
1/2-x,1/2-y,z
y,1/2-x,1/2+z
1/2+x,-y,-z
-x,1/2+y,-z
1/2+y,1/2+x,1/2-z
-y,-x,1/2-z
-x,-y,-z
1/2+y,-x,1/2-z
1/2+x,1/2+y,-z
-y,1/2+x,1/2-z
1/2-x,y,z
x,1/2-y,z
1/2-y,1/2-x,1/2+z
y,x,1/2+z
loop_
_atom_site_type_symbol
_atom_site_label
_atom_site_fract_x
_atom_site_fract_y
_atom_site_fract_z
Si Si1 0.857584 0.642510 0.472537
Si Si2 0.022020 0.640850 0.827474
Si Si3 0.029993 0.643008 0.919926
Si Si4 0.527713 0.638739 0.548943
Si Si5 0.361703 0.355221 0.724494
Si Si6 0.644622 0.637760 0.624132
Si Si7 0.861468 0.974471 0.200249
O O1 0.750000 0.635827 0.485743
O O2 0.874125 0.750000 0.462569
O O3 0.868772 0.573578 0.436511
O O4 0.924797 0.615212 0.507910
O O5 0.038291 0.750000 0.819176
O O6 0.033927 0.626473 0.873624
O O7 0.090592 0.573619 0.804246
O O8 0.918166 0.618197 0.813085
O O9 0.056900 0.750000 0.926769
O O10 0.093705 0.571023 0.942758
O O11 0.520183 0.750000 0.550464
O O12 0.594616 0.608719 0.584398
O O13 0.250000 0.348823 0.727124
O O14 0.397295 0.250000 0.723888
O O15 0.390710 0.415170 0.762105
O O16 0.750000 0.604524 0.626701
O O17 0.647744 0.750000 0.623555
O O18 0.584566 0.613005 0.661827
O O19 0.750000 0.984955 0.201314
#
# Coordination Sequence:
#
# PCOD9569967 Si02
#       7
#    16  16  16  16  16  16  16
#     4   9  18  32  50  70  91 120 160 206 251 286
#     4  10  20  32  46  68  99 133 162 188 224 280
#     4  10  20  32  46  67  97 130 162 193 229 282
#     4  10  18  30  47  68  95 125 157 196 238 283
#     4   9  18  32  49  67  89 120 157 198 237 266
#     4   9  16  26  43  67  93 121 152 190 237 280
#     4  10  18  30  47  69  98 128 157 192 230 276
#
# _framework density 15.616603
#
# number of rings (size 3 to 8) (size 9 to 14) (size 15 to 20)
#    0.000    2.429    1.429    1.714    0.000    4.571 
#    0.000    4.286    0.000    2.571    0.000    0.000 
#    0.000   10.857    0.000    0.000    0.000    0.000 
#
# Total GULP energy -623969.661435 kJ/mol
# GULP energy per Si atom -5571.157691 kJ/mol
# Density = 1.558106 g / cm^3
# Si number density = 15.616603 Si / 1000 Ang^3
#
#
#
# Elastic Constant Matrix: (Units=GPa)
#
#
# Indices 1 2 3 4 5 6 
#
# 1 58.9139 30.1268 13.1327 0.0000 0.0000 0.0000
# 2 30.1268 58.9139 13.1327 0.0000 0.0000 0.0000
# 3 13.1327 13.1327 20.0599 0.0000 0.0000 0.0000
# 4 0.0000 0.0000 0.0000 20.4862 0.0000 0.0000
# 5 0.0000 0.0000 0.0000 0.0000 20.4862 0.0000
# 6 0.0000 0.0000 0.0000 0.0000 0.0000 16.1927
#
#
#
# Elastic Compliance Matrix: (Units=1/GPa)
#
#
# Indices 1 2 3 4 5 6 
#
# 1 0.024328 -0.010410 -0.009112 0.000000 0.000000 0.000000
# 2 -0.010410 0.024328 -0.009112 0.000000 0.000000 0.000000
# 3 -0.009112 -0.009112 0.061782 0.000000 0.000000 0.000000
# 4 0.000000 0.000000 0.000000 0.048813 0.000000 0.000000
# 5 0.000000 0.000000 0.000000 0.000000 0.048813 0.000000
# 6 0.000000 0.000000 0.000000 0.000000 0.000000 0.061756
#
#
# Mechanical properties :
#
#
# Convention : Reuss Voigt Hill
#
# Bulk Modulus (GPa) = 18.80746 27.85248 23.32997
# Shear Modulus (GPa) = 14.50061 16.86606 15.68334
#
# Velocity S-wave (km/s) = 3.05050 3.28991 3.17246
# Velocity P-wave (km/s) = 4.94740 5.68377 5.32832
#
# Compressibility (1/GPa) = 0.05317038
#
# Stress axis : x y z
#
# Youngs Moduli (GPa) = 41.10441 41.10441 16.18593
#
# Poissons Ratio (x) = 0.42788 0.14749
# Poissons Ratio (y) = 0.42788 0.14749
# Poissons Ratio (z) = 0.37456 0.37456
#
# Static dielectric constant tensor:
#      x y z
#    x 1.514270 0.000000 0.000000 
#    y 0.000000 1.514270 0.000000 
#    z 0.000000 0.000000 1.524200 
# 
# From -- ./inp_files/10707.got.cif
#   From: 2010.05.17/outbox.cif.g08.bks.cpg/sg137_6_cif.got.tgz:10707.got - 2010.05.20 13:01:12.
