data_PCOD9569621
_publ_section_title
;
Structure prediction by ZEFSAII (Michael W. Deem and Ramdas Pophale) SiO2 
 PCOD9569621
Probable space group: P 42/M N M
;
_chemical_formula_sum "Si O2"
_cell_formula_units_Z 96
_cell_length_a 16.045381
_cell_length_b 16.045381
_cell_length_c 20.125710
_cell_angle_alpha 90.000000
_cell_angle_beta 90.000000
_cell_angle_gamma 90.000000
_cell_volume 5181.449603
_symmetry_space_group_name_H-M "P 42/M N M"
_symmetry_group_IT_number 136
_symmetry_cell_setting 'tetragonal'
loop_
_space_group_symop_operation_xyz
x,y,z
1/2-y,1/2+x,1/2+z
-x,-y,z
1/2+y,1/2-x,1/2+z
1/2+x,1/2-y,1/2-z
1/2-x,1/2+y,1/2-z
y,x,-z
-y,-x,-z
-x,-y,-z
1/2+y,1/2-x,1/2-z
x,y,-z
1/2-y,1/2+x,1/2-z
1/2-x,1/2+y,1/2+z
1/2+x,1/2-y,1/2+z
-y,-x,z
y,x,z
loop_
_atom_site_type_symbol
_atom_site_label
_atom_site_fract_x
_atom_site_fract_y
_atom_site_fract_z
Si Si1 0.023969 0.265086 0.000000
Si Si2 0.457754 0.248173 0.134128
Si Si3 0.640445 0.499135 0.376179
Si Si4 0.620775 0.137984 0.000000
Si Si5 0.601411 0.741845 0.723077
Si Si6 0.784956 0.353926 0.141028
Si Si7 0.645056 0.073080 0.500000
Si Si8 0.569531 0.569531 0.920711
O O1 0.023416 0.203285 0.936283
O O2 0.938461 0.316524 0.000000
O O3 0.091437 0.341227 0.000000
O O4 0.405297 0.233598 0.200330
O O5 0.550825 0.229148 0.158297
O O6 0.456011 0.343857 0.111920
O O7 0.428990 0.197497 0.068895
O O8 0.577133 0.422868 0.364142
O O9 0.579965 0.579965 0.391850
O O10 0.697027 0.523083 0.312443
O O11 0.640752 0.193646 0.063532
O O12 0.523062 0.108817 0.000000
O O13 0.672142 0.672142 0.719499
O O14 0.635198 0.817002 0.678626
O O15 0.706150 0.293851 0.152894
O O16 0.500000 0.500000 0.909435
O O17 0.579906 0.579906 0.000000
#
# Coordination Sequence:
#
# PCOD9569621 Si02
#       8
#     8  16  16   8  16  16   8   8
#     4  12  21  39  65  89 121 163 204 243 308 369
#     4  11  22  42  60  86 127 160 198 257 305 362
#     4  10  22  39  60  93 128 156 197 253 312 376
#     4  10  20  39  64  85 122 155 203 258 302 344
#     4  10  21  39  61  86 123 163 198 245 304 363
#     4  10  21  37  63  93 116 154 207 252 299 358
#     4  10  25  40  59  89 120 159 209 252 300 360
#     4  11  22  38  64  94 120 159 205 253 316 368
#
# _framework density 18.527633000000002
#
# number of rings (size 3 to 8) (size 9 to 14) (size 15 to 20)
#    0.000    1.583    3.333    1.500    0.000    4.000 
#    3.000    1.667    0.000    0.000    0.000    0.000 
#    0.000    0.000    0.000    0.000    0.000    0.000 
#
# Total GULP energy -535037.506015 kJ/mol
# GULP energy per Si atom -5573.307354 kJ/mol
# Density = 1.848546 g / cm^3
# Si number density = 18.527633 Si / 1000 Ang^3
#
#
#
# Elastic Constant Matrix: (Units=GPa)
#
#
# Indices 1 2 3 4 5 6 
#
# 1 59.6666 8.6107 -0.1705 0.0000 0.0000 0.0000
# 2 8.6107 59.6666 -0.1705 0.0000 0.0000 0.0000
# 3 -0.1705 -0.1705 76.6928 0.0000 0.0000 0.0000
# 4 0.0000 0.0000 0.0000 51.4157 0.0000 0.0000
# 5 0.0000 0.0000 0.0000 0.0000 51.4157 0.0000
# 6 0.0000 0.0000 0.0000 0.0000 0.0000 16.3214
#
#
#
# Elastic Compliance Matrix: (Units=1/GPa)
#
#
# Indices 1 2 3 4 5 6 
#
# 1 0.017116 -0.002470 0.000033 0.000000 0.000000 0.000000
# 2 -0.002470 0.017116 0.000033 0.000000 0.000000 0.000000
# 3 0.000033 0.000033 0.013039 0.000000 0.000000 0.000000
# 4 0.000000 0.000000 0.000000 0.019449 0.000000 0.000000
# 5 0.000000 0.000000 0.000000 0.000000 0.019449 0.000000
# 6 0.000000 0.000000 0.000000 0.000000 0.000000 0.061269
#
#
# Mechanical properties :
#
#
# Convention : Reuss Voigt Hill
#
# Bulk Modulus (GPa) = 23.55046 23.61840 23.58443
# Shear Modulus (GPa) = 30.04744 36.34764 33.19754
#
# Velocity S-wave (km/s) = 4.03148 4.43403 4.23754
# Velocity P-wave (km/s) = 5.86592 6.24416 6.05799
#
# Compressibility (1/GPa) = 0.04246202
#
# Stress axis : x y z
#
# Youngs Moduli (GPa) = 58.42372 58.42372 76.69196
#
# Poissons Ratio (x) = 0.14431 -0.00250
# Poissons Ratio (y) = 0.14431 -0.00250
# Poissons Ratio (z) = -0.00190 -0.00190
#
# Static dielectric constant tensor:
#      x y z
#    x 1.648610 0.000000 0.000000 
#    y 0.000000 1.648610 0.000000 
#    z 0.000000 0.000000 1.291530 
# 
# From -- ./inp_files/7574.got.cif
#   From: 2010.05.17/outbox.cif.g08.bks.cpg/sg136_4_cif.got.tgz:7574.got - 2010.05.20 12:54:53.
