data_PCOD9569887
_publ_section_title
;
Structure prediction by ZEFSAII (Michael W. Deem and Ramdas Pophale) SiO2 
 PCOD9569887
Probable space group: P 42/M N M
;
_chemical_formula_sum "Si O2"
_cell_formula_units_Z 72
_cell_length_a 24.074432
_cell_length_b 24.074432
_cell_length_c 7.426297
_cell_angle_alpha 90.000000
_cell_angle_beta 90.000000
_cell_angle_gamma 90.000000
_cell_volume 4304.120413
_symmetry_space_group_name_H-M "P 42/M N M"
_symmetry_group_IT_number 136
_symmetry_cell_setting 'tetragonal'
loop_
_space_group_symop_operation_xyz
x,y,z
1/2-y,1/2+x,1/2+z
-x,-y,z
1/2+y,1/2-x,1/2+z
1/2+x,1/2-y,1/2-z
1/2-x,1/2+y,1/2-z
y,x,-z
-y,-x,-z
-x,-y,-z
1/2+y,1/2-x,1/2-z
x,y,-z
1/2-y,1/2+x,1/2-z
1/2-x,1/2+y,1/2+z
1/2+x,1/2-y,1/2+z
-y,-x,z
y,x,z
loop_
_atom_site_type_symbol
_atom_site_label
_atom_site_fract_x
_atom_site_fract_y
_atom_site_fract_z
Si Si1 0.545084 0.545084 0.780597
Si Si2 0.015938 0.829520 0.279791
Si Si3 0.300836 0.607365 0.780335
Si Si4 0.719878 0.629876 0.213685
Si Si5 0.694128 0.215620 0.784288
O O1 0.500000 0.500000 0.721500
O O2 0.607146 0.528704 0.725462
O O3 0.544985 0.544985 0.000000
O O4 0.014531 0.828883 0.500000
O O5 0.068010 0.792180 0.219567
O O6 0.955276 0.810261 0.218595
O O7 0.351346 0.648655 0.727998
O O8 0.242909 0.636388 0.723306
O O9 0.301381 0.606506 0.000000
O O10 0.673809 0.673809 0.286470
O O11 0.780965 0.655648 0.240216
O O12 0.710994 0.627789 0.000000
O O13 0.741159 0.258842 0.717899
O O14 0.693489 0.218488 0.000000
#
# Coordination Sequence:
#
# PCOD9569887 Si02
#       5
#     8  16  16  16  16
#     4   9  14  18  26  44  73 105 127 145 173 210
#     4   9  14  20  30  48  74  99 122 147 178 214
#     4   8  13  21  33  49  69  95 124 152 179 208
#     4   9  15  23  35  52  74  96 117 145 181 217
#     4   8  14  24  37  51  67  90 122 153 179 210
#
# _framework density 16.728155000000001
#
# number of rings (size 3 to 8) (size 9 to 14) (size 15 to 20)
#    0.000    3.444    1.111    2.000    0.000    2.667 
#    0.000    0.000    0.000    1.333    0.000    0.000 
#    0.000    4.444    0.000   11.111    0.000    0.444 
#
# Total GULP energy -400881.294500 kJ/mol
# GULP energy per Si atom -5567.795757 kJ/mol
# Density = 1.669008 g / cm^3
# Si number density = 16.728155 Si / 1000 Ang^3
#
#
#
# Elastic Constant Matrix: (Units=GPa)
#
#
# Indices 1 2 3 4 5 6 
#
# 1 122.2074 109.7206 3.5360 0.0000 0.0000 0.0000
# 2 109.7206 122.2074 3.5360 0.0000 0.0000 0.0000
# 3 3.5360 3.5360 50.6146 0.0000 0.0000 0.0000
# 4 0.0000 0.0000 0.0000 2.5122 0.0000 0.0000
# 5 0.0000 0.0000 0.0000 0.0000 2.5122 0.0000
# 6 0.0000 0.0000 0.0000 0.0000 0.0000 32.5072
#
#
#
# Elastic Compliance Matrix: (Units=1/GPa)
#
#
# Indices 1 2 3 4 5 6 
#
# 1 0.042203 -0.037882 -0.000302 0.000000 0.000000 0.000000
# 2 -0.037882 0.042203 -0.000302 0.000000 0.000000 0.000000
# 3 -0.000302 -0.000302 0.019799 0.000000 0.000000 0.000000
# 4 0.000000 0.000000 0.000000 0.398052 0.000000 0.000000
# 5 0.000000 0.000000 0.000000 0.000000 0.398052 0.000000
# 6 0.000000 0.000000 0.000000 0.000000 0.000000 0.030762
#
#
# Mechanical properties :
#
#
# Convention : Reuss Voigt Hill
#
# Bulk Modulus (GPa) = 36.71931 58.73498 47.72715
# Shear Modulus (GPa) = 4.91584 19.38880 12.15232
#
# Velocity S-wave (km/s) = 1.71611 3.40818 2.69821
# Velocity P-wave (km/s) = 5.09166 7.11865 6.18871
#
# Compressibility (1/GPa) = 0.02723363
#
# Stress axis : x y z
#
# Youngs Moduli (GPa) = 23.69512 23.69512 50.50681
#
# Poissons Ratio (x) = 0.89762 0.01525
# Poissons Ratio (y) = 0.89762 0.01525
# Poissons Ratio (z) = 0.00715 0.00715
#
# Static dielectric constant tensor:
#      x y z
#    x 1.570350 0.000000 0.000000 
#    y 0.000000 1.570350 0.000000 
#    z 0.000000 0.000000 1.670850 
# 
# From -- ./inp_files/1713.got.cif
#   From: 2010.05.17/outbox.cif.g08.bks.cpg/sg136_1_cif.got.tgz:1713.got - 2010.05.20 12:54:53.
