data_PCOD9569403
_publ_section_title
;
Structure prediction by ZEFSAII (Michael W. Deem and Ramdas Pophale) SiO2 
 PCOD9569403
Probable space group: P 42/M N M
;
_chemical_formula_sum "Si O2"
_cell_formula_units_Z 64
_cell_length_a 24.505938
_cell_length_b 24.505938
_cell_length_c 7.851760
_cell_angle_alpha 90.000000
_cell_angle_beta 90.000000
_cell_angle_gamma 90.000000
_cell_volume 4715.303781
_symmetry_space_group_name_H-M "P 42/M N M"
_symmetry_group_IT_number 136
_symmetry_cell_setting 'tetragonal'
loop_
_space_group_symop_operation_xyz
x,y,z
1/2-y,1/2+x,1/2+z
-x,-y,z
1/2+y,1/2-x,1/2+z
1/2+x,1/2-y,1/2-z
1/2-x,1/2+y,1/2-z
y,x,-z
-y,-x,-z
-x,-y,-z
1/2+y,1/2-x,1/2-z
x,y,-z
1/2-y,1/2+x,1/2-z
1/2-x,1/2+y,1/2+z
1/2+x,1/2-y,1/2+z
-y,-x,z
y,x,z
loop_
_atom_site_type_symbol
_atom_site_label
_atom_site_fract_x
_atom_site_fract_y
_atom_site_fract_z
Si Si1 0.341236 0.432580 0.693277
Si Si2 0.355415 0.555824 0.206090
Si Si3 0.304271 0.790063 0.500000
Si Si4 0.141238 0.234955 0.694222
Si Si5 0.378116 0.284504 0.000000
O O1 0.322237 0.423496 0.500000
O O2 0.394561 0.394561 0.719549
O O3 0.356125 0.495576 0.719915
O O4 0.297368 0.413687 0.833097
O O5 0.405765 0.594236 0.261565
O O6 0.299422 0.587854 0.247258
O O7 0.357767 0.552437 0.000000
O O8 0.257019 0.742982 0.500000
O O9 0.340167 0.778852 0.667763
O O10 0.273080 0.847437 0.500000
O O11 0.134910 0.255150 0.500000
O O12 0.189003 0.189003 0.689693
O O13 0.329858 0.329858 0.000000
#
# Coordination Sequence:
#
# PCOD9569403 Si02
#       5
#    16  16   8  16   8
#     4  10  20  31  42  57  79 111 149 182 208 240
#     4   9  17  29  44  60  82 110 139 179 218 246
#     4   9  16  26  44  61  75 101 130 166 211 249
#     4   8  15  26  39  60  82  97 124 166 210 252
#     4   9  18  32  43  56  79 105 141 177 205 245
#
# _framework density 13.572825999999999
#
# number of rings (size 3 to 8) (size 9 to 14) (size 15 to 20)
#    0.000    3.000    1.250    1.500    1.750    2.000 
#    0.000    7.500    0.000    0.000    0.000    0.000 
#    0.000    0.000    0.000    0.000    0.000    3.750 
#
# Total GULP energy -356319.384696 kJ/mol
# GULP energy per Si atom -5567.490386 kJ/mol
# Density = 1.354193 g / cm^3
# Si number density = 13.572826 Si / 1000 Ang^3
#
#
#
# Elastic Constant Matrix: (Units=GPa)
#
#
# Indices 1 2 3 4 5 6 
#
# 1 48.0667 49.0913 49.9175 0.0000 0.0000 0.0000
# 2 49.0913 48.0665 49.9176 0.0000 0.0000 0.0000
# 3 49.9175 49.9176 91.6251 0.0000 0.0000 0.0000
# 4 0.0000 0.0000 0.0000 9.7249 0.0000 0.0000
# 5 0.0000 0.0000 0.0000 0.0000 9.7249 0.0000
# 6 0.0000 0.0000 0.0000 0.0000 0.0000 13.9144
#
#
#
# Elastic Compliance Matrix: (Units=1/GPa)
#
#
# Indices 1 2 3 4 5 6 
#
# 1 -0.476238 0.499624 -0.012741 0.000000 0.000000 0.000000
# 2 0.499624 -0.476246 -0.012736 0.000000 0.000000 0.000000
# 3 -0.012741 -0.012736 0.024794 0.000000 0.000000 0.000000
# 4 0.000000 0.000000 0.000000 0.102829 0.000000 0.000000
# 5 0.000000 0.000000 0.000000 0.000000 0.102829 0.000000
# 6 0.000000 0.000000 0.000000 0.000000 0.000000 0.071868
#
#
# Mechanical properties :
#
#
# Convention : Reuss Voigt Hill
#
# Bulk Modulus (GPa) = 48.53458 53.95682 51.24570
# Shear Modulus (GPa) = -3.14151 9.26161 3.06005
#
# Velocity S-wave (km/s) = -1.52302 2.61504 1.50314
# Velocity P-wave (km/s) = 5.72219 6.99699 6.39145
#
# Compressibility (1/GPa) = 0.02060386
#
# Stress axis : x y z
#
# Youngs Moduli (GPa) = -2.09979 -2.09976 40.33197
#
# Poissons Ratio (x) = 1.04909 0.51388
# Poissons Ratio (y) = 1.04911 0.51367
# Poissons Ratio (z) = -0.02675 -0.02674
#
# Static dielectric constant tensor:
#      x y z
#    x 1.424740 0.000000 0.000000 
#    y 0.000000 1.424740 0.000000 
#    z 0.000000 0.000000 1.481850 
# 
# From -- ./inp_files/1441.got.cif
#   From: 2010.05.17/outbox.cif.g08.bks.cpg/sg136_1_cif.got.tgz:1441.got - 2010.05.20 12:54:53.
