data_PCOD9569229
_publ_section_title
;
Structure prediction by ZEFSAII (Michael W. Deem and Ramdas Pophale) SiO2 
 PCOD9569229
Probable space group: P 42/M N M
;
_chemical_formula_sum "Si O2"
_cell_formula_units_Z 112
_cell_length_a 19.439482
_cell_length_b 19.439482
_cell_length_c 18.825257
_cell_angle_alpha 90.000000
_cell_angle_beta 90.000000
_cell_angle_gamma 90.000000
_cell_volume 7113.941511
_symmetry_space_group_name_H-M "P 42/M N M"
_symmetry_group_IT_number 136
_symmetry_cell_setting 'tetragonal'
loop_
_space_group_symop_operation_xyz
x,y,z
1/2-y,1/2+x,1/2+z
-x,-y,z
1/2+y,1/2-x,1/2+z
1/2+x,1/2-y,1/2-z
1/2-x,1/2+y,1/2-z
y,x,-z
-y,-x,-z
-x,-y,-z
1/2+y,1/2-x,1/2-z
x,y,-z
1/2-y,1/2+x,1/2-z
1/2-x,1/2+y,1/2+z
1/2+x,1/2-y,1/2+z
-y,-x,z
y,x,z
loop_
_atom_site_type_symbol
_atom_site_label
_atom_site_fract_x
_atom_site_fract_y
_atom_site_fract_z
Si Si1 0.113847 0.998156 0.207365
Si Si2 0.969759 0.374447 0.916417
Si Si3 0.282216 0.503425 0.419696
Si Si4 0.147602 0.557932 0.829855
Si Si5 0.095167 0.204744 0.708669
Si Si6 0.257067 0.147880 0.136699
Si Si7 0.395949 0.902391 0.673405
O O1 0.067566 0.932435 0.225059
O O2 0.161438 0.985069 0.138968
O O3 0.162049 0.026962 0.270198
O O4 0.061001 0.061001 0.191030
O O5 0.900148 0.409205 0.889928
O O6 0.969563 0.291991 0.903460
O O7 0.033031 0.404335 0.870910
O O8 0.981428 0.385023 0.000000
O O9 0.302888 0.486383 0.500000
O O10 0.267616 0.585320 0.413036
O O11 0.227013 0.579641 0.835039
O O12 0.139989 0.475777 0.829308
O O13 0.117722 0.585046 0.754275
O O14 0.152159 0.152159 0.679197
O O15 0.123800 0.231451 0.785033
O O16 0.218048 0.218048 0.118968
O O17 0.339379 0.147933 0.140761
#
# Coordination Sequence:
#
# PCOD9569229 Si02
#       7
#    16  16  16  16  16  16  16
#     4   9  17  29  46  69  97 127 160 204 251 287
#     4  10  21  34  48  70 101 132 161 196 242 293
#     4   9  17  29  44  64  93 131 169 197 229 285
#     4  11  19  30  50  70  92 124 165 204 240 287
#     4   8  16  31  48  64  87 120 158 198 240 283
#     4   8  15  28  43  61  90 122 155 197 239 278
#     4  10  19  29  47  72  95 122 160 203 244 282
#
# _framework density 15.743734
#
# number of rings (size 3 to 8) (size 9 to 14) (size 15 to 20)
#    0.000    2.714    1.429    2.571    0.000    2.571 
#    0.000    2.143    0.000    1.286    0.000    0.000 
#    0.000    1.714    0.000    3.571    0.000    0.000 
#
# Total GULP energy -623983.720568 kJ/mol
# GULP energy per Si atom -5571.283219 kJ/mol
# Density = 1.570790 g / cm^3
# Si number density = 15.743734 Si / 1000 Ang^3
#
#
#
# Elastic Constant Matrix: (Units=GPa)
#
#
# Indices 1 2 3 4 5 6 
#
# 1 72.9734 48.3749 1.8570 0.0000 0.0000 0.0000
# 2 48.3749 72.9734 1.8570 0.0000 0.0000 0.0000
# 3 1.8570 1.8570 15.1259 0.0000 0.0000 0.0000
# 4 0.0000 0.0000 0.0000 12.3736 0.0000 0.0000
# 5 0.0000 0.0000 0.0000 0.0000 12.3736 0.0000
# 6 0.0000 0.0000 0.0000 0.0000 0.0000 21.4823
#
#
#
# Elastic Compliance Matrix: (Units=1/GPa)
#
#
# Indices 1 2 3 4 5 6 
#
# 1 0.024462 -0.016190 -0.001016 0.000000 0.000000 0.000000
# 2 -0.016190 0.024462 -0.001016 0.000000 0.000000 0.000000
# 3 -0.001016 -0.001016 0.066361 0.000000 0.000000 0.000000
# 4 0.000000 0.000000 0.000000 0.080817 0.000000 0.000000
# 5 0.000000 0.000000 0.000000 0.000000 0.080817 0.000000
# 6 0.000000 0.000000 0.000000 0.000000 0.000000 0.046550
#
#
# Mechanical properties :
#
#
# Convention : Reuss Voigt Hill
#
# Bulk Modulus (GPa) = 12.68351 29.47230 21.07791
# Shear Modulus (GPa) = 12.94687 16.51149 14.72918
#
# Velocity S-wave (km/s) = 2.87078 3.24198 3.06201
# Velocity P-wave (km/s) = 4.36603 5.72491 5.09101
#
# Compressibility (1/GPa) = 0.07884253
#
# Stress axis : x y z
#
# Youngs Moduli (GPa) = 40.87921 40.87921 15.06908
#
# Poissons Ratio (x) = 0.66185 0.01530
# Poissons Ratio (y) = 0.66185 0.01530
# Poissons Ratio (z) = 0.04151 0.04151
#
# Static dielectric constant tensor:
#      x y z
#    x 1.530110 0.000000 0.000000 
#    y 0.000000 1.530110 0.000000 
#    z 0.000000 0.000000 1.511100 
# 
# From -- ./inp_files/7769.got.cif
#   From: 2010.05.17/outbox.cif.g08.bks.cpg/sg136_4_cif.got.tgz:7769.got - 2010.05.20 12:54:53.
