data_PCOD9569219
_publ_section_title
;
Structure prediction by ZEFSAII (Michael W. Deem and Ramdas Pophale) SiO2 
 PCOD9569219
Probable space group: P 42/M N M
;
_chemical_formula_sum "Si O2"
_cell_formula_units_Z 116
_cell_length_a 27.589119
_cell_length_b 27.589119
_cell_length_c 8.091377
_cell_angle_alpha 90.000000
_cell_angle_beta 90.000000
_cell_angle_gamma 90.000000
_cell_volume 6158.828368
_symmetry_space_group_name_H-M "P 42/M N M"
_symmetry_group_IT_number 136
_symmetry_cell_setting 'tetragonal'
loop_
_space_group_symop_operation_xyz
x,y,z
1/2-y,1/2+x,1/2+z
-x,-y,z
1/2+y,1/2-x,1/2+z
1/2+x,1/2-y,1/2-z
1/2-x,1/2+y,1/2-z
y,x,-z
-y,-x,-z
-x,-y,-z
1/2+y,1/2-x,1/2-z
x,y,-z
1/2-y,1/2+x,1/2-z
1/2-x,1/2+y,1/2+z
1/2+x,1/2-y,1/2+z
-y,-x,z
y,x,z
loop_
_atom_site_type_symbol
_atom_site_label
_atom_site_fract_x
_atom_site_fract_y
_atom_site_fract_z
Si Si1 0.270599 0.652448 0.799858
Si Si2 0.302662 0.018658 0.181985
Si Si3 0.810973 0.189028 0.000000
Si Si4 0.666129 0.077537 0.312770
Si Si5 0.168928 0.617561 0.188699
Si Si6 0.573208 0.349650 0.697624
Si Si7 0.623058 0.726796 0.195635
Si Si8 0.517622 0.700811 0.807273
O O1 0.299171 0.700830 0.746306
O O2 0.215667 0.646319 0.740581
O O3 0.303850 0.607090 0.746648
O O4 0.269251 0.652248 0.000000
O O5 0.316241 0.061474 0.304672
O O6 0.334192 0.970283 0.202416
O O7 0.247498 0.001451 0.208536
O O8 0.307968 0.039718 0.000000
O O9 0.841363 0.217136 0.151368
O O10 0.663315 0.059945 0.500000
O O11 0.627248 0.118841 0.279048
O O12 0.718131 0.103840 0.293003
O O13 0.162116 0.633587 0.000000
O O14 0.570278 0.350924 0.500000
O O15 0.603076 0.396924 0.755053
O O16 0.519747 0.341984 0.768638
O O17 0.574632 0.693888 0.224469
O O18 0.638330 0.719795 0.000000
O O19 0.513610 0.713634 0.000000
#
# Coordination Sequence:
#
# PCOD9569219 Si02
#       8
#    16  16   4  16  16  16  16  16
#     4   9  18  32  47  71 108 150 186 218 263 325
#     4  11  21  34  57  82 108 143 186 234 284 333
#     4  12  22  36  68  82 113 158 198 232 308 330
#     4  10  22  40  58  81 116 146 189 241 280 329
#     4  11  21  34  56  83 113 150 191 226 279 339
#     4  10  19  28  45  75 110 143 180 228 274 336
#     4   9  22  39  57  86 115 147 195 248 286 340
#     4  10  19  33  53  77 109 144 185 237 288 334
#
# _framework density 18.834751000000001
#
# number of rings (size 3 to 8) (size 9 to 14) (size 15 to 20)
#    0.000    1.931    1.379    3.931    5.793    1.379 
#    1.241    0.000    0.000    0.414    0.000    3.862 
#    0.000    2.207    0.000    0.000    0.000    0.000 
#
# Total GULP energy -645844.679494 kJ/mol
# GULP energy per Si atom -5567.626547 kJ/mol
# Density = 1.879188 g / cm^3
# Si number density = 18.834751 Si / 1000 Ang^3
#
#
#
# Elastic Constant Matrix: (Units=GPa)
#
#
# Indices 1 2 3 4 5 6 
#
# 1 -280.9952 313.6639 2.0135 0.0000 0.0000 0.0000
# 2 313.6639 -281.0078 2.0023 0.0000 0.0000 0.0000
# 3 2.0135 2.0023 62.4247 0.0000 0.0000 0.0000
# 4 0.0000 0.0000 0.0000 26.0001 0.0000 0.0000
# 5 0.0000 0.0000 0.0000 0.0000 26.0005 0.0000
# 6 0.0000 0.0000 0.0000 0.0000 0.0000 18.8481
#
#
#
# Elastic Compliance Matrix: (Units=1/GPa)
#
#
# Indices 1 2 3 4 5 6 
#
# 1 0.014528 0.016210 -0.000989 0.000000 0.000000 0.000000
# 2 0.016210 0.014528 -0.000989 0.000000 0.000000 0.000000
# 3 -0.000989 -0.000989 0.016083 0.000000 0.000000 0.000000
# 4 0.000000 0.000000 0.000000 0.038461 0.000000 0.000000
# 5 0.000000 0.000000 0.000000 0.000000 0.038461 0.000000
# 6 0.000000 0.000000 0.000000 0.000000 0.000000 0.053056
#
#
# Mechanical properties :
#
#
# Convention : Reuss Voigt Hill
#
# Bulk Modulus (GPa) = 13.58625 15.08678 14.33652
# Shear Modulus (GPa) = 29.20783 -40.31412 -5.55314
#
# Velocity S-wave (km/s) = 3.94222 -4.63148 -1.71894
# Velocity P-wave (km/s) = 5.28682 4.53578 1.92057
#
# Compressibility (1/GPa) = 0.07360382
#
# Stress axis : x y z
#
# Youngs Moduli (GPa) = 68.83064 68.83356 62.17785
#
# Poissons Ratio (x) = -1.11577 0.06147
# Poissons Ratio (y) = -1.11573 0.06148
# Poissons Ratio (z) = 0.06804 0.06806
#
# Static dielectric constant tensor:
#      x y z
#    x 1.663280 0.000000 0.000000 
#    y 0.000000 1.663280 0.000000 
#    z 0.000000 0.000000 1.661790 
# 
# From -- ./inp_files/2313.got.cif
#   From: 2010.05.17/outbox.cif.g08.bks.cpg/sg136_2_cif.got.tgz:2313.got - 2010.05.20 12:54:53.
