data_PCOD9569666
_publ_section_title
;
Structure prediction by ZEFSAII (Michael W. Deem and Ramdas Pophale) SiO2 
 PCOD9569666
Probable space group: P 42/M N M
;
_chemical_formula_sum "Si O2"
_cell_formula_units_Z 96
_cell_length_a 24.598466
_cell_length_b 24.598466
_cell_length_c 8.637294
_cell_angle_alpha 90.000000
_cell_angle_beta 90.000000
_cell_angle_gamma 90.000000
_cell_volume 5226.292977
_symmetry_space_group_name_H-M "P 42/M N M"
_symmetry_group_IT_number 136
_symmetry_cell_setting 'tetragonal'
loop_
_space_group_symop_operation_xyz
x,y,z
1/2-y,1/2+x,1/2+z
-x,-y,z
1/2+y,1/2-x,1/2+z
1/2+x,1/2-y,1/2-z
1/2-x,1/2+y,1/2-z
y,x,-z
-y,-x,-z
-x,-y,-z
1/2+y,1/2-x,1/2-z
x,y,-z
1/2-y,1/2+x,1/2-z
1/2-x,1/2+y,1/2+z
1/2+x,1/2-y,1/2+z
-y,-x,z
y,x,z
loop_
_atom_site_type_symbol
_atom_site_label
_atom_site_fract_x
_atom_site_fract_y
_atom_site_fract_z
Si Si1 0.869006 0.637195 0.683864
Si Si2 0.941602 0.277890 0.313624
Si Si3 0.641908 0.446019 0.314983
Si Si4 0.738695 0.934959 0.684897
Si Si5 0.436235 0.348867 0.186324
Si Si6 0.038766 0.432293 0.825245
O O1 0.876867 0.628419 0.500000
O O2 0.815761 0.603811 0.734797
O O3 0.882219 0.700850 0.712099
O O4 0.916829 0.610846 0.783334
O O5 0.937623 0.285326 0.500000
O O6 0.930391 0.214799 0.273709
O O7 0.005588 0.287087 0.269371
O O8 0.640137 0.447744 0.500000
O O9 0.597876 0.402125 0.259331
O O10 0.702784 0.430657 0.262903
O O11 0.631054 0.506248 0.250888
O O12 0.746847 0.939640 0.500000
O O13 0.386676 0.386676 0.239309
O O14 0.438597 0.351057 0.000000
O O15 0.067516 0.490265 0.797535
O O16 0.018278 0.427392 0.000000
#
# Coordination Sequence:
#
# PCOD9569666 Si02
#       6
#    16  16  16  16  16  16
#     4  11  21  33  51  76 103 136 181 224 265 316
#     4   9  18  34  54  76 105 141 180 223 268 310
#     4  10  21  36  56  84 114 140 169 212 267 321
#     4   9  20  37  55  75 104 143 184 224 263 311
#     4   9  19  37  60  83 108 142 180 214 255 314
#     4  11  21  33  48  68  96 130 169 218 274 323
#
# _framework density 18.368660999999999
#
# number of rings (size 3 to 8) (size 9 to 14) (size 15 to 20)
#    0.000    2.167    0.000    5.000    0.000    7.333 
#    0.000    2.500    0.000    3.000    0.000    0.000 
#    0.000    0.000    0.000    0.000    0.000    0.000 
#
# Total GULP energy -535143.412034 kJ/mol
# GULP energy per Si atom -5574.410542 kJ/mol
# Density = 1.832685 g / cm^3
# Si number density = 18.368661 Si / 1000 Ang^3
#
#
#
# Elastic Constant Matrix: (Units=GPa)
#
#
# Indices 1 2 3 4 5 6 
#
# 1 96.7529 46.6508 23.3353 0.0000 0.0000 0.0000
# 2 46.6508 96.7529 23.3353 0.0000 0.0000 0.0000
# 3 23.3353 23.3353 29.3170 0.0000 0.0000 0.0000
# 4 0.0000 0.0000 0.0000 -196.2473 0.0000 0.0000
# 5 0.0000 0.0000 0.0000 0.0000 -196.2473 0.0000
# 6 0.0000 0.0000 0.0000 0.0000 0.0000 28.6450
#
#
#
# Elastic Compliance Matrix: (Units=1/GPa)
#
#
# Indices 1 2 3 4 5 6 
#
# 1 0.014685 -0.005274 -0.007491 0.000000 0.000000 0.000000
# 2 -0.005274 0.014685 -0.007491 0.000000 0.000000 0.000000
# 3 -0.007491 -0.007491 0.046035 0.000000 0.000000 0.000000
# 4 0.000000 0.000000 0.000000 -0.005096 0.000000 0.000000
# 5 0.000000 0.000000 0.000000 0.000000 -0.005096 0.000000
# 6 0.000000 0.000000 0.000000 0.000000 0.000000 0.034910
#
#
# Mechanical properties :
#
#
# Convention : Reuss Voigt Hill
#
# Bulk Modulus (GPa) = 28.65863 45.49617 37.07740
# Shear Modulus (GPa) = 32.83687 -64.13650 -15.64981
#
# Velocity S-wave (km/s) = 4.23266 -5.91541 -2.92204
# Velocity P-wave (km/s) = 6.28673 4.67268 2.97397
#
# Compressibility (1/GPa) = 0.03489350
#
# Stress axis : x y z
#
# Youngs Moduli (GPa) = 68.09544 68.09544 21.72256
#
# Poissons Ratio (x) = 0.35914 0.16272
# Poissons Ratio (y) = 0.35914 0.16272
# Poissons Ratio (z) = 0.51011 0.51011
#
# Static dielectric constant tensor:
#      x y z
#    x 1.659290 0.000000 0.000000 
#    y 0.000000 1.659290 0.000000 
#    z 0.000000 0.000000 1.672160 
# 
# From -- ./inp_files/1952.got.cif
#   From: 2010.05.17/outbox.cif.g08.bks.cpg/sg136_1_cif.got.tgz:1952.got - 2010.05.20 12:54:53.
