data_PCOD9569312
_publ_section_title
;
Structure prediction by ZEFSAII (Michael W. Deem and Ramdas Pophale) SiO2 
 PCOD9569312
Probable space group: P 42/M N M
;
_chemical_formula_sum "Si O2"
_cell_formula_units_Z 128
_cell_length_a 20.071902
_cell_length_b 20.071902
_cell_length_c 16.684024
_cell_angle_alpha 90.000000
_cell_angle_beta 90.000000
_cell_angle_gamma 90.000000
_cell_volume 6721.680442
_symmetry_space_group_name_H-M "P 42/M N M"
_symmetry_group_IT_number 136
_symmetry_cell_setting 'tetragonal'
loop_
_space_group_symop_operation_xyz
x,y,z
1/2-y,1/2+x,1/2+z
-x,-y,z
1/2+y,1/2-x,1/2+z
1/2+x,1/2-y,1/2-z
1/2-x,1/2+y,1/2-z
y,x,-z
-y,-x,-z
-x,-y,-z
1/2+y,1/2-x,1/2-z
x,y,-z
1/2-y,1/2+x,1/2-z
1/2-x,1/2+y,1/2+z
1/2+x,1/2-y,1/2+z
-y,-x,z
y,x,z
loop_
_atom_site_type_symbol
_atom_site_label
_atom_site_fract_x
_atom_site_fract_y
_atom_site_fract_z
Si Si1 0.923943 0.768141 0.590259
Si Si2 0.449244 0.340461 0.324624
Si Si3 0.388893 0.497543 0.150764
Si Si4 0.353868 0.753875 0.259753
Si Si5 0.919421 0.805543 0.091246
Si Si6 0.899706 0.305672 0.215919
Si Si7 0.592273 0.022095 0.292000
Si Si8 0.920603 0.608744 0.412243
O O1 0.895306 0.782525 0.500000
O O2 0.983132 0.821922 0.602556
O O3 0.883271 0.772395 0.674530
O O4 0.934597 0.688395 0.588209
O O5 0.394213 0.394213 0.348713
O O6 0.483331 0.366633 0.242249
O O7 0.506526 0.330902 0.389987
O O8 0.413800 0.269892 0.306086
O O9 0.439237 0.560764 0.147124
O O10 0.433140 0.433140 0.124551
O O11 0.292729 0.707272 0.280644
O O12 0.403360 0.745109 0.335219
O O13 0.324180 0.826934 0.247904
O O14 0.867206 0.867206 0.097558
O O15 0.913999 0.779204 0.000000
O O16 0.952101 0.333607 0.280461
O O17 0.907099 0.356356 0.141346
O O18 0.538798 0.078098 0.269787
O O19 0.579226 0.987513 0.375472
O O20 0.907087 0.584936 0.500000
#
# Coordination Sequence:
#
# PCOD9569312 Si02
#       8
#    16  16  16  16  16  16  16  16
#     4  10  19  32  55  84 112 146 189 236 289 347
#     4  11  22  36  58  87 118 156 196 243 301 358
#     4  10  20  33  51  79 115 153 192 234 283 343
#     4  10  20  37  59  84 114 151 193 242 293 347
#     4  10  22  40  63  89 118 159 211 256 293 342
#     4  10  21  35  59  81 117 148 189 231 294 353
#     4   9  18  33  54  79 106 143 185 229 281 344
#     4   9  19  36  56  80 110 145 184 232 283 341
#
# _framework density 19.042856
#
# number of rings (size 3 to 8) (size 9 to 14) (size 15 to 20)
#    0.000    2.125    1.250    1.875    3.500    2.750 
#    0.000    6.875    0.000    3.000    0.000    1.750 
#    0.000    0.000    0.000    0.000    0.000    0.000 
#
# Total GULP energy -712770.393745 kJ/mol
# GULP energy per Si atom -5568.518701 kJ/mol
# Density = 1.899951 g / cm^3
# Si number density = 19.042856 Si / 1000 Ang^3
#
#
#
# Elastic Constant Matrix: (Units=GPa)
#
#
# Indices 1 2 3 4 5 6 
#
# 1 46.2762 7.1364 20.3886 0.0000 0.0000 0.0000
# 2 7.1364 46.2762 20.3886 0.0000 0.0000 0.0000
# 3 20.3886 20.3886 99.0181 0.0000 0.0000 0.0000
# 4 0.0000 0.0000 0.0000 16.6910 0.0000 0.0000
# 5 0.0000 0.0000 0.0000 0.0000 16.6910 0.0000
# 6 0.0000 0.0000 0.0000 0.0000 0.0000 18.0797
#
#
#
# Elastic Compliance Matrix: (Units=1/GPa)
#
#
# Indices 1 2 3 4 5 6 
#
# 1 0.023882 -0.001668 -0.004574 0.000000 0.000000 0.000000
# 2 -0.001668 0.023882 -0.004574 0.000000 0.000000 0.000000
# 3 -0.004574 -0.004574 0.011983 0.000000 0.000000 0.000000
# 4 0.000000 0.000000 0.000000 0.059913 0.000000 0.000000
# 5 0.000000 0.000000 0.000000 0.000000 0.059913 0.000000
# 6 0.000000 0.000000 0.000000 0.000000 0.000000 0.055311
#
#
# Mechanical properties :
#
#
# Convention : Reuss Voigt Hill
#
# Bulk Modulus (GPa) = 26.23646 31.93310 29.08478
# Shear Modulus (GPa) = 18.57223 19.86943 19.22083
#
# Velocity S-wave (km/s) = 3.12634 3.23368 3.18047
# Velocity P-wave (km/s) = 5.18069 5.54507 5.36597
#
# Compressibility (1/GPa) = 0.03811490
#
# Stress axis : x y z
#
# Youngs Moduli (GPa) = 41.87285 41.87285 83.45259
#
# Poissons Ratio (x) = 0.06983 0.38172
# Poissons Ratio (y) = 0.06983 0.38172
# Poissons Ratio (z) = 0.19153 0.19153
#
# Static dielectric constant tensor:
#      x y z
#    x 1.674730 0.000000 0.000000 
#    y 0.000000 1.674730 0.000000 
#    z 0.000000 0.000000 1.696140 
# 
# From -- ./inp_files/6650.got.cif
#   From: 2010.05.17/outbox.cif.g08.bks.cpg/sg136_4_cif.got.tgz:6650.got - 2010.05.20 12:54:53.
