data_PCOD9569692
_publ_section_title
;
Structure prediction by ZEFSAII (Michael W. Deem and Ramdas Pophale) SiO2 
 PCOD9569692
Probable space group: P 42/M N M
;
_chemical_formula_sum "Si O2"
_cell_formula_units_Z 80
_cell_length_a 12.078531
_cell_length_b 12.078531
_cell_length_c 28.713457
_cell_angle_alpha 90.000000
_cell_angle_beta 90.000000
_cell_angle_gamma 90.000000
_cell_volume 4189.032403
_symmetry_space_group_name_H-M "P 42/M N M"
_symmetry_group_IT_number 136
_symmetry_cell_setting 'tetragonal'
loop_
_space_group_symop_operation_xyz
x,y,z
1/2-y,1/2+x,1/2+z
-x,-y,z
1/2+y,1/2-x,1/2+z
1/2+x,1/2-y,1/2-z
1/2-x,1/2+y,1/2-z
y,x,-z
-y,-x,-z
-x,-y,-z
1/2+y,1/2-x,1/2-z
x,y,-z
1/2-y,1/2+x,1/2-z
1/2-x,1/2+y,1/2+z
1/2+x,1/2-y,1/2+z
-y,-x,z
y,x,z
loop_
_atom_site_type_symbol
_atom_site_label
_atom_site_fract_x
_atom_site_fract_y
_atom_site_fract_z
Si Si1 0.701873 0.701873 0.052352
Si Si2 0.502774 0.316221 0.638490
Si Si3 0.410046 0.410046 0.140859
Si Si4 0.433221 0.891634 0.588183
Si Si5 0.708518 0.107130 0.779454
Si Si6 0.817182 0.514577 0.180683
O O1 0.638847 0.638847 0.093414
O O2 0.662554 0.830257 0.059747
O O3 0.670430 0.670430 0.000000
O O4 0.619049 0.380952 0.633326
O O5 0.405312 0.405312 0.631403
O O6 0.493657 0.214465 0.602737
O O7 0.488277 0.270115 0.691001
O O8 0.500000 0.500000 0.129596
O O9 0.310863 0.464143 0.169908
O O10 0.383130 0.934087 0.637547
O O11 0.500000 0.000000 0.569110
O O12 0.797516 0.202485 0.770489
O O13 0.612726 0.153022 0.812622
O O14 0.659271 0.070223 0.730334
#
# Coordination Sequence:
#
# PCOD9569692 Si02
#       6
#     8  16   8  16  16  16
#     4  10  24  43  67  96 120 151 199 266 336 400
#     4  10  21  37  58  85 120 165 210 256 307 357
#     4  10  22  41  60  83 119 160 204 253 310 377
#     4  11  21  39  64  89 120 161 204 252 319 389
#     4  11  22  34  51  83 121 163 212 261 292 350
#     4  11  22  34  54  81 118 166 207 252 299 348
#
# _framework density 19.097490000000001
#
# number of rings (size 3 to 8) (size 9 to 14) (size 15 to 20)
#    0.000    1.400    4.000    1.800    0.000    3.800 
#    0.000    0.000    0.000    1.200    0.000    0.000 
#    0.000    0.000    0.000    0.000    0.000    0.000 
#
# Total GULP energy -446391.815741 kJ/mol
# GULP energy per Si atom -5579.897697 kJ/mol
# Density = 1.905402 g / cm^3
# Si number density = 19.097490 Si / 1000 Ang^3
#
#
#
# Elastic Constant Matrix: (Units=GPa)
#
#
# Indices 1 2 3 4 5 6 
#
# 1 84.0351 29.9041 13.6022 0.0000 0.0000 0.0000
# 2 29.9041 84.0351 13.6022 0.0000 0.0000 0.0000
# 3 13.6022 13.6022 56.5613 0.0000 0.0000 0.0000
# 4 0.0000 0.0000 0.0000 -7.1318 0.0000 0.0000
# 5 0.0000 0.0000 0.0000 0.0000 -7.1318 0.0000
# 6 0.0000 0.0000 0.0000 0.0000 0.0000 35.4354
#
#
#
# Elastic Compliance Matrix: (Units=1/GPa)
#
#
# Indices 1 2 3 4 5 6 
#
# 1 0.013892 -0.004581 -0.002239 0.000000 0.000000 0.000000
# 2 -0.004581 0.013892 -0.002239 0.000000 0.000000 0.000000
# 3 -0.002239 -0.002239 0.018757 0.000000 0.000000 0.000000
# 4 0.000000 0.000000 0.000000 -0.140218 0.000000 0.000000
# 5 0.000000 0.000000 0.000000 0.000000 -0.140218 0.000000
# 6 0.000000 0.000000 0.000000 0.000000 0.000000 0.028220
#
#
# Mechanical properties :
#
#
# Convention : Reuss Voigt Hill
#
# Bulk Modulus (GPa) = 35.18332 37.64982 36.41657
# Shear Modulus (GPa) = -28.07724 15.40259 -6.33732
#
# Velocity S-wave (km/s) = -3.83849 2.84302 -1.82363
# Velocity P-wave (km/s) = 1.08734 5.52579 3.83093
#
# Compressibility (1/GPa) = 0.02842256
#
# Stress axis : x y z
#
# Youngs Moduli (GPa) = 71.98141 71.98141 53.31358
#
# Poissons Ratio (x) = 0.32976 0.11938
# Poissons Ratio (y) = 0.32976 0.11938
# Poissons Ratio (z) = 0.16118 0.16118
#
# Static dielectric constant tensor:
#      x y z
#    x 1.688550 0.000000 0.000000 
#    y 0.000000 1.688550 0.000000 
#    z 0.000000 0.000000 1.631860 
# 
# From -- ./inp_files/9627.got.cif
#   From: 2010.05.17/outbox.cif.g08.bks.cpg/sg136_5_cif.got.tgz:9627.got - 2010.05.20 12:54:53.
