data_PCOD9569447
_publ_section_title
;
Structure prediction by ZEFSAII (Michael W. Deem and Ramdas Pophale) SiO2 
 PCOD9569447
Probable space group: P 42/M N M
;
_chemical_formula_sum "Si O2"
_cell_formula_units_Z 96
_cell_length_a 16.863678
_cell_length_b 16.863678
_cell_length_c 18.248204
_cell_angle_alpha 90.000000
_cell_angle_beta 90.000000
_cell_angle_gamma 90.000000
_cell_volume 5189.490598
_symmetry_space_group_name_H-M "P 42/M N M"
_symmetry_group_IT_number 136
_symmetry_cell_setting 'tetragonal'
loop_
_space_group_symop_operation_xyz
x,y,z
1/2-y,1/2+x,1/2+z
-x,-y,z
1/2+y,1/2-x,1/2+z
1/2+x,1/2-y,1/2-z
1/2-x,1/2+y,1/2-z
y,x,-z
-y,-x,-z
-x,-y,-z
1/2+y,1/2-x,1/2-z
x,y,-z
1/2-y,1/2+x,1/2-z
1/2-x,1/2+y,1/2+z
1/2+x,1/2-y,1/2+z
-y,-x,z
y,x,z
loop_
_atom_site_type_symbol
_atom_site_label
_atom_site_fract_x
_atom_site_fract_y
_atom_site_fract_z
Si Si1 0.853253 0.423598 0.678381
Si Si2 0.067915 0.594063 0.087074
Si Si3 0.502365 0.369252 0.194545
Si Si4 0.491275 0.188202 0.831518
Si Si5 0.823417 0.951213 0.861226
Si Si6 0.113114 0.767255 0.085639
O O1 0.907426 0.486205 0.632694
O O2 0.901968 0.342559 0.680328
O O3 0.837591 0.460361 0.758434
O O4 0.766019 0.416998 0.642895
O O5 0.135767 0.531113 0.104982
O O6 0.101531 0.679251 0.113975
O O7 0.050738 0.595215 0.000000
O O8 0.575852 0.424149 0.168155
O O9 0.423775 0.423775 0.188942
O O10 0.496074 0.282649 0.158227
O O11 0.520758 0.349735 0.279920
O O12 0.886784 0.886784 0.887318
O O13 0.815499 0.031766 0.906570
O O14 0.183499 0.816502 0.121627
O O15 0.129655 0.757579 0.000000
#
# Coordination Sequence:
#
# PCOD9569447 Si02
#       6
#    16  16  16  16  16  16
#     4  10  20  33  51  77 107 137 172 217 262 306
#     4  10  21  35  53  78 108 141 173 212 261 311
#     4   9  19  35  53  75 103 135 174 219 264 309
#     4  11  20  33  55  78 104 138 174 216 263 310
#     4   9  18  32  48  71 104 137 172 215 261 310
#     4   9  18  32  49  72 103 138 177 217 257 305
#
# _framework density 18.498926000000001
#
# number of rings (size 3 to 8) (size 9 to 14) (size 15 to 20)
#    0.000    2.333    1.667    1.000    0.000    4.000 
#    0.000    0.833    0.000    0.500    0.000    3.500 
#    0.000    0.000    0.000    0.000    0.000    0.000 
#
# Total GULP energy -534930.622157 kJ/mol
# GULP energy per Si atom -5572.193981 kJ/mol
# Density = 1.845682 g / cm^3
# Si number density = 18.498926 Si / 1000 Ang^3
#
#
#
# Elastic Constant Matrix: (Units=GPa)
#
#
# Indices 1 2 3 4 5 6 
#
# 1 97.4443 63.3574 -1.1120 0.0000 0.0000 0.0000
# 2 63.3574 97.4443 -1.1120 0.0000 0.0000 0.0000
# 3 -1.1120 -1.1120 25.2815 0.0000 0.0000 0.0000
# 4 0.0000 0.0000 0.0000 15.1149 0.0000 0.0000
# 5 0.0000 0.0000 0.0000 0.0000 15.1149 0.0000
# 6 0.0000 0.0000 0.0000 0.0000 0.0000 8.5718
#
#
#
# Elastic Compliance Matrix: (Units=1/GPa)
#
#
# Indices 1 2 3 4 5 6 
#
# 1 0.017780 -0.011557 0.000274 0.000000 0.000000 0.000000
# 2 -0.011557 0.017780 0.000274 0.000000 0.000000 0.000000
# 3 0.000274 0.000274 0.039579 0.000000 0.000000 0.000000
# 4 0.000000 0.000000 0.000000 0.066160 0.000000 0.000000
# 5 0.000000 0.000000 0.000000 0.000000 0.066160 0.000000
# 6 0.000000 0.000000 0.000000 0.000000 0.000000 0.116662
#
#
# Mechanical properties :
#
#
# Convention : Reuss Voigt Hill
#
# Bulk Modulus (GPa) = 18.82573 38.04855 28.43714
# Shear Modulus (GPa) = 13.74209 18.36274 16.05242
#
# Velocity S-wave (km/s) = 2.72850 3.15403 2.94895
# Velocity P-wave (km/s) = 4.48609 5.82036 5.19623
#
# Compressibility (1/GPa) = 0.05311879
#
# Stress axis : x y z
#
# Youngs Moduli (GPa) = 56.24385 56.24385 25.26607
#
# Poissons Ratio (x) = 0.65002 -0.00692
# Poissons Ratio (y) = 0.65002 -0.00692
# Poissons Ratio (z) = -0.01539 -0.01539
#
# Static dielectric constant tensor:
#      x y z
#    x 1.677810 0.000000 0.000000 
#    y 0.000000 1.677810 0.000000 
#    z 0.000000 0.000000 1.648950 
# 
# From -- ./inp_files/6329.got.cif
#   From: 2010.05.17/outbox.cif.g08.bks.cpg/sg136_4_cif.got.tgz:6329.got - 2010.05.20 12:54:53.
