data_PCOD9569727
_publ_section_title
;
Structure prediction by ZEFSAII (Michael W. Deem and Ramdas Pophale) SiO2 
 PCOD9569727
Probable space group: P 42/M N M
;
_chemical_formula_sum "Si O2"
_cell_formula_units_Z 96
_cell_length_a 23.353463
_cell_length_b 23.353463
_cell_length_c 7.849257
_cell_angle_alpha 90.000000
_cell_angle_beta 90.000000
_cell_angle_gamma 90.000000
_cell_volume 4280.861017
_symmetry_space_group_name_H-M "P 42/M N M"
_symmetry_group_IT_number 136
_symmetry_cell_setting 'tetragonal'
loop_
_space_group_symop_operation_xyz
x,y,z
1/2-y,1/2+x,1/2+z
-x,-y,z
1/2+y,1/2-x,1/2+z
1/2+x,1/2-y,1/2-z
1/2-x,1/2+y,1/2-z
y,x,-z
-y,-x,-z
-x,-y,-z
1/2+y,1/2-x,1/2-z
x,y,-z
1/2-y,1/2+x,1/2-z
1/2-x,1/2+y,1/2+z
1/2+x,1/2-y,1/2+z
-y,-x,z
y,x,z
loop_
_atom_site_type_symbol
_atom_site_label
_atom_site_fract_x
_atom_site_fract_y
_atom_site_fract_z
Si Si1 0.325602 0.587575 0.706848
Si Si2 0.102768 0.799845 0.690688
Si Si3 0.213661 0.306397 0.703489
Si Si4 0.090151 0.514512 0.801486
Si Si5 0.518449 0.608130 0.303537
Si Si6 0.696960 0.915054 0.297313
O O1 0.324459 0.585636 0.500000
O O2 0.349821 0.650180 0.757134
O O3 0.371607 0.541165 0.771082
O O4 0.263207 0.570637 0.769896
O O5 0.080516 0.789879 0.500000
O O6 0.154924 0.845077 0.681028
O O7 0.132769 0.743843 0.762788
O O8 0.056433 0.834096 0.797990
O O9 0.210436 0.298329 0.500000
O O10 0.255193 0.255193 0.769913
O O11 0.149571 0.307747 0.774075
O O12 0.063726 0.458673 0.712120
O O13 0.149501 0.540539 0.731300
O O14 0.097350 0.499150 0.000000
O O15 0.508175 0.592558 0.500000
O O16 0.556938 0.556938 0.226362
O O17 0.685807 0.912080 0.500000
#
# Coordination Sequence:
#
# PCOD9569727 Si02
#       6
#    16  16  16  16  16  16
#     4  10  22  38  56  81 111 143 183 231 276 318
#     4   9  17  29  47  74 105 134 171 223 274 315
#     4   9  17  31  51  74 105 147 189 224 266 325
#     4  10  21  39  62  87 115 146 182 224 273 329
#     4   9  18  34  55  77 105 143 183 223 271 326
#     4  10  22  38  57  82 111 146 184 222 270 329
#
# _framework density 22.425395000000002
#
# number of rings (size 3 to 8) (size 9 to 14) (size 15 to 20)
#    0.000    2.500    0.000    2.000    0.000    7.333 
#    0.000    8.333    0.000    0.000    0.000    3.500 
#    0.000    0.000    0.000    0.000    0.000    0.000 
#
# Total GULP energy -535474.712166 kJ/mol
# GULP energy per Si atom -5577.861585 kJ/mol
# Density = 2.237435 g / cm^3
# Si number density = 22.425395 Si / 1000 Ang^3
#
#
#
# Elastic Constant Matrix: (Units=GPa)
#
#
# Indices 1 2 3 4 5 6 
#
# 1 46.6204 90.4986 -12.4373 0.0000 0.0000 0.0000
# 2 90.4986 46.6204 -12.4373 0.0000 0.0000 0.0000
# 3 -12.4373 -12.4373 26.5431 0.0000 0.0000 0.0000
# 4 0.0000 0.0000 0.0000 1.3568 0.0000 0.0000
# 5 0.0000 0.0000 0.0000 0.0000 1.3568 0.0000
# 6 0.0000 0.0000 0.0000 0.0000 0.0000 37.5813
#
#
#
# Elastic Compliance Matrix: (Units=1/GPa)
#
#
# Indices 1 2 3 4 5 6 
#
# 1 -0.007410 0.015380 0.003735 0.000000 0.000000 0.000000
# 2 0.015380 -0.007410 0.003735 0.000000 0.000000 0.000000
# 3 0.003735 0.003735 0.041174 0.000000 0.000000 0.000000
# 4 0.000000 0.000000 0.000000 0.737036 0.000000 0.000000
# 5 0.000000 0.000000 0.000000 0.000000 0.737036 0.000000
# 6 0.000000 0.000000 0.000000 0.000000 0.000000 0.026609
#
#
# Mechanical properties :
#
#
# Convention : Reuss Voigt Hill
#
# Bulk Modulus (GPa) = 13.87845 27.89245 20.88545
# Shear Modulus (GPa) = 3.32148 11.66963 7.49555
#
# Velocity S-wave (km/s) = 1.21833 2.28365 1.83022
# Velocity P-wave (km/s) = 2.86029 4.40662 3.71481
#
# Compressibility (1/GPa) = 0.07205416
#
# Stress axis : x y z
#
# Youngs Moduli (GPa) = -134.95338 -134.95338 24.28689
#
# Poissons Ratio (x) = 2.07564 -0.09070
# Poissons Ratio (y) = 2.07564 -0.09070
# Poissons Ratio (z) = 0.50401 0.50401
#
# Static dielectric constant tensor:
#      x y z
#    x 1.850840 0.000000 0.000000 
#    y 0.000000 1.850840 0.000000 
#    z 0.000000 0.000000 1.821520 
# 
# From -- ./inp_files/1931.got.cif
#   From: 2010.05.17/outbox.cif.g08.bks.cpg/sg136_1_cif.got.tgz:1931.got - 2010.05.20 12:54:53.
