data_PCOD9569842
_publ_section_title
;
Structure prediction by ZEFSAII (Michael W. Deem and Ramdas Pophale) SiO2 
 PCOD9569842
Probable space group: P 42/M N M
;
_chemical_formula_sum "Si O2"
_cell_formula_units_Z 88
_cell_length_a 12.246579
_cell_length_b 12.246579
_cell_length_c 29.503045
_cell_angle_alpha 90.000000
_cell_angle_beta 90.000000
_cell_angle_gamma 90.000000
_cell_volume 4424.828253
_symmetry_space_group_name_H-M "P 42/M N M"
_symmetry_group_IT_number 136
_symmetry_cell_setting 'tetragonal'
loop_
_space_group_symop_operation_xyz
x,y,z
1/2-y,1/2+x,1/2+z
-x,-y,z
1/2+y,1/2-x,1/2+z
1/2+x,1/2-y,1/2-z
1/2-x,1/2+y,1/2-z
y,x,-z
-y,-x,-z
-x,-y,-z
1/2+y,1/2-x,1/2-z
x,y,-z
1/2-y,1/2+x,1/2-z
1/2-x,1/2+y,1/2+z
1/2+x,1/2-y,1/2+z
-y,-x,z
y,x,z
loop_
_atom_site_type_symbol
_atom_site_label
_atom_site_fract_x
_atom_site_fract_y
_atom_site_fract_z
Si Si1 0.731252 0.550245 0.883382
Si Si2 0.002323 0.177616 0.054158
Si Si3 0.905534 0.905534 0.447381
Si Si4 0.534717 0.126968 0.385413
Si Si5 0.418690 0.240600 0.300759
Si Si6 0.560384 0.262725 0.787733
O O1 0.627371 0.627371 0.879219
O O2 0.695813 0.456622 0.919153
O O3 0.836570 0.620746 0.895586
O O4 0.757586 0.503982 0.833880
O O5 0.111980 0.111980 0.069474
O O6 0.986412 0.295238 0.075995
O O7 0.007865 0.185776 0.000000
O O8 0.902051 0.097950 0.065752
O O9 0.880048 0.880048 0.500000
O O10 0.000000 0.000000 0.448416
O O11 0.495489 0.187431 0.339346
O O12 0.500000 0.000000 0.384753
O O13 0.343178 0.343178 0.316262
O O14 0.334873 0.147265 0.284241
O O15 0.488758 0.271656 0.257007
O O16 0.626206 0.373795 0.794419
#
# Coordination Sequence:
#
# PCOD9569842 Si02
#       6
#    16  16   8  16  16  16
#     4  11  22  39  65  94 126 168 215 264 317 381
#     4   9  20  42  70  96 126 169 221 276 332 392
#     4   9  20  40  66  96 130 168 213 265 322 380
#     4  12  24  40  63  92 136 172 210 265 332 392
#     4  11  25  41  62  92 127 168 215 269 324 393
#     4  11  23  41  64  89 124 168 215 262 322 386
#
# _framework density 19.887778000000001
#
# number of rings (size 3 to 8) (size 9 to 14) (size 15 to 20)
#    0.000    1.364    2.727    3.273    0.000    5.091 
#    1.636    1.818    0.000    0.000    0.000    0.000 
#    0.000    0.000    0.000    0.000    0.000    0.000 
#
# Total GULP energy -491212.856737 kJ/mol
# GULP energy per Si atom -5581.964281 kJ/mol
# Density = 1.984251 g / cm^3
# Si number density = 19.887778 Si / 1000 Ang^3
#
#
#
# Elastic Constant Matrix: (Units=GPa)
#
#
# Indices 1 2 3 4 5 6 
#
# 1 57.9616 -5.1259 17.4816 0.0000 0.0000 0.0000
# 2 -5.1259 57.9616 17.4816 0.0000 0.0000 0.0000
# 3 17.4816 17.4816 60.9170 0.0000 0.0000 0.0000
# 4 0.0000 0.0000 0.0000 17.4467 0.0000 0.0000
# 5 0.0000 0.0000 0.0000 0.0000 17.4467 0.0000
# 6 0.0000 0.0000 0.0000 0.0000 0.0000 21.1516
#
#
#
# Elastic Compliance Matrix: (Units=1/GPa)
#
#
# Indices 1 2 3 4 5 6 
#
# 1 0.019607 0.003756 -0.006705 0.000000 0.000000 0.000000
# 2 0.003756 0.019607 -0.006705 0.000000 0.000000 0.000000
# 3 -0.006705 -0.006705 0.020264 0.000000 0.000000 0.000000
# 4 0.000000 0.000000 0.000000 0.057317 0.000000 0.000000
# 5 0.000000 0.000000 0.000000 0.000000 0.057317 0.000000
# 6 0.000000 0.000000 0.000000 0.000000 0.000000 0.047278
#
#
# Mechanical properties :
#
#
# Convention : Reuss Voigt Hill
#
# Bulk Modulus (GPa) = 24.89306 26.27943 25.58625
# Shear Modulus (GPa) = 19.67827 21.00922 20.34374
#
# Velocity S-wave (km/s) = 3.14899 3.25374 3.20179
# Velocity P-wave (km/s) = 5.07597 5.23052 5.15382
#
# Compressibility (1/GPa) = 0.04017183
#
# Stress axis : x y z
#
# Youngs Moduli (GPa) = 51.00185 51.00185 49.34885
#
# Poissons Ratio (x) = -0.19157 0.33087
# Poissons Ratio (y) = -0.19157 0.33087
# Poissons Ratio (z) = 0.34195 0.34195
#
# Static dielectric constant tensor:
#      x y z
#    x 1.737820 0.000000 0.000000 
#    y 0.000000 1.737820 0.000000 
#    z 0.000000 0.000000 1.769430 
# 
# From -- ./inp_files/9710.got.cif
#   From: 2010.05.17/outbox.cif.g08.bks.cpg/sg136_5_cif.got.tgz:9710.got - 2010.05.20 12:54:53.
