data_PCOD9569141
_publ_section_title
;
Structure prediction by ZEFSAII (Michael W. Deem and Ramdas Pophale) SiO2 
 PCOD9569141
Probable space group: P 42/M N M
;
_chemical_formula_sum "Si O2"
_cell_formula_units_Z 72
_cell_length_a 23.477771
_cell_length_b 23.477771
_cell_length_c 9.084414
_cell_angle_alpha 90.000000
_cell_angle_beta 90.000000
_cell_angle_gamma 90.000000
_cell_volume 5007.381061
_symmetry_space_group_name_H-M "P 42/M N M"
_symmetry_group_IT_number 136
_symmetry_cell_setting 'tetragonal'
loop_
_space_group_symop_operation_xyz
x,y,z
1/2-y,1/2+x,1/2+z
-x,-y,z
1/2+y,1/2-x,1/2+z
1/2+x,1/2-y,1/2-z
1/2-x,1/2+y,1/2-z
y,x,-z
-y,-x,-z
-x,-y,-z
1/2+y,1/2-x,1/2-z
x,y,-z
1/2-y,1/2+x,1/2-z
1/2-x,1/2+y,1/2+z
1/2+x,1/2-y,1/2+z
-y,-x,z
y,x,z
loop_
_atom_site_type_symbol
_atom_site_label
_atom_site_fract_x
_atom_site_fract_y
_atom_site_fract_z
Si Si1 0.486818 0.325817 0.322065
Si Si2 0.688479 0.213768 0.331067
Si Si3 0.546080 0.546080 0.678988
Si Si4 0.272111 0.367372 0.323918
Si Si5 0.106639 0.201838 0.324065
O O1 0.493288 0.325084 0.500000
O O2 0.471289 0.390416 0.276660
O O3 0.432052 0.287308 0.284603
O O4 0.545185 0.307151 0.247322
O O5 0.672290 0.203334 0.500000
O O6 0.738202 0.261798 0.329921
O O7 0.717897 0.159240 0.257269
O O8 0.637412 0.242236 0.240677
O O9 0.500000 0.500000 0.729695
O O10 0.545985 0.545985 0.500000
O O11 0.263625 0.364137 0.500000
O O12 0.326815 0.326815 0.291116
O O13 0.102993 0.205495 0.500000
O O14 0.148062 0.148062 0.287661
#
# Coordination Sequence:
#
# PCOD9569141 Si02
#       5
#    16  16   8  16  16
#     4  10  18  29  45  65  88 118 155 190 222 263
#     4   9  17  29  46  65  83 108 145 185 228 275
#     4   9  16  26  41  61  85 119 161 195 217 246
#     4   9  16  28  45  65  89 114 144 183 228 271
#     4  10  20  32  44  61  87 119 152 189 232 269
#
# _framework density 14.378774
#
# number of rings (size 3 to 8) (size 9 to 14) (size 15 to 20)
#    0.000    2.556    1.111    2.000    0.000    5.778 
#    0.000    0.556    0.000    2.000    0.000    0.000 
#    0.000    0.889    0.000    9.333    0.000    4.000 
#
# Total GULP energy -401310.079628 kJ/mol
# GULP energy per Si atom -5573.751106 kJ/mol
# Density = 1.434605 g / cm^3
# Si number density = 14.378774 Si / 1000 Ang^3
#
#
#
# Elastic Constant Matrix: (Units=GPa)
#
#
# Indices 1 2 3 4 5 6 
#
# 1 96.0146 86.0851 51.0254 0.0000 0.0000 0.0000
# 2 86.0851 96.0146 51.0254 0.0000 0.0000 0.0000
# 3 51.0254 51.0254 49.9331 0.0000 0.0000 0.0000
# 4 0.0000 0.0000 0.0000 22.9607 0.0000 0.0000
# 5 0.0000 0.0000 0.0000 0.0000 22.9607 0.0000
# 6 0.0000 0.0000 0.0000 0.0000 0.0000 24.8994
#
#
#
# Elastic Compliance Matrix: (Units=1/GPa)
#
#
# Indices 1 2 3 4 5 6 
#
# 1 0.056781 -0.043930 -0.013132 0.000000 0.000000 0.000000
# 2 -0.043930 0.056781 -0.013132 0.000000 0.000000 0.000000
# 3 -0.013132 -0.013132 0.046865 0.000000 0.000000 0.000000
# 4 0.000000 0.000000 0.000000 0.043553 0.000000 0.000000
# 5 0.000000 0.000000 0.000000 0.000000 0.043553 0.000000
# 6 0.000000 0.000000 0.000000 0.000000 0.000000 0.040162
#
#
# Mechanical properties :
#
#
# Convention : Reuss Voigt Hill
#
# Bulk Modulus (GPa) = 49.90250 68.69268 59.29759
# Shear Modulus (GPa) = 11.50059 17.75258 14.62658
#
# Velocity S-wave (km/s) = 2.83120 3.51755 3.19287
# Velocity P-wave (km/s) = 6.74304 8.02340 7.41092
#
# Compressibility (1/GPa) = 0.02003908
#
# Stress axis : x y z
#
# Youngs Moduli (GPa) = 17.61162 17.61162 21.33792
#
# Poissons Ratio (x) = 0.77368 0.28021
# Poissons Ratio (y) = 0.77368 0.28021
# Poissons Ratio (z) = 0.23127 0.23127
#
# Static dielectric constant tensor:
#      x y z
#    x 1.457200 0.000000 0.000000 
#    y 0.000000 1.457200 0.000000 
#    z 0.000000 0.000000 1.482680 
# 
# From -- ./inp_files/1557.got.cif
#   From: 2010.05.17/outbox.cif.g08.bks.cpg/sg136_1_cif.got.tgz:1557.got - 2010.05.20 12:54:53.
