data_PCOD9569498
_publ_section_title
;
Structure prediction by ZEFSAII (Michael W. Deem and Ramdas Pophale) SiO2 
 PCOD9569498
Probable space group: P 42/M N M
;
_chemical_formula_sum "Si O2"
_cell_formula_units_Z 56
_cell_length_a 17.408229
_cell_length_b 17.408229
_cell_length_c 8.010067
_cell_angle_alpha 90.000000
_cell_angle_beta 90.000000
_cell_angle_gamma 90.000000
_cell_volume 2427.422264
_symmetry_space_group_name_H-M "P 42/M N M"
_symmetry_group_IT_number 136
_symmetry_cell_setting 'tetragonal'
loop_
_space_group_symop_operation_xyz
x,y,z
1/2-y,1/2+x,1/2+z
-x,-y,z
1/2+y,1/2-x,1/2+z
1/2+x,1/2-y,1/2-z
1/2-x,1/2+y,1/2-z
y,x,-z
-y,-x,-z
-x,-y,-z
1/2+y,1/2-x,1/2-z
x,y,-z
1/2-y,1/2+x,1/2-z
1/2-x,1/2+y,1/2+z
1/2+x,1/2-y,1/2+z
-y,-x,z
y,x,z
loop_
_atom_site_type_symbol
_atom_site_label
_atom_site_fract_x
_atom_site_fract_y
_atom_site_fract_z
Si Si1 0.459173 0.888902 0.691602
Si Si2 0.495858 0.629280 0.000000
Si Si3 0.804821 0.065585 0.182576
Si Si4 0.185066 0.306418 0.797613
O O1 0.483133 0.877918 0.500000
O O2 0.533729 0.907576 0.798631
O O3 0.402924 0.821430 0.749057
O O4 0.509323 0.679416 0.835060
O O5 0.563977 0.563977 0.000000
O O6 0.416829 0.583172 0.000000
O O7 0.879643 0.120358 0.174842
O O8 0.736208 0.124768 0.221869
O O9 0.794652 0.029397 0.000000
O O10 0.227245 0.227245 0.750424
O O11 0.188898 0.313155 0.000000
#
# Coordination Sequence:
#
# PCOD9569498 Si02
#       4
#    16   8  16  16
#     4  10  20  34  55  82 115 150 185 231 287 348
#     4   9  16  26  40  60  94 133 170 224 279 328
#     4   9  16  26  43  68  96 129 174 224 272 324
#     4   9  17  32  54  78 105 141 185 231 282 340
#
# _framework density 23.069739999999999
#
# number of rings (size 3 to 8) (size 9 to 14) (size 15 to 20)
#    0.000    2.714    1.429    1.714    0.000    2.857 
#    0.000    2.857    0.000    1.714    0.000    4.000 
#    0.000    0.000    0.000    0.000    0.000    0.000 
#
# Total GULP energy -312887.535680 kJ/mol
# GULP energy per Si atom -5587.277423 kJ/mol
# Density = 2.301723 g / cm^3
# Si number density = 23.069740 Si / 1000 Ang^3
#
#
#
# Elastic Constant Matrix: (Units=GPa)
#
#
# Indices 1 2 3 4 5 6 
#
# 1 59.4814 55.2784 30.5864 0.0000 0.0000 0.0000
# 2 55.2784 59.4802 30.5857 0.0000 0.0000 0.0000
# 3 30.5864 30.5857 105.6382 0.0000 0.0000 0.0000
# 4 0.0000 0.0000 0.0000 4.5690 0.0000 0.0000
# 5 0.0000 0.0000 0.0000 0.0000 4.5669 0.0000
# 6 0.0000 0.0000 0.0000 0.0000 0.0000 24.2501
#
#
#
# Elastic Compliance Matrix: (Units=1/GPa)
#
#
# Indices 1 2 3 4 5 6 
#
# 1 0.124131 -0.113828 -0.002984 0.000000 0.000000 0.000000
# 2 -0.113828 0.124133 -0.002983 0.000000 0.000000 0.000000
# 3 -0.002984 -0.002983 0.011194 0.000000 0.000000 0.000000
# 4 0.000000 0.000000 0.000000 0.218867 0.000000 0.000000
# 5 0.000000 0.000000 0.000000 0.000000 0.218966 0.000000
# 6 0.000000 0.000000 0.000000 0.000000 0.000000 0.041237
#
#
# Mechanical properties :
#
#
# Convention : Reuss Voigt Hill
#
# Bulk Modulus (GPa) = 50.33076 50.83342 50.58209
# Shear Modulus (GPa) = 5.07748 13.88716 9.48232
#
# Velocity S-wave (km/s) = 1.48516 2.45616 2.02958
# Velocity P-wave (km/s) = 4.98047 5.48873 5.24076
#
# Compressibility (1/GPa) = 0.01986856
#
# Stress axis : x y z
#
# Youngs Moduli (GPa) = 8.05599 8.05586 89.33437
#
# Poissons Ratio (x) = 0.91698 0.26657
# Poissons Ratio (y) = 0.91700 0.26648
# Poissons Ratio (z) = 0.02404 0.02403
#
# Static dielectric constant tensor:
#      x y z
#    x 1.857700 0.000000 0.000000 
#    y 0.000000 1.857700 0.000000 
#    z 0.000000 0.000000 1.800660 
# 
# From -- ./inp_files/1133.got.cif
#   From: 2010.05.17/outbox.cif.g08.bks.cpg/sg136_1_cif.got.tgz:1133.got - 2010.05.20 12:54:53.
