data_PCOD9569043
_publ_section_title
;
Structure prediction by ZEFSAII (Michael W. Deem and Ramdas Pophale) SiO2 
 PCOD9569043
Probable space group: P 42/M B C
;
_chemical_formula_sum "Si O2"
_cell_formula_units_Z 44
_cell_length_a 14.238865
_cell_length_b 14.238865
_cell_length_c 9.726723
_cell_angle_alpha 90.000000
_cell_angle_beta 90.000000
_cell_angle_gamma 90.000000
_cell_volume 1972.047144
_symmetry_space_group_name_H-M "P 42/M B C"
_symmetry_group_IT_number 135
_symmetry_cell_setting 'tetragonal'
loop_
_space_group_symop_operation_xyz
x,y,z
-y,x,1/2+z
-x,-y,z
y,-x,1/2+z
1/2+x,1/2-y,-z
1/2-x,1/2+y,-z
1/2+y,1/2+x,1/2-z
1/2-y,1/2-x,1/2-z
-x,-y,-z
y,-x,1/2-z
x,y,-z
-y,x,1/2-z
1/2-x,1/2+y,z
1/2+x,1/2-y,z
1/2-y,1/2-x,1/2+z
1/2+y,1/2+x,1/2+z
loop_
_atom_site_type_symbol
_atom_site_label
_atom_site_fract_x
_atom_site_fract_y
_atom_site_fract_z
Si Si1 0.500000 0.500000 0.750000
Si Si2 0.207430 0.998107 0.799793
Si Si3 0.807317 0.362741 0.000000
Si Si4 0.220823 0.343688 0.000000
Si Si5 0.214717 0.491622 0.500000
O O1 0.510263 0.597629 0.669233
O O2 0.223404 0.997928 0.637391
O O3 0.267504 0.080416 0.869714
O O4 0.243549 0.902195 0.868442
O O5 0.765224 0.258827 0.000000
O O6 0.919453 0.354835 0.000000
O O7 0.108526 0.336671 0.000000
#
# Coordination Sequence:
#
# PCOD9569043 Si02
#       5
#     4  16   8   8   8
#     4  12  24  46  68 102 140 174 236 298 360 430
#     4  11  26  42  72 103 134 186 234 293 364 432
#     4  11  25  47  69 101 141 186 236 288 359 435
#     4  11  25  47  69 101 141 186 236 288 359 435
#     4  12  24  44  70 100 142 184 234 300 356 432
#
# _framework density 22.311838999999999
#
# number of rings (size 3 to 8) (size 9 to 14) (size 15 to 20)
#    0.000    0.727    0.000    6.545    0.000   12.364 
#    0.000    7.273    0.000    0.000    0.000    0.000 
#    0.000    0.000    0.000    0.000    0.000    0.000 
#
# Total GULP energy -246586.830774 kJ/mol
# GULP energy per Si atom -5604.246154 kJ/mol
# Density = 2.226106 g / cm^3
# Si number density = 22.311839 Si / 1000 Ang^3
#
#
#
# Elastic Constant Matrix: (Units=GPa)
#
#
# Indices 1 2 3 4 5 6 
#
# 1 89.7363 -22.6334 17.5068 0.0000 0.0000 0.0000
# 2 -22.6334 89.7363 17.5068 0.0000 0.0000 0.0000
# 3 17.5068 17.5068 177.7503 0.0000 0.0000 0.0000
# 4 0.0000 0.0000 0.0000 18.5641 0.0000 0.0000
# 5 0.0000 0.0000 0.0000 0.0000 18.5641 0.0000
# 6 0.0000 0.0000 0.0000 0.0000 0.0000 35.9788
#
#
#
# Elastic Compliance Matrix: (Units=1/GPa)
#
#
# Indices 1 2 3 4 5 6 
#
# 1 0.012305 0.003405 -0.001547 0.000000 0.000000 0.000000
# 2 0.003405 0.012305 -0.001547 0.000000 0.000000 0.000000
# 3 -0.001547 -0.001547 0.005931 0.000000 0.000000 0.000000
# 4 0.000000 0.000000 0.000000 0.053867 0.000000 0.000000
# 5 0.000000 0.000000 0.000000 0.000000 0.053867 0.000000
# 6 0.000000 0.000000 0.000000 0.000000 0.000000 0.027794
#
#
# Mechanical properties :
#
#
# Convention : Reuss Voigt Hill
#
# Bulk Modulus (GPa) = 32.09117 42.44260 37.26688
# Shear Modulus (GPa) = 28.43589 37.61091 33.02340
#
# Velocity S-wave (km/s) = 3.57385 4.11017 3.85136
# Velocity P-wave (km/s) = 5.60751 6.44891 6.04287
#
# Compressibility (1/GPa) = 0.03116122
#
# Stress axis : x y z
#
# Youngs Moduli (GPa) = 81.27094 81.27094 168.61541
#
# Poissons Ratio (x) = -0.27675 0.26090
# Poissons Ratio (y) = -0.27675 0.26090
# Poissons Ratio (z) = 0.12575 0.12575
#
# Static dielectric constant tensor:
#      x y z
#    x 1.792520 0.000000 0.000000 
#    y 0.000000 1.792520 0.000000 
#    z 0.000000 0.000000 1.821620 
# 
# From -- ./inp_files/1924.got.cif
#   From: 2010.05.17/outbox.cif.g08.bks.cpg/sg135_1_cif.got.tgz:1924.got - 2010.05.20 12:50:20.
