data_PCOD9569325
_publ_section_title
;
Structure prediction by ZEFSAII (Michael W. Deem and Ramdas Pophale) SiO2 
 PCOD9569325
Probable space group: P 42/M N M
;
_chemical_formula_sum "Si O2"
_cell_formula_units_Z 56
_cell_length_a 22.011143
_cell_length_b 22.011143
_cell_length_c 7.676086
_cell_angle_alpha 90.000000
_cell_angle_beta 90.000000
_cell_angle_gamma 90.000000
_cell_volume 3718.990101
_symmetry_space_group_name_H-M "P 42/M N M"
_symmetry_group_IT_number 136
_symmetry_cell_setting 'tetragonal'
loop_
_space_group_symop_operation_xyz
x,y,z
1/2-y,1/2+x,1/2+z
-x,-y,z
1/2+y,1/2-x,1/2+z
1/2+x,1/2-y,1/2-z
1/2-x,1/2+y,1/2-z
y,x,-z
-y,-x,-z
-x,-y,-z
1/2+y,1/2-x,1/2-z
x,y,-z
1/2-y,1/2+x,1/2-z
1/2-x,1/2+y,1/2+z
1/2+x,1/2-y,1/2+z
-y,-x,z
y,x,z
loop_
_atom_site_type_symbol
_atom_site_label
_atom_site_fract_x
_atom_site_fract_y
_atom_site_fract_z
Si Si1 0.975890 0.812295 0.300373
Si Si2 0.050033 0.050033 0.210605
Si Si3 0.783793 0.114653 0.203547
Si Si4 0.680295 0.783806 0.000000
Si Si5 0.116536 0.221372 0.000000
O O1 0.965312 0.794147 0.500000
O O2 0.968834 0.884783 0.282258
O O3 0.926511 0.785039 0.168140
O O4 0.044420 0.795868 0.245483
O O5 0.054366 0.054366 0.000000
O O6 0.000000 0.000000 0.253786
O O7 0.844512 0.155489 0.236485
O O8 0.731917 0.140711 0.330033
O O9 0.768817 0.121601 0.000000
O O10 0.715304 0.847261 0.000000
O O11 0.734116 0.734116 0.000000
O O12 0.165851 0.165851 0.000000
#
# Coordination Sequence:
#
# PCOD9569325 Si02
#       5
#    16   8  16   8   8
#     4  12  21  32  51  74 105 141 177 211 255 304
#     4  11  21  33  47  70 107 149 182 215 249 292
#     4  10  19  33  53  76 100 135 177 219 256 293
#     4   9  20  36  54  71 101 137 175 217 260 311
#     4  11  22  38  50  74 110 142 174 213 264 309
#
# _framework density 15.057852
#
# number of rings (size 3 to 8) (size 9 to 14) (size 15 to 20)
#    0.000    1.286    5.714    1.286    0.000    5.714 
#    0.000    2.857    0.000    0.000    0.000    0.000 
#    0.000    3.429    0.000    0.000    0.000    0.000 
#
# Total GULP energy -312580.785943 kJ/mol
# GULP energy per Si atom -5581.799749 kJ/mol
# Density = 1.502358 g / cm^3
# Si number density = 15.057852 Si / 1000 Ang^3
#
#
#
# Elastic Constant Matrix: (Units=GPa)
#
#
# Indices 1 2 3 4 5 6 
#
# 1 72.7486 87.3944 58.9807 0.0000 0.0000 0.0000
# 2 87.3944 72.7486 58.9807 0.0000 0.0000 0.0000
# 3 58.9807 58.9807 144.4455 0.0000 0.0000 0.0000
# 4 0.0000 0.0000 0.0000 -1.0805 0.0000 0.0000
# 5 0.0000 0.0000 0.0000 0.0000 -1.0805 0.0000
# 6 0.0000 0.0000 0.0000 0.0000 0.0000 33.7129
#
#
#
# Elastic Compliance Matrix: (Units=1/GPa)
#
#
# Indices 1 2 3 4 5 6 
#
# 1 -0.029674 0.038605 -0.003647 0.000000 0.000000 0.000000
# 2 0.038605 -0.029674 -0.003647 0.000000 0.000000 0.000000
# 3 -0.003647 -0.003647 0.009901 0.000000 0.000000 0.000000
# 4 0.000000 0.000000 0.000000 -0.925461 0.000000 0.000000
# 5 0.000000 0.000000 0.000000 0.000000 -0.925461 0.000000
# 6 0.000000 0.000000 0.000000 0.000000 0.000000 0.029662
#
#
# Mechanical properties :
#
#
# Convention : Reuss Voigt Hill
#
# Bulk Modulus (GPa) = 75.89697 77.85049 76.87373
# Shear Modulus (GPa) = -2.59210 11.94948 4.67869
#
# Velocity S-wave (km/s) = -1.31346 2.82010 1.76462
# Velocity P-wave (km/s) = 6.94354 7.90045 7.43740
#
# Compressibility (1/GPa) = 0.01317576
#
# Stress axis : x y z
#
# Youngs Moduli (GPa) = -33.69923 -33.69923 101.00025
#
# Poissons Ratio (x) = 1.30095 0.36830
# Poissons Ratio (y) = 1.30095 0.36830
# Poissons Ratio (z) = -0.12289 -0.12289
#
# Static dielectric constant tensor:
#      x y z
#    x 1.476250 0.000000 0.000000 
#    y 0.000000 1.476250 0.000000 
#    z 0.000000 0.000000 1.526240 
# 
# From -- ./inp_files/1365.got.cif
#   From: 2010.05.17/outbox.cif.g08.bks.cpg/sg136_1_cif.got.tgz:1365.got - 2010.05.20 12:54:53.
