data_PCOD9569285
_publ_section_title
;
Structure prediction by ZEFSAII (Michael W. Deem and Ramdas Pophale) SiO2 
 PCOD9569285
Probable space group: P 42/M N M
;
_chemical_formula_sum "Si O2"
_cell_formula_units_Z 72
_cell_length_a 20.729733
_cell_length_b 20.729733
_cell_length_c 7.471967
_cell_angle_alpha 90.000000
_cell_angle_beta 90.000000
_cell_angle_gamma 90.000000
_cell_volume 3210.867335
_symmetry_space_group_name_H-M "P 42/M N M"
_symmetry_group_IT_number 136
_symmetry_cell_setting 'tetragonal'
loop_
_space_group_symop_operation_xyz
x,y,z
1/2-y,1/2+x,1/2+z
-x,-y,z
1/2+y,1/2-x,1/2+z
1/2+x,1/2-y,1/2-z
1/2-x,1/2+y,1/2-z
y,x,-z
-y,-x,-z
-x,-y,-z
1/2+y,1/2-x,1/2-z
x,y,-z
1/2-y,1/2+x,1/2-z
1/2-x,1/2+y,1/2+z
1/2+x,1/2-y,1/2+z
-y,-x,z
y,x,z
loop_
_atom_site_type_symbol
_atom_site_label
_atom_site_fract_x
_atom_site_fract_y
_atom_site_fract_z
Si Si1 0.807834 0.381749 0.288018
Si Si2 0.851269 0.248128 0.785878
Si Si3 0.999727 0.891685 0.500000
Si Si4 0.779184 0.003750 0.782186
Si Si5 0.559850 0.920065 0.799416
O O1 0.814372 0.393660 0.500000
O O2 0.801317 0.305311 0.265546
O O3 0.761006 0.439135 0.227561
O O4 0.879342 0.388434 0.208333
O O5 0.818853 0.181148 0.722955
O O6 0.926819 0.252711 0.730159
O O7 0.852905 0.246847 0.000000
O O8 0.060547 0.939454 0.500000
O O9 0.000863 0.845872 0.325604
O O10 0.936071 0.936071 0.500000
O O11 0.786619 0.002676 0.000000
O O12 0.494708 0.919045 0.691218
O O13 0.546954 0.896019 0.000000
#
# Coordination Sequence:
#
# PCOD9569285 Si02
#       5
#    16  16   8  16  16
#     4  10  22  37  57  89 125 165 211 264 326 391
#     4  10  22  40  64  92 125 171 223 276 335 404
#     4  11  26  46  72 104 130 167 228 290 350 411
#     4  10  23  45  68  96 138 182 224 277 342 413
#     4  10  19  32  49  75 111 154 203 250 300 360
#
# _framework density 22.423849000000001
#
# number of rings (size 3 to 8) (size 9 to 14) (size 15 to 20)
#    0.000    1.889    0.000    3.333    3.111    6.667 
#    0.000    3.333    0.000    0.000    0.000    0.000 
#    0.000    0.000    0.000    0.000    0.000    0.000 
#
# Total GULP energy -401377.741011 kJ/mol
# GULP energy per Si atom -5574.690847 kJ/mol
# Density = 2.237281 g / cm^3
# Si number density = 22.423849 Si / 1000 Ang^3
#
#
#
# Elastic Constant Matrix: (Units=GPa)
#
#
# Indices 1 2 3 4 5 6 
#
# 1 111.1935 91.8780 21.1697 0.0000 0.0000 0.0000
# 2 91.8780 111.1938 21.1697 0.0000 0.0000 0.0000
# 3 21.1697 21.1697 94.2850 0.0000 0.0000 0.0000
# 4 0.0000 0.0000 0.0000 82.4322 0.0000 0.0000
# 5 0.0000 0.0000 0.0000 0.0000 82.4518 0.0000
# 6 0.0000 0.0000 0.0000 0.0000 0.0000 36.8514
#
#
#
# Elastic Compliance Matrix: (Units=1/GPa)
#
#
# Indices 1 2 3 4 5 6 
#
# 1 0.028469 -0.023303 -0.001160 0.000000 0.000000 0.000000
# 2 -0.023303 0.028469 -0.001160 0.000000 0.000000 0.000000
# 3 -0.001160 -0.001160 0.011127 0.000000 0.000000 0.000000
# 4 0.000000 0.000000 0.000000 0.012131 0.000000 0.000000
# 5 0.000000 0.000000 0.000000 0.000000 0.012128 0.000000
# 6 0.000000 0.000000 0.000000 0.000000 0.000000 0.027136
#
#
# Mechanical properties :
#
#
# Convention : Reuss Voigt Hill
#
# Bulk Modulus (GPa) = 59.45444 65.01191 62.23318
# Shear Modulus (GPa) = 28.35885 52.51074 40.43479
#
# Velocity S-wave (km/s) = 3.56008 4.84440 4.25102
# Velocity P-wave (km/s) = 6.59321 7.76828 7.20474
#
# Compressibility (1/GPa) = 0.01681960
#
# Stress axis : x y z
#
# Youngs Moduli (GPa) = 35.12609 35.12619 89.87125
#
# Poissons Ratio (x) = 0.81853 0.10425
# Poissons Ratio (y) = 0.81853 0.10425
# Poissons Ratio (z) = 0.04075 0.04074
#
# Static dielectric constant tensor:
#      x y z
#    x 1.900350 0.000000 0.000000 
#    y 0.000000 1.900350 0.000000 
#    z 0.000000 0.000000 1.813640 
# 
# From -- ./inp_files/1541.got.cif
#   From: 2010.05.17/outbox.cif.g08.bks.cpg/sg136_1_cif.got.tgz:1541.got - 2010.05.20 12:54:53.
