data_PCOD9569188
_publ_section_title
;
Structure prediction by ZEFSAII (Michael W. Deem and Ramdas Pophale) SiO2 
 PCOD9569188
Probable space group: P 42/M N M
;
_chemical_formula_sum "Si O2"
_cell_formula_units_Z 104
_cell_length_a 26.712452
_cell_length_b 26.712452
_cell_length_c 8.868604
_cell_angle_alpha 90.000000
_cell_angle_beta 90.000000
_cell_angle_gamma 90.000000
_cell_volume 6328.237542
_symmetry_space_group_name_H-M "P 42/M N M"
_symmetry_group_IT_number 136
_symmetry_cell_setting 'tetragonal'
loop_
_space_group_symop_operation_xyz
x,y,z
1/2-y,1/2+x,1/2+z
-x,-y,z
1/2+y,1/2-x,1/2+z
1/2+x,1/2-y,1/2-z
1/2-x,1/2+y,1/2-z
y,x,-z
-y,-x,-z
-x,-y,-z
1/2+y,1/2-x,1/2-z
x,y,-z
1/2-y,1/2+x,1/2-z
1/2-x,1/2+y,1/2+z
1/2+x,1/2-y,1/2+z
-y,-x,z
y,x,z
loop_
_atom_site_type_symbol
_atom_site_label
_atom_site_fract_x
_atom_site_fract_y
_atom_site_fract_z
Si Si1 0.542202 0.542202 0.181257
Si Si2 0.214987 0.627660 0.679965
Si Si3 0.384352 0.615649 0.819846
Si Si4 0.984696 0.748434 0.180120
Si Si5 0.861220 0.992187 0.818670
Si Si6 0.353917 0.984460 0.680134
Si Si7 0.112802 0.595631 0.819762
Si Si8 0.306879 0.693122 0.681773
O O1 0.500000 0.500000 0.221800
O O2 0.526178 0.595567 0.248165
O O3 0.544076 0.544076 0.000000
O O4 0.206372 0.628302 0.500000
O O5 0.243447 0.574981 0.714565
O O6 0.162016 0.624899 0.762571
O O7 0.251044 0.674155 0.718099
O O8 0.369945 0.562629 0.749116
O O9 0.343956 0.656045 0.767844
O O10 0.387727 0.612274 0.000000
O O11 0.004764 0.803522 0.218206
O O12 0.011861 0.703245 0.263913
O O13 0.989563 0.741446 0.000000
O O14 0.866074 0.990932 0.000000
O O15 0.355254 0.981050 0.500000
O O16 0.381800 0.937355 0.750837
O O17 0.378997 0.037509 0.725561
O O18 0.110653 0.597860 0.000000
O O19 0.313518 0.686483 0.500000
#
# Coordination Sequence:
#
# PCOD9569188 Si02
#       8
#     8  16   8  16  16  16  16   8
#     4  11  23  35  47  72 104 137 176 223 275 314
#     4   9  17  31  52  77 106 137 171 211 254 306
#     4  12  22  29  45  74 107 139 171 219 269 314
#     4   9  18  33  54  77 101 132 171 212 255 306
#     4  11  21  35  53  72  99 140 182 218 265 320
#     4  10  21  36  56  81 108 139 173 210 259 314
#     4  10  21  36  54  79 110 141 176 216 259 312
#     4  10  18  32  51  76 107 142 178 212 259 317
#
# _framework density 16.434275
#
# number of rings (size 3 to 8) (size 9 to 14) (size 15 to 20)
#    0.000    1.923    2.308    2.308    0.000    4.308 
#    0.000    1.538    0.000    0.923    0.000    4.308 
#    0.000    0.000    0.000    0.000    0.000    0.000 
#
# Total GULP energy -580278.740827 kJ/mol
# GULP energy per Si atom -5579.603277 kJ/mol
# Density = 1.639687 g / cm^3
# Si number density = 16.434275 Si / 1000 Ang^3
#
#
#
# Elastic Constant Matrix: (Units=GPa)
#
#
# Indices 1 2 3 4 5 6 
#
# 1 120.1779 89.9523 55.1626 0.0000 0.0000 0.0000
# 2 89.9523 120.1779 55.1625 0.0000 0.0000 0.0000
# 3 55.1626 55.1625 50.5683 0.0000 0.0000 0.0000
# 4 0.0000 0.0000 0.0000 18.1377 0.0000 0.0000
# 5 0.0000 0.0000 0.0000 0.0000 18.1378 0.0000
# 6 0.0000 0.0000 0.0000 0.0000 0.0000 27.5603
#
#
#
# Elastic Compliance Matrix: (Units=1/GPa)
#
#
# Indices 1 2 3 4 5 6 
#
# 1 0.022111 -0.010973 -0.012150 0.000000 0.000000 0.000000
# 2 -0.010973 0.022111 -0.012150 0.000000 0.000000 0.000000
# 3 -0.012150 -0.012150 0.046283 0.000000 0.000000 0.000000
# 4 0.000000 0.000000 0.000000 0.055134 0.000000 0.000000
# 5 0.000000 0.000000 0.000000 0.000000 0.055134 0.000000
# 6 0.000000 0.000000 0.000000 0.000000 0.000000 0.036284
#
#
# Mechanical properties :
#
#
# Convention : Reuss Voigt Hill
#
# Bulk Modulus (GPa) = 50.10249 76.83099 63.46674
# Shear Modulus (GPa) = 15.91056 18.81026 17.36041
#
# Velocity S-wave (km/s) = 3.11486 3.38683 3.25369
# Velocity P-wave (km/s) = 6.59464 7.88328 7.26758
#
# Compressibility (1/GPa) = 0.01995909
#
# Stress axis : x y z
#
# Youngs Moduli (GPa) = 45.22560 45.22579 21.60623
#
# Poissons Ratio (x) = 0.49627 0.26252
# Poissons Ratio (y) = 0.49627 0.26251
# Poissons Ratio (z) = 0.54950 0.54949
#
# Static dielectric constant tensor:
#      x y z
#    x 1.547450 0.000000 0.000000 
#    y 0.000000 1.547450 0.000000 
#    z 0.000000 0.000000 1.544050 
# 
# From -- ./inp_files/2255.got.cif
#   From: 2010.05.17/outbox.cif.g08.bks.cpg/sg136_2_cif.got.tgz:2255.got - 2010.05.20 12:54:53.
