data_PCOD9569826
_publ_section_title
;
Structure prediction by ZEFSAII (Michael W. Deem and Ramdas Pophale) SiO2 
 PCOD9569826
Probable space group: P 42/M N M
;
_chemical_formula_sum "Si O2"
_cell_formula_units_Z 88
_cell_length_a 12.369638
_cell_length_b 12.369638
_cell_length_c 29.231219
_cell_angle_alpha 90.000000
_cell_angle_beta 90.000000
_cell_angle_gamma 90.000000
_cell_volume 4472.608727
_symmetry_space_group_name_H-M "P 42/M N M"
_symmetry_group_IT_number 136
_symmetry_cell_setting 'tetragonal'
loop_
_space_group_symop_operation_xyz
x,y,z
1/2-y,1/2+x,1/2+z
-x,-y,z
1/2+y,1/2-x,1/2+z
1/2+x,1/2-y,1/2-z
1/2-x,1/2+y,1/2-z
y,x,-z
-y,-x,-z
-x,-y,-z
1/2+y,1/2-x,1/2-z
x,y,-z
1/2-y,1/2+x,1/2-z
1/2-x,1/2+y,1/2+z
1/2+x,1/2-y,1/2+z
-y,-x,z
y,x,z
loop_
_atom_site_type_symbol
_atom_site_label
_atom_site_fract_x
_atom_site_fract_y
_atom_site_fract_z
Si Si1 0.591524 0.408476 0.948136
Si Si2 0.883530 0.438958 0.447749
Si Si3 0.092435 0.723805 0.119326
Si Si4 0.755908 0.426859 0.702273
Si Si5 0.072518 0.752002 0.290282
Si Si6 0.220509 0.504205 0.113741
O O1 0.500000 0.500000 0.946988
O O2 0.548358 0.303502 0.923108
O O3 0.618263 0.381738 0.000000
O O4 0.858435 0.405147 0.500000
O O5 0.794885 0.518963 0.425876
O O6 0.000000 0.500000 0.449747
O O7 0.907421 0.344582 0.410976
O O8 0.186050 0.813951 0.114513
O O9 0.144213 0.605060 0.127145
O O10 0.015490 0.749524 0.162290
O O11 0.661067 0.338934 0.696054
O O12 0.747567 0.482690 0.751600
O O13 0.869661 0.363410 0.702361
O O14 0.164708 0.835293 0.275405
O O15 0.029916 0.781057 0.340367
#
# Coordination Sequence:
#
# PCOD9569826 Si02
#       6
#     8  16  16  16  16  16
#     4  11  24  40  62  98 141 175 205 261 331 385
#     4   9  19  36  61  92 125 163 211 263 315 368
#     4  11  22  39  62  92 127 168 214 268 321 373
#     4  11  25  43  63  91 125 163 209 264 324 386
#     4  11  24  40  63  90 121 163 208 255 316 385
#     4  11  21  40  64  92 129 167 216 262 314 389
#
# _framework density 19.675318000000001
#
# number of rings (size 3 to 8) (size 9 to 14) (size 15 to 20)
#    0.000    1.364    2.727    2.727    1.273    5.818 
#    0.000    0.000    0.000    1.636    0.000    1.273 
#    0.000    0.000    0.000    0.000    0.000    0.000 
#
# Total GULP energy -491493.353258 kJ/mol
# GULP energy per Si atom -5585.151742 kJ/mol
# Density = 1.963054 g / cm^3
# Si number density = 19.675318 Si / 1000 Ang^3
#
#
#
# Elastic Constant Matrix: (Units=GPa)
#
#
# Indices 1 2 3 4 5 6 
#
# 1 22.4792 51.2454 17.2258 0.0000 0.0000 0.0000
# 2 51.2454 22.4802 17.2267 0.0000 0.0000 0.0000
# 3 17.2258 17.2267 118.2896 0.0000 0.0000 0.0000
# 4 0.0000 0.0000 0.0000 27.1849 0.0000 0.0000
# 5 0.0000 0.0000 0.0000 0.0000 27.1850 0.0000
# 6 0.0000 0.0000 0.0000 0.0000 0.0000 22.7059
#
#
#
# Elastic Compliance Matrix: (Units=1/GPa)
#
#
# Indices 1 2 3 4 5 6 
#
# 1 -0.010105 0.024659 -0.002120 0.000000 0.000000 0.000000
# 2 0.024659 -0.010104 -0.002119 0.000000 0.000000 0.000000
# 3 -0.002120 -0.002119 0.009071 0.000000 0.000000 0.000000
# 4 0.000000 0.000000 0.000000 0.036785 0.000000 0.000000
# 5 0.000000 0.000000 0.000000 0.000000 0.036785 0.000000
# 6 0.000000 0.000000 0.000000 0.000000 0.000000 0.044041
#
#
# Mechanical properties :
#
#
# Convention : Reuss Voigt Hill
#
# Bulk Modulus (GPa) = 33.66795 37.18273 35.42534
# Shear Modulus (GPa) = 66.19529 20.58523 43.39026
#
# Velocity S-wave (km/s) = 5.80662 3.23808 4.70117
# Velocity P-wave (km/s) = 7.88066 5.73755 6.89290
#
# Compressibility (1/GPa) = 0.02970184
#
# Stress axis : x y z
#
# Youngs Moduli (GPa) = -98.96253 -98.96632 110.23957
#
# Poissons Ratio (x) = 2.44041 0.23367
# Poissons Ratio (y) = 2.44032 0.23364
# Poissons Ratio (z) = -0.20976 -0.20975
#
# Static dielectric constant tensor:
#      x y z
#    x 1.700670 0.000000 0.000000 
#    y 0.000000 1.700670 0.000000 
#    z 0.000000 0.000000 1.671230 
# 
# From -- ./inp_files/9748.got.cif
#   From: 2010.05.17/outbox.cif.g08.bks.cpg/sg136_5_cif.got.tgz:9748.got - 2010.05.20 12:54:53.
