data_PCOD9569591
_publ_section_title
;
Structure prediction by ZEFSAII (Michael W. Deem and Ramdas Pophale) SiO2 
 PCOD9569591
Probable space group: P 42/M N M
;
_chemical_formula_sum "Si O2"
_cell_formula_units_Z 96
_cell_length_a 23.897233
_cell_length_b 23.897233
_cell_length_c 7.619342
_cell_angle_alpha 90.000000
_cell_angle_beta 90.000000
_cell_angle_gamma 90.000000
_cell_volume 4351.236648
_symmetry_space_group_name_H-M "P 42/M N M"
_symmetry_group_IT_number 136
_symmetry_cell_setting 'tetragonal'
loop_
_space_group_symop_operation_xyz
x,y,z
1/2-y,1/2+x,1/2+z
-x,-y,z
1/2+y,1/2-x,1/2+z
1/2+x,1/2-y,1/2-z
1/2-x,1/2+y,1/2-z
y,x,-z
-y,-x,-z
-x,-y,-z
1/2+y,1/2-x,1/2-z
x,y,-z
1/2-y,1/2+x,1/2-z
1/2-x,1/2+y,1/2+z
1/2+x,1/2-y,1/2+z
-y,-x,z
y,x,z
loop_
_atom_site_type_symbol
_atom_site_label
_atom_site_fract_x
_atom_site_fract_y
_atom_site_fract_z
Si Si1 0.045822 0.868954 0.293298
Si Si2 0.327049 0.880743 0.697506
Si Si3 0.847303 0.847303 0.785689
Si Si4 0.015093 0.745176 0.287808
Si Si5 0.438145 0.561856 0.710670
Si Si6 0.613349 0.225741 0.289033
Si Si7 0.937333 0.563534 0.702804
O O1 0.055412 0.859685 0.500000
O O2 0.102449 0.897552 0.219915
O O3 0.023355 0.809355 0.224158
O O4 0.997162 0.914780 0.273231
O O5 0.304969 0.870765 0.500000
O O6 0.343589 0.821268 0.781592
O O7 0.388603 0.907338 0.692704
O O8 0.289270 0.930375 0.777127
O O9 0.892651 0.892651 0.730909
O O10 0.786459 0.866868 0.726502
O O11 0.846809 0.846809 0.000000
O O12 0.016817 0.743731 0.500000
O O13 0.953534 0.720930 0.243973
O O14 0.440315 0.559686 0.500000
O O15 0.618968 0.223506 0.500000
O O16 0.937844 0.581802 0.500000
O O17 0.926712 0.497370 0.712843
#
# Coordination Sequence:
#
# PCOD9569591 Si02
#       7
#    16  16   8  16   8  16  16
#     4  10  21  37  56  81 116 152 185 225 281 341
#     4  10  21  36  54  80 110 143 186 230 278 332
#     4   9  18  34  56  83 110 140 184 231 275 324
#     4  10  21  37  56  81 112 147 187 232 277 331
#     4  11  20  34  59  88 116 142 184 234 279 333
#     4  10  20  37  59  81 109 146 186 233 282 332
#     4  11  21  34  53  77 107 141 179 227 280 332
#
# _framework density 22.062692999999999
#
# number of rings (size 3 to 8) (size 9 to 14) (size 15 to 20)
#    0.000    1.833    1.667    3.500    0.000    5.333 
#    1.500    0.417    0.000    0.000    0.000    0.000 
#    0.000    0.000    0.000    0.000    0.000    0.000 
#
# Total GULP energy -535689.744051 kJ/mol
# GULP energy per Si atom -5580.101501 kJ/mol
# Density = 2.201248 g / cm^3
# Si number density = 22.062693 Si / 1000 Ang^3
#
#
#
# Elastic Constant Matrix: (Units=GPa)
#
#
# Indices 1 2 3 4 5 6 
#
# 1 35.4053 114.3422 -5.9828 0.0000 0.0000 0.0000
# 2 114.3422 35.4049 -5.9830 0.0000 0.0000 0.0000
# 3 -5.9828 -5.9830 64.6316 0.0000 0.0000 0.0000
# 4 0.0000 0.0000 0.0000 13.5484 0.0000 0.0000
# 5 0.0000 0.0000 0.0000 0.0000 13.5485 0.0000
# 6 0.0000 0.0000 0.0000 0.0000 0.0000 43.5848
#
#
#
# Elastic Compliance Matrix: (Units=1/GPa)
#
#
# Indices 1 2 3 4 5 6 
#
# 1 -0.002970 0.009698 0.000623 0.000000 0.000000 0.000000
# 2 0.009698 -0.002970 0.000623 0.000000 0.000000 0.000000
# 3 0.000623 0.000623 0.015588 0.000000 0.000000 0.000000
# 4 0.000000 0.000000 0.000000 0.073809 0.000000 0.000000
# 5 0.000000 0.000000 0.000000 0.000000 0.073809 0.000000
# 6 0.000000 0.000000 0.000000 0.000000 0.000000 0.022944
#
#
# Mechanical properties :
#
#
# Convention : Reuss Voigt Hill
#
# Bulk Modulus (GPa) = 31.71175 37.79943 34.75559
# Shear Modulus (GPa) = 29.61499 16.34069 22.97784
#
# Velocity S-wave (km/s) = 3.66773 2.72444 3.23070
# Velocity P-wave (km/s) = 5.68692 5.20256 5.45012
#
# Compressibility (1/GPa) = 0.03153405
#
# Stress axis : x y z
#
# Youngs Moduli (GPa) = -336.66643 -336.66199 64.15352
#
# Poissons Ratio (x) = 3.26495 -0.03995
# Poissons Ratio (y) = 3.26499 -0.03995
# Poissons Ratio (z) = 0.20967 0.20966
#
# Static dielectric constant tensor:
#      x y z
#    x 1.818680 0.000000 0.000000 
#    y 0.000000 1.818680 0.000000 
#    z 0.000000 0.000000 1.851840 
# 
# From -- ./inp_files/2025.got.cif
#   From: 2010.05.17/outbox.cif.g08.bks.cpg/sg136_2_cif.got.tgz:2025.got - 2010.05.20 12:54:53.
