data_PCOD9569652
_publ_section_title
;
Structure prediction by ZEFSAII (Michael W. Deem and Ramdas Pophale) SiO2 
 PCOD9569652
Probable space group: P 42/M N M
;
_chemical_formula_sum "Si O2"
_cell_formula_units_Z 96
_cell_length_a 24.731398
_cell_length_b 24.731398
_cell_length_c 7.933602
_cell_angle_alpha 90.000000
_cell_angle_beta 90.000000
_cell_angle_gamma 90.000000
_cell_volume 4852.524568
_symmetry_space_group_name_H-M "P 42/M N M"
_symmetry_group_IT_number 136
_symmetry_cell_setting 'tetragonal'
loop_
_space_group_symop_operation_xyz
x,y,z
1/2-y,1/2+x,1/2+z
-x,-y,z
1/2+y,1/2-x,1/2+z
1/2+x,1/2-y,1/2-z
1/2-x,1/2+y,1/2-z
y,x,-z
-y,-x,-z
-x,-y,-z
1/2+y,1/2-x,1/2-z
x,y,-z
1/2-y,1/2+x,1/2-z
1/2-x,1/2+y,1/2+z
1/2+x,1/2-y,1/2+z
-y,-x,z
y,x,z
loop_
_atom_site_type_symbol
_atom_site_label
_atom_site_fract_x
_atom_site_fract_y
_atom_site_fract_z
Si Si1 0.514174 0.290011 0.206881
Si Si2 0.999851 0.912766 0.705623
Si Si3 0.570405 0.799563 0.798173
Si Si4 0.582047 0.030988 0.801128
Si Si5 0.775862 0.690152 0.797898
Si Si6 0.777332 0.863492 0.296327
O O1 0.499376 0.350841 0.260974
O O2 0.473080 0.243951 0.265344
O O3 0.575103 0.277185 0.262013
O O4 0.513918 0.289975 0.000000
O O5 0.999783 0.912340 0.500000
O O6 0.946138 0.946138 0.756334
O O7 0.051238 0.948763 0.758467
O O8 0.552386 0.861068 0.766998
O O9 0.630058 0.785510 0.730687
O O10 0.572612 0.793106 0.000000
O O11 0.530345 0.067500 0.751682
O O12 0.585798 0.031766 0.000000
O O13 0.724132 0.724132 0.732297
O O14 0.828170 0.726761 0.762237
O O15 0.769609 0.686558 0.000000
O O16 0.777005 0.863891 0.500000
O O17 0.830999 0.830999 0.242303
#
# Coordination Sequence:
#
# PCOD9569652 Si02
#       6
#    16  16  16  16  16  16
#     4   9  17  28  44  69 101 135 172 214 260 312
#     4   8  13  22  39  66 101 139 176 216 264 315
#     4  10  21  35  52  79 111 145 184 224 269 323
#     4  11  23  41  63  85 110 140 177 222 275 331
#     4   9  19  35  52  71 101 140 179 220 265 312
#     4   9  17  30  50  74  98 129 171 217 263 309
#
# _framework density 19.783518000000001
#
# number of rings (size 3 to 8) (size 9 to 14) (size 15 to 20)
#    0.000    2.667    0.000    3.000    2.333    3.333 
#    0.000    3.333    0.000    0.000    0.000    0.000 
#    0.000    2.000    0.000   11.833    0.000   11.000 
#
# Total GULP energy -535658.825974 kJ/mol
# GULP energy per Si atom -5579.779437 kJ/mol
# Density = 1.973849 g / cm^3
# Si number density = 19.783518 Si / 1000 Ang^3
#
#
#
# Elastic Constant Matrix: (Units=GPa)
#
#
# Indices 1 2 3 4 5 6 
#
# 1 180.1628 141.8901 4.4401 0.0000 0.0000 0.0000
# 2 141.8901 180.1628 4.4401 0.0000 0.0000 0.0000
# 3 4.4401 4.4401 17.3526 0.0000 0.0000 0.0000
# 4 0.0000 0.0000 0.0000 2.9917 0.0000 0.0000
# 5 0.0000 0.0000 0.0000 0.0000 2.9917 0.0000
# 6 0.0000 0.0000 0.0000 0.0000 0.0000 15.5270
#
#
#
# Elastic Compliance Matrix: (Units=1/GPa)
#
#
# Indices 1 2 3 4 5 6 
#
# 1 0.014628 -0.011501 -0.000800 0.000000 0.000000 0.000000
# 2 -0.011501 0.014628 -0.000800 0.000000 0.000000 0.000000
# 3 -0.000800 -0.000800 0.058038 0.000000 0.000000 0.000000
# 4 0.000000 0.000000 0.000000 0.334258 0.000000 0.000000
# 5 0.000000 0.000000 0.000000 0.000000 0.334258 0.000000
# 6 0.000000 0.000000 0.000000 0.000000 0.000000 0.064404
#
#
# Mechanical properties :
#
#
# Convention : Reuss Voigt Hill
#
# Bulk Modulus (GPa) = 16.36888 75.46875 45.91882
# Shear Modulus (GPa) = 5.76848 19.42927 12.59888
#
# Velocity S-wave (km/s) = 1.70942 3.13724 2.52630
# Velocity P-wave (km/s) = 3.49115 7.16611 5.63654
#
# Compressibility (1/GPa) = 0.06109153
#
# Stress axis : x y z
#
# Youngs Moduli (GPa) = 68.36341 68.36341 17.23013
#
# Poissons Ratio (x) = 0.78622 0.01379
# Poissons Ratio (y) = 0.78622 0.01379
# Poissons Ratio (z) = 0.05470 0.05470
#
# Static dielectric constant tensor:
#      x y z
#    x 1.648240 0.000000 0.000000 
#    y 0.000000 1.648240 0.000000 
#    z 0.000000 0.000000 1.725140 
# 
# From -- ./inp_files/1989.got.cif
#   From: 2010.05.17/outbox.cif.g08.bks.cpg/sg136_1_cif.got.tgz:1989.got - 2010.05.20 12:54:53.
