data_PCOD9569416
_publ_section_title
;
Structure prediction by ZEFSAII (Michael W. Deem and Ramdas Pophale) SiO2 
 PCOD9569416
Probable space group: P 42/M N M
;
_chemical_formula_sum "Si O2"
_cell_formula_units_Z 120
_cell_length_a 27.923672
_cell_length_b 27.923672
_cell_length_c 9.029753
_cell_angle_alpha 90.000000
_cell_angle_beta 90.000000
_cell_angle_gamma 90.000000
_cell_volume 7040.782472
_symmetry_space_group_name_H-M "P 42/M N M"
_symmetry_group_IT_number 136
_symmetry_cell_setting 'tetragonal'
loop_
_space_group_symop_operation_xyz
x,y,z
1/2-y,1/2+x,1/2+z
-x,-y,z
1/2+y,1/2-x,1/2+z
1/2+x,1/2-y,1/2-z
1/2-x,1/2+y,1/2-z
y,x,-z
-y,-x,-z
-x,-y,-z
1/2+y,1/2-x,1/2-z
x,y,-z
1/2-y,1/2+x,1/2-z
1/2-x,1/2+y,1/2+z
1/2+x,1/2-y,1/2+z
-y,-x,z
y,x,z
loop_
_atom_site_type_symbol
_atom_site_label
_atom_site_fract_x
_atom_site_fract_y
_atom_site_fract_z
Si Si1 0.344498 0.865802 0.822580
Si Si2 0.340238 0.058102 0.169945
Si Si3 0.535167 0.612726 0.321107
Si Si4 0.041124 0.041124 0.831087
Si Si5 0.702945 0.502089 0.171306
Si Si6 0.732043 0.809122 0.178848
Si Si7 0.187291 0.463549 0.825666
Si Si8 0.909295 0.771220 0.832212
O O1 0.399034 0.863905 0.761939
O O2 0.317828 0.818489 0.758655
O O3 0.321536 0.913911 0.757539
O O4 0.343733 0.864994 0.000000
O O5 0.284043 0.072892 0.163751
O O6 0.342009 0.006885 0.249771
O O7 0.357491 0.056275 0.000000
O O8 0.533617 0.611914 0.500000
O O9 0.580646 0.580646 0.275918
O O10 0.486849 0.585961 0.264344
O O11 0.534044 0.666096 0.262831
O O12 0.054258 0.054258 0.000000
O O13 0.000000 0.000000 0.839912
O O14 0.756908 0.521646 0.186241
O O15 0.702209 0.447727 0.231807
O O16 0.689811 0.503068 0.000000
O O17 0.760274 0.760274 0.212991
O O18 0.766362 0.854362 0.217254
O O19 0.724701 0.811751 0.000000
O O20 0.175661 0.459390 0.000000
O O21 0.911009 0.790397 0.000000
#
# Coordination Sequence:
#
# PCOD9569416 Si02
#       8
#    16  16  16   8  16  16  16  16
#     4  11  21  33  53  81 109 140 177 214 259 314
#     4   9  17  32  54  78 103 132 169 213 256 299
#     4   9  17  31  51  70  90 122 165 211 258 310
#     4   7  12  26  47  67  83 107 151 199 241 293
#     4  10  20  32  48  71 100 130 163 207 258 305
#     4   9  18  34  54  75 102 137 175 215 260 308
#     4  10  20  35  54  77 105 138 176 216 255 302
#     4   8  15  29  49  70  94 126 164 204 246 297
#
# _framework density 17.043561
#
# number of rings (size 3 to 8) (size 9 to 14) (size 15 to 20)
#    0.000    2.733    0.000    4.000    0.000    5.333 
#    1.200    1.000    0.000    2.400    0.000    2.800 
#    0.000    0.000    0.000    0.000    0.000    0.000 
#
# Total GULP energy -668432.712969 kJ/mol
# GULP energy per Si atom -5570.272608 kJ/mol
# Density = 1.700477 g / cm^3
# Si number density = 17.043561 Si / 1000 Ang^3
#
#
#
# Elastic Constant Matrix: (Units=GPa)
#
#
# Indices 1 2 3 4 5 6 
#
# 1 68.1121 32.0742 46.9021 0.0000 0.0000 0.0000
# 2 32.0742 68.1121 46.9021 0.0000 0.0000 0.0000
# 3 46.9021 46.9021 94.4982 0.0000 0.0000 0.0000
# 4 0.0000 0.0000 0.0000 20.9560 0.0000 0.0000
# 5 0.0000 0.0000 0.0000 0.0000 20.9560 0.0000
# 6 0.0000 0.0000 0.0000 0.0000 0.0000 14.1297
#
#
#
# Elastic Compliance Matrix: (Units=1/GPa)
#
#
# Indices 1 2 3 4 5 6 
#
# 1 0.023198 -0.004551 -0.009255 0.000000 0.000000 0.000000
# 2 -0.004551 0.023198 -0.009255 0.000000 0.000000 0.000000
# 3 -0.009255 -0.009255 0.019769 0.000000 0.000000 0.000000
# 4 0.000000 0.000000 0.000000 0.047719 0.000000 0.000000
# 5 0.000000 0.000000 0.000000 0.000000 0.047719 0.000000
# 6 0.000000 0.000000 0.000000 0.000000 0.000000 0.070773
#
#
# Mechanical properties :
#
#
# Convention : Reuss Voigt Hill
#
# Bulk Modulus (GPa) = 49.89268 53.60883 51.75075
# Shear Modulus (GPa) = 17.53293 18.19796 17.86544
#
# Velocity S-wave (km/s) = 3.21083 3.27116 3.24114
# Velocity P-wave (km/s) = 6.56377 6.76680 6.66606
#
# Compressibility (1/GPa) = 0.02004302
#
# Stress axis : x y z
#
# Youngs Moduli (GPa) = 43.10782 43.10782 50.58384
#
# Poissons Ratio (x) = 0.19618 0.46815
# Poissons Ratio (y) = 0.19618 0.46815
# Poissons Ratio (z) = 0.39896 0.39896
#
# Static dielectric constant tensor:
#      x y z
#    x 1.579950 0.000000 0.000000 
#    y 0.000000 1.579950 0.000000 
#    z 0.000000 0.000000 1.576400 
# 
# From -- ./inp_files/2292.got.cif
#   From: 2010.05.17/outbox.cif.g08.bks.cpg/sg136_2_cif.got.tgz:2292.got - 2010.05.20 12:54:53.
