data_PCOD9569241
_publ_section_title
;
Structure prediction by ZEFSAII (Michael W. Deem and Ramdas Pophale) SiO2 
 PCOD9569241
Probable space group: P 42/M N M
;
_chemical_formula_sum "Si O2"
_cell_formula_units_Z 128
_cell_length_a 20.281634
_cell_length_b 20.281634
_cell_length_c 18.525423
_cell_angle_alpha 90.000000
_cell_angle_beta 90.000000
_cell_angle_gamma 90.000000
_cell_volume 7620.334153
_symmetry_space_group_name_H-M "P 42/M N M"
_symmetry_group_IT_number 136
_symmetry_cell_setting 'tetragonal'
loop_
_space_group_symop_operation_xyz
x,y,z
1/2-y,1/2+x,1/2+z
-x,-y,z
1/2+y,1/2-x,1/2+z
1/2+x,1/2-y,1/2-z
1/2-x,1/2+y,1/2-z
y,x,-z
-y,-x,-z
-x,-y,-z
1/2+y,1/2-x,1/2-z
x,y,-z
1/2-y,1/2+x,1/2-z
1/2-x,1/2+y,1/2+z
1/2+x,1/2-y,1/2+z
-y,-x,z
y,x,z
loop_
_atom_site_type_symbol
_atom_site_label
_atom_site_fract_x
_atom_site_fract_y
_atom_site_fract_z
Si Si1 0.332631 0.555111 0.661476
Si Si2 0.645811 0.241389 0.418748
Si Si3 0.186090 0.925531 0.082135
Si Si4 0.339776 0.227022 0.321205
Si Si5 0.257131 0.855884 0.653876
Si Si6 0.795549 0.011653 0.414882
Si Si7 0.893325 0.004593 0.294621
Si Si8 0.138648 0.249051 0.584898
O O1 0.391872 0.608129 0.657242
O O2 0.266114 0.592784 0.639531
O O3 0.340710 0.496522 0.604619
O O4 0.337649 0.520627 0.739497
O O5 0.618644 0.234738 0.500000
O O6 0.700242 0.299759 0.420881
O O7 0.685976 0.178049 0.393400
O O8 0.127171 0.872830 0.087839
O O9 0.243855 0.901535 0.135117
O O10 0.209779 0.925295 0.000000
O O11 0.283555 0.283555 0.324887
O O12 0.356094 0.219840 0.237101
O O13 0.305776 0.166049 0.362488
O O14 0.192043 0.807958 0.649310
O O15 0.241525 0.928014 0.623800
O O16 0.800495 0.024213 0.500000
O O17 0.865374 0.010111 0.374352
O O18 0.764912 0.938690 0.404874
O O19 0.926403 0.073598 0.270909
O O20 0.950092 0.950092 0.292299
O O21 0.149717 0.265949 0.500000
O O22 0.182762 0.182762 0.598669
#
# Coordination Sequence:
#
# PCOD9569241 Si02
#       8
#    16  16  16  16  16  16  16  16
#     4  10  20  33  50  71 102 139 176 220 263 308
#     4   9  18  32  49  70  96 129 171 217 265 315
#     4  10  19  30  47  72 102 136 171 207 254 313
#     4   9  18  33  52  73 101 134 173 221 268 310
#     4  10  20  33  51  74 101 137 174 215 266 319
#     4  11  22  34  51  76 107 141 176 219 266 313
#     4  10  21  34  48  69 101 142 183 216 249 302
#     4   9  18  33  54  79 107 140 179 223 269 316
#
# _framework density 16.797163000000001
#
# number of rings (size 3 to 8) (size 9 to 14) (size 15 to 20)
#    0.000    2.250    0.000    3.000    1.750    6.250 
#    0.000    1.250    0.000    0.000    0.000    0.875 
#    0.000    4.000    0.000    0.000    0.000    0.000 
#
# Total GULP energy -713542.874454 kJ/mol
# GULP energy per Si atom -5574.553707 kJ/mol
# Density = 1.675893 g / cm^3
# Si number density = 16.797163 Si / 1000 Ang^3
#
#
#
# Elastic Constant Matrix: (Units=GPa)
#
#
# Indices 1 2 3 4 5 6 
#
# 1 53.7278 28.2502 39.1135 0.0000 0.0000 0.0000
# 2 28.2502 53.7278 39.1135 0.0000 0.0000 0.0000
# 3 39.1135 39.1135 87.6536 0.0000 0.0000 0.0000
# 4 0.0000 0.0000 0.0000 25.7299 0.0000 0.0000
# 5 0.0000 0.0000 0.0000 0.0000 25.7299 0.0000
# 6 0.0000 0.0000 0.0000 0.0000 0.0000 10.0533
#
#
#
# Elastic Compliance Matrix: (Units=1/GPa)
#
#
# Indices 1 2 3 4 5 6 
#
# 1 0.030247 -0.009003 -0.009480 0.000000 0.000000 0.000000
# 2 -0.009003 0.030247 -0.009480 0.000000 0.000000 0.000000
# 3 -0.009480 -0.009480 0.019869 0.000000 0.000000 0.000000
# 4 0.000000 0.000000 0.000000 0.038865 0.000000 0.000000
# 5 0.000000 0.000000 0.000000 0.000000 0.038865 0.000000
# 6 0.000000 0.000000 0.000000 0.000000 0.000000 0.099470
#
#
# Mechanical properties :
#
#
# Convention : Reuss Voigt Hill
#
# Bulk Modulus (GPa) = 40.91922 45.34039 43.12980
# Shear Modulus (GPa) = 15.54553 18.21140 16.87846
#
# Velocity S-wave (km/s) = 3.04548 3.29628 3.17336
# Velocity P-wave (km/s) = 6.06467 6.44506 6.25776
#
# Compressibility (1/GPa) = 0.02443839
#
# Stress axis : x y z
#
# Youngs Moduli (GPa) = 33.06073 33.06073 50.32981
#
# Poissons Ratio (x) = 0.29764 0.47712
# Poissons Ratio (y) = 0.29764 0.47712
# Poissons Ratio (z) = 0.31341 0.31341
#
# Static dielectric constant tensor:
#      x y z
#    x 1.565730 0.000000 0.000000 
#    y 0.000000 1.565730 0.000000 
#    z 0.000000 0.000000 1.591020 
# 
# From -- ./inp_files/6618.got.cif
#   From: 2010.05.17/outbox.cif.g08.bks.cpg/sg136_4_cif.got.tgz:6618.got - 2010.05.20 12:54:53.
