data_PCOD9569934
_publ_section_title
;
Structure prediction by ZEFSAII (Michael W. Deem and Ramdas Pophale) SiO2 
 PCOD9569934
Probable space group: P 42/N M C
;
_chemical_formula_sum "Si O2"
_cell_formula_units_Z 80
_cell_length_a 26.638889
_cell_length_b 26.638889
_cell_length_c 5.399157
_cell_angle_alpha 90.000000
_cell_angle_beta 90.000000
_cell_angle_gamma 90.000000
_cell_volume 3831.405980
_symmetry_space_group_name_H-M "P 42/N M C"
_symmetry_group_IT_number 137
_space_group.IT_coordinate_system_code '2'
_symmetry_cell_setting 'tetragonal'
loop_
_space_group_symop_operation_xyz
x,y,z
1/2-y,x,1/2+z
1/2-x,1/2-y,z
y,1/2-x,1/2+z
1/2+x,-y,-z
-x,1/2+y,-z
1/2+y,1/2+x,1/2-z
-y,-x,1/2-z
-x,-y,-z
1/2+y,-x,1/2-z
1/2+x,1/2+y,-z
-y,1/2+x,1/2-z
1/2-x,y,z
x,1/2-y,z
1/2-y,1/2-x,1/2+z
y,x,1/2+z
loop_
_atom_site_type_symbol
_atom_site_label
_atom_site_fract_x
_atom_site_fract_y
_atom_site_fract_z
Si Si1 0.190322 0.005358 0.025913
Si Si2 0.351325 0.545328 0.523447
Si Si3 0.976833 0.559458 0.905385
Si Si4 0.152058 0.807186 0.997477
Si Si5 0.368064 0.110341 0.067418
O O1 0.250000 0.011182 0.017704
O O2 0.162510 0.058891 0.042333
O O3 0.174628 0.976026 0.275298
O O4 0.172522 0.976609 0.777286
O O5 0.408099 0.524975 0.524456
O O6 0.344080 0.604585 0.517050
O O7 0.977563 0.538547 0.627438
O O8 0.927991 0.597000 0.910224
O O9 0.181606 0.818395 0.250000
O O10 0.133218 0.750000 0.001882
O O11 0.184186 0.815815 0.750000
O O12 0.356566 0.137184 0.324230
#
# Coordination Sequence:
#
# PCOD9569934 Si02
#       5
#    16  16  16  16  16
#     4  12  21  31  53  90 127 160 203 255 312 359
#     4  12  22  39  63  92 128 159 198 258 316 366
#     4  10  16  31  56  85 116 172 205 233 291 358
#     4  12  28  50  74  99 126 160 205 261 324 384
#     4  10  16  30  48  76 113 168 205 242 292 352
#
# _framework density 20.880063
#
# number of rings (size 3 to 8) (size 9 to 14) (size 15 to 20)
#    0.000    0.800    8.000    3.600    0.000    1.200 
#    0.000    0.000    0.000    3.600    0.000    0.000 
#    0.000    2.400    0.000    0.000    0.000    0.000 
#
# Total GULP energy -447428.624225 kJ/mol
# GULP energy per Si atom -5592.857803 kJ/mol
# Density = 2.083254 g / cm^3
# Si number density = 20.880063 Si / 1000 Ang^3
#
#
#
# Elastic Constant Matrix: (Units=GPa)
#
#
# Indices 1 2 3 4 5 6 
#
# 1 45.0514 18.0628 19.2888 0.0000 0.0000 0.0000
# 2 18.0628 45.0601 19.2925 0.0000 0.0000 0.0000
# 3 19.2888 19.2925 200.8622 0.0000 0.0000 0.0000
# 4 0.0000 0.0000 0.0000 19.6346 0.0000 0.0000
# 5 0.0000 0.0000 0.0000 0.0000 19.6358 0.0000
# 6 0.0000 0.0000 0.0000 0.0000 0.0000 17.5895
#
#
#
# Elastic Compliance Matrix: (Units=1/GPa)
#
#
# Indices 1 2 3 4 5 6 
#
# 1 0.026942 -0.010108 -0.001616 0.000000 0.000000 0.000000
# 2 -0.010108 0.026937 -0.001617 0.000000 0.000000 0.000000
# 3 -0.001616 -0.001617 0.005289 0.000000 0.000000 0.000000
# 4 0.000000 0.000000 0.000000 0.050931 0.000000 0.000000
# 5 0.000000 0.000000 0.000000 0.000000 0.050927 0.000000
# 6 0.000000 0.000000 0.000000 0.000000 0.000000 0.056852
#
#
# Mechanical properties :
#
#
# Convention : Reuss Voigt Hill
#
# Bulk Modulus (GPa) = 30.78276 44.91799 37.85037
# Shear Modulus (GPa) = 19.57814 26.99396 23.28605
#
# Velocity S-wave (km/s) = 3.06542 3.59947 3.34313
# Velocity P-wave (km/s) = 5.22530 6.23169 5.75055
#
# Compressibility (1/GPa) = 0.03248571
#
# Stress axis : x y z
#
# Youngs Moduli (GPa) = 37.11744 37.12434 189.07083
#
# Poissons Ratio (x) = 0.37524 0.30561
# Poissons Ratio (y) = 0.37517 0.30564
# Poissons Ratio (z) = 0.06000 0.06001
#
# Static dielectric constant tensor:
#      x y z
#    x 1.750860 0.000000 0.000000 
#    y 0.000000 1.750860 0.000000 
#    z 0.000000 0.000000 1.821680 
# 
# From -- ./inp_files/567.got.cif
#   From: 2010.05.17/outbox.cif.g08.bks.cpg/sg137_1_cif.got.tgz:567.got - 2010.05.20 13:01:12.
