data_PCOD9569830
_publ_section_title
;
Structure prediction by ZEFSAII (Michael W. Deem and Ramdas Pophale) SiO2 
 PCOD9569830
Probable space group: P 42/M N M
;
_chemical_formula_sum "Si O2"
_cell_formula_units_Z 80
_cell_length_a 17.596193
_cell_length_b 17.596193
_cell_length_c 13.927452
_cell_angle_alpha 90.000000
_cell_angle_beta 90.000000
_cell_angle_gamma 90.000000
_cell_volume 4312.301366
_symmetry_space_group_name_H-M "P 42/M N M"
_symmetry_group_IT_number 136
_symmetry_cell_setting 'tetragonal'
loop_
_space_group_symop_operation_xyz
x,y,z
1/2-y,1/2+x,1/2+z
-x,-y,z
1/2+y,1/2-x,1/2+z
1/2+x,1/2-y,1/2-z
1/2-x,1/2+y,1/2-z
y,x,-z
-y,-x,-z
-x,-y,-z
1/2+y,1/2-x,1/2-z
x,y,-z
1/2-y,1/2+x,1/2-z
1/2-x,1/2+y,1/2+z
1/2+x,1/2-y,1/2+z
-y,-x,z
y,x,z
loop_
_atom_site_type_symbol
_atom_site_label
_atom_site_fract_x
_atom_site_fract_y
_atom_site_fract_z
Si Si1 0.603457 0.266541 0.000000
Si Si2 0.911602 0.215879 0.206299
Si Si3 0.271160 0.858991 0.000000
Si Si4 0.910054 0.510892 0.607960
Si Si5 0.371016 0.863725 0.268298
Si Si6 0.798397 0.925277 0.708240
O O1 0.556981 0.280709 0.096648
O O2 0.669708 0.330293 0.000000
O O3 0.648248 0.186243 0.000000
O O4 0.855644 0.144357 0.213500
O O5 0.902509 0.250899 0.098831
O O6 0.885487 0.283010 0.278865
O O7 0.998097 0.196233 0.230873
O O8 0.210287 0.789714 0.000000
O O9 0.881995 0.526667 0.500000
O O10 0.876298 0.431845 0.647502
O O11 0.897480 0.578303 0.684075
O O12 0.000000 0.500000 0.603508
O O13 0.377941 0.776153 0.238877
O O14 0.872159 0.872159 0.715844
#
# Coordination Sequence:
#
# PCOD9569830 Si02
#       6
#     8  16   8  16  16  16
#     4   9  18  36  63  92 113 148 207 259 298 343
#     4  11  23  39  63  91 122 158 205 257 306 358
#     4   9  18  36  65  92 113 148 203 261 302 345
#     4  11  22  36  56  87 126 161 194 243 305 370
#     4  12  20  38  58  91 120 156 202 243 304 365
#     4  11  23  39  63  90 122 158 202 255 306 359
#
# _framework density 18.551577999999999
#
# number of rings (size 3 to 8) (size 9 to 14) (size 15 to 20)
#    0.000    1.200    6.000    0.600    2.800    0.400 
#    1.800    1.000    0.000    4.800    0.000    0.000 
#    0.000    0.000    0.000    0.000    0.000    0.000 
#
# Total GULP energy -446498.277454 kJ/mol
# GULP energy per Si atom -5581.228468 kJ/mol
# Density = 1.850935 g / cm^3
# Si number density = 18.551578 Si / 1000 Ang^3
#
#
#
# Elastic Constant Matrix: (Units=GPa)
#
#
# Indices 1 2 3 4 5 6 
#
# 1 95.7483 38.3319 27.1665 0.0000 0.0000 0.0000
# 2 38.3319 95.7473 27.1671 0.0000 0.0000 0.0000
# 3 27.1665 27.1671 73.8347 0.0000 0.0000 0.0000
# 4 0.0000 0.0000 0.0000 13.3249 0.0000 0.0000
# 5 0.0000 0.0000 0.0000 0.0000 13.3240 0.0000
# 6 0.0000 0.0000 0.0000 0.0000 0.0000 31.0407
#
#
#
# Elastic Compliance Matrix: (Units=1/GPa)
#
#
# Indices 1 2 3 4 5 6 
#
# 1 0.013091 -0.004326 -0.003225 0.000000 0.000000 0.000000
# 2 -0.004326 0.013091 -0.003225 0.000000 0.000000 0.000000
# 3 -0.003225 -0.003225 0.015917 0.000000 0.000000 0.000000
# 4 0.000000 0.000000 0.000000 0.075048 0.000000 0.000000
# 5 0.000000 0.000000 0.000000 0.000000 0.075052 0.000000
# 6 0.000000 0.000000 0.000000 0.000000 0.000000 0.032216
#
#
# Mechanical properties :
#
#
# Convention : Reuss Voigt Hill
#
# Bulk Modulus (GPa) = 48.66869 50.07350 49.37109
# Shear Modulus (GPa) = 19.77725 23.04889 21.41307
#
# Velocity S-wave (km/s) = 3.26861 3.52862 3.40110
# Velocity P-wave (km/s) = 6.36681 6.60694 6.48799
#
# Compressibility (1/GPa) = 0.02054709
#
# Stress axis : x y z
#
# Youngs Moduli (GPa) = 76.38913 76.38783 62.82581
#
# Poissons Ratio (x) = 0.33044 0.20261
# Poissons Ratio (y) = 0.33045 0.20262
# Poissons Ratio (z) = 0.24635 0.24636
#
# Static dielectric constant tensor:
#      x y z
#    x 1.651610 0.000000 0.000000 
#    y 0.000000 1.651610 0.000000 
#    z 0.000000 0.000000 1.683520 
# 
# From -- ./inp_files/4929.got.cif
#   From: 2010.05.17/outbox.cif.g08.bks.cpg/sg136_3_cif.got.tgz:4929.got - 2010.05.20 12:54:53.
