data_PCOD9569884
_publ_section_title
;
Structure prediction by ZEFSAII (Michael W. Deem and Ramdas Pophale) SiO2 
 PCOD9569884
Probable space group: P 42/M N M
;
_chemical_formula_sum "Si O2"
_cell_formula_units_Z 72
_cell_length_a 9.612451
_cell_length_b 9.612451
_cell_length_c 30.953886
_cell_angle_alpha 90.000000
_cell_angle_beta 90.000000
_cell_angle_gamma 90.000000
_cell_volume 2860.114744
_symmetry_space_group_name_H-M "P 42/M N M"
_symmetry_group_IT_number 136
_symmetry_cell_setting 'tetragonal'
loop_
_space_group_symop_operation_xyz
x,y,z
1/2-y,1/2+x,1/2+z
-x,-y,z
1/2+y,1/2-x,1/2+z
1/2+x,1/2-y,1/2-z
1/2-x,1/2+y,1/2-z
y,x,-z
-y,-x,-z
-x,-y,-z
1/2+y,1/2-x,1/2-z
x,y,-z
1/2-y,1/2+x,1/2-z
1/2-x,1/2+y,1/2+z
1/2+x,1/2-y,1/2+z
-y,-x,z
y,x,z
loop_
_atom_site_type_symbol
_atom_site_label
_atom_site_fract_x
_atom_site_fract_y
_atom_site_fract_z
Si Si1 0.272005 0.496292 0.500000
Si Si2 0.928736 0.310880 0.090651
Si Si3 0.190139 0.430639 0.684104
Si Si4 0.729752 0.509373 0.049865
Si Si5 0.727012 0.506623 0.778085
O O1 0.341247 0.341247 0.500000
O O2 0.395145 0.604856 0.500000
O O3 0.198598 0.512525 0.546004
O O4 0.820352 0.179649 0.090108
O O5 0.999641 0.304579 0.137194
O O6 0.838170 0.450134 0.084103
O O7 0.311168 0.311168 0.683142
O O8 0.222399 0.509561 0.728484
O O9 0.044702 0.350048 0.691356
O O10 0.606723 0.393278 0.049955
O O11 0.654690 0.654690 0.059291
O O12 0.781961 0.510116 0.000000
O O13 0.604127 0.395874 0.784617
O O14 0.657249 0.657249 0.784423
#
# Coordination Sequence:
#
# PCOD9569884 Si02
#       5
#     8  16  16  16  16
#     4   9  16  24  35  55  89 132 174 216 260 307
#     4   9  15  24  37  57  87 124 169 213 254 312
#     4   9  18  30  47  69  95 134 177 217 270 329
#     4   8  12  18  30  49  77 116 159 204 254 304
#     4   9  18  33  50  71 101 132 169 221 272 322
#
# _framework density 25.173817
#
# number of rings (size 3 to 8) (size 9 to 14) (size 15 to 20)
#    0.000    3.222    1.111    0.667    0.000    2.222 
#    0.000    8.889    0.000    0.000    0.000    0.000 
#    0.000    3.556    0.000    8.444    0.000   22.889 
#
# Total GULP energy -402464.987888 kJ/mol
# GULP energy per Si atom -5589.791498 kJ/mol
# Density = 2.511652 g / cm^3
# Si number density = 25.173817 Si / 1000 Ang^3
#
#
#
# Elastic Constant Matrix: (Units=GPa)
#
#
# Indices 1 2 3 4 5 6 
#
# 1 54.3043 9.8169 14.1786 0.0000 0.0000 0.0000
# 2 9.8169 54.3051 14.1790 0.0000 0.0000 0.0000
# 3 14.1786 14.1790 150.0756 0.0000 0.0000 0.0000
# 4 0.0000 0.0000 0.0000 20.0567 0.0000 0.0000
# 5 0.0000 0.0000 0.0000 0.0000 20.0556 0.0000
# 6 0.0000 0.0000 0.0000 0.0000 0.0000 28.7359
#
#
#
# Elastic Compliance Matrix: (Units=1/GPa)
#
#
# Indices 1 2 3 4 5 6 
#
# 1 0.019377 -0.003101 -0.001538 0.000000 0.000000 0.000000
# 2 -0.003101 0.019377 -0.001538 0.000000 0.000000 0.000000
# 3 -0.001538 -0.001538 0.006954 0.000000 0.000000 0.000000
# 4 0.000000 0.000000 0.000000 0.049859 0.000000 0.000000
# 5 0.000000 0.000000 0.000000 0.000000 0.049861 0.000000
# 6 0.000000 0.000000 0.000000 0.000000 0.000000 0.034800
#
#
# Mechanical properties :
#
#
# Convention : Reuss Voigt Hill
#
# Bulk Modulus (GPa) = 29.98144 37.22602 33.60373
# Shear Modulus (GPa) = 24.54611 28.47035 26.50823
#
# Velocity S-wave (km/s) = 3.12599 3.36661 3.24853
# Velocity P-wave (km/s) = 4.99647 5.47099 5.23911
#
# Compressibility (1/GPa) = 0.03335397
#
# Stress axis : x y z
#
# Youngs Moduli (GPa) = 51.60797 51.60867 143.80508
#
# Poissons Ratio (x) = 0.16006 0.22112
# Poissons Ratio (y) = 0.16005 0.22113
# Poissons Ratio (z) = 0.07935 0.07936
#
# Static dielectric constant tensor:
#      x y z
#    x 2.046820 0.000000 0.000000 
#    y 0.000000 2.046820 0.000000 
#    z 0.000000 0.000000 1.912950 
# 
# From -- ./inp_files/8938.got.cif
#   From: 2010.05.17/outbox.cif.g08.bks.cpg/sg136_5_cif.got.tgz:8938.got - 2010.05.20 12:54:53.
