data_PCOD9569145
_publ_section_title
;
Structure prediction by ZEFSAII (Michael W. Deem and Ramdas Pophale) SiO2 
 PCOD9569145
Probable space group: P 42/M N M
;
_chemical_formula_sum "Si O2"
_cell_formula_units_Z 112
_cell_length_a 24.816859
_cell_length_b 24.816859
_cell_length_c 12.988107
_cell_angle_alpha 90.000000
_cell_angle_beta 90.000000
_cell_angle_gamma 90.000000
_cell_volume 7999.069759
_symmetry_space_group_name_H-M "P 42/M N M"
_symmetry_group_IT_number 136
_symmetry_cell_setting 'tetragonal'
loop_
_space_group_symop_operation_xyz
x,y,z
1/2-y,1/2+x,1/2+z
-x,-y,z
1/2+y,1/2-x,1/2+z
1/2+x,1/2-y,1/2-z
1/2-x,1/2+y,1/2-z
y,x,-z
-y,-x,-z
-x,-y,-z
1/2+y,1/2-x,1/2-z
x,y,-z
1/2-y,1/2+x,1/2-z
1/2-x,1/2+y,1/2+z
1/2+x,1/2-y,1/2+z
-y,-x,z
y,x,z
loop_
_atom_site_type_symbol
_atom_site_label
_atom_site_fract_x
_atom_site_fract_y
_atom_site_fract_z
Si Si1 0.385632 0.302283 0.875338
Si Si2 0.108634 0.975312 0.624997
Si Si3 0.710644 0.942509 0.622449
Si Si4 0.570453 0.812429 0.122484
Si Si5 0.833426 0.917177 0.374832
Si Si6 0.893539 0.411389 0.236135
Si Si7 0.496077 0.064794 0.382768
O O1 0.330361 0.330361 0.840168
O O2 0.433944 0.343191 0.848119
O O3 0.398655 0.241891 0.844119
O O4 0.385033 0.301497 0.000000
O O5 0.105849 0.977444 0.500000
O O6 0.052916 0.947085 0.659484
O O7 0.127419 0.034012 0.659709
O O8 0.705225 0.930458 0.500000
O O9 0.771754 0.928361 0.654948
O O10 0.666112 0.912150 0.690113
O O11 0.699052 0.006545 0.633702
O O12 0.590338 0.861427 0.192100
O O13 0.579684 0.822524 0.000000
O O14 0.833301 0.918718 0.500000
O O15 0.861071 0.861071 0.343279
O O16 0.935799 0.416834 0.142622
O O17 0.905501 0.464184 0.304895
O O18 0.511146 0.076413 0.500000
O O19 0.500000 0.000000 0.368915
#
# Coordination Sequence:
#
# PCOD9569145 Si02
#       7
#    16  16  16  16  16  16  16
#     4   8  13  23  40  61  84 109 139 174 208 243
#     4   8  12  19  34  57  83 108 135 168 203 243
#     4  10  19  31  45  61  84 115 148 177 211 258
#     4  10  18  29  46  64  84 113 145 176 214 259
#     4   9  16  26  40  59  85 116 146 174 207 250
#     4  12  19  31  43  63  81 112 144 181 217 261
#     4  11  20  31  44  62  86 108 135 178 230 268
#
# _framework density 14.001628
#
# number of rings (size 3 to 8) (size 9 to 14) (size 15 to 20)
#    0.000    2.286    4.286    1.714    0.000    2.571 
#    0.000    2.143    0.000    0.000    0.000    0.000 
#    0.000    0.000    0.000    0.000    0.000    0.000 
#
# Total GULP energy -623481.894315 kJ/mol
# GULP energy per Si atom -5566.802628 kJ/mol
# Density = 1.396976 g / cm^3
# Si number density = 14.001628 Si / 1000 Ang^3
#
#
#
# Elastic Constant Matrix: (Units=GPa)
#
#
# Indices 1 2 3 4 5 6 
#
# 1 84.3489 49.5277 18.5382 0.0000 0.0000 0.0000
# 2 49.5277 84.3489 18.5382 0.0000 0.0000 0.0000
# 3 18.5382 18.5382 31.1652 0.0000 0.0000 0.0000
# 4 0.0000 0.0000 0.0000 7.5721 0.0000 0.0000
# 5 0.0000 0.0000 0.0000 0.0000 7.5721 0.0000
# 6 0.0000 0.0000 0.0000 0.0000 0.0000 20.7028
#
#
#
# Elastic Compliance Matrix: (Units=1/GPa)
#
#
# Indices 1 2 3 4 5 6 
#
# 1 0.018830 -0.009888 -0.005319 0.000000 0.000000 0.000000
# 2 -0.009888 0.018830 -0.005319 0.000000 0.000000 0.000000
# 3 -0.005319 -0.005319 0.038416 0.000000 0.000000 0.000000
# 4 0.000000 0.000000 0.000000 0.132065 0.000000 0.000000
# 5 0.000000 0.000000 0.000000 0.000000 0.132065 0.000000
# 6 0.000000 0.000000 0.000000 0.000000 0.000000 0.048303
#
#
# Mechanical properties :
#
#
# Convention : Reuss Voigt Hill
#
# Bulk Modulus (GPa) = 28.55253 41.45232 35.00242
# Shear Modulus (GPa) = 11.33181 14.71998 13.02589
#
# Velocity S-wave (km/s) = 2.84794 3.24590 3.05341
# Velocity P-wave (km/s) = 5.59025 6.61192 6.12243
#
# Compressibility (1/GPa) = 0.03502317
#
# Stress axis : x y z
#
# Youngs Moduli (GPa) = 53.10549 53.10549 26.03112
#
# Poissons Ratio (x) = 0.52509 0.13847
# Poissons Ratio (y) = 0.52509 0.13847
# Poissons Ratio (z) = 0.28249 0.28249
#
# Static dielectric constant tensor:
#      x y z
#    x 1.477810 0.000000 0.000000 
#    y 0.000000 1.477810 0.000000 
#    z 0.000000 0.000000 1.432160 
# 
# From -- ./inp_files/3979.got.cif
#   From: 2010.05.17/outbox.cif.g08.bks.cpg/sg136_2_cif.got.tgz:3979.got - 2010.05.20 12:54:53.
