data_PCOD9569262
_publ_section_title
;
Structure prediction by ZEFSAII (Michael W. Deem and Ramdas Pophale) SiO2 
 PCOD9569262
Probable space group: P 42/M N M
;
_chemical_formula_sum "Si O2"
_cell_formula_units_Z 72
_cell_length_a 23.287259
_cell_length_b 23.287259
_cell_length_c 9.000034
_cell_angle_alpha 90.000000
_cell_angle_beta 90.000000
_cell_angle_gamma 90.000000
_cell_volume 4880.686324
_symmetry_space_group_name_H-M "P 42/M N M"
_symmetry_group_IT_number 136
_symmetry_cell_setting 'tetragonal'
loop_
_space_group_symop_operation_xyz
x,y,z
1/2-y,1/2+x,1/2+z
-x,-y,z
1/2+y,1/2-x,1/2+z
1/2+x,1/2-y,1/2-z
1/2-x,1/2+y,1/2-z
y,x,-z
-y,-x,-z
-x,-y,-z
1/2+y,1/2-x,1/2-z
x,y,-z
1/2-y,1/2+x,1/2-z
1/2-x,1/2+y,1/2+z
1/2+x,1/2-y,1/2+z
-y,-x,z
y,x,z
loop_
_atom_site_type_symbol
_atom_site_label
_atom_site_fract_x
_atom_site_fract_y
_atom_site_fract_z
Si Si1 0.793205 0.694692 0.170924
Si Si2 0.104587 0.799323 0.320911
Si Si3 0.951341 0.951341 0.674477
Si Si4 0.722119 0.375555 0.174626
Si Si5 0.484579 0.669080 0.677187
O O1 0.743103 0.743103 0.170065
O O2 0.759876 0.637279 0.218793
O O3 0.843188 0.720547 0.271450
O O4 0.812628 0.688347 0.000000
O O5 0.096626 0.799498 0.500000
O O6 0.148006 0.851995 0.286456
O O7 0.044925 0.808174 0.239049
O O8 0.939892 0.939892 0.500000
O O9 0.972843 0.893413 0.751836
O O10 0.000000 0.000000 0.684751
O O11 0.669405 0.330596 0.198311
O O12 0.708671 0.432242 0.267437
O O13 0.724432 0.388553 0.000000
O O14 0.485147 0.665139 0.500000
#
# Coordination Sequence:
#
# PCOD9569262 Si02
#       5
#    16  16   8  16  16
#     4   8  15  29  49  69  89 114 148 189 235 283
#     4   9  18  33  50  67  91 125 157 190 235 284
#     4  11  23  37  49  61  85 125 167 203 239 280
#     4  10  19  31  48  67  90 120 154 193 237 283
#     4  12  23  32  46  67  93 123 159 201 235 274
#
# _framework density 14.752022999999999
#
# number of rings (size 3 to 8) (size 9 to 14) (size 15 to 20)
#    0.000    2.111    1.111    5.000    0.000    5.778 
#    0.000    2.222    0.000    0.000    0.000    0.000 
#    0.000    0.889    0.000    9.333    0.000    4.000 
#
# Total GULP energy -401675.986901 kJ/mol
# GULP energy per Si atom -5578.833151 kJ/mol
# Density = 1.471845 g / cm^3
# Si number density = 14.752023 Si / 1000 Ang^3
#
#
#
# Elastic Constant Matrix: (Units=GPa)
#
#
# Indices 1 2 3 4 5 6 
#
# 1 70.8043 71.5921 60.1591 0.0000 0.0000 0.0000
# 2 71.5921 70.8043 60.1591 0.0000 0.0000 0.0000
# 3 60.1591 60.1591 92.2842 0.0000 0.0000 0.0000
# 4 0.0000 0.0000 0.0000 19.2342 0.0000 0.0000
# 5 0.0000 0.0000 0.0000 0.0000 19.2342 0.0000
# 6 0.0000 0.0000 0.0000 0.0000 0.0000 22.0862
#
#
#
# Elastic Compliance Matrix: (Units=1/GPa)
#
#
# Indices 1 2 3 4 5 6 
#
# 1 -0.626847 0.642481 -0.010192 0.000000 0.000000 0.000000
# 2 0.642481 -0.626847 -0.010192 0.000000 0.000000 0.000000
# 3 -0.010192 -0.010192 0.024124 0.000000 0.000000 0.000000
# 4 0.000000 0.000000 0.000000 0.051991 0.000000 0.000000
# 5 0.000000 0.000000 0.000000 0.000000 0.051991 0.000000
# 6 0.000000 0.000000 0.000000 0.000000 0.000000 0.045277
#
#
# Mechanical properties :
#
#
# Convention : Reuss Voigt Hill
#
# Bulk Modulus (GPa) = 68.37500 68.63484 68.50492
# Shear Modulus (GPa) = -2.15552 14.90974 6.37711
#
# Velocity S-wave (km/s) = -1.21010 3.18259 2.08141
# Velocity P-wave (km/s) = 6.67066 7.75447 7.23290
#
# Compressibility (1/GPa) = 0.01462523
#
# Stress axis : x y z
#
# Youngs Moduli (GPa) = -1.59529 -1.59529 41.45261
#
# Poissons Ratio (x) = 1.02494 0.42248
# Poissons Ratio (y) = 1.02494 0.42248
# Poissons Ratio (z) = -0.01626 -0.01626
#
# Static dielectric constant tensor:
#      x y z
#    x 1.478220 0.000000 0.000000 
#    y 0.000000 1.478220 0.000000 
#    z 0.000000 0.000000 1.488910 
# 
# From -- ./inp_files/1569.got.cif
#   From: 2010.05.17/outbox.cif.g08.bks.cpg/sg136_1_cif.got.tgz:1569.got - 2010.05.20 12:54:53.
