data_PCOD9569697
_publ_section_title
;
Structure prediction by ZEFSAII (Michael W. Deem and Ramdas Pophale) SiO2 
 PCOD9569697
Probable space group: P 42/M N M
;
_chemical_formula_sum "Si O2"
_cell_formula_units_Z 58
_cell_length_a 19.159377
_cell_length_b 19.159377
_cell_length_c 9.274875
_cell_angle_alpha 90.000000
_cell_angle_beta 90.000000
_cell_angle_gamma 90.000000
_cell_volume 3404.637133
_symmetry_space_group_name_H-M "P 42/M N M"
_symmetry_group_IT_number 136
_symmetry_cell_setting 'tetragonal'
loop_
_space_group_symop_operation_xyz
x,y,z
1/2-y,1/2+x,1/2+z
-x,-y,z
1/2+y,1/2-x,1/2+z
1/2+x,1/2-y,1/2-z
1/2-x,1/2+y,1/2-z
y,x,-z
-y,-x,-z
-x,-y,-z
1/2+y,1/2-x,1/2-z
x,y,-z
1/2-y,1/2+x,1/2-z
1/2-x,1/2+y,1/2+z
1/2+x,1/2-y,1/2+z
-y,-x,z
y,x,z
loop_
_atom_site_type_symbol
_atom_site_label
_atom_site_fract_x
_atom_site_fract_y
_atom_site_fract_z
Si Si1 0.480016 0.283248 0.833454
Si Si2 0.944819 0.055182 0.294518
Si Si3 0.242229 0.124714 0.829325
Si Si4 0.345933 0.227861 0.669839
Si Si5 0.500000 0.500000 0.500000
O O1 0.462964 0.365736 0.832203
O O2 0.551768 0.270871 0.748772
O O3 0.417584 0.244557 0.750523
O O4 0.485161 0.260534 0.000000
O O5 0.957213 0.042788 0.125254
O O6 0.000000 0.000000 0.357118
O O7 0.173360 0.173360 0.815644
O O8 0.304104 0.166441 0.750229
O O9 0.255979 0.116179 0.000000
O O10 0.355739 0.212892 0.500000
O O11 0.295971 0.295971 0.680656
#
# Coordination Sequence:
#
# PCOD9569697 Si02
#       5
#    16   8  16  16   2
#     4  12  23  35  56  83 116 151 192 234 284 340
#     4  10  23  34  54  78 119 154 192 228 281 341
#     4  10  22  38  58  82 114 151 191 238 288 339
#     4  10  21  37  59  82 111 148 193 238 286 341
#     4   8  24  36  50  72 120 148 194 224 280 334
#
# _framework density 17.035589000000002
#
# number of rings (size 3 to 8) (size 9 to 14) (size 15 to 20)
#    0.414    1.103    1.379    3.724    3.862    4.966 
#    0.000    0.000    0.000    0.828    0.000    5.793 
#    0.000    0.000    0.000    0.000    0.000    0.000 
#
# Total GULP energy -323283.480796 kJ/mol
# GULP energy per Si atom -5573.853117 kJ/mol
# Density = 1.699682 g / cm^3
# Si number density = 17.035589 Si / 1000 Ang^3
#
#
#
# Elastic Constant Matrix: (Units=GPa)
#
#
# Indices 1 2 3 4 5 6 
#
# 1 82.2404 117.6427 81.9703 0.0000 0.0000 0.0000
# 2 117.6427 82.2404 81.9703 0.0000 0.0000 0.0000
# 3 81.9703 81.9703 211.7306 0.0000 0.0000 0.0000
# 4 0.0000 0.0000 0.0000 31.0846 0.0000 0.0000
# 5 0.0000 0.0000 0.0000 0.0000 31.0846 0.0000
# 6 0.0000 0.0000 0.0000 0.0000 0.0000 16.9555
#
#
#
# Elastic Compliance Matrix: (Units=1/GPa)
#
#
# Indices 1 2 3 4 5 6 
#
# 1 -0.010458 0.017789 -0.002838 0.000000 0.000000 0.000000
# 2 0.017789 -0.010458 -0.002838 0.000000 0.000000 0.000000
# 3 -0.002838 -0.002838 0.006920 0.000000 0.000000 0.000000
# 4 0.000000 0.000000 0.000000 0.032170 0.000000 0.000000
# 5 0.000000 0.000000 0.000000 0.000000 0.032170 0.000000
# 6 0.000000 0.000000 0.000000 0.000000 0.000000 0.058978
#
#
# Mechanical properties :
#
#
# Convention : Reuss Voigt Hill
#
# Bulk Modulus (GPa) = 97.75539 104.37534 101.06536
# Shear Modulus (GPa) = 56.49254 22.13348 39.31301
#
# Velocity S-wave (km/s) = 5.76485 3.60842 4.80906
# Velocity P-wave (km/s) = 10.09054 8.87485 9.50215
#
# Compressibility (1/GPa) = 0.01022961
#
# Stress axis : x y z
#
# Youngs Moduli (GPa) = -95.62016 -95.62016 144.50001
#
# Poissons Ratio (x) = 1.70095 0.41009
# Poissons Ratio (y) = 1.70095 0.41009
# Poissons Ratio (z) = -0.27137 -0.27137
#
# Static dielectric constant tensor:
#      x y z
#    x 1.552070 0.000000 0.000000 
#    y 0.000000 1.552070 0.000000 
#    z 0.000000 0.000000 1.580340 
# 
# From -- ./inp_files/1175.got.cif
#   From: 2010.05.17/outbox.cif.g08.bks.cpg/sg136_1_cif.got.tgz:1175.got - 2010.05.20 12:54:53.
