data_PCOD9569740
_publ_section_title
;
Structure prediction by ZEFSAII (Michael W. Deem and Ramdas Pophale) SiO2 
 PCOD9569740
Probable space group: P 42/M N M
;
_chemical_formula_sum "Si O2"
_cell_formula_units_Z 64
_cell_length_a 11.956338
_cell_length_b 11.956338
_cell_length_c 23.019653
_cell_angle_alpha 90.000000
_cell_angle_beta 90.000000
_cell_angle_gamma 90.000000
_cell_volume 3290.751898
_symmetry_space_group_name_H-M "P 42/M N M"
_symmetry_group_IT_number 136
_symmetry_cell_setting 'tetragonal'
loop_
_space_group_symop_operation_xyz
x,y,z
1/2-y,1/2+x,1/2+z
-x,-y,z
1/2+y,1/2-x,1/2+z
1/2+x,1/2-y,1/2-z
1/2-x,1/2+y,1/2-z
y,x,-z
-y,-x,-z
-x,-y,-z
1/2+y,1/2-x,1/2-z
x,y,-z
1/2-y,1/2+x,1/2-z
1/2-x,1/2+y,1/2+z
1/2+x,1/2-y,1/2+z
-y,-x,z
y,x,z
loop_
_atom_site_type_symbol
_atom_site_label
_atom_site_fract_x
_atom_site_fract_y
_atom_site_fract_z
Si Si1 0.004281 0.183361 0.569596
Si Si2 0.667721 0.332280 0.437051
Si Si3 0.406755 0.593246 0.691072
Si Si4 0.589879 0.084263 0.406337
Si Si5 0.972467 0.661847 0.220178
O O1 0.004780 0.206547 0.500000
O O2 0.902008 0.097993 0.580271
O O3 0.986707 0.297615 0.602995
O O4 0.116738 0.116738 0.583868
O O5 0.625864 0.374137 0.500000
O O6 0.617765 0.382236 0.377540
O O7 0.636700 0.199474 0.434880
O O8 0.500000 0.500000 0.695921
O O9 0.292323 0.552266 0.720447
O O10 0.534219 0.123304 0.346585
O O11 0.500000 0.000000 0.435119
O O12 0.877714 0.589533 0.253025
#
# Coordination Sequence:
#
# PCOD9569740 Si02
#       5
#    16   8   8  16  16
#     4   9  18  34  56  84 122 159 196 255 313 360
#     4  10  22  39  61  92 132 168 206 259 305 373
#     4  10  24  41  68 100 122 164 215 255 314 389
#     4  11  20  36  62  90 118 163 218 250 310 384
#     4  10  21  43  64  87 124 164 203 265 321 361
#
# _framework density 19.448442
#
# number of rings (size 3 to 8) (size 9 to 14) (size 15 to 20)
#    0.000    2.000    3.750    1.500    1.750    2.250 
#    2.250    5.000    0.000    0.000    0.000    0.000 
#    0.000    0.000    0.000    0.000    0.000    0.000 
#
# Total GULP energy -356829.530984 kJ/mol
# GULP energy per Si atom -5575.461422 kJ/mol
# Density = 1.940418 g / cm^3
# Si number density = 19.448442 Si / 1000 Ang^3
#
#
#
# Elastic Constant Matrix: (Units=GPa)
#
#
# Indices 1 2 3 4 5 6 
#
# 1 150.8211 72.6681 29.1437 0.0000 0.0000 0.0000
# 2 72.6681 150.8209 29.1436 0.0000 0.0000 0.0000
# 3 29.1437 29.1436 64.6108 0.0000 0.0000 0.0000
# 4 0.0000 0.0000 0.0000 4.6682 0.0000 0.0000
# 5 0.0000 0.0000 0.0000 0.0000 4.6696 0.0000
# 6 0.0000 0.0000 0.0000 0.0000 0.0000 21.1678
#
#
#
# Elastic Compliance Matrix: (Units=1/GPa)
#
#
# Indices 1 2 3 4 5 6 
#
# 1 0.008933 -0.003862 -0.002287 0.000000 0.000000 0.000000
# 2 -0.003862 0.008933 -0.002287 0.000000 0.000000 0.000000
# 3 -0.002287 -0.002287 0.017541 0.000000 0.000000 0.000000
# 4 0.000000 0.000000 0.000000 0.214214 0.000000 0.000000
# 5 0.000000 0.000000 0.000000 0.000000 0.214152 0.000000
# 6 0.000000 0.000000 0.000000 0.000000 0.000000 0.047242
#
#
# Mechanical properties :
#
#
# Convention : Reuss Voigt Hill
#
# Bulk Modulus (GPa) = 53.95661 69.79595 61.87628
# Shear Modulus (GPa) = 9.36211 21.78760 15.57486
#
# Velocity S-wave (km/s) = 2.19642 3.35068 2.83296
# Velocity P-wave (km/s) = 5.85115 7.13688 6.52576
#
# Compressibility (1/GPa) = 0.01853341
#
# Stress axis : x y z
#
# Youngs Moduli (GPa) = 111.94146 111.94136 57.01001
#
# Poissons Ratio (x) = 0.43234 0.13040
# Poissons Ratio (y) = 0.43234 0.13040
# Poissons Ratio (z) = 0.25605 0.25605
#
# Static dielectric constant tensor:
#      x y z
#    x 1.673460 0.000000 0.000000 
#    y 0.000000 1.673460 0.000000 
#    z 0.000000 0.000000 1.697770 
# 
# From -- ./inp_files/8186.got.cif
#   From: 2010.05.17/outbox.cif.g08.bks.cpg/sg136_5_cif.got.tgz:8186.got - 2010.05.20 12:54:53.
