data_PCOD9569702
_publ_section_title
;
Structure prediction by ZEFSAII (Michael W. Deem and Ramdas Pophale) SiO2 
 PCOD9569702
Probable space group: P 42/M N M
;
_chemical_formula_sum "Si O2"
_cell_formula_units_Z 80
_cell_length_a 12.356442
_cell_length_b 12.356442
_cell_length_c 28.176690
_cell_angle_alpha 90.000000
_cell_angle_beta 90.000000
_cell_angle_gamma 90.000000
_cell_volume 4302.063771
_symmetry_space_group_name_H-M "P 42/M N M"
_symmetry_group_IT_number 136
_symmetry_cell_setting 'tetragonal'
loop_
_space_group_symop_operation_xyz
x,y,z
1/2-y,1/2+x,1/2+z
-x,-y,z
1/2+y,1/2-x,1/2+z
1/2+x,1/2-y,1/2-z
1/2-x,1/2+y,1/2-z
y,x,-z
-y,-x,-z
-x,-y,-z
1/2+y,1/2-x,1/2-z
x,y,-z
1/2-y,1/2+x,1/2-z
1/2-x,1/2+y,1/2+z
1/2+x,1/2-y,1/2+z
-y,-x,z
y,x,z
loop_
_atom_site_type_symbol
_atom_site_label
_atom_site_fract_x
_atom_site_fract_y
_atom_site_fract_z
Si Si1 0.497298 0.677034 0.899650
Si Si2 0.725339 0.906617 0.857414
Si Si3 0.075369 0.604396 0.444549
Si Si4 0.608240 0.784747 0.701698
Si Si5 0.522130 0.799596 0.804757
O O1 0.388908 0.611093 0.910461
O O2 0.598208 0.598208 0.910210
O O3 0.512017 0.787903 0.928127
O O4 0.501919 0.707430 0.843953
O O5 0.823354 0.823354 0.851683
O O6 0.679186 0.903898 0.910613
O O7 0.624671 0.865953 0.824895
O O8 0.751022 0.026071 0.839245
O O9 0.101833 0.610129 0.500000
O O10 0.000000 0.500000 0.436013
O O11 0.720032 0.720032 0.698731
O O12 0.553148 0.760879 0.752445
O O13 0.630229 0.912975 0.698111
#
# Coordination Sequence:
#
# PCOD9569702 Si02
#       5
#    16  16  16  16  16
#     4  10  21  37  59  88 122 152 184 241 308 360
#     4  11  23  39  60  87 120 157 196 242 294 349
#     4  10  21  39  63  88 116 154 200 244 290 350
#     4  12  24  37  59  86 116 157 201 245 290 343
#     4  11  21  37  57  82 117 159 200 237 285 349
#
# _framework density 18.595725000000002
#
# number of rings (size 3 to 8) (size 9 to 14) (size 15 to 20)
#    0.000    1.200    2.000    7.200    0.000    3.200 
#    0.000    1.000    0.000    1.800    0.000    1.400 
#    0.000    0.000    0.000    0.000    0.000    0.000 
#
# Total GULP energy -447077.960719 kJ/mol
# GULP energy per Si atom -5588.474509 kJ/mol
# Density = 1.855340 g / cm^3
# Si number density = 18.595725 Si / 1000 Ang^3
#
#
#
# Elastic Constant Matrix: (Units=GPa)
#
#
# Indices 1 2 3 4 5 6 
#
# 1 69.4697 14.7586 16.2061 0.0000 0.0000 0.0000
# 2 14.7586 69.4697 16.2061 0.0000 0.0000 0.0000
# 3 16.2061 16.2061 66.4974 0.0000 0.0000 0.0000
# 4 0.0000 0.0000 0.0000 13.1368 0.0000 0.0000
# 5 0.0000 0.0000 0.0000 0.0000 13.1368 0.0000
# 6 0.0000 0.0000 0.0000 0.0000 0.0000 14.1993
#
#
#
# Elastic Compliance Matrix: (Units=1/GPa)
#
#
# Indices 1 2 3 4 5 6 
#
# 1 0.015689 -0.002588 -0.003193 0.000000 0.000000 0.000000
# 2 -0.002588 0.015689 -0.003193 0.000000 0.000000 0.000000
# 3 -0.003193 -0.003193 0.016594 0.000000 0.000000 0.000000
# 4 0.000000 0.000000 0.000000 0.076122 0.000000 0.000000
# 5 0.000000 0.000000 0.000000 0.000000 0.076122 0.000000
# 6 0.000000 0.000000 0.000000 0.000000 0.000000 0.070426
#
#
# Mechanical properties :
#
#
# Convention : Reuss Voigt Hill
#
# Bulk Modulus (GPa) = 33.30532 33.30871 33.30701
# Shear Modulus (GPa) = 16.74481 18.64565 17.69523
#
# Velocity S-wave (km/s) = 3.00403 3.16996 3.08811
# Velocity P-wave (km/s) = 5.47552 5.59902 5.53762
#
# Compressibility (1/GPa) = 0.03002523
#
# Stress axis : x y z
#
# Youngs Moduli (GPa) = 63.73690 63.73690 60.26103
#
# Poissons Ratio (x) = 0.16497 0.19241
# Poissons Ratio (y) = 0.16497 0.19241
# Poissons Ratio (z) = 0.20351 0.20351
#
# Static dielectric constant tensor:
#      x y z
#    x 1.638990 0.000000 0.000000 
#    y 0.000000 1.638990 0.000000 
#    z 0.000000 0.000000 1.640290 
# 
# From -- ./inp_files/9536.got.cif
#   From: 2010.05.17/outbox.cif.g08.bks.cpg/sg136_5_cif.got.tgz:9536.got - 2010.05.20 12:54:53.
