data_PCOD9569067
_publ_section_title
;
Structure prediction by ZEFSAII (Michael W. Deem and Ramdas Pophale) SiO2 
 PCOD9569067
Probable space group: P 42/M B C
;
_chemical_formula_sum "Si O2"
_cell_formula_units_Z 96
_cell_length_a 24.000000
_cell_length_b 24.000000
_cell_length_c 9.000000
_cell_angle_alpha 90.000000
_cell_angle_beta 90.000000
_cell_angle_gamma 90.000000
_cell_volume 5184.000000
_symmetry_space_group_name_H-M "P 42/M B C"
_symmetry_group_IT_number 135
_symmetry_cell_setting 'tetragonal'
loop_
_space_group_symop_operation_xyz
x,y,z
-y,x,1/2+z
-x,-y,z
y,-x,1/2+z
1/2+x,1/2-y,-z
1/2-x,1/2+y,-z
1/2+y,1/2+x,1/2-z
1/2-y,1/2-x,1/2-z
-x,-y,-z
y,-x,1/2-z
x,y,-z
-y,x,1/2-z
1/2-x,1/2+y,z
1/2+x,1/2-y,z
1/2-y,1/2-x,1/2+z
1/2+y,1/2+x,1/2+z
loop_
_atom_site_type_symbol
_atom_site_label
_atom_site_fract_x
_atom_site_fract_y
_atom_site_fract_z
Si Si1 0.212167 0.505144 0.323302
Si Si2 0.579738 0.526258 0.179311
Si Si3 0.997775 0.417731 0.823492
Si Si4 0.699455 0.573655 0.821706
Si Si5 0.197738 0.222143 0.321451
Si Si6 0.789277 0.369505 0.321911
O O1 0.222299 0.501151 0.500000
O O2 0.147199 0.494723 0.296662
O O3 0.251000 0.463110 0.238904
O O4 0.223788 0.568261 0.274442
O O5 0.467087 0.432990 0.245606
O O6 0.640282 0.548146 0.221092
O O7 0.574508 0.522897 0.000000
O O8 0.941909 0.441909 0.750000
O O9 0.047099 0.452902 0.750000
O O10 0.995908 0.427407 0.000000
O O11 0.707222 0.636547 0.768755
O O12 0.700747 0.574529 0.000000
O O13 0.222345 0.277656 0.250000
O O14 0.198111 0.227450 0.500000
O O15 0.239487 0.172090 0.281879
O O16 0.844530 0.344530 0.250000
O O17 0.795999 0.369639 0.500000
#
# Coordination Sequence:
#
# PCOD9569067 Si02
#       6
#    16  16  16  16  16  16
#     4  10  22  36  54  81 110 144 182 223 273 326
#     4  10  21  38  60  85 112 147 186 230 282 334
#     4  10  20  35  55  81 109 145 188 227 278 331
#     4  10  23  38  55  82 113 148 185 225 277 328
#     4   9  19  37  57  78 106 141 179 220 269 321
#     4   9  18  34  57  81 106 138 175 221 273 317
#
# _framework density 18.518519000000001
#
# number of rings (size 3 to 8) (size 9 to 14) (size 15 to 20)
#    0.000    2.333    0.000    2.500    2.333    4.667 
#    0.000    3.333    0.000    0.000    0.000    0.000 
#    0.000    0.000    0.000    0.000    0.000    0.000 
#
# Total GULP energy -535618.363190 kJ/mol
# GULP energy per Si atom -5579.357950 kJ/mol
# Density = 1.847637 g / cm^3
# Si number density = 18.518519 Si / 1000 Ang^3
#
#
#
# Elastic Constant Matrix: (Units=GPa)
#
#
# Indices 1 2 3 4 5 6 
#
# 1 135.8399 7.8928 37.9471 0.0000 0.0000 0.0000
# 2 7.8928 135.7481 37.9863 0.0000 0.0000 0.0000
# 3 37.9471 37.9863 23.4484 0.0000 0.0000 0.0000
# 4 0.0000 0.0000 0.0000 24.5581 0.0000 0.0000
# 5 0.0000 0.0000 0.0000 0.0000 24.5581 0.0000
# 6 0.0000 0.0000 0.0000 0.0000 0.0000 -14.4706
#
#
#
# Elastic Compliance Matrix: (Units=1/GPa)
#
#
# Indices 1 2 3 4 5 6 
#
# 1 0.027978 0.020201 -0.078002 0.000000 0.000000 0.000000
# 2 0.020201 0.028060 -0.078149 0.000000 0.000000 0.000000
# 3 -0.078002 -0.078149 0.295480 0.000000 0.000000 0.000000
# 4 0.000000 0.000000 0.000000 0.040720 0.000000 0.000000
# 5 0.000000 0.000000 0.000000 0.000000 0.040720 0.000000
# 6 0.000000 0.000000 0.000000 0.000000 0.000000 -0.069106
#
#
# Mechanical properties :
#
#
# Convention : Reuss Voigt Hill
#
# Bulk Modulus (GPa) = 12.56002 51.40988 31.98495
# Shear Modulus (GPa) = 7.54954 21.00982 14.27968
#
# Velocity S-wave (km/s) = 2.02129 3.37193 2.77989
# Velocity P-wave (km/s) = 3.49923 6.55603 5.25481
#
# Compressibility (1/GPa) = 0.07961768
#
# Stress axis : x y z
#
# Youngs Moduli (GPa) = 35.74244 35.63739 3.38432
#
# Poissons Ratio (x) = -0.71990 0.26398
# Poissons Ratio (y) = -0.72202 0.26448
# Poissons Ratio (z) = 2.78799 2.78502
#
# Static dielectric constant tensor:
#      x y z
#    x 1.630820 0.000000 0.000000 
#    y 0.000000 1.630810 0.000000 
#    z 0.000000 0.000000 1.612750 
# 
# From -- ./inp_files/1228.got.cif
#   From: 2010.05.17/outbox.ucp.g08.bks.cvg/sg135_1_cif.got.tgz:1228.got - 2010.06.11 11:40:18.
