data_PCOD9569775
_publ_section_title
;
Structure prediction by ZEFSAII (Michael W. Deem and Ramdas Pophale) SiO2 
 PCOD9569775
Probable space group: P 42/M N M
;
_chemical_formula_sum "Si O2"
_cell_formula_units_Z 52
_cell_length_a 14.528800
_cell_length_b 14.528800
_cell_length_c 11.809078
_cell_angle_alpha 90.000000
_cell_angle_beta 90.000000
_cell_angle_gamma 90.000000
_cell_volume 2492.731386
_symmetry_space_group_name_H-M "P 42/M N M"
_symmetry_group_IT_number 136
_symmetry_cell_setting 'tetragonal'
loop_
_space_group_symop_operation_xyz
x,y,z
1/2-y,1/2+x,1/2+z
-x,-y,z
1/2+y,1/2-x,1/2+z
1/2+x,1/2-y,1/2-z
1/2-x,1/2+y,1/2-z
y,x,-z
-y,-x,-z
-x,-y,-z
1/2+y,1/2-x,1/2-z
x,y,-z
1/2-y,1/2+x,1/2-z
1/2-x,1/2+y,1/2+z
1/2+x,1/2-y,1/2+z
-y,-x,z
y,x,z
loop_
_atom_site_type_symbol
_atom_site_label
_atom_site_fract_x
_atom_site_fract_y
_atom_site_fract_z
Si Si1 0.074495 0.074495 0.219159
Si Si2 0.998269 0.738081 0.709639
Si Si3 0.220705 0.368877 0.000000
Si Si4 0.344808 0.192038 0.634975
Si Si5 0.666909 0.333092 0.500000
O O1 0.154314 0.026178 0.291200
O O2 0.122742 0.122742 0.111415
O O3 0.000000 0.000000 0.181302
O O4 0.902767 0.685421 0.693147
O O5 0.067848 0.711161 0.609516
O O6 0.053731 0.717979 0.824115
O O7 0.321639 0.321639 0.000000
O O8 0.156296 0.278263 0.000000
O O9 0.339533 0.181445 0.500000
O O10 0.273122 0.273122 0.668524
#
# Coordination Sequence:
#
# PCOD9569775 Si02
#       5
#     8  16   8  16   4
#     4  12  25  41  74 111 144 182 247 311 357 426
#     4  12  24  46  71 107 140 189 242 297 367 427
#     4  10  22  42  71 101 138 188 237 283 357 431
#     4  11  25  48  72 102 147 193 237 297 367 437
#     4  10  25  46  66  99 152 202 224 290 378 431
#
# _framework density 20.860652999999999
#
# number of rings (size 3 to 8) (size 9 to 14) (size 15 to 20)
#    0.462    0.308    3.077    4.846    2.154    1.231 
#    2.769    3.077    0.000    0.000    0.000    0.000 
#    0.000    0.000    0.000    0.000    0.000    0.000 
#
# Total GULP energy -290866.667204 kJ/mol
# GULP energy per Si atom -5593.589754 kJ/mol
# Density = 2.081317 g / cm^3
# Si number density = 20.860653 Si / 1000 Ang^3
#
#
#
# Elastic Constant Matrix: (Units=GPa)
#
#
# Indices 1 2 3 4 5 6 
#
# 1 148.4882 40.7867 32.8923 0.0000 0.0000 0.0000
# 2 40.7867 148.4869 32.8921 0.0000 0.0000 0.0000
# 3 32.8923 32.8921 48.8509 0.0000 0.0000 0.0000
# 4 0.0000 0.0000 0.0000 35.8913 0.0000 0.0000
# 5 0.0000 0.0000 0.0000 0.0000 35.8912 0.0000
# 6 0.0000 0.0000 0.0000 0.0000 0.0000 52.1139
#
#
#
# Elastic Compliance Matrix: (Units=1/GPa)
#
#
# Indices 1 2 3 4 5 6 
#
# 1 0.008091 -0.001194 -0.004644 0.000000 0.000000 0.000000
# 2 -0.001194 0.008091 -0.004644 0.000000 0.000000 0.000000
# 3 -0.004644 -0.004644 0.026724 0.000000 0.000000 0.000000
# 4 0.000000 0.000000 0.000000 0.027862 0.000000 0.000000
# 5 0.000000 0.000000 0.000000 0.000000 0.027862 0.000000
# 6 0.000000 0.000000 0.000000 0.000000 0.000000 0.019189
#
#
# Mechanical properties :
#
#
# Convention : Reuss Voigt Hill
#
# Bulk Modulus (GPa) = 45.57329 62.10756 53.84042
# Shear Modulus (GPa) = 34.22358 40.72961 37.47660
#
# Velocity S-wave (km/s) = 4.05480 4.42346 4.24314
# Velocity P-wave (km/s) = 6.61935 7.47841 7.06195
#
# Compressibility (1/GPa) = 0.02194268
#
# Stress axis : x y z
#
# Youngs Moduli (GPa) = 123.59115 123.59010 37.41885
#
# Poissons Ratio (x) = 0.14754 0.17378
# Poissons Ratio (y) = 0.14754 0.17378
# Poissons Ratio (z) = 0.57398 0.57398
#
# Static dielectric constant tensor:
#      x y z
#    x 1.723180 0.000000 0.000000 
#    y 0.000000 1.723190 0.000000 
#    z 0.000000 0.000000 1.751740 
# 
# From -- ./inp_files/3124.got.cif
#   From: 2010.05.17/outbox.cif.g08.bks.cpg/sg136_2_cif.got.tgz:3124.got - 2010.05.20 12:54:53.
