data_PCOD9569715
_publ_section_title
;
Structure prediction by ZEFSAII (Michael W. Deem and Ramdas Pophale) SiO2 
 PCOD9569715
Probable space group: P 42/M N M
;
_chemical_formula_sum "Si O2"
_cell_formula_units_Z 96
_cell_length_a 24.326591
_cell_length_b 24.326591
_cell_length_c 8.913897
_cell_angle_alpha 90.000000
_cell_angle_beta 90.000000
_cell_angle_gamma 90.000000
_cell_volume 5275.092973
_symmetry_space_group_name_H-M "P 42/M N M"
_symmetry_group_IT_number 136
_symmetry_cell_setting 'tetragonal'
loop_
_space_group_symop_operation_xyz
x,y,z
1/2-y,1/2+x,1/2+z
-x,-y,z
1/2+y,1/2-x,1/2+z
1/2+x,1/2-y,1/2-z
1/2-x,1/2+y,1/2-z
y,x,-z
-y,-x,-z
-x,-y,-z
1/2+y,1/2-x,1/2-z
x,y,-z
1/2-y,1/2+x,1/2-z
1/2-x,1/2+y,1/2+z
1/2+x,1/2-y,1/2+z
-y,-x,z
y,x,z
loop_
_atom_site_type_symbol
_atom_site_label
_atom_site_fract_x
_atom_site_fract_y
_atom_site_fract_z
Si Si1 0.572870 0.799465 0.680212
Si Si2 0.578480 0.030571 0.818996
Si Si3 0.225435 0.135083 0.322107
Si Si4 0.909513 0.999226 0.320143
Si Si5 0.292123 0.516791 0.679387
Si Si6 0.279550 0.809240 0.320563
O O1 0.579910 0.797903 0.500000
O O2 0.553449 0.861238 0.718904
O O3 0.526583 0.755070 0.721454
O O4 0.629896 0.783527 0.756699
O O5 0.529971 0.067939 0.749538
O O6 0.572927 0.028374 0.000000
O O7 0.234670 0.131575 0.500000
O O8 0.169132 0.169132 0.297538
O O9 0.221093 0.075481 0.251252
O O10 0.273319 0.170922 0.247328
O O11 0.900816 0.997296 0.500000
O O12 0.944953 0.944953 0.279497
O O13 0.851761 0.001463 0.237878
O O14 0.948816 0.051185 0.288193
O O15 0.292966 0.521606 0.500000
O O16 0.283815 0.809860 0.500000
O O17 0.223603 0.776398 0.280012
#
# Coordination Sequence:
#
# PCOD9569715 Si02
#       6
#    16  16  16  16  16  16
#     4  10  24  41  57  84 120 157 193 234 288 347
#     4  10  21  39  61  86 114 148 191 238 291 347
#     4  10  21  38  61  87 116 152 192 236 289 345
#     4   9  19  37  59  82 112 152 196 242 293 350
#     4  11  23  37  55  85 121 153 191 241 289 338
#     4  10  22  40  62  87 114 148 193 241 286 337
#
# _framework density 18.198732
#
# number of rings (size 3 to 8) (size 9 to 14) (size 15 to 20)
#    0.000    2.000    0.000    3.500    2.333    8.000 
#    0.000    4.167    0.000    0.000    0.000    0.000 
#    0.000    0.000    0.000    0.000    0.000    0.000 
#
# Total GULP energy -536330.572519 kJ/mol
# GULP energy per Si atom -5586.776797 kJ/mol
# Density = 1.815731 g / cm^3
# Si number density = 18.198732 Si / 1000 Ang^3
#
#
#
# Elastic Constant Matrix: (Units=GPa)
#
#
# Indices 1 2 3 4 5 6 
#
# 1 228.1943 46.2613 73.5701 0.0000 0.0000 0.0000
# 2 46.2613 228.1943 73.5701 0.0000 0.0000 0.0000
# 3 73.5701 73.5701 59.5978 0.0000 0.0000 0.0000
# 4 0.0000 0.0000 0.0000 43.8097 0.0000 0.0000
# 5 0.0000 0.0000 0.0000 0.0000 43.8097 0.0000
# 6 0.0000 0.0000 0.0000 0.0000 0.0000 10.2117
#
#
#
# Elastic Compliance Matrix: (Units=1/GPa)
#
#
# Indices 1 2 3 4 5 6 
#
# 1 0.008135 0.002639 -0.013299 0.000000 0.000000 0.000000
# 2 0.002639 0.008135 -0.013299 0.000000 0.000000 0.000000
# 3 -0.013299 -0.013299 0.049614 0.000000 0.000000 0.000000
# 4 0.000000 0.000000 0.000000 0.022826 0.000000 0.000000
# 5 0.000000 0.000000 0.000000 0.000000 0.022826 0.000000
# 6 0.000000 0.000000 0.000000 0.000000 0.000000 0.097927
#
#
# Mechanical properties :
#
#
# Convention : Reuss Voigt Hill
#
# Bulk Modulus (GPa) = 55.66849 100.30994 77.98922
# Shear Modulus (GPa) = 18.98456 41.07188 30.02822
#
# Velocity S-wave (km/s) = 3.23333 4.75579 4.06645
# Velocity P-wave (km/s) = 6.67794 9.24097 8.06196
#
# Compressibility (1/GPa) = 0.01796348
#
# Stress axis : x y z
#
# Youngs Moduli (GPa) = 122.92442 122.92442 20.15559
#
# Poissons Ratio (x) = -0.32434 0.26806
# Poissons Ratio (y) = -0.32434 0.26806
# Poissons Ratio (z) = 1.63483 1.63483
#
# Static dielectric constant tensor:
#      x y z
#    x 1.602840 0.000000 0.000000 
#    y 0.000000 1.602840 0.000000 
#    z 0.000000 0.000000 1.607120 
# 
# From -- ./inp_files/1991.got.cif
#   From: 2010.05.17/outbox.cif.g08.bks.cpg/sg136_1_cif.got.tgz:1991.got - 2010.05.20 12:54:53.
