data_PCOD9569364
_publ_section_title
;
Structure prediction by ZEFSAII (Michael W. Deem and Ramdas Pophale) SiO2 
 PCOD9569364
Probable space group: P 42/M N M
;
_chemical_formula_sum "Si O2"
_cell_formula_units_Z 68
_cell_length_a 12.372823
_cell_length_b 12.372823
_cell_length_c 24.305166
_cell_angle_alpha 90.000000
_cell_angle_beta 90.000000
_cell_angle_gamma 90.000000
_cell_volume 3720.798847
_symmetry_space_group_name_H-M "P 42/M N M"
_symmetry_group_IT_number 136
_symmetry_cell_setting 'tetragonal'
loop_
_space_group_symop_operation_xyz
x,y,z
1/2-y,1/2+x,1/2+z
-x,-y,z
1/2+y,1/2-x,1/2+z
1/2+x,1/2-y,1/2-z
1/2-x,1/2+y,1/2-z
y,x,-z
-y,-x,-z
-x,-y,-z
1/2+y,1/2-x,1/2-z
x,y,-z
1/2-y,1/2+x,1/2-z
1/2-x,1/2+y,1/2+z
1/2+x,1/2-y,1/2+z
-y,-x,z
y,x,z
loop_
_atom_site_type_symbol
_atom_site_label
_atom_site_fract_x
_atom_site_fract_y
_atom_site_fract_z
Si Si1 0.205746 0.617185 0.303388
Si Si2 0.628291 0.973704 0.500000
Si Si3 0.085256 0.085256 0.399762
Si Si4 0.803117 0.511227 0.879611
Si Si5 0.703875 0.296126 0.000000
Si Si6 0.629517 0.808835 0.316855
O O1 0.309295 0.690706 0.312763
O O2 0.164503 0.639017 0.241376
O O3 0.231285 0.491959 0.311087
O O4 0.111514 0.655784 0.344522
O O5 0.677914 0.025327 0.555453
O O6 0.673890 0.847451 0.500000
O O7 0.500000 0.000000 0.500000
O O8 0.019506 0.177931 0.367710
O O9 0.149299 0.149299 0.446771
O O10 0.000000 0.000000 0.422764
O O11 0.867497 0.404286 0.861257
O O12 0.715395 0.715395 0.330495
#
# Coordination Sequence:
#
# PCOD9569364 Si02
#       6
#    16   8   8  16   4  16
#     4  11  23  38  58  84 115 156 196 239 291 345
#     4  10  20  35  57  84 117 152 190 249 291 343
#     4  10  19  34  56  84 121 151 182 236 289 348
#     4  11  21  38  58  88 116 151 197 236 294 351
#     4   8  19  32  52  82 116 152 195 224 295 356
#     4  11  22  38  59  84 116 153 196 241 288 344
#
# _framework density 18.275645000000001
#
# number of rings (size 3 to 8) (size 9 to 14) (size 15 to 20)
#    0.000    1.412    3.529    3.000    0.000    0.471 
#    0.000    1.765    0.000    0.000    0.000    0.000 
#    0.000    5.647    0.000    0.000    0.000    0.000 
#
# Total GULP energy -379424.347780 kJ/mol
# GULP energy per Si atom -5579.769820 kJ/mol
# Density = 1.823405 g / cm^3
# Si number density = 18.275645 Si / 1000 Ang^3
#
#
#
# Elastic Constant Matrix: (Units=GPa)
#
#
# Indices 1 2 3 4 5 6 
#
# 1 66.8446 36.0619 6.9277 0.0000 0.0000 0.0000
# 2 36.0619 66.8447 6.9276 0.0000 0.0000 0.0000
# 3 6.9277 6.9276 68.1787 0.0000 0.0000 0.0000
# 4 0.0000 0.0000 0.0000 -14.2461 0.0000 0.0000
# 5 0.0000 0.0000 0.0000 0.0000 -14.2443 0.0000
# 6 0.0000 0.0000 0.0000 0.0000 0.0000 19.1601
#
#
#
# Elastic Compliance Matrix: (Units=1/GPa)
#
#
# Indices 1 2 3 4 5 6 
#
# 1 0.021169 -0.011317 -0.001001 0.000000 0.000000 0.000000
# 2 -0.011317 0.021169 -0.001001 0.000000 0.000000 0.000000
# 3 -0.001001 -0.001001 0.014871 0.000000 0.000000 0.000000
# 4 0.000000 0.000000 0.000000 -0.070195 0.000000 0.000000
# 5 0.000000 0.000000 0.000000 0.000000 -0.070204 0.000000
# 6 0.000000 0.000000 0.000000 0.000000 0.000000 0.052192
#
#
# Mechanical properties :
#
#
# Convention : Reuss Voigt Hill
#
# Bulk Modulus (GPa) = 32.71067 33.52250 33.11659
# Shear Modulus (GPa) = 857.51198 8.26398 432.88798
#
# Velocity S-wave (km/s) = 21.68476 2.12877 15.40715
# Velocity P-wave (km/s) = 25.39506 4.94214 18.29391
#
# Compressibility (1/GPa) = 0.03057106
#
# Stress axis : x y z
#
# Youngs Moduli (GPa) = 47.23869 47.23879 67.24598
#
# Poissons Ratio (x) = 0.53459 0.06732
# Poissons Ratio (y) = 0.53459 0.06732
# Poissons Ratio (z) = 0.04729 0.04729
#
# Static dielectric constant tensor:
#      x y z
#    x 1.636110 0.000000 0.000000 
#    y 0.000000 1.636110 0.000000 
#    z 0.000000 0.000000 1.642200 
# 
# From -- ./inp_files/8998.got.cif
#   From: 2010.05.17/outbox.cif.g08.bks.cpg/sg136_5_cif.got.tgz:8998.got - 2010.05.20 12:54:53.
