data_PCOD9569835
_publ_section_title
;
Structure prediction by ZEFSAII (Michael W. Deem and Ramdas Pophale) SiO2 
 PCOD9569835
Probable space group: P 42/M N M
;
_chemical_formula_sum "Si O2"
_cell_formula_units_Z 56
_cell_length_a 17.034798
_cell_length_b 17.034798
_cell_length_c 8.240707
_cell_angle_alpha 90.000000
_cell_angle_beta 90.000000
_cell_angle_gamma 90.000000
_cell_volume 2391.324146
_symmetry_space_group_name_H-M "P 42/M N M"
_symmetry_group_IT_number 136
_symmetry_cell_setting 'tetragonal'
loop_
_space_group_symop_operation_xyz
x,y,z
1/2-y,1/2+x,1/2+z
-x,-y,z
1/2+y,1/2-x,1/2+z
1/2+x,1/2-y,1/2-z
1/2-x,1/2+y,1/2-z
y,x,-z
-y,-x,-z
-x,-y,-z
1/2+y,1/2-x,1/2-z
x,y,-z
1/2-y,1/2+x,1/2-z
1/2-x,1/2+y,1/2+z
1/2+x,1/2-y,1/2+z
-y,-x,z
y,x,z
loop_
_atom_site_type_symbol
_atom_site_label
_atom_site_fract_x
_atom_site_fract_y
_atom_site_fract_z
Si Si1 0.960175 0.608056 0.820810
Si Si2 0.003798 0.132272 0.500000
Si Si3 0.175361 0.299567 0.308307
Si Si4 0.195433 0.936869 0.180904
O O1 0.906939 0.530018 0.804029
O O2 0.903825 0.679693 0.783220
O O3 0.994665 0.612608 0.000000
O O4 0.085294 0.085294 0.500000
O O5 0.991454 0.182547 0.663371
O O6 0.934477 0.065524 0.500000
O O7 0.159779 0.290484 0.500000
O O8 0.224381 0.224381 0.250565
O O9 0.233925 0.374736 0.293518
O O10 0.118057 0.881944 0.174401
O O11 0.203964 0.972389 0.000000
#
# Coordination Sequence:
#
# PCOD9569835 Si02
#       4
#    16   8  16  16
#     4  11  22  37  59  87 122 159 197 243 300 361
#     4   9  16  24  38  62  94 131 176 230 279 336
#     4   9  18  34  57  85 116 150 191 241 296 355
#     4   8  15  27  43  66  98 134 175 226 279 331
#
# _framework density 23.417985000000002
#
# number of rings (size 3 to 8) (size 9 to 14) (size 15 to 20)
#    0.000    2.714    0.000    5.143    2.000    1.143 
#    0.000    2.857    0.000    1.714    0.000    4.000 
#    0.000    0.000    0.000    0.000    0.000    0.000 
#
# Total GULP energy -313102.811515 kJ/mol
# GULP energy per Si atom -5591.121634 kJ/mol
# Density = 2.336468 g / cm^3
# Si number density = 23.417985 Si / 1000 Ang^3
#
#
#
# Elastic Constant Matrix: (Units=GPa)
#
#
# Indices 1 2 3 4 5 6 
#
# 1 48.9315 55.4285 32.3164 0.0000 0.0000 0.0000
# 2 55.4285 48.9314 32.3161 0.0000 0.0000 0.0000
# 3 32.3164 32.3161 121.8255 0.0000 0.0000 0.0000
# 4 0.0000 0.0000 0.0000 24.1154 0.0000 0.0000
# 5 0.0000 0.0000 0.0000 0.0000 24.1155 0.0000
# 6 0.0000 0.0000 0.0000 0.0000 0.0000 31.1206
#
#
#
# Elastic Compliance Matrix: (Units=1/GPa)
#
#
# Indices 1 2 3 4 5 6 
#
# 1 -0.071225 0.082691 -0.003041 0.000000 0.000000 0.000000
# 2 0.082691 -0.071225 -0.003042 0.000000 0.000000 0.000000
# 3 -0.003041 -0.003042 0.009822 0.000000 0.000000 0.000000
# 4 0.000000 0.000000 0.000000 0.041467 0.000000 0.000000
# 5 0.000000 0.000000 0.000000 0.000000 0.041467 0.000000
# 6 0.000000 0.000000 0.000000 0.000000 0.000000 0.032133
#
#
# Mechanical properties :
#
#
# Convention : Reuss Voigt Hill
#
# Bulk Modulus (GPa) = 48.57240 51.09001 49.83121
# Shear Modulus (GPa) = -30.50358 22.51214 -3.99572
#
# Velocity S-wave (km/s) = -3.61303 3.10388 -1.30766
# Velocity P-wave (km/s) = 1.83881 5.89146 4.36409
#
# Compressibility (1/GPa) = 0.02058782
#
# Stress axis : x y z
#
# Youngs Moduli (GPa) = -14.03994 -14.03994 101.81137
#
# Poissons Ratio (x) = 1.16098 0.30964
# Poissons Ratio (y) = 1.16098 0.30968
# Poissons Ratio (z) = -0.04270 -0.04271
#
# Static dielectric constant tensor:
#      x y z
#    x 1.885510 0.000000 0.000000 
#    y 0.000000 1.885510 0.000000 
#    z 0.000000 0.000000 1.836900 
# 
# From -- ./inp_files/1118.got.cif
#   From: 2010.05.17/outbox.cif.g08.bks.cpg/sg136_1_cif.got.tgz:1118.got - 2010.05.20 12:54:53.
