data_PCOD9569544
_publ_section_title
;
Structure prediction by ZEFSAII (Michael W. Deem and Ramdas Pophale) SiO2 
 PCOD9569544
Probable space group: P 42/M N M
;
_chemical_formula_sum "Si O2"
_cell_formula_units_Z 56
_cell_length_a 16.700996
_cell_length_b 16.700996
_cell_length_c 8.641363
_cell_angle_alpha 90.000000
_cell_angle_beta 90.000000
_cell_angle_gamma 90.000000
_cell_volume 2410.277203
_symmetry_space_group_name_H-M "P 42/M N M"
_symmetry_group_IT_number 136
_symmetry_cell_setting 'tetragonal'
loop_
_space_group_symop_operation_xyz
x,y,z
1/2-y,1/2+x,1/2+z
-x,-y,z
1/2+y,1/2-x,1/2+z
1/2+x,1/2-y,1/2-z
1/2-x,1/2+y,1/2-z
y,x,-z
-y,-x,-z
-x,-y,-z
1/2+y,1/2-x,1/2-z
x,y,-z
1/2-y,1/2+x,1/2-z
1/2-x,1/2+y,1/2+z
1/2+x,1/2-y,1/2+z
-y,-x,z
y,x,z
loop_
_atom_site_type_symbol
_atom_site_label
_atom_site_fract_x
_atom_site_fract_y
_atom_site_fract_z
Si Si1 0.173924 0.695318 0.318042
Si Si2 0.950130 0.605641 0.323794
Si Si3 0.187127 0.950031 0.175236
Si Si4 0.069363 0.069363 0.320850
O O1 0.176459 0.678288 0.500000
O O2 0.248013 0.751988 0.275905
O O3 0.171757 0.613950 0.222143
O O4 0.093884 0.747317 0.280938
O O5 0.978045 0.612488 0.500000
O O6 0.903211 0.521960 0.297075
O O7 0.114626 0.885375 0.169323
O O8 0.146400 0.030388 0.239199
O O9 0.217258 0.960497 0.000000
O O10 0.085934 0.085934 0.500000
O O11 0.000000 0.000000 0.316359
#
# Coordination Sequence:
#
# PCOD9569544 Si02
#       4
#    16  16  16   8
#     4  10  20  35  57  86 120 156 195 241 297 358
#     4  11  22  39  64  92 122 156 200 249 300 355
#     4   9  16  26  42  67  99 138 184 230 278 334
#     4   9  15  23  37  59  91 133 181 231 279 331
#
# _framework density 23.233844000000001
#
# number of rings (size 3 to 8) (size 9 to 14) (size 15 to 20)
#    0.000    2.143    0.000    5.571    0.000    6.857 
#    0.000    0.000    3.143    0.000    0.000    0.000 
#    0.000    0.000    0.000    0.000    0.000    0.000 
#
# Total GULP energy -313143.561812 kJ/mol
# GULP energy per Si atom -5591.849318 kJ/mol
# Density = 2.318096 g / cm^3
# Si number density = 23.233844 Si / 1000 Ang^3
#
#
#
# Elastic Constant Matrix: (Units=GPa)
#
#
# Indices 1 2 3 4 5 6 
#
# 1 39.8655 27.1461 -1.8594 0.0000 0.0000 0.0000
# 2 27.1461 39.8655 -1.8594 0.0000 0.0000 0.0000
# 3 -1.8594 -1.8594 72.5605 0.0000 0.0000 0.0000
# 4 0.0000 0.0000 0.0000 23.2813 0.0000 0.0000
# 5 0.0000 0.0000 0.0000 0.0000 23.2813 0.0000
# 6 0.0000 0.0000 0.0000 0.0000 0.0000 3.3551
#
#
#
# Elastic Compliance Matrix: (Units=1/GPa)
#
#
# Indices 1 2 3 4 5 6 
#
# 1 0.046782 -0.031838 0.000383 0.000000 0.000000 0.000000
# 2 -0.031838 0.046782 0.000383 0.000000 0.000000 0.000000
# 3 0.000383 0.000383 0.013801 0.000000 0.000000 0.000000
# 4 0.000000 0.000000 0.000000 0.042953 0.000000 0.000000
# 5 0.000000 0.000000 0.000000 0.000000 0.042953 0.000000
# 6 0.000000 0.000000 0.000000 0.000000 0.000000 0.298058
#
#
# Mechanical properties :
#
#
# Convention : Reuss Voigt Hill
#
# Bulk Modulus (GPa) = 22.11357 22.12735 22.12046
# Shear Modulus (GPa) = 8.79435 18.57448 13.68442
#
# Velocity S-wave (km/s) = 1.94766 2.83054 2.42954
# Velocity P-wave (km/s) = 3.82051 4.49744 4.17273
#
# Compressibility (1/GPa) = 0.04522110
#
# Stress axis : x y z
#
# Youngs Moduli (GPa) = 21.37580 21.37580 72.45730
#
# Poissons Ratio (x) = 0.68056 -0.02775
# Poissons Ratio (y) = 0.68056 -0.02775
# Poissons Ratio (z) = -0.00819 -0.00819
#
# Static dielectric constant tensor:
#      x y z
#    x 1.909940 0.000000 0.000000 
#    y 0.000000 1.909940 0.000000 
#    z 0.000000 0.000000 1.796090 
# 
# From -- ./inp_files/1116.got.cif
#   From: 2010.05.17/outbox.cif.g08.bks.cpg/sg136_1_cif.got.tgz:1116.got - 2010.05.20 12:54:53.
