data_PCOD9569581
_publ_section_title
;
Structure prediction by ZEFSAII (Michael W. Deem and Ramdas Pophale) SiO2 
 PCOD9569581
Probable space group: P 42/M N M
;
_chemical_formula_sum "Si O2"
_cell_formula_units_Z 72
_cell_length_a 13.744223
_cell_length_b 13.744223
_cell_length_c 18.948223
_cell_angle_alpha 90.000000
_cell_angle_beta 90.000000
_cell_angle_gamma 90.000000
_cell_volume 3579.388786
_symmetry_space_group_name_H-M "P 42/M N M"
_symmetry_group_IT_number 136
_symmetry_cell_setting 'tetragonal'
loop_
_space_group_symop_operation_xyz
x,y,z
1/2-y,1/2+x,1/2+z
-x,-y,z
1/2+y,1/2-x,1/2+z
1/2+x,1/2-y,1/2-z
1/2-x,1/2+y,1/2-z
y,x,-z
-y,-x,-z
-x,-y,-z
1/2+y,1/2-x,1/2-z
x,y,-z
1/2-y,1/2+x,1/2-z
1/2-x,1/2+y,1/2+z
1/2+x,1/2-y,1/2+z
-y,-x,z
y,x,z
loop_
_atom_site_type_symbol
_atom_site_label
_atom_site_fract_x
_atom_site_fract_y
_atom_site_fract_z
Si Si1 0.923037 0.076964 0.415022
Si Si2 0.255436 0.419453 0.301098
Si Si3 0.703679 0.031553 0.583029
Si Si4 0.763854 0.395710 0.204179
Si Si5 0.882196 0.488254 0.582721
O O1 0.929097 0.070904 0.500000
O O2 0.943152 0.186994 0.396795
O O3 0.000000 0.000000 0.385253
O O4 0.351940 0.351940 0.311893
O O5 0.267393 0.515146 0.253452
O O6 0.175359 0.347446 0.265338
O O7 0.200470 0.460505 0.370919
O O8 0.699569 0.005280 0.500000
O O9 0.628926 0.119764 0.592691
O O10 0.687892 0.940278 0.633780
O O11 0.672693 0.327308 0.186524
O O12 0.869872 0.511735 0.500000
O O13 0.000000 0.500000 0.597944
#
# Coordination Sequence:
#
# PCOD9569581 Si02
#       5
#     8  16  16  16  16
#     4   9  18  32  52  86 129 163 194 246 315 384
#     4  11  25  42  62  91 124 168 220 263 318 387
#     4  10  20  36  62  93 127 164 203 254 324 389
#     4  11  24  40  62  90 125 169 213 263 321 381
#     4  10  20  39  66  94 124 159 202 261 325 381
#
# _framework density 20.115168000000001
#
# number of rings (size 3 to 8) (size 9 to 14) (size 15 to 20)
#    0.000    1.667    2.222    2.000    1.556    2.222 
#    2.000    2.222    0.000    0.000    0.000    1.556 
#    0.000    0.000    0.000    0.000    0.000    0.000 
#
# Total GULP energy -400977.322561 kJ/mol
# GULP energy per Si atom -5569.129480 kJ/mol
# Density = 2.006938 g / cm^3
# Si number density = 20.115168 Si / 1000 Ang^3
#
#
#
# Elastic Constant Matrix: (Units=GPa)
#
#
# Indices 1 2 3 4 5 6 
#
# 1 249.9881 -103.3288 30.3076 0.0000 0.0000 0.0000
# 2 -103.3288 250.0068 30.3268 0.0000 0.0000 0.0000
# 3 30.3076 30.3268 87.7613 0.0000 0.0000 0.0000
# 4 0.0000 0.0000 0.0000 20.7453 0.0000 0.0000
# 5 0.0000 0.0000 0.0000 0.0000 20.7453 0.0000
# 6 0.0000 0.0000 0.0000 0.0000 0.0000 34.8149
#
#
#
# Elastic Compliance Matrix: (Units=1/GPa)
#
#
# Indices 1 2 3 4 5 6 
#
# 1 0.005392 0.002562 -0.002747 0.000000 0.000000 0.000000
# 2 0.002562 0.005392 -0.002748 0.000000 0.000000 0.000000
# 3 -0.002747 -0.002748 0.013293 0.000000 0.000000 0.000000
# 4 0.000000 0.000000 0.000000 0.048204 0.000000 0.000000
# 5 0.000000 0.000000 0.000000 0.000000 0.048204 0.000000
# 6 0.000000 0.000000 0.000000 0.000000 0.000000 0.028723
#
#
# Mechanical properties :
#
#
# Convention : Reuss Voigt Hill
#
# Bulk Modulus (GPa) = 54.91454 55.81859 55.36657
# Shear Modulus (GPa) = 31.02791 57.29113 44.15952
#
# Velocity S-wave (km/s) = 3.93174 5.34260 4.69052
# Velocity P-wave (km/s) = 6.92610 8.11589 7.54448
#
# Compressibility (1/GPa) = 0.01821011
#
# Stress axis : x y z
#
# Youngs Moduli (GPa) = 185.45309 185.45729 75.22784
#
# Poissons Ratio (x) = -0.47512 0.20668
# Poissons Ratio (y) = -0.47511 0.20673
# Poissons Ratio (z) = 0.50952 0.50964
#
# Static dielectric constant tensor:
#      x y z
#    x 1.855120 0.000000 0.000000 
#    y 0.000000 1.855120 0.000000 
#    z 0.000000 0.000000 1.730660 
# 
# From -- ./inp_files/6095.got.cif
#   From: 2010.05.17/outbox.cif.g08.bks.cpg/sg136_4_cif.got.tgz:6095.got - 2010.05.20 12:54:53.
