data_PCOD9569531
_publ_section_title
;
Structure prediction by ZEFSAII (Michael W. Deem and Ramdas Pophale) SiO2 
 PCOD9569531
Probable space group: P 42/M N M
;
_chemical_formula_sum "Si O2"
_cell_formula_units_Z 120
_cell_length_a 17.560811
_cell_length_b 17.560811
_cell_length_c 21.287807
_cell_angle_alpha 90.000000
_cell_angle_beta 90.000000
_cell_angle_gamma 90.000000
_cell_volume 6564.778265
_symmetry_space_group_name_H-M "P 42/M N M"
_symmetry_group_IT_number 136
_symmetry_cell_setting 'tetragonal'
loop_
_space_group_symop_operation_xyz
x,y,z
1/2-y,1/2+x,1/2+z
-x,-y,z
1/2+y,1/2-x,1/2+z
1/2+x,1/2-y,1/2-z
1/2-x,1/2+y,1/2-z
y,x,-z
-y,-x,-z
-x,-y,-z
1/2+y,1/2-x,1/2-z
x,y,-z
1/2-y,1/2+x,1/2-z
1/2-x,1/2+y,1/2+z
1/2+x,1/2-y,1/2+z
-y,-x,z
y,x,z
loop_
_atom_site_type_symbol
_atom_site_label
_atom_site_fract_x
_atom_site_fract_y
_atom_site_fract_z
Si Si1 0.392934 0.732307 0.169427
Si Si2 0.003388 0.872854 0.000000
Si Si3 0.986908 0.262283 0.773490
Si Si4 0.168154 0.537843 0.927153
Si Si5 0.711407 0.168848 0.739204
Si Si6 0.789635 0.917449 0.106466
Si Si7 0.369455 0.872325 0.610030
Si Si8 0.474981 0.081166 0.659329
O O1 0.346936 0.653064 0.170783
O O2 0.469229 0.738941 0.210877
O O3 0.417802 0.759019 0.100441
O O4 0.338367 0.792595 0.206030
O O5 0.981434 0.820948 0.940765
O O6 0.940817 0.940817 0.000000
O O7 0.085042 0.914959 0.000000
O O8 0.899438 0.238631 0.767515
O O9 0.976217 0.352641 0.788659
O O10 0.038423 0.230804 0.829685
O O11 0.172378 0.445551 0.919208
O O12 0.101284 0.567655 0.880551
O O13 0.153302 0.554557 0.000000
O O14 0.765142 0.234858 0.712769
O O15 0.661177 0.137585 0.681504
O O16 0.855690 0.855690 0.116508
O O17 0.713569 0.873021 0.083365
O O18 0.458020 0.895534 0.611605
O O19 0.500000 0.000000 0.684784
#
# Coordination Sequence:
#
# PCOD9569531 Si02
#       8
#    16   8  16  16  16  16  16  16
#     4  11  22  38  60  86 118 157 201 253 303 366
#     4   9  20  38  58  82 117 160 203 245 294 359
#     4  11  20  36  56  86 112 150 199 246 303 359
#     4  11  23  38  56  85 123 163 201 241 297 371
#     4  11  21  35  57  85 117 146 188 249 312 361
#     4  10  20  36  59  86 117 157 202 252 303 362
#     4  10  20  35  55  85 115 151 192 245 299 350
#     4   9  19  33  51  81 117 151 183 231 284 355
#
# _framework density 18.279368000000002
#
# number of rings (size 3 to 8) (size 9 to 14) (size 15 to 20)
#    0.000    1.667    5.333    0.800    0.933    3.200 
#    6.000    0.000    0.000    1.200    0.000    0.000 
#    0.000    1.067    0.000    0.000    0.000    0.000 
#
# Total GULP energy -668472.097085 kJ/mol
# GULP energy per Si atom -5570.600809 kJ/mol
# Density = 1.823776 g / cm^3
# Si number density = 18.279368 Si / 1000 Ang^3
#
#
#
# Elastic Constant Matrix: (Units=GPa)
#
#
# Indices 1 2 3 4 5 6 
#
# 1 73.0547 26.3935 24.0641 0.0000 0.0000 0.0000
# 2 26.3935 73.0547 24.0641 0.0000 0.0000 0.0000
# 3 24.0641 24.0641 72.7462 0.0000 0.0000 0.0000
# 4 0.0000 0.0000 0.0000 11.5705 0.0000 0.0000
# 5 0.0000 0.0000 0.0000 0.0000 11.5701 0.0000
# 6 0.0000 0.0000 0.0000 0.0000 0.0000 28.7796
#
#
#
# Elastic Compliance Matrix: (Units=1/GPa)
#
#
# Indices 1 2 3 4 5 6 
#
# 1 0.016702 -0.004730 -0.003960 0.000000 0.000000 0.000000
# 2 -0.004730 0.016702 -0.003960 0.000000 0.000000 0.000000
# 3 -0.003960 -0.003960 0.016367 0.000000 0.000000 0.000000
# 4 0.000000 0.000000 0.000000 0.086427 0.000000 0.000000
# 5 0.000000 0.000000 0.000000 0.000000 0.086430 0.000000
# 6 0.000000 0.000000 0.000000 0.000000 0.000000 0.034747
#
#
# Mechanical properties :
#
#
# Convention : Reuss Voigt Hill
#
# Bulk Modulus (GPa) = 40.86727 40.87767 40.87247
# Shear Modulus (GPa) = 17.19216 20.00628 18.59922
#
# Velocity S-wave (km/s) = 3.07012 3.31187 3.19329
# Velocity P-wave (km/s) = 5.91381 6.08572 6.00038
#
# Compressibility (1/GPa) = 0.02446946
#
# Stress axis : x y z
#
# Youngs Moduli (GPa) = 59.87452 59.87451 61.10032
#
# Poissons Ratio (x) = 0.28318 0.24198
# Poissons Ratio (y) = 0.28318 0.24198
# Poissons Ratio (z) = 0.23712 0.23712
#
# Static dielectric constant tensor:
#      x y z
#    x 1.672990 0.000000 0.000000 
#    y 0.000000 1.672990 0.000000 
#    z 0.000000 0.000000 1.638380 
# 
# From -- ./inp_files/7816.got.cif
#   From: 2010.05.17/outbox.cif.g08.bks.cpg/sg136_4_cif.got.tgz:7816.got - 2010.05.20 12:54:53.
