data_PCOD9569198
_publ_section_title
;
Structure prediction by ZEFSAII (Michael W. Deem and Ramdas Pophale) SiO2 
 PCOD9569198
Probable space group: P 42/M N M
;
_chemical_formula_sum "Si O2"
_cell_formula_units_Z 96
_cell_length_a 14.308561
_cell_length_b 14.308561
_cell_length_c 28.814728
_cell_angle_alpha 90.000000
_cell_angle_beta 90.000000
_cell_angle_gamma 90.000000
_cell_volume 5899.380971
_symmetry_space_group_name_H-M "P 42/M N M"
_symmetry_group_IT_number 136
_symmetry_cell_setting 'tetragonal'
loop_
_space_group_symop_operation_xyz
x,y,z
1/2-y,1/2+x,1/2+z
-x,-y,z
1/2+y,1/2-x,1/2+z
1/2+x,1/2-y,1/2-z
1/2-x,1/2+y,1/2-z
y,x,-z
-y,-x,-z
-x,-y,-z
1/2+y,1/2-x,1/2-z
x,y,-z
1/2-y,1/2+x,1/2-z
1/2-x,1/2+y,1/2+z
1/2+x,1/2-y,1/2+z
-y,-x,z
y,x,z
loop_
_atom_site_type_symbol
_atom_site_label
_atom_site_fract_x
_atom_site_fract_y
_atom_site_fract_z
Si Si1 0.273082 0.124909 0.200070
Si Si2 0.058747 0.789841 0.151205
Si Si3 0.143153 0.290265 0.310339
Si Si4 0.109050 0.466661 0.851343
Si Si5 0.387538 0.005013 0.549901
Si Si6 0.725051 0.118357 0.053094
O O1 0.220037 0.220037 0.187713
O O2 0.280066 0.122580 0.255763
O O3 0.376260 0.118949 0.179735
O O4 0.216518 0.038968 0.177422
O O5 0.110245 0.889756 0.152256
O O6 0.128019 0.717442 0.177565
O O7 0.055853 0.756252 0.097138
O O8 0.194856 0.194856 0.326129
O O9 0.048806 0.323520 0.334321
O O10 0.136067 0.447222 0.904636
O O11 0.000000 0.500000 0.849736
O O12 0.349439 0.974715 0.500000
O O13 0.363444 0.114424 0.557520
O O14 0.500000 0.000000 0.547114
O O15 0.787988 0.212013 0.057125
O O16 0.739496 0.081815 0.000000
#
# Coordination Sequence:
#
# PCOD9569198 Si02
#       6
#    16  16  16  16  16  16
#     4  11  23  35  48  73 104 136 174 214 248 293
#     4  10  18  33  53  74 103 137 165 203 258 307
#     4  10  20  33  51  76 102 126 166 217 255 293
#     4  11  19  31  54  76  96 133 167 208 252 298
#     4   9  16  26  42  69 100 125 156 197 246 292
#     4   9  16  27  47  76 104 127 158 204 253 300
#
# _framework density 16.272893
#
# number of rings (size 3 to 8) (size 9 to 14) (size 15 to 20)
#    0.000    2.000    3.333    2.000    0.000    0.333 
#    0.000    0.000    0.000    3.500    0.000    2.333 
#    0.000    0.000    0.000    5.667    0.000    0.000 
#
# Total GULP energy -534614.909950 kJ/mol
# GULP energy per Si atom -5568.905312 kJ/mol
# Density = 1.623585 g / cm^3
# Si number density = 16.272893 Si / 1000 Ang^3
#
#
#
# Elastic Constant Matrix: (Units=GPa)
#
#
# Indices 1 2 3 4 5 6 
#
# 1 47.7211 19.1607 20.6965 0.0000 0.0000 0.0000
# 2 19.1607 47.7211 20.6965 0.0000 0.0000 0.0000
# 3 20.6965 20.6965 95.7324 0.0000 0.0000 0.0000
# 4 0.0000 0.0000 0.0000 16.4267 0.0000 0.0000
# 5 0.0000 0.0000 0.0000 0.0000 16.4267 0.0000
# 6 0.0000 0.0000 0.0000 0.0000 0.0000 22.4749
#
#
#
# Elastic Compliance Matrix: (Units=1/GPa)
#
#
# Indices 1 2 3 4 5 6 
#
# 1 0.026137 -0.008876 -0.003732 0.000000 0.000000 0.000000
# 2 -0.008876 0.026137 -0.003732 0.000000 0.000000 0.000000
# 3 -0.003732 -0.003732 0.012059 0.000000 0.000000 0.000000
# 4 0.000000 0.000000 0.000000 0.060877 0.000000 0.000000
# 5 0.000000 0.000000 0.000000 0.000000 0.060877 0.000000
# 6 0.000000 0.000000 0.000000 0.000000 0.000000 0.044494
#
#
# Mechanical properties :
#
#
# Convention : Reuss Voigt Hill
#
# Bulk Modulus (GPa) = 31.59060 34.69801 33.14431
# Shear Modulus (GPa) = 18.26070 19.77372 19.01721
#
# Velocity S-wave (km/s) = 3.35349 3.48966 3.42225
# Velocity P-wave (km/s) = 5.86939 6.13236 6.00231
#
# Compressibility (1/GPa) = 0.03165499
#
# Stress axis : x y z
#
# Youngs Moduli (GPa) = 38.25934 38.25934 82.92337
#
# Poissons Ratio (x) = 0.33959 0.30945
# Poissons Ratio (y) = 0.33959 0.30945
# Poissons Ratio (z) = 0.14277 0.14277
#
# Static dielectric constant tensor:
#      x y z
#    x 1.444470 0.000000 0.000000 
#    y 0.000000 1.444470 0.000000 
#    z 0.000000 0.000000 1.589690 
# 
# From -- ./inp_files/9889.got.cif
#   From: 2010.05.17/outbox.cif.g08.bks.cpg/sg136_5_cif.got.tgz:9889.got - 2010.05.20 12:54:53.
