data_PCOD9569298
_publ_section_title
;
Structure prediction by ZEFSAII (Michael W. Deem and Ramdas Pophale) SiO2 
 PCOD9569298
Probable space group: P 42/M N M
;
_chemical_formula_sum "Si O2"
_cell_formula_units_Z 64
_cell_length_a 12.950772
_cell_length_b 12.950772
_cell_length_c 22.854896
_cell_angle_alpha 90.000000
_cell_angle_beta 90.000000
_cell_angle_gamma 90.000000
_cell_volume 3833.280189
_symmetry_space_group_name_H-M "P 42/M N M"
_symmetry_group_IT_number 136
_symmetry_cell_setting 'tetragonal'
loop_
_space_group_symop_operation_xyz
x,y,z
1/2-y,1/2+x,1/2+z
-x,-y,z
1/2+y,1/2-x,1/2+z
1/2+x,1/2-y,1/2-z
1/2-x,1/2+y,1/2-z
y,x,-z
-y,-x,-z
-x,-y,-z
1/2+y,1/2-x,1/2-z
x,y,-z
1/2-y,1/2+x,1/2-z
1/2-x,1/2+y,1/2+z
1/2+x,1/2-y,1/2+z
-y,-x,z
y,x,z
loop_
_atom_site_type_symbol
_atom_site_label
_atom_site_fract_x
_atom_site_fract_y
_atom_site_fract_z
Si Si1 0.103691 0.276306 0.247784
Si Si2 0.535033 0.881142 0.663244
Si Si3 0.493786 0.330697 0.850556
Si Si4 0.803613 0.371876 0.068733
O O1 0.201782 0.201782 0.244007
O O2 0.127035 0.377856 0.286119
O O3 0.058726 0.311699 0.185925
O O4 0.017649 0.216917 0.287011
O O5 0.591125 0.850161 0.603421
O O6 0.500000 0.000000 0.660185
O O7 0.576900 0.423101 0.857499
O O8 0.381841 0.381841 0.856118
O O9 0.529007 0.247513 0.898863
O O10 0.722979 0.277022 0.076935
O O11 0.816992 0.388686 0.000000
#
# Coordination Sequence:
#
# PCOD9569298 Si02
#       4
#    16  16  16  16
#     4  10  19  32  51  76 106 138 168 210 264 316
#     4  11  19  35  52  76 104 135 176 210 256 312
#     4   8  15  27  45  72 102 130 165 211 261 308
#     4   9  19  34  51  72 100 138 179 216 257 304
#
# _framework density 16.695884
#
# number of rings (size 3 to 8) (size 9 to 14) (size 15 to 20)
#    0.000    2.500    2.500    2.250    0.000    3.000 
#    0.000    2.500    0.000    0.750    0.000    1.750 
#    0.000    0.000    0.000    0.000    0.000    0.000 
#
# Total GULP energy -356646.937546 kJ/mol
# GULP energy per Si atom -5572.608399 kJ/mol
# Density = 1.665788 g / cm^3
# Si number density = 16.695884 Si / 1000 Ang^3
#
#
#
# Elastic Constant Matrix: (Units=GPa)
#
#
# Indices 1 2 3 4 5 6 
#
# 1 53.8710 25.6845 31.5903 0.0000 0.0000 0.0000
# 2 25.6845 53.8710 31.5903 0.0000 0.0000 0.0000
# 3 31.5903 31.5903 81.7446 0.0000 0.0000 0.0000
# 4 0.0000 0.0000 0.0000 19.2263 0.0000 0.0000
# 5 0.0000 0.0000 0.0000 0.0000 19.2263 0.0000
# 6 0.0000 0.0000 0.0000 0.0000 0.0000 32.5429
#
#
#
# Elastic Compliance Matrix: (Units=1/GPa)
#
#
# Indices 1 2 3 4 5 6 
#
# 1 0.026807 -0.008671 -0.007009 0.000000 0.000000 0.000000
# 2 -0.008671 0.026807 -0.007009 0.000000 0.000000 0.000000
# 3 -0.007009 -0.007009 0.017650 0.000000 0.000000 0.000000
# 4 0.000000 0.000000 0.000000 0.052012 0.000000 0.000000
# 5 0.000000 0.000000 0.000000 0.000000 0.052012 0.000000
# 6 0.000000 0.000000 0.000000 0.000000 0.000000 0.030729
#
#
# Mechanical properties :
#
#
# Convention : Reuss Voigt Hill
#
# Bulk Modulus (GPa) = 38.62878 40.80190 39.71534
# Shear Modulus (GPa) = 19.22909 20.90719 20.06814
#
# Velocity S-wave (km/s) = 3.39739 3.54253 3.47072
# Velocity P-wave (km/s) = 6.21101 6.42060 6.31667
#
# Compressibility (1/GPa) = 0.02588743
#
# Stress axis : x y z
#
# Youngs Moduli (GPa) = 37.30383 37.30383 56.65652
#
# Poissons Ratio (x) = 0.32346 0.39709
# Poissons Ratio (y) = 0.32346 0.39709
# Poissons Ratio (z) = 0.26145 0.26145
#
# Static dielectric constant tensor:
#      x y z
#    x 1.586230 0.000000 0.000000 
#    y 0.000000 1.586230 0.000000 
#    z 0.000000 0.000000 1.552890 
# 
# From -- ./inp_files/8109.got.cif
#   From: 2010.05.17/outbox.cif.g08.bks.cpg/sg136_5_cif.got.tgz:8109.got - 2010.05.20 12:54:53.
