data_PCOD9569286
_publ_section_title
;
Structure prediction by ZEFSAII (Michael W. Deem and Ramdas Pophale) SiO2 
 PCOD9569286
Probable space group: P 42/M N M
;
_chemical_formula_sum "Si O2"
_cell_formula_units_Z 48
_cell_length_a 16.756397
_cell_length_b 16.756397
_cell_length_c 7.411067
_cell_angle_alpha 90.000000
_cell_angle_beta 90.000000
_cell_angle_gamma 90.000000
_cell_volume 2080.855976
_symmetry_space_group_name_H-M "P 42/M N M"
_symmetry_group_IT_number 136
_symmetry_cell_setting 'tetragonal'
loop_
_space_group_symop_operation_xyz
x,y,z
1/2-y,1/2+x,1/2+z
-x,-y,z
1/2+y,1/2-x,1/2+z
1/2+x,1/2-y,1/2-z
1/2-x,1/2+y,1/2-z
y,x,-z
-y,-x,-z
-x,-y,-z
1/2+y,1/2-x,1/2-z
x,y,-z
1/2-y,1/2+x,1/2-z
1/2-x,1/2+y,1/2+z
1/2+x,1/2-y,1/2+z
-y,-x,z
y,x,z
loop_
_atom_site_type_symbol
_atom_site_label
_atom_site_fract_x
_atom_site_fract_y
_atom_site_fract_z
Si Si1 0.871482 0.992982 0.282940
Si Si2 0.380988 0.250611 0.220924
Si Si3 0.419236 0.903247 0.297083
O O1 0.864496 0.985382 0.500000
O O2 0.939092 0.060908 0.250973
O O3 0.790133 0.034764 0.219385
O O4 0.910239 0.910239 0.215036
O O5 0.310874 0.310874 0.272628
O O6 0.365906 0.160715 0.282320
O O7 0.382920 0.248096 0.000000
O O8 0.432940 0.874257 0.500000
O O9 0.502268 0.898162 0.195708
#
# Coordination Sequence:
#
# PCOD9569286 Si02
#       3
#    16  16  16
#     4   7   9  15  30  53  81 111 140 170 208 257
#     4   8  14  25  42  64  88 115 147 182 223 270
#     4  10  19  32  50  68  89 119 155 191 224 264
#
# _framework density 23.067430000000002
#
# number of rings (size 3 to 8) (size 9 to 14) (size 15 to 20)
#    0.000    3.667    0.000    5.000    0.000    0.000 
#    0.000    1.667    0.000    6.000    0.000    0.000 
#    0.000    0.000    0.000   41.667    0.000   26.667 
#
# Total GULP energy -267402.339980 kJ/mol
# GULP energy per Si atom -5570.882083 kJ/mol
# Density = 2.301493 g / cm^3
# Si number density = 23.067430 Si / 1000 Ang^3
#
#
#
# Elastic Constant Matrix: (Units=GPa)
#
#
# Indices 1 2 3 4 5 6 
#
# 1 55.3124 -7.8880 -0.8789 0.0000 0.0000 0.0000
# 2 -7.8880 55.3124 -0.8789 0.0000 0.0000 0.0000
# 3 -0.8789 -0.8789 77.1406 0.0000 0.0000 0.0000
# 4 0.0000 0.0000 0.0000 3.1087 0.0000 0.0000
# 5 0.0000 0.0000 0.0000 0.0000 3.1087 0.0000
# 6 0.0000 0.0000 0.0000 0.0000 0.0000 7.1449
#
#
#
# Elastic Compliance Matrix: (Units=1/GPa)
#
#
# Indices 1 2 3 4 5 6 
#
# 1 0.018459 0.002636 0.000240 0.000000 0.000000 0.000000
# 2 0.002636 0.018459 0.000240 0.000000 0.000000 0.000000
# 3 0.000240 0.000240 0.012969 0.000000 0.000000 0.000000
# 4 0.000000 0.000000 0.000000 0.321677 0.000000 0.000000
# 5 0.000000 0.000000 0.000000 0.000000 0.321677 0.000000
# 6 0.000000 0.000000 0.000000 0.000000 0.000000 0.139960
#
#
# Mechanical properties :
#
#
# Convention : Reuss Voigt Hill
#
# Bulk Modulus (GPa) = 17.81882 18.71931 18.26906
# Shear Modulus (GPa) = 5.91244 15.83321 10.87282
#
# Velocity S-wave (km/s) = 1.60271 2.62274 2.17341
# Velocity P-wave (km/s) = 3.34161 4.15985 3.77298
#
# Compressibility (1/GPa) = 0.05612043
#
# Stress axis : x y z
#
# Youngs Moduli (GPa) = 54.17439 54.17439 77.10805
#
# Poissons Ratio (x) = -0.14282 -0.01853
# Poissons Ratio (y) = -0.14282 -0.01853
# Poissons Ratio (z) = -0.01302 -0.01302
#
# Static dielectric constant tensor:
#      x y z
#    x 1.896250 0.000000 0.000000 
#    y 0.000000 1.896250 0.000000 
#    z 0.000000 0.000000 1.849670 
# 
# From -- ./inp_files/824.got.cif
#   From: 2010.05.17/outbox.cif.g08.bks.cpg/sg136_1_cif.got.tgz:824.got - 2010.05.20 12:54:53.
