data_PCOD9569928
_publ_section_title
;
Structure prediction by ZEFSAII (Michael W. Deem and Ramdas Pophale) SiO2 
 PCOD9569928
Probable space group: P 42/M N M
;
_chemical_formula_sum "Si O2"
_cell_formula_units_Z 96
_cell_length_a 24.000000
_cell_length_b 24.000000
_cell_length_c 9.000000
_cell_angle_alpha 90.000000
_cell_angle_beta 90.000000
_cell_angle_gamma 90.000000
_cell_volume 5184.000000
_symmetry_space_group_name_H-M "P 42/M N M"
_symmetry_group_IT_number 136
_symmetry_cell_setting 'tetragonal'
loop_
_space_group_symop_operation_xyz
x,y,z
1/2-y,1/2+x,1/2+z
-x,-y,z
1/2+y,1/2-x,1/2+z
1/2+x,1/2-y,1/2-z
1/2-x,1/2+y,1/2-z
y,x,-z
-y,-x,-z
-x,-y,-z
1/2+y,1/2-x,1/2-z
x,y,-z
1/2-y,1/2+x,1/2-z
1/2-x,1/2+y,1/2+z
1/2+x,1/2-y,1/2+z
-y,-x,z
y,x,z
loop_
_atom_site_type_symbol
_atom_site_label
_atom_site_fract_x
_atom_site_fract_y
_atom_site_fract_z
Si Si1 0.500838 0.857195 0.336396
Si Si2 0.775544 0.133414 0.322566
Si Si3 0.791948 0.331112 0.674537
Si Si4 0.011458 0.774295 0.827382
Si Si5 0.623151 0.902719 0.665128
Si Si6 0.191319 0.102436 0.676648
O O1 0.481036 0.875411 0.500000
O O2 0.495869 0.790996 0.323196
O O3 0.466783 0.885319 0.205300
O O4 0.565455 0.871102 0.328897
O O5 0.767501 0.125141 0.500000
O O6 0.832332 0.167669 0.298737
O O7 0.725270 0.175659 0.274273
O O8 0.778005 0.072972 0.245786
O O9 0.779708 0.324982 0.500000
O O10 0.837090 0.378460 0.709375
O O11 0.737401 0.354669 0.756444
O O12 0.959093 0.803674 0.747305
O O13 0.014708 0.791440 0.000000
O O14 0.647660 0.895894 0.500000
O O15 0.200528 0.098242 0.500000
O O16 0.131912 0.131912 0.703216
#
# Coordination Sequence:
#
# PCOD9569928 Si02
#       6
#    16  16  16  16  16  16
#     4  10  22  38  54  79 112 149 196 243 289 339
#     4  10  22  39  60  88 121 157 195 235 285 345
#     4  11  21  35  58  87 120 154 190 236 287 340
#     4  11  22  38  61  87 117 153 191 235 288 346
#     4  11  22  36  56  79 110 151 197 243 288 339
#     4  11  24  40  60  88 120 154 193 236 286 345
#
# _framework density 18.518519000000001
#
# number of rings (size 3 to 8) (size 9 to 14) (size 15 to 20)
#    0.000    1.333    3.333    2.500    0.000    5.333 
#    0.000    1.667    0.000    0.500    0.000    3.500 
#    0.000    0.000    0.000    0.000    0.000    0.000 
#
# Total GULP energy -535449.282715 kJ/mol
# GULP energy per Si atom -5577.596695 kJ/mol
# Density = 1.847637 g / cm^3
# Si number density = 18.518519 Si / 1000 Ang^3
#
#
#
# Elastic Constant Matrix: (Units=GPa)
#
#
# Indices 1 2 3 4 5 6 
#
# 1 102.1276 14.2203 39.6200 0.0000 0.0000 0.0000
# 2 14.2203 102.1276 39.6200 0.0000 0.0000 0.0000
# 3 39.6200 39.6200 71.0836 0.0000 0.0000 0.0000
# 4 0.0000 0.0000 0.0000 24.4637 0.0000 0.0000
# 5 0.0000 0.0000 0.0000 0.0000 24.4637 0.0000
# 6 0.0000 0.0000 0.0000 0.0000 0.0000 23.6901
#
#
#
# Elastic Compliance Matrix: (Units=1/GPa)
#
#
# Indices 1 2 3 4 5 6 
#
# 1 0.012615 0.001239 -0.007722 0.000000 0.000000 0.000000
# 2 0.001239 0.012615 -0.007722 0.000000 0.000000 0.000000
# 3 -0.007722 -0.007722 0.022676 0.000000 0.000000 0.000000
# 4 0.000000 0.000000 0.000000 0.040877 0.000000 0.000000
# 5 0.000000 0.000000 0.000000 0.000000 0.040877 0.000000
# 6 0.000000 0.000000 0.000000 0.000000 0.000000 0.042212
#
#
# Mechanical properties :
#
#
# Convention : Reuss Voigt Hill
#
# Bulk Modulus (GPa) = 51.29139 51.36216 51.32678
# Shear Modulus (GPa) = 24.18045 26.64872 25.41459
#
# Velocity S-wave (km/s) = 3.61743 3.79757 3.70859
# Velocity P-wave (km/s) = 6.72348 6.85744 6.79079
#
# Compressibility (1/GPa) = 0.01949645
#
# Stress axis : x y z
#
# Youngs Moduli (GPa) = 79.27217 79.27217 44.09995
#
# Poissons Ratio (x) = -0.09823 0.34053
# Poissons Ratio (y) = -0.09823 0.34053
# Poissons Ratio (z) = 0.61212 0.61212
#
# Static dielectric constant tensor:
#      x y z
#    x 1.653650 0.000000 0.000000 
#    y 0.000000 1.653650 0.000000 
#    z 0.000000 0.000000 1.665490 
# 
# From -- ./inp_files/1934.got.cif
#   From: 2010.05.17/outbox.ucp.g08.bks.cvg/sg136_1_cif.got.tgz:1934.got - 2010.06.11 11:40:42.
