data_PCOD9569939
_publ_section_title
;
Structure prediction by ZEFSAII (Michael W. Deem and Ramdas Pophale) SiO2 
 PCOD9569939
Probable space group: P 42/N M C
;
_chemical_formula_sum "Si O2"
_cell_formula_units_Z 80
_cell_length_a 14.931785
_cell_length_b 14.931785
_cell_length_c 16.966254
_cell_angle_alpha 90.000000
_cell_angle_beta 90.000000
_cell_angle_gamma 90.000000
_cell_volume 3782.765508
_symmetry_space_group_name_H-M "P 42/N M C"
_symmetry_group_IT_number 137
_space_group.IT_coordinate_system_code '2'
_symmetry_cell_setting 'tetragonal'
loop_
_space_group_symop_operation_xyz
x,y,z
1/2-y,x,1/2+z
1/2-x,1/2-y,z
y,1/2-x,1/2+z
1/2+x,-y,-z
-x,1/2+y,-z
1/2+y,1/2+x,1/2-z
-y,-x,1/2-z
-x,-y,-z
1/2+y,-x,1/2-z
1/2+x,1/2+y,-z
-y,1/2+x,1/2-z
1/2-x,y,z
x,1/2-y,z
1/2-y,1/2-x,1/2+z
y,x,1/2+z
loop_
_atom_site_type_symbol
_atom_site_label
_atom_site_fract_x
_atom_site_fract_y
_atom_site_fract_z
Si Si1 0.150583 0.645740 0.541584
Si Si2 0.648529 0.466839 0.193937
Si Si3 0.143691 0.349399 0.059024
Si Si4 0.405496 0.145227 0.871537
Si Si5 0.029020 0.940841 0.424096
O O1 0.250000 0.602089 0.542187
O O2 0.163375 0.750000 0.551537
O O3 0.083626 0.622887 0.612456
O O4 0.096363 0.630564 0.461844
O O5 0.572884 0.427117 0.250000
O O6 0.750000 0.439000 0.217887
O O7 0.650334 0.573291 0.178560
O O8 0.250000 0.354203 0.069236
O O9 0.112614 0.250000 0.084083
O O10 0.099476 0.434240 0.102282
O O11 0.125090 0.356219 0.964113
O O12 0.405136 0.250000 0.847999
O O13 0.500591 0.093508 0.869671
O O14 0.000000 0.000000 0.500000
#
# Coordination Sequence:
#
# PCOD9569939 Si02
#       5
#    16  16  16  16  16
#     4  10  19  31  49  75 110 148 183 225 279 340
#     4  11  22  37  55  80 109 144 189 236 288 343
#     4   9  16  27  46  74 108 143 178 217 264 322
#     4  10  20  34  54  80 106 139 186 231 274 330
#     4  10  17  29  47  76 110 141 178 222 271 333
#
# _framework density 21.148547000000001
#
# number of rings (size 3 to 8) (size 9 to 14) (size 15 to 20)
#    0.000    2.000    4.000    2.400    0.000    3.000 
#    0.000    0.000    0.000    2.400    0.000    0.000 
#    0.000    0.000    0.000    0.000    0.000    0.000 
#
# Total GULP energy -445481.690070 kJ/mol
# GULP energy per Si atom -5568.521126 kJ/mol
# Density = 2.110041 g / cm^3
# Si number density = 21.148547 Si / 1000 Ang^3
#
#
#
# Elastic Constant Matrix: (Units=GPa)
#
#
# Indices 1 2 3 4 5 6 
#
# 1 150.2624 56.7263 18.6023 0.0000 0.0000 0.0000
# 2 56.7263 150.2608 18.6008 0.0000 0.0000 0.0000
# 3 18.6023 18.6008 11.3884 0.0000 0.0000 0.0000
# 4 0.0000 0.0000 0.0000 18.7247 0.0000 0.0000
# 5 0.0000 0.0000 0.0000 0.0000 18.7253 0.0000
# 6 0.0000 0.0000 0.0000 0.0000 0.0000 28.6840
#
#
#
# Elastic Compliance Matrix: (Units=1/GPa)
#
#
# Indices 1 2 3 4 5 6 
#
# 1 0.008765 -0.001926 -0.011171 0.000000 0.000000 0.000000
# 2 -0.001926 0.008765 -0.011170 0.000000 0.000000 0.000000
# 3 -0.011171 -0.011170 0.124300 0.000000 0.000000 0.000000
# 4 0.000000 0.000000 0.000000 0.053405 0.000000 0.000000
# 5 0.000000 0.000000 0.000000 0.000000 0.053404 0.000000
# 6 0.000000 0.000000 0.000000 0.000000 0.000000 0.034863
#
#
# Mechanical properties :
#
#
# Convention : Reuss Voigt Hill
#
# Bulk Modulus (GPa) = 10.71862 55.53002 33.12432
# Shear Modulus (GPa) = 13.76899 27.75894 20.76397
#
# Velocity S-wave (km/s) = 2.55436 3.62687 3.13679
# Velocity P-wave (km/s) = 3.71200 6.62216 5.36805
#
# Compressibility (1/GPa) = 0.09329557
#
# Stress axis : x y z
#
# Youngs Moduli (GPa) = 114.08800 114.09098 8.04506
#
# Poissons Ratio (x) = 0.21975 0.08987
# Poissons Ratio (y) = 0.21974 0.08986
# Poissons Ratio (z) = 1.27452 1.27436
#
# Static dielectric constant tensor:
#      x y z
#    x 1.866230 0.000000 0.000000 
#    y 0.000000 1.866230 0.000000 
#    z 0.000000 0.000000 1.789890 
# 
# From -- ./inp_files/7561.got.cif
#   From: 2010.05.17/outbox.cif.g08.bks.cpg/sg137_4_cif.got.tgz:7561.got - 2010.05.20 13:01:12.
