data_PCOD9569338
_publ_section_title
;
Structure prediction by ZEFSAII (Michael W. Deem and Ramdas Pophale) SiO2 
 PCOD9569338
Probable space group: P 42/M N M
;
_chemical_formula_sum "Si O2"
_cell_formula_units_Z 88
_cell_length_a 15.106243
_cell_length_b 15.106243
_cell_length_c 21.914558
_cell_angle_alpha 90.000000
_cell_angle_beta 90.000000
_cell_angle_gamma 90.000000
_cell_volume 5000.870964
_symmetry_space_group_name_H-M "P 42/M N M"
_symmetry_group_IT_number 136
_symmetry_cell_setting 'tetragonal'
loop_
_space_group_symop_operation_xyz
x,y,z
1/2-y,1/2+x,1/2+z
-x,-y,z
1/2+y,1/2-x,1/2+z
1/2+x,1/2-y,1/2-z
1/2-x,1/2+y,1/2-z
y,x,-z
-y,-x,-z
-x,-y,-z
1/2+y,1/2-x,1/2-z
x,y,-z
1/2-y,1/2+x,1/2-z
1/2-x,1/2+y,1/2+z
1/2+x,1/2-y,1/2+z
-y,-x,z
y,x,z
loop_
_atom_site_type_symbol
_atom_site_label
_atom_site_fract_x
_atom_site_fract_y
_atom_site_fract_z
Si Si1 0.850009 0.999856 0.500000
Si Si2 0.318077 0.170317 0.930296
Si Si3 0.042313 0.357978 0.738185
Si Si4 0.710456 0.438617 0.659002
Si Si5 0.571579 0.571579 0.812703
Si Si6 0.013500 0.746307 0.373739
Si Si7 0.428513 0.428513 0.333405
O O1 0.925221 0.925221 0.500000
O O2 0.789678 0.988673 0.560603
O O3 0.905191 0.094810 0.500000
O O4 0.260042 0.260042 0.927751
O O5 0.257631 0.094924 0.901770
O O6 0.403487 0.184680 0.889625
O O7 0.342189 0.153754 0.000000
O O8 0.942428 0.394093 0.751220
O O9 0.047511 0.312933 0.670835
O O10 0.061861 0.280918 0.786743
O O11 0.631644 0.368356 0.673806
O O12 0.666497 0.534108 0.649335
O O13 0.500000 0.500000 0.836587
O O14 0.668340 0.544780 0.835312
O O15 0.569343 0.569343 0.739973
O O16 0.500000 0.500000 0.357462
#
# Coordination Sequence:
#
# PCOD9569338 Si02
#       7
#     8  16  16  16   8  16   8
#     4  11  22  34  56  91 130 163 192 239 298 359
#     4  10  19  33  54  84 111 145 194 238 279 339
#     4  11  24  40  58  82 120 155 199 245 292 349
#     4  10  20  36  60  85 112 145 189 245 298 344
#     4  11  20  29  52  86 124 152 183 235 291 348
#     4  12  20  33  56  82 117 160 196 231 288 349
#     4   9  18  32  52  84 116 142 176 235 303 349
#
# _framework density 17.596934000000001
#
# number of rings (size 3 to 8) (size 9 to 14) (size 15 to 20)
#    0.000    1.364    6.364    0.545    0.000    0.727 
#    1.636    0.455    2.000    4.909    0.000    0.000 
#    0.000    0.000    0.000    0.000    0.000    0.000 
#
# Total GULP energy -490524.321058 kJ/mol
# GULP energy per Si atom -5574.140012 kJ/mol
# Density = 1.755688 g / cm^3
# Si number density = 17.596934 Si / 1000 Ang^3
#
#
#
# Elastic Constant Matrix: (Units=GPa)
#
#
# Indices 1 2 3 4 5 6 
#
# 1 49.4600 27.8399 15.9027 0.0000 0.0000 0.0000
# 2 27.8399 49.4598 15.9027 0.0000 0.0000 0.0000
# 3 15.9027 15.9027 59.5379 0.0000 0.0000 0.0000
# 4 0.0000 0.0000 0.0000 22.1073 0.0000 0.0000
# 5 0.0000 0.0000 0.0000 0.0000 22.1072 0.0000
# 6 0.0000 0.0000 0.0000 0.0000 0.0000 24.4907
#
#
#
# Elastic Compliance Matrix: (Units=1/GPa)
#
#
# Indices 1 2 3 4 5 6 
#
# 1 0.030394 -0.015860 -0.003882 0.000000 0.000000 0.000000
# 2 -0.015860 0.030394 -0.003882 0.000000 0.000000 0.000000
# 3 -0.003882 -0.003882 0.018870 0.000000 0.000000 0.000000
# 4 0.000000 0.000000 0.000000 0.045234 0.000000 0.000000
# 5 0.000000 0.000000 0.000000 0.000000 0.045234 0.000000
# 6 0.000000 0.000000 0.000000 0.000000 0.000000 0.040832
#
#
# Mechanical properties :
#
#
# Convention : Reuss Voigt Hill
#
# Bulk Modulus (GPa) = 30.85515 30.86093 30.85804
# Shear Modulus (GPa) = 18.58681 20.32853 19.45767
#
# Velocity S-wave (km/s) = 3.25353 3.40256 3.32888
# Velocity P-wave (km/s) = 5.62907 5.74563 5.68765
#
# Compressibility (1/GPa) = 0.03240950
#
# Stress axis : x y z
#
# Youngs Moduli (GPa) = 32.90167 32.90149 52.99467
#
# Poissons Ratio (x) = 0.52181 0.20573
# Poissons Ratio (y) = 0.52181 0.20573
# Poissons Ratio (z) = 0.12773 0.12773
#
# Static dielectric constant tensor:
#      x y z
#    x 1.607930 0.000000 0.000000 
#    y 0.000000 1.607930 0.000000 
#    z 0.000000 0.000000 1.600160 
# 
# From -- ./inp_files/7413.got.cif
#   From: 2010.05.17/outbox.cif.g08.bks.cpg/sg136_4_cif.got.tgz:7413.got - 2010.05.20 12:54:53.
