data_PCOD9569902
_publ_section_title
;
Structure prediction by ZEFSAII (Michael W. Deem and Ramdas Pophale) SiO2 
 PCOD9569902
Probable space group: P 42/M N M
;
_chemical_formula_sum "Si O2"
_cell_formula_units_Z 104
_cell_length_a 21.000000
_cell_length_b 21.000000
_cell_length_c 15.000000
_cell_angle_alpha 90.000000
_cell_angle_beta 90.000000
_cell_angle_gamma 90.000000
_cell_volume 6615.000000
_symmetry_space_group_name_H-M "P 42/M N M"
_symmetry_group_IT_number 136
_symmetry_cell_setting 'tetragonal'
loop_
_space_group_symop_operation_xyz
x,y,z
1/2-y,1/2+x,1/2+z
-x,-y,z
1/2+y,1/2-x,1/2+z
1/2+x,1/2-y,1/2-z
1/2-x,1/2+y,1/2-z
y,x,-z
-y,-x,-z
-x,-y,-z
1/2+y,1/2-x,1/2-z
x,y,-z
1/2-y,1/2+x,1/2-z
1/2-x,1/2+y,1/2+z
1/2+x,1/2-y,1/2+z
-y,-x,z
y,x,z
loop_
_atom_site_type_symbol
_atom_site_label
_atom_site_fract_x
_atom_site_fract_y
_atom_site_fract_z
Si Si1 0.271978 0.621799 0.402489
Si Si2 0.682267 0.576813 0.895701
Si Si3 0.159156 0.267445 0.715210
Si Si4 0.550153 0.550153 0.608671
Si Si5 0.132005 0.759643 0.775793
Si Si6 0.822368 0.927533 0.606889
Si Si7 0.025261 0.807126 0.897297
O O1 0.243796 0.635315 0.500000
O O2 0.336598 0.663403 0.396421
O O3 0.230533 0.640062 0.318487
O O4 0.288503 0.548000 0.395982
O O5 0.616785 0.616785 0.887111
O O6 0.730978 0.609980 0.826769
O O7 0.671872 0.502459 0.872706
O O8 0.701826 0.580811 0.000000
O O9 0.213941 0.213941 0.706227
O O10 0.194769 0.332939 0.697311
O O11 0.102323 0.239136 0.656106
O O12 0.500000 0.500000 0.643618
O O13 0.548121 0.548121 0.500000
O O14 0.532336 0.620757 0.635606
O O15 0.182030 0.817971 0.793308
O O16 0.070071 0.766316 0.835594
O O17 0.815174 0.921351 0.500000
O O18 0.884155 0.884155 0.632240
O O19 0.047462 0.804551 0.000000
#
# Coordination Sequence:
#
# PCOD9569902 Si02
#       7
#    16  16  16   8  16  16  16
#     4   9  17  29  45  64  86 115 150 185 224 264
#     4   9  18  31  47  66  90 120 152 190 230 266
#     4   9  18  30  44  61  84 119 156 194 225 260
#     4   9  16  26  40  60  89 125 155 175 207 255
#     4  10  19  30  43  61  89 121 156 189 225 267
#     4   9  17  30  47  66  89 119 155 190 225 267
#     4  10  18  28  43  64  92 121 148 184 220 263
#
# _framework density 15.721844000000001
#
# number of rings (size 3 to 8) (size 9 to 14) (size 15 to 20)
#    0.000    2.692    0.769    1.385    0.000    3.385 
#    0.000    6.923    0.000    0.000    0.000    0.000 
#    0.000    9.846    0.000   27.077    0.000    1.231 
#
# Total GULP energy -578978.514573 kJ/mol
# GULP energy per Si atom -5567.101102 kJ/mol
# Density = 1.568606 g / cm^3
# Si number density = 15.721844 Si / 1000 Ang^3
#
#
#
# Elastic Constant Matrix: (Units=GPa)
#
#
# Indices 1 2 3 4 5 6 
#
# 1 20.0879 7.5141 6.3156 0.0000 0.0000 0.0000
# 2 7.5141 20.0879 6.3156 0.0000 0.0000 0.0000
# 3 6.3156 6.3156 28.4254 0.0000 0.0000 0.0000
# 4 0.0000 0.0000 0.0000 10.7842 0.0000 0.0000
# 5 0.0000 0.0000 0.0000 0.0000 10.7842 0.0000
# 6 0.0000 0.0000 0.0000 0.0000 0.0000 17.1863
#
#
#
# Elastic Compliance Matrix: (Units=1/GPa)
#
#
# Indices 1 2 3 4 5 6 
#
# 1 0.059930 -0.019600 -0.008961 0.000000 0.000000 0.000000
# 2 -0.019600 0.059930 -0.008961 0.000000 0.000000 0.000000
# 3 -0.008961 -0.008961 0.039162 0.000000 0.000000 0.000000
# 4 0.000000 0.000000 0.000000 0.092728 0.000000 0.000000
# 5 0.000000 0.000000 0.000000 0.000000 0.092728 0.000000
# 6 0.000000 0.000000 0.000000 0.000000 0.000000 0.058186
#
#
# Mechanical properties :
#
#
# Convention : Reuss Voigt Hill
#
# Bulk Modulus (GPa) = 11.90775 12.09910 12.00343
# Shear Modulus (GPa) = 9.88728 10.98132 10.43430
#
# Velocity S-wave (km/s) = 2.51048 2.64574 2.57900
# Velocity P-wave (km/s) = 3.99923 4.12864 4.06445
#
# Compressibility (1/GPa) = 0.08397891
#
# Stress axis : x y z
#
# Youngs Moduli (GPa) = 16.68610 16.68610 25.53528
#
# Poissons Ratio (x) = 0.32705 0.22881
# Poissons Ratio (y) = 0.32705 0.22881
# Poissons Ratio (z) = 0.14952 0.14952
#
# Static dielectric constant tensor:
#      x y z
#    x 1.522580 0.000000 0.000000 
#    y 0.000000 1.522580 0.000000 
#    z 0.000000 0.000000 1.567440 
# 
# From -- ./inp_files/5269.got.cif
#   From: 2010.05.17/outbox.ucp.g08.bks.cvg/sg136_3_cif.got.tgz:5269.got - 2010.06.11 11:40:42.
