data_PCOD9569240
_publ_section_title
;
Structure prediction by ZEFSAII (Michael W. Deem and Ramdas Pophale) SiO2 
 PCOD9569240
Probable space group: P 42/M N M
;
_chemical_formula_sum "Si O2"
_cell_formula_units_Z 80
_cell_length_a 10.987609
_cell_length_b 10.987609
_cell_length_c 33.161743
_cell_angle_alpha 90.000000
_cell_angle_beta 90.000000
_cell_angle_gamma 90.000000
_cell_volume 4003.536037
_symmetry_space_group_name_H-M "P 42/M N M"
_symmetry_group_IT_number 136
_symmetry_cell_setting 'tetragonal'
loop_
_space_group_symop_operation_xyz
x,y,z
1/2-y,1/2+x,1/2+z
-x,-y,z
1/2+y,1/2-x,1/2+z
1/2+x,1/2-y,1/2-z
1/2-x,1/2+y,1/2-z
y,x,-z
-y,-x,-z
-x,-y,-z
1/2+y,1/2-x,1/2-z
x,y,-z
1/2-y,1/2+x,1/2-z
1/2-x,1/2+y,1/2+z
1/2+x,1/2-y,1/2+z
-y,-x,z
y,x,z
loop_
_atom_site_type_symbol
_atom_site_label
_atom_site_fract_x
_atom_site_fract_y
_atom_site_fract_z
Si Si1 0.375295 0.835360 0.385864
Si Si2 0.007597 0.798183 0.046586
Si Si3 0.508458 0.690171 0.324533
Si Si4 0.700450 0.491346 0.151030
Si Si5 0.699965 0.991252 0.258512
O O1 0.266194 0.733806 0.386901
O O2 0.459134 0.807378 0.424310
O O3 0.461199 0.808770 0.347189
O O4 0.306914 0.961868 0.378385
O O5 0.902533 0.902533 0.047492
O O6 0.021311 0.760379 0.000000
O O7 0.130536 0.869465 0.059526
O O8 0.413071 0.586930 0.337811
O O9 0.641606 0.641606 0.335401
O O10 0.498563 0.701901 0.276740
O O11 0.630955 0.369046 0.138850
O O12 0.598173 0.598173 0.152407
O O13 0.750744 0.479306 0.196529
O O14 0.612871 0.879333 0.247056
#
# Coordination Sequence:
#
# PCOD9569240 Si02
#       5
#    16  16  16  16  16
#     4   9  16  28  44  65  96 129 166 213 259 315
#     4   8  13  22  40  68 100 133 167 207 266 335
#     4  10  19  30  47  69  92 124 164 205 256 313
#     4  10  20  33  49  67  90 128 174 215 262 318
#     4  11  22  34  47  65  92 126 167 212 261 316
#
# _framework density 19.982334999999999
#
# number of rings (size 3 to 8) (size 9 to 14) (size 15 to 20)
#    0.000    2.400    2.000    2.400    0.000    6.400 
#    0.000    0.000    0.000    0.600    0.000    4.200 
#    0.000    3.200    0.000    4.000    0.000    4.000 
#
# Total GULP energy -446167.851745 kJ/mol
# GULP energy per Si atom -5577.098147 kJ/mol
# Density = 1.993685 g / cm^3
# Si number density = 19.982335 Si / 1000 Ang^3
#
#
#
# Elastic Constant Matrix: (Units=GPa)
#
#
# Indices 1 2 3 4 5 6 
#
# 1 66.6290 56.8396 38.9637 0.0000 0.0000 0.0000
# 2 56.8396 66.6290 38.9637 0.0000 0.0000 0.0000
# 3 38.9637 38.9637 107.2070 0.0000 0.0000 0.0000
# 4 0.0000 0.0000 0.0000 186.7946 0.0000 0.0000
# 5 0.0000 0.0000 0.0000 0.0000 186.7946 0.0000
# 6 0.0000 0.0000 0.0000 0.0000 0.0000 -37.2427
#
#
#
# Elastic Compliance Matrix: (Units=1/GPa)
#
#
# Indices 1 2 3 4 5 6 
#
# 1 0.056331 -0.045821 -0.003820 0.000000 0.000000 0.000000
# 2 -0.045821 0.056331 -0.003820 0.000000 0.000000 0.000000
# 3 -0.003820 -0.003820 0.012104 0.000000 0.000000 0.000000
# 4 0.000000 0.000000 0.000000 0.005353 0.000000 0.000000
# 5 0.000000 0.000000 0.000000 0.000000 0.005353 0.000000
# 6 0.000000 0.000000 0.000000 0.000000 0.000000 -0.026851
#
#
# Mechanical properties :
#
#
# Convention : Reuss Voigt Hill
#
# Bulk Modulus (GPa) = 56.03737 56.66657 56.35197
# Shear Modulus (GPa) = 22.57427 74.31582 48.44505
#
# Velocity S-wave (km/s) = 3.36476 6.10504 4.92915
# Velocity P-wave (km/s) = 6.57266 8.83828 7.78829
#
# Compressibility (1/GPa) = 0.01784524
#
# Stress axis : x y z
#
# Youngs Moduli (GPa) = 17.75228 17.75228 82.61497
#
# Poissons Ratio (x) = 0.81342 0.31558
# Poissons Ratio (y) = 0.81342 0.31558
# Poissons Ratio (z) = 0.06781 0.06781
#
# Static dielectric constant tensor:
#      x y z
#    x 1.771310 0.000000 0.000000 
#    y 0.000000 1.771310 0.000000 
#    z 0.000000 0.000000 1.684040 
# 
# From -- ./inp_files/9561.got.cif
#   From: 2010.05.17/outbox.cif.g08.bks.cpg/sg136_5_cif.got.tgz:9561.got - 2010.05.20 12:54:53.
