data_PCOD9569643
_publ_section_title
;
Structure prediction by ZEFSAII (Michael W. Deem and Ramdas Pophale) SiO2 
 PCOD9569643
Probable space group: P 42/M N M
;
_chemical_formula_sum "Si O2"
_cell_formula_units_Z 84
_cell_length_a 15.088326
_cell_length_b 15.088326
_cell_length_c 22.693072
_cell_angle_alpha 90.000000
_cell_angle_beta 90.000000
_cell_angle_gamma 90.000000
_cell_volume 5166.249888
_symmetry_space_group_name_H-M "P 42/M N M"
_symmetry_group_IT_number 136
_symmetry_cell_setting 'tetragonal'
loop_
_space_group_symop_operation_xyz
x,y,z
1/2-y,1/2+x,1/2+z
-x,-y,z
1/2+y,1/2-x,1/2+z
1/2+x,1/2-y,1/2-z
1/2-x,1/2+y,1/2-z
y,x,-z
-y,-x,-z
-x,-y,-z
1/2+y,1/2-x,1/2-z
x,y,-z
1/2-y,1/2+x,1/2-z
1/2-x,1/2+y,1/2+z
1/2+x,1/2-y,1/2+z
-y,-x,z
y,x,z
loop_
_atom_site_type_symbol
_atom_site_label
_atom_site_fract_x
_atom_site_fract_y
_atom_site_fract_z
Si Si1 0.643929 0.036157 0.759567
Si Si2 0.454175 0.133612 0.929350
Si Si3 0.288607 0.436449 0.158734
Si Si4 0.926840 0.926840 0.611664
Si Si5 0.334880 0.665121 0.000000
Si Si6 0.221613 0.360056 0.500000
Si Si7 0.042912 0.638815 0.894235
O O1 0.602534 0.937629 0.754136
O O2 0.722857 0.050451 0.713700
O O3 0.669967 0.050172 0.827397
O O4 0.431702 0.226287 0.899073
O O5 0.546864 0.097434 0.902686
O O6 0.384272 0.058046 0.910843
O O7 0.460157 0.136931 0.000000
O O8 0.350007 0.350007 0.164909
O O9 0.354115 0.519620 0.149063
O O10 0.878809 0.878809 0.557075
O O11 0.000000 0.000000 0.591369
O O12 0.342848 0.772517 0.000000
O O13 0.318021 0.318021 0.500000
O O14 0.203389 0.416050 0.442169
#
# Coordination Sequence:
#
# PCOD9569643 Si02
#       7
#    16  16  16   8   4   8  16
#     4  11  20  36  59  82 110 147 187 238 290 337
#     4  11  19  33  59  81 111 150 183 234 289 348
#     4  11  24  40  55  84 115 153 199 230 277 344
#     4  10  23  40  56  74 118 159 186 225 273 342
#     4  10  21  34  54  86 114 150 189 218 278 350
#     4  10  22  30  49  85 116 137 178 235 286 347
#     4  11  18  34  55  83 111 144 183 230 304 338
#
# _framework density 16.259376
#
# number of rings (size 3 to 8) (size 9 to 14) (size 15 to 20)
#    0.286    0.952    5.714    3.000    1.333    1.143 
#    1.714    0.000    0.000    0.000    0.000    0.000 
#    0.000    0.762    0.000    0.000    0.000    0.000 
#
# Total GULP energy -468773.224212 kJ/mol
# GULP energy per Si atom -5580.633622 kJ/mol
# Density = 1.622237 g / cm^3
# Si number density = 16.259376 Si / 1000 Ang^3
#
#
#
# Elastic Constant Matrix: (Units=GPa)
#
#
# Indices 1 2 3 4 5 6 
#
# 1 83.2879 47.0811 35.9647 0.0000 0.0000 0.0000
# 2 47.0811 83.2880 35.9647 0.0000 0.0000 0.0000
# 3 35.9647 35.9647 129.7557 0.0000 0.0000 0.0000
# 4 0.0000 0.0000 0.0000 17.7850 0.0000 0.0000
# 5 0.0000 0.0000 0.0000 0.0000 17.7849 0.0000
# 6 0.0000 0.0000 0.0000 0.0000 0.0000 26.7984
#
#
#
# Elastic Compliance Matrix: (Units=1/GPa)
#
#
# Indices 1 2 3 4 5 6 
#
# 1 0.018337 -0.009282 -0.002510 0.000000 0.000000 0.000000
# 2 -0.009282 0.018337 -0.002510 0.000000 0.000000 0.000000
# 3 -0.002510 -0.002510 0.009098 0.000000 0.000000 0.000000
# 4 0.000000 0.000000 0.000000 0.056227 0.000000 0.000000
# 5 0.000000 0.000000 0.000000 0.000000 0.056227 0.000000
# 6 0.000000 0.000000 0.000000 0.000000 0.000000 0.037316
#
#
# Mechanical properties :
#
#
# Convention : Reuss Voigt Hill
#
# Bulk Modulus (GPa) = 58.24368 59.37251 58.80810
# Shear Modulus (GPa) = 21.75152 24.29509 23.02330
#
# Velocity S-wave (km/s) = 3.66154 3.86971 3.76706
# Velocity P-wave (km/s) = 7.33316 7.52073 7.42753
#
# Compressibility (1/GPa) = 0.01716924
#
# Stress axis : x y z
#
# Youngs Moduli (GPa) = 54.53388 54.53402 109.91269
#
# Poissons Ratio (x) = 0.50618 0.27587
# Poissons Ratio (y) = 0.50618 0.27587
# Poissons Ratio (z) = 0.13687 0.13687
#
# Static dielectric constant tensor:
#      x y z
#    x 1.541330 0.000000 0.000000 
#    y 0.000000 1.541330 0.000000 
#    z 0.000000 0.000000 1.534060 
# 
# From -- ./inp_files/7445.got.cif
#   From: 2010.05.17/outbox.cif.g08.bks.cpg/sg136_4_cif.got.tgz:7445.got - 2010.05.20 12:54:53.
