data_PCOD9569963
_publ_section_title
;
Structure prediction by ZEFSAII (Michael W. Deem and Ramdas Pophale) SiO2 
 PCOD9569963
Probable space group: P 42/N M C
;
_chemical_formula_sum "Si O2"
_cell_formula_units_Z 128
_cell_length_a 17.506098
_cell_length_b 17.506098
_cell_length_c 25.972554
_cell_angle_alpha 90.000000
_cell_angle_beta 90.000000
_cell_angle_gamma 90.000000
_cell_volume 7959.638951
_symmetry_space_group_name_H-M "P 42/N M C"
_symmetry_group_IT_number 137
_space_group.IT_coordinate_system_code '2'
_symmetry_cell_setting 'tetragonal'
loop_
_space_group_symop_operation_xyz
x,y,z
1/2-y,x,1/2+z
1/2-x,1/2-y,z
y,1/2-x,1/2+z
1/2+x,-y,-z
-x,1/2+y,-z
1/2+y,1/2+x,1/2-z
-y,-x,1/2-z
-x,-y,-z
1/2+y,-x,1/2-z
1/2+x,1/2+y,-z
-y,1/2+x,1/2-z
1/2-x,y,z
x,1/2-y,z
1/2-y,1/2-x,1/2+z
y,x,1/2+z
loop_
_atom_site_type_symbol
_atom_site_label
_atom_site_fract_x
_atom_site_fract_y
_atom_site_fract_z
Si Si1 0.075802 0.163687 0.969319
Si Si2 0.660718 0.606492 0.126206
Si Si3 0.940493 0.841480 0.446378
Si Si4 0.156826 0.161855 0.150327
Si Si5 0.838180 0.657454 0.736420
Si Si6 0.936746 0.065718 0.990093
Si Si7 0.161803 0.656834 0.693618
Si Si8 0.660177 0.430412 0.092469
O O1 0.082671 0.250000 0.987745
O O2 0.126793 0.109147 0.005821
O O3 0.109597 0.155264 0.912270
O O4 0.988303 0.135473 0.971146
O O5 0.750000 0.630296 0.122584
O O6 0.636531 0.615461 0.185550
O O7 0.655751 0.519515 0.107177
O O8 0.944063 0.750000 0.448944
O O9 0.895064 0.865642 0.395092
O O10 0.024446 0.877852 0.451580
O O11 0.250000 0.163403 0.151605
O O12 0.132315 0.250000 0.141252
O O13 0.132135 0.134647 0.207181
O O14 0.750000 0.632546 0.730228
O O15 0.837233 0.750000 0.738823
O O16 0.891337 0.083785 0.042522
O O17 0.000000 0.000000 0.000000
O O18 0.131974 0.631974 0.750000
O O19 0.250000 0.633177 0.688510
O O20 0.160317 0.750000 0.695503
O O21 0.115769 0.634318 0.643022
O O22 0.750000 0.412677 0.082242
#
# Coordination Sequence:
#
# PCOD9569963 Si02
#       8
#    16  16  16  16  16  16  16  16
#     4  11  22  33  48  71  97 126 159 201 246 288
#     4  10  18  29  48  72  96 125 160 197 236 286
#     4  10  18  31  52  73  93 124 161 200 239 284
#     4   8  14  25  43  69  98 124 153 193 240 287
#     4   8  14  25  41  64  96 127 151 184 234 289
#     4  10  20  34  46  63  97 132 159 193 244 296
#     4   8  15  29  49  72  95 121 160 207 244 275
#     4  10  18  31  51  70  92 127 168 203 237 286
#
# _framework density 16.081130999999999
#
# number of rings (size 3 to 8) (size 9 to 14) (size 15 to 20)
#    0.000    2.625    2.500    2.625    0.000    2.500 
#    0.000    2.500    0.000    5.625    0.000    0.000 
#    0.000    0.000    0.000    0.000    0.000   17.500 
#
# Total GULP energy -712816.904363 kJ/mol
# GULP energy per Si atom -5568.882065 kJ/mol
# Density = 1.604453 g / cm^3
# Si number density = 16.081131 Si / 1000 Ang^3
#
#
#
# Elastic Constant Matrix: (Units=GPa)
#
#
# Indices 1 2 3 4 5 6 
#
# 1 36.4491 20.2693 28.6092 0.0000 0.0000 0.0000
# 2 20.2693 36.4491 28.6092 0.0000 0.0000 0.0000
# 3 28.6092 28.6092 126.4516 0.0000 0.0000 0.0000
# 4 0.0000 0.0000 0.0000 12.0980 0.0000 0.0000
# 5 0.0000 0.0000 0.0000 0.0000 12.0980 0.0000
# 6 0.0000 0.0000 0.0000 0.0000 0.0000 14.5024
#
#
#
# Elastic Compliance Matrix: (Units=1/GPa)
#
#
# Indices 1 2 3 4 5 6 
#
# 1 0.042325 -0.019480 -0.005169 0.000000 0.000000 0.000000
# 2 -0.019480 0.042325 -0.005169 0.000000 0.000000 0.000000
# 3 -0.005169 -0.005169 0.010247 0.000000 0.000000 0.000000
# 4 0.000000 0.000000 0.000000 0.082658 0.000000 0.000000
# 5 0.000000 0.000000 0.000000 0.000000 0.082658 0.000000
# 6 0.000000 0.000000 0.000000 0.000000 0.000000 0.068954
#
#
# Mechanical properties :
#
#
# Convention : Reuss Voigt Hill
#
# Bulk Modulus (GPa) = 28.35857 39.36947 33.86402
# Shear Modulus (GPa) = 12.48259 15.86380 14.17320
#
# Velocity S-wave (km/s) = 2.78911 3.14424 2.97198
# Velocity P-wave (km/s) = 5.29576 6.14139 5.73418
#
# Compressibility (1/GPa) = 0.03526270
#
# Stress axis : x y z
#
# Youngs Moduli (GPa) = 23.62646 23.62646 97.59015
#
# Poissons Ratio (x) = 0.46025 0.50441
# Poissons Ratio (y) = 0.46025 0.50441
# Poissons Ratio (z) = 0.12212 0.12212
#
# Static dielectric constant tensor:
#      x y z
#    x 1.545130 0.000000 0.000000 
#    y 0.000000 1.545130 0.000000 
#    z 0.000000 0.000000 1.561590 
# 
# From -- ./inp_files/9165.got.cif
#   From: 2010.05.17/outbox.cif.g08.bks.cpg/sg137_5_cif.got.tgz:9165.got - 2010.05.20 13:01:12.
