data_PCOD9569509
_publ_section_title
;
Structure prediction by ZEFSAII (Michael W. Deem and Ramdas Pophale) SiO2 
 PCOD9569509
Probable space group: P 42/M N M
;
_chemical_formula_sum "Si O2"
_cell_formula_units_Z 80
_cell_length_a 11.773576
_cell_length_b 11.773576
_cell_length_c 30.500163
_cell_angle_alpha 90.000000
_cell_angle_beta 90.000000
_cell_angle_gamma 90.000000
_cell_volume 4227.843895
_symmetry_space_group_name_H-M "P 42/M N M"
_symmetry_group_IT_number 136
_symmetry_cell_setting 'tetragonal'
loop_
_space_group_symop_operation_xyz
x,y,z
1/2-y,1/2+x,1/2+z
-x,-y,z
1/2+y,1/2-x,1/2+z
1/2+x,1/2-y,1/2-z
1/2-x,1/2+y,1/2-z
y,x,-z
-y,-x,-z
-x,-y,-z
1/2+y,1/2-x,1/2-z
x,y,-z
1/2-y,1/2+x,1/2-z
1/2-x,1/2+y,1/2+z
1/2+x,1/2-y,1/2+z
-y,-x,z
y,x,z
loop_
_atom_site_type_symbol
_atom_site_label
_atom_site_fract_x
_atom_site_fract_y
_atom_site_fract_z
Si Si1 0.595817 0.404184 0.642374
Si Si2 0.936904 0.248535 0.915862
Si Si3 0.633094 0.974854 0.623110
Si Si4 0.404733 0.595268 0.260976
Si Si5 0.151192 0.657276 0.548661
Si Si6 0.018360 0.331863 0.726816
O O1 0.500000 0.500000 0.646434
O O2 0.529711 0.304004 0.617874
O O3 0.632513 0.367488 0.690293
O O4 0.855049 0.144951 0.931075
O O5 0.859329 0.344407 0.892907
O O6 0.024904 0.309054 0.948867
O O7 0.660738 0.991846 0.674240
O O8 0.500000 0.000000 0.620498
O O9 0.684222 0.062675 0.587698
O O10 0.500000 0.500000 0.263523
O O11 0.296551 0.543992 0.237712
O O12 0.101796 0.676706 0.500000
O O13 0.260978 0.739023 0.552928
O O14 0.119952 0.410171 0.746395
#
# Coordination Sequence:
#
# PCOD9569509 Si02
#       6
#     8  16  16   8  16  16
#     4   9  18  34  53  84 118 156 184 229 294 361
#     4  10  20  34  60  86 119 151 189 237 303 353
#     4  10  21  38  59  86 117 159 201 241 291 357
#     4  11  26  38  58  88 126 162 211 252 306 363
#     4  10  22  39  61  88 117 152 196 245 299 361
#     4  11  23  40  61  89 121 163 208 254 305 357
#
# _framework density 18.922174999999999
#
# number of rings (size 3 to 8) (size 9 to 14) (size 15 to 20)
#    0.000    1.800    3.000    1.200    5.600    4.800 
#    0.000    1.000    0.000    0.000    0.000    1.400 
#    0.000    0.000    0.000    0.000    0.000    0.000 
#
# Total GULP energy -445675.288996 kJ/mol
# GULP energy per Si atom -5570.941112 kJ/mol
# Density = 1.887911 g / cm^3
# Si number density = 18.922175 Si / 1000 Ang^3
#
#
#
# Elastic Constant Matrix: (Units=GPa)
#
#
# Indices 1 2 3 4 5 6 
#
# 1 50.8386 51.0779 39.3638 0.0000 0.0000 0.0000
# 2 51.0779 50.8386 39.3638 0.0000 0.0000 0.0000
# 3 39.3638 39.3638 154.2831 0.0000 0.0000 0.0000
# 4 0.0000 0.0000 0.0000 11.8370 0.0000 0.0000
# 5 0.0000 0.0000 0.0000 0.0000 11.8370 0.0000
# 6 0.0000 0.0000 0.0000 0.0000 0.0000 -3.2754
#
#
#
# Elastic Compliance Matrix: (Units=1/GPa)
#
#
# Indices 1 2 3 4 5 6 
#
# 1 -2.082725 2.094945 -0.003118 0.000000 0.000000 0.000000
# 2 2.094945 -2.082725 -0.003118 0.000000 0.000000 0.000000
# 3 -0.003118 -0.003118 0.008073 0.000000 0.000000 0.000000
# 4 0.000000 0.000000 0.000000 0.084481 0.000000 0.000000
# 5 0.000000 0.000000 0.000000 0.000000 0.084481 0.000000
# 6 0.000000 0.000000 0.000000 0.000000 0.000000 -0.305302
#
#
# Mechanical properties :
#
#
# Convention : Reuss Voigt Hill
#
# Bulk Modulus (GPa) = 49.89566 57.28571 53.59069
# Shear Modulus (GPa) = -0.59071 12.49001 5.94965
#
# Velocity S-wave (km/s) = -0.55933 2.57198 1.77513
# Velocity P-wave (km/s) = 5.09990 6.25781 5.70829
#
# Compressibility (1/GPa) = 0.02004182
#
# Stress axis : x y z
#
# Youngs Moduli (GPa) = -0.48014 -0.48014 123.87562
#
# Poissons Ratio (x) = 1.00587 0.38624
# Poissons Ratio (y) = 1.00587 0.38624
# Poissons Ratio (z) = -0.00150 -0.00150
#
# Static dielectric constant tensor:
#      x y z
#    x 1.660420 0.000000 0.000000 
#    y 0.000000 1.660420 0.000000 
#    z 0.000000 0.000000 1.737450 
# 
# From -- ./inp_files/9630.got.cif
#   From: 2010.05.17/outbox.cif.g08.bks.cpg/sg136_5_cif.got.tgz:9630.got - 2010.05.20 12:54:53.
