data_PCOD9569221
_publ_section_title
;
Structure prediction by ZEFSAII (Michael W. Deem and Ramdas Pophale) SiO2 
 PCOD9569221
Probable space group: P 42/M N M
;
_chemical_formula_sum "Si O2"
_cell_formula_units_Z 96
_cell_length_a 24.903403
_cell_length_b 24.903403
_cell_length_c 7.509377
_cell_angle_alpha 90.000000
_cell_angle_beta 90.000000
_cell_angle_gamma 90.000000
_cell_volume 4657.161530
_symmetry_space_group_name_H-M "P 42/M N M"
_symmetry_group_IT_number 136
_symmetry_cell_setting 'tetragonal'
loop_
_space_group_symop_operation_xyz
x,y,z
1/2-y,1/2+x,1/2+z
-x,-y,z
1/2+y,1/2-x,1/2+z
1/2+x,1/2-y,1/2-z
1/2-x,1/2+y,1/2-z
y,x,-z
-y,-x,-z
-x,-y,-z
1/2+y,1/2-x,1/2-z
x,y,-z
1/2-y,1/2+x,1/2-z
1/2-x,1/2+y,1/2+z
1/2+x,1/2-y,1/2+z
-y,-x,z
y,x,z
loop_
_atom_site_type_symbol
_atom_site_label
_atom_site_fract_x
_atom_site_fract_y
_atom_site_fract_z
Si Si1 0.847639 0.933765 0.717537
Si Si2 0.141590 0.364821 0.214367
Si Si3 0.736197 0.067489 0.717439
Si Si4 0.574466 0.036883 0.300194
Si Si5 0.640974 0.554525 0.217105
Si Si6 0.053809 0.273902 0.711879
O O1 0.847215 0.932195 0.500000
O O2 0.886014 0.886014 0.778743
O O3 0.785672 0.930482 0.777035
O O4 0.868691 0.992750 0.769266
O O5 0.202164 0.379754 0.272681
O O6 0.112359 0.418766 0.278571
O O7 0.102398 0.315507 0.258290
O O8 0.141575 0.365336 0.000000
O O9 0.735028 0.067227 0.500000
O O10 0.798366 0.069359 0.772000
O O11 0.714230 0.007799 0.774344
O O12 0.592158 0.022055 0.500000
O O13 0.516648 0.065436 0.307786
O O14 0.596401 0.596401 0.279011
O O15 0.640697 0.555503 0.000000
O O16 0.048409 0.270281 0.500000
#
# Coordination Sequence:
#
# PCOD9569221 Si02
#       6
#    16  16  16  16  16  16
#     4   8  14  25  42  65  91 116 141 172 213 259
#     4  10  19  29  42  60  83 113 150 189 221 252
#     4   8  15  28  42  57  83 117 147 177 218 262
#     4  10  19  29  41  58  81 109 142 186 235 275
#     4   8  13  22  39  63  89 117 145 171 207 259
#     4   9  17  30  47  63  84 118 151 177 214 266
#
# _framework density 20.613413999999999
#
# number of rings (size 3 to 8) (size 9 to 14) (size 15 to 20)
#    0.000    3.167    0.000    4.000    0.000    3.000 
#    0.000    3.333    0.000    1.500    0.000    0.000 
#    0.000   16.000    0.000    6.000    0.000    6.667 
#
# Total GULP energy -534595.463886 kJ/mol
# GULP energy per Si atom -5568.702749 kJ/mol
# Density = 2.056650 g / cm^3
# Si number density = 20.613414 Si / 1000 Ang^3
#
#
#
# Elastic Constant Matrix: (Units=GPa)
#
#
# Indices 1 2 3 4 5 6 
#
# 1 104.3456 98.8469 0.3442 0.0000 0.0000 0.0000
# 2 98.8469 104.3456 0.3442 0.0000 0.0000 0.0000
# 3 0.3442 0.3442 51.6477 0.0000 0.0000 0.0000
# 4 0.0000 0.0000 0.0000 10.9973 0.0000 0.0000
# 5 0.0000 0.0000 0.0000 0.0000 10.9973 0.0000
# 6 0.0000 0.0000 0.0000 0.0000 0.0000 41.9280
#
#
#
# Elastic Compliance Matrix: (Units=1/GPa)
#
#
# Indices 1 2 3 4 5 6 
#
# 1 0.093392 -0.088470 -0.000033 0.000000 0.000000 0.000000
# 2 -0.088470 0.093392 -0.000033 0.000000 0.000000 0.000000
# 3 -0.000033 -0.000033 0.019362 0.000000 0.000000 0.000000
# 4 0.000000 0.000000 0.000000 0.090931 0.000000 0.000000
# 5 0.000000 0.000000 0.000000 0.000000 0.090931 0.000000
# 6 0.000000 0.000000 0.000000 0.000000 0.000000 0.023850
#
#
# Mechanical properties :
#
#
# Convention : Reuss Voigt Hill
#
# Bulk Modulus (GPa) = 34.39465 51.04551 42.72008
# Shear Modulus (GPa) = 8.35253 23.50476 15.92864
#
# Velocity S-wave (km/s) = 2.01514 3.38044 2.78282
# Velocity P-wave (km/s) = 4.70491 6.32879 5.57628
#
# Compressibility (1/GPa) = 0.02907429
#
# Stress axis : x y z
#
# Youngs Moduli (GPa) = 10.70761 10.70761 51.64654
#
# Poissons Ratio (x) = 0.94730 0.00169
# Poissons Ratio (y) = 0.94730 0.00169
# Poissons Ratio (z) = 0.00035 0.00035
#
# Static dielectric constant tensor:
#      x y z
#    x 1.751320 0.000000 0.000000 
#    y 0.000000 1.751320 0.000000 
#    z 0.000000 0.000000 1.788180 
# 
# From -- ./inp_files/1988.got.cif
#   From: 2010.05.17/outbox.cif.g08.bks.cpg/sg136_1_cif.got.tgz:1988.got - 2010.05.20 12:54:53.
