data_PCOD9569998
_publ_section_title
;
Structure prediction by ZEFSAII (Michael W. Deem and Ramdas Pophale) SiO2 
 PCOD9569998
Probable space group: P 42/N M C
;
_chemical_formula_sum "Si O2"
_cell_formula_units_Z 72
_cell_length_a 16.453409
_cell_length_b 16.453409
_cell_length_c 10.733660
_cell_angle_alpha 90.000000
_cell_angle_beta 90.000000
_cell_angle_gamma 90.000000
_cell_volume 2905.759200
_symmetry_space_group_name_H-M "P 42/N M C"
_symmetry_group_IT_number 137
_space_group.IT_coordinate_system_code '2'
_symmetry_cell_setting 'tetragonal'
loop_
_space_group_symop_operation_xyz
x,y,z
1/2-y,x,1/2+z
1/2-x,1/2-y,z
y,1/2-x,1/2+z
1/2+x,-y,-z
-x,1/2+y,-z
1/2+y,1/2+x,1/2-z
-y,-x,1/2-z
-x,-y,-z
1/2+y,-x,1/2-z
1/2+x,1/2+y,-z
-y,1/2+x,1/2-z
1/2-x,y,z
x,1/2-y,z
1/2-y,1/2-x,1/2+z
y,x,1/2+z
loop_
_atom_site_type_symbol
_atom_site_label
_atom_site_fract_x
_atom_site_fract_y
_atom_site_fract_z
Si Si1 0.153233 0.750000 0.548583
Si Si2 0.250000 0.339568 0.126962
Si Si3 0.021854 0.750000 0.332386
Si Si4 0.846145 0.072356 0.403595
Si Si5 0.095864 0.505107 0.347210
Si Si6 0.079532 0.339003 0.279012
O O1 0.250000 0.750000 0.518576
O O2 0.135951 0.667137 0.623593
O O3 0.097683 0.750000 0.425788
O O4 0.250000 0.250000 0.055943
O O5 0.250000 0.435869 0.094318
O O6 0.164962 0.336678 0.203908
O O7 0.023270 0.673950 0.238421
O O8 0.750000 0.068657 0.437206
O O9 0.898999 0.053742 0.526186
O O10 0.856813 0.997870 0.308957
O O11 0.090280 0.410123 0.378042
O O12 0.025837 0.525837 0.250000
O O13 0.066841 0.250000 0.331010
#
# Coordination Sequence:
#
# PCOD9569998 Si02
#       6
#     8   8   8  16  16  16
#     4  10  20  34  54  84 118 148 185 236 297 352
#     4   8  16  34  56  74  99 146 187 231 284 327
#     4  10  18  32  50  80 111 140 178 227 279 351
#     4  10  20  36  57  85 117 154 195 239 290 351
#     4  11  20  33  56  82 114 147 186 234 296 343
#     4   9  20  38  58  77 115 154 195 241 288 347
#
# _framework density 24.778379000000001
#
# number of rings (size 3 to 8) (size 9 to 14) (size 15 to 20)
#    0.000    2.222    3.333    0.000    0.000    0.889 
#    4.000    0.000    2.444    0.000    0.000    0.000 
#    0.000    0.000    0.000    0.000    0.000    0.000 
#
# Total GULP energy -402120.688879 kJ/mol
# GULP energy per Si atom -5585.009568 kJ/mol
# Density = 2.472198 g / cm^3
# Si number density = 24.778379 Si / 1000 Ang^3
#
#
#
# Elastic Constant Matrix: (Units=GPa)
#
#
# Indices 1 2 3 4 5 6 
#
# 1 171.4779 29.0648 41.3320 0.0000 0.0000 0.0000
# 2 29.0648 171.4779 41.3320 0.0000 0.0000 0.0000
# 3 41.3320 41.3320 84.6365 0.0000 0.0000 0.0000
# 4 0.0000 0.0000 0.0000 -13.0359 0.0000 0.0000
# 5 0.0000 0.0000 0.0000 0.0000 -13.0359 0.0000
# 6 0.0000 0.0000 0.0000 0.0000 0.0000 -24.4908
#
#
#
# Elastic Compliance Matrix: (Units=1/GPa)
#
#
# Indices 1 2 3 4 5 6 
#
# 1 0.006633 -0.000389 -0.003049 0.000000 0.000000 0.000000
# 2 -0.000389 0.006633 -0.003049 0.000000 0.000000 0.000000
# 3 -0.003049 -0.003049 0.014793 0.000000 0.000000 0.000000
# 4 0.000000 0.000000 0.000000 -0.076711 0.000000 0.000000
# 5 0.000000 0.000000 0.000000 0.000000 -0.076711 0.000000
# 6 0.000000 0.000000 0.000000 0.000000 0.000000 -0.040832
#
#
# Mechanical properties :
#
#
# Convention : Reuss Voigt Hill
#
# Bulk Modulus (GPa) = 66.29525 72.33887 69.31706
# Shear Modulus (GPa) = -33.73952 10.94505 -11.39724
#
# Velocity S-wave (km/s) = -3.69406 2.10399 -2.14701
# Velocity P-wave (km/s) = 2.93574 5.92959 4.67860
#
# Compressibility (1/GPa) = 0.01508404
#
# Stress axis : x y z
#
# Youngs Moduli (GPa) = 150.77227 150.77227 67.59943
#
# Poissons Ratio (x) = 0.05870 0.20610
# Poissons Ratio (y) = 0.05870 0.20610
# Poissons Ratio (z) = 0.45968 0.45968
#
# Static dielectric constant tensor:
#      x y z
#    x 2.018930 0.000000 0.000000 
#    y 0.000000 2.018930 0.000000 
#    z 0.000000 0.000000 1.891120 
# 
# From -- ./inp_files/3491.got.cif
#   From: 2010.05.17/outbox.cif.g08.bks.cpg/sg137_2_cif.got.tgz:3491.got - 2010.05.20 13:01:12.
