data_PCOD9569617
_publ_section_title
;
Structure prediction by ZEFSAII (Michael W. Deem and Ramdas Pophale) SiO2 
 PCOD9569617
Probable space group: P 42/M N M
;
_chemical_formula_sum "Si O2"
_cell_formula_units_Z 80
_cell_length_a 11.877726
_cell_length_b 11.877726
_cell_length_c 30.063583
_cell_angle_alpha 90.000000
_cell_angle_beta 90.000000
_cell_angle_gamma 90.000000
_cell_volume 4241.381561
_symmetry_space_group_name_H-M "P 42/M N M"
_symmetry_group_IT_number 136
_symmetry_cell_setting 'tetragonal'
loop_
_space_group_symop_operation_xyz
x,y,z
1/2-y,1/2+x,1/2+z
-x,-y,z
1/2+y,1/2-x,1/2+z
1/2+x,1/2-y,1/2-z
1/2-x,1/2+y,1/2-z
y,x,-z
-y,-x,-z
-x,-y,-z
1/2+y,1/2-x,1/2-z
x,y,-z
1/2-y,1/2+x,1/2-z
1/2-x,1/2+y,1/2+z
1/2+x,1/2-y,1/2+z
-y,-x,z
y,x,z
loop_
_atom_site_type_symbol
_atom_site_label
_atom_site_fract_x
_atom_site_fract_y
_atom_site_fract_z
Si Si1 0.979695 0.688429 0.646587
Si Si2 0.404346 0.595655 0.201744
Si Si3 0.136998 0.487536 0.451477
Si Si4 0.318622 0.026991 0.855584
Si Si5 0.094796 0.094796 0.195028
Si Si6 0.252970 0.563276 0.950970
O O1 0.948410 0.792843 0.677135
O O2 0.879012 0.595445 0.648348
O O3 0.998065 0.733203 0.595848
O O4 0.090667 0.619843 0.659762
O O5 0.500000 0.500000 0.199020
O O6 0.379988 0.620013 0.253375
O O7 0.167853 0.532064 0.500000
O O8 0.195344 0.539889 0.408922
O O9 0.149739 0.352603 0.451696
O O10 0.000000 0.500000 0.446242
O O11 0.204861 0.046589 0.829400
O O12 0.000000 0.000000 0.193864
O O13 0.368133 0.631868 0.948374
O O14 0.248865 0.505455 0.000000
#
# Coordination Sequence:
#
# PCOD9569617 Si02
#       6
#    16   8  16  16   8  16
#     4  10  20  38  65  92 119 160 202 254 300 371
#     4  11  26  44  63  88 118 156 203 260 331 369
#     4   9  15  28  54  88 122 155 196 241 287 352
#     4  10  21  39  63  93 121 159 208 248 304 362
#     4  11  28  46  61  84 120 163 204 264 321 366
#     4   9  15  25  49  88 124 155 194 233 282 353
#
# _framework density 18.86178
#
# number of rings (size 3 to 8) (size 9 to 14) (size 15 to 20)
#    0.000    2.200    5.000    0.000    2.800    2.400 
#    0.000    2.500    0.000    1.800    0.000    0.000 
#    0.000    0.000    0.000    0.000    0.000    0.000 
#
# Total GULP energy -445561.585709 kJ/mol
# GULP energy per Si atom -5569.519821 kJ/mol
# Density = 1.881885 g / cm^3
# Si number density = 18.861780 Si / 1000 Ang^3
#
#
#
# Elastic Constant Matrix: (Units=GPa)
#
#
# Indices 1 2 3 4 5 6 
#
# 1 56.7857 14.1955 49.6985 0.0000 0.0000 0.0000
# 2 14.1955 56.7857 49.6985 0.0000 0.0000 0.0000
# 3 49.6985 49.6985 165.3545 0.0000 0.0000 0.0000
# 4 0.0000 0.0000 0.0000 14.4616 0.0000 0.0000
# 5 0.0000 0.0000 0.0000 0.0000 14.4616 0.0000
# 6 0.0000 0.0000 0.0000 0.0000 0.0000 13.4879
#
#
#
# Elastic Compliance Matrix: (Units=1/GPa)
#
#
# Indices 1 2 3 4 5 6 
#
# 1 0.023903 0.000424 -0.007312 0.000000 0.000000 0.000000
# 2 0.000424 0.023903 -0.007312 0.000000 0.000000 0.000000
# 3 -0.007312 -0.007312 0.010443 0.000000 0.000000 0.000000
# 4 0.000000 0.000000 0.000000 0.069149 0.000000 0.000000
# 5 0.000000 0.000000 0.000000 0.000000 0.069149 0.000000
# 6 0.000000 0.000000 0.000000 0.000000 0.000000 0.074140
#
#
# Mechanical properties :
#
#
# Convention : Reuss Voigt Hill
#
# Bulk Modulus (GPa) = 33.50077 56.23456 44.86767
# Shear Modulus (GPa) = 16.17933 19.50444 17.84188
#
# Velocity S-wave (km/s) = 2.93197 3.21919 3.07893
# Velocity P-wave (km/s) = 5.40941 6.61032 6.03979
#
# Compressibility (1/GPa) = 0.02985006
#
# Stress axis : x y z
#
# Youngs Moduli (GPa) = 41.83530 41.83530 95.76027
#
# Poissons Ratio (x) = -0.01772 0.70016
# Poissons Ratio (y) = -0.01772 0.70016
# Poissons Ratio (z) = 0.30588 0.30588
#
# Static dielectric constant tensor:
#      x y z
#    x 1.658040 0.000000 0.000000 
#    y 0.000000 1.658040 0.000000 
#    z 0.000000 0.000000 1.697850 
# 
# From -- ./inp_files/9584.got.cif
#   From: 2010.05.17/outbox.cif.g08.bks.cpg/sg136_5_cif.got.tgz:9584.got - 2010.05.20 12:54:53.
