data_PCOD9569893
_publ_section_title
;
Structure prediction by ZEFSAII (Michael W. Deem and Ramdas Pophale) SiO2 
 PCOD9569893
Probable space group: P 42/M N M
;
_chemical_formula_sum "Si O2"
_cell_formula_units_Z 56
_cell_length_a 12.598049
_cell_length_b 12.598049
_cell_length_c 19.423376
_cell_angle_alpha 90.000000
_cell_angle_beta 90.000000
_cell_angle_gamma 90.000000
_cell_volume 3082.700294
_symmetry_space_group_name_H-M "P 42/M N M"
_symmetry_group_IT_number 136
_symmetry_cell_setting 'tetragonal'
loop_
_space_group_symop_operation_xyz
x,y,z
1/2-y,1/2+x,1/2+z
-x,-y,z
1/2+y,1/2-x,1/2+z
1/2+x,1/2-y,1/2-z
1/2-x,1/2+y,1/2-z
y,x,-z
-y,-x,-z
-x,-y,-z
1/2+y,1/2-x,1/2-z
x,y,-z
1/2-y,1/2+x,1/2-z
1/2-x,1/2+y,1/2+z
1/2+x,1/2-y,1/2+z
-y,-x,z
y,x,z
loop_
_atom_site_type_symbol
_atom_site_label
_atom_site_fract_x
_atom_site_fract_y
_atom_site_fract_z
Si Si1 0.554347 0.262441 0.335813
Si Si2 0.882341 0.300434 0.421281
Si Si3 0.408453 0.408453 0.420962
Si Si4 0.998878 0.821605 0.688933
O O1 0.646255 0.353746 0.334629
O O2 0.604088 0.163398 0.375353
O O3 0.458666 0.310897 0.380103
O O4 0.519158 0.251054 0.256869
O O5 0.907007 0.329487 0.500000
O O6 0.787625 0.212376 0.424175
O O7 0.976012 0.245398 0.378736
O O8 0.500000 0.500000 0.421377
O O9 0.383840 0.383840 0.500000
O O10 0.099517 0.900484 0.702115
O O11 0.898527 0.898527 0.679601
#
# Coordination Sequence:
#
# PCOD9569893 Si02
#       4
#    16  16   8  16
#     4   9  15  25  40  62  92 124 158 195 237 284
#     4   9  17  27  41  66  98 125 156 200 242 283
#     4   9  14  20  36  62  91 121 149 188 244 291
#     4   9  16  27  43  64  93 127 161 199 238 283
#
# _framework density 18.165893000000001
#
# number of rings (size 3 to 8) (size 9 to 14) (size 15 to 20)
#    0.000    3.000    1.429    0.857    0.000    4.000 
#    0.000    2.857    0.000    0.857    0.000    6.000 
#    0.000    0.000    0.000    0.000    0.000    0.000 
#
# Total GULP energy -311989.395295 kJ/mol
# GULP energy per Si atom -5571.239202 kJ/mol
# Density = 1.812455 g / cm^3
# Si number density = 18.165893 Si / 1000 Ang^3
#
#
#
# Elastic Constant Matrix: (Units=GPa)
#
#
# Indices 1 2 3 4 5 6 
#
# 1 32.4113 26.7685 51.5176 0.0000 0.0000 0.0000
# 2 26.7685 32.4113 51.5176 0.0000 0.0000 0.0000
# 3 51.5176 51.5176 149.2126 0.0000 0.0000 0.0000
# 4 0.0000 0.0000 0.0000 17.9003 0.0000 0.0000
# 5 0.0000 0.0000 0.0000 0.0000 17.9003 0.0000
# 6 0.0000 0.0000 0.0000 0.0000 0.0000 12.4998
#
#
#
# Elastic Compliance Matrix: (Units=1/GPa)
#
#
# Indices 1 2 3 4 5 6 
#
# 1 0.109790 -0.067427 -0.014626 0.000000 0.000000 0.000000
# 2 -0.067427 0.109790 -0.014626 0.000000 0.000000 0.000000
# 3 -0.014626 -0.014626 0.016802 0.000000 0.000000 0.000000
# 4 0.000000 0.000000 0.000000 0.055865 0.000000 0.000000
# 5 0.000000 0.000000 0.000000 0.000000 0.055865 0.000000
# 6 0.000000 0.000000 0.000000 0.000000 0.000000 0.080002
#
#
# Mechanical properties :
#
#
# Convention : Reuss Voigt Hill
#
# Bulk Modulus (GPa) = 23.24386 52.62697 37.93542
# Shear Modulus (GPa) = 7.86394 15.27550 11.56972
#
# Velocity S-wave (km/s) = 2.08287 2.90295 2.52641
# Velocity P-wave (km/s) = 4.31365 6.34581 5.42572
#
# Compressibility (1/GPa) = 0.04302211
#
# Stress axis : x y z
#
# Youngs Moduli (GPa) = 9.10831 9.10831 59.51775
#
# Poissons Ratio (x) = 0.61415 0.87053
# Poissons Ratio (y) = 0.61415 0.87053
# Poissons Ratio (z) = 0.13322 0.13322
#
# Static dielectric constant tensor:
#      x y z
#    x 1.629870 0.000000 0.000000 
#    y 0.000000 1.629870 0.000000 
#    z 0.000000 0.000000 1.614690 
# 
# From -- ./inp_files/5842.got.cif
#   From: 2010.05.17/outbox.cif.g08.bks.cpg/sg136_3_cif.got.tgz:5842.got - 2010.05.20 12:54:53.
