data_PCOD9569463
_publ_section_title
;
Structure prediction by ZEFSAII (Michael W. Deem and Ramdas Pophale) SiO2 
 PCOD9569463
Probable space group: P 42/M N M
;
_chemical_formula_sum "Si O2"
_cell_formula_units_Z 64
_cell_length_a 11.777525
_cell_length_b 11.777525
_cell_length_c 25.297654
_cell_angle_alpha 90.000000
_cell_angle_beta 90.000000
_cell_angle_gamma 90.000000
_cell_volume 3509.039993
_symmetry_space_group_name_H-M "P 42/M N M"
_symmetry_group_IT_number 136
_symmetry_cell_setting 'tetragonal'
loop_
_space_group_symop_operation_xyz
x,y,z
1/2-y,1/2+x,1/2+z
-x,-y,z
1/2+y,1/2-x,1/2+z
1/2+x,1/2-y,1/2-z
1/2-x,1/2+y,1/2-z
y,x,-z
-y,-x,-z
-x,-y,-z
1/2+y,1/2-x,1/2-z
x,y,-z
1/2-y,1/2+x,1/2-z
1/2-x,1/2+y,1/2+z
1/2+x,1/2-y,1/2+z
-y,-x,z
y,x,z
loop_
_atom_site_type_symbol
_atom_site_label
_atom_site_fract_x
_atom_site_fract_y
_atom_site_fract_z
Si Si1 0.635615 0.030418 0.441587
Si Si2 0.755888 0.060620 0.769400
Si Si3 0.543480 0.130474 0.829028
Si Si4 0.402788 0.597212 0.336490
Si Si5 0.798233 0.798233 0.059762
O O1 0.678773 0.995419 0.500000
O O2 0.668505 0.164140 0.435728
O O3 0.500000 0.000000 0.442537
O O4 0.677762 0.970786 0.388037
O O5 0.864022 0.135979 0.756686
O O6 0.670687 0.127326 0.807593
O O7 0.694822 0.027628 0.715466
O O8 0.799163 0.953379 0.802851
O O9 0.500000 0.000000 0.828961
O O10 0.500000 0.500000 0.341105
O O11 0.362855 0.637146 0.393740
O O12 0.832117 0.832117 0.000000
#
# Coordination Sequence:
#
# PCOD9569463 Si02
#       5
#    16  16  16   8   8
#     4   9  19  33  51  78 107 138 184 236 278 329
#     4  11  23  35  54  83 112 147 182 227 283 334
#     4  11  20  34  54  80 105 141 186 226 275 333
#     4  10  22  37  50  76 117 144 178 229 277 336
#     4  10  20  33  58  82 105 149 185 226 294 335
#
# _framework density 18.238605
#
# number of rings (size 3 to 8) (size 9 to 14) (size 15 to 20)
#    0.000    1.750    2.500    3.000    3.500    0.250 
#    0.000    0.000    0.000    2.250    0.000    0.000 
#    0.000    6.000    0.000    0.000    0.000    0.000 
#
# Total GULP energy -356690.935470 kJ/mol
# GULP energy per Si atom -5573.295867 kJ/mol
# Density = 1.819709 g / cm^3
# Si number density = 18.238605 Si / 1000 Ang^3
#
#
#
# Elastic Constant Matrix: (Units=GPa)
#
#
# Indices 1 2 3 4 5 6 
#
# 1 58.4449 18.6926 43.9667 0.0000 0.0000 0.0000
# 2 18.6926 58.4449 43.9667 0.0000 0.0000 0.0000
# 3 43.9667 43.9667 220.0073 0.0000 0.0000 0.0000
# 4 0.0000 0.0000 0.0000 91.5729 0.0000 0.0000
# 5 0.0000 0.0000 0.0000 0.0000 91.5729 0.0000
# 6 0.0000 0.0000 0.0000 0.0000 0.0000 29.1894
#
#
#
# Elastic Compliance Matrix: (Units=1/GPa)
#
#
# Indices 1 2 3 4 5 6 
#
# 1 0.020972 -0.004184 -0.003355 0.000000 0.000000 0.000000
# 2 -0.004184 0.020972 -0.003355 0.000000 0.000000 0.000000
# 3 -0.003355 -0.003355 0.005886 0.000000 0.000000 0.000000
# 4 0.000000 0.000000 0.000000 0.010920 0.000000 0.000000
# 5 0.000000 0.000000 0.000000 0.000000 0.010920 0.000000
# 6 0.000000 0.000000 0.000000 0.000000 0.000000 0.034259
#
#
# Mechanical properties :
#
#
# Convention : Reuss Voigt Hill
#
# Bulk Modulus (GPa) = 38.39803 61.12768 49.76285
# Shear Modulus (GPa) = 37.20278 57.81845 47.51061
#
# Velocity S-wave (km/s) = 4.52129 5.63648 5.10941
# Velocity P-wave (km/s) = 6.95378 8.71483 7.88363
#
# Compressibility (1/GPa) = 0.02604300
#
# Stress axis : x y z
#
# Youngs Moduli (GPa) = 47.68236 47.68236 169.88727
#
# Poissons Ratio (x) = 0.19949 0.56998
# Poissons Ratio (y) = 0.19949 0.56998
# Poissons Ratio (z) = 0.15998 0.15998
#
# Static dielectric constant tensor:
#      x y z
#    x 1.633700 0.000000 0.000000 
#    y 0.000000 1.633700 0.000000 
#    z 0.000000 0.000000 1.634110 
# 
# From -- ./inp_files/8149.got.cif
#   From: 2010.05.17/outbox.cif.g08.bks.cpg/sg136_5_cif.got.tgz:8149.got - 2010.05.20 12:54:53.
