data_PCOD9569599
_publ_section_title
;
Structure prediction by ZEFSAII (Michael W. Deem and Ramdas Pophale) SiO2 
 PCOD9569599
Probable space group: P 42/M N M
;
_chemical_formula_sum "Si O2"
_cell_formula_units_Z 96
_cell_length_a 16.456809
_cell_length_b 16.456809
_cell_length_c 18.119886
_cell_angle_alpha 90.000000
_cell_angle_beta 90.000000
_cell_angle_gamma 90.000000
_cell_volume 4907.346438
_symmetry_space_group_name_H-M "P 42/M N M"
_symmetry_group_IT_number 136
_symmetry_cell_setting 'tetragonal'
loop_
_space_group_symop_operation_xyz
x,y,z
1/2-y,1/2+x,1/2+z
-x,-y,z
1/2+y,1/2-x,1/2+z
1/2+x,1/2-y,1/2-z
1/2-x,1/2+y,1/2-z
y,x,-z
-y,-x,-z
-x,-y,-z
1/2+y,1/2-x,1/2-z
x,y,-z
1/2-y,1/2+x,1/2-z
1/2-x,1/2+y,1/2+z
1/2+x,1/2-y,1/2+z
-y,-x,z
y,x,z
loop_
_atom_site_type_symbol
_atom_site_label
_atom_site_fract_x
_atom_site_fract_y
_atom_site_fract_z
Si Si1 0.220200 0.220200 0.914510
Si Si2 0.359038 0.941934 0.910803
Si Si3 0.215354 0.542948 0.085831
Si Si4 0.582653 0.417348 0.584154
Si Si5 0.556821 0.683895 0.339635
Si Si6 0.623207 0.126738 0.413337
Si Si7 0.499352 0.365754 0.816448
O O1 0.151675 0.151675 0.915583
O O2 0.299110 0.176037 0.880059
O O3 0.242347 0.242347 0.000000
O O4 0.400386 0.858112 0.884039
O O5 0.267011 0.945287 0.883462
O O6 0.391045 0.031363 0.886176
O O7 0.366495 0.938721 0.000000
O O8 0.176411 0.453414 0.089486
O O9 0.301175 0.536678 0.126862
O O10 0.229334 0.564374 0.000000
O O11 0.563762 0.436239 0.500000
O O12 0.621141 0.494418 0.623346
O O13 0.645650 0.645650 0.343191
O O14 0.529685 0.685286 0.254557
O O15 0.611326 0.149440 0.500000
O O16 0.569260 0.430741 0.795662
O O17 0.422053 0.422053 0.841450
#
# Coordination Sequence:
#
# PCOD9569599 Si02
#       7
#     8  16  16   8  16  16  16
#     4   9  16  27  50  87 123 149 187 243 285 335
#     4  10  20  37  60  90 127 160 191 240 304 366
#     4  10  22  39  64  91 117 156 205 254 304 361
#     4  11  19  32  57  92 121 151 198 244 293 355
#     4  11  22  38  58  83 120 162 197 239 299 369
#     4   9  17  32  56  87 122 153 188 242 301 346
#     4  10  23  44  63  82 117 161 205 259 314 355
#
# _framework density 19.562508000000001
#
# number of rings (size 3 to 8) (size 9 to 14) (size 15 to 20)
#    0.000    2.000    2.500    1.250    1.167    5.000 
#    3.000    2.500    0.000    0.000    0.000    0.000 
#    0.000    0.000    0.000    0.000    0.000    0.000 
#
# Total GULP energy -534931.412990 kJ/mol
# GULP energy per Si atom -5572.202219 kJ/mol
# Density = 1.951798 g / cm^3
# Si number density = 19.562508 Si / 1000 Ang^3
#
#
#
# Elastic Constant Matrix: (Units=GPa)
#
#
# Indices 1 2 3 4 5 6 
#
# 1 49.6469 14.6755 -0.6482 0.0000 0.0000 0.0000
# 2 14.6755 49.6473 -0.6483 0.0000 0.0000 0.0000
# 3 -0.6482 -0.6483 16.1900 0.0000 0.0000 0.0000
# 4 0.0000 0.0000 0.0000 -5.3471 0.0000 0.0000
# 5 0.0000 0.0000 0.0000 0.0000 -5.3471 0.0000
# 6 0.0000 0.0000 0.0000 0.0000 0.0000 25.7770
#
#
#
# Elastic Compliance Matrix: (Units=1/GPa)
#
#
# Indices 1 2 3 4 5 6 
#
# 1 0.022077 -0.006518 0.000623 0.000000 0.000000 0.000000
# 2 -0.006518 0.022077 0.000623 0.000000 0.000000 0.000000
# 3 0.000623 0.000623 0.061817 0.000000 0.000000 0.000000
# 4 0.000000 0.000000 0.000000 -0.187019 0.000000 0.000000
# 5 0.000000 0.000000 0.000000 0.000000 -0.187018 0.000000
# 6 0.000000 0.000000 0.000000 0.000000 0.000000 0.038794
#
#
# Mechanical properties :
#
#
# Convention : Reuss Voigt Hill
#
# Bulk Modulus (GPa) = 10.47925 15.80471 13.14198
# Shear Modulus (GPa) = -26.74947 9.82358 -8.46294
#
# Velocity S-wave (km/s) = -3.70183 2.24333 -2.08219
# Velocity P-wave (km/s) = 3.59207 3.84794 0.97564
#
# Compressibility (1/GPa) = 0.09542672
#
# Stress axis : x y z
#
# Youngs Moduli (GPa) = 45.29601 45.29632 16.17690
#
# Poissons Ratio (x) = 0.29523 -0.01008
# Poissons Ratio (y) = 0.29523 -0.01008
# Poissons Ratio (z) = -0.02821 -0.02822
#
# Static dielectric constant tensor:
#      x y z
#    x 1.707740 0.000000 0.000000 
#    y 0.000000 1.707740 0.000000 
#    z 0.000000 0.000000 1.702800 
# 
# From -- ./inp_files/7532.got.cif
#   From: 2010.05.17/outbox.cif.g08.bks.cpg/sg136_4_cif.got.tgz:7532.got - 2010.05.20 12:54:53.
