data_PCOD9569451
_publ_section_title
;
Structure prediction by ZEFSAII (Michael W. Deem and Ramdas Pophale) SiO2 
 PCOD9569451
Probable space group: P 42/M N M
;
_chemical_formula_sum "Si O2"
_cell_formula_units_Z 80
_cell_length_a 12.308378
_cell_length_b 12.308378
_cell_length_c 29.441792
_cell_angle_alpha 90.000000
_cell_angle_beta 90.000000
_cell_angle_gamma 90.000000
_cell_volume 4460.318696
_symmetry_space_group_name_H-M "P 42/M N M"
_symmetry_group_IT_number 136
_symmetry_cell_setting 'tetragonal'
loop_
_space_group_symop_operation_xyz
x,y,z
1/2-y,1/2+x,1/2+z
-x,-y,z
1/2+y,1/2-x,1/2+z
1/2+x,1/2-y,1/2-z
1/2-x,1/2+y,1/2-z
y,x,-z
-y,-x,-z
-x,-y,-z
1/2+y,1/2-x,1/2-z
x,y,-z
1/2-y,1/2+x,1/2-z
1/2-x,1/2+y,1/2+z
1/2+x,1/2-y,1/2+z
-y,-x,z
y,x,z
loop_
_atom_site_type_symbol
_atom_site_label
_atom_site_fract_x
_atom_site_fract_y
_atom_site_fract_z
Si Si1 0.295846 0.023755 0.645108
Si Si2 0.712546 0.712546 0.947915
Si Si3 0.125868 0.467601 0.052320
Si Si4 0.416377 0.416377 0.871013
Si Si5 0.284435 0.890251 0.793997
Si Si6 0.817886 0.362041 0.694340
O O1 0.308597 0.032856 0.590942
O O2 0.173314 0.984925 0.656469
O O3 0.365356 0.918815 0.660033
O O4 0.337579 0.127260 0.672027
O O5 0.660027 0.834290 0.942791
O O6 0.647248 0.647248 0.909911
O O7 0.684263 0.684263 0.000000
O O8 0.000000 0.500000 0.059527
O O9 0.150770 0.497076 0.000000
O O10 0.500000 0.500000 0.891980
O O11 0.172664 0.827337 0.799791
O O12 0.327500 0.866418 0.743167
O O13 0.272016 0.017653 0.801502
O O14 0.727882 0.272119 0.681181
#
# Coordination Sequence:
#
# PCOD9569451 Si02
#       6
#    16   8  16   8  16  16
#     4  11  20  36  55  80 109 143 180 224 272 323
#     4   8  16  29  46  72 106 139 176 216 264 328
#     4   9  17  30  50  76 106 140 177 221 273 323
#     4  10  20  33  52  78 109 141 178 216 266 327
#     4  11  23  37  55  79 107 144 184 226 272 321
#     4  11  22  37  56  79 107 143 184 225 270 323
#
# _framework density 17.935938
#
# number of rings (size 3 to 8) (size 9 to 14) (size 15 to 20)
#    0.000    1.800    3.000    2.400    0.000    0.600 
#    0.000    0.000    0.000    1.800    0.000    0.000 
#    0.000    0.000    0.000    8.400    0.000    0.400 
#
# Total GULP energy -445460.459311 kJ/mol
# GULP energy per Si atom -5568.255741 kJ/mol
# Density = 1.789511 g / cm^3
# Si number density = 17.935938 Si / 1000 Ang^3
#
#
#
# Elastic Constant Matrix: (Units=GPa)
#
#
# Indices 1 2 3 4 5 6 
#
# 1 56.9111 38.2097 1.8948 0.0000 0.0000 0.0000
# 2 38.2097 56.9111 1.8948 0.0000 0.0000 0.0000
# 3 1.8948 1.8948 56.4084 0.0000 0.0000 0.0000
# 4 0.0000 0.0000 0.0000 -1.1536 0.0000 0.0000
# 5 0.0000 0.0000 0.0000 0.0000 -1.1536 0.0000
# 6 0.0000 0.0000 0.0000 0.0000 0.0000 28.8589
#
#
#
# Elastic Compliance Matrix: (Units=1/GPa)
#
#
# Indices 1 2 3 4 5 6 
#
# 1 0.031999 -0.021472 -0.000354 0.000000 0.000000 0.000000
# 2 -0.021472 0.031999 -0.000354 0.000000 0.000000 0.000000
# 3 -0.000354 -0.000354 0.017752 0.000000 0.000000 0.000000
# 4 0.000000 0.000000 0.000000 -0.866828 0.000000 0.000000
# 5 0.000000 0.000000 0.000000 0.000000 -0.866828 0.000000
# 6 0.000000 0.000000 0.000000 0.000000 0.000000 0.034651
#
#
# Mechanical properties :
#
#
# Convention : Reuss Voigt Hill
#
# Bulk Modulus (GPa) = 26.74422 28.24767 27.49595
# Shear Modulus (GPa) = -3.20424 13.85908 5.32742
#
# Velocity S-wave (km/s) = -1.33805 2.78276 1.72531
# Velocity P-wave (km/s) = 3.54347 5.10964 4.39685
#
# Compressibility (1/GPa) = 0.03739125
#
# Stress axis : x y z
#
# Youngs Moduli (GPa) = 31.25050 31.25050 56.33295
#
# Poissons Ratio (x) = 0.67102 0.01992
# Poissons Ratio (y) = 0.67102 0.01992
# Poissons Ratio (z) = 0.01105 0.01105
#
# Static dielectric constant tensor:
#      x y z
#    x 1.637140 0.000000 0.000000 
#    y 0.000000 1.637140 0.000000 
#    z 0.000000 0.000000 1.634800 
# 
# From -- ./inp_files/9576.got.cif
#   From: 2010.05.17/outbox.cif.g08.bks.cpg/sg136_5_cif.got.tgz:9576.got - 2010.05.20 12:54:53.
