data_PCOD9569384
_publ_section_title
;
Structure prediction by ZEFSAII (Michael W. Deem and Ramdas Pophale) SiO2 
 PCOD9569384
Probable space group: P 42/M N M
;
_chemical_formula_sum "Si O2"
_cell_formula_units_Z 120
_cell_length_a 26.761906
_cell_length_b 26.761906
_cell_length_c 8.939464
_cell_angle_alpha 90.000000
_cell_angle_beta 90.000000
_cell_angle_gamma 90.000000
_cell_volume 6402.440655
_symmetry_space_group_name_H-M "P 42/M N M"
_symmetry_group_IT_number 136
_symmetry_cell_setting 'tetragonal'
loop_
_space_group_symop_operation_xyz
x,y,z
1/2-y,1/2+x,1/2+z
-x,-y,z
1/2+y,1/2-x,1/2+z
1/2+x,1/2-y,1/2-z
1/2-x,1/2+y,1/2-z
y,x,-z
-y,-x,-z
-x,-y,-z
1/2+y,1/2-x,1/2-z
x,y,-z
1/2-y,1/2+x,1/2-z
1/2-x,1/2+y,1/2+z
1/2+x,1/2-y,1/2+z
-y,-x,z
y,x,z
loop_
_atom_site_type_symbol
_atom_site_label
_atom_site_fract_x
_atom_site_fract_y
_atom_site_fract_z
Si Si1 0.541090 0.722637 0.820116
Si Si2 0.957027 0.957027 0.327590
Si Si3 0.870969 0.288056 0.173353
Si Si4 0.320393 0.761229 0.817344
Si Si5 0.390898 0.930196 0.165401
Si Si6 0.234604 0.566677 0.176815
Si Si7 0.636115 0.955614 0.167646
Si Si8 0.031011 0.884062 0.175812
O O1 0.588548 0.753596 0.757619
O O2 0.486064 0.742416 0.766098
O O3 0.544160 0.665942 0.763856
O O4 0.541915 0.725601 0.000000
O O5 0.945230 0.945230 0.500000
O O6 0.981764 0.910252 0.244197
O O7 0.000000 0.000000 0.327435
O O8 0.814316 0.295981 0.231722
O O9 0.894066 0.343449 0.174174
O O10 0.868348 0.270686 0.000000
O O11 0.283890 0.716111 0.776404
O O12 0.377657 0.751707 0.765898
O O13 0.322365 0.764470 0.000000
O O14 0.429070 0.915500 0.293347
O O15 0.370451 0.985654 0.179405
O O16 0.414110 0.925277 0.000000
O O17 0.176150 0.562469 0.212753
O O18 0.244372 0.566920 0.000000
O O19 0.653032 0.942904 0.000000
O O20 0.075711 0.924290 0.190673
O O21 0.024124 0.873784 0.000000
#
# Coordination Sequence:
#
# PCOD9569384 Si02
#       8
#    16   8  16  16  16  16  16  16
#     4  11  23  36  56  88 121 153 192 245 303 351
#     4   9  17  33  59  87 115 147 185 231 285 343
#     4  10  19  35  58  81 110 149 192 238 285 343
#     4   9  18  35  60  85 109 145 193 238 283 343
#     4  10  21  37  55  79 111 145 183 230 283 338
#     4  10  20  37  58  83 115 151 190 235 289 351
#     4  11  22  35  57  83 108 147 190 231 284 343
#     4  10  21  38  60  84 115 157 199 237 285 351
#
# _framework density 18.742851999999999
#
# number of rings (size 3 to 8) (size 9 to 14) (size 15 to 20)
#    0.000    1.933    2.667    1.400    0.000    4.533 
#    1.200    2.667    0.000    1.200    0.000    0.000 
#    0.000    0.000    0.000    0.000    0.000    0.000 
#
# Total GULP energy -668850.042841 kJ/mol
# GULP energy per Si atom -5573.750357 kJ/mol
# Density = 1.870019 g / cm^3
# Si number density = 18.742852 Si / 1000 Ang^3
#
#
#
# Elastic Constant Matrix: (Units=GPa)
#
#
# Indices 1 2 3 4 5 6 
#
# 1 59.2605 24.2932 19.5094 0.0000 0.0000 0.0000
# 2 24.2932 59.2605 19.5094 0.0000 0.0000 0.0000
# 3 19.5094 19.5094 23.4414 0.0000 0.0000 0.0000
# 4 0.0000 0.0000 0.0000 21.2710 0.0000 0.0000
# 5 0.0000 0.0000 0.0000 0.0000 21.2710 0.0000
# 6 0.0000 0.0000 0.0000 0.0000 0.0000 30.7687
#
#
#
# Elastic Compliance Matrix: (Units=1/GPa)
#
#
# Indices 1 2 3 4 5 6 
#
# 1 0.024088 -0.004510 -0.016293 0.000000 0.000000 0.000000
# 2 -0.004510 0.024088 -0.016293 0.000000 0.000000 0.000000
# 3 -0.016293 -0.016293 0.069781 0.000000 0.000000 0.000000
# 4 0.000000 0.000000 0.000000 0.047012 0.000000 0.000000
# 5 0.000000 0.000000 0.000000 0.000000 0.047012 0.000000
# 6 0.000000 0.000000 0.000000 0.000000 0.000000 0.032501
#
#
# Mechanical properties :
#
#
# Convention : Reuss Voigt Hill
#
# Bulk Modulus (GPa) = 22.85130 29.84295 26.34713
# Shear Modulus (GPa) = 15.00316 19.90548 17.45432
#
# Velocity S-wave (km/s) = 2.83233 3.26242 3.05495
# Velocity P-wave (km/s) = 4.78692 5.49072 5.15086
#
# Compressibility (1/GPa) = 0.04376119
#
# Stress axis : x y z
#
# Youngs Moduli (GPa) = 41.51501 41.51501 14.33065
#
# Poissons Ratio (x) = 0.18725 0.23350
# Poissons Ratio (y) = 0.18725 0.23350
# Poissons Ratio (z) = 0.67642 0.67642
#
# Static dielectric constant tensor:
#      x y z
#    x 1.655980 0.000000 0.000000 
#    y 0.000000 1.655980 0.000000 
#    z 0.000000 0.000000 1.669330 
# 
# From -- ./inp_files/2287.got.cif
#   From: 2010.05.17/outbox.cif.g08.bks.cpg/sg136_2_cif.got.tgz:2287.got - 2010.05.20 12:54:53.
