data_PCOD9569916
_publ_section_title
;
Structure prediction by ZEFSAII (Michael W. Deem and Ramdas Pophale) SiO2 
 PCOD9569916
Probable space group: P 42/M N M
;
_chemical_formula_sum "Si O2"
_cell_formula_units_Z 104
_cell_length_a 18.000000
_cell_length_b 18.000000
_cell_length_c 18.000000
_cell_angle_alpha 90.000000
_cell_angle_beta 90.000000
_cell_angle_gamma 90.000000
_cell_volume 5832.000000
_symmetry_space_group_name_H-M "P 42/M N M"
_symmetry_group_IT_number 136
_symmetry_cell_setting 'tetragonal'
loop_
_space_group_symop_operation_xyz
x,y,z
1/2-y,1/2+x,1/2+z
-x,-y,z
1/2+y,1/2-x,1/2+z
1/2+x,1/2-y,1/2-z
1/2-x,1/2+y,1/2-z
y,x,-z
-y,-x,-z
-x,-y,-z
1/2+y,1/2-x,1/2-z
x,y,-z
1/2-y,1/2+x,1/2-z
1/2-x,1/2+y,1/2+z
1/2+x,1/2-y,1/2+z
-y,-x,z
y,x,z
loop_
_atom_site_type_symbol
_atom_site_label
_atom_site_fract_x
_atom_site_fract_y
_atom_site_fract_z
Si Si1 0.503693 0.378364 0.695189
Si Si2 0.663243 0.981426 0.326140
Si Si3 0.942642 0.569679 0.918304
Si Si4 0.092988 0.782255 0.912435
Si Si5 0.622484 0.505036 0.000000
Si Si6 0.681808 0.439426 0.147271
Si Si7 0.149359 0.445993 0.679469
O O1 0.575611 0.424390 0.668475
O O2 0.438270 0.438270 0.706482
O O3 0.473328 0.321275 0.634129
O O4 0.524139 0.345257 0.775512
O O5 0.730843 0.930229 0.348721
O O6 0.595879 0.927512 0.304022
O O7 0.633527 0.034778 0.390217
O O8 0.685303 0.032545 0.257082
O O9 0.000000 0.500000 0.920824
O O10 0.978440 0.628426 0.863044
O O11 0.936907 0.601668 0.000000
O O12 0.164985 0.835016 0.904152
O O13 0.100835 0.702421 0.873938
O O14 0.076954 0.776040 0.000000
O O15 0.665277 0.490360 0.076111
O O16 0.584663 0.584663 0.000000
O O17 0.556336 0.443665 0.000000
O O18 0.635871 0.364129 0.137775
#
# Coordination Sequence:
#
# PCOD9569916 Si02
#       7
#    16  16  16  16   8  16  16
#     4   9  17  31  53  77 101 130 170 221 267 308
#     4  11  21  33  56  79 108 138 180 225 269 318
#     4   9  19  33  53  78 102 132 173 223 269 309
#     4  10  21  36  54  79 110 143 180 219 271 333
#     4   9  18  34  56  80 107 140 182 228 267 314
#     4  10  20  34  52  78 109 142 177 215 271 331
#     4  11  20  36  55  78 107 142 177 225 272 322
#
# _framework density 17.832647000000001
#
# number of rings (size 3 to 8) (size 9 to 14) (size 15 to 20)
#    0.000    2.077    3.077    0.923    1.077    3.385 
#    0.000    1.538    0.000    0.000    0.000    0.000 
#    0.000    0.000    0.000    0.000    0.000    0.000 
#
# Total GULP energy -579049.856087 kJ/mol
# GULP energy per Si atom -5567.787078 kJ/mol
# Density = 1.779206 g / cm^3
# Si number density = 17.832647 Si / 1000 Ang^3
#
#
#
# Elastic Constant Matrix: (Units=GPa)
#
#
# Indices 1 2 3 4 5 6 
#
# 1 47.6491 2.5719 19.5715 0.0000 0.0000 0.0000
# 2 2.5719 47.6491 19.5715 0.0000 0.0000 0.0000
# 3 19.5715 19.5715 86.1002 0.0000 0.0000 0.0000
# 4 0.0000 0.0000 0.0000 17.2957 0.0000 0.0000
# 5 0.0000 0.0000 0.0000 0.0000 17.2959 0.0000
# 6 0.0000 0.0000 0.0000 0.0000 0.0000 13.6821
#
#
#
# Elastic Compliance Matrix: (Units=1/GPa)
#
#
# Indices 1 2 3 4 5 6 
#
# 1 0.023192 0.001008 -0.005501 0.000000 0.000000 0.000000
# 2 0.001008 0.023192 -0.005501 0.000000 0.000000 0.000000
# 3 -0.005501 -0.005501 0.014115 0.000000 0.000000 0.000000
# 4 0.000000 0.000000 0.000000 0.057818 0.000000 0.000000
# 5 0.000000 0.000000 0.000000 0.000000 0.057817 0.000000
# 6 0.000000 0.000000 0.000000 0.000000 0.000000 0.073088
#
#
# Mechanical properties :
#
#
# Convention : Reuss Voigt Hill
#
# Bulk Modulus (GPa) = 24.68477 29.42534 27.05506
# Shear Modulus (GPa) = 17.68575 18.96697 18.32636
#
# Velocity S-wave (km/s) = 3.15264 3.26484 3.20923
# Velocity P-wave (km/s) = 5.20814 5.54517 5.37929
#
# Compressibility (1/GPa) = 0.04051080
#
# Stress axis : x y z
#
# Youngs Moduli (GPa) = 43.11878 43.11875 70.84594
#
# Poissons Ratio (x) = -0.04345 0.38971
# Poissons Ratio (y) = -0.04345 0.38971
# Poissons Ratio (z) = 0.23719 0.23719
#
# Static dielectric constant tensor:
#      x y z
#    x 1.628330 0.000000 0.000000 
#    y 0.000000 1.628330 0.000000 
#    z 0.000000 0.000000 1.627800 
# 
# From -- ./inp_files/6414.got.cif
#   From: 2010.05.17/outbox.ucp.g08.bks.cvg/sg136_4_cif.got.tgz:6414.got - 2010.06.11 11:40:42.
