data_PCOD9569656
_publ_section_title
;
Structure prediction by ZEFSAII (Michael W. Deem and Ramdas Pophale) SiO2 
 PCOD9569656
Probable space group: P 42/M N M
;
_chemical_formula_sum "Si O2"
_cell_formula_units_Z 58
_cell_length_a 16.530164
_cell_length_b 16.530164
_cell_length_c 9.193195
_cell_angle_alpha 90.000000
_cell_angle_beta 90.000000
_cell_angle_gamma 90.000000
_cell_volume 2512.006720
_symmetry_space_group_name_H-M "P 42/M N M"
_symmetry_group_IT_number 136
_symmetry_cell_setting 'tetragonal'
loop_
_space_group_symop_operation_xyz
x,y,z
1/2-y,1/2+x,1/2+z
-x,-y,z
1/2+y,1/2-x,1/2+z
1/2+x,1/2-y,1/2-z
1/2-x,1/2+y,1/2-z
y,x,-z
-y,-x,-z
-x,-y,-z
1/2+y,1/2-x,1/2-z
x,y,-z
1/2-y,1/2+x,1/2-z
1/2-x,1/2+y,1/2+z
1/2+x,1/2-y,1/2+z
-y,-x,z
y,x,z
loop_
_atom_site_type_symbol
_atom_site_label
_atom_site_fract_x
_atom_site_fract_y
_atom_site_fract_z
Si Si1 0.500000 0.500000 0.000000
Si Si2 0.058829 0.602600 0.327907
Si Si3 0.064593 0.935408 0.206622
Si Si4 0.195679 0.668931 0.832987
Si Si5 0.805221 0.943686 0.158787
O O1 0.549333 0.549333 0.874855
O O2 0.101497 0.519191 0.276157
O O3 0.041219 0.602807 0.500000
O O4 0.120921 0.670969 0.276948
O O5 0.031581 0.846642 0.169929
O O6 0.000000 0.000000 0.141190
O O7 0.254114 0.745887 0.819542
O O8 0.250309 0.590967 0.787436
O O9 0.168923 0.661073 0.000000
O O10 0.880320 0.880320 0.159961
O O11 0.764461 0.935797 0.000000
#
# Coordination Sequence:
#
# PCOD9569656 Si02
#       5
#     2  16   8  16  16
#     4   8  16  20  34  60  88 128 186 240 296 324
#     4  11  22  40  67  95 125 158 205 256 308 364
#     4   8  15  22  38  57  93 133 188 235 287 338
#     4  10  21  35  57  88 124 161 200 247 304 367
#     4   9  16  26  42  67 101 142 189 236 286 341
#
# _framework density 23.089112
#
# number of rings (size 3 to 8) (size 9 to 14) (size 15 to 20)
#    0.414    1.931    0.000    4.552    1.931    3.310 
#    0.000    0.000    3.034    0.000    0.000    0.000 
#    0.000    0.000    0.000    0.000    0.000    0.000 
#
# Total GULP energy -322914.830807 kJ/mol
# GULP energy per Si atom -5567.497083 kJ/mol
# Density = 2.303656 g / cm^3
# Si number density = 23.089112 Si / 1000 Ang^3
#
#
#
# Elastic Constant Matrix: (Units=GPa)
#
#
# Indices 1 2 3 4 5 6 
#
# 1 34.0805 22.4843 4.5004 0.0000 0.0000 0.0000
# 2 22.4843 34.0805 4.5004 0.0000 0.0000 0.0000
# 3 4.5004 4.5004 154.9799 0.0000 0.0000 0.0000
# 4 0.0000 0.0000 0.0000 38.1317 0.0000 0.0000
# 5 0.0000 0.0000 0.0000 0.0000 38.1317 0.0000
# 6 0.0000 0.0000 0.0000 0.0000 0.0000 -7.8652
#
#
#
# Elastic Compliance Matrix: (Units=1/GPa)
#
#
# Indices 1 2 3 4 5 6 
#
# 1 0.051998 -0.034237 -0.000516 0.000000 0.000000 0.000000
# 2 -0.034237 0.051998 -0.000516 0.000000 0.000000 0.000000
# 3 -0.000516 -0.000516 0.006482 0.000000 0.000000 0.000000
# 4 0.000000 0.000000 0.000000 0.026225 0.000000 0.000000
# 5 0.000000 0.000000 0.000000 0.000000 0.026225 0.000000
# 6 0.000000 0.000000 0.000000 0.000000 0.000000 -0.127142
#
#
# Mechanical properties :
#
#
# Convention : Reuss Voigt Hill
#
# Bulk Modulus (GPa) = 25.03678 31.79012 28.41345
# Shear Modulus (GPa) = 41.79313 26.45671 34.12492
#
# Velocity S-wave (km/s) = 4.25912 3.38872 3.84860
# Velocity P-wave (km/s) = 5.92063 5.39533 5.66407
#
# Compressibility (1/GPa) = 0.03994124
#
# Stress axis : x y z
#
# Youngs Moduli (GPa) = 19.23148 19.23148 154.26382
#
# Poissons Ratio (x) = 0.65843 0.07956
# Poissons Ratio (y) = 0.65843 0.07956
# Poissons Ratio (z) = 0.00992 0.00992
#
# Static dielectric constant tensor:
#      x y z
#    x 1.944300 0.000000 0.000000 
#    y 0.000000 1.944300 0.000000 
#    z 0.000000 0.000000 1.811910 
# 
# From -- ./inp_files/1182.got.cif
#   From: 2010.05.17/outbox.cif.g08.bks.cpg/sg136_1_cif.got.tgz:1182.got - 2010.05.20 12:54:53.
