data_PCOD9569099
_publ_section_title
;
Structure prediction by ZEFSAII (Michael W. Deem and Ramdas Pophale) SiO2 
 PCOD9569099
Probable space group: P 42/M N M
;
_chemical_formula_sum "Si O2"
_cell_formula_units_Z 92
_cell_length_a 22.544082
_cell_length_b 22.544082
_cell_length_c 14.630181
_cell_angle_alpha 90.000000
_cell_angle_beta 90.000000
_cell_angle_gamma 90.000000
_cell_volume 7435.579305
_symmetry_space_group_name_H-M "P 42/M N M"
_symmetry_group_IT_number 136
_symmetry_cell_setting 'tetragonal'
loop_
_space_group_symop_operation_xyz
x,y,z
1/2-y,1/2+x,1/2+z
-x,-y,z
1/2+y,1/2-x,1/2+z
1/2+x,1/2-y,1/2-z
1/2-x,1/2+y,1/2-z
y,x,-z
-y,-x,-z
-x,-y,-z
1/2+y,1/2-x,1/2-z
x,y,-z
1/2-y,1/2+x,1/2-z
1/2-x,1/2+y,1/2+z
1/2+x,1/2-y,1/2+z
-y,-x,z
y,x,z
loop_
_atom_site_type_symbol
_atom_site_label
_atom_site_fract_x
_atom_site_fract_y
_atom_site_fract_z
Si Si1 0.406052 0.693993 0.185096
Si Si2 0.275583 0.376290 0.390989
Si Si3 0.667277 0.511178 0.687865
Si Si4 0.217949 0.680218 0.894938
Si Si5 0.063502 0.936499 0.500000
Si Si6 0.952526 0.047475 0.288111
Si Si7 0.459466 0.639979 0.000000
Si Si8 0.998737 0.098902 0.000000
O O1 0.357413 0.642588 0.205614
O O2 0.454830 0.696182 0.263706
O O3 0.371511 0.755174 0.166586
O O4 0.437262 0.673722 0.090226
O O5 0.273683 0.389893 0.500000
O O6 0.330174 0.330174 0.378640
O O7 0.289152 0.434137 0.332194
O O8 0.215348 0.341151 0.367042
O O9 0.612339 0.530978 0.752005
O O10 0.637827 0.496258 0.590539
O O11 0.269315 0.730686 0.896858
O O12 0.211101 0.659761 0.000000
O O13 0.044661 0.955340 0.397516
O O14 0.030040 0.872333 0.500000
O O15 0.000000 0.000000 0.250221
O O16 0.423444 0.576557 0.000000
O O17 0.048813 0.048813 0.000000
O O18 0.935316 0.064685 0.000000
#
# Coordination Sequence:
#
# PCOD9569099 Si02
#       8
#    16  16  16  16   4   8   8   8
#     4  10  18  27  39  59  81 108 141 180 213 251
#     4   9  16  28  42  59  80 108 141 182 218 245
#     4  12  20  27  38  57  84 114 147 175 205 247
#     4   8  14  26  45  60  76 101 137 183 230 251
#     4  12  21  28  34  50  82 124 150 178 200 236
#     4  12  21  27  36  53  81 122 151 173 202 237
#     4  10  17  24  35  50  77 107 142 171 204 233
#     4  11  20  28  35  49  82 124 155 174 188 223
#
# _framework density 12.372942999999999
#
# number of rings (size 3 to 8) (size 9 to 14) (size 15 to 20)
#    0.000    1.826    5.217    3.391    0.000    0.000 
#    0.000    0.000    0.000    0.000    0.000    2.435 
#    0.000    0.696    0.000    3.826    0.000    0.000 
#
# Total GULP energy -512210.330552 kJ/mol
# GULP energy per Si atom -5567.503593 kJ/mol
# Density = 1.234478 g / cm^3
# Si number density = 12.372943 Si / 1000 Ang^3
#
#
#
# Elastic Constant Matrix: (Units=GPa)
#
#
# Indices 1 2 3 4 5 6 
#
# 1 66.9988 50.9577 37.5321 0.0000 0.0000 0.0000
# 2 50.9577 66.9985 37.5321 0.0000 0.0000 0.0000
# 3 37.5321 37.5321 78.3287 0.0000 0.0000 0.0000
# 4 0.0000 0.0000 0.0000 6.2389 0.0000 0.0000
# 5 0.0000 0.0000 0.0000 0.0000 6.2387 0.0000
# 6 0.0000 0.0000 0.0000 0.0000 0.0000 26.1960
#
#
#
# Elastic Compliance Matrix: (Units=1/GPa)
#
#
# Indices 1 2 3 4 5 6 
#
# 1 0.037269 -0.025072 -0.005844 0.000000 0.000000 0.000000
# 2 -0.025072 0.037269 -0.005844 0.000000 0.000000 0.000000
# 3 -0.005844 -0.005844 0.018367 0.000000 0.000000 0.000000
# 4 0.000000 0.000000 0.000000 0.160285 0.000000 0.000000
# 5 0.000000 0.000000 0.000000 0.000000 0.160290 0.000000
# 6 0.000000 0.000000 0.000000 0.000000 0.000000 0.038174
#
#
# Mechanical properties :
#
#
# Convention : Reuss Voigt Hill
#
# Bulk Modulus (GPa) = 51.58880 51.59664 51.59272
# Shear Modulus (GPa) = 9.40494 13.48832 11.44663
#
# Velocity S-wave (km/s) = 2.76002 3.30532 3.04490
# Velocity P-wave (km/s) = 7.20710 7.50723 7.35870
#
# Compressibility (1/GPa) = 0.01938405
#
# Stress axis : x y z
#
# Youngs Moduli (GPa) = 26.83231 26.83216 54.44435
#
# Poissons Ratio (x) = 0.67273 0.31818
# Poissons Ratio (y) = 0.67273 0.31819
# Poissons Ratio (z) = 0.15681 0.15682
#
# Static dielectric constant tensor:
#      x y z
#    x 1.405440 0.000000 0.000000 
#    y 0.000000 1.405440 0.000000 
#    z 0.000000 0.000000 1.403090 
# 
# From -- ./inp_files/5241.got.cif
#   From: 2010.05.17/outbox.cif.g08.bks.cpg/sg136_3_cif.got.tgz:5241.got - 2010.05.20 12:54:53.
