data_PCOD9569716
_publ_section_title
;
Structure prediction by ZEFSAII (Michael W. Deem and Ramdas Pophale) SiO2 
 PCOD9569716
Probable space group: P 42/M N M
;
_chemical_formula_sum "Si O2"
_cell_formula_units_Z 68
_cell_length_a 17.835837
_cell_length_b 17.835837
_cell_length_c 11.272167
_cell_angle_alpha 90.000000
_cell_angle_beta 90.000000
_cell_angle_gamma 90.000000
_cell_volume 3585.868868
_symmetry_space_group_name_H-M "P 42/M N M"
_symmetry_group_IT_number 136
_symmetry_cell_setting 'tetragonal'
loop_
_space_group_symop_operation_xyz
x,y,z
1/2-y,1/2+x,1/2+z
-x,-y,z
1/2+y,1/2-x,1/2+z
1/2+x,1/2-y,1/2-z
1/2-x,1/2+y,1/2-z
y,x,-z
-y,-x,-z
-x,-y,-z
1/2+y,1/2-x,1/2-z
x,y,-z
1/2-y,1/2+x,1/2-z
1/2-x,1/2+y,1/2+z
1/2+x,1/2-y,1/2+z
-y,-x,z
y,x,z
loop_
_atom_site_type_symbol
_atom_site_label
_atom_site_fract_x
_atom_site_fract_y
_atom_site_fract_z
Si Si1 0.619588 0.887090 0.710368
Si Si2 0.482274 0.640338 0.000000
Si Si3 0.122913 0.995265 0.235377
Si Si4 0.232707 0.644825 0.000000
Si Si5 0.000000 0.500000 0.250000
Si Si6 0.786246 0.492922 0.638712
O O1 0.680780 0.866779 0.613429
O O2 0.562569 0.817623 0.716852
O O3 0.562594 0.955215 0.676051
O O4 0.665175 0.920518 0.821669
O O5 0.521713 0.643847 0.872967
O O6 0.419739 0.704848 0.000000
O O7 0.438666 0.561335 0.000000
O O8 0.066577 0.066577 0.234632
O O9 0.198577 0.014474 0.166454
O O10 0.075114 0.924887 0.187736
O O11 0.276627 0.723374 0.000000
O O12 0.798274 0.508951 0.500000
#
# Coordination Sequence:
#
# PCOD9569716 Si02
#       6
#    16   8  16   8   4  16
#     4  10  21  41  58  89 118 152 196 243 294 359
#     4   9  17  34  60  87 116 152 194 240 292 349
#     4  10  21  38  61  89 120 157 202 248 297 354
#     4  11  20  34  63  88 115 158 200 242 294 352
#     4   8  20  38  60  84 114 152 186 244 296 346
#     4  11  23  41  61  89 120 156 197 246 302 355
#
# _framework density 18.963325000000001
#
# number of rings (size 3 to 8) (size 9 to 14) (size 15 to 20)
#    0.000    1.882    3.529    0.353    0.000    3.765 
#   14.824    1.176    0.000    0.000    0.000    0.000 
#    0.000    0.000    0.000    0.000    0.000    0.000 
#
# Total GULP energy -378790.292051 kJ/mol
# GULP energy per Si atom -5570.445471 kJ/mol
# Density = 1.892016 g / cm^3
# Si number density = 18.963325 Si / 1000 Ang^3
#
#
#
# Elastic Constant Matrix: (Units=GPa)
#
#
# Indices 1 2 3 4 5 6 
#
# 1 93.2732 49.2163 23.3684 0.0000 0.0000 0.0000
# 2 49.2163 93.2732 23.3684 0.0000 0.0000 0.0000
# 3 23.3684 23.3684 43.3615 0.0000 0.0000 0.0000
# 4 0.0000 0.0000 0.0000 -53.6497 0.0000 0.0000
# 5 0.0000 0.0000 0.0000 0.0000 -54.0614 0.0000
# 6 0.0000 0.0000 0.0000 0.0000 0.0000 17.7561
#
#
#
# Elastic Compliance Matrix: (Units=1/GPa)
#
#
# Indices 1 2 3 4 5 6 
#
# 1 0.015611 -0.007086 -0.004594 0.000000 0.000000 0.000000
# 2 -0.007086 0.015611 -0.004594 0.000000 0.000000 0.000000
# 3 -0.004594 -0.004594 0.028014 0.000000 0.000000 0.000000
# 4 0.000000 0.000000 0.000000 -0.018639 0.000000 0.000000
# 5 0.000000 0.000000 0.000000 0.000000 -0.018497 0.000000
# 6 0.000000 0.000000 0.000000 0.000000 0.000000 0.056319
#
#
# Mechanical properties :
#
#
# Convention : Reuss Voigt Hill
#
# Bulk Modulus (GPa) = 37.47188 46.86822 42.17005
# Shear Modulus (GPa) = 41.71387 -9.06068 16.32660
#
# Velocity S-wave (km/s) = 4.69520 -2.18824 2.93739
# Velocity P-wave (km/s) = 7.01400 4.28770 5.81294
#
# Compressibility (1/GPa) = 0.02668668
#
# Stress axis : x y z
#
# Youngs Moduli (GPa) = 64.05551 64.05552 35.69662
#
# Poissons Ratio (x) = 0.45393 0.16400
# Poissons Ratio (y) = 0.45393 0.16400
# Poissons Ratio (z) = 0.29429 0.29429
#
# Static dielectric constant tensor:
#      x y z
#    x 1.676920 0.000000 0.000000 
#    y 0.000000 1.676920 0.000000 
#    z 0.000000 0.000000 1.651370 
# 
# From -- ./inp_files/3504.got.cif
#   From: 2010.05.17/outbox.cif.g08.bks.cpg/sg136_2_cif.got.tgz:3504.got - 2010.05.20 12:54:53.
