data_PCOD9569247
_publ_section_title
;
Structure prediction by ZEFSAII (Michael W. Deem and Ramdas Pophale) SiO2 
 PCOD9569247
Probable space group: P 42/M N M
;
_chemical_formula_sum "Si O2"
_cell_formula_units_Z 80
_cell_length_a 11.081310
_cell_length_b 11.081310
_cell_length_c 32.501460
_cell_angle_alpha 90.000000
_cell_angle_beta 90.000000
_cell_angle_gamma 90.000000
_cell_volume 3991.030799
_symmetry_space_group_name_H-M "P 42/M N M"
_symmetry_group_IT_number 136
_symmetry_cell_setting 'tetragonal'
loop_
_space_group_symop_operation_xyz
x,y,z
1/2-y,1/2+x,1/2+z
-x,-y,z
1/2+y,1/2-x,1/2+z
1/2+x,1/2-y,1/2-z
1/2-x,1/2+y,1/2-z
y,x,-z
-y,-x,-z
-x,-y,-z
1/2+y,1/2-x,1/2-z
x,y,-z
1/2-y,1/2+x,1/2-z
1/2-x,1/2+y,1/2+z
1/2+x,1/2-y,1/2+z
-y,-x,z
y,x,z
loop_
_atom_site_type_symbol
_atom_site_label
_atom_site_fract_x
_atom_site_fract_y
_atom_site_fract_z
Si Si1 0.506164 0.701503 0.953427
Si Si2 0.238231 0.043731 0.780141
Si Si3 0.112285 0.320209 0.621650
Si Si4 0.501771 0.310316 0.371382
Si Si5 0.923179 0.276522 0.694379
O O1 0.401873 0.598128 0.953223
O O2 0.630079 0.630079 0.944591
O O3 0.468765 0.793531 0.918210
O O4 0.511252 0.750252 0.000000
O O5 0.162165 0.162165 0.769432
O O6 0.365563 0.093963 0.795518
O O7 0.185734 0.990177 0.821836
O O8 0.235803 0.966904 0.739355
O O9 0.220294 0.220294 0.623369
O O10 0.178570 0.450083 0.617963
O O11 0.029597 0.295829 0.661660
O O12 0.635839 0.364162 0.380518
O O13 0.407476 0.407476 0.389190
O O14 0.821726 0.178275 0.679875
#
# Coordination Sequence:
#
# PCOD9569247 Si02
#       5
#    16  16  16  16  16
#     4   8  14  26  45  70 101 132 158 193 251 318
#     4  10  21  34  46  64  93 130 167 202 249 303
#     4  10  19  30  48  74  99 126 164 207 250 299
#     4   9  18  33  50  66  89 125 167 208 250 298
#     4  11  22  33  47  70  98 128 168 215 256 299
#
# _framework density 20.044944999999998
#
# number of rings (size 3 to 8) (size 9 to 14) (size 15 to 20)
#    0.000    2.400    0.000    3.600    0.000    9.200 
#    0.000    0.000    0.000    0.600    0.000    7.000 
#    0.000    4.800    0.000    0.200    0.000    0.200 
#
# Total GULP energy -445522.749904 kJ/mol
# GULP energy per Si atom -5569.034374 kJ/mol
# Density = 1.999932 g / cm^3
# Si number density = 20.044945 Si / 1000 Ang^3
#
#
#
# Elastic Constant Matrix: (Units=GPa)
#
#
# Indices 1 2 3 4 5 6 
#
# 1 18.0880 95.5369 39.5334 0.0000 0.0000 0.0000
# 2 95.5369 18.0880 39.5334 0.0000 0.0000 0.0000
# 3 39.5334 39.5334 85.5515 0.0000 0.0000 0.0000
# 4 0.0000 0.0000 0.0000 7.1786 0.0000 0.0000
# 5 0.0000 0.0000 0.0000 0.0000 7.1786 0.0000
# 6 0.0000 0.0000 0.0000 0.0000 0.0000 33.5829
#
#
#
# Elastic Compliance Matrix: (Units=1/GPa)
#
#
# Indices 1 2 3 4 5 6 
#
# 1 0.000030 0.012942 -0.005994 0.000000 0.000000 0.000000
# 2 0.012942 0.000030 -0.005994 0.000000 0.000000 0.000000
# 3 -0.005994 -0.005994 0.017229 0.000000 0.000000 0.000000
# 4 0.000000 0.000000 0.000000 0.139303 0.000000 0.000000
# 5 0.000000 0.000000 0.000000 0.000000 0.139303 0.000000
# 6 0.000000 0.000000 0.000000 0.000000 0.000000 0.029777
#
#
# Mechanical properties :
#
#
# Convention : Reuss Voigt Hill
#
# Bulk Modulus (GPa) = 52.09556 52.32610 52.21083
# Shear Modulus (GPa) = 15.14395 6.06295 10.60345
#
# Velocity S-wave (km/s) = 2.75162 1.74105 2.30246
# Velocity P-wave (km/s) = 6.01174 5.49570 5.75950
#
# Compressibility (1/GPa) = 0.01919549
#
# Stress axis : x y z
#
# Youngs Moduli (GPa) = 33096.24148 33096.24148 58.04190
#
# Poissons Ratio (x) = -428.33030 0.34793
# Poissons Ratio (y) = -428.33030 0.34793
# Poissons Ratio (z) = 198.39371 198.39371
#
# Static dielectric constant tensor:
#      x y z
#    x 1.819530 0.000000 0.000000 
#    y 0.000000 1.819530 0.000000 
#    z 0.000000 0.000000 1.688270 
# 
# From -- ./inp_files/9512.got.cif
#   From: 2010.05.17/outbox.cif.g08.bks.cpg/sg136_5_cif.got.tgz:9512.got - 2010.05.20 12:54:53.
