data_PCOD9569856
_publ_section_title
;
Structure prediction by ZEFSAII (Michael W. Deem and Ramdas Pophale) SiO2 
 PCOD9569856
Probable space group: P 42/M N M
;
_chemical_formula_sum "Si O2"
_cell_formula_units_Z 60
_cell_length_a 11.461046
_cell_length_b 11.461046
_cell_length_c 23.156216
_cell_angle_alpha 90.000000
_cell_angle_beta 90.000000
_cell_angle_gamma 90.000000
_cell_volume 3041.698077
_symmetry_space_group_name_H-M "P 42/M N M"
_symmetry_group_IT_number 136
_symmetry_cell_setting 'tetragonal'
loop_
_space_group_symop_operation_xyz
x,y,z
1/2-y,1/2+x,1/2+z
-x,-y,z
1/2+y,1/2-x,1/2+z
1/2+x,1/2-y,1/2-z
1/2-x,1/2+y,1/2-z
y,x,-z
-y,-x,-z
-x,-y,-z
1/2+y,1/2-x,1/2-z
x,y,-z
1/2-y,1/2+x,1/2-z
1/2-x,1/2+y,1/2+z
1/2+x,1/2-y,1/2+z
-y,-x,z
y,x,z
loop_
_atom_site_type_symbol
_atom_site_label
_atom_site_fract_x
_atom_site_fract_y
_atom_site_fract_z
Si Si1 0.281895 0.993919 0.167080
Si Si2 0.419163 0.768921 0.204178
Si Si3 0.000000 0.000000 0.152783
Si Si4 0.804197 0.994695 0.500000
Si Si5 0.894590 0.299855 0.610142
O O1 0.299614 0.054933 0.229605
O O2 0.353078 0.068357 0.120037
O O3 0.337196 0.866662 0.175289
O O4 0.144909 0.998480 0.154345
O O5 0.353642 0.646359 0.202912
O O6 0.536648 0.762343 0.167561
O O7 0.870713 0.870713 0.500000
O O8 0.727826 0.021293 0.443493
O O9 0.907813 0.092188 0.500000
O O10 0.780407 0.219594 0.603353
#
# Coordination Sequence:
#
# PCOD9569856 Si02
#       5
#    16  16   4   8  16
#     4  12  24  40  58  92 130 172 211 269 322 392
#     4  12  24  37  59  91 131 167 216 265 320 385
#     4  12  24  40  64  85 130 173 222 260 324 394
#     4   9  20  42  67  96 126 166 225 280 321 384
#     4  11  23  40  66  93 127 167 212 270 335 384
#
# _framework density 19.725822999999998
#
# number of rings (size 3 to 8) (size 9 to 14) (size 15 to 20)
#    0.000    0.667    6.667    1.600    1.867    1.600 
#    0.000    2.667    0.000    1.600    0.000    0.000 
#    0.000    0.000    0.000    0.000    0.000    0.000 
#
# Total GULP energy -334189.410308 kJ/mol
# GULP energy per Si atom -5569.823505 kJ/mol
# Density = 1.968093 g / cm^3
# Si number density = 19.725823 Si / 1000 Ang^3
#
#
#
# Elastic Constant Matrix: (Units=GPa)
#
#
# Indices 1 2 3 4 5 6 
#
# 1 63.9848 -4.6774 23.6859 0.0000 0.0000 0.0000
# 2 -4.6774 63.9848 23.6859 0.0000 0.0000 0.0000
# 3 23.6859 23.6859 81.5727 0.0000 0.0000 0.0000
# 4 0.0000 0.0000 0.0000 19.2940 0.0000 0.0000
# 5 0.0000 0.0000 0.0000 0.0000 19.2941 0.0000
# 6 0.0000 0.0000 0.0000 0.0000 0.0000 19.8260
#
#
#
# Elastic Compliance Matrix: (Units=1/GPa)
#
#
# Indices 1 2 3 4 5 6 
#
# 1 0.018258 0.003694 -0.006374 0.000000 0.000000 0.000000
# 2 0.003694 0.018258 -0.006374 0.000000 0.000000 0.000000
# 3 -0.006374 -0.006374 0.015961 0.000000 0.000000 0.000000
# 4 0.000000 0.000000 0.000000 0.051830 0.000000 0.000000
# 5 0.000000 0.000000 0.000000 0.000000 0.051829 0.000000
# 6 0.000000 0.000000 0.000000 0.000000 0.000000 0.050439
#
#
# Mechanical properties :
#
#
# Convention : Reuss Voigt Hill
#
# Bulk Modulus (GPa) = 29.09596 32.77013 30.93304
# Shear Modulus (GPa) = 21.17386 22.80602 21.98994
#
# Velocity S-wave (km/s) = 3.27985 3.40391 3.34245
# Velocity P-wave (km/s) = 5.39679 5.66548 5.53277
#
# Compressibility (1/GPa) = 0.03436904
#
# Stress axis : x y z
#
# Youngs Moduli (GPa) = 54.76917 54.76921 62.65355
#
# Poissons Ratio (x) = -0.20234 0.39938
# Poissons Ratio (y) = -0.20234 0.39938
# Poissons Ratio (z) = 0.34912 0.34912
#
# Static dielectric constant tensor:
#      x y z
#    x 1.683040 0.000000 0.000000 
#    y 0.000000 1.683040 0.000000 
#    z 0.000000 0.000000 1.697310 
# 
# From -- ./inp_files/7057.got.cif
#   From: 2010.05.17/outbox.cif.g08.bks.cpg/sg136_4_cif.got.tgz:7057.got - 2010.05.20 12:54:53.
