data_PCOD9569488
_publ_section_title
;
Structure prediction by ZEFSAII (Michael W. Deem and Ramdas Pophale) SiO2 
 PCOD9569488
Probable space group: P 42/M N M
;
_chemical_formula_sum "Si O2"
_cell_formula_units_Z 120
_cell_length_a 21.636757
_cell_length_b 21.636757
_cell_length_c 14.043955
_cell_angle_alpha 90.000000
_cell_angle_beta 90.000000
_cell_angle_gamma 90.000000
_cell_volume 6574.667049
_symmetry_space_group_name_H-M "P 42/M N M"
_symmetry_group_IT_number 136
_symmetry_cell_setting 'tetragonal'
loop_
_space_group_symop_operation_xyz
x,y,z
1/2-y,1/2+x,1/2+z
-x,-y,z
1/2+y,1/2-x,1/2+z
1/2+x,1/2-y,1/2-z
1/2-x,1/2+y,1/2-z
y,x,-z
-y,-x,-z
-x,-y,-z
1/2+y,1/2-x,1/2-z
x,y,-z
1/2-y,1/2+x,1/2-z
1/2-x,1/2+y,1/2+z
1/2+x,1/2-y,1/2+z
-y,-x,z
y,x,z
loop_
_atom_site_type_symbol
_atom_site_label
_atom_site_fract_x
_atom_site_fract_y
_atom_site_fract_z
Si Si1 0.553039 0.446962 0.390254
Si Si2 0.774653 0.551717 0.387179
Si Si3 0.180990 0.724667 0.803435
Si Si4 0.991805 0.212318 0.611875
Si Si5 0.620534 0.279619 0.780355
Si Si6 0.539116 0.641521 0.289859
Si Si7 0.623476 0.798070 0.109987
Si Si8 0.695591 0.918468 0.888567
O O1 0.500000 0.500000 0.395121
O O2 0.569032 0.430969 0.500000
O O3 0.521414 0.391776 0.332041
O O4 0.769316 0.554763 0.500000
O O5 0.796883 0.617291 0.349264
O O6 0.706935 0.544662 0.341776
O O7 0.813973 0.490448 0.363095
O O8 0.211514 0.788487 0.839381
O O9 0.231396 0.671684 0.817436
O O10 0.165739 0.732373 0.691184
O O11 0.994095 0.198112 0.500000
O O12 0.059714 0.222892 0.655064
O O13 0.965453 0.157526 0.678198
O O14 0.945480 0.271114 0.624103
O O15 0.654173 0.345828 0.777236
O O16 0.603984 0.252305 0.676563
O O17 0.596853 0.596853 0.308696
O O18 0.638315 0.871130 0.124149
O O19 0.640312 0.783694 0.000000
O O20 0.712222 0.915851 0.000000
#
# Coordination Sequence:
#
# PCOD9569488 Si02
#       8
#     8  16  16  16  16  16  16  16
#     4   9  20  38  57  77 107 149 188 230 285 337
#     4  11  21  34  55  83 113 145 180 226 287 348
#     4  10  20  34  54  82 115 149 183 228 285 347
#     4  11  23  38  57  79 108 152 197 236 282 332
#     4  10  21  37  56  80 114 151 189 233 283 340
#     4  11  22  37  55  80 112 145 191 238 280 335
#     4   9  18  34  56  80 107 144 190 237 283 333
#     4   9  18  34  57  84 112 143 184 233 288 343
#
# _framework density 18.251875999999999
#
# number of rings (size 3 to 8) (size 9 to 14) (size 15 to 20)
#    0.000    1.933    2.667    0.800    0.933    3.200 
#    0.000    5.333    0.000    2.000    0.000    7.467 
#    0.000    0.000    0.000    0.000    0.000    0.533 
#
# Total GULP energy -668663.168051 kJ/mol
# GULP energy per Si atom -5572.193067 kJ/mol
# Density = 1.821033 g / cm^3
# Si number density = 18.251876 Si / 1000 Ang^3
#
#
#
# Elastic Constant Matrix: (Units=GPa)
#
#
# Indices 1 2 3 4 5 6 
#
# 1 80.3164 37.2954 23.6808 0.0000 0.0000 0.0000
# 2 37.2954 80.3164 23.6808 0.0000 0.0000 0.0000
# 3 23.6808 23.6808 71.7776 0.0000 0.0000 0.0000
# 4 0.0000 0.0000 0.0000 19.8464 0.0000 0.0000
# 5 0.0000 0.0000 0.0000 0.0000 19.8465 0.0000
# 6 0.0000 0.0000 0.0000 0.0000 0.0000 21.5985
#
#
#
# Elastic Compliance Matrix: (Units=1/GPa)
#
#
# Indices 1 2 3 4 5 6 
#
# 1 0.016525 -0.006720 -0.003235 0.000000 0.000000 0.000000
# 2 -0.006720 0.016525 -0.003235 0.000000 0.000000 0.000000
# 3 -0.003235 -0.003235 0.016066 0.000000 0.000000 0.000000
# 4 0.000000 0.000000 0.000000 0.050387 0.000000 0.000000
# 5 0.000000 0.000000 0.000000 0.000000 0.050387 0.000000
# 6 0.000000 0.000000 0.000000 0.000000 0.000000 0.046300
#
#
# Mechanical properties :
#
#
# Convention : Reuss Voigt Hill
#
# Bulk Modulus (GPa) = 43.98083 44.63607 44.30845
# Shear Modulus (GPa) = 21.72521 22.10850 21.91685
#
# Velocity S-wave (km/s) = 3.45382 3.48415 3.46902
# Velocity P-wave (km/s) = 6.32883 6.37922 6.35407
#
# Compressibility (1/GPa) = 0.02273718
#
# Stress axis : x y z
#
# Youngs Moduli (GPa) = 60.51493 60.51492 62.24148
#
# Poissons Ratio (x) = 0.40664 0.20135
# Poissons Ratio (y) = 0.40664 0.20135
# Poissons Ratio (z) = 0.19576 0.19576
#
# Static dielectric constant tensor:
#      x y z
#    x 1.644020 0.000000 0.000000 
#    y 0.000000 1.644020 0.000000 
#    z 0.000000 0.000000 1.642600 
# 
# From -- ./inp_files/5331.got.cif
#   From: 2010.05.17/outbox.cif.g08.bks.cpg/sg136_3_cif.got.tgz:5331.got - 2010.05.20 12:54:53.
