data_PCOD9569681
_publ_section_title
;
Structure prediction by ZEFSAII (Michael W. Deem and Ramdas Pophale) SiO2 
 PCOD9569681
Probable space group: P 42/M N M
;
_chemical_formula_sum "Si O2"
_cell_formula_units_Z 72
_cell_length_a 18.887566
_cell_length_b 18.887566
_cell_length_c 11.964318
_cell_angle_alpha 90.000000
_cell_angle_beta 90.000000
_cell_angle_gamma 90.000000
_cell_volume 4268.152591
_symmetry_space_group_name_H-M "P 42/M N M"
_symmetry_group_IT_number 136
_symmetry_cell_setting 'tetragonal'
loop_
_space_group_symop_operation_xyz
x,y,z
1/2-y,1/2+x,1/2+z
-x,-y,z
1/2+y,1/2-x,1/2+z
1/2+x,1/2-y,1/2-z
1/2-x,1/2+y,1/2-z
y,x,-z
-y,-x,-z
-x,-y,-z
1/2+y,1/2-x,1/2-z
x,y,-z
1/2-y,1/2+x,1/2-z
1/2-x,1/2+y,1/2+z
1/2+x,1/2-y,1/2+z
-y,-x,z
y,x,z
loop_
_atom_site_type_symbol
_atom_site_label
_atom_site_fract_x
_atom_site_fract_y
_atom_site_fract_z
Si Si1 0.127700 0.249297 0.752490
Si Si2 0.717655 0.529077 0.704212
Si Si3 0.247099 0.638394 0.000000
Si Si4 0.764054 0.644616 0.867423
Si Si5 0.126819 0.756351 0.000000
Si Si6 0.441596 0.441596 0.363961
O O1 0.182007 0.182007 0.760441
O O2 0.105585 0.259435 0.622412
O O3 0.172034 0.315054 0.803024
O O4 0.052815 0.236973 0.811204
O O5 0.744981 0.568359 0.815875
O O6 0.749361 0.577969 0.607087
O O7 0.633470 0.536511 0.687740
O O8 0.187131 0.698294 0.000000
O O9 0.322919 0.677081 0.000000
O O10 0.695704 0.695704 0.849349
O O11 0.778221 0.641713 0.000000
O O12 0.169426 0.830575 0.000000
O O13 0.500000 0.500000 0.336904
O O14 0.437658 0.437658 0.500000
#
# Coordination Sequence:
#
# PCOD9569681 Si02
#       6
#    16  16   8  16   8   8
#     4  10  22  36  55  83 114 144 183 235 279 329
#     4  12  20  35  57  82 114 148 185 229 282 337
#     4   9  18  36  58  76 106 142 195 242 267 317
#     4  10  21  37  56  79 110 149 191 231 277 332
#     4  11  18  34  60  85 101 147 200 232 269 331
#     4  11  22  34  53  85 121 155 188 226 279 342
#
# _framework density 16.869125
#
# number of rings (size 3 to 8) (size 9 to 14) (size 15 to 20)
#    0.000    1.444    5.556    0.667    3.111    0.000 
#    0.000    0.000    0.000    1.333    0.000    3.111 
#    0.000    0.000    0.000    0.000    0.000    0.000 
#
# Total GULP energy -401194.186157 kJ/mol
# GULP energy per Si atom -5572.141474 kJ/mol
# Density = 1.683073 g / cm^3
# Si number density = 16.869125 Si / 1000 Ang^3
#
#
#
# Elastic Constant Matrix: (Units=GPa)
#
#
# Indices 1 2 3 4 5 6 
#
# 1 76.5377 31.4026 14.5734 0.0000 0.0000 0.0000
# 2 31.4026 76.5374 14.5735 0.0000 0.0000 0.0000
# 3 14.5734 14.5735 68.0193 0.0000 0.0000 0.0000
# 4 0.0000 0.0000 0.0000 -13.4053 0.0000 0.0000
# 5 0.0000 0.0000 0.0000 0.0000 -13.3956 0.0000
# 6 0.0000 0.0000 0.0000 0.0000 0.0000 23.5924
#
#
#
# Elastic Compliance Matrix: (Units=1/GPa)
#
#
# Indices 1 2 3 4 5 6 
#
# 1 0.015995 -0.006161 -0.002107 0.000000 0.000000 0.000000
# 2 -0.006161 0.015995 -0.002107 0.000000 0.000000 0.000000
# 3 -0.002107 -0.002107 0.015604 0.000000 0.000000 0.000000
# 4 0.000000 0.000000 0.000000 -0.074597 0.000000 0.000000
# 5 0.000000 0.000000 0.000000 0.000000 -0.074651 0.000000
# 6 0.000000 0.000000 0.000000 0.000000 0.000000 0.042387
#
#
# Mechanical properties :
#
#
# Convention : Reuss Voigt Hill
#
# Bulk Modulus (GPa) = 37.25258 38.02149 37.63704
# Shear Modulus (GPa) = -169.08569 10.06129 -79.51220
#
# Velocity S-wave (km/s) = -10.02255 2.44485 -6.87292
# Velocity P-wave (km/s) = 10.57374 5.52790 6.37363
#
# Compressibility (1/GPa) = 0.02684378
#
# Stress axis : x y z
#
# Youngs Moduli (GPa) = 62.52144 62.52117 64.08408
#
# Poissons Ratio (x) = 0.38521 0.13501
# Poissons Ratio (y) = 0.38521 0.13502
# Poissons Ratio (z) = 0.13172 0.13172
#
# Static dielectric constant tensor:
#      x y z
#    x 1.545790 0.000000 0.000000 
#    y 0.000000 1.545790 0.000000 
#    z 0.000000 0.000000 1.643050 
# 
# From -- ./inp_files/3493.got.cif
#   From: 2010.05.17/outbox.cif.g08.bks.cpg/sg136_2_cif.got.tgz:3493.got - 2010.05.20 12:54:53.
