data_PCOD9569433
_publ_section_title
;
Structure prediction by ZEFSAII (Michael W. Deem and Ramdas Pophale) SiO2 
 PCOD9569433
Probable space group: P 42/M N M
;
_chemical_formula_sum "Si O2"
_cell_formula_units_Z 96
_cell_length_a 24.623780
_cell_length_b 24.623780
_cell_length_c 7.618855
_cell_angle_alpha 90.000000
_cell_angle_beta 90.000000
_cell_angle_gamma 90.000000
_cell_volume 4619.544478
_symmetry_space_group_name_H-M "P 42/M N M"
_symmetry_group_IT_number 136
_symmetry_cell_setting 'tetragonal'
loop_
_space_group_symop_operation_xyz
x,y,z
1/2-y,1/2+x,1/2+z
-x,-y,z
1/2+y,1/2-x,1/2+z
1/2+x,1/2-y,1/2-z
1/2-x,1/2+y,1/2-z
y,x,-z
-y,-x,-z
-x,-y,-z
1/2+y,1/2-x,1/2-z
x,y,-z
1/2-y,1/2+x,1/2-z
1/2-x,1/2+y,1/2+z
1/2+x,1/2-y,1/2+z
-y,-x,z
y,x,z
loop_
_atom_site_type_symbol
_atom_site_label
_atom_site_fract_x
_atom_site_fract_y
_atom_site_fract_z
Si Si1 0.930678 0.843716 0.212878
Si Si2 0.069981 0.738301 0.209074
Si Si3 0.045344 0.574451 0.296534
Si Si4 0.946439 0.718957 0.296504
Si Si5 0.551748 0.639216 0.714475
Si Si6 0.645979 0.141465 0.198433
O O1 0.881012 0.881012 0.272065
O O2 0.930220 0.781912 0.277216
O O3 0.988958 0.868715 0.264759
O O4 0.929657 0.841485 0.000000
O O5 0.068271 0.800244 0.274306
O O6 0.119503 0.701942 0.281831
O O7 0.008739 0.714672 0.232464
O O8 0.078486 0.740235 0.000000
O O9 0.070256 0.514188 0.283589
O O10 0.041774 0.590712 0.500000
O O11 0.085081 0.613239 0.193675
O O12 0.949063 0.703093 0.500000
O O13 0.897501 0.682831 0.216885
O O14 0.553029 0.639702 0.500000
O O15 0.592936 0.592936 0.774184
O O16 0.657469 0.161471 0.000000
#
# Coordination Sequence:
#
# PCOD9569433 Si02
#       6
#    16  16  16  16  16  16
#     4   9  18  33  53  76 102 133 167 203 248 303
#     4   9  18  33  51  71  98 131 165 205 252 299
#     4  11  21  32  46  65  91 123 160 207 260 306
#     4  10  20  33  50  73 101 133 169 209 252 297
#     4   8  14  27  50  78 102 124 156 200 247 293
#     4  10  20  33  48  69  96 128 169 210 248 296
#
# _framework density 20.781269999999999
#
# number of rings (size 3 to 8) (size 9 to 14) (size 15 to 20)
#    0.000    2.500    0.000    4.500    0.000    5.333 
#    0.000    2.500    0.000   11.000    0.000    4.667 
#    0.000    0.000    0.000    0.000    0.000    0.000 
#
# Total GULP energy -535321.255729 kJ/mol
# GULP energy per Si atom -5576.263081 kJ/mol
# Density = 2.073397 g / cm^3
# Si number density = 20.781270 Si / 1000 Ang^3
#
#
#
# Elastic Constant Matrix: (Units=GPa)
#
#
# Indices 1 2 3 4 5 6 
#
# 1 76.3452 67.7042 -5.6813 0.0000 0.0000 0.0000
# 2 67.7042 76.3452 -5.6813 0.0000 0.0000 0.0000
# 3 -5.6813 -5.6813 58.3676 0.0000 0.0000 0.0000
# 4 0.0000 0.0000 0.0000 11.6869 0.0000 0.0000
# 5 0.0000 0.0000 0.0000 0.0000 11.6869 0.0000
# 6 0.0000 0.0000 0.0000 0.0000 0.0000 45.6699
#
#
#
# Elastic Compliance Matrix: (Units=1/GPa)
#
#
# Indices 1 2 3 4 5 6 
#
# 1 0.061362 -0.054366 0.000681 0.000000 0.000000 0.000000
# 2 -0.054366 0.061362 0.000681 0.000000 0.000000 0.000000
# 3 0.000681 0.000681 0.017265 0.000000 0.000000 0.000000
# 4 0.000000 0.000000 0.000000 0.085566 0.000000 0.000000
# 5 0.000000 0.000000 0.000000 0.000000 0.085566 0.000000
# 6 0.000000 0.000000 0.000000 0.000000 0.000000 0.021896
#
#
# Mechanical properties :
#
#
# Convention : Reuss Voigt Hill
#
# Bulk Modulus (GPa) = 29.42844 35.97121 32.69983
# Shear Modulus (GPa) = 11.10245 24.12317 17.61281
#
# Velocity S-wave (km/s) = 2.31390 3.41077 2.91440
# Velocity P-wave (km/s) = 4.61851 5.73220 5.20523
#
# Compressibility (1/GPa) = 0.03398073
#
# Stress axis : x y z
#
# Youngs Moduli (GPa) = 16.29686 16.29686 57.91941
#
# Poissons Ratio (x) = 0.88599 -0.03944
# Poissons Ratio (y) = 0.88599 -0.03944
# Poissons Ratio (z) = -0.01110 -0.01110
#
# Static dielectric constant tensor:
#      x y z
#    x 1.749440 0.000000 0.000000 
#    y 0.000000 1.749440 0.000000 
#    z 0.000000 0.000000 1.797020 
# 
# From -- ./inp_files/1979.got.cif
#   From: 2010.05.17/outbox.cif.g08.bks.cpg/sg136_1_cif.got.tgz:1979.got - 2010.05.20 12:54:53.
