data_PCOD9569132
_publ_section_title
;
Structure prediction by ZEFSAII (Michael W. Deem and Ramdas Pophale) SiO2 
 PCOD9569132
Probable space group: P 42/M N M
;
_chemical_formula_sum "Si O2"
_cell_formula_units_Z 88
_cell_length_a 20.970886
_cell_length_b 20.970886
_cell_length_c 13.566531
_cell_angle_alpha 90.000000
_cell_angle_beta 90.000000
_cell_angle_gamma 90.000000
_cell_volume 5966.262679
_symmetry_space_group_name_H-M "P 42/M N M"
_symmetry_group_IT_number 136
_symmetry_cell_setting 'tetragonal'
loop_
_space_group_symop_operation_xyz
x,y,z
1/2-y,1/2+x,1/2+z
-x,-y,z
1/2+y,1/2-x,1/2+z
1/2+x,1/2-y,1/2-z
1/2-x,1/2+y,1/2-z
y,x,-z
-y,-x,-z
-x,-y,-z
1/2+y,1/2-x,1/2-z
x,y,-z
1/2-y,1/2+x,1/2-z
1/2-x,1/2+y,1/2+z
1/2+x,1/2-y,1/2+z
-y,-x,z
y,x,z
loop_
_atom_site_type_symbol
_atom_site_label
_atom_site_fract_x
_atom_site_fract_y
_atom_site_fract_z
Si Si1 0.265652 0.627275 0.702461
Si Si2 0.949727 0.949727 0.880849
Si Si3 0.816290 0.075091 0.300324
Si Si4 0.502753 0.309213 0.614397
Si Si5 0.280483 0.828497 0.388040
Si Si6 0.065089 0.169158 0.385225
O O1 0.323995 0.676006 0.675478
O O2 0.265962 0.564455 0.634433
O O3 0.201177 0.666301 0.683687
O O4 0.281981 0.601195 0.811527
O O5 0.970429 0.879043 0.855176
O O6 0.951966 0.951966 0.000000
O O7 0.000000 0.000000 0.840139
O O8 0.875443 0.124558 0.301081
O O9 0.755858 0.109021 0.350658
O O10 0.797949 0.054811 0.189025
O O11 0.832965 0.009023 0.355343
O O12 0.484885 0.309419 0.500000
O O13 0.304654 0.836067 0.500000
O O14 0.225220 0.774781 0.391077
O O15 0.071351 0.186609 0.500000
O O16 0.101670 0.101670 0.371475
#
# Coordination Sequence:
#
# PCOD9569132 Si02
#       6
#    16   8  16  16  16  16
#     4   9  16  28  46  65  81 105 149 195 231 262
#     4   9  16  24  36  56  83 117 149 175 211 255
#     4  10  20  30  41  61  91 124 156 183 214 261
#     4  10  18  28  42  61  87 116 149 189 226 263
#     4   9  17  29  45  62  82 110 146 189 229 262
#     4   9  18  31  45  62  87 118 151 185 218 259
#
# _framework density 14.749601999999999
#
# number of rings (size 3 to 8) (size 9 to 14) (size 15 to 20)
#    0.000    2.636    0.909    1.636    1.273    3.273 
#    0.000    1.818    0.000    3.273    0.000    0.000 
#    0.000   11.636    0.000   42.182    0.000    2.909 
#
# Total GULP energy -489948.512981 kJ/mol
# GULP energy per Si atom -5567.596738 kJ/mol
# Density = 1.471603 g / cm^3
# Si number density = 14.749602 Si / 1000 Ang^3
#
#
#
# Elastic Constant Matrix: (Units=GPa)
#
#
# Indices 1 2 3 4 5 6 
#
# 1 58.4246 50.9672 34.9951 0.0000 0.0000 0.0000
# 2 50.9672 58.4246 34.9951 0.0000 0.0000 0.0000
# 3 34.9951 34.9951 92.9950 0.0000 0.0000 0.0000
# 4 0.0000 0.0000 0.0000 16.4517 0.0000 0.0000
# 5 0.0000 0.0000 0.0000 0.0000 16.4517 0.0000
# 6 0.0000 0.0000 0.0000 0.0000 0.0000 23.0848
#
#
#
# Elastic Compliance Matrix: (Units=1/GPa)
#
#
# Indices 1 2 3 4 5 6 
#
# 1 0.073068 -0.061027 -0.004531 0.000000 0.000000 0.000000
# 2 -0.061027 0.073068 -0.004531 0.000000 0.000000 0.000000
# 3 -0.004531 -0.004531 0.014163 0.000000 0.000000 0.000000
# 4 0.000000 0.000000 0.000000 0.060784 0.000000 0.000000
# 5 0.000000 0.000000 0.000000 0.000000 0.060784 0.000000
# 6 0.000000 0.000000 0.000000 0.000000 0.000000 0.043319
#
#
# Mechanical properties :
#
#
# Convention : Reuss Voigt Hill
#
# Bulk Modulus (GPa) = 49.70083 50.19546 49.94815
# Shear Modulus (GPa) = 10.59164 17.12344 13.85754
#
# Velocity S-wave (km/s) = 2.68264 3.41096 3.06848
# Velocity P-wave (km/s) = 6.58521 7.04404 6.81848
#
# Compressibility (1/GPa) = 0.02012039
#
# Stress axis : x y z
#
# Youngs Moduli (GPa) = 13.68594 13.68594 70.60476
#
# Poissons Ratio (x) = 0.83522 0.31991
# Poissons Ratio (y) = 0.83522 0.31991
# Poissons Ratio (z) = 0.06201 0.06201
#
# Static dielectric constant tensor:
#      x y z
#    x 1.485790 0.000000 0.000000 
#    y 0.000000 1.485790 0.000000 
#    z 0.000000 0.000000 1.517650 
# 
# From -- ./inp_files/5027.got.cif
#   From: 2010.05.17/outbox.cif.g08.bks.cpg/sg136_3_cif.got.tgz:5027.got - 2010.05.20 12:54:53.
