data_PCOD9569611
_publ_section_title
;
Structure prediction by ZEFSAII (Michael W. Deem and Ramdas Pophale) SiO2 
 PCOD9569611
Probable space group: P 42/M N M
;
_chemical_formula_sum "Si O2"
_cell_formula_units_Z 88
_cell_length_a 12.490414
_cell_length_b 12.490414
_cell_length_c 29.394999
_cell_angle_alpha 90.000000
_cell_angle_beta 90.000000
_cell_angle_gamma 90.000000
_cell_volume 4585.926783
_symmetry_space_group_name_H-M "P 42/M N M"
_symmetry_group_IT_number 136
_symmetry_cell_setting 'tetragonal'
loop_
_space_group_symop_operation_xyz
x,y,z
1/2-y,1/2+x,1/2+z
-x,-y,z
1/2+y,1/2-x,1/2+z
1/2+x,1/2-y,1/2-z
1/2-x,1/2+y,1/2-z
y,x,-z
-y,-x,-z
-x,-y,-z
1/2+y,1/2-x,1/2-z
x,y,-z
1/2-y,1/2+x,1/2-z
1/2-x,1/2+y,1/2+z
1/2+x,1/2-y,1/2+z
-y,-x,z
y,x,z
loop_
_atom_site_type_symbol
_atom_site_label
_atom_site_fract_x
_atom_site_fract_y
_atom_site_fract_z
Si Si1 0.820044 0.000638 0.604070
Si Si2 0.079262 0.744489 0.791599
Si Si3 0.407565 0.592436 0.448334
Si Si4 0.260318 0.564564 0.795493
Si Si5 0.886642 0.438653 0.053153
Si Si6 0.234326 0.948357 0.109720
O O1 0.894539 0.894539 0.596350
O O2 0.778805 0.992560 0.656210
O O3 0.717726 0.001346 0.571048
O O4 0.898028 0.101973 0.598578
O O5 0.145709 0.854292 0.787293
O O6 0.165584 0.650857 0.798864
O O7 0.013990 0.746595 0.838708
O O8 0.012369 0.732414 0.746053
O O9 0.500000 0.500000 0.448800
O O10 0.381247 0.618754 0.500000
O O11 0.308680 0.542783 0.421715
O O12 0.368603 0.631398 0.785232
O O13 0.896543 0.336224 0.085784
O O14 0.000000 0.500000 0.057250
O O15 0.873028 0.409423 0.000000
O O16 0.142791 0.857210 0.112109
#
# Coordination Sequence:
#
# PCOD9569611 Si02
#       6
#    16  16   8  16  16  16
#     4  10  21  41  68  94 123 162 213 270 320 372
#     4  10  21  36  57  85 115 153 199 242 298 367
#     4   9  18  32  56  90 118 148 195 243 294 354
#     4  10  21  38  58  86 121 158 201 251 311 373
#     4  11  24  41  61  90 127 165 204 250 314 377
#     4  10  20  38  61  86 119 156 201 252 297 360
#
# _framework density 19.189140999999999
#
# number of rings (size 3 to 8) (size 9 to 14) (size 15 to 20)
#    0.000    1.909    1.818    1.636    1.273    5.455 
#    1.636    0.909    0.000    0.000    0.000    0.000 
#    0.000    0.000    0.000    0.000    0.000    0.000 
#
# Total GULP energy -491280.245005 kJ/mol
# GULP energy per Si atom -5582.730057 kJ/mol
# Density = 1.914547 g / cm^3
# Si number density = 19.189141 Si / 1000 Ang^3
#
#
#
# Elastic Constant Matrix: (Units=GPa)
#
#
# Indices 1 2 3 4 5 6 
#
# 1 50.8095 6.3985 22.4649 0.0000 0.0000 0.0000
# 2 6.3985 50.8096 22.4650 0.0000 0.0000 0.0000
# 3 22.4649 22.4650 101.4733 0.0000 0.0000 0.0000
# 4 0.0000 0.0000 0.0000 24.0726 0.0000 0.0000
# 5 0.0000 0.0000 0.0000 0.0000 24.0727 0.0000
# 6 0.0000 0.0000 0.0000 0.0000 0.0000 17.5317
#
#
#
# Elastic Compliance Matrix: (Units=1/GPa)
#
#
# Indices 1 2 3 4 5 6 
#
# 1 0.021838 -0.000679 -0.004684 0.000000 0.000000 0.000000
# 2 -0.000679 0.021838 -0.004684 0.000000 0.000000 0.000000
# 3 -0.004684 -0.004684 0.011929 0.000000 0.000000 0.000000
# 4 0.000000 0.000000 0.000000 0.041541 0.000000 0.000000
# 5 0.000000 0.000000 0.000000 0.000000 0.041541 0.000000
# 6 0.000000 0.000000 0.000000 0.000000 0.000000 0.057040
#
#
# Mechanical properties :
#
#
# Convention : Reuss Voigt Hill
#
# Bulk Modulus (GPa) = 28.16137 33.97212 31.06675
# Shear Modulus (GPa) = 21.96276 23.25300 22.60788
#
# Velocity S-wave (km/s) = 3.38678 3.48484 3.43616
# Velocity P-wave (km/s) = 5.47734 5.82532 5.65401
#
# Compressibility (1/GPa) = 0.03550963
#
# Stress axis : x y z
#
# Youngs Moduli (GPa) = 45.79171 45.79179 83.82981
#
# Poissons Ratio (x) = 0.03109 0.39269
# Poissons Ratio (y) = 0.03109 0.39269
# Poissons Ratio (z) = 0.21450 0.21451
#
# Static dielectric constant tensor:
#      x y z
#    x 1.672210 0.000000 0.000000 
#    y 0.000000 1.672210 0.000000 
#    z 0.000000 0.000000 1.650110 
# 
# From -- ./inp_files/9759.got.cif
#   From: 2010.05.17/outbox.cif.g08.bks.cpg/sg136_5_cif.got.tgz:9759.got - 2010.05.20 12:54:53.
