data_PCOD9569618
_publ_section_title
;
Structure prediction by ZEFSAII (Michael W. Deem and Ramdas Pophale) SiO2 
 PCOD9569618
Probable space group: P 42/M N M
;
_chemical_formula_sum "Si O2"
_cell_formula_units_Z 52
_cell_length_a 18.033663
_cell_length_b 18.033663
_cell_length_c 7.327411
_cell_angle_alpha 90.000000
_cell_angle_beta 90.000000
_cell_angle_gamma 90.000000
_cell_volume 2382.969322
_symmetry_space_group_name_H-M "P 42/M N M"
_symmetry_group_IT_number 136
_symmetry_cell_setting 'tetragonal'
loop_
_space_group_symop_operation_xyz
x,y,z
1/2-y,1/2+x,1/2+z
-x,-y,z
1/2+y,1/2-x,1/2+z
1/2+x,1/2-y,1/2-z
1/2-x,1/2+y,1/2-z
y,x,-z
-y,-x,-z
-x,-y,-z
1/2+y,1/2-x,1/2-z
x,y,-z
1/2-y,1/2+x,1/2-z
1/2-x,1/2+y,1/2+z
1/2+x,1/2-y,1/2+z
-y,-x,z
y,x,z
loop_
_atom_site_type_symbol
_atom_site_label
_atom_site_fract_x
_atom_site_fract_y
_atom_site_fract_z
Si Si1 0.231032 0.887312 0.000000
Si Si2 0.644972 0.470025 0.500000
Si Si3 0.121050 0.238340 0.716469
Si Si4 0.359823 0.907627 0.287434
Si Si5 0.000000 0.500000 0.750000
O O1 0.283990 0.903926 0.826946
O O2 0.164352 0.944993 0.000000
O O3 0.194586 0.805415 0.000000
O O4 0.562345 0.437656 0.500000
O O5 0.686625 0.435045 0.325280
O O6 0.109288 0.236362 0.500000
O O7 0.201786 0.201786 0.754796
O O8 0.113876 0.322259 0.781547
O O9 0.352078 0.930762 0.500000
O O10 0.421724 0.960291 0.195881
#
# Coordination Sequence:
#
# PCOD9569618 Si02
#       5
#     8   8  16  16   4
#     4  12  28  46  67  96 129 172 227 281 331 391
#     4  10  22  41  67  94 125 166 214 269 335 391
#     4  10  20  38  66  99 133 174 222 269 316 384
#     4  12  26  42  66  95 139 177 222 263 330 400
#     4  12  30  44  66 106 144 190 218 272 346 426
#
# _framework density 21.821512999999999
#
# number of rings (size 3 to 8) (size 9 to 14) (size 15 to 20)
#    0.000    0.923    3.077    3.231    4.308    5.846 
#    0.000    0.000    0.000    0.000    0.000    6.462 
#    0.000    0.000    0.000    0.000    0.000    0.000 
#
# Total GULP energy -289968.638089 kJ/mol
# GULP energy per Si atom -5576.319963 kJ/mol
# Density = 2.177185 g / cm^3
# Si number density = 21.821513 Si / 1000 Ang^3
#
#
#
# Elastic Constant Matrix: (Units=GPa)
#
#
# Indices 1 2 3 4 5 6 
#
# 1 203.3374 -2.3591 30.7416 0.0000 0.0000 0.0000
# 2 -2.3591 203.3100 30.7365 0.0000 0.0000 0.0000
# 3 30.7416 30.7365 147.5157 0.0000 0.0000 0.0000
# 4 0.0000 0.0000 0.0000 28.8069 0.0000 0.0000
# 5 0.0000 0.0000 0.0000 0.0000 28.8057 0.0000
# 6 0.0000 0.0000 0.0000 0.0000 0.0000 55.7257
#
#
#
# Elastic Compliance Matrix: (Units=1/GPa)
#
#
# Indices 1 2 3 4 5 6 
#
# 1 0.005088 0.000226 -0.001108 0.000000 0.000000 0.000000
# 2 0.000226 0.005089 -0.001107 0.000000 0.000000 0.000000
# 3 -0.001108 -0.001107 0.007240 0.000000 0.000000 0.000000
# 4 0.000000 0.000000 0.000000 0.034714 0.000000 0.000000
# 5 0.000000 0.000000 0.000000 0.000000 0.034715 0.000000
# 6 0.000000 0.000000 0.000000 0.000000 0.000000 0.017945
#
#
# Mechanical properties :
#
#
# Convention : Reuss Voigt Hill
#
# Bulk Modulus (GPa) = 74.40399 74.71122 74.55761
# Shear Modulus (GPa) = 44.15067 55.67058 49.91063
#
# Velocity S-wave (km/s) = 4.50295 5.05640 4.78768
# Velocity P-wave (km/s) = 7.82343 8.27051 8.05007
#
# Compressibility (1/GPa) = 0.01344014
#
# Stress axis : x y z
#
# Youngs Moduli (GPa) = 196.54084 196.51568 138.11211
#
# Poissons Ratio (x) = -0.04451 0.15296
# Poissons Ratio (y) = -0.04451 0.15296
# Poissons Ratio (z) = 0.21767 0.21764
#
# Static dielectric constant tensor:
#      x y z
#    x 1.801080 0.000000 0.000000 
#    y 0.000000 1.801080 0.000000 
#    z 0.000000 0.000000 1.826840 
# 
# From -- ./inp_files/1025.got.cif
#   From: 2010.05.17/outbox.cif.g08.bks.cpg/sg136_1_cif.got.tgz:1025.got - 2010.05.20 12:54:53.
