data_PCOD9569417
_publ_section_title
;
Structure prediction by ZEFSAII (Michael W. Deem and Ramdas Pophale) SiO2 
 PCOD9569417
Probable space group: P 42/M N M
;
_chemical_formula_sum "Si O2"
_cell_formula_units_Z 96
_cell_length_a 23.132066
_cell_length_b 23.132066
_cell_length_c 8.261986
_cell_angle_alpha 90.000000
_cell_angle_beta 90.000000
_cell_angle_gamma 90.000000
_cell_volume 4420.926557
_symmetry_space_group_name_H-M "P 42/M N M"
_symmetry_group_IT_number 136
_symmetry_cell_setting 'tetragonal'
loop_
_space_group_symop_operation_xyz
x,y,z
1/2-y,1/2+x,1/2+z
-x,-y,z
1/2+y,1/2-x,1/2+z
1/2+x,1/2-y,1/2-z
1/2-x,1/2+y,1/2-z
y,x,-z
-y,-x,-z
-x,-y,-z
1/2+y,1/2-x,1/2-z
x,y,-z
1/2-y,1/2+x,1/2-z
1/2-x,1/2+y,1/2+z
1/2+x,1/2-y,1/2+z
-y,-x,z
y,x,z
loop_
_atom_site_type_symbol
_atom_site_label
_atom_site_fract_x
_atom_site_fract_y
_atom_site_fract_z
Si Si1 0.433736 0.656505 0.803308
Si Si2 0.147617 0.738480 0.184218
Si Si3 0.157805 0.932859 0.694174
Si Si4 0.356895 0.767355 0.197421
Si Si5 0.451673 0.855815 0.315238
Si Si6 0.646303 0.069362 0.680623
O O1 0.404655 0.595346 0.755322
O O2 0.500436 0.665939 0.746188
O O3 0.386269 0.705922 0.759331
O O4 0.436025 0.657796 0.000000
O O5 0.112928 0.790731 0.268030
O O6 0.206483 0.706300 0.244225
O O7 0.102157 0.686083 0.194169
O O8 0.156868 0.755736 0.000000
O O9 0.155159 0.937082 0.500000
O O10 0.098775 0.901226 0.751182
O O11 0.400901 0.811308 0.280676
O O12 0.357678 0.770612 0.000000
O O13 0.472156 0.851871 0.500000
O O14 0.502408 0.842835 0.194305
O O15 0.420668 0.917111 0.289517
O O16 0.660414 0.090892 0.500000
#
# Coordination Sequence:
#
# PCOD9569417 Si02
#       6
#    16  16  16  16  16  16
#     4   9  18  34  57  83 110 143 186 234 279 328
#     4  10  20  34  55  82 109 140 183 232 281 336
#     4  10  21  36  56  84 116 150 187 228 281 343
#     4   9  18  33  55  81 107 139 181 230 282 333
#     4  10  20  32  48  71 100 138 183 229 278 335
#     4  10  20  33  49  70 101 140 181 230 284 335
#
# _framework density 21.714903
#
# number of rings (size 3 to 8) (size 9 to 14) (size 15 to 20)
#    0.000    2.333    0.000    2.500    0.000    5.667 
#    0.000    5.000    0.000    2.000    0.000    1.167 
#    0.000    0.000    0.000    0.000    0.000    0.000 
#
# Total GULP energy -534411.233886 kJ/mol
# GULP energy per Si atom -5566.783686 kJ/mol
# Density = 2.166548 g / cm^3
# Si number density = 21.714903 Si / 1000 Ang^3
#
#
#
# Elastic Constant Matrix: (Units=GPa)
#
#
# Indices 1 2 3 4 5 6 
#
# 1 165.3060 33.7967 16.4766 0.0000 0.0000 0.0000
# 2 33.7967 165.3060 16.4766 0.0000 0.0000 0.0000
# 3 16.4766 16.4766 15.6791 0.0000 0.0000 0.0000
# 4 0.0000 0.0000 0.0000 -37.7551 0.0000 0.0000
# 5 0.0000 0.0000 0.0000 0.0000 -37.7551 0.0000
# 6 0.0000 0.0000 0.0000 0.0000 0.0000 20.8042
#
#
#
# Elastic Compliance Matrix: (Units=1/GPa)
#
#
# Indices 1 2 3 4 5 6 
#
# 1 0.006842 -0.000762 -0.006389 0.000000 0.000000 0.000000
# 2 -0.000762 0.006842 -0.006389 0.000000 0.000000 0.000000
# 3 -0.006389 -0.006389 0.077208 0.000000 0.000000 0.000000
# 4 0.000000 0.000000 0.000000 -0.026486 0.000000 0.000000
# 5 0.000000 0.000000 0.000000 0.000000 -0.026486 0.000000
# 6 0.000000 0.000000 0.000000 0.000000 0.000000 0.048067
#
#
# Mechanical properties :
#
#
# Convention : Reuss Voigt Hill
#
# Bulk Modulus (GPa) = 15.67139 53.31008 34.49074
# Shear Modulus (GPa) = 37.21986 7.69489 22.45738
#
# Velocity S-wave (km/s) = 4.14457 1.88449 3.21937
# Velocity P-wave (km/s) = 5.48961 5.41649 5.45317
#
# Compressibility (1/GPa) = 0.06381053
#
# Stress axis : x y z
#
# Youngs Moduli (GPa) = 146.15571 146.15571 12.95211
#
# Poissons Ratio (x) = 0.11137 0.08275
# Poissons Ratio (y) = 0.11137 0.08275
# Poissons Ratio (z) = 0.93383 0.93383
#
# Static dielectric constant tensor:
#      x y z
#    x 1.834340 0.000000 0.000000 
#    y 0.000000 1.834340 0.000000 
#    z 0.000000 0.000000 1.750690 
# 
# From -- ./inp_files/1947.got.cif
#   From: 2010.05.17/outbox.cif.g08.bks.cpg/sg136_1_cif.got.tgz:1947.got - 2010.05.20 12:54:53.
