data_PCOD9569625
_publ_section_title
;
Structure prediction by ZEFSAII (Michael W. Deem and Ramdas Pophale) SiO2 
 PCOD9569625
Probable space group: P 42/M N M
;
_chemical_formula_sum "Si O2"
_cell_formula_units_Z 60
_cell_length_a 11.080406
_cell_length_b 11.080406
_cell_length_c 24.900032
_cell_angle_alpha 90.000000
_cell_angle_beta 90.000000
_cell_angle_gamma 90.000000
_cell_volume 3057.111317
_symmetry_space_group_name_H-M "P 42/M N M"
_symmetry_group_IT_number 136
_symmetry_cell_setting 'tetragonal'
loop_
_space_group_symop_operation_xyz
x,y,z
1/2-y,1/2+x,1/2+z
-x,-y,z
1/2+y,1/2-x,1/2+z
1/2+x,1/2-y,1/2-z
1/2-x,1/2+y,1/2-z
y,x,-z
-y,-x,-z
-x,-y,-z
1/2+y,1/2-x,1/2-z
x,y,-z
1/2-y,1/2+x,1/2-z
1/2-x,1/2+y,1/2+z
1/2+x,1/2-y,1/2+z
-y,-x,z
y,x,z
loop_
_atom_site_type_symbol
_atom_site_label
_atom_site_fract_x
_atom_site_fract_y
_atom_site_fract_z
Si Si1 0.757159 0.242842 0.385349
Si Si2 0.466235 0.183183 0.269367
Si Si3 0.765554 0.765554 0.000000
Si Si4 0.355190 0.984234 0.886935
Si Si5 0.444708 0.246682 0.500000
Si Si6 0.405693 0.405693 0.202128
O O1 0.789741 0.210260 0.446620
O O2 0.614654 0.211863 0.382315
O O3 0.832835 0.167166 0.342935
O O4 0.596535 0.120530 0.265260
O O5 0.421986 0.181176 0.330776
O O6 0.470697 0.310646 0.241126
O O7 0.910039 0.751523 0.000000
O O8 0.500000 0.000000 0.886913
O O9 0.318073 0.919790 0.942694
O O10 0.373206 0.373206 0.500000
O O11 0.500000 0.500000 0.178868
#
# Coordination Sequence:
#
# PCOD9569625 Si02
#       6
#     8  16   4  16   8   8
#     4  10  20  41  63  86 122 159 212 248 299 377
#     4  11  22  42  64  87 122 168 209 251 318 384
#     4   8  19  38  69  84 120 174 202 244 311 379
#     4  11  21  40  63  86 118 166 206 252 308 378
#     4  10  22  37  59  96 126 152 203 262 314 367
#     4  12  26  36  60  95 131 156 206 274 316 366
#
# _framework density 19.626370999999999
#
# number of rings (size 3 to 8) (size 9 to 14) (size 15 to 20)
#    0.000    1.333    5.333    0.600    5.600    0.000 
#    0.000    1.667    0.000    0.000    0.000    0.000 
#    0.000    0.000    0.000    0.000    0.000    0.000 
#
# Total GULP energy -334484.781805 kJ/mol
# GULP energy per Si atom -5574.746363 kJ/mol
# Density = 1.958170 g / cm^3
# Si number density = 19.626371 Si / 1000 Ang^3
#
#
#
# Elastic Constant Matrix: (Units=GPa)
#
#
# Indices 1 2 3 4 5 6 
#
# 1 50.8685 24.2207 8.5131 0.0000 0.0000 0.0000
# 2 24.2207 50.8685 8.5131 0.0000 0.0000 0.0000
# 3 8.5131 8.5131 174.0137 0.0000 0.0000 0.0000
# 4 0.0000 0.0000 0.0000 19.1077 0.0000 0.0000
# 5 0.0000 0.0000 0.0000 0.0000 19.1077 0.0000
# 6 0.0000 0.0000 0.0000 0.0000 0.0000 19.5681
#
#
#
# Elastic Compliance Matrix: (Units=1/GPa)
#
#
# Indices 1 2 3 4 5 6 
#
# 1 0.025497 -0.012030 -0.000659 0.000000 0.000000 0.000000
# 2 -0.012030 0.025497 -0.000659 0.000000 0.000000 0.000000
# 3 -0.000659 -0.000659 0.005811 0.000000 0.000000 0.000000
# 4 0.000000 0.000000 0.000000 0.052335 0.000000 0.000000
# 5 0.000000 0.000000 0.000000 0.000000 0.052335 0.000000
# 6 0.000000 0.000000 0.000000 0.000000 0.000000 0.051103
#
#
# Mechanical properties :
#
#
# Convention : Reuss Voigt Hill
#
# Bulk Modulus (GPa) = 33.21203 39.80497 36.50850
# Shear Modulus (GPa) = 20.05539 27.19028 23.62284
#
# Velocity S-wave (km/s) = 3.20012 3.72613 3.47310
# Velocity P-wave (km/s) = 5.53292 6.23197 5.89282
#
# Compressibility (1/GPa) = 0.03010957
#
# Stress axis : x y z
#
# Youngs Moduli (GPa) = 39.22069 39.22069 172.08334
#
# Poissons Ratio (x) = 0.47182 0.11337
# Poissons Ratio (y) = 0.47182 0.11337
# Poissons Ratio (z) = 0.02584 0.02584
#
# Static dielectric constant tensor:
#      x y z
#    x 1.694340 0.000000 0.000000 
#    y 0.000000 1.694340 0.000000 
#    z 0.000000 0.000000 1.766100 
# 
# From -- ./inp_files/8193.got.cif
#   From: 2010.05.17/outbox.cif.g08.bks.cpg/sg136_5_cif.got.tgz:8193.got - 2010.05.20 12:54:53.
