data_PCOD9569024
_publ_section_title
;
Structure prediction by ZEFSAII (Michael W. Deem and Ramdas Pophale) SiO2 
 PCOD9569024
Probable space group: P 42/M B C
;
_chemical_formula_sum "Si O2"
_cell_formula_units_Z 112
_cell_length_a 14.036483
_cell_length_b 14.036483
_cell_length_c 24.864365
_cell_angle_alpha 90.000000
_cell_angle_beta 90.000000
_cell_angle_gamma 90.000000
_cell_volume 4898.848180
_symmetry_space_group_name_H-M "P 42/M B C"
_symmetry_group_IT_number 135
_symmetry_cell_setting 'tetragonal'
loop_
_space_group_symop_operation_xyz
x,y,z
-y,x,1/2+z
-x,-y,z
y,-x,1/2+z
1/2+x,1/2-y,-z
1/2-x,1/2+y,-z
1/2+y,1/2+x,1/2-z
1/2-y,1/2-x,1/2-z
-x,-y,-z
y,-x,1/2-z
x,y,-z
-y,x,1/2-z
1/2-x,1/2+y,z
1/2+x,1/2-y,z
1/2-y,1/2-x,1/2+z
1/2+y,1/2+x,1/2+z
loop_
_atom_site_type_symbol
_atom_site_label
_atom_site_fract_x
_atom_site_fract_y
_atom_site_fract_z
Si Si1 0.740556 0.802497 0.936673
Si Si2 0.146942 0.000537 0.269104
Si Si3 0.394523 0.961754 0.438363
Si Si4 0.372477 0.392323 0.062706
Si Si5 0.994588 0.645177 0.273883
Si Si6 0.203271 0.494372 0.896823
Si Si7 0.695515 0.549380 0.389881
O O1 0.676635 0.710288 0.925580
O O2 0.840595 0.803380 0.905976
O O3 0.689317 0.900528 0.920329
O O4 0.760508 0.804291 0.000000
O O5 0.250345 0.019208 0.246046
O O6 0.080482 0.092875 0.264948
O O7 0.162046 0.965328 0.329404
O O8 0.371377 0.988495 0.500000
O O9 0.416095 0.848989 0.433881
O O10 0.305095 0.983494 0.400766
O O11 0.500000 0.000000 0.424453
O O12 0.314909 0.467259 0.099406
O O13 0.483200 0.374376 0.074984
O O14 0.359860 0.417258 0.000000
O O15 0.073448 0.573448 0.250000
O O16 0.895528 0.604473 0.250000
O O17 0.988618 0.655816 0.338159
#
# Coordination Sequence:
#
# PCOD9569024 Si02
#       7
#    16  16  16  16  16  16  16
#     4  11  24  42  68 107 147 184 235 287 353 441
#     4  11  26  50  72 100 141 191 251 312 364 427
#     4  11  23  40  68 105 143 182 233 288 362 444
#     4  11  24  42  68 107 147 184 237 290 353 443
#     4  11  27  46  70 105 142 178 244 308 356 429
#     4  12  24  43  69  95 143 186 228 292 365 407
#     4  12  24  43  75  99 145 199 239 295 365 433
#
# _framework density 22.862515999999999
#
# number of rings (size 3 to 8) (size 9 to 14) (size 15 to 20)
#    0.000    0.714    1.429    6.000    6.000    4.571 
#    0.000    1.429    0.000    0.000    0.000    0.000 
#    0.000    0.000    0.000    0.000    0.000    0.000 
#
# Total GULP energy -627006.443124 kJ/mol
# GULP energy per Si atom -5598.271814 kJ/mol
# Density = 2.281048 g / cm^3
# Si number density = 22.862516 Si / 1000 Ang^3
#
#
#
# Elastic Constant Matrix: (Units=GPa)
#
#
# Indices 1 2 3 4 5 6 
#
# 1 79.0514 -0.9619 13.3414 0.0000 0.0000 0.0000
# 2 -0.9619 79.0471 13.3413 0.0000 0.0000 0.0000
# 3 13.3414 13.3413 122.8173 0.0000 0.0000 0.0000
# 4 0.0000 0.0000 0.0000 46.5478 0.0000 0.0000
# 5 0.0000 0.0000 0.0000 0.0000 46.5429 0.0000
# 6 0.0000 0.0000 0.0000 0.0000 0.0000 34.0860
#
#
#
# Elastic Compliance Matrix: (Units=1/GPa)
#
#
# Indices 1 2 3 4 5 6 
#
# 1 0.012899 0.000401 -0.001445 0.000000 0.000000 0.000000
# 2 0.000401 0.012899 -0.001445 0.000000 0.000000 0.000000
# 3 -0.001445 -0.001445 0.008456 0.000000 0.000000 0.000000
# 4 0.000000 0.000000 0.000000 0.021483 0.000000 0.000000
# 5 0.000000 0.000000 0.000000 0.000000 0.021486 0.000000
# 6 0.000000 0.000000 0.000000 0.000000 0.000000 0.029338
#
#
# Mechanical properties :
#
#
# Convention : Reuss Voigt Hill
#
# Bulk Modulus (GPa) = 34.15672 36.92860 35.54266
# Shear Modulus (GPa) = 41.22119 42.44833 41.83476
#
# Velocity S-wave (km/s) = 4.25078 4.31359 4.28230
# Velocity P-wave (km/s) = 6.25018 6.40289 6.32699
#
# Compressibility (1/GPa) = 0.02927682
#
# Stress axis : x y z
#
# Youngs Moduli (GPa) = 77.52722 77.52292 118.25848
#
# Poissons Ratio (x) = -0.03107 0.17085
# Poissons Ratio (y) = -0.03107 0.17086
# Poissons Ratio (z) = 0.11200 0.11200
#
# Static dielectric constant tensor:
#      x y z
#    x 1.870030 0.000000 0.000000 
#    y 0.000000 1.870030 0.000000 
#    z 0.000000 0.000000 1.825930 
# 
# From -- ./inp_files/6135.got.cif
#   From: 2010.05.17/outbox.cif.g08.bks.cpg/sg135_4_cif.got.tgz:6135.got - 2010.05.20 12:50:20.
