data_PCOD9569454
_publ_section_title
;
Structure prediction by ZEFSAII (Michael W. Deem and Ramdas Pophale) SiO2 
 PCOD9569454
Probable space group: P 42/M N M
;
_chemical_formula_sum "Si O2"
_cell_formula_units_Z 88
_cell_length_a 12.042952
_cell_length_b 12.042952
_cell_length_c 30.448416
_cell_angle_alpha 90.000000
_cell_angle_beta 90.000000
_cell_angle_gamma 90.000000
_cell_volume 4416.015766
_symmetry_space_group_name_H-M "P 42/M N M"
_symmetry_group_IT_number 136
_symmetry_cell_setting 'tetragonal'
loop_
_space_group_symop_operation_xyz
x,y,z
1/2-y,1/2+x,1/2+z
-x,-y,z
1/2+y,1/2-x,1/2+z
1/2+x,1/2-y,1/2-z
1/2-x,1/2+y,1/2-z
y,x,-z
-y,-x,-z
-x,-y,-z
1/2+y,1/2-x,1/2-z
x,y,-z
1/2-y,1/2+x,1/2-z
1/2-x,1/2+y,1/2+z
1/2+x,1/2-y,1/2+z
-y,-x,z
y,x,z
loop_
_atom_site_type_symbol
_atom_site_label
_atom_site_fract_x
_atom_site_fract_y
_atom_site_fract_z
Si Si1 0.725079 0.542710 0.884593
Si Si2 0.185805 0.994934 0.048319
Si Si3 0.903461 0.903461 0.449045
Si Si4 0.595211 0.213466 0.367270
Si Si5 0.410130 0.230930 0.294303
Si Si6 0.546636 0.277518 0.789418
O O1 0.645747 0.645747 0.896393
O O2 0.701047 0.452359 0.922040
O O3 0.844539 0.596820 0.876511
O O4 0.689965 0.495956 0.837363
O O5 0.090587 0.090587 0.048104
O O6 0.259394 0.022047 0.089994
O O7 0.239923 0.998621 0.000000
O O8 0.120499 0.879502 0.053009
O O9 0.880665 0.880665 0.500000
O O10 0.000000 0.000000 0.447447
O O11 0.690164 0.309837 0.362202
O O12 0.516629 0.214012 0.324975
O O13 0.336929 0.336929 0.309039
O O14 0.329253 0.125454 0.295148
O O15 0.450152 0.251327 0.244652
O O16 0.623233 0.376768 0.771333
#
# Coordination Sequence:
#
# PCOD9569454 Si02
#       6
#    16  16   8  16  16  16
#     4  10  20  35  57  83 111 148 187 231 293 350
#     4   8  14  26  46  72 104 143 181 221 277 341
#     4   9  18  34  58  88 116 146 193 247 296 350
#     4  10  20  33  52  82 116 146 186 236 287 343
#     4  11  24  38  56  83 112 148 192 239 289 347
#     4  11  23  39  57  79 111 148 192 233 285 348
#
# _framework density 19.927465000000002
#
# number of rings (size 3 to 8) (size 9 to 14) (size 15 to 20)
#    0.000    2.091    0.909    3.273    0.000    9.091 
#    0.000    3.636    0.000    1.091    0.000    2.545 
#    0.000    0.000    0.000    0.000    0.000    0.000 
#
# Total GULP energy -491183.494433 kJ/mol
# GULP energy per Si atom -5581.630619 kJ/mol
# Density = 1.988211 g / cm^3
# Si number density = 19.927465 Si / 1000 Ang^3
#
#
#
# Elastic Constant Matrix: (Units=GPa)
#
#
# Indices 1 2 3 4 5 6 
#
# 1 9.9376 64.3628 16.6948 0.0000 0.0000 0.0000
# 2 64.3628 9.9376 16.6948 0.0000 0.0000 0.0000
# 3 16.6948 16.6948 99.4148 0.0000 0.0000 0.0000
# 4 0.0000 0.0000 0.0000 -17.2972 0.0000 0.0000
# 5 0.0000 0.0000 0.0000 0.0000 -17.2972 0.0000
# 6 0.0000 0.0000 0.0000 0.0000 0.0000 11.6087
#
#
#
# Elastic Compliance Matrix: (Units=1/GPa)
#
#
# Indices 1 2 3 4 5 6 
#
# 1 -0.001908 0.016466 -0.002445 0.000000 0.000000 0.000000
# 2 0.016466 -0.001908 -0.002445 0.000000 0.000000 0.000000
# 3 -0.002445 -0.002445 0.010880 0.000000 0.000000 0.000000
# 4 0.000000 0.000000 0.000000 -0.057813 0.000000 0.000000
# 5 0.000000 0.000000 0.000000 0.000000 -0.057813 0.000000
# 6 0.000000 0.000000 0.000000 0.000000 0.000000 0.086143
#
#
# Mechanical properties :
#
#
# Convention : Reuss Voigt Hill
#
# Bulk Modulus (GPa) = 33.09474 34.97720 34.03597
# Shear Modulus (GPa) = -140.84467 -3.16132 -72.00299
#
# Velocity S-wave (km/s) = -8.41618 -1.26089 -6.01756
# Velocity P-wave (km/s) = 8.82038 3.93326 5.58250
#
# Compressibility (1/GPa) = 0.03021628
#
# Stress axis : x y z
#
# Youngs Moduli (GPa) = -524.06079 -524.06079 91.91235
#
# Poissons Ratio (x) = 8.62901 0.22469
# Poissons Ratio (y) = 8.62901 0.22469
# Poissons Ratio (z) = -1.28115 -1.28115
#
# Static dielectric constant tensor:
#      x y z
#    x 1.719800 0.000000 0.000000 
#    y 0.000000 1.719800 0.000000 
#    z 0.000000 0.000000 1.683690 
# 
# From -- ./inp_files/9709.got.cif
#   From: 2010.05.17/outbox.cif.g08.bks.cpg/sg136_5_cif.got.tgz:9709.got - 2010.05.20 12:54:53.
