data_PCOD9569605
_publ_section_title
;
Structure prediction by ZEFSAII (Michael W. Deem and Ramdas Pophale) SiO2 
 PCOD9569605
Probable space group: P 42/M N M
;
_chemical_formula_sum "Si O2"
_cell_formula_units_Z 96
_cell_length_a 14.162552
_cell_length_b 14.162552
_cell_length_c 21.669887
_cell_angle_alpha 90.000000
_cell_angle_beta 90.000000
_cell_angle_gamma 90.000000
_cell_volume 4346.499976
_symmetry_space_group_name_H-M "P 42/M N M"
_symmetry_group_IT_number 136
_symmetry_cell_setting 'tetragonal'
loop_
_space_group_symop_operation_xyz
x,y,z
1/2-y,1/2+x,1/2+z
-x,-y,z
1/2+y,1/2-x,1/2+z
1/2+x,1/2-y,1/2-z
1/2-x,1/2+y,1/2-z
y,x,-z
-y,-x,-z
-x,-y,-z
1/2+y,1/2-x,1/2-z
x,y,-z
1/2-y,1/2+x,1/2-z
1/2-x,1/2+y,1/2+z
1/2+x,1/2-y,1/2+z
-y,-x,z
y,x,z
loop_
_atom_site_type_symbol
_atom_site_label
_atom_site_fract_x
_atom_site_fract_y
_atom_site_fract_z
Si Si1 0.557939 0.706955 0.100910
Si Si2 0.424631 0.575370 0.296448
Si Si3 0.604099 0.162485 0.433830
Si Si4 0.287808 0.134637 0.571236
Si Si5 0.898696 0.541971 0.332822
Si Si6 0.563153 0.721615 0.248512
Si Si7 0.613183 0.386818 0.565417
O O1 0.608661 0.608661 0.087866
O O2 0.621506 0.791279 0.073546
O O3 0.453092 0.716299 0.075563
O O4 0.558661 0.722774 0.174830
O O5 0.500000 0.500000 0.271456
O O6 0.465793 0.673926 0.272862
O O7 0.425186 0.574815 0.370439
O O8 0.566726 0.126266 0.500000
O O9 0.543010 0.136376 0.375586
O O10 0.600495 0.274825 0.434899
O O11 0.321780 0.142500 0.500000
O O12 0.231013 0.231013 0.586580
O O13 0.368952 0.106029 0.619918
O O14 0.825071 0.567222 0.278660
O O15 0.000000 0.500000 0.314148
O O16 0.651939 0.651939 0.266108
O O17 0.575639 0.424362 0.500000
#
# Coordination Sequence:
#
# PCOD9569605 Si02
#       7
#    16   8  16  16  16  16   8
#     4  11  24  43  68  95 128 170 217 270 331 391
#     4  10  20  41  68  92 127 171 221 267 326 392
#     4  11  22  39  65  96 130 168 213 268 327 386
#     4  11  26  46  66  94 135 178 219 271 334 395
#     4  12  24  43  68  95 132 172 222 266 326 393
#     4  10  24  44  66  95 134 177 215 267 329 396
#     4  10  20  37  64  98 131 165 211 271 331 381
#
# _framework density 22.086735000000001
#
# number of rings (size 3 to 8) (size 9 to 14) (size 15 to 20)
#    0.000    1.167    4.167    1.500    1.167    3.500 
#    3.000    0.833    0.000    0.000    0.000    0.000 
#    0.000    0.000    0.000    0.000    0.000    0.000 
#
# Total GULP energy -536272.671087 kJ/mol
# GULP energy per Si atom -5586.173657 kJ/mol
# Density = 2.203646 g / cm^3
# Si number density = 22.086735 Si / 1000 Ang^3
#
#
#
# Elastic Constant Matrix: (Units=GPa)
#
#
# Indices 1 2 3 4 5 6 
#
# 1 81.2135 45.6172 30.2367 0.0000 0.0000 0.0000
# 2 45.6172 81.2130 30.2366 0.0000 0.0000 0.0000
# 3 30.2367 30.2366 101.0845 0.0000 0.0000 0.0000
# 4 0.0000 0.0000 0.0000 12.6333 0.0000 0.0000
# 5 0.0000 0.0000 0.0000 0.0000 12.6359 0.0000
# 6 0.0000 0.0000 0.0000 0.0000 0.0000 31.4689
#
#
#
# Elastic Compliance Matrix: (Units=1/GPa)
#
#
# Indices 1 2 3 4 5 6 
#
# 1 0.018645 -0.009448 -0.002751 0.000000 0.000000 0.000000
# 2 -0.009448 0.018645 -0.002751 0.000000 0.000000 0.000000
# 3 -0.002751 -0.002751 0.011538 0.000000 0.000000 0.000000
# 4 0.000000 0.000000 0.000000 0.079156 0.000000 0.000000
# 5 0.000000 0.000000 0.000000 0.000000 0.079140 0.000000
# 6 0.000000 0.000000 0.000000 0.000000 0.000000 0.031777
#
#
# Mechanical properties :
#
#
# Convention : Reuss Voigt Hill
#
# Bulk Modulus (GPa) = 52.83313 52.85467 52.84390
# Shear Modulus (GPa) = 18.17459 21.84233 20.00846
#
# Velocity S-wave (km/s) = 2.87169 3.14814 3.01309
# Velocity P-wave (km/s) = 5.91339 6.09892 6.00687
#
# Compressibility (1/GPa) = 0.01892752
#
# Stress axis : x y z
#
# Youngs Moduli (GPa) = 53.63508 53.63476 86.66754
#
# Poissons Ratio (x) = 0.50677 0.23840
# Poissons Ratio (y) = 0.50677 0.23840
# Poissons Ratio (z) = 0.14754 0.14754
#
# Static dielectric constant tensor:
#      x y z
#    x 1.817950 0.000000 0.000000 
#    y 0.000000 1.817950 0.000000 
#    z 0.000000 0.000000 1.835480 
# 
# From -- ./inp_files/7553.got.cif
#   From: 2010.05.17/outbox.cif.g08.bks.cpg/sg136_4_cif.got.tgz:7553.got - 2010.05.20 12:54:53.
