data_PCOD9569492
_publ_section_title
;
Structure prediction by ZEFSAII (Michael W. Deem and Ramdas Pophale) SiO2 
 PCOD9569492
Probable space group: P 42/M N M
;
_chemical_formula_sum "Si O2"
_cell_formula_units_Z 104
_cell_length_a 17.914914
_cell_length_b 17.914914
_cell_length_c 18.098619
_cell_angle_alpha 90.000000
_cell_angle_beta 90.000000
_cell_angle_gamma 90.000000
_cell_volume 5808.645776
_symmetry_space_group_name_H-M "P 42/M N M"
_symmetry_group_IT_number 136
_symmetry_cell_setting 'tetragonal'
loop_
_space_group_symop_operation_xyz
x,y,z
1/2-y,1/2+x,1/2+z
-x,-y,z
1/2+y,1/2-x,1/2+z
1/2+x,1/2-y,1/2-z
1/2-x,1/2+y,1/2-z
y,x,-z
-y,-x,-z
-x,-y,-z
1/2+y,1/2-x,1/2-z
x,y,-z
1/2-y,1/2+x,1/2-z
1/2-x,1/2+y,1/2+z
1/2+x,1/2-y,1/2+z
-y,-x,z
y,x,z
loop_
_atom_site_type_symbol
_atom_site_label
_atom_site_fract_x
_atom_site_fract_y
_atom_site_fract_z
Si Si1 0.720897 0.536853 0.842794
Si Si2 0.439757 0.439757 0.912916
Si Si3 0.262604 0.555417 0.412907
Si Si4 0.504498 0.118488 0.658161
Si Si5 0.795527 0.672470 0.083300
Si Si6 0.005956 0.374785 0.663362
Si Si7 0.376988 0.502582 0.295526
O O1 0.644779 0.540800 0.889330
O O2 0.766965 0.613334 0.856255
O O3 0.789882 0.482691 0.863165
O O4 0.687615 0.519945 0.762244
O O5 0.500000 0.500000 0.882850
O O6 0.442999 0.442999 0.000000
O O7 0.275606 0.552636 0.500000
O O8 0.194745 0.503565 0.386187
O O9 0.227226 0.636775 0.395225
O O10 0.335587 0.532884 0.367951
O O11 0.504976 0.129682 0.746918
O O12 0.431400 0.070650 0.641049
O O13 0.578709 0.068883 0.640509
O O14 0.724855 0.724855 0.074226
O O15 0.811894 0.640071 0.000000
O O16 0.430372 0.569629 0.267194
O O17 0.431795 0.431795 0.307201
#
# Coordination Sequence:
#
# PCOD9569492 Si02
#       7
#    16   8  16  16  16  16  16
#     4  12  19  34  61  88 114 150 191 242 293 350
#     4  11  24  40  58  84 121 159 194 240 305 367
#     4  11  22  37  58  83 118 157 196 246 298 347
#     4   9  17  35  52  86 118 152 187 233 289 353
#     4  10  20  34  54  86 121 148 184 238 298 352
#     4   9  18  31  59  82 118 151 187 232 289 351
#     4  11  24  41  60  83 113 152 203 251 294 351
#
# _framework density 17.904346
#
# number of rings (size 3 to 8) (size 9 to 14) (size 15 to 20)
#    0.000    1.615    4.615    2.308    0.000    1.231 
#    0.000    3.846    0.000    0.923    0.000    0.000 
#    0.000    0.000    0.000    0.000    0.000    0.000 
#
# Total GULP energy -578954.205635 kJ/mol
# GULP energy per Si atom -5566.867362 kJ/mol
# Density = 1.786359 g / cm^3
# Si number density = 17.904346 Si / 1000 Ang^3
#
#
#
# Elastic Constant Matrix: (Units=GPa)
#
#
# Indices 1 2 3 4 5 6 
#
# 1 180.0654 -18.1913 32.3727 0.0000 0.0000 0.0000
# 2 -18.1913 180.0654 32.3727 0.0000 0.0000 0.0000
# 3 32.3727 32.3727 61.9091 0.0000 0.0000 0.0000
# 4 0.0000 0.0000 0.0000 21.8186 0.0000 0.0000
# 5 0.0000 0.0000 0.0000 0.0000 21.8186 0.0000
# 6 0.0000 0.0000 0.0000 0.0000 0.0000 -24.1175
#
#
#
# Elastic Compliance Matrix: (Units=1/GPa)
#
#
# Indices 1 2 3 4 5 6 
#
# 1 0.006428 0.001384 -0.004085 0.000000 0.000000 0.000000
# 2 0.001384 0.006428 -0.004085 0.000000 0.000000 0.000000
# 3 -0.004085 -0.004085 0.020424 0.000000 0.000000 0.000000
# 4 0.000000 0.000000 0.000000 0.045832 0.000000 0.000000
# 5 0.000000 0.000000 0.000000 0.000000 0.045832 0.000000
# 6 0.000000 0.000000 0.000000 0.000000 0.000000 -0.041464
#
#
# Mechanical properties :
#
#
# Convention : Reuss Voigt Hill
#
# Bulk Modulus (GPa) = 50.73894 57.23869 53.98881
# Shear Modulus (GPa) = 48.25246 28.93634 38.59440
#
# Velocity S-wave (km/s) = 5.19698 4.02451 4.64787
# Velocity P-wave (km/s) = 8.02571 7.32354 7.68265
#
# Compressibility (1/GPa) = 0.01970873
#
# Stress axis : x y z
#
# Youngs Moduli (GPa) = 155.57726 155.57726 48.96087
#
# Poissons Ratio (x) = -0.21527 0.19999
# Poissons Ratio (y) = -0.21527 0.19999
# Poissons Ratio (z) = 0.63548 0.63548
#
# Static dielectric constant tensor:
#      x y z
#    x 1.641440 0.000000 0.000000 
#    y 0.000000 1.641440 0.000000 
#    z 0.000000 0.000000 1.650100 
# 
# From -- ./inp_files/6438.got.cif
#   From: 2010.05.17/outbox.cif.g08.bks.cpg/sg136_4_cif.got.tgz:6438.got - 2010.05.20 12:54:53.
