data_PCOD9569629
_publ_section_title
;
Structure prediction by ZEFSAII (Michael W. Deem and Ramdas Pophale) SiO2 
 PCOD9569629
Probable space group: P 42/M N M
;
_chemical_formula_sum "Si O2"
_cell_formula_units_Z 96
_cell_length_a 17.877706
_cell_length_b 17.877706
_cell_length_c 17.119983
_cell_angle_alpha 90.000000
_cell_angle_beta 90.000000
_cell_angle_gamma 90.000000
_cell_volume 5471.758372
_symmetry_space_group_name_H-M "P 42/M N M"
_symmetry_group_IT_number 136
_symmetry_cell_setting 'tetragonal'
loop_
_space_group_symop_operation_xyz
x,y,z
1/2-y,1/2+x,1/2+z
-x,-y,z
1/2+y,1/2-x,1/2+z
1/2+x,1/2-y,1/2-z
1/2-x,1/2+y,1/2-z
y,x,-z
-y,-x,-z
-x,-y,-z
1/2+y,1/2-x,1/2-z
x,y,-z
1/2-y,1/2+x,1/2-z
1/2-x,1/2+y,1/2+z
1/2+x,1/2-y,1/2+z
-y,-x,z
y,x,z
loop_
_atom_site_type_symbol
_atom_site_label
_atom_site_fract_x
_atom_site_fract_y
_atom_site_fract_z
Si Si1 0.190044 0.928999 0.000000
Si Si2 0.804970 0.606087 0.366474
Si Si3 0.798813 0.535296 0.806862
Si Si4 0.802402 0.322361 0.639583
Si Si5 0.876082 0.755373 0.693471
Si Si6 0.534580 0.080827 0.085258
Si Si7 0.600914 0.271038 0.500000
O O1 0.234521 0.901656 0.077225
O O2 0.108783 0.891218 0.000000
O O3 0.195234 0.018518 0.000000
O O4 0.795901 0.564905 0.282524
O O5 0.831684 0.692451 0.356434
O O6 0.877034 0.570561 0.406978
O O7 0.795606 0.612204 0.855664
O O8 0.742864 0.465303 0.819692
O O9 0.874440 0.496565 0.839888
O O10 0.749560 0.250441 0.628773
O O11 0.777050 0.361674 0.719809
O O12 0.781651 0.381252 0.573323
O O13 0.833716 0.833716 0.685246
O O14 0.500000 0.000000 0.085500
O O15 0.518345 0.117445 0.000000
O O16 0.661338 0.338663 0.500000
#
# Coordination Sequence:
#
# PCOD9569629 Si02
#       7
#     8  16  16  16  16  16   8
#     4  12  24  37  58  78 109 150 188 232 277 329
#     4  10  21  35  50  78 109 147 190 225 277 344
#     4  10  21  32  56  80 105 146 188 231 283 346
#     4   9  19  35  55  78 105 141 181 228 280 339
#     4   9  18  35  53  74 108 145 184 225 274 337
#     4  10  22  32  48  79 114 147 175 234 291 349
#     4  10  22  37  57  81 107 140 181 229 286 338
#
# _framework density 17.544633999999999
#
# number of rings (size 3 to 8) (size 9 to 14) (size 15 to 20)
#    0.000    2.167    0.833    1.500   10.500    0.833 
#    0.000    0.000    0.000    0.500    0.000    0.000 
#    0.000    2.000    0.000    0.000    0.000    0.000 
#
# Total GULP energy -534674.725242 kJ/mol
# GULP energy per Si atom -5569.528388 kJ/mol
# Density = 1.750470 g / cm^3
# Si number density = 17.544634 Si / 1000 Ang^3
#
#
#
# Elastic Constant Matrix: (Units=GPa)
#
#
# Indices 1 2 3 4 5 6 
#
# 1 100.2973 46.0072 24.6371 0.0000 0.0000 0.0000
# 2 46.0072 100.2964 24.6367 0.0000 0.0000 0.0000
# 3 24.6371 24.6367 68.7176 0.0000 0.0000 0.0000
# 4 0.0000 0.0000 0.0000 16.9219 0.0000 0.0000
# 5 0.0000 0.0000 0.0000 0.0000 16.9207 0.0000
# 6 0.0000 0.0000 0.0000 0.0000 0.0000 26.6293
#
#
#
# Elastic Compliance Matrix: (Units=1/GPa)
#
#
# Indices 1 2 3 4 5 6 
#
# 1 0.013097 -0.005323 -0.002787 0.000000 0.000000 0.000000
# 2 -0.005323 0.013097 -0.002787 0.000000 0.000000 0.000000
# 3 -0.002787 -0.002787 0.016551 0.000000 0.000000 0.000000
# 4 0.000000 0.000000 0.000000 0.059095 0.000000 0.000000
# 5 0.000000 0.000000 0.000000 0.000000 0.059099 0.000000
# 6 0.000000 0.000000 0.000000 0.000000 0.000000 0.037553
#
#
# Mechanical properties :
#
#
# Convention : Reuss Voigt Hill
#
# Bulk Modulus (GPa) = 47.73278 51.09705 49.41492
# Shear Modulus (GPa) = 22.00040 23.69640 22.84840
#
# Velocity S-wave (km/s) = 3.54498 3.67909 3.61266
# Velocity P-wave (km/s) = 6.63486 6.87276 6.75486
#
# Compressibility (1/GPa) = 0.02094996
#
# Stress axis : x y z
#
# Youngs Moduli (GPa) = 76.35520 76.35469 60.42017
#
# Poissons Ratio (x) = 0.40644 0.16840
# Poissons Ratio (y) = 0.40644 0.16839
# Poissons Ratio (z) = 0.21281 0.21280
#
# Static dielectric constant tensor:
#      x y z
#    x 1.600390 0.000000 0.000000 
#    y 0.000000 1.600390 0.000000 
#    z 0.000000 0.000000 1.647550 
# 
# From -- ./inp_files/6365.got.cif
#   From: 2010.05.17/outbox.cif.g08.bks.cpg/sg136_4_cif.got.tgz:6365.got - 2010.05.20 12:54:53.
