data_PCOD9569833
_publ_section_title
;
Structure prediction by ZEFSAII (Michael W. Deem and Ramdas Pophale) SiO2 
 PCOD9569833
Probable space group: P 42/M N M
;
_chemical_formula_sum "Si O2"
_cell_formula_units_Z 56
_cell_length_a 10.749063
_cell_length_b 10.749063
_cell_length_c 21.842947
_cell_angle_alpha 90.000000
_cell_angle_beta 90.000000
_cell_angle_gamma 90.000000
_cell_volume 2523.785545
_symmetry_space_group_name_H-M "P 42/M N M"
_symmetry_group_IT_number 136
_symmetry_cell_setting 'tetragonal'
loop_
_space_group_symop_operation_xyz
x,y,z
1/2-y,1/2+x,1/2+z
-x,-y,z
1/2+y,1/2-x,1/2+z
1/2+x,1/2-y,1/2-z
1/2-x,1/2+y,1/2-z
y,x,-z
-y,-x,-z
-x,-y,-z
1/2+y,1/2-x,1/2-z
x,y,-z
1/2-y,1/2+x,1/2-z
1/2-x,1/2+y,1/2+z
1/2+x,1/2-y,1/2+z
-y,-x,z
y,x,z
loop_
_atom_site_type_symbol
_atom_site_label
_atom_site_fract_x
_atom_site_fract_y
_atom_site_fract_z
Si Si1 0.770675 0.962588 0.206752
Si Si2 0.568027 0.764710 0.837154
Si Si3 0.669386 0.132222 0.106610
Si Si4 0.006078 0.208661 0.000000
O O1 0.897524 0.897524 0.184374
O O2 0.661744 0.865248 0.191695
O O3 0.781724 0.990086 0.278403
O O4 0.727676 0.083025 0.170027
O O5 0.651985 0.651985 0.862277
O O6 0.473178 0.831736 0.883000
O O7 0.744375 0.255626 0.087722
O O8 0.706427 0.025166 0.058534
O O9 0.903145 0.096856 0.000000
O O10 0.138849 0.138849 0.000000
#
# Coordination Sequence:
#
# PCOD9569833 Si02
#       4
#    16  16  16   8
#     4  11  22  37  58  86 122 164 209 259 321 388
#     4  11  23  38  57  87 127 168 209 260 328 395
#     4  11  22  38  62  91 121 160 213 271 327 383
#     4   9  20  40  64  91 125 167 219 276 328 385
#
# _framework density 22.188891999999999
#
# number of rings (size 3 to 8) (size 9 to 14) (size 15 to 20)
#    0.000    1.286    2.857    3.429    0.000    5.143 
#    0.000    3.571    0.000    6.000    0.000    0.000 
#    0.000    0.000    0.000    0.000    0.000    0.000 
#
# Total GULP energy -312979.007930 kJ/mol
# GULP energy per Si atom -5588.910856 kJ/mol
# Density = 2.213839 g / cm^3
# Si number density = 22.188892 Si / 1000 Ang^3
#
#
#
# Elastic Constant Matrix: (Units=GPa)
#
#
# Indices 1 2 3 4 5 6 
#
# 1 -27.9711 229.1744 27.8292 0.0000 0.0000 0.0000
# 2 229.1744 -27.9714 27.8301 0.0000 0.0000 0.0000
# 3 27.8292 27.8301 72.7403 0.0000 0.0000 0.0000
# 4 0.0000 0.0000 0.0000 23.0940 0.0000 0.0000
# 5 0.0000 0.0000 0.0000 0.0000 23.0940 0.0000
# 6 0.0000 0.0000 0.0000 0.0000 0.0000 52.1823
#
#
#
# Elastic Compliance Matrix: (Units=1/GPa)
#
#
# Indices 1 2 3 4 5 6 
#
# 1 0.000835 0.004724 -0.002127 0.000000 0.000000 0.000000
# 2 0.004724 0.000835 -0.002127 0.000000 0.000000 0.000000
# 3 -0.002127 -0.002127 0.015375 0.000000 0.000000 0.000000
# 4 0.000000 0.000000 0.000000 0.043301 0.000000 0.000000
# 5 0.000000 0.000000 0.000000 0.000000 0.043301 0.000000
# 6 0.000000 0.000000 0.000000 0.000000 0.000000 0.019164
#
#
# Mechanical properties :
#
#
# Convention : Reuss Voigt Hill
#
# Bulk Modulus (GPa) = 55.60124 65.16279 60.38202
# Shear Modulus (GPa) = 39.10387 1.80501 20.45444
#
# Velocity S-wave (km/s) = 4.20255 0.90291 3.03946
# Velocity P-wave (km/s) = 6.97575 5.52431 6.29203
#
# Compressibility (1/GPa) = 0.01798521
#
# Stress axis : x y z
#
# Youngs Moduli (GPa) = 1197.92584 1197.95189 65.04168
#
# Poissons Ratio (x) = -5.65866 0.13832
# Poissons Ratio (y) = -5.65854 0.13831
# Poissons Ratio (z) = 2.54751 2.54751
#
# Static dielectric constant tensor:
#      x y z
#    x 1.843520 0.000000 0.000000 
#    y 0.000000 1.843520 0.000000 
#    z 0.000000 0.000000 1.834850 
# 
# From -- ./inp_files/6900.got.cif
#   From: 2010.05.17/outbox.cif.g08.bks.cpg/sg136_4_cif.got.tgz:6900.got - 2010.05.20 12:54:53.
