data_PCOD9569807
_publ_section_title
;
Structure prediction by ZEFSAII (Michael W. Deem and Ramdas Pophale) SiO2 
 PCOD9569807
Probable space group: P 42/M N M
;
_chemical_formula_sum "Si O2"
_cell_formula_units_Z 112
_cell_length_a 19.739295
_cell_length_b 19.739295
_cell_length_c 16.660264
_cell_angle_alpha 90.000000
_cell_angle_beta 90.000000
_cell_angle_gamma 90.000000
_cell_volume 6491.501385
_symmetry_space_group_name_H-M "P 42/M N M"
_symmetry_group_IT_number 136
_symmetry_cell_setting 'tetragonal'
loop_
_space_group_symop_operation_xyz
x,y,z
1/2-y,1/2+x,1/2+z
-x,-y,z
1/2+y,1/2-x,1/2+z
1/2+x,1/2-y,1/2-z
1/2-x,1/2+y,1/2-z
y,x,-z
-y,-x,-z
-x,-y,-z
1/2+y,1/2-x,1/2-z
x,y,-z
1/2-y,1/2+x,1/2-z
1/2-x,1/2+y,1/2+z
1/2+x,1/2-y,1/2+z
-y,-x,z
y,x,z
loop_
_atom_site_type_symbol
_atom_site_label
_atom_site_fract_x
_atom_site_fract_y
_atom_site_fract_z
Si Si1 0.277443 0.828829 0.097753
Si Si2 0.854891 0.560927 0.184238
Si Si3 0.864252 0.425045 0.908208
Si Si4 0.568692 0.262307 0.408152
Si Si5 0.500827 0.126852 0.355462
Si Si6 0.165934 0.941164 0.098048
Si Si7 0.701903 0.188925 0.403044
O O1 0.239535 0.760465 0.122528
O O2 0.354270 0.835406 0.125845
O O3 0.227708 0.890665 0.120580
O O4 0.279514 0.830803 0.000000
O O5 0.842503 0.491774 0.136927
O O6 0.848807 0.538757 0.276119
O O7 0.809251 0.621235 0.148546
O O8 0.932736 0.585016 0.169946
O O9 0.945622 0.416609 0.902720
O O10 0.843614 0.430616 0.000000
O O11 0.580904 0.282729 0.500000
O O12 0.526587 0.191814 0.404379
O O13 0.516899 0.317453 0.372309
O O14 0.641881 0.240733 0.376047
O O15 0.096765 0.903236 0.122219
O O16 0.166055 0.943587 0.000000
O O17 0.692388 0.175961 0.500000
O O18 0.772829 0.227172 0.392575
#
# Coordination Sequence:
#
# PCOD9569807 Si02
#       7
#    16  16  16  16  16  16  16
#     4   8  14  25  41  64  94 122 150 190 232 267
#     4  11  22  33  46  66  98 132 158 193 256 301
#     4  11  20  30  48  69  91 127 169 199 228 289
#     4   9  16  28  48  69  89 122 165 198 235 286
#     4  11  20  31  44  64  99 131 151 193 238 289
#     4   8  12  20  36  60  89 116 144 181 223 272
#     4   9  19  36  54  68  87 122 174 226 254 283
#
# _framework density 17.253326999999999
#
# number of rings (size 3 to 8) (size 9 to 14) (size 15 to 20)
#    0.000    2.429    2.857    2.143    0.000    2.286 
#    0.000    1.429    0.000    0.429    0.000    3.000 
#    0.000    0.571    0.000    5.286    0.000    1.143 
#
# Total GULP energy -623794.804460 kJ/mol
# GULP energy per Si atom -5569.596468 kJ/mol
# Density = 1.721406 g / cm^3
# Si number density = 17.253327 Si / 1000 Ang^3
#
#
#
# Elastic Constant Matrix: (Units=GPa)
#
#
# Indices 1 2 3 4 5 6 
#
# 1 44.3973 15.6727 12.3055 0.0000 0.0000 0.0000
# 2 15.6727 44.3973 12.3055 0.0000 0.0000 0.0000
# 3 12.3055 12.3055 34.2803 0.0000 0.0000 0.0000
# 4 0.0000 0.0000 0.0000 11.6180 0.0000 0.0000
# 5 0.0000 0.0000 0.0000 0.0000 11.6180 0.0000
# 6 0.0000 0.0000 0.0000 0.0000 0.0000 25.7007
#
#
#
# Elastic Compliance Matrix: (Units=1/GPa)
#
#
# Indices 1 2 3 4 5 6 
#
# 1 0.027166 -0.007648 -0.007006 0.000000 0.000000 0.000000
# 2 -0.007648 0.027166 -0.007006 0.000000 0.000000 0.000000
# 3 -0.007006 -0.007006 0.034201 0.000000 0.000000 0.000000
# 4 0.000000 0.000000 0.000000 0.086073 0.000000 0.000000
# 5 0.000000 0.000000 0.000000 0.000000 0.086073 0.000000
# 6 0.000000 0.000000 0.000000 0.000000 0.000000 0.038909
#
#
# Mechanical properties :
#
#
# Convention : Reuss Voigt Hill
#
# Bulk Modulus (GPa) = 22.11808 22.62691 22.37249
# Shear Modulus (GPa) = 13.96729 15.30676 14.63702
#
# Velocity S-wave (km/s) = 2.84833 2.98178 2.91582
# Velocity P-wave (km/s) = 4.86464 4.99977 4.93267
#
# Compressibility (1/GPa) = 0.04521189
#
# Stress axis : x y z
#
# Youngs Moduli (GPa) = 36.81135 36.81135 29.23866
#
# Poissons Ratio (x) = 0.28153 0.20485
# Poissons Ratio (y) = 0.28153 0.20485
# Poissons Ratio (z) = 0.25791 0.25791
#
# Static dielectric constant tensor:
#      x y z
#    x 1.608660 0.000000 0.000000 
#    y 0.000000 1.608660 0.000000 
#    z 0.000000 0.000000 1.617450 
# 
# From -- ./inp_files/6596.got.cif
#   From: 2010.05.17/outbox.cif.g08.bks.cpg/sg136_4_cif.got.tgz:6596.got - 2010.05.20 12:54:53.
