data_PCOD9569053
_publ_section_title
;
Structure prediction by ZEFSAII (Michael W. Deem and Ramdas Pophale) SiO2 
 PCOD9569053
Probable space group: P 42/M B C
;
_chemical_formula_sum "Si O2"
_cell_formula_units_Z 48
_cell_length_a 10.209862
_cell_length_b 10.209862
_cell_length_c 18.264505
_cell_angle_alpha 90.000000
_cell_angle_beta 90.000000
_cell_angle_gamma 90.000000
_cell_volume 1903.915417
_symmetry_space_group_name_H-M "P 42/M B C"
_symmetry_group_IT_number 135
_symmetry_cell_setting 'tetragonal'
loop_
_space_group_symop_operation_xyz
x,y,z
-y,x,1/2+z
-x,-y,z
y,-x,1/2+z
1/2+x,1/2-y,-z
1/2-x,1/2+y,-z
1/2+y,1/2+x,1/2-z
1/2-y,1/2-x,1/2-z
-x,-y,-z
y,-x,1/2-z
x,y,-z
-y,x,1/2-z
1/2-x,1/2+y,z
1/2+x,1/2-y,z
1/2-y,1/2-x,1/2+z
1/2+y,1/2+x,1/2+z
loop_
_atom_site_type_symbol
_atom_site_label
_atom_site_fract_x
_atom_site_fract_y
_atom_site_fract_z
Si Si1 0.345344 0.510106 0.623569
Si Si2 0.506798 0.209237 0.269527
Si Si3 0.711495 0.136539 0.918765
O O1 0.500000 0.500000 0.606531
O O2 0.322831 0.519666 0.711305
O O3 0.299671 0.645591 0.588089
O O4 0.248137 0.396089 0.597353
O O5 0.648387 0.148387 0.250000
O O6 0.522876 0.219198 0.356576
O O7 0.397825 0.102176 0.250000
O O8 0.690465 0.083335 0.000000
#
# Coordination Sequence:
#
# PCOD9569053 Si02
#       3
#    16  16  16
#     4  11  27  49  77 111 158 209 257 317 393 477
#     4   9  22  46  74 107 145 201 258 306 378 466
#     4  11  26  48  79 115 156 201 259 330 395 456
#
# _framework density 25.211203000000001
#
# number of rings (size 3 to 8) (size 9 to 14) (size 15 to 20)
#    0.000    1.667    0.000    1.000    9.333    4.000 
#    0.000   13.333    0.000    0.000    0.000    0.000 
#    0.000    0.000    0.000    0.000    0.000    0.000 
#
# Total GULP energy -268396.352327 kJ/mol
# GULP energy per Si atom -5591.590673 kJ/mol
# Density = 2.515382 g / cm^3
# Si number density = 25.211203 Si / 1000 Ang^3
#
#
#
# Elastic Constant Matrix: (Units=GPa)
#
#
# Indices 1 2 3 4 5 6 
#
# 1 81.0346 13.1854 26.5574 0.0000 0.0000 0.0000
# 2 13.1854 81.0352 26.5574 0.0000 0.0000 0.0000
# 3 26.5574 26.5574 219.4080 0.0000 0.0000 0.0000
# 4 0.0000 0.0000 0.0000 33.0267 0.0000 0.0000
# 5 0.0000 0.0000 0.0000 0.0000 33.0258 0.0000
# 6 0.0000 0.0000 0.0000 0.0000 0.0000 33.0655
#
#
#
# Elastic Compliance Matrix: (Units=1/GPa)
#
#
# Indices 1 2 3 4 5 6 
#
# 1 0.013065 -0.001674 -0.001379 0.000000 0.000000 0.000000
# 2 -0.001674 0.013065 -0.001379 0.000000 0.000000 0.000000
# 3 -0.001379 -0.001379 0.004891 0.000000 0.000000 0.000000
# 4 0.000000 0.000000 0.000000 0.030278 0.000000 0.000000
# 5 0.000000 0.000000 0.000000 0.000000 0.030279 0.000000
# 6 0.000000 0.000000 0.000000 0.000000 0.000000 0.030243
#
#
# Mechanical properties :
#
#
# Convention : Reuss Voigt Hill
#
# Bulk Modulus (GPa) = 45.13073 57.11979 51.12526
# Shear Modulus (GPa) = 36.21346 40.83546 38.52446
#
# Velocity S-wave (km/s) = 3.79410 4.02896 3.91329
# Velocity P-wave (km/s) = 6.09373 6.65951 6.38289
#
# Compressibility (1/GPa) = 0.02215785
#
# Stress axis : x y z
#
# Youngs Moduli (GPa) = 76.54253 76.54311 204.43681
#
# Poissons Ratio (x) = 0.12813 0.28187
# Poissons Ratio (y) = 0.12813 0.28186
# Poissons Ratio (z) = 0.10553 0.10553
#
# Static dielectric constant tensor:
#      x y z
#    x 1.989230 0.000000 0.000000 
#    y 0.000000 1.989230 0.000000 
#    z 0.000000 0.000000 2.055830 
# 
# From -- ./inp_files/3983.got.cif
#   From: 2010.05.17/outbox.cif.g08.bks.cpg/sg135_2_cif.got.tgz:3983.got - 2010.05.20 12:50:20.
