data_PCOD9569834
_publ_section_title
;
Structure prediction by ZEFSAII (Michael W. Deem and Ramdas Pophale) SiO2 
 PCOD9569834
Probable space group: P 42/M N M
;
_chemical_formula_sum "Si O2"
_cell_formula_units_Z 120
_cell_length_a 21.360800
_cell_length_b 21.360800
_cell_length_c 14.264099
_cell_angle_alpha 90.000000
_cell_angle_beta 90.000000
_cell_angle_gamma 90.000000
_cell_volume 6508.476962
_symmetry_space_group_name_H-M "P 42/M N M"
_symmetry_group_IT_number 136
_symmetry_cell_setting 'tetragonal'
loop_
_space_group_symop_operation_xyz
x,y,z
1/2-y,1/2+x,1/2+z
-x,-y,z
1/2+y,1/2-x,1/2+z
1/2+x,1/2-y,1/2-z
1/2-x,1/2+y,1/2-z
y,x,-z
-y,-x,-z
-x,-y,-z
1/2+y,1/2-x,1/2-z
x,y,-z
1/2-y,1/2+x,1/2-z
1/2-x,1/2+y,1/2+z
1/2+x,1/2-y,1/2+z
-y,-x,z
y,x,z
loop_
_atom_site_type_symbol
_atom_site_label
_atom_site_fract_x
_atom_site_fract_y
_atom_site_fract_z
Si Si1 0.181539 0.027765 0.285516
Si Si2 0.404903 0.983547 0.611368
Si Si3 0.794129 0.555407 0.766596
Si Si4 0.605917 0.288068 0.604742
Si Si5 0.515653 0.891879 0.387687
Si Si6 0.862291 0.756700 0.604170
Si Si7 0.447107 0.552894 0.889654
Si Si8 0.193793 0.299106 0.214767
O O1 0.184065 0.060046 0.183136
O O2 0.221553 0.072360 0.354206
O O3 0.113582 0.027632 0.333101
O O4 0.222572 0.966174 0.272260
O O5 0.400903 0.980051 0.500000
O O6 0.338079 0.978947 0.658210
O O7 0.449280 0.924568 0.639988
O O8 0.437219 0.050175 0.632735
O O9 0.830551 0.535909 0.670306
O O10 0.795487 0.628063 0.792049
O O11 0.580178 0.278331 0.500000
O O12 0.661927 0.338074 0.598802
O O13 0.638772 0.226132 0.646729
O O14 0.515244 0.880720 0.500000
O O15 0.866577 0.730494 0.500000
O O16 0.818779 0.818779 0.602200
O O17 0.829841 0.712555 0.679404
O O18 0.500000 0.500000 0.890421
O O19 0.432006 0.567995 0.000000
O O20 0.254445 0.254445 0.199447
#
# Coordination Sequence:
#
# PCOD9569834 Si02
#       8
#    16  16  16  16  16  16   8  16
#     4  11  22  37  58  94 122 148 199 249 295 353
#     4   9  20  37  54  77 116 162 208 254 295 349
#     4  12  24  33  55  86 119 160 198 251 295 355
#     4   9  18  37  64  85 110 148 195 250 299 346
#     4   9  20  38  55  78 117 164 211 253 296 350
#     4   9  17  34  61  83 107 141 185 248 302 348
#     4  11  24  46  73  95 123 159 192 240 309 374
#     4   9  21  38  52  79 115 152 193 231 298 367
#
# _framework density 18.437493
#
# number of rings (size 3 to 8) (size 9 to 14) (size 15 to 20)
#    0.000    2.200    1.333    2.800    7.467    4.267 
#    0.000    0.000    0.000    2.400    0.000    1.867 
#    0.000    0.000    0.000    0.000    0.000    0.000 
#
# Total GULP energy -669286.984848 kJ/mol
# GULP energy per Si atom -5577.391540 kJ/mol
# Density = 1.839553 g / cm^3
# Si number density = 18.437493 Si / 1000 Ang^3
#
#
#
# Elastic Constant Matrix: (Units=GPa)
#
#
# Indices 1 2 3 4 5 6 
#
# 1 64.5185 34.8988 33.3119 0.0000 0.0000 0.0000
# 2 34.8988 64.5190 33.3122 0.0000 0.0000 0.0000
# 3 33.3119 33.3122 125.1324 0.0000 0.0000 0.0000
# 4 0.0000 0.0000 0.0000 180.2138 0.0000 0.0000
# 5 0.0000 0.0000 0.0000 0.0000 180.2145 0.0000
# 6 0.0000 0.0000 0.0000 0.0000 0.0000 8.7122
#
#
#
# Elastic Compliance Matrix: (Units=1/GPa)
#
#
# Indices 1 2 3 4 5 6 
#
# 1 0.023002 -0.010759 -0.003259 0.000000 0.000000 0.000000
# 2 -0.010759 0.023002 -0.003259 0.000000 0.000000 0.000000
# 3 -0.003259 -0.003259 0.009727 0.000000 0.000000 0.000000
# 4 0.000000 0.000000 0.000000 0.005549 0.000000 0.000000
# 5 0.000000 0.000000 0.000000 0.000000 0.005549 0.000000
# 6 0.000000 0.000000 0.000000 0.000000 0.000000 0.114781
#
#
# Mechanical properties :
#
#
# Convention : Reuss Voigt Hill
#
# Bulk Modulus (GPa) = 47.22439 50.80173 49.01306
# Shear Modulus (GPa) = 22.39910 84.00457 53.20184
#
# Velocity S-wave (km/s) = 3.48928 6.75727 5.37754
# Velocity P-wave (km/s) = 6.47319 9.40714 8.07454
#
# Compressibility (1/GPa) = 0.02117550
#
# Stress axis : x y z
#
# Youngs Moduli (GPa) = 43.47457 43.47493 102.80850
#
# Poissons Ratio (x) = 0.46775 0.33507
# Poissons Ratio (y) = 0.46775 0.33507
# Poissons Ratio (z) = 0.14169 0.14169
#
# Static dielectric constant tensor:
#      x y z
#    x 1.650750 0.000000 0.000000 
#    y 0.000000 1.650750 0.000000 
#    z 0.000000 0.000000 1.669880 
# 
# From -- ./inp_files/5311.got.cif
#   From: 2010.05.17/outbox.cif.g08.bks.cpg/sg136_3_cif.got.tgz:5311.got - 2010.05.20 12:54:53.
