data_PCOD9569572
_publ_section_title
;
Structure prediction by ZEFSAII (Michael W. Deem and Ramdas Pophale) SiO2 
 PCOD9569572
Probable space group: P 42/M N M
;
_chemical_formula_sum "Si O2"
_cell_formula_units_Z 88
_cell_length_a 17.355531
_cell_length_b 17.355531
_cell_length_c 15.150118
_cell_angle_alpha 90.000000
_cell_angle_beta 90.000000
_cell_angle_gamma 90.000000
_cell_volume 4563.434556
_symmetry_space_group_name_H-M "P 42/M N M"
_symmetry_group_IT_number 136
_symmetry_cell_setting 'tetragonal'
loop_
_space_group_symop_operation_xyz
x,y,z
1/2-y,1/2+x,1/2+z
-x,-y,z
1/2+y,1/2-x,1/2+z
1/2+x,1/2-y,1/2-z
1/2-x,1/2+y,1/2-z
y,x,-z
-y,-x,-z
-x,-y,-z
1/2+y,1/2-x,1/2-z
x,y,-z
1/2-y,1/2+x,1/2-z
1/2-x,1/2+y,1/2+z
1/2+x,1/2-y,1/2+z
-y,-x,z
y,x,z
loop_
_atom_site_type_symbol
_atom_site_label
_atom_site_fract_x
_atom_site_fract_y
_atom_site_fract_z
Si Si1 0.616944 0.922797 0.500000
Si Si2 0.939346 0.060655 0.304907
Si Si3 0.368420 0.497708 0.500000
Si Si4 0.604325 0.938993 0.000000
Si Si5 0.176501 0.823500 0.605834
Si Si6 0.453761 0.670722 0.312311
Si Si7 0.568163 0.186524 0.817548
Si Si8 0.659036 0.112641 0.666087
O O1 0.531160 0.885712 0.500000
O O2 0.670707 0.903288 0.416579
O O3 0.589439 0.013750 0.500000
O O4 0.887725 0.112276 0.369650
O O5 0.988019 0.115827 0.241129
O O6 0.000000 0.000000 0.347288
O O7 0.417774 0.417774 0.500000
O O8 0.435347 0.564654 0.500000
O O9 0.319300 0.509390 0.590013
O O10 0.636876 0.899158 0.912147
O O11 0.183095 0.816906 0.500000
O O12 0.258137 0.850032 0.646228
O O13 0.374934 0.625067 0.328611
O O14 0.434100 0.737012 0.242266
O O15 0.620591 0.132705 0.758000
O O16 0.478776 0.166924 0.829546
#
# Coordination Sequence:
#
# PCOD9569572 Si02
#       8
#     8   8   8   8   8  16  16  16
#     4   9  20  38  63  86 120 161 217 265 315 386
#     4  10  20  38  66  92 127 175 231 265 321 405
#     4   9  16  31  58  88 124 166 211 267 325 381
#     4   9  18  38  62  90 116 159 209 267 325 383
#     4  12  24  43  67  97 142 173 214 284 354 393
#     4  10  20  36  59  90 124 170 220 275 326 394
#     4  11  23  39  62  91 127 173 218 269 331 398
#     4  11  23  39  64  95 128 169 214 273 332 395
#
# _framework density 19.283721
#
# number of rings (size 3 to 8) (size 9 to 14) (size 15 to 20)
#    0.000    1.727    3.636    1.091    1.273    2.727 
#    0.000    1.364    0.000    0.000    0.000    0.000 
#    0.000    0.000    0.000    0.000    0.000    0.000 
#
# Total GULP energy -489971.050955 kJ/mol
# GULP energy per Si atom -5567.852852 kJ/mol
# Density = 1.923983 g / cm^3
# Si number density = 19.283721 Si / 1000 Ang^3
#
#
#
# Elastic Constant Matrix: (Units=GPa)
#
#
# Indices 1 2 3 4 5 6 
#
# 1 117.7682 -32.5603 42.2619 0.0000 0.0000 0.0000
# 2 -32.5603 117.7689 42.2613 0.0000 0.0000 0.0000
# 3 42.2619 42.2613 169.6947 0.0000 0.0000 0.0000
# 4 0.0000 0.0000 0.0000 24.9347 0.0000 0.0000
# 5 0.0000 0.0000 0.0000 0.0000 24.9346 0.0000
# 6 0.0000 0.0000 0.0000 0.0000 0.0000 7.2909
#
#
#
# Elastic Compliance Matrix: (Units=1/GPa)
#
#
# Indices 1 2 3 4 5 6 
#
# 1 0.011119 0.004467 -0.003882 0.000000 0.000000 0.000000
# 2 0.004467 0.011119 -0.003882 0.000000 0.000000 0.000000
# 3 -0.003882 -0.003882 0.007826 0.000000 0.000000 0.000000
# 4 0.000000 0.000000 0.000000 0.040105 0.000000 0.000000
# 5 0.000000 0.000000 0.000000 0.000000 0.040105 0.000000
# 6 0.000000 0.000000 0.000000 0.000000 0.000000 0.137158
#
#
# Mechanical properties :
#
#
# Convention : Reuss Voigt Hill
#
# Bulk Modulus (GPa) = 42.60322 56.57307 49.58814
# Shear Modulus (GPa) = 19.09497 34.98330 27.03913
#
# Velocity S-wave (km/s) = 3.15018 4.26389 3.74862
# Velocity P-wave (km/s) = 5.94746 7.32406 6.67136
#
# Compressibility (1/GPa) = 0.02347241
#
# Stress axis : x y z
#
# Youngs Moduli (GPa) = 89.93351 89.93434 127.77294
#
# Poissons Ratio (x) = -0.40175 0.49598
# Poissons Ratio (y) = -0.40175 0.49598
# Poissons Ratio (z) = 0.34910 0.34910
#
# Static dielectric constant tensor:
#      x y z
#    x 1.689980 0.000000 0.000000 
#    y 0.000000 1.689980 0.000000 
#    z 0.000000 0.000000 1.704860 
# 
# From -- ./inp_files/5113.got.cif
#   From: 2010.05.17/outbox.cif.g08.bks.cpg/sg136_3_cif.got.tgz:5113.got - 2010.05.20 12:54:53.
