data_PCOD9569535
_publ_section_title
;
Structure prediction by ZEFSAII (Michael W. Deem and Ramdas Pophale) SiO2 
 PCOD9569535
Probable space group: P 42/M N M
;
_chemical_formula_sum "Si O2"
_cell_formula_units_Z 72
_cell_length_a 21.446406
_cell_length_b 21.446406
_cell_length_c 9.008715
_cell_angle_alpha 90.000000
_cell_angle_beta 90.000000
_cell_angle_gamma 90.000000
_cell_volume 4143.543423
_symmetry_space_group_name_H-M "P 42/M N M"
_symmetry_group_IT_number 136
_symmetry_cell_setting 'tetragonal'
loop_
_space_group_symop_operation_xyz
x,y,z
1/2-y,1/2+x,1/2+z
-x,-y,z
1/2+y,1/2-x,1/2+z
1/2+x,1/2-y,1/2-z
1/2-x,1/2+y,1/2-z
y,x,-z
-y,-x,-z
-x,-y,-z
1/2+y,1/2-x,1/2-z
x,y,-z
1/2-y,1/2+x,1/2-z
1/2-x,1/2+y,1/2+z
1/2+x,1/2-y,1/2+z
-y,-x,z
y,x,z
loop_
_atom_site_type_symbol
_atom_site_label
_atom_site_fract_x
_atom_site_fract_y
_atom_site_fract_z
Si Si1 0.321229 0.038429 0.176652
Si Si2 0.552516 0.447485 0.821375
Si Si3 0.994050 0.819257 0.822213
Si Si4 0.776993 0.119581 0.671555
Si Si5 0.849978 0.605704 0.323786
O O1 0.247143 0.039265 0.212824
O O2 0.361060 0.088409 0.265511
O O3 0.346359 0.968574 0.206618
O O4 0.327137 0.049671 0.000000
O O5 0.500000 0.500000 0.782947
O O6 0.533340 0.380367 0.755618
O O7 0.555533 0.444468 0.000000
O O8 0.064299 0.808480 0.765241
O O9 0.993001 0.826956 0.000000
O O10 0.771172 0.099192 0.500000
O O11 0.820635 0.179366 0.676954
O O12 0.709757 0.133083 0.739666
O O13 0.843331 0.613607 0.500000
#
# Coordination Sequence:
#
# PCOD9569535 Si02
#       5
#    16   8  16  16  16
#     4   9  20  38  56  79 111 143 179 225 277 327
#     4  11  23  37  55  83 115 149 191 233 279 336
#     4  10  21  37  57  81 111 147 184 229 278 327
#     4  10  20  35  56  81 109 144 182 224 275 326
#     4  10  21  36  57  83 109 143 184 226 273 328
#
# _framework density 17.376432999999999
#
# number of rings (size 3 to 8) (size 9 to 14) (size 15 to 20)
#    0.000    2.111    0.000    4.333    0.000   11.111 
#    2.000    2.222    0.000    0.000    0.000    0.000 
#    0.000    0.000    0.000    0.000    0.000    0.000 
#
# Total GULP energy -401835.183200 kJ/mol
# GULP energy per Si atom -5581.044211 kJ/mol
# Density = 1.733688 g / cm^3
# Si number density = 17.376433 Si / 1000 Ang^3
#
#
#
# Elastic Constant Matrix: (Units=GPa)
#
#
# Indices 1 2 3 4 5 6 
#
# 1 87.8303 74.2102 60.3078 0.0000 0.0000 0.0000
# 2 74.2102 87.8302 60.3078 0.0000 0.0000 0.0000
# 3 60.3078 60.3078 77.7503 0.0000 0.0000 0.0000
# 4 0.0000 0.0000 0.0000 41.9625 0.0000 0.0000
# 5 0.0000 0.0000 0.0000 0.0000 41.9623 0.0000
# 6 0.0000 0.0000 0.0000 0.0000 0.0000 26.7281
#
#
#
# Elastic Compliance Matrix: (Units=1/GPa)
#
#
# Indices 1 2 3 4 5 6 
#
# 1 0.044011 -0.029409 -0.011326 0.000000 0.000000 0.000000
# 2 -0.029409 0.044012 -0.011326 0.000000 0.000000 0.000000
# 3 -0.011326 -0.011326 0.030432 0.000000 0.000000 0.000000
# 4 0.000000 0.000000 0.000000 0.023831 0.000000 0.000000
# 5 0.000000 0.000000 0.000000 0.000000 0.023831 0.000000
# 6 0.000000 0.000000 0.000000 0.000000 0.000000 0.037414
#
#
# Mechanical properties :
#
#
# Convention : Reuss Voigt Hill
#
# Bulk Modulus (GPa) = 69.77648 71.45139 70.61393
# Shear Modulus (GPa) = 16.00348 26.03623 21.01986
#
# Velocity S-wave (km/s) = 3.03807 3.87507 3.48181
# Velocity P-wave (km/s) = 7.24910 7.82499 7.54255
#
# Compressibility (1/GPa) = 0.01433148
#
# Stress axis : x y z
#
# Youngs Moduli (GPa) = 22.72137 22.72129 32.85980
#
# Poissons Ratio (x) = 0.66822 0.37218
# Poissons Ratio (y) = 0.66822 0.37218
# Poissons Ratio (z) = 0.25735 0.25735
#
# Static dielectric constant tensor:
#      x y z
#    x 1.572860 0.000000 0.000000 
#    y 0.000000 1.572860 0.000000 
#    z 0.000000 0.000000 1.583220 
# 
# From -- ./inp_files/1599.got.cif
#   From: 2010.05.17/outbox.cif.g08.bks.cpg/sg136_1_cif.got.tgz:1599.got - 2010.05.20 12:54:53.
