data_PCOD9569995
_publ_section_title
;
Structure prediction by ZEFSAII (Michael W. Deem and Ramdas Pophale) SiO2 
 PCOD9569995
Probable space group: P 42/N M C
;
_chemical_formula_sum "Si O2"
_cell_formula_units_Z 104
_cell_length_a 18.109032
_cell_length_b 18.109032
_cell_length_c 20.621803
_cell_angle_alpha 90.000000
_cell_angle_beta 90.000000
_cell_angle_gamma 90.000000
_cell_volume 6762.653035
_symmetry_space_group_name_H-M "P 42/N M C"
_symmetry_group_IT_number 137
_space_group.IT_coordinate_system_code '2'
_symmetry_cell_setting 'tetragonal'
loop_
_space_group_symop_operation_xyz
x,y,z
1/2-y,x,1/2+z
1/2-x,1/2-y,z
y,1/2-x,1/2+z
1/2+x,-y,-z
-x,1/2+y,-z
1/2+y,1/2+x,1/2-z
-y,-x,1/2-z
-x,-y,-z
1/2+y,-x,1/2-z
1/2+x,1/2+y,-z
-y,1/2+x,1/2-z
1/2-x,y,z
x,1/2-y,z
1/2-y,1/2-x,1/2+z
y,x,1/2+z
loop_
_atom_site_type_symbol
_atom_site_label
_atom_site_fract_x
_atom_site_fract_y
_atom_site_fract_z
Si Si1 0.664982 0.467248 0.578960
Si Si2 0.335198 0.062272 0.547624
Si Si3 0.897006 0.428862 0.371021
Si Si4 0.037608 0.165429 0.592927
Si Si5 0.527889 0.466736 0.672935
Si Si6 0.836966 0.336966 0.250000
Si Si7 0.165314 0.897017 0.000102
O O1 0.750000 0.476181 0.598863
O O2 0.647002 0.526862 0.522636
O O3 0.606272 0.473390 0.636549
O O4 0.654428 0.388232 0.543126
O O5 0.250000 0.083387 0.548336
O O6 0.388378 0.129294 0.565031
O O7 0.349421 0.996340 0.599180
O O8 0.859892 0.387711 0.310698
O O9 0.905245 0.370815 0.429573
O O10 0.973942 0.467070 0.350118
O O11 0.046650 0.250000 0.614122
O O12 0.008266 0.109849 0.648025
O O13 0.975554 0.163696 0.536800
O O14 0.533540 0.466461 0.750000
O O15 0.847754 0.250000 0.264734
O O16 0.250000 0.871355 0.996771
#
# Coordination Sequence:
#
# PCOD9569995 Si02
#       7
#    16  16  16  16  16   8  16
#     4   9  18  31  48  72  97 122 159 202 241 287
#     4   9  17  30  49  70  92 121 155 197 246 286
#     4  10  18  32  48  68  94 126 163 196 228 283
#     4   9  18  31  48  72  96 118 156 202 241 286
#     4  10  19  32  50  69  94 131 166 199 236 278
#     4  11  22  32  44  68 100 128 154 189 232 282
#     4   9  17  30  49  70  94 124 155 193 242 289
#
# _framework density 15.378579999999999
#
# number of rings (size 3 to 8) (size 9 to 14) (size 15 to 20)
#    0.000    2.538    0.769    1.846    0.000    5.538 
#    0.000    0.000    0.000    0.000    0.000    2.154 
#    0.000    0.000    0.000    0.000    0.000    0.000 
#
# Total GULP energy -579627.317726 kJ/mol
# GULP energy per Si atom -5573.339594 kJ/mol
# Density = 1.534358 g / cm^3
# Si number density = 15.378580 Si / 1000 Ang^3
#
#
#
# Elastic Constant Matrix: (Units=GPa)
#
#
# Indices 1 2 3 4 5 6 
#
# 1 57.9228 30.9523 12.5946 0.0000 0.0000 0.0000
# 2 30.9523 57.9229 12.5947 0.0000 0.0000 0.0000
# 3 12.5946 12.5947 59.6362 0.0000 0.0000 0.0000
# 4 0.0000 0.0000 0.0000 14.7878 0.0000 0.0000
# 5 0.0000 0.0000 0.0000 0.0000 14.7878 0.0000
# 6 0.0000 0.0000 0.0000 0.0000 0.0000 16.3709
#
#
#
# Elastic Compliance Matrix: (Units=1/GPa)
#
#
# Indices 1 2 3 4 5 6 
#
# 1 0.024523 -0.012555 -0.002528 0.000000 0.000000 0.000000
# 2 -0.012555 0.024523 -0.002528 0.000000 0.000000 0.000000
# 3 -0.002528 -0.002528 0.017836 0.000000 0.000000 0.000000
# 4 0.000000 0.000000 0.000000 0.067623 0.000000 0.000000
# 5 0.000000 0.000000 0.000000 0.000000 0.067623 0.000000
# 6 0.000000 0.000000 0.000000 0.000000 0.000000 0.061084
#
#
# Mechanical properties :
#
#
# Convention : Reuss Voigt Hill
#
# Bulk Modulus (GPa) = 31.58369 31.97390 31.77879
# Shear Modulus (GPa) = 16.18199 17.14533 16.66366
#
# Velocity S-wave (km/s) = 3.24735 3.34261 3.29532
# Velocity P-wave (km/s) = 5.88578 5.97777 5.93195
#
# Compressibility (1/GPa) = 0.03166191
#
# Stress axis : x y z
#
# Youngs Moduli (GPa) = 40.77841 40.77846 56.06653
#
# Poissons Ratio (x) = 0.51196 0.14171
# Poissons Ratio (y) = 0.51196 0.14171
# Poissons Ratio (z) = 0.10307 0.10307
#
# Static dielectric constant tensor:
#      x y z
#    x 1.503060 0.000000 0.000000 
#    y 0.000000 1.503060 0.000000 
#    z 0.000000 0.000000 1.486040 
# 
# From -- ./inp_files/8098.got.cif
#   From: 2010.05.17/outbox.cif.g08.bks.cpg/sg137_5_cif.got.tgz:8098.got - 2010.05.20 13:01:12.
