data_PCOD9569739
_publ_section_title
;
Structure prediction by ZEFSAII (Michael W. Deem and Ramdas Pophale) SiO2 
 PCOD9569739
Probable space group: P 42/M N M
;
_chemical_formula_sum "Si O2"
_cell_formula_units_Z 116
_cell_length_a 17.301600
_cell_length_b 17.301600
_cell_length_c 20.725898
_cell_angle_alpha 90.000000
_cell_angle_beta 90.000000
_cell_angle_gamma 90.000000
_cell_volume 6204.201451
_symmetry_space_group_name_H-M "P 42/M N M"
_symmetry_group_IT_number 136
_symmetry_cell_setting 'tetragonal'
loop_
_space_group_symop_operation_xyz
x,y,z
1/2-y,1/2+x,1/2+z
-x,-y,z
1/2+y,1/2-x,1/2+z
1/2+x,1/2-y,1/2-z
1/2-x,1/2+y,1/2-z
y,x,-z
-y,-x,-z
-x,-y,-z
1/2+y,1/2-x,1/2-z
x,y,-z
1/2-y,1/2+x,1/2-z
1/2-x,1/2+y,1/2+z
1/2+x,1/2-y,1/2+z
-y,-x,z
y,x,z
loop_
_atom_site_type_symbol
_atom_site_label
_atom_site_fract_x
_atom_site_fract_y
_atom_site_fract_z
Si Si1 0.272967 0.142204 0.740707
Si Si2 0.185630 0.987800 0.699010
Si Si3 0.482601 0.219150 0.570978
Si Si4 0.159729 0.289737 0.892979
Si Si5 0.500000 0.500000 0.787923
Si Si6 0.883279 0.243066 0.188316
Si Si7 0.426532 0.042716 0.424425
Si Si8 0.043207 0.727160 0.575132
O O1 0.206320 0.206320 0.732386
O O2 0.294975 0.144598 0.816117
O O3 0.345639 0.172669 0.699395
O O4 0.236310 0.061658 0.720212
O O5 0.216315 0.918479 0.743777
O O6 0.202921 0.970403 0.624199
O O7 0.095658 0.999907 0.711406
O O8 0.460711 0.249952 0.500000
O O9 0.575190 0.218111 0.575874
O O10 0.447011 0.261191 0.632674
O O11 0.447091 0.132748 0.575901
O O12 0.217522 0.217522 0.904872
O O13 0.198294 0.368710 0.917526
O O14 0.815081 0.184920 0.170078
O O15 0.424026 0.018297 0.500000
O O16 0.500000 0.000000 0.393112
O O17 0.343835 0.011947 0.401511
O O18 0.027442 0.745257 0.500000
#
# Coordination Sequence:
#
# PCOD9569739 Si02
#       8
#    16  16  16  16   4  16  16  16
#     4  10  21  40  65  91 121 158 206 266 313 357
#     4  12  23  43  66  91 123 164 214 264 310 376
#     4  11  22  38  60  88 126 167 201 249 313 376
#     4  11  22  36  60  92 126 162 203 255 316 377
#     4  12  28  44  69  92 117 172 228 262 320 382
#     4  11  23  40  64  91 119 158 210 258 304 371
#     4   9  17  33  58  87 121 162 200 237 300 380
#     4  11  23  39  63  93 127 167 207 258 322 381
#
# _framework density 18.697005999999998
#
# number of rings (size 3 to 8) (size 9 to 14) (size 15 to 20)
#    0.000    1.241    5.517    1.241    0.966    1.379 
#    0.000    0.690    0.000    0.828    0.000    1.448 
#    0.000    0.000    0.000    0.000    0.000    0.000 
#
# Total GULP energy -646175.288582 kJ/mol
# GULP energy per Si atom -5570.476626 kJ/mol
# Density = 1.865445 g / cm^3
# Si number density = 18.697006 Si / 1000 Ang^3
#
#
#
# Elastic Constant Matrix: (Units=GPa)
#
#
# Indices 1 2 3 4 5 6 
#
# 1 88.0514 10.7762 16.1148 0.0000 0.0000 0.0000
# 2 10.7762 88.0514 16.1148 0.0000 0.0000 0.0000
# 3 16.1148 16.1148 77.9093 0.0000 0.0000 0.0000
# 4 0.0000 0.0000 0.0000 3.6750 0.0000 0.0000
# 5 0.0000 0.0000 0.0000 0.0000 3.6750 0.0000
# 6 0.0000 0.0000 0.0000 0.0000 0.0000 30.5607
#
#
#
# Elastic Compliance Matrix: (Units=1/GPa)
#
#
# Indices 1 2 3 4 5 6 
#
# 1 0.011896 -0.001045 -0.002244 0.000000 0.000000 0.000000
# 2 -0.001045 0.011896 -0.002244 0.000000 0.000000 0.000000
# 3 -0.002244 -0.002244 0.013764 0.000000 0.000000 0.000000
# 4 0.000000 0.000000 0.000000 0.272109 0.000000 0.000000
# 5 0.000000 0.000000 0.000000 0.000000 0.272109 0.000000
# 6 0.000000 0.000000 0.000000 0.000000 0.000000 0.032722
#
#
# Mechanical properties :
#
#
# Convention : Reuss Voigt Hill
#
# Bulk Modulus (GPa) = 37.75346 37.78042 37.76694
# Shear Modulus (GPa) = 7.88157 21.64922 14.76539
#
# Velocity S-wave (km/s) = 2.05538 3.40648 2.81324
# Velocity P-wave (km/s) = 5.08614 5.97685 5.54939
#
# Compressibility (1/GPa) = 0.02648764
#
# Stress axis : x y z
#
# Youngs Moduli (GPa) = 84.06430 84.06430 72.65398
#
# Poissons Ratio (x) = 0.08786 0.16306
# Poissons Ratio (y) = 0.08786 0.16306
# Poissons Ratio (z) = 0.18867 0.18867
#
# Static dielectric constant tensor:
#      x y z
#    x 1.647240 0.000000 0.000000 
#    y 0.000000 1.647240 0.000000 
#    z 0.000000 0.000000 1.663410 
# 
# From -- ./inp_files/6475.got.cif
#   From: 2010.05.17/outbox.cif.g08.bks.cpg/sg136_4_cif.got.tgz:6475.got - 2010.05.20 12:54:53.
