data_PCOD9569897
_publ_section_title
;
Structure prediction by ZEFSAII (Michael W. Deem and Ramdas Pophale) SiO2 
 PCOD9569897
Probable space group: P 42/M N M
;
_chemical_formula_sum "Si O2"
_cell_formula_units_Z 56
_cell_length_a 10.570284
_cell_length_b 10.570284
_cell_length_c 23.179084
_cell_angle_alpha 90.000000
_cell_angle_beta 90.000000
_cell_angle_gamma 90.000000
_cell_volume 2589.820006
_symmetry_space_group_name_H-M "P 42/M N M"
_symmetry_group_IT_number 136
_symmetry_cell_setting 'tetragonal'
loop_
_space_group_symop_operation_xyz
x,y,z
1/2-y,1/2+x,1/2+z
-x,-y,z
1/2+y,1/2-x,1/2+z
1/2+x,1/2-y,1/2-z
1/2-x,1/2+y,1/2-z
y,x,-z
-y,-x,-z
-x,-y,-z
1/2+y,1/2-x,1/2-z
x,y,-z
1/2-y,1/2+x,1/2-z
1/2-x,1/2+y,1/2+z
1/2+x,1/2-y,1/2+z
-y,-x,z
y,x,z
loop_
_atom_site_type_symbol
_atom_site_label
_atom_site_fract_x
_atom_site_fract_y
_atom_site_fract_z
Si Si1 0.812680 0.401540 0.386035
Si Si2 0.286878 0.493764 0.500000
Si Si3 0.995818 0.707224 0.761716
Si Si4 0.698004 0.493610 0.860053
O O1 0.715351 0.284650 0.390949
O O2 0.795970 0.483849 0.442967
O O3 0.766805 0.475690 0.328838
O O4 0.950970 0.336043 0.377233
O O5 0.362381 0.362381 0.500000
O O6 0.396372 0.603629 0.500000
O O7 0.876314 0.620540 0.744900
O O8 0.000190 0.804656 0.709738
O O9 0.644325 0.355676 0.877262
O O10 0.595369 0.595369 0.882006
#
# Coordination Sequence:
#
# PCOD9569897 Si02
#       4
#    16   8  16  16
#     4   9  17  30  48  71  99 130 165 205 251 306
#     4   9  18  32  49  70  99 135 173 213 256 305
#     4   9  17  29  47  71  98 128 160 201 254 304
#     4   9  17  29  46  69  96 126 163 208 256 308
#
# _framework density 21.623125000000002
#
# number of rings (size 3 to 8) (size 9 to 14) (size 15 to 20)
#    0.000    3.000    0.000    0.857    0.000    2.286 
#    0.000    3.571    0.000   18.000    0.000    0.000 
#    0.000    0.000    0.000    0.000    0.000    0.000 
#
# Total GULP energy -311878.856941 kJ/mol
# GULP energy per Si atom -5569.265303 kJ/mol
# Density = 2.157391 g / cm^3
# Si number density = 21.623125 Si / 1000 Ang^3
#
#
#
# Elastic Constant Matrix: (Units=GPa)
#
#
# Indices 1 2 3 4 5 6 
#
# 1 46.8987 25.0112 40.1243 0.0000 0.0000 0.0000
# 2 25.0112 46.8986 40.1243 0.0000 0.0000 0.0000
# 3 40.1243 40.1243 153.4906 0.0000 0.0000 0.0000
# 4 0.0000 0.0000 0.0000 19.1655 0.0000 0.0000
# 5 0.0000 0.0000 0.0000 0.0000 19.1655 0.0000
# 6 0.0000 0.0000 0.0000 0.0000 0.0000 84.6977
#
#
#
# Elastic Compliance Matrix: (Units=1/GPa)
#
#
# Indices 1 2 3 4 5 6 
#
# 1 0.032661 -0.013027 -0.005133 0.000000 0.000000 0.000000
# 2 -0.013027 0.032661 -0.005133 0.000000 0.000000 0.000000
# 3 -0.005133 -0.005133 0.009198 0.000000 0.000000 0.000000
# 4 0.000000 0.000000 0.000000 0.052177 0.000000 0.000000
# 5 0.000000 0.000000 0.000000 0.000000 0.052177 0.000000
# 6 0.000000 0.000000 0.000000 0.000000 0.000000 0.011807
#
#
# Mechanical properties :
#
#
# Convention : Reuss Voigt Hill
#
# Bulk Modulus (GPa) = 35.79574 50.86750 43.33162
# Shear Modulus (GPa) = 20.27753 34.07429 27.17591
#
# Velocity S-wave (km/s) = 3.06563 3.97397 3.54898
# Velocity P-wave (km/s) = 5.39639 6.68074 6.07262
#
# Compressibility (1/GPa) = 0.02793628
#
# Stress axis : x y z
#
# Youngs Moduli (GPa) = 30.61738 30.61734 108.71351
#
# Poissons Ratio (x) = 0.39886 0.55798
# Poissons Ratio (y) = 0.39886 0.55798
# Poissons Ratio (z) = 0.15715 0.15715
#
# Static dielectric constant tensor:
#      x y z
#    x 1.850690 0.000000 0.000000 
#    y 0.000000 1.850690 0.000000 
#    z 0.000000 0.000000 1.772280 
# 
# From -- ./inp_files/6902.got.cif
#   From: 2010.05.17/outbox.cif.g08.bks.cpg/sg136_4_cif.got.tgz:6902.got - 2010.05.20 12:54:53.
