data_PCOD9569423
_publ_section_title
;
Structure prediction by ZEFSAII (Michael W. Deem and Ramdas Pophale) SiO2 
 PCOD9569423
Probable space group: P 42/M N M
;
_chemical_formula_sum "Si O2"
_cell_formula_units_Z 104
_cell_length_a 18.356886
_cell_length_b 18.356886
_cell_length_c 17.810935
_cell_angle_alpha 90.000000
_cell_angle_beta 90.000000
_cell_angle_gamma 90.000000
_cell_volume 6001.844517
_symmetry_space_group_name_H-M "P 42/M N M"
_symmetry_group_IT_number 136
_symmetry_cell_setting 'tetragonal'
loop_
_space_group_symop_operation_xyz
x,y,z
1/2-y,1/2+x,1/2+z
-x,-y,z
1/2+y,1/2-x,1/2+z
1/2+x,1/2-y,1/2-z
1/2-x,1/2+y,1/2-z
y,x,-z
-y,-x,-z
-x,-y,-z
1/2+y,1/2-x,1/2-z
x,y,-z
1/2-y,1/2+x,1/2-z
1/2-x,1/2+y,1/2+z
1/2+x,1/2-y,1/2+z
-y,-x,z
y,x,z
loop_
_atom_site_type_symbol
_atom_site_label
_atom_site_fract_x
_atom_site_fract_y
_atom_site_fract_z
Si Si1 0.322076 0.196503 0.819949
Si Si2 0.788999 0.037801 0.332112
Si Si3 0.558760 0.558760 0.089082
Si Si4 0.604980 0.272544 0.085265
Si Si5 0.597176 0.279327 0.585927
Si Si6 0.710614 0.166118 0.851351
Si Si7 0.674448 0.552141 0.655965
O O1 0.261679 0.261679 0.822623
O O2 0.397367 0.232182 0.849214
O O3 0.287895 0.128790 0.865004
O O4 0.336854 0.177896 0.732596
O O5 0.861058 0.042722 0.382064
O O6 0.814040 0.046893 0.245892
O O7 0.761991 0.957805 0.353693
O O8 0.500000 0.500000 0.118395
O O9 0.556310 0.556310 0.000000
O O10 0.657704 0.342296 0.101920
O O11 0.654877 0.201042 0.091193
O O12 0.577570 0.281819 0.000000
O O13 0.581893 0.257234 0.500000
O O14 0.662443 0.337558 0.584744
O O15 0.527677 0.320545 0.621045
O O16 0.775549 0.224452 0.844404
O O17 0.752975 0.093509 0.872975
O O18 0.602875 0.602875 0.641325
#
# Coordination Sequence:
#
# PCOD9569423 Si02
#       7
#    16  16   8  16  16  16  16
#     4   9  17  34  54  73  97 132 180 222 258 305
#     4  11  19  34  52  77 106 142 179 213 254 311
#     4  11  22  32  44  72 113 149 174 204 249 304
#     4  10  20  32  48  76 110 142 175 210 256 312
#     4  10  22  36  51  76 106 137 175 219 268 320
#     4   8  16  32  54  74  97 129 174 223 259 307
#     4  10  20  36  56  78 102 134 178 221 268 321
#
# _framework density 17.328005999999998
#
# number of rings (size 3 to 8) (size 9 to 14) (size 15 to 20)
#    0.000    2.231    1.538    2.769    0.000    6.154 
#    0.000    2.308    0.000    0.923    0.000    6.462 
#    0.000    0.000    0.000    0.000    0.000    0.000 
#
# Total GULP energy -579197.105136 kJ/mol
# GULP energy per Si atom -5569.202934 kJ/mol
# Density = 1.728857 g / cm^3
# Si number density = 17.328006 Si / 1000 Ang^3
#
#
#
# Elastic Constant Matrix: (Units=GPa)
#
#
# Indices 1 2 3 4 5 6 
#
# 1 109.6217 -28.4920 19.6218 0.0000 0.0000 0.0000
# 2 -28.4920 109.6217 19.6218 0.0000 0.0000 0.0000
# 3 19.6218 19.6218 34.6112 0.0000 0.0000 0.0000
# 4 0.0000 0.0000 0.0000 22.6826 0.0000 0.0000
# 5 0.0000 0.0000 0.0000 0.0000 22.6826 0.0000
# 6 0.0000 0.0000 0.0000 0.0000 0.0000 25.6077
#
#
#
# Elastic Compliance Matrix: (Units=1/GPa)
#
#
# Indices 1 2 3 4 5 6 
#
# 1 0.012112 0.004871 -0.009628 0.000000 0.000000 0.000000
# 2 0.004871 0.012112 -0.009628 0.000000 0.000000 0.000000
# 3 -0.009628 -0.009628 0.039809 0.000000 0.000000 0.000000
# 4 0.000000 0.000000 0.000000 0.044087 0.000000 0.000000
# 5 0.000000 0.000000 0.000000 0.000000 0.044087 0.000000
# 6 0.000000 0.000000 0.000000 0.000000 0.000000 0.039051
#
#
# Mechanical properties :
#
#
# Convention : Reuss Voigt Hill
#
# Bulk Modulus (GPa) = 28.35827 30.59529 29.47678
# Shear Modulus (GPa) = 21.57209 30.40145 25.98677
#
# Velocity S-wave (km/s) = 3.53218 4.19318 3.87679
# Velocity P-wave (km/s) = 5.74771 6.41394 6.08994
#
# Compressibility (1/GPa) = 0.03526308
#
# Stress axis : x y z
#
# Youngs Moduli (GPa) = 82.56396 82.56396 25.11981
#
# Poissons Ratio (x) = -0.40220 0.24186
# Poissons Ratio (y) = -0.40220 0.24186
# Poissons Ratio (z) = 0.79494 0.79494
#
# Static dielectric constant tensor:
#      x y z
#    x 1.747470 0.000000 0.000000 
#    y 0.000000 1.747470 0.000000 
#    z 0.000000 0.000000 1.596750 
# 
# From -- ./inp_files/6425.got.cif
#   From: 2010.05.17/outbox.cif.g08.bks.cpg/sg136_4_cif.got.tgz:6425.got - 2010.05.20 12:54:53.
