data_PCOD9569386
_publ_section_title
;
Structure prediction by ZEFSAII (Michael W. Deem and Ramdas Pophale) SiO2 
 PCOD9569386
Probable space group: P 42/M N M
;
_chemical_formula_sum "Si O2"
_cell_formula_units_Z 112
_cell_length_a 16.449404
_cell_length_b 16.449404
_cell_length_c 19.313125
_cell_angle_alpha 90.000000
_cell_angle_beta 90.000000
_cell_angle_gamma 90.000000
_cell_volume 5225.801215
_symmetry_space_group_name_H-M "P 42/M N M"
_symmetry_group_IT_number 136
_symmetry_cell_setting 'tetragonal'
loop_
_space_group_symop_operation_xyz
x,y,z
1/2-y,1/2+x,1/2+z
-x,-y,z
1/2+y,1/2-x,1/2+z
1/2+x,1/2-y,1/2-z
1/2-x,1/2+y,1/2-z
y,x,-z
-y,-x,-z
-x,-y,-z
1/2+y,1/2-x,1/2-z
x,y,-z
1/2-y,1/2+x,1/2-z
1/2-x,1/2+y,1/2+z
1/2+x,1/2-y,1/2+z
-y,-x,z
y,x,z
loop_
_atom_site_type_symbol
_atom_site_label
_atom_site_fract_x
_atom_site_fract_y
_atom_site_fract_z
Si Si1 0.944895 0.689114 0.335948
Si Si2 0.732343 0.895123 0.078453
Si Si3 0.654053 0.787369 0.421874
Si Si4 0.050285 0.821742 0.710084
Si Si5 0.528713 0.657208 0.632799
Si Si6 0.079376 0.446351 0.076407
Si Si7 0.315475 0.810507 0.720626
O O1 0.874713 0.668746 0.390145
O O2 0.899020 0.674011 0.262537
O O3 0.979367 0.780559 0.333919
O O4 0.020468 0.633809 0.360817
O O5 0.647806 0.945522 0.081868
O O6 0.714249 0.834769 0.141677
O O7 0.811275 0.948672 0.094877
O O8 0.736813 0.863160 0.000000
O O9 0.622515 0.792346 0.500000
O O10 0.738334 0.738334 0.422805
O O11 0.592781 0.730222 0.379811
O O12 0.103132 0.896869 0.681707
O O13 0.015725 0.847444 0.784967
O O14 0.115304 0.748287 0.722771
O O15 0.575248 0.575248 0.609293
O O16 0.000000 0.500000 0.076428
O O17 0.120229 0.455258 0.000000
O O18 0.266294 0.733707 0.752925
#
# Coordination Sequence:
#
# PCOD9569386 Si02
#       7
#    16  16  16  16  16  16  16
#     4  12  20  35  60  81 109 148 190 230 287 338
#     4  11  22  37  56  82 116 158 195 233 288 344
#     4  10  20  33  54  85 117 149 185 230 284 343
#     4  10  21  37  57  81 112 145 188 239 283 333
#     4  10  19  35  58  87 119 153 193 236 282 336
#     4  10  22  36  52  83 125 157 182 222 281 353
#     4  11  23  40  58  82 112 148 196 247 286 338
#
# _framework density 21.432120000000001
#
# number of rings (size 3 to 8) (size 9 to 14) (size 15 to 20)
#    0.000    1.429    4.286    2.143    0.000    2.286 
#    0.000    0.000    0.000    4.714    0.000    2.000 
#    0.000    0.000    0.000    0.000    0.000    0.000 
#
# Total GULP energy -624914.047200 kJ/mol
# GULP energy per Si atom -5579.589707 kJ/mol
# Density = 2.138334 g / cm^3
# Si number density = 21.432120 Si / 1000 Ang^3
#
#
#
# Elastic Constant Matrix: (Units=GPa)
#
#
# Indices 1 2 3 4 5 6 
#
# 1 19.0408 45.7745 6.7471 0.0000 0.0000 0.0000
# 2 45.7745 19.0408 6.7471 0.0000 0.0000 0.0000
# 3 6.7471 6.7471 79.5209 0.0000 0.0000 0.0000
# 4 0.0000 0.0000 0.0000 11.0642 0.0000 0.0000
# 5 0.0000 0.0000 0.0000 0.0000 11.0642 0.0000
# 6 0.0000 0.0000 0.0000 0.0000 0.0000 32.4219
#
#
#
# Elastic Compliance Matrix: (Units=1/GPa)
#
#
# Indices 1 2 3 4 5 6 
#
# 1 -0.010850 0.026556 -0.001333 0.000000 0.000000 0.000000
# 2 0.026556 -0.010850 -0.001333 0.000000 0.000000 0.000000
# 3 -0.001333 -0.001333 0.012801 0.000000 0.000000 0.000000
# 4 0.000000 0.000000 0.000000 0.090382 0.000000 0.000000
# 5 0.000000 0.000000 0.000000 0.000000 0.090382 0.000000
# 6 0.000000 0.000000 0.000000 0.000000 0.000000 0.030843
#
#
# Mechanical properties :
#
#
# Convention : Reuss Voigt Hill
#
# Bulk Modulus (GPa) = 25.71832 26.23780 25.97806
# Shear Modulus (GPa) = 29.78176 14.79897 22.29036
#
# Velocity S-wave (km/s) = 3.73176 2.63060 3.22847
# Velocity P-wave (km/s) = 5.53118 4.63633 5.10341
#
# Compressibility (1/GPa) = 0.03888279
#
# Stress axis : x y z
#
# Youngs Moduli (GPa) = -92.16560 -92.16560 78.11620
#
# Poissons Ratio (x) = 2.44754 0.10410
# Poissons Ratio (y) = 2.44754 0.10410
# Poissons Ratio (z) = -0.12282 -0.12282
#
# Static dielectric constant tensor:
#      x y z
#    x 1.803130 0.000000 0.000000 
#    y 0.000000 1.803130 0.000000 
#    z 0.000000 0.000000 1.802040 
# 
# From -- ./inp_files/7748.got.cif
#   From: 2010.05.17/outbox.cif.g08.bks.cpg/sg136_4_cif.got.tgz:7748.got - 2010.05.20 12:54:53.
