data_PCOD9569908
_publ_section_title
;
Structure prediction by ZEFSAII (Michael W. Deem and Ramdas Pophale) SiO2 
 PCOD9569908
Probable space group: P 42/M N M
;
_chemical_formula_sum "Si O2"
_cell_formula_units_Z 80
_cell_length_a 12.000000
_cell_length_b 12.000000
_cell_length_c 30.000000
_cell_angle_alpha 90.000000
_cell_angle_beta 90.000000
_cell_angle_gamma 90.000000
_cell_volume 4320.000000
_symmetry_space_group_name_H-M "P 42/M N M"
_symmetry_group_IT_number 136
_symmetry_cell_setting 'tetragonal'
loop_
_space_group_symop_operation_xyz
x,y,z
1/2-y,1/2+x,1/2+z
-x,-y,z
1/2+y,1/2-x,1/2+z
1/2+x,1/2-y,1/2-z
1/2-x,1/2+y,1/2-z
y,x,-z
-y,-x,-z
-x,-y,-z
1/2+y,1/2-x,1/2-z
x,y,-z
1/2-y,1/2+x,1/2-z
1/2-x,1/2+y,1/2+z
1/2+x,1/2-y,1/2+z
-y,-x,z
y,x,z
loop_
_atom_site_type_symbol
_atom_site_label
_atom_site_fract_x
_atom_site_fract_y
_atom_site_fract_z
Si Si1 0.247779 0.439507 0.813580
Si Si2 0.131548 0.466144 0.551329
Si Si3 0.503421 0.314728 0.722318
Si Si4 0.094473 0.094473 0.632964
Si Si5 0.718414 0.907679 0.864161
Si Si6 0.206802 0.206802 0.551362
O O1 0.339541 0.339541 0.812372
O O2 0.231051 0.476709 0.762585
O O3 0.305050 0.540559 0.839489
O O4 0.146267 0.390854 0.841481
O O5 0.161783 0.493723 0.500000
O O6 0.193349 0.536523 0.589036
O O7 0.169743 0.336666 0.557876
O O8 0.000000 0.500000 0.555675
O O9 0.621504 0.378497 0.730317
O O10 0.410209 0.410209 0.723750
O O11 0.508482 0.263409 0.673479
O O12 0.135336 0.135336 0.585558
O O13 0.000000 0.000000 0.629031
O O14 0.810756 0.810756 0.869519
O O15 0.180806 0.180806 0.500000
#
# Coordination Sequence:
#
# PCOD9569908 Si02
#       6
#    16  16  16   8  16   8
#     4   9  17  33  53  80 113 145 184 231 285 342
#     4  10  22  42  61  80 117 156 188 242 305 354
#     4   9  17  33  54  77 114 156 185 224 285 339
#     4  10  18  33  62  83 107 150 187 233 289 342
#     4  10  21  36  57  86 113 144 198 246 274 333
#     4  10  22  39  59  86 116 153 195 233 297 364
#
# _framework density 18.518519000000001
#
# number of rings (size 3 to 8) (size 9 to 14) (size 15 to 20)
#    0.000    2.400    1.000    1.200    1.400    0.600 
#    7.200    0.000    0.000    9.000    0.000    0.000 
#    0.000    0.000    0.000    0.000    0.000    0.000 
#
# Total GULP energy -445936.050596 kJ/mol
# GULP energy per Si atom -5574.200632 kJ/mol
# Density = 1.847637 g / cm^3
# Si number density = 18.518519 Si / 1000 Ang^3
#
#
#
# Elastic Constant Matrix: (Units=GPa)
#
#
# Indices 1 2 3 4 5 6 
#
# 1 37.2314 23.1688 47.6849 0.0000 0.0000 0.0000
# 2 23.1688 37.2314 47.6849 0.0000 0.0000 0.0000
# 3 47.6849 47.6849 158.1388 0.0000 0.0000 0.0000
# 4 0.0000 0.0000 0.0000 30.4226 0.0000 0.0000
# 5 0.0000 0.0000 0.0000 0.0000 30.4226 0.0000
# 6 0.0000 0.0000 0.0000 0.0000 0.0000 14.8804
#
#
#
# Elastic Compliance Matrix: (Units=1/GPa)
#
#
# Indices 1 2 3 4 5 6 
#
# 1 0.051357 -0.019754 -0.009529 0.000000 0.000000 0.000000
# 2 -0.019754 0.051357 -0.009529 0.000000 0.000000 0.000000
# 3 -0.009529 -0.009529 0.012071 0.000000 0.000000 0.000000
# 4 0.000000 0.000000 0.000000 0.032870 0.000000 0.000000
# 5 0.000000 0.000000 0.000000 0.000000 0.032870 0.000000
# 6 0.000000 0.000000 0.000000 0.000000 0.000000 0.067202
#
#
# Mechanical properties :
#
#
# Convention : Reuss Voigt Hill
#
# Bulk Modulus (GPa) = 26.91177 52.18654 39.54916
# Shear Modulus (GPa) = 14.80434 22.74934 18.77684
#
# Velocity S-wave (km/s) = 2.83049 3.50875 3.18771
# Velocity P-wave (km/s) = 5.02456 6.68259 5.91199
#
# Compressibility (1/GPa) = 0.03715846
#
# Stress axis : x y z
#
# Youngs Moduli (GPa) = 19.47163 19.47163 82.84617
#
# Poissons Ratio (x) = 0.38464 0.78948
# Poissons Ratio (y) = 0.38464 0.78948
# Poissons Ratio (z) = 0.18555 0.18555
#
# Static dielectric constant tensor:
#      x y z
#    x 1.689570 0.000000 0.000000 
#    y 0.000000 1.689570 0.000000 
#    z 0.000000 0.000000 1.616070 
# 
# From -- ./inp_files/9629.got.cif
#   From: 2010.05.17/outbox.ucp.g08.bks.cvg/sg136_5_cif.got.tgz:9629.got - 2010.06.11 11:40:42.
