data_PCOD9569101
_publ_section_title
;
Structure prediction by ZEFSAII (Michael W. Deem and Ramdas Pophale) SiO2 
 PCOD9569101
Probable space group: P 42/M N M
;
_chemical_formula_sum "Si O2"
_cell_formula_units_Z 72
_cell_length_a 24.075054
_cell_length_b 24.075054
_cell_length_c 7.452860
_cell_angle_alpha 90.000000
_cell_angle_beta 90.000000
_cell_angle_gamma 90.000000
_cell_volume 4319.738957
_symmetry_space_group_name_H-M "P 42/M N M"
_symmetry_group_IT_number 136
_symmetry_cell_setting 'tetragonal'
loop_
_space_group_symop_operation_xyz
x,y,z
1/2-y,1/2+x,1/2+z
-x,-y,z
1/2+y,1/2-x,1/2+z
1/2+x,1/2-y,1/2-z
1/2-x,1/2+y,1/2-z
y,x,-z
-y,-x,-z
-x,-y,-z
1/2+y,1/2-x,1/2-z
x,y,-z
1/2-y,1/2+x,1/2-z
1/2-x,1/2+y,1/2+z
1/2+x,1/2-y,1/2+z
-y,-x,z
y,x,z
loop_
_atom_site_type_symbol
_atom_site_label
_atom_site_fract_x
_atom_site_fract_y
_atom_site_fract_z
Si Si1 0.607118 0.303476 0.784574
Si Si2 0.454811 0.454811 0.280283
Si Si3 0.980279 0.169883 0.785918
Si Si4 0.223198 0.868563 0.780585
Si Si5 0.689498 0.215000 0.791895
O O1 0.643605 0.356396 0.720313
O O2 0.542508 0.310094 0.747407
O O3 0.636318 0.247069 0.714603
O O4 0.613410 0.302204 0.000000
O O5 0.500000 0.500000 0.223106
O O6 0.454847 0.454847 0.500000
O O7 0.392998 0.470956 0.219908
O O8 0.930667 0.209485 0.719956
O O9 0.973205 0.167116 0.000000
O O10 0.171446 0.828554 0.732268
O O11 0.279739 0.839062 0.715436
O O12 0.225604 0.867760 0.000000
O O13 0.737620 0.262381 0.790475
O O14 0.676747 0.202210 0.000000
#
# Coordination Sequence:
#
# PCOD9569101 Si02
#       5
#    16   8  16  16  16
#     4   9  17  28  39  53  75 104 132 155 184 224
#     4   9  16  24  33  49  75 105 131 153 179 210
#     4  10  17  25  39  58  77  98 127 162 193 220
#     4   8  12  21  38  58  74  90 122 164 196 220
#     4   7  11  21  38  55  70  91 122 159 192 222
#
# _framework density 16.667674000000002
#
# number of rings (size 3 to 8) (size 9 to 14) (size 15 to 20)
#    0.000    3.444    1.111    3.333    0.000    1.333 
#    0.000    0.556    0.000    3.333    0.000    3.111 
#    0.000    0.889    0.000   11.111    0.000    0.000 
#
# Total GULP energy -400870.581236 kJ/mol
# GULP energy per Si atom -5567.646962 kJ/mol
# Density = 1.662974 g / cm^3
# Si number density = 16.667674 Si / 1000 Ang^3
#
#
#
# Elastic Constant Matrix: (Units=GPa)
#
#
# Indices 1 2 3 4 5 6 
#
# 1 123.3796 110.4985 3.8361 0.0000 0.0000 0.0000
# 2 110.4985 123.3796 3.8361 0.0000 0.0000 0.0000
# 3 3.8361 3.8361 47.6689 0.0000 0.0000 0.0000
# 4 0.0000 0.0000 0.0000 9.2795 0.0000 0.0000
# 5 0.0000 0.0000 0.0000 0.0000 9.2795 0.0000
# 6 0.0000 0.0000 0.0000 0.0000 0.0000 29.3569
#
#
#
# Elastic Compliance Matrix: (Units=1/GPa)
#
#
# Indices 1 2 3 4 5 6 
#
# 1 0.040960 -0.036673 -0.000345 0.000000 0.000000 0.000000
# 2 -0.036673 0.040960 -0.000345 0.000000 0.000000 0.000000
# 3 -0.000345 -0.000345 0.021034 0.000000 0.000000 0.000000
# 4 0.000000 0.000000 0.000000 0.107765 0.000000 0.000000
# 5 0.000000 0.000000 0.000000 0.000000 0.107765 0.000000
# 6 0.000000 0.000000 0.000000 0.000000 0.000000 0.034064
#
#
# Mechanical properties :
#
#
# Convention : Reuss Voigt Hill
#
# Bulk Modulus (GPa) = 35.42626 58.97442 47.20034
# Shear Modulus (GPa) = 11.44998 21.33367 16.39183
#
# Velocity S-wave (km/s) = 2.62383 3.58151 3.13940
# Velocity P-wave (km/s) = 5.52086 7.24998 6.44369
#
# Compressibility (1/GPa) = 0.02822765
#
# Stress axis : x y z
#
# Youngs Moduli (GPa) = 24.41398 24.41398 47.54310
#
# Poissons Ratio (x) = 0.89534 0.01640
# Poissons Ratio (y) = 0.89534 0.01640
# Poissons Ratio (z) = 0.00842 0.00842
#
# Static dielectric constant tensor:
#      x y z
#    x 1.574120 0.000000 0.000000 
#    y 0.000000 1.574120 0.000000 
#    z 0.000000 0.000000 1.659380 
# 
# From -- ./inp_files/1716.got.cif
#   From: 2010.05.17/outbox.cif.g08.bks.cpg/sg136_1_cif.got.tgz:1716.got - 2010.05.20 12:54:53.
