data_PCOD9569728
_publ_section_title
;
Structure prediction by ZEFSAII (Michael W. Deem and Ramdas Pophale) SiO2 
 PCOD9569728
Probable space group: P 42/M N M
;
_chemical_formula_sum "Si O2"
_cell_formula_units_Z 72
_cell_length_a 20.392170
_cell_length_b 20.392170
_cell_length_c 8.093133
_cell_angle_alpha 90.000000
_cell_angle_beta 90.000000
_cell_angle_gamma 90.000000
_cell_volume 3365.453261
_symmetry_space_group_name_H-M "P 42/M N M"
_symmetry_group_IT_number 136
_symmetry_cell_setting 'tetragonal'
loop_
_space_group_symop_operation_xyz
x,y,z
1/2-y,1/2+x,1/2+z
-x,-y,z
1/2+y,1/2-x,1/2+z
1/2+x,1/2-y,1/2-z
1/2-x,1/2+y,1/2-z
y,x,-z
-y,-x,-z
-x,-y,-z
1/2+y,1/2-x,1/2-z
x,y,-z
1/2-y,1/2+x,1/2-z
1/2-x,1/2+y,1/2+z
1/2+x,1/2-y,1/2+z
-y,-x,z
y,x,z
loop_
_atom_site_type_symbol
_atom_site_label
_atom_site_fract_x
_atom_site_fract_y
_atom_site_fract_z
Si Si1 0.905613 0.711459 0.199900
Si Si2 0.070437 0.568841 0.815053
Si Si3 0.231914 0.231914 0.199430
Si Si4 0.554006 0.445995 0.198250
Si Si5 0.839334 0.160667 0.800190
Si Si6 0.688794 0.512951 0.698301
O O1 0.899215 0.637886 0.263454
O O2 0.840944 0.749814 0.255066
O O3 0.971458 0.748487 0.258150
O O4 0.907226 0.710163 0.000000
O O5 0.082097 0.490696 0.802824
O O6 0.051049 0.588048 0.000000
O O7 0.285460 0.285460 0.253210
O O8 0.231588 0.231588 0.000000
O O9 0.500000 0.500000 0.250260
O O10 0.529499 0.375889 0.262188
O O11 0.555895 0.444106 0.000000
O O12 0.912572 0.179831 0.739354
O O13 0.842273 0.157728 0.000000
O O14 0.694381 0.517313 0.500000
#
# Coordination Sequence:
#
# PCOD9569728 Si02
#       6
#    16  16   8   8   8  16
#     4  10  22  41  64  92 124 163 206 251 308 369
#     4  11  23  41  65  93 123 158 203 257 310 367
#     4  10  23  41  60  85 127 168 200 250 312 375
#     4  11  22  35  55  86 123 156 197 252 303 354
#     4  10  22  38  60  92 121 157 209 258 303 363
#     4  10  21  39  63  88 118 158 206 252 300 365
#
# _framework density 21.39385
#
# number of rings (size 3 to 8) (size 9 to 14) (size 15 to 20)
#    0.000    1.667    1.111    3.667    3.111    4.889 
#    0.000    1.111    0.000    0.000    0.000    0.000 
#    0.000    0.000    0.000    0.000    0.000    0.000 
#
# Total GULP energy -402446.059379 kJ/mol
# GULP energy per Si atom -5589.528602 kJ/mol
# Density = 2.134516 g / cm^3
# Si number density = 21.393850 Si / 1000 Ang^3
#
#
#
# Elastic Constant Matrix: (Units=GPa)
#
#
# Indices 1 2 3 4 5 6 
#
# 1 67.6135 15.9027 3.3284 0.0000 0.0000 0.0000
# 2 15.9027 67.6135 3.3271 0.0000 0.0000 0.0000
# 3 3.3284 3.3271 17.4711 0.0000 0.0000 0.0000
# 4 0.0000 0.0000 0.0000 20.1920 0.0000 0.0000
# 5 0.0000 0.0000 0.0000 0.0000 20.1922 0.0000
# 6 0.0000 0.0000 0.0000 0.0000 0.0000 38.9484
#
#
#
# Elastic Compliance Matrix: (Units=1/GPa)
#
#
# Indices 1 2 3 4 5 6 
#
# 1 0.015748 -0.003590 -0.002317 0.000000 0.000000 0.000000
# 2 -0.003590 0.015748 -0.002315 0.000000 0.000000 0.000000
# 3 -0.002317 -0.002315 0.058119 0.000000 0.000000 0.000000
# 4 0.000000 0.000000 0.000000 0.049525 0.000000 0.000000
# 5 0.000000 0.000000 0.000000 0.000000 0.049524 0.000000
# 6 0.000000 0.000000 0.000000 0.000000 0.000000 0.025675
#
#
# Mechanical properties :
#
#
# Convention : Reuss Voigt Hill
#
# Bulk Modulus (GPa) = 13.66629 21.97940 17.82285
# Shear Modulus (GPa) = 19.59448 24.54253 22.06851
#
# Velocity S-wave (km/s) = 3.02966 3.39067 3.21524
# Velocity P-wave (km/s) = 4.31743 5.06210 4.70453
#
# Compressibility (1/GPa) = 0.07317276
#
# Stress axis : x y z
#
# Youngs Moduli (GPa) = 63.49865 63.49911 17.20593
#
# Poissons Ratio (x) = 0.22796 0.03986
# Poissons Ratio (y) = 0.22796 0.03983
# Poissons Ratio (z) = 0.14710 0.14701
#
# Static dielectric constant tensor:
#      x y z
#    x 1.760820 0.000000 0.000000 
#    y 0.000000 1.760820 0.000000 
#    z 0.000000 0.000000 1.757230 
# 
# From -- ./inp_files/1624.got.cif
#   From: 2010.05.17/outbox.cif.g08.bks.cpg/sg136_1_cif.got.tgz:1624.got - 2010.05.20 12:54:53.
