data_PCOD9569882
_publ_section_title
;
Structure prediction by ZEFSAII (Michael W. Deem and Ramdas Pophale) SiO2 
 PCOD9569882
Probable space group: P 42/M N M
;
_chemical_formula_sum "Si O2"
_cell_formula_units_Z 72
_cell_length_a 9.929892
_cell_length_b 9.929892
_cell_length_c 31.189891
_cell_angle_alpha 90.000000
_cell_angle_beta 90.000000
_cell_angle_gamma 90.000000
_cell_volume 3075.409185
_symmetry_space_group_name_H-M "P 42/M N M"
_symmetry_group_IT_number 136
_symmetry_cell_setting 'tetragonal'
loop_
_space_group_symop_operation_xyz
x,y,z
1/2-y,1/2+x,1/2+z
-x,-y,z
1/2+y,1/2-x,1/2+z
1/2+x,1/2-y,1/2-z
1/2-x,1/2+y,1/2-z
y,x,-z
-y,-x,-z
-x,-y,-z
1/2+y,1/2-x,1/2-z
x,y,-z
1/2-y,1/2+x,1/2-z
1/2-x,1/2+y,1/2+z
1/2+x,1/2-y,1/2+z
-y,-x,z
y,x,z
loop_
_atom_site_type_symbol
_atom_site_label
_atom_site_fract_x
_atom_site_fract_y
_atom_site_fract_z
Si Si1 0.826012 0.596733 0.865844
Si Si2 0.506661 0.273973 0.780468
Si Si3 0.222404 0.990813 0.813457
Si Si4 0.905286 0.671848 0.048996
Si Si5 0.106905 0.893096 0.948225
O O1 0.695742 0.695742 0.866519
O O2 0.801528 0.499100 0.825698
O O3 0.952773 0.682807 0.849664
O O4 0.857861 0.565645 0.915174
O O5 0.644614 0.355387 0.779441
O O6 0.385053 0.385053 0.781035
O O7 0.487660 0.208986 0.733521
O O8 0.103973 0.103973 0.809553
O O9 0.147372 0.852629 0.823116
O O10 0.793408 0.793408 0.049926
O O11 0.045887 0.746523 0.060664
O O12 0.908774 0.623283 0.000000
O O13 0.097600 0.902401 0.000000
O O14 0.000000 0.000000 0.928595
#
# Coordination Sequence:
#
# PCOD9569882 Si02
#       5
#    16  16  16  16   8
#     4   9  15  21  35  54  70 103 146 176 218 272
#     4   8  14  25  37  50  73 104 138 176 219 270
#     4   8  14  23  35  53  76 100 133 180 223 263
#     4   8  13  19  27  44  72 103 138 179 219 267
#     4   7  10  16  24  36  62 100 130 164 220 266
#
# _framework density 23.411518999999998
#
# number of rings (size 3 to 8) (size 9 to 14) (size 15 to 20)
#    0.000    3.889    0.000    2.667    1.556    0.000 
#    0.000    0.000    0.000    1.333    0.000    4.667 
#    0.000    0.000    0.000    4.000    0.000   36.000 
#
# Total GULP energy -401451.811639 kJ/mol
# GULP energy per Si atom -5575.719606 kJ/mol
# Density = 2.335823 g / cm^3
# Si number density = 23.411519 Si / 1000 Ang^3
#
#
#
# Elastic Constant Matrix: (Units=GPa)
#
#
# Indices 1 2 3 4 5 6 
#
# 1 15.9528 10.0348 10.1901 0.0000 0.0000 0.0000
# 2 10.0348 15.9527 10.1901 0.0000 0.0000 0.0000
# 3 10.1901 10.1901 167.9460 0.0000 0.0000 0.0000
# 4 0.0000 0.0000 0.0000 -6.0409 0.0000 0.0000
# 5 0.0000 0.0000 0.0000 0.0000 -6.0409 0.0000
# 6 0.0000 0.0000 0.0000 0.0000 0.0000 29.0889
#
#
#
# Elastic Compliance Matrix: (Units=1/GPa)
#
#
# Indices 1 2 3 4 5 6 
#
# 1 0.104691 -0.064289 -0.002451 0.000000 0.000000 0.000000
# 2 -0.064289 0.104691 -0.002451 0.000000 0.000000 0.000000
# 3 -0.002451 -0.002451 0.006252 0.000000 0.000000 0.000000
# 4 0.000000 0.000000 0.000000 -0.165538 0.000000 0.000000
# 5 0.000000 0.000000 0.000000 0.000000 -0.165537 0.000000
# 6 0.000000 0.000000 0.000000 0.000000 0.000000 0.034377
#
#
# Mechanical properties :
#
#
# Convention : Reuss Voigt Hill
#
# Bulk Modulus (GPa) = 12.94482 28.96462 20.95472
# Shear Modulus (GPa) = 60.19040 14.69716 37.44378
#
# Velocity S-wave (km/s) = 5.07598 2.50826 4.00356
# Velocity P-wave (km/s) = 6.31627 4.55931 5.50830
#
# Compressibility (1/GPa) = 0.07725096
#
# Stress axis : x y z
#
# Youngs Moduli (GPa) = 9.55194 9.55188 159.95461
#
# Poissons Ratio (x) = 0.61408 0.39211
# Poissons Ratio (y) = 0.61408 0.39212
# Poissons Ratio (z) = 0.02342 0.02342
#
# Static dielectric constant tensor:
#      x y z
#    x 1.925500 0.000000 0.000000 
#    y 0.000000 1.925500 0.000000 
#    z 0.000000 0.000000 1.894670 
# 
# From -- ./inp_files/9463.got.cif
#   From: 2010.05.17/outbox.cif.g08.bks.cpg/sg136_5_cif.got.tgz:9463.got - 2010.05.20 12:54:53.
