data_PCOD9569780
_publ_section_title
;
Structure prediction by ZEFSAII (Michael W. Deem and Ramdas Pophale) SiO2 
 PCOD9569780
Probable space group: P 42/M N M
;
_chemical_formula_sum "Si O2"
_cell_formula_units_Z 120
_cell_length_a 21.167877
_cell_length_b 21.167877
_cell_length_c 14.174019
_cell_angle_alpha 90.000000
_cell_angle_beta 90.000000
_cell_angle_gamma 90.000000
_cell_volume 6351.080496
_symmetry_space_group_name_H-M "P 42/M N M"
_symmetry_group_IT_number 136
_symmetry_cell_setting 'tetragonal'
loop_
_space_group_symop_operation_xyz
x,y,z
1/2-y,1/2+x,1/2+z
-x,-y,z
1/2+y,1/2-x,1/2+z
1/2+x,1/2-y,1/2-z
1/2-x,1/2+y,1/2-z
y,x,-z
-y,-x,-z
-x,-y,-z
1/2+y,1/2-x,1/2-z
x,y,-z
1/2-y,1/2+x,1/2-z
1/2-x,1/2+y,1/2+z
1/2+x,1/2-y,1/2+z
-y,-x,z
y,x,z
loop_
_atom_site_type_symbol
_atom_site_label
_atom_site_fract_x
_atom_site_fract_y
_atom_site_fract_z
Si Si1 0.660417 0.101979 0.391676
Si Si2 0.551825 0.448176 0.385296
Si Si3 0.844778 0.741821 0.193210
Si Si4 0.253855 0.843493 0.894838
Si Si5 0.573196 0.988717 0.890933
Si Si6 0.862744 0.761203 0.398389
Si Si7 0.541692 0.303251 0.390555
Si Si8 0.461508 0.196654 0.286122
O O1 0.682178 0.102687 0.500000
O O2 0.665709 0.171561 0.345069
O O3 0.585930 0.086051 0.390969
O O4 0.693101 0.049526 0.325688
O O5 0.500000 0.500000 0.354825
O O6 0.552166 0.447834 0.500000
O O7 0.535746 0.375892 0.357256
O O8 0.779295 0.779295 0.209251
O O9 0.884474 0.745713 0.292217
O O10 0.886063 0.780990 0.118997
O O11 0.189540 0.810461 0.861003
O O12 0.305692 0.788899 0.904633
O O13 0.284065 0.894299 0.828568
O O14 0.242156 0.869376 0.000000
O O15 0.500000 0.000000 0.863824
O O16 0.627458 0.019196 0.825839
O O17 0.580835 0.011789 0.000000
O O18 0.897828 0.755572 0.500000
O O19 0.830463 0.830463 0.395529
O O20 0.522124 0.299716 0.500000
O O21 0.504907 0.251163 0.329830
#
# Coordination Sequence:
#
# PCOD9569780 Si02
#       8
#    16   8  16  16  16  16  16  16
#     4  11  25  41  56  82 121 160 208 263 309 369
#     4   9  20  40  64  96 135 167 197 249 326 399
#     4  11  20  36  62  89 119 156 199 251 315 371
#     4   9  17  31  51  79 114 146 183 236 298 364
#     4  10  23  41  60  81 110 154 208 262 310 363
#     4   8  15  29  49  77 113 146 182 232 288 350
#     4  11  22  37  61  93 123 159 206 256 310 380
#     4  12  23  36  61  85 119 162 210 253 310 375
#
# _framework density 18.894423
#
# number of rings (size 3 to 8) (size 9 to 14) (size 15 to 20)
#    0.000    1.800    3.333    2.400    1.867    1.333 
#    0.000    2.000    0.000    0.000    0.000    0.000 
#    0.000    3.733    0.000    0.000    0.000    0.000 
#
# Total GULP energy -668387.451619 kJ/mol
# GULP energy per Si atom -5569.895430 kJ/mol
# Density = 1.885142 g / cm^3
# Si number density = 18.894423 Si / 1000 Ang^3
#
#
#
# Elastic Constant Matrix: (Units=GPa)
#
#
# Indices 1 2 3 4 5 6 
#
# 1 84.4656 41.7245 42.1975 0.0000 0.0000 0.0000
# 2 41.7245 84.4657 42.1977 0.0000 0.0000 0.0000
# 3 42.1975 42.1977 118.4742 0.0000 0.0000 0.0000
# 4 0.0000 0.0000 0.0000 13.2006 0.0000 0.0000
# 5 0.0000 0.0000 0.0000 0.0000 13.2005 0.0000
# 6 0.0000 0.0000 0.0000 0.0000 0.0000 32.5822
#
#
#
# Elastic Compliance Matrix: (Units=1/GPa)
#
#
# Indices 1 2 3 4 5 6 
#
# 1 0.016900 -0.006497 -0.003705 0.000000 0.000000 0.000000
# 2 -0.006497 0.016900 -0.003705 0.000000 0.000000 0.000000
# 3 -0.003705 -0.003705 0.011080 0.000000 0.000000 0.000000
# 4 0.000000 0.000000 0.000000 0.075754 0.000000 0.000000
# 5 0.000000 0.000000 0.000000 0.000000 0.075755 0.000000
# 6 0.000000 0.000000 0.000000 0.000000 0.000000 0.030692
#
#
# Mechanical properties :
#
#
# Convention : Reuss Voigt Hill
#
# Bulk Modulus (GPa) = 58.60103 59.96054 59.28079
# Shear Modulus (GPa) = 19.18778 22.54904 20.86841
#
# Velocity S-wave (km/s) = 3.19019 3.45834 3.32697
# Velocity P-wave (km/s) = 6.68222 6.91016 6.79714
#
# Compressibility (1/GPa) = 0.01706455
#
# Stress axis : x y z
#
# Youngs Moduli (GPa) = 59.17307 59.17297 90.25263
#
# Poissons Ratio (x) = 0.38445 0.33439
# Poissons Ratio (y) = 0.38445 0.33440
# Poissons Ratio (z) = 0.21924 0.21924
#
# Static dielectric constant tensor:
#      x y z
#    x 1.641780 0.000000 0.000000 
#    y 0.000000 1.641780 0.000000 
#    z 0.000000 0.000000 1.761050 
# 
# From -- ./inp_files/5340.got.cif
#   From: 2010.05.17/outbox.cif.g08.bks.cpg/sg136_3_cif.got.tgz:5340.got - 2010.05.20 12:54:53.
