data_PCOD9569047
_publ_section_title
;
Structure prediction by ZEFSAII (Michael W. Deem and Ramdas Pophale) SiO2 
 PCOD9569047
Probable space group: P 42/M B C
;
_chemical_formula_sum "Si O2"
_cell_formula_units_Z 96
_cell_length_a 15.086104
_cell_length_b 15.086104
_cell_length_c 20.550680
_cell_angle_alpha 90.000000
_cell_angle_beta 90.000000
_cell_angle_gamma 90.000000
_cell_volume 4677.140233
_symmetry_space_group_name_H-M "P 42/M B C"
_symmetry_group_IT_number 135
_symmetry_cell_setting 'tetragonal'
loop_
_space_group_symop_operation_xyz
x,y,z
-y,x,1/2+z
-x,-y,z
y,-x,1/2+z
1/2+x,1/2-y,-z
1/2-x,1/2+y,-z
1/2+y,1/2+x,1/2-z
1/2-y,1/2-x,1/2-z
-x,-y,-z
y,-x,1/2-z
x,y,-z
-y,x,1/2-z
1/2-x,1/2+y,z
1/2+x,1/2-y,z
1/2-y,1/2-x,1/2+z
1/2+y,1/2+x,1/2+z
loop_
_atom_site_type_symbol
_atom_site_label
_atom_site_fract_x
_atom_site_fract_y
_atom_site_fract_z
Si Si1 0.937983 0.347582 0.924818
Si Si2 0.202500 0.813354 0.926135
Si Si3 0.029292 0.624594 0.308168
Si Si4 0.576340 0.568488 0.852732
Si Si5 0.881993 0.676128 0.151629
Si Si6 0.704882 0.508543 0.260107
O O1 0.866800 0.267746 0.922354
O O2 0.902130 0.419931 0.873678
O O3 0.035621 0.319733 0.899241
O O4 0.943321 0.377812 0.000000
O O5 0.146666 0.900526 0.906167
O O6 0.287259 0.802805 0.879789
O O7 0.234486 0.820600 0.000000
O O8 0.062829 0.562829 0.250000
O O9 0.925313 0.619738 0.323948
O O10 0.047986 0.721861 0.278429
O O11 0.500000 0.500000 0.873591
O O12 0.535010 0.656963 0.821392
O O13 0.630254 0.528296 0.792443
O O14 0.907644 0.742585 0.210045
#
# Coordination Sequence:
#
# PCOD9569047 Si02
#       6
#    16  16  16  16  16  16
#     4  11  26  45  67  96 139 182 228 284 346 424
#     4  11  26  48  69 101 137 184 238 284 355 434
#     4  12  25  42  66 102 135 176 226 277 344 417
#     4  12  24  45  71  99 138 180 230 298 355 417
#     4  12  25  42  72  98 141 178 227 293 354 411
#     4  12  24  41  68 103 137 174 228 292 358 415
#
# _framework density 20.525362999999999
#
# number of rings (size 3 to 8) (size 9 to 14) (size 15 to 20)
#    0.000    0.333    6.667    1.500    4.667    2.333 
#    0.000    0.000    0.000    0.000    0.000    0.000 
#    0.000    0.000    0.000    0.000    0.000    0.000 
#
# Total GULP energy -536472.113465 kJ/mol
# GULP energy per Si atom -5588.251182 kJ/mol
# Density = 2.047865 g / cm^3
# Si number density = 20.525363 Si / 1000 Ang^3
#
#
#
# Elastic Constant Matrix: (Units=GPa)
#
#
# Indices 1 2 3 4 5 6 
#
# 1 76.8892 17.0128 17.2645 0.0000 0.0000 0.0000
# 2 17.0128 76.8892 17.2645 0.0000 0.0000 0.0000
# 3 17.2645 17.2645 83.7052 0.0000 0.0000 0.0000
# 4 0.0000 0.0000 0.0000 21.8236 0.0000 0.0000
# 5 0.0000 0.0000 0.0000 0.0000 21.8236 0.0000
# 6 0.0000 0.0000 0.0000 0.0000 0.0000 22.2232
#
#
#
# Elastic Compliance Matrix: (Units=1/GPa)
#
#
# Indices 1 2 3 4 5 6 
#
# 1 0.014112 -0.002589 -0.002377 0.000000 0.000000 0.000000
# 2 -0.002589 0.014112 -0.002377 0.000000 0.000000 0.000000
# 3 -0.002377 -0.002377 0.012927 0.000000 0.000000 0.000000
# 4 0.000000 0.000000 0.000000 0.045822 0.000000 0.000000
# 5 0.000000 0.000000 0.000000 0.000000 0.045822 0.000000
# 6 0.000000 0.000000 0.000000 0.000000 0.000000 0.044998
#
#
# Mechanical properties :
#
#
# Convention : Reuss Voigt Hill
#
# Bulk Modulus (GPa) = 37.78308 37.84082 37.81195
# Shear Modulus (GPa) = 24.83850 25.57020 25.20435
#
# Velocity S-wave (km/s) = 3.48248 3.53340 3.50803
# Velocity P-wave (km/s) = 5.88372 5.92644 5.90512
#
# Compressibility (1/GPa) = 0.02646687
#
# Stress axis : x y z
#
# Youngs Moduli (GPa) = 70.86059 70.86059 77.35680
#
# Poissons Ratio (x) = 0.18345 0.18386
# Poissons Ratio (y) = 0.18345 0.18386
# Poissons Ratio (z) = 0.16842 0.16842
#
# Static dielectric constant tensor:
#      x y z
#    x 1.771780 0.000000 0.000000 
#    y 0.000000 1.771780 0.000000 
#    z 0.000000 0.000000 1.735680 
# 
# From -- ./inp_files/5454.got.cif
#   From: 2010.05.17/outbox.cif.g08.bks.cpg/sg135_3_cif.got.tgz:5454.got - 2010.05.20 12:50:20.
