data_PCOD9569300
_publ_section_title
;
Structure prediction by ZEFSAII (Michael W. Deem and Ramdas Pophale) SiO2 
 PCOD9569300
Probable space group: P 42/M N M
;
_chemical_formula_sum "Si O2"
_cell_formula_units_Z 96
_cell_length_a 25.266909
_cell_length_b 25.266909
_cell_length_c 8.872359
_cell_angle_alpha 90.000000
_cell_angle_beta 90.000000
_cell_angle_gamma 90.000000
_cell_volume 5664.262069
_symmetry_space_group_name_H-M "P 42/M N M"
_symmetry_group_IT_number 136
_symmetry_cell_setting 'tetragonal'
loop_
_space_group_symop_operation_xyz
x,y,z
1/2-y,1/2+x,1/2+z
-x,-y,z
1/2+y,1/2-x,1/2+z
1/2+x,1/2-y,1/2-z
1/2-x,1/2+y,1/2-z
y,x,-z
-y,-x,-z
-x,-y,-z
1/2+y,1/2-x,1/2-z
x,y,-z
1/2-y,1/2+x,1/2-z
1/2-x,1/2+y,1/2+z
1/2+x,1/2-y,1/2+z
-y,-x,z
y,x,z
loop_
_atom_site_type_symbol
_atom_site_label
_atom_site_fract_x
_atom_site_fract_y
_atom_site_fract_z
Si Si1 0.100086 0.253439 0.678098
Si Si2 0.124666 0.582475 0.822151
Si Si3 0.581628 0.418373 0.818893
Si Si4 0.234105 0.985283 0.820068
Si Si5 0.664442 0.335559 0.320765
Si Si6 0.377045 0.464175 0.818638
Si Si7 0.536548 0.845001 0.179801
O O1 0.096827 0.241777 0.500000
O O2 0.105466 0.316271 0.696995
O O3 0.146124 0.220191 0.754056
O O4 0.044911 0.236219 0.754033
O O5 0.130218 0.520727 0.778641
O O6 0.082303 0.615252 0.728997
O O7 0.111191 0.585011 0.000000
O O8 0.621493 0.378508 0.737155
O O9 0.596827 0.478776 0.781277
O O10 0.587897 0.412104 0.000000
O O11 0.179941 0.960083 0.759249
O O12 0.287940 0.958592 0.759228
O O13 0.234376 0.986619 0.000000
O O14 0.665168 0.334833 0.500000
O O15 0.417447 0.417447 0.777254
O O16 0.369987 0.463211 0.000000
O O17 0.535796 0.836691 0.000000
#
# Coordination Sequence:
#
# PCOD9569300 Si02
#       7
#    16  16   8  16   8  16  16
#     4  10  20  36  56  78 108 145 182 223 275 329
#     4   9  20  37  57  84 113 144 182 221 268 325
#     4  10  19  32  52  76 109 147 180 226 280 330
#     4  11  21  34  54  79 108 142 182 227 270 320
#     4  12  22  31  51  83 111 141 184 234 282 326
#     4  10  20  34  53  77 107 146 189 228 274 332
#     4  10  21  37  59  84 113 147 180 219 271 328
#
# _framework density 16.948367999999999
#
# number of rings (size 3 to 8) (size 9 to 14) (size 15 to 20)
#    0.000    1.833    1.667    4.500    0.000    5.667 
#    0.000    1.667    1.833    1.500    0.000    0.000 
#    0.000    0.000    0.000    0.000    0.000    0.000 
#
# Total GULP energy -536050.298060 kJ/mol
# GULP energy per Si atom -5583.857271 kJ/mol
# Density = 1.690979 g / cm^3
# Si number density = 16.948368 Si / 1000 Ang^3
#
#
#
# Elastic Constant Matrix: (Units=GPa)
#
#
# Indices 1 2 3 4 5 6 
#
# 1 88.2910 66.4968 57.1761 0.0000 0.0000 0.0000
# 2 66.4968 88.2904 57.1758 0.0000 0.0000 0.0000
# 3 57.1761 57.1758 88.3191 0.0000 0.0000 0.0000
# 4 0.0000 0.0000 0.0000 23.8054 0.0000 0.0000
# 5 0.0000 0.0000 0.0000 0.0000 23.8055 0.0000
# 6 0.0000 0.0000 0.0000 0.0000 0.0000 27.3293
#
#
#
# Elastic Compliance Matrix: (Units=1/GPa)
#
#
# Indices 1 2 3 4 5 6 
#
# 1 0.029133 -0.016751 -0.008016 0.000000 0.000000 0.000000
# 2 -0.016751 0.029134 -0.008016 0.000000 0.000000 0.000000
# 3 -0.008016 -0.008016 0.021702 0.000000 0.000000 0.000000
# 4 0.000000 0.000000 0.000000 0.042007 0.000000 0.000000
# 5 0.000000 0.000000 0.000000 0.000000 0.042007 0.000000
# 6 0.000000 0.000000 0.000000 0.000000 0.000000 0.036591
#
#
# Mechanical properties :
#
#
# Convention : Reuss Voigt Hill
#
# Bulk Modulus (GPa) = 69.43520 69.62200 69.52860
# Shear Modulus (GPa) = 18.45418 20.59148 19.52283
#
# Velocity S-wave (km/s) = 3.30335 3.48940 3.39765
# Velocity P-wave (km/s) = 7.45702 7.57645 7.51697
#
# Compressibility (1/GPa) = 0.01440192
#
# Stress axis : x y z
#
# Youngs Moduli (GPa) = 34.32475 34.32466 46.07944
#
# Poissons Ratio (x) = 0.57497 0.36939
# Poissons Ratio (y) = 0.57497 0.36938
# Poissons Ratio (z) = 0.27516 0.27515
#
# Static dielectric constant tensor:
#      x y z
#    x 1.563440 0.000000 0.000000 
#    y 0.000000 1.563440 0.000000 
#    z 0.000000 0.000000 1.564800 
# 
# From -- ./inp_files/2040.got.cif
#   From: 2010.05.17/outbox.cif.g08.bks.cpg/sg136_2_cif.got.tgz:2040.got - 2010.05.20 12:54:53.
