data_PCOD9569770
_publ_section_title
;
Structure prediction by ZEFSAII (Michael W. Deem and Ramdas Pophale) SiO2 
 PCOD9569770
Probable space group: P 42/M N M
;
_chemical_formula_sum "Si O2"
_cell_formula_units_Z 96
_cell_length_a 23.481682
_cell_length_b 23.481682
_cell_length_c 8.422213
_cell_angle_alpha 90.000000
_cell_angle_beta 90.000000
_cell_angle_gamma 90.000000
_cell_volume 4643.918885
_symmetry_space_group_name_H-M "P 42/M N M"
_symmetry_group_IT_number 136
_symmetry_cell_setting 'tetragonal'
loop_
_space_group_symop_operation_xyz
x,y,z
1/2-y,1/2+x,1/2+z
-x,-y,z
1/2+y,1/2-x,1/2+z
1/2+x,1/2-y,1/2-z
1/2-x,1/2+y,1/2-z
y,x,-z
-y,-x,-z
-x,-y,-z
1/2+y,1/2-x,1/2-z
x,y,-z
1/2-y,1/2+x,1/2-z
1/2-x,1/2+y,1/2+z
1/2+x,1/2-y,1/2+z
-y,-x,z
y,x,z
loop_
_atom_site_type_symbol
_atom_site_label
_atom_site_fract_x
_atom_site_fract_y
_atom_site_fract_z
Si Si1 0.040271 0.871529 0.190811
Si Si2 0.340637 0.882675 0.687791
Si Si3 0.844246 0.844246 0.185429
Si Si4 0.016051 0.740380 0.808917
Si Si5 0.431395 0.568606 0.814894
Si Si6 0.612394 0.224729 0.188056
Si Si7 0.951736 0.566234 0.677033
O O1 0.103114 0.896887 0.224961
O O2 0.027355 0.806384 0.237509
O O3 0.995108 0.912904 0.273658
O O4 0.032227 0.874567 0.000000
O O5 0.346520 0.889475 0.500000
O O6 0.295704 0.929703 0.747149
O O7 0.339712 0.816004 0.730828
O O8 0.399076 0.896364 0.778573
O O9 0.892096 0.892096 0.205260
O O10 0.868567 0.788319 0.268614
O O11 0.833437 0.833437 0.000000
O O12 0.953942 0.719863 0.746835
O O13 0.014702 0.736484 0.000000
O O14 0.420051 0.579950 0.000000
O O15 0.612951 0.215389 0.000000
O O16 0.973197 0.577188 0.500000
O O17 0.929613 0.501743 0.695906
#
# Coordination Sequence:
#
# PCOD9569770 Si02
#       7
#    16  16   8  16   8  16  16
#     4  10  22  41  66  95 131 174 215 261 324 392
#     4  12  25  42  62  89 125 168 215 264 319 382
#     4  12  24  43  69  98 130 171 218 269 325 386
#     4  11  23  42  67  95 131 174 219 270 329 390
#     4  12  23  37  64 101 136 170 212 266 321 381
#     4  12  25  44  69  98 130 169 218 273 328 389
#     4  11  21  36  57  85 119 156 202 257 318 380
#
# _framework density 20.672194000000001
#
# number of rings (size 3 to 8) (size 9 to 14) (size 15 to 20)
#    0.000    0.667    1.667    8.250    0.000    2.000 
#    1.500    0.000    0.000    0.000    0.000    0.000 
#    0.000    0.000    0.000    0.000    0.000    0.000 
#
# Total GULP energy -536316.966976 kJ/mol
# GULP energy per Si atom -5586.635073 kJ/mol
# Density = 2.062514 g / cm^3
# Si number density = 20.672194 Si / 1000 Ang^3
#
#
#
# Elastic Constant Matrix: (Units=GPa)
#
#
# Indices 1 2 3 4 5 6 
#
# 1 145.9481 -2.6652 24.1905 0.0000 0.0000 0.0000
# 2 -2.6652 145.9463 24.1903 0.0000 0.0000 0.0000
# 3 24.1905 24.1903 106.3229 0.0000 0.0000 0.0000
# 4 0.0000 0.0000 0.0000 26.6773 0.0000 0.0000
# 5 0.0000 0.0000 0.0000 0.0000 26.6776 0.0000
# 6 0.0000 0.0000 0.0000 0.0000 0.0000 39.3109
#
#
#
# Elastic Compliance Matrix: (Units=1/GPa)
#
#
# Indices 1 2 3 4 5 6 
#
# 1 0.007144 0.000416 -0.001720 0.000000 0.000000 0.000000
# 2 0.000416 0.007145 -0.001720 0.000000 0.000000 0.000000
# 3 -0.001720 -0.001720 0.010188 0.000000 0.000000 0.000000
# 4 0.000000 0.000000 0.000000 0.037485 0.000000 0.000000
# 5 0.000000 0.000000 0.000000 0.000000 0.037485 0.000000
# 6 0.000000 0.000000 0.000000 0.000000 0.000000 0.025438
#
#
# Mechanical properties :
#
#
# Convention : Reuss Voigt Hill
#
# Bulk Modulus (GPa) = 54.26557 54.40536 54.33547
# Shear Modulus (GPa) = 36.47594 42.03326 39.25460
#
# Velocity S-wave (km/s) = 4.20514 4.51413 4.36237
# Velocity P-wave (km/s) = 7.06294 7.31745 7.19132
#
# Compressibility (1/GPa) = 0.01842789
#
# Stress axis : x y z
#
# Youngs Moduli (GPa) = 139.96915 139.96745 98.15471
#
# Poissons Ratio (x) = -0.05817 0.16883
# Poissons Ratio (y) = -0.05817 0.16883
# Poissons Ratio (z) = 0.24075 0.24075
#
# Static dielectric constant tensor:
#      x y z
#    x 1.798270 0.000000 0.000000 
#    y 0.000000 1.798270 0.000000 
#    z 0.000000 0.000000 1.721940 
# 
# From -- ./inp_files/2022.got.cif
#   From: 2010.05.17/outbox.cif.g08.bks.cpg/sg136_2_cif.got.tgz:2022.got - 2010.05.20 12:54:53.
