data_PCOD9569440
_publ_section_title
;
Structure prediction by ZEFSAII (Michael W. Deem and Ramdas Pophale) SiO2 
 PCOD9569440
Probable space group: P 42/M N M
;
_chemical_formula_sum "Si O2"
_cell_formula_units_Z 112
_cell_length_a 17.572193
_cell_length_b 17.572193
_cell_length_c 21.912034
_cell_angle_alpha 90.000000
_cell_angle_beta 90.000000
_cell_angle_gamma 90.000000
_cell_volume 6766.040956
_symmetry_space_group_name_H-M "P 42/M N M"
_symmetry_group_IT_number 136
_symmetry_cell_setting 'tetragonal'
loop_
_space_group_symop_operation_xyz
x,y,z
1/2-y,1/2+x,1/2+z
-x,-y,z
1/2+y,1/2-x,1/2+z
1/2+x,1/2-y,1/2-z
1/2-x,1/2+y,1/2-z
y,x,-z
-y,-x,-z
-x,-y,-z
1/2+y,1/2-x,1/2-z
x,y,-z
1/2-y,1/2+x,1/2-z
1/2-x,1/2+y,1/2+z
1/2+x,1/2-y,1/2+z
-y,-x,z
y,x,z
loop_
_atom_site_type_symbol
_atom_site_label
_atom_site_fract_x
_atom_site_fract_y
_atom_site_fract_z
Si Si1 0.594729 0.082291 0.073083
Si Si2 0.277363 0.597927 0.253003
Si Si3 0.562087 0.684859 0.693704
Si Si4 0.816820 0.308479 0.158602
Si Si5 0.772817 0.347306 0.386242
Si Si6 0.657137 0.470500 0.569252
Si Si7 0.579422 0.909564 0.073351
O O1 0.653146 0.139313 0.103075
O O2 0.507943 0.101595 0.091140
O O3 0.606022 0.994431 0.092633
O O4 0.599802 0.084285 0.000000
O O5 0.355793 0.644208 0.243657
O O6 0.295280 0.509548 0.263686
O O7 0.219588 0.626088 0.201087
O O8 0.243180 0.628397 0.316864
O O9 0.610721 0.610721 0.711932
O O10 0.620505 0.755485 0.691801
O O11 0.528902 0.669027 0.624943
O O12 0.748676 0.251325 0.140911
O O13 0.732744 0.267257 0.397804
O O14 0.726633 0.410225 0.425608
O O15 0.860900 0.350589 0.400790
O O16 0.655149 0.501931 0.500000
O O17 0.580743 0.419258 0.578882
O O18 0.581583 0.908289 0.000000
#
# Coordination Sequence:
#
# PCOD9569440 Si02
#       7
#    16  16  16  16  16  16  16
#     4   9  18  32  49  68  92 124 157 192 236 280
#     4   9  19  34  48  66  96 128 156 194 239 277
#     4  10  20  33  51  73  95 125 164 200 236 283
#     4  10  21  35  50  70  95 122 157 200 241 285
#     4   9  16  27  45  67  94 129 160 187 229 279
#     4   9  17  28  44  71 107 141 167 192 228 278
#     4   9  17  29  46  70  98 124 155 194 230 273
#
# _framework density 16.553255
#
# number of rings (size 3 to 8) (size 9 to 14) (size 15 to 20)
#    0.000    2.714    0.000    4.286    0.000    5.429 
#    0.000    2.143    0.000    1.714    0.000    0.000 
#    0.000    0.000    0.000    6.286    0.000    0.143 
#
# Total GULP energy -624215.722158 kJ/mol
# GULP energy per Si atom -5573.354662 kJ/mol
# Density = 1.651558 g / cm^3
# Si number density = 16.553255 Si / 1000 Ang^3
#
#
#
# Elastic Constant Matrix: (Units=GPa)
#
#
# Indices 1 2 3 4 5 6 
#
# 1 79.8786 38.6290 17.6807 0.0000 0.0000 0.0000
# 2 38.6290 79.8786 17.6807 0.0000 0.0000 0.0000
# 3 17.6807 17.6807 22.6877 0.0000 0.0000 0.0000
# 4 0.0000 0.0000 0.0000 21.1156 0.0000 0.0000
# 5 0.0000 0.0000 0.0000 0.0000 21.1156 0.0000
# 6 0.0000 0.0000 0.0000 0.0000 0.0000 18.5758
#
#
#
# Elastic Compliance Matrix: (Units=1/GPa)
#
#
# Indices 1 2 3 4 5 6 
#
# 1 0.017619 -0.006624 -0.008569 0.000000 0.000000 0.000000
# 2 -0.006624 0.017619 -0.008569 0.000000 0.000000 0.000000
# 3 -0.008569 -0.008569 0.057432 0.000000 0.000000 0.000000
# 4 0.000000 0.000000 0.000000 0.047358 0.000000 0.000000
# 5 0.000000 0.000000 0.000000 0.000000 0.047358 0.000000
# 6 0.000000 0.000000 0.000000 0.000000 0.000000 0.053833
#
#
# Mechanical properties :
#
#
# Convention : Reuss Voigt Hill
#
# Bulk Modulus (GPa) = 22.14948 36.71399 29.43173
# Shear Modulus (GPa) = 16.45870 19.39171 17.92520
#
# Velocity S-wave (km/s) = 3.15665 3.42639 3.29429
# Velocity P-wave (km/s) = 5.16679 6.15476 5.68229
#
# Compressibility (1/GPa) = 0.04514779
#
# Stress axis : x y z
#
# Youngs Moduli (GPa) = 56.75742 56.75742 17.41193
#
# Poissons Ratio (x) = 0.37595 0.14919
# Poissons Ratio (y) = 0.37595 0.14919
# Poissons Ratio (z) = 0.48633 0.48633
#
# Static dielectric constant tensor:
#      x y z
#    x 1.565100 0.000000 0.000000 
#    y 0.000000 1.565100 0.000000 
#    z 0.000000 0.000000 1.552490 
# 
# From -- ./inp_files/7746.got.cif
#   From: 2010.05.17/outbox.cif.g08.bks.cpg/sg136_4_cif.got.tgz:7746.got - 2010.05.20 12:54:53.
