data_PCOD9569069
_publ_section_title
;
Structure prediction by ZEFSAII (Michael W. Deem and Ramdas Pophale) SiO2 
 PCOD9569069
Probable space group: P 42/M B C
;
_chemical_formula_sum "Si O2"
_cell_formula_units_Z 96
_cell_length_a 15.000000
_cell_length_b 15.000000
_cell_length_c 21.000000
_cell_angle_alpha 90.000000
_cell_angle_beta 90.000000
_cell_angle_gamma 90.000000
_cell_volume 4725.000000
_symmetry_space_group_name_H-M "P 42/M B C"
_symmetry_group_IT_number 135
_symmetry_cell_setting 'tetragonal'
loop_
_space_group_symop_operation_xyz
x,y,z
-y,x,1/2+z
-x,-y,z
y,-x,1/2+z
1/2+x,1/2-y,-z
1/2-x,1/2+y,-z
1/2+y,1/2+x,1/2-z
1/2-y,1/2-x,1/2-z
-x,-y,-z
y,-x,1/2-z
x,y,-z
-y,x,1/2-z
1/2-x,1/2+y,z
1/2+x,1/2-y,z
1/2-y,1/2-x,1/2+z
1/2+y,1/2+x,1/2+z
loop_
_atom_site_type_symbol
_atom_site_label
_atom_site_fract_x
_atom_site_fract_y
_atom_site_fract_z
Si Si1 0.736730 0.495142 0.622266
Si Si2 0.587021 0.060504 0.426158
Si Si3 0.186866 0.798684 0.928149
Si Si4 0.428194 0.377096 0.758888
Si Si5 0.755786 0.013080 0.925341
Si Si6 0.165871 0.817182 0.638364
O O1 0.838229 0.528553 0.622932
O O2 0.737709 0.412832 0.574215
O O3 0.690198 0.453308 0.684747
O O4 0.682545 0.585394 0.607439
O O5 0.620971 0.058944 0.500000
O O6 0.554613 0.159548 0.411642
O O7 0.500000 0.000000 0.423795
O O8 0.179974 0.903446 0.913245
O O9 0.251440 0.745818 0.880560
O O10 0.223899 0.789970 0.000000
O O11 0.395199 0.476827 0.776962
O O12 0.353820 0.336083 0.712439
O O13 0.774938 0.924428 0.887745
O O14 0.758938 0.990452 0.000000
#
# Coordination Sequence:
#
# PCOD9569069 Si02
#       6
#    16  16  16  16  16  16
#     4  11  22  39  64  90 120 168 217 257 315 382
#     4  10  20  37  60  88 126 166 206 256 318 380
#     4  11  23  37  58  92 124 158 211 261 313 387
#     4   9  20  39  63  93 125 164 217 266 312 374
#     4  10  21  36  56  88 124 156 201 258 314 376
#     4  11  22  40  63  87 126 169 205 264 323 370
#
# _framework density 20.317460000000001
#
# number of rings (size 3 to 8) (size 9 to 14) (size 15 to 20)
#    0.000    1.667    1.667    3.000    0.000    6.000 
#    0.000    2.500    0.000    1.000    0.000    0.000 
#    0.000    0.000    0.000    0.000    0.000    0.000 
#
# Total GULP energy -535461.515012 kJ/mol
# GULP energy per Si atom -5577.724115 kJ/mol
# Density = 2.027122 g / cm^3
# Si number density = 20.317460 Si / 1000 Ang^3
#
#
#
# Elastic Constant Matrix: (Units=GPa)
#
#
# Indices 1 2 3 4 5 6 
#
# 1 56.5431 -6.0855 16.5493 0.0000 0.0000 0.0000
# 2 -6.0855 56.5431 16.5493 0.0000 0.0000 0.0000
# 3 16.5493 16.5493 43.9950 0.0000 0.0000 0.0000
# 4 0.0000 0.0000 0.0000 21.4072 0.0000 0.0000
# 5 0.0000 0.0000 0.0000 0.0000 21.4072 0.0000
# 6 0.0000 0.0000 0.0000 0.0000 0.0000 32.8729
#
#
#
# Elastic Compliance Matrix: (Units=1/GPa)
#
#
# Indices 1 2 3 4 5 6 
#
# 1 0.021139 0.005172 -0.009897 0.000000 0.000000 0.000000
# 2 0.005172 0.021139 -0.009897 0.000000 0.000000 0.000000
# 3 -0.009897 -0.009897 0.030176 0.000000 0.000000 0.000000
# 4 0.000000 0.000000 0.000000 0.046713 0.000000 0.000000
# 5 0.000000 0.000000 0.000000 0.000000 0.046713 0.000000
# 6 0.000000 0.000000 0.000000 0.000000 0.000000 0.030420
#
#
# Mechanical properties :
#
#
# Convention : Reuss Voigt Hill
#
# Bulk Modulus (GPa) = 23.14345 23.45638 23.29992
# Shear Modulus (GPa) = 20.83783 23.80869 22.32326
#
# Velocity S-wave (km/s) = 3.20599 3.42692 3.31830
# Velocity P-wave (km/s) = 5.01200 5.21808 5.11608
#
# Compressibility (1/GPa) = 0.04320876
#
# Stress axis : x y z
#
# Youngs Moduli (GPa) = 47.30591 47.30591 33.13917
#
# Poissons Ratio (x) = -0.24466 0.32798
# Poissons Ratio (y) = -0.24466 0.32798
# Poissons Ratio (z) = 0.46820 0.46820
#
# Static dielectric constant tensor:
#      x y z
#    x 1.853330 0.000000 0.000000 
#    y 0.000000 1.853330 0.000000 
#    z 0.000000 0.000000 1.760220 
# 
# From -- ./inp_files/5458.got.cif
#   From: 2010.05.17/outbox.ucp.g08.bks.cvg/sg135_3_cif.got.tgz:5458.got - 2010.06.11 11:40:18.
