data_PCOD9569156
_publ_section_title
;
Structure prediction by ZEFSAII (Michael W. Deem and Ramdas Pophale) SiO2 
 PCOD9569156
Probable space group: P 42/M N M
;
_chemical_formula_sum "Si O2"
_cell_formula_units_Z 72
_cell_length_a 24.004971
_cell_length_b 24.004971
_cell_length_c 7.663027
_cell_angle_alpha 90.000000
_cell_angle_beta 90.000000
_cell_angle_gamma 90.000000
_cell_volume 4415.732201
_symmetry_space_group_name_H-M "P 42/M N M"
_symmetry_group_IT_number 136
_symmetry_cell_setting 'tetragonal'
loop_
_space_group_symop_operation_xyz
x,y,z
1/2-y,1/2+x,1/2+z
-x,-y,z
1/2+y,1/2-x,1/2+z
1/2+x,1/2-y,1/2-z
1/2-x,1/2+y,1/2-z
y,x,-z
-y,-x,-z
-x,-y,-z
1/2+y,1/2-x,1/2-z
x,y,-z
1/2-y,1/2+x,1/2-z
1/2-x,1/2+y,1/2+z
1/2+x,1/2-y,1/2+z
-y,-x,z
y,x,z
loop_
_atom_site_type_symbol
_atom_site_label
_atom_site_fract_x
_atom_site_fract_y
_atom_site_fract_z
Si Si1 0.545156 0.454845 0.790757
Si Si2 0.720784 0.369519 0.291577
Si Si3 0.827519 0.983574 0.207576
Si Si4 0.698512 0.606640 0.286493
Si Si5 0.215641 0.306593 0.709581
O O1 0.500000 0.500000 0.726927
O O2 0.529199 0.392779 0.732669
O O3 0.544470 0.455531 0.000000
O O4 0.713250 0.371481 0.500000
O O5 0.674506 0.325495 0.222170
O O6 0.707111 0.430827 0.222230
O O7 0.781845 0.343965 0.260093
O O8 0.811601 0.044298 0.278094
O O9 0.817314 0.986167 0.000000
O O10 0.697763 0.605889 0.500000
O O11 0.648194 0.648194 0.234986
O O12 0.756913 0.635358 0.232497
O O13 0.216990 0.306850 0.500000
O O14 0.259837 0.259837 0.771929
#
# Coordination Sequence:
#
# PCOD9569156 Si02
#       5
#     8  16  16  16  16
#     4  11  23  33  39  55  85 117 147 179 211 244
#     4   9  16  26  39  59  82 102 131 167 204 245
#     4  10  18  30  46  61  79 108 146 180 205 238
#     4   8  14  25  42  62  79 100 137 177 204 235
#     4   8  14  25  41  59  77 100 130 163 205 250
#
# _framework density 16.305334999999999
#
# number of rings (size 3 to 8) (size 9 to 14) (size 15 to 20)
#    0.000    3.000    1.111    2.333    0.000    2.667 
#    0.000    1.111    0.000    4.000    0.000    0.000 
#    0.000    0.889    0.000   11.111    0.000    0.000 
#
# Total GULP energy -400903.426443 kJ/mol
# GULP energy per Si atom -5568.103145 kJ/mol
# Density = 1.626822 g / cm^3
# Si number density = 16.305335 Si / 1000 Ang^3
#
#
#
# Elastic Constant Matrix: (Units=GPa)
#
#
# Indices 1 2 3 4 5 6 
#
# 1 125.7346 84.2813 1.1007 0.0000 0.0000 0.0000
# 2 84.2813 125.7335 1.1013 0.0000 0.0000 0.0000
# 3 1.1007 1.1013 26.0993 0.0000 0.0000 0.0000
# 4 0.0000 0.0000 0.0000 15.2035 0.0000 0.0000
# 5 0.0000 0.0000 0.0000 0.0000 15.2036 0.0000
# 6 0.0000 0.0000 0.0000 0.0000 0.0000 32.5687
#
#
#
# Elastic Compliance Matrix: (Units=1/GPa)
#
#
# Indices 1 2 3 4 5 6 
#
# 1 0.014444 -0.009680 -0.000201 0.000000 0.000000 0.000000
# 2 -0.009680 0.014444 -0.000201 0.000000 0.000000 0.000000
# 3 -0.000201 -0.000201 0.038332 0.000000 0.000000 0.000000
# 4 0.000000 0.000000 0.000000 0.065774 0.000000 0.000000
# 5 0.000000 0.000000 0.000000 0.000000 0.065774 0.000000
# 6 0.000000 0.000000 0.000000 0.000000 0.000000 0.030704
#
#
# Mechanical properties :
#
#
# Convention : Reuss Voigt Hill
#
# Bulk Modulus (GPa) = 21.25142 50.05933 35.65538
# Shear Modulus (GPa) = 18.84507 25.33410 22.08958
#
# Velocity S-wave (km/s) = 3.40334 3.94602 3.68468
# Velocity P-wave (km/s) = 5.33904 7.17839 6.32592
#
# Compressibility (1/GPa) = 0.04705567
#
# Stress axis : x y z
#
# Youngs Moduli (GPa) = 69.23442 69.23379 26.08775
#
# Poissons Ratio (x) = 0.67019 0.00524
# Poissons Ratio (y) = 0.67020 0.00525
# Poissons Ratio (z) = 0.01389 0.01393
#
# Static dielectric constant tensor:
#      x y z
#    x 1.566870 0.000000 0.000000 
#    y 0.000000 1.566870 0.000000 
#    z 0.000000 0.000000 1.607270 
# 
# From -- ./inp_files/1710.got.cif
#   From: 2010.05.17/outbox.cif.g08.bks.cpg/sg136_1_cif.got.tgz:1710.got - 2010.05.20 12:54:53.
