data_PCOD9569601
_publ_section_title
;
Structure prediction by ZEFSAII (Michael W. Deem and Ramdas Pophale) SiO2 
 PCOD9569601
Probable space group: P 42/M N M
;
_chemical_formula_sum "Si O2"
_cell_formula_units_Z 56
_cell_length_a 15.217942
_cell_length_b 15.217942
_cell_length_c 12.757551
_cell_angle_alpha 90.000000
_cell_angle_beta 90.000000
_cell_angle_gamma 90.000000
_cell_volume 2954.467128
_symmetry_space_group_name_H-M "P 42/M N M"
_symmetry_group_IT_number 136
_symmetry_cell_setting 'tetragonal'
loop_
_space_group_symop_operation_xyz
x,y,z
1/2-y,1/2+x,1/2+z
-x,-y,z
1/2+y,1/2-x,1/2+z
1/2+x,1/2-y,1/2-z
1/2-x,1/2+y,1/2-z
y,x,-z
-y,-x,-z
-x,-y,-z
1/2+y,1/2-x,1/2-z
x,y,-z
1/2-y,1/2+x,1/2-z
1/2-x,1/2+y,1/2+z
1/2+x,1/2-y,1/2+z
-y,-x,z
y,x,z
loop_
_atom_site_type_symbol
_atom_site_label
_atom_site_fract_x
_atom_site_fract_y
_atom_site_fract_z
Si Si1 0.541145 0.312737 0.268493
Si Si2 0.779548 0.928121 0.000000
Si Si3 0.975694 0.624907 0.292770
Si Si4 0.584781 0.066160 0.500000
Si Si5 0.424071 0.424071 0.122217
O O1 0.620224 0.379777 0.252669
O O2 0.523520 0.309476 0.393191
O O3 0.568148 0.215082 0.236778
O O4 0.464206 0.345269 0.191606
O O5 0.672407 0.923033 0.000000
O O6 0.833763 0.833763 0.000000
O O7 0.045198 0.593585 0.203673
O O8 0.033676 0.633966 0.396029
O O9 0.500000 0.000000 0.500000
O O10 0.500000 0.500000 0.120000
O O11 0.403633 0.403633 0.000000
#
# Coordination Sequence:
#
# PCOD9569601 Si02
#       5
#    16   8  16   8   8
#     4  10  21  39  60  88 124 156 198 253 304 361
#     4  10  20  37  62  91 122 152 203 263 305 355
#     4  11  21  37  59  87 117 156 202 247 303 367
#     4  12  20  36  60  84 115 163 203 245 306 373
#     4   9  20  39  59  85 123 166 203 238 293 368
#
# _framework density 18.954349000000001
#
# number of rings (size 3 to 8) (size 9 to 14) (size 15 to 20)
#    0.000    1.571    5.714    0.000    2.000    0.571 
#    5.143    2.857    0.000    0.000    0.000    0.000 
#    0.000    0.000    0.000    0.000    0.000    0.000 
#
# Total GULP energy -311736.264551 kJ/mol
# GULP energy per Si atom -5566.719010 kJ/mol
# Density = 1.891121 g / cm^3
# Si number density = 18.954349 Si / 1000 Ang^3
#
#
#
# Elastic Constant Matrix: (Units=GPa)
#
#
# Indices 1 2 3 4 5 6 
#
# 1 62.1698 16.0583 37.9156 0.0000 0.0000 0.0000
# 2 16.0583 62.1698 37.9156 0.0000 0.0000 0.0000
# 3 37.9156 37.9156 147.1806 0.0000 0.0000 0.0000
# 4 0.0000 0.0000 0.0000 22.5642 0.0000 0.0000
# 5 0.0000 0.0000 0.0000 0.0000 22.5642 0.0000
# 6 0.0000 0.0000 0.0000 0.0000 0.0000 8.3214
#
#
#
# Elastic Compliance Matrix: (Units=1/GPa)
#
#
# Indices 1 2 3 4 5 6 
#
# 1 0.019362 -0.002324 -0.004389 0.000000 0.000000 0.000000
# 2 -0.002324 0.019362 -0.004389 0.000000 0.000000 0.000000
# 3 -0.004389 -0.004389 0.009056 0.000000 0.000000 0.000000
# 4 0.000000 0.000000 0.000000 0.044318 0.000000 0.000000
# 5 0.000000 0.000000 0.000000 0.000000 0.044318 0.000000
# 6 0.000000 0.000000 0.000000 0.000000 0.000000 0.120172
#
#
# Mechanical properties :
#
#
# Convention : Reuss Voigt Hill
#
# Bulk Modulus (GPa) = 39.10105 50.58878 44.84492
# Shear Modulus (GPa) = 17.40227 22.66533 20.03380
#
# Velocity S-wave (km/s) = 3.03333 3.46176 3.25460
# Velocity P-wave (km/s) = 5.73951 6.53652 6.15094
#
# Compressibility (1/GPa) = 0.02557476
#
# Stress axis : x y z
#
# Youngs Moduli (GPa) = 51.64706 51.64706 110.42676
#
# Poissons Ratio (x) = 0.12005 0.48468
# Poissons Ratio (y) = 0.12005 0.48468
# Poissons Ratio (z) = 0.22669 0.22669
#
# Static dielectric constant tensor:
#      x y z
#    x 1.672810 0.000000 0.000000 
#    y 0.000000 1.672810 0.000000 
#    z 0.000000 0.000000 1.738300 
# 
# From -- ./inp_files/3115.got.cif
#   From: 2010.05.17/outbox.cif.g08.bks.cpg/sg136_2_cif.got.tgz:3115.got - 2010.05.20 12:54:53.
