data_PCOD9569881
_publ_section_title
;
Structure prediction by ZEFSAII (Michael W. Deem and Ramdas Pophale) SiO2 
 PCOD9569881
Probable space group: P 42/M N M
;
_chemical_formula_sum "Si O2"
_cell_formula_units_Z 72
_cell_length_a 9.916201
_cell_length_b 9.916201
_cell_length_c 36.627625
_cell_angle_alpha 90.000000
_cell_angle_beta 90.000000
_cell_angle_gamma 90.000000
_cell_volume 3601.632542
_symmetry_space_group_name_H-M "P 42/M N M"
_symmetry_group_IT_number 136
_symmetry_cell_setting 'tetragonal'
loop_
_space_group_symop_operation_xyz
x,y,z
1/2-y,1/2+x,1/2+z
-x,-y,z
1/2+y,1/2-x,1/2+z
1/2+x,1/2-y,1/2-z
1/2-x,1/2+y,1/2-z
y,x,-z
-y,-x,-z
-x,-y,-z
1/2+y,1/2-x,1/2-z
x,y,-z
1/2-y,1/2+x,1/2-z
1/2-x,1/2+y,1/2+z
1/2+x,1/2-y,1/2+z
-y,-x,z
y,x,z
loop_
_atom_site_type_symbol
_atom_site_label
_atom_site_fract_x
_atom_site_fract_y
_atom_site_fract_z
Si Si1 0.227366 0.994871 0.000000
Si Si2 0.727858 0.494558 0.579345
Si Si3 0.490996 0.275511 0.807833
Si Si4 0.226501 0.006270 0.227469
Si Si5 0.827996 0.595362 0.652794
O O1 0.296905 0.006444 0.960577
O O2 0.111866 0.111866 0.000000
O O3 0.145555 0.854446 0.000000
O O4 0.641599 0.358402 0.584028
O O5 0.614801 0.614801 0.578235
O O6 0.817963 0.519946 0.614655
O O7 0.607496 0.392505 0.805659
O O8 0.352504 0.352504 0.814082
O O9 0.493410 0.208544 0.767581
O O10 0.536166 0.177048 0.839633
O O11 0.112718 0.887283 0.227908
O O12 0.304415 0.989033 0.189789
O O13 0.146097 0.146097 0.226356
O O14 0.705526 0.705526 0.652340
#
# Coordination Sequence:
#
# PCOD9569881 Si02
#       5
#     8  16  16  16  16
#     4   7  10  16  24  36  61  93 115 144 200 252
#     4   8  12  17  26  43  66  89 118 158 200 245
#     4   8  14  23  32  44  65  90 116 151 195 240
#     4   8  13  21  32  46  65  87 114 154 196 228
#     4   9  14  19  31  48  62  85 123 158 191 235
#
# _framework density 19.990936000000001
#
# number of rings (size 3 to 8) (size 9 to 14) (size 15 to 20)
#    0.000    3.889    0.000    3.333    0.000    2.667 
#    0.000    0.000    0.000    0.667    0.000    0.778 
#    0.000    6.222    0.000    0.000    0.000    4.444 
#
# Total GULP energy -401455.568511 kJ/mol
# GULP energy per Si atom -5575.771785 kJ/mol
# Density = 1.994544 g / cm^3
# Si number density = 19.990936 Si / 1000 Ang^3
#
#
#
# Elastic Constant Matrix: (Units=GPa)
#
#
# Indices 1 2 3 4 5 6 
#
# 1 30.9872 30.6015 57.2315 0.0000 0.0000 0.0000
# 2 30.6015 30.9873 57.2315 0.0000 0.0000 0.0000
# 3 57.2315 57.2315 228.3396 0.0000 0.0000 0.0000
# 4 0.0000 0.0000 0.0000 14.6584 0.0000 0.0000
# 5 0.0000 0.0000 0.0000 0.0000 14.6583 0.0000
# 6 0.0000 0.0000 0.0000 0.0000 0.0000 23.7187
#
#
#
# Elastic Compliance Matrix: (Units=1/GPa)
#
#
# Indices 1 2 3 4 5 6 
#
# 1 1.311510 -1.281107 -0.007621 0.000000 0.000000 0.000000
# 2 -1.281107 1.311494 -0.007616 0.000000 0.000000 0.000000
# 3 -0.007621 -0.007616 0.008198 0.000000 0.000000 0.000000
# 4 0.000000 0.000000 0.000000 0.068220 0.000000 0.000000
# 5 0.000000 0.000000 0.000000 0.000000 0.068221 0.000000
# 6 0.000000 0.000000 0.000000 0.000000 0.000000 0.042161
#
#
# Mechanical properties :
#
#
# Convention : Reuss Voigt Hill
#
# Bulk Modulus (GPa) = 25.96328 64.49370 45.22849
# Shear Modulus (GPa) = 0.92330 20.29037 10.60684
#
# Velocity S-wave (km/s) = 0.68034 3.18933 2.30594
# Velocity P-wave (km/s) = 3.69227 6.77451 5.45558
#
# Compressibility (1/GPa) = 0.03851593
#
# Stress axis : x y z
#
# Youngs Moduli (GPa) = 0.76248 0.76249 121.97460
#
# Poissons Ratio (x) = 0.97683 0.92952
# Poissons Ratio (y) = 0.97682 0.92898
# Poissons Ratio (z) = 0.00581 0.00581
#
# Static dielectric constant tensor:
#      x y z
#    x 1.736760 0.000000 0.000000 
#    y 0.000000 1.736760 0.000000 
#    z 0.000000 0.000000 1.708080 
# 
# From -- ./inp_files/9423.got.cif
#   From: 2010.05.17/outbox.cif.g08.bks.cpg/sg136_5_cif.got.tgz:9423.got - 2010.05.20 12:54:53.
