data_PCOD9569490
_publ_section_title
;
Structure prediction by ZEFSAII (Michael W. Deem and Ramdas Pophale) SiO2 
 PCOD9569490
Probable space group: P 42/M N M
;
_chemical_formula_sum "Si O2"
_cell_formula_units_Z 120
_cell_length_a 26.725531
_cell_length_b 26.725531
_cell_length_c 8.947547
_cell_angle_alpha 90.000000
_cell_angle_beta 90.000000
_cell_angle_gamma 90.000000
_cell_volume 6390.821300
_symmetry_space_group_name_H-M "P 42/M N M"
_symmetry_group_IT_number 136
_symmetry_cell_setting 'tetragonal'
loop_
_space_group_symop_operation_xyz
x,y,z
1/2-y,1/2+x,1/2+z
-x,-y,z
1/2+y,1/2-x,1/2+z
1/2+x,1/2-y,1/2-z
1/2-x,1/2+y,1/2-z
y,x,-z
-y,-x,-z
-x,-y,-z
1/2+y,1/2-x,1/2-z
x,y,-z
1/2-y,1/2+x,1/2-z
1/2-x,1/2+y,1/2+z
1/2+x,1/2-y,1/2+z
-y,-x,z
y,x,z
loop_
_atom_site_type_symbol
_atom_site_label
_atom_site_fract_x
_atom_site_fract_y
_atom_site_fract_z
Si Si1 0.459028 0.540973 0.181923
Si Si2 0.890667 0.596871 0.323163
Si Si3 0.726123 0.809551 0.668045
Si Si4 0.869966 0.288516 0.322985
Si Si5 0.986011 0.647230 0.177218
Si Si6 0.379249 0.705500 0.667650
Si Si7 0.532293 0.745391 0.320959
Si Si8 0.656292 0.472319 0.821531
O O1 0.500000 0.500000 0.231001
O O2 0.472515 0.597981 0.227383
O O3 0.458980 0.541021 0.000000
O O4 0.845502 0.619922 0.228064
O O5 0.941795 0.621887 0.269439
O O6 0.884499 0.537123 0.300334
O O7 0.894806 0.382906 0.000000
O O8 0.710267 0.823129 0.500000
O O9 0.774365 0.774365 0.655974
O O10 0.683939 0.778616 0.752990
O O11 0.743777 0.857498 0.762543
O O12 0.870573 0.283442 0.500000
O O13 0.913608 0.256322 0.248458
O O14 0.998635 0.705247 0.218207
O O15 0.974182 0.646486 0.000000
O O16 0.399837 0.713632 0.500000
O O17 0.333687 0.666314 0.654819
O O18 0.419290 0.679943 0.774717
O O19 0.535267 0.744061 0.500000
O O20 0.510994 0.693763 0.257001
O O21 0.657717 0.478831 0.000000
#
# Coordination Sequence:
#
# PCOD9569490 Si02
#       8
#     8  16  16  16  16  16  16  16
#     4   9  20  40  65  93 127 163 201 249 301 355
#     4  10  21  36  55  78 109 148 192 245 299 352
#     4  10  21  37  58  84 115 150 190 233 282 343
#     4  11  22  38  59  82 113 152 195 242 296 355
#     4   9  20  37  54  77 108 147 194 243 297 353
#     4  10  20  34  54  84 122 156 187 231 291 352
#     4  10  22  40  59  82 117 154 198 249 298 353
#     4  11  21  36  61  90 119 156 199 246 301 356
#
# _framework density 18.776928999999999
#
# number of rings (size 3 to 8) (size 9 to 14) (size 15 to 20)
#    0.000    1.933    0.667    4.000    1.867    4.800 
#    0.000    2.000    0.000    5.600    0.000    0.000 
#    0.000    0.000    0.000    0.000    0.000    0.000 
#
# Total GULP energy -669751.748064 kJ/mol
# GULP energy per Si atom -5581.264567 kJ/mol
# Density = 1.873419 g / cm^3
# Si number density = 18.776929 Si / 1000 Ang^3
#
#
#
# Elastic Constant Matrix: (Units=GPa)
#
#
# Indices 1 2 3 4 5 6 
#
# 1 82.9649 46.4152 26.9427 0.0000 0.0000 0.0000
# 2 46.4152 82.9650 26.9427 0.0000 0.0000 0.0000
# 3 26.9427 26.9427 80.0704 0.0000 0.0000 0.0000
# 4 0.0000 0.0000 0.0000 26.6775 0.0000 0.0000
# 5 0.0000 0.0000 0.0000 0.0000 26.6775 0.0000
# 6 0.0000 0.0000 0.0000 0.0000 0.0000 22.5886
#
#
#
# Elastic Compliance Matrix: (Units=1/GPa)
#
#
# Indices 1 2 3 4 5 6 
#
# 1 0.018174 -0.009186 -0.003025 0.000000 0.000000 0.000000
# 2 -0.009186 0.018174 -0.003025 0.000000 0.000000 0.000000
# 3 -0.003025 -0.003025 0.014525 0.000000 0.000000 0.000000
# 4 0.000000 0.000000 0.000000 0.037485 0.000000 0.000000
# 5 0.000000 0.000000 0.000000 0.000000 0.037485 0.000000
# 6 0.000000 0.000000 0.000000 0.000000 0.000000 0.044270
#
#
# Mechanical properties :
#
#
# Convention : Reuss Voigt Hill
#
# Bulk Modulus (GPa) = 49.01070 49.62239 49.31655
# Shear Modulus (GPa) = 24.10988 24.90205 24.50596
#
# Velocity S-wave (km/s) = 3.58720 3.64566 3.61655
# Velocity P-wave (km/s) = 6.58146 6.64874 6.61519
#
# Compressibility (1/GPa) = 0.02040371
#
# Stress axis : x y z
#
# Youngs Moduli (GPa) = 55.02235 55.02245 68.84909
#
# Poissons Ratio (x) = 0.50541 0.20825
# Poissons Ratio (y) = 0.50541 0.20824
# Poissons Ratio (z) = 0.16642 0.16642
#
# Static dielectric constant tensor:
#      x y z
#    x 1.662290 0.000000 0.000000 
#    y 0.000000 1.662290 0.000000 
#    z 0.000000 0.000000 1.641910 
# 
# From -- ./inp_files/2321.got.cif
#   From: 2010.05.17/outbox.cif.g08.bks.cpg/sg136_2_cif.got.tgz:2321.got - 2010.05.20 12:54:53.
