data_PCOD9569436
_publ_section_title
;
Structure prediction by ZEFSAII (Michael W. Deem and Ramdas Pophale) SiO2 
 PCOD9569436
Probable space group: P 42/M N M
;
_chemical_formula_sum "Si O2"
_cell_formula_units_Z 112
_cell_length_a 15.593549
_cell_length_b 15.593549
_cell_length_c 23.839231
_cell_angle_alpha 90.000000
_cell_angle_beta 90.000000
_cell_angle_gamma 90.000000
_cell_volume 5796.718098
_symmetry_space_group_name_H-M "P 42/M N M"
_symmetry_group_IT_number 136
_symmetry_cell_setting 'tetragonal'
loop_
_space_group_symop_operation_xyz
x,y,z
1/2-y,1/2+x,1/2+z
-x,-y,z
1/2+y,1/2-x,1/2+z
1/2+x,1/2-y,1/2-z
1/2-x,1/2+y,1/2-z
y,x,-z
-y,-x,-z
-x,-y,-z
1/2+y,1/2-x,1/2-z
x,y,-z
1/2-y,1/2+x,1/2-z
1/2-x,1/2+y,1/2+z
1/2+x,1/2-y,1/2+z
-y,-x,z
y,x,z
loop_
_atom_site_type_symbol
_atom_site_label
_atom_site_fract_x
_atom_site_fract_y
_atom_site_fract_z
Si Si1 0.498081 0.361131 0.265410
Si Si2 0.729029 0.869921 0.353301
Si Si3 0.676908 0.539618 0.860007
Si Si4 0.613652 0.919676 0.248623
Si Si5 0.118010 0.736124 0.936504
Si Si6 0.303728 0.555653 0.383532
Si Si7 0.688667 0.175585 0.354985
O O1 0.575866 0.424134 0.247543
O O2 0.422517 0.422517 0.288455
O O3 0.463162 0.320023 0.208500
O O4 0.532338 0.305583 0.316854
O O5 0.788906 0.788906 0.339255
O O6 0.681447 0.903060 0.297719
O O7 0.656088 0.837778 0.396360
O O8 0.792374 0.944648 0.376378
O O9 0.584420 0.584420 0.873051
O O10 0.749721 0.604631 0.881363
O O11 0.519041 0.891806 0.267970
O O12 0.634053 0.864566 0.194408
O O13 0.190928 0.809073 0.936637
O O14 0.031158 0.781255 0.915231
O O15 0.106228 0.704756 0.000000
O O16 0.393660 0.606341 0.394731
O O17 0.227737 0.623481 0.393815
O O18 0.752230 0.247771 0.330418
#
# Coordination Sequence:
#
# PCOD9569436 Si02
#       7
#    16  16  16  16  16  16  16
#     4   9  17  29  46  73 111 148 180 216 262 322
#     4  11  22  37  58  81 113 152 190 235 291 346
#     4  10  20  34  53  80 116 154 191 232 276 335
#     4  11  21  33  50  80 116 156 192 226 265 331
#     4  10  23  41  61  86 112 141 184 243 301 350
#     4  10  20  35  56  81 112 153 193 229 277 340
#     4  10  20  33  49  75 114 150 186 229 269 323
#
# _framework density 19.321278
#
# number of rings (size 3 to 8) (size 9 to 14) (size 15 to 20)
#    0.000    1.857    1.429    3.000    2.000    3.143 
#    0.000    0.714    0.000    2.143    0.000    4.000 
#    0.000    0.000    0.000    0.000    0.000    0.000 
#
# Total GULP energy -624605.299897 kJ/mol
# GULP energy per Si atom -5576.833035 kJ/mol
# Density = 1.927730 g / cm^3
# Si number density = 19.321278 Si / 1000 Ang^3
#
#
#
# Elastic Constant Matrix: (Units=GPa)
#
#
# Indices 1 2 3 4 5 6 
#
# 1 85.0673 16.1258 10.2778 0.0000 0.0000 0.0000
# 2 16.1258 85.0673 10.2778 0.0000 0.0000 0.0000
# 3 10.2778 10.2778 23.2101 0.0000 0.0000 0.0000
# 4 0.0000 0.0000 0.0000 12.2504 0.0000 0.0000
# 5 0.0000 0.0000 0.0000 0.0000 12.2504 0.0000
# 6 0.0000 0.0000 0.0000 0.0000 0.0000 33.4512
#
#
#
# Elastic Compliance Matrix: (Units=1/GPa)
#
#
# Indices 1 2 3 4 5 6 
#
# 1 0.012682 -0.001823 -0.004808 0.000000 0.000000 0.000000
# 2 -0.001823 0.012682 -0.004808 0.000000 0.000000 0.000000
# 3 -0.004808 -0.004808 0.047343 0.000000 0.000000 0.000000
# 4 0.000000 0.000000 0.000000 0.081630 0.000000 0.000000
# 5 0.000000 0.000000 0.000000 0.000000 0.081630 0.000000
# 6 0.000000 0.000000 0.000000 0.000000 0.000000 0.029894
#
#
# Mechanical properties :
#
#
# Convention : Reuss Voigt Hill
#
# Bulk Modulus (GPa) = 20.06946 29.63419 24.85182
# Shear Modulus (GPa) = 16.37464 22.03462 19.20463
#
# Velocity S-wave (km/s) = 2.91433 3.38069 3.15614
# Velocity P-wave (km/s) = 4.66200 5.53260 5.11585
#
# Compressibility (1/GPa) = 0.04982696
#
# Stress axis : x y z
#
# Youngs Moduli (GPa) = 78.85221 78.85221 21.12235
#
# Poissons Ratio (x) = 0.14375 0.10157
# Poissons Ratio (y) = 0.14375 0.10157
# Poissons Ratio (z) = 0.37916 0.37916
#
# Static dielectric constant tensor:
#      x y z
#    x 1.731080 0.000000 0.000000 
#    y 0.000000 1.731080 0.000000 
#    z 0.000000 0.000000 1.635830 
# 
# From -- ./inp_files/8487.got.cif
#   From: 2010.05.17/outbox.cif.g08.bks.cpg/sg136_5_cif.got.tgz:8487.got - 2010.05.20 12:54:53.
