data_PCOD9569425
_publ_section_title
;
Structure prediction by ZEFSAII (Michael W. Deem and Ramdas Pophale) SiO2 
 PCOD9569425
Probable space group: P 42/M N M
;
_chemical_formula_sum "Si O2"
_cell_formula_units_Z 112
_cell_length_a 14.998896
_cell_length_b 14.998896
_cell_length_c 29.601807
_cell_angle_alpha 90.000000
_cell_angle_beta 90.000000
_cell_angle_gamma 90.000000
_cell_volume 6659.426199
_symmetry_space_group_name_H-M "P 42/M N M"
_symmetry_group_IT_number 136
_symmetry_cell_setting 'tetragonal'
loop_
_space_group_symop_operation_xyz
x,y,z
1/2-y,1/2+x,1/2+z
-x,-y,z
1/2+y,1/2-x,1/2+z
1/2+x,1/2-y,1/2-z
1/2-x,1/2+y,1/2-z
y,x,-z
-y,-x,-z
-x,-y,-z
1/2+y,1/2-x,1/2-z
x,y,-z
1/2-y,1/2+x,1/2-z
1/2-x,1/2+y,1/2+z
1/2+x,1/2-y,1/2+z
-y,-x,z
y,x,z
loop_
_atom_site_type_symbol
_atom_site_label
_atom_site_fract_x
_atom_site_fract_y
_atom_site_fract_z
Si Si1 0.930978 0.218359 0.182787
Si Si2 0.111076 0.249159 0.139496
Si Si3 0.898962 0.540978 0.855580
Si Si4 0.974462 0.356119 0.740036
Si Si5 0.868023 0.270798 0.086985
Si Si6 0.675720 0.463180 0.552076
Si Si7 0.032449 0.397036 0.550272
O O1 0.866956 0.133045 0.188265
O O2 0.942631 0.276277 0.228059
O O3 0.889209 0.275258 0.140718
O O4 0.030612 0.197960 0.164904
O O5 0.204244 0.204244 0.152676
O O6 0.098347 0.352719 0.147592
O O7 0.095310 0.234081 0.086276
O O8 0.840449 0.509718 0.813080
O O9 0.861131 0.514986 0.904610
O O10 0.000000 0.500000 0.851239
O O11 0.900522 0.434445 0.742270
O O12 0.770003 0.229998 0.080552
O O13 0.888477 0.362878 0.062037
O O14 0.937613 0.198382 0.067339
O O15 0.700505 0.452331 0.500000
O O16 0.575834 0.424167 0.557243
O O17 0.015019 0.359741 0.500000
O O18 0.000000 0.500000 0.548754
#
# Coordination Sequence:
#
# PCOD9569425 Si02
#       7
#    16  16  16  16  16  16  16
#     4  10  20  34  50  73 106 140 179 224 275 330
#     4  10  20  34  51  74 104 141 181 220 264 319
#     4  11  19  32  54  76 105 138 181 224 269 321
#     4  11  18  31  52  74  96 133 176 225 276 318
#     4  10  20  33  49  71 103 140 178 224 273 326
#     4   9  17  28  43  65  96 137 182 220 254 300
#     4  10  20  32  50  74 102 139 180 223 274 327
#
# _framework density 16.818266000000001
#
# number of rings (size 3 to 8) (size 9 to 14) (size 15 to 20)
#    0.000    1.857    2.857    4.714    0.000    4.000 
#    0.000    3.571    0.000    0.000    0.000    0.000 
#    0.000    0.571    0.000    1.286    0.000    1.143 
#
# Total GULP energy -623584.789741 kJ/mol
# GULP energy per Si atom -5567.721337 kJ/mol
# Density = 1.677999 g / cm^3
# Si number density = 16.818266 Si / 1000 Ang^3
#
#
#
# Elastic Constant Matrix: (Units=GPa)
#
#
# Indices 1 2 3 4 5 6 
#
# 1 63.6895 42.0106 29.1236 0.0000 0.0000 0.0000
# 2 42.0106 63.6895 29.1236 0.0000 0.0000 0.0000
# 3 29.1236 29.1236 154.5822 0.0000 0.0000 0.0000
# 4 0.0000 0.0000 0.0000 -15.9985 0.0000 0.0000
# 5 0.0000 0.0000 0.0000 0.0000 -15.9985 0.0000
# 6 0.0000 0.0000 0.0000 0.0000 0.0000 17.6831
#
#
#
# Elastic Compliance Matrix: (Units=1/GPa)
#
#
# Indices 1 2 3 4 5 6 
#
# 1 0.028342 -0.017785 -0.001989 0.000000 0.000000 0.000000
# 2 -0.017785 0.028342 -0.001989 0.000000 0.000000 0.000000
# 3 -0.001989 -0.001989 0.007218 0.000000 0.000000 0.000000
# 4 0.000000 0.000000 0.000000 -0.062506 0.000000 0.000000
# 5 0.000000 0.000000 0.000000 0.000000 -0.062506 0.000000
# 6 0.000000 0.000000 0.000000 0.000000 0.000000 0.056551
#
#
# Mechanical properties :
#
#
# Convention : Reuss Voigt Hill
#
# Bulk Modulus (GPa) = 49.07659 53.60852 51.34255
# Shear Modulus (GPa) = 109.26285 9.25078 59.25682
#
# Velocity S-wave (km/s) = 8.06894 2.34785 5.94223
# Velocity P-wave (km/s) = 10.77285 6.26851 8.81330
#
# Compressibility (1/GPa) = 0.02037632
#
# Stress axis : x y z
#
# Youngs Moduli (GPa) = 35.28305 35.28305 138.53334
#
# Poissons Ratio (x) = 0.62753 0.27553
# Poissons Ratio (y) = 0.62753 0.27553
# Poissons Ratio (z) = 0.07017 0.07017
#
# Static dielectric constant tensor:
#      x y z
#    x 1.583680 0.000000 0.000000 
#    y 0.000000 1.583680 0.000000 
#    z 0.000000 0.000000 1.633400 
# 
# From -- ./inp_files/9982.got.cif
#   From: 2010.05.17/outbox.cif.g08.bks.cpg/sg136_5_cif.got.tgz:9982.got - 2010.05.20 12:54:53.
