data_PCOD9569407
_publ_section_title
;
Structure prediction by ZEFSAII (Michael W. Deem and Ramdas Pophale) SiO2 
 PCOD9569407
Probable space group: P 42/M N M
;
_chemical_formula_sum "Si O2"
_cell_formula_units_Z 64
_cell_length_a 17.907980
_cell_length_b 17.907980
_cell_length_c 8.563790
_cell_angle_alpha 90.000000
_cell_angle_beta 90.000000
_cell_angle_gamma 90.000000
_cell_volume 2746.371037
_symmetry_space_group_name_H-M "P 42/M N M"
_symmetry_group_IT_number 136
_symmetry_cell_setting 'tetragonal'
loop_
_space_group_symop_operation_xyz
x,y,z
1/2-y,1/2+x,1/2+z
-x,-y,z
1/2+y,1/2-x,1/2+z
1/2+x,1/2-y,1/2-z
1/2-x,1/2+y,1/2-z
y,x,-z
-y,-x,-z
-x,-y,-z
1/2+y,1/2-x,1/2-z
x,y,-z
1/2-y,1/2+x,1/2-z
1/2-x,1/2+y,1/2+z
1/2+x,1/2-y,1/2+z
-y,-x,z
y,x,z
loop_
_atom_site_type_symbol
_atom_site_label
_atom_site_fract_x
_atom_site_fract_y
_atom_site_fract_z
Si Si1 0.949108 0.403483 0.676609
Si Si2 0.885138 0.760009 0.000000
Si Si3 0.246781 0.119307 0.666103
Si Si4 0.953594 0.159139 0.000000
Si Si5 0.271832 0.445542 0.173531
O O1 0.913138 0.461718 0.795444
O O2 0.931385 0.426801 0.500000
O O3 0.934723 0.316372 0.695111
O O4 0.878502 0.715992 0.162665
O O5 0.960709 0.810530 0.000000
O O6 0.816844 0.816844 0.000000
O O7 0.287394 0.131431 0.500000
O O8 0.179930 0.179930 0.669194
O O9 0.215210 0.035111 0.661998
O O10 0.921848 0.191288 0.163668
O O11 0.927892 0.072108 0.000000
O O12 0.292300 0.415195 0.000000
#
# Coordination Sequence:
#
# PCOD9569407 Si02
#       5
#    16   8  16   8  16
#     4  10  20  33  54  82 108 133 162 211 273 325
#     4   8  14  25  40  64  95 124 163 210 253 296
#     4   8  13  24  43  65  92 128 167 205 244 292
#     4  10  20  31  50  73  99 142 179 212 257 303
#     4   9  19  33  50  75 104 136 174 212 261 310
#
# _framework density 23.303477999999998
#
# number of rings (size 3 to 8) (size 9 to 14) (size 15 to 20)
#    0.000    3.000    0.000    1.500    3.500    0.750 
#    0.000    0.000    0.000    1.500    0.000   17.500 
#    0.000    0.000    0.000    0.000    0.000    0.000 
#
# Total GULP energy -356430.811710 kJ/mol
# GULP energy per Si atom -5569.231433 kJ/mol
# Density = 2.325044 g / cm^3
# Si number density = 23.303478 Si / 1000 Ang^3
#
#
#
# Elastic Constant Matrix: (Units=GPa)
#
#
# Indices 1 2 3 4 5 6 
#
# 1 39.3281 35.6915 23.6313 0.0000 0.0000 0.0000
# 2 35.6915 39.3307 23.6333 0.0000 0.0000 0.0000
# 3 23.6313 23.6333 261.2670 0.0000 0.0000 0.0000
# 4 0.0000 0.0000 0.0000 141.4064 0.0000 0.0000
# 5 0.0000 0.0000 0.0000 0.0000 141.4171 0.0000
# 6 0.0000 0.0000 0.0000 0.0000 0.0000 1.1875
#
#
#
# Elastic Compliance Matrix: (Units=1/GPa)
#
#
# Indices 1 2 3 4 5 6 
#
# 1 0.144515 -0.130376 -0.001278 0.000000 0.000000 0.000000
# 2 -0.130376 0.144506 -0.001279 0.000000 0.000000 0.000000
# 3 -0.001278 -0.001279 0.004059 0.000000 0.000000 0.000000
# 4 0.000000 0.000000 0.000000 0.007072 0.000000 0.000000
# 5 0.000000 0.000000 0.000000 0.000000 0.007071 0.000000
# 6 0.000000 0.000000 0.000000 0.000000 0.000000 0.842117
#
#
# Mechanical properties :
#
#
# Convention : Reuss Voigt Hill
#
# Bulk Modulus (GPa) = 36.74469 56.20424 46.47446
# Shear Modulus (GPa) = 3.51055 73.93351 38.72203
#
# Velocity S-wave (km/s) = 1.22871 5.63873 4.08075
# Velocity P-wave (km/s) = 4.22079 8.15870 6.49536
#
# Compressibility (1/GPa) = 0.02721482
#
# Stress axis : x y z
#
# Youngs Moduli (GPa) = 6.91968 6.92012 246.37816
#
# Poissons Ratio (x) = 0.90221 0.31485
# Poissons Ratio (y) = 0.90216 0.31517
# Poissons Ratio (z) = 0.00884 0.00885
#
# Static dielectric constant tensor:
#      x y z
#    x 1.854640 0.000000 0.000000 
#    y 0.000000 1.854640 0.000000 
#    z 0.000000 0.000000 1.966480 
# 
# From -- ./inp_files/1450.got.cif
#   From: 2010.05.17/outbox.cif.g08.bks.cpg/sg136_1_cif.got.tgz:1450.got - 2010.05.20 12:54:53.
