data_PCOD9569947
_publ_section_title
;
Structure prediction by ZEFSAII (Michael W. Deem and Ramdas Pophale) SiO2 
 PCOD9569947
Probable space group: P 42/N M C
;
_chemical_formula_sum "Si O2"
_cell_formula_units_Z 80
_cell_length_a 17.643986
_cell_length_b 17.643986
_cell_length_c 15.088727
_cell_angle_alpha 90.000000
_cell_angle_beta 90.000000
_cell_angle_gamma 90.000000
_cell_volume 4697.275253
_symmetry_space_group_name_H-M "P 42/N M C"
_symmetry_group_IT_number 137
_space_group.IT_coordinate_system_code '2'
_symmetry_cell_setting 'tetragonal'
loop_
_space_group_symop_operation_xyz
x,y,z
1/2-y,x,1/2+z
1/2-x,1/2-y,z
y,1/2-x,1/2+z
1/2+x,-y,-z
-x,1/2+y,-z
1/2+y,1/2+x,1/2-z
-y,-x,1/2-z
-x,-y,-z
1/2+y,-x,1/2-z
1/2+x,1/2+y,-z
-y,1/2+x,1/2-z
1/2-x,y,z
x,1/2-y,z
1/2-y,1/2-x,1/2+z
y,x,1/2+z
loop_
_atom_site_type_symbol
_atom_site_label
_atom_site_fract_x
_atom_site_fract_y
_atom_site_fract_z
Si Si1 0.918456 0.833214 0.701417
Si Si2 0.161870 0.008860 0.300153
Si Si3 0.563421 0.335483 0.425916
Si Si4 0.091598 0.964307 0.112439
Si Si5 0.983907 0.089037 0.163828
O O1 0.883315 0.750000 0.699632
O O2 0.982669 0.837337 0.625203
O O3 0.965078 0.845977 0.793196
O O4 0.862132 0.903315 0.691577
O O5 0.250000 0.997649 0.317346
O O6 0.140420 0.984087 0.199831
O O7 0.108658 0.959178 0.363976
O O8 0.593867 0.250000 0.416101
O O9 0.550090 0.357432 0.527394
O O10 0.609916 0.404264 0.380532
O O11 0.034110 0.035418 0.101090
O O12 0.963117 0.036884 0.250000
#
# Coordination Sequence:
#
# PCOD9569947 Si02
#       5
#    16  16  16  16  16
#     4   9  18  32  50  76 101 128 165 201 248 301
#     4  10  19  32  51  73 100 132 164 205 252 293
#     4  10  18  28  51  77  98 126 163 209 248 284
#     4  10  17  32  50  73  98 127 174 209 234 289
#     4   9  15  30  49  70  97 129 167 208 238 288
#
# _framework density 17.03115
#
# number of rings (size 3 to 8) (size 9 to 14) (size 15 to 20)
#    0.000    2.400    6.000    1.200    0.000    0.400 
#    0.000    1.000    0.000   13.200    0.000    9.800 
#    0.000    0.000    0.000    0.000    0.000    0.000 
#
# Total GULP energy -445620.107754 kJ/mol
# GULP energy per Si atom -5570.251347 kJ/mol
# Density = 1.699239 g / cm^3
# Si number density = 17.031150 Si / 1000 Ang^3
#
#
#
# Elastic Constant Matrix: (Units=GPa)
#
#
# Indices 1 2 3 4 5 6 
#
# 1 80.9455 38.3339 18.3445 0.0000 0.0000 0.0000
# 2 38.3339 80.9451 18.3442 0.0000 0.0000 0.0000
# 3 18.3445 18.3442 56.1930 0.0000 0.0000 0.0000
# 4 0.0000 0.0000 0.0000 10.2826 0.0000 0.0000
# 5 0.0000 0.0000 0.0000 0.0000 10.2826 0.0000
# 6 0.0000 0.0000 0.0000 0.0000 0.0000 12.7831
#
#
#
# Elastic Compliance Matrix: (Units=1/GPa)
#
#
# Indices 1 2 3 4 5 6 
#
# 1 0.016394 -0.007074 -0.003042 0.000000 0.000000 0.000000
# 2 -0.007074 0.016394 -0.003042 0.000000 0.000000 0.000000
# 3 -0.003042 -0.003042 0.019782 0.000000 0.000000 0.000000
# 4 0.000000 0.000000 0.000000 0.097251 0.000000 0.000000
# 5 0.000000 0.000000 0.000000 0.000000 0.097251 0.000000
# 6 0.000000 0.000000 0.000000 0.000000 0.000000 0.078228
#
#
# Mechanical properties :
#
#
# Convention : Reuss Voigt Hill
#
# Bulk Modulus (GPa) = 38.09279 40.90318 39.49799
# Shear Modulus (GPa) = 13.87467 16.20707 15.04087
#
# Velocity S-wave (km/s) = 2.85733 3.08817 2.97499
# Velocity P-wave (km/s) = 5.77069 6.06503 5.91969
#
# Compressibility (1/GPa) = 0.02625169
#
# Stress axis : x y z
#
# Youngs Moduli (GPa) = 60.99914 60.99899 50.55048
#
# Poissons Ratio (x) = 0.43152 0.15380
# Poissons Ratio (y) = 0.43152 0.15379
# Poissons Ratio (z) = 0.18559 0.18558
#
# Static dielectric constant tensor:
#      x y z
#    x 1.577750 0.000000 0.000000 
#    y 0.000000 1.577750 0.000000 
#    z 0.000000 0.000000 1.584330 
# 
# From -- ./inp_files/4942.got.cif
#   From: 2010.05.17/outbox.cif.g08.bks.cpg/sg137_3_cif.got.tgz:4942.got - 2010.05.20 13:01:12.
