data_PCOD9569958
_publ_section_title
;
Structure prediction by ZEFSAII (Michael W. Deem and Ramdas Pophale) SiO2 
 PCOD9569958
Probable space group: P 42/N M C
;
_chemical_formula_sum "Si O2"
_cell_formula_units_Z 112
_cell_length_a 17.887657
_cell_length_b 17.887657
_cell_length_c 16.107386
_cell_angle_alpha 90.000000
_cell_angle_beta 90.000000
_cell_angle_gamma 90.000000
_cell_volume 5153.852480
_symmetry_space_group_name_H-M "P 42/N M C"
_symmetry_group_IT_number 137
_space_group.IT_coordinate_system_code '2'
_symmetry_cell_setting 'tetragonal'
loop_
_space_group_symop_operation_xyz
x,y,z
1/2-y,x,1/2+z
1/2-x,1/2-y,z
y,1/2-x,1/2+z
1/2+x,-y,-z
-x,1/2+y,-z
1/2+y,1/2+x,1/2-z
-y,-x,1/2-z
-x,-y,-z
1/2+y,-x,1/2-z
1/2+x,1/2+y,-z
-y,1/2+x,1/2-z
1/2-x,y,z
x,1/2-y,z
1/2-y,1/2-x,1/2+z
y,x,1/2+z
loop_
_atom_site_type_symbol
_atom_site_label
_atom_site_fract_x
_atom_site_fract_y
_atom_site_fract_z
Si Si1 0.837645 0.437745 0.102345
Si Si2 0.068909 0.039872 0.777265
Si Si3 0.168973 0.336082 0.741307
Si Si4 0.335521 0.031808 0.460072
Si Si5 0.462755 0.931815 0.447393
Si Si6 0.954136 0.332570 0.142863
Si Si7 0.102813 0.161888 0.564164
O O1 0.750000 0.450635 0.110905
O O2 0.892107 0.499314 0.144259
O O3 0.866019 0.434171 0.007844
O O4 0.869436 0.361659 0.141359
O O5 0.097759 0.123642 0.779865
O O6 0.115301 0.001984 0.701768
O O7 0.986249 0.013752 0.750000
O O8 0.250000 0.369248 0.764518
O O9 0.168806 0.250000 0.765204
O O10 0.159751 0.339550 0.641365
O O11 0.250000 0.033930 0.430501
O O12 0.365171 0.114473 0.486220
O O13 0.393480 0.978737 0.408790
O O14 0.334763 0.989462 0.550649
O O15 0.530478 0.886256 0.405222
O O16 0.500000 0.000000 0.500000
O O17 0.958736 0.250000 0.176007
O O18 0.087297 0.250000 0.545761
#
# Coordination Sequence:
#
# PCOD9569958 Si02
#       7
#    16  16  16  16  16  16  16
#     4  10  19  29  44  66  91 128 165 194 237 289
#     4  10  19  30  48  71  99 131 164 195 233 292
#     4  10  19  31  51  79 105 126 156 202 253 293
#     4   9  16  28  46  66  92 125 160 197 243 292
#     4   9  19  32  46  64  94 126 168 205 240 284
#     4   9  16  27  42  63  94 126 157 195 232 275
#     4  10  18  28  47  72  97 125 158 205 250 287
#
# _framework density 21.731317000000001
#
# number of rings (size 3 to 8) (size 9 to 14) (size 15 to 20)
#    0.000    2.429    1.429    2.143    2.000    1.143 
#    0.000    0.000    0.000    8.143    0.000    2.000 
#    0.000    1.429    0.000    0.000    0.000    0.000 
#
# Total GULP energy -624277.714136 kJ/mol
# GULP energy per Si atom -5573.908162 kJ/mol
# Density = 2.168186 g / cm^3
# Si number density = 21.731317 Si / 1000 Ang^3
#
#
#
# Elastic Constant Matrix: (Units=GPa)
#
#
# Indices 1 2 3 4 5 6 
#
# 1 132.6143 52.0028 15.1369 0.0000 0.0000 0.0000
# 2 52.0028 132.6125 15.1369 0.0000 0.0000 0.0000
# 3 15.1369 15.1369 19.8643 0.0000 0.0000 0.0000
# 4 0.0000 0.0000 0.0000 21.1252 0.0000 0.0000
# 5 0.0000 0.0000 0.0000 0.0000 21.1255 0.0000
# 6 0.0000 0.0000 0.0000 0.0000 0.0000 26.5564
#
#
#
# Elastic Compliance Matrix: (Units=1/GPa)
#
#
# Indices 1 2 3 4 5 6 
#
# 1 0.009298 -0.003108 -0.004717 0.000000 0.000000 0.000000
# 2 -0.003108 0.009298 -0.004717 0.000000 0.000000 0.000000
# 3 -0.004717 -0.004717 0.057531 0.000000 0.000000 0.000000
# 4 0.000000 0.000000 0.000000 0.047337 0.000000 0.000000
# 5 0.000000 0.000000 0.000000 0.000000 0.047336 0.000000
# 6 0.000000 0.000000 0.000000 0.000000 0.000000 0.037656
#
#
# Mechanical properties :
#
#
# Convention : Reuss Voigt Hill
#
# Bulk Modulus (GPa) = 19.59139 49.96048 34.77593
# Shear Modulus (GPa) = 19.95594 27.28240 23.61917
#
# Velocity S-wave (km/s) = 3.03364 3.54707 3.30035
# Velocity P-wave (km/s) = 4.61579 6.30996 5.52816
#
# Compressibility (1/GPa) = 0.05104284
#
# Stress axis : x y z
#
# Youngs Moduli (GPa) = 107.55395 107.55227 17.38208
#
# Poissons Ratio (x) = 0.33423 0.08199
# Poissons Ratio (y) = 0.33423 0.08199
# Poissons Ratio (z) = 0.50732 0.50733
#
# Static dielectric constant tensor:
#      x y z
#    x 1.848070 0.000000 0.000000 
#    y 0.000000 1.848070 0.000000 
#    z 0.000000 0.000000 1.919370 
# 
# From -- ./inp_files/9116.got.cif
#   From: 2010.05.17/outbox.cif.g08.bks.cpg/sg137_5_cif.got.tgz:9116.got - 2010.05.20 13:01:12.
