data_PCOD9569426
_publ_section_title
;
Structure prediction by ZEFSAII (Michael W. Deem and Ramdas Pophale) SiO2 
 PCOD9569426
Probable space group: P 42/M N M
;
_chemical_formula_sum "Si O2"
_cell_formula_units_Z 128
_cell_length_a 18.391692
_cell_length_b 18.391692
_cell_length_c 21.793618
_cell_angle_alpha 90.000000
_cell_angle_beta 90.000000
_cell_angle_gamma 90.000000
_cell_volume 7371.785756
_symmetry_space_group_name_H-M "P 42/M N M"
_symmetry_group_IT_number 136
_symmetry_cell_setting 'tetragonal'
loop_
_space_group_symop_operation_xyz
x,y,z
1/2-y,1/2+x,1/2+z
-x,-y,z
1/2+y,1/2-x,1/2+z
1/2+x,1/2-y,1/2-z
1/2-x,1/2+y,1/2-z
y,x,-z
-y,-x,-z
-x,-y,-z
1/2+y,1/2-x,1/2-z
x,y,-z
1/2-y,1/2+x,1/2-z
1/2-x,1/2+y,1/2+z
1/2+x,1/2-y,1/2+z
-y,-x,z
y,x,z
loop_
_atom_site_type_symbol
_atom_site_label
_atom_site_fract_x
_atom_site_fract_y
_atom_site_fract_z
Si Si1 0.696481 0.996143 0.251840
Si Si2 0.379653 0.734738 0.324554
Si Si3 0.574372 0.308048 0.073790
Si Si4 0.163841 0.616116 0.139607
Si Si5 0.870462 0.654867 0.926961
Si Si6 0.789404 0.092211 0.574644
Si Si7 0.084680 0.495328 0.641385
Si Si8 0.340275 0.225756 0.253601
O O1 0.757368 0.954966 0.211356
O O2 0.675559 0.947944 0.310051
O O3 0.628281 0.000054 0.205373
O O4 0.720358 0.077084 0.267670
O O5 0.343521 0.656480 0.322384
O O6 0.379430 0.768157 0.392472
O O7 0.326637 0.790166 0.287707
O O8 0.624460 0.375541 0.095696
O O9 0.609786 0.232062 0.094903
O O10 0.490072 0.307269 0.095191
O O11 0.573097 0.310959 0.000000
O O12 0.083338 0.604423 0.112786
O O13 0.163958 0.690554 0.178503
O O14 0.792418 0.618717 0.911016
O O15 0.936883 0.607791 0.900407
O O16 0.874043 0.661316 0.000000
O O17 0.793145 0.091311 0.500000
O O18 0.848222 0.151779 0.596358
O O19 0.000000 0.500000 0.653171
O O20 0.304510 0.304510 0.252005
#
# Coordination Sequence:
#
# PCOD9569426 Si02
#       8
#    16  16  16  16  16  16  16  16
#     4   9  20  32  49  74  96 124 162 203 245 292
#     4   9  18  32  50  72  98 127 162 203 245 292
#     4  10  21  35  50  69  94 126 167 210 249 296
#     4  10  20  32  51  72  99 130 164 201 247 295
#     4  10  20  33  47  71 103 134 168 200 242 295
#     4   9  18  32  49  67  91 126 164 202 243 287
#     4  10  21  30  48  72 102 132 163 201 240 292
#     4   9  18  33  52  73  96 126 162 201 247 294
#
# _framework density 17.363499999999998
#
# number of rings (size 3 to 8) (size 9 to 14) (size 15 to 20)
#    0.000    2.500    0.000    1.500    8.750    2.250 
#    0.000    1.250    0.000    0.375    0.000    0.000 
#    0.000    0.000    0.000   10.125    0.000    0.000 
#
# Total GULP energy -714169.520967 kJ/mol
# GULP energy per Si atom -5579.449383 kJ/mol
# Density = 1.732398 g / cm^3
# Si number density = 17.363500 Si / 1000 Ang^3
#
#
#
# Elastic Constant Matrix: (Units=GPa)
#
#
# Indices 1 2 3 4 5 6 
#
# 1 61.3616 20.5124 11.8367 0.0000 0.0000 0.0000
# 2 20.5124 61.3616 11.8367 0.0000 0.0000 0.0000
# 3 11.8367 11.8367 31.2861 0.0000 0.0000 0.0000
# 4 0.0000 0.0000 0.0000 14.3785 0.0000 0.0000
# 5 0.0000 0.0000 0.0000 0.0000 14.3785 0.0000
# 6 0.0000 0.0000 0.0000 0.0000 0.0000 23.3858
#
#
#
# Elastic Compliance Matrix: (Units=1/GPa)
#
#
# Indices 1 2 3 4 5 6 
#
# 1 0.019097 -0.005383 -0.005189 0.000000 0.000000 0.000000
# 2 -0.005383 0.019097 -0.005189 0.000000 0.000000 0.000000
# 3 -0.005189 -0.005189 0.035889 0.000000 0.000000 0.000000
# 4 0.000000 0.000000 0.000000 0.069548 0.000000 0.000000
# 5 0.000000 0.000000 0.000000 0.000000 0.069548 0.000000
# 6 0.000000 0.000000 0.000000 0.000000 0.000000 0.042761
#
#
# Mechanical properties :
#
#
# Convention : Reuss Voigt Hill
#
# Bulk Modulus (GPa) = 23.49453 26.93121 25.21287
# Shear Modulus (GPa) = 16.57558 17.75016 17.16287
#
# Velocity S-wave (km/s) = 3.09305 3.20076 3.14737
# Velocity P-wave (km/s) = 5.12994 5.40405 5.26878
#
# Compressibility (1/GPa) = 0.04256311
#
# Stress axis : x y z
#
# Youngs Moduli (GPa) = 52.36367 52.36367 27.86364
#
# Poissons Ratio (x) = 0.28188 0.14457
# Poissons Ratio (y) = 0.28188 0.14457
# Poissons Ratio (z) = 0.27169 0.27169
#
# Static dielectric constant tensor:
#      x y z
#    x 1.596920 0.000000 0.000000 
#    y 0.000000 1.596920 0.000000 
#    z 0.000000 0.000000 1.605210 
# 
# From -- ./inp_files/8679.got.cif
#   From: 2010.05.17/outbox.cif.g08.bks.cpg/sg136_5_cif.got.tgz:8679.got - 2010.05.20 12:54:53.
