data_PCOD9569278
_publ_section_title
;
Structure prediction by ZEFSAII (Michael W. Deem and Ramdas Pophale) SiO2 
 PCOD9569278
Probable space group: P 42/M N M
;
_chemical_formula_sum "Si O2"
_cell_formula_units_Z 88
_cell_length_a 16.286653
_cell_length_b 16.286653
_cell_length_c 21.019593
_cell_angle_alpha 90.000000
_cell_angle_beta 90.000000
_cell_angle_gamma 90.000000
_cell_volume 5575.553527
_symmetry_space_group_name_H-M "P 42/M N M"
_symmetry_group_IT_number 136
_symmetry_cell_setting 'tetragonal'
loop_
_space_group_symop_operation_xyz
x,y,z
1/2-y,1/2+x,1/2+z
-x,-y,z
1/2+y,1/2-x,1/2+z
1/2+x,1/2-y,1/2-z
1/2-x,1/2+y,1/2-z
y,x,-z
-y,-x,-z
-x,-y,-z
1/2+y,1/2-x,1/2-z
x,y,-z
1/2-y,1/2+x,1/2-z
1/2-x,1/2+y,1/2+z
1/2+x,1/2-y,1/2+z
-y,-x,z
y,x,z
loop_
_atom_site_type_symbol
_atom_site_label
_atom_site_fract_x
_atom_site_fract_y
_atom_site_fract_z
Si Si1 0.159239 0.295166 0.210335
Si Si2 0.709814 0.151619 0.925212
Si Si3 0.069883 0.069883 0.924850
Si Si4 0.503635 0.272008 0.349077
Si Si5 0.737303 0.398809 0.151246
Si Si6 0.295391 0.432027 0.790518
O O1 0.219685 0.219685 0.193605
O O2 0.079257 0.288335 0.166722
O O3 0.130707 0.279428 0.282727
O O4 0.213371 0.376648 0.207047
O O5 0.784594 0.215407 0.911579
O O6 0.628085 0.199008 0.902930
O O7 0.727749 0.069954 0.885795
O O8 0.709165 0.134822 0.000000
O O9 0.151285 0.036715 0.889901
O O10 0.084841 0.084841 0.000000
O O11 0.000000 0.000000 0.919977
O O12 0.469664 0.302577 0.280600
O O13 0.655653 0.344348 0.143050
O O14 0.713966 0.493050 0.160767
O O15 0.372121 0.372121 0.802461
#
# Coordination Sequence:
#
# PCOD9569278 Si02
#       6
#    16  16   8  16  16  16
#     4   9  17  32  49  71 101 136 169 210 254 304
#     4  10  19  33  54  76 104 140 172 205 250 311
#     4  11  22  32  46  78 118 146 172 206 249 314
#     4  11  19  32  51  75 106 141 175 210 254 311
#     4   9  18  32  49  75 103 128 167 211 260 306
#     4  10  19  31  53  76 101 132 169 218 266 306
#
# _framework density 15.783186000000001
#
# number of rings (size 3 to 8) (size 9 to 14) (size 15 to 20)
#    0.000    2.091    2.727    2.182    1.273    1.818 
#    0.000    0.909    0.000    3.818    0.000    2.545 
#    0.000    0.000    0.000    0.000    0.000    0.000 
#
# Total GULP energy -490705.092726 kJ/mol
# GULP energy per Si atom -5576.194236 kJ/mol
# Density = 1.574726 g / cm^3
# Si number density = 15.783186 Si / 1000 Ang^3
#
#
#
# Elastic Constant Matrix: (Units=GPa)
#
#
# Indices 1 2 3 4 5 6 
#
# 1 75.4356 26.5754 18.9728 0.0000 0.0000 0.0000
# 2 26.5754 75.4356 18.9728 0.0000 0.0000 0.0000
# 3 18.9728 18.9728 47.5843 0.0000 0.0000 0.0000
# 4 0.0000 0.0000 0.0000 23.5061 0.0000 0.0000
# 5 0.0000 0.0000 0.0000 0.0000 23.5061 0.0000
# 6 0.0000 0.0000 0.0000 0.0000 0.0000 16.6222
#
#
#
# Elastic Compliance Matrix: (Units=1/GPa)
#
#
# Indices 1 2 3 4 5 6 
#
# 1 0.015988 -0.004478 -0.004589 0.000000 0.000000 0.000000
# 2 -0.004478 0.015988 -0.004589 0.000000 0.000000 0.000000
# 3 -0.004589 -0.004589 0.024675 0.000000 0.000000 0.000000
# 4 0.000000 0.000000 0.000000 0.042542 0.000000 0.000000
# 5 0.000000 0.000000 0.000000 0.000000 0.042542 0.000000
# 6 0.000000 0.000000 0.000000 0.000000 0.000000 0.060161
#
#
# Mechanical properties :
#
#
# Convention : Reuss Voigt Hill
#
# Bulk Modulus (GPa) = 34.08559 36.38860 35.23710
# Shear Modulus (GPa) = 20.92144 21.65584 21.28864
#
# Velocity S-wave (km/s) = 3.64476 3.70818 3.67661
# Velocity P-wave (km/s) = 6.27339 6.43735 6.35590
#
# Compressibility (1/GPa) = 0.02933791
#
# Stress axis : x y z
#
# Youngs Moduli (GPa) = 62.54595 62.54595 40.52684
#
# Poissons Ratio (x) = 0.28010 0.18599
# Poissons Ratio (y) = 0.28010 0.18599
# Poissons Ratio (z) = 0.28704 0.28704
#
# Static dielectric constant tensor:
#      x y z
#    x 1.521100 0.000000 0.000000 
#    y 0.000000 1.521100 0.000000 
#    z 0.000000 0.000000 1.515510 
# 
# From -- ./inp_files/7363.got.cif
#   From: 2010.05.17/outbox.cif.g08.bks.cpg/sg136_4_cif.got.tgz:7363.got - 2010.05.20 12:54:53.
