data_PCOD9569682
_publ_section_title
;
Structure prediction by ZEFSAII (Michael W. Deem and Ramdas Pophale) SiO2 
 PCOD9569682
Probable space group: P 42/M N M
;
_chemical_formula_sum "Si O2"
_cell_formula_units_Z 40
_cell_length_a 8.954812
_cell_length_b 8.954812
_cell_length_c 19.753703
_cell_angle_alpha 90.000000
_cell_angle_beta 90.000000
_cell_angle_gamma 90.000000
_cell_volume 1584.022933
_symmetry_space_group_name_H-M "P 42/M N M"
_symmetry_group_IT_number 136
_symmetry_cell_setting 'tetragonal'
loop_
_space_group_symop_operation_xyz
x,y,z
1/2-y,1/2+x,1/2+z
-x,-y,z
1/2+y,1/2-x,1/2+z
1/2+x,1/2-y,1/2-z
1/2-x,1/2+y,1/2-z
y,x,-z
-y,-x,-z
-x,-y,-z
1/2+y,1/2-x,1/2-z
x,y,-z
1/2-y,1/2+x,1/2-z
1/2-x,1/2+y,1/2+z
1/2+x,1/2-y,1/2+z
-y,-x,z
y,x,z
loop_
_atom_site_type_symbol
_atom_site_label
_atom_site_fract_x
_atom_site_fract_y
_atom_site_fract_z
Si Si1 0.539876 0.220573 0.777394
Si Si2 0.448398 0.807144 0.073963
Si Si3 0.992414 0.752591 0.000000
O O1 0.408013 0.166905 0.728867
O O2 0.623671 0.376330 0.764571
O O3 0.476708 0.211283 0.853823
O O4 0.325441 0.674560 0.075714
O O5 0.525040 0.789408 0.000000
O O6 0.351288 0.959689 0.063685
O O7 0.116804 0.883197 0.000000
O O8 0.838708 0.838708 0.000000
#
# Coordination Sequence:
#
# PCOD9569682 Si02
#       3
#    16  16   8
#     4  10  21  37  56  81 113 147 184 227 278 336
#     4   7  13  27  48  71  98 139 180 219 268 316
#     4   7  10  18  38  69  95 119 166 221 259 298
#
# _framework density 25.252158000000001
#
# number of rings (size 3 to 8) (size 9 to 14) (size 15 to 20)
#    1.200    2.600    0.000    0.000    0.000    2.400 
#    0.000    8.000    0.000    3.600    0.000    5.600 
#    0.000    0.000    0.000    0.000    0.000    0.000 
#
# Total GULP energy -222960.682255 kJ/mol
# GULP energy per Si atom -5574.017056 kJ/mol
# Density = 2.519468 g / cm^3
# Si number density = 25.252158 Si / 1000 Ang^3
#
#
#
# Elastic Constant Matrix: (Units=GPa)
#
#
# Indices 1 2 3 4 5 6 
#
# 1 85.0789 53.9140 9.6184 0.0000 0.0000 0.0000
# 2 53.9140 85.0792 9.6184 0.0000 0.0000 0.0000
# 3 9.6184 9.6184 125.2647 0.0000 0.0000 0.0000
# 4 0.0000 0.0000 0.0000 -6.1790 0.0000 0.0000
# 5 0.0000 0.0000 0.0000 0.0000 -6.1784 0.0000
# 6 0.0000 0.0000 0.0000 0.0000 0.0000 50.5191
#
#
#
# Elastic Compliance Matrix: (Units=1/GPa)
#
#
# Indices 1 2 3 4 5 6 
#
# 1 0.019680 -0.012408 -0.000558 0.000000 0.000000 0.000000
# 2 -0.012408 0.019680 -0.000558 0.000000 0.000000 0.000000
# 3 -0.000558 -0.000558 0.008069 0.000000 0.000000 0.000000
# 4 0.000000 0.000000 0.000000 -0.161838 0.000000 0.000000
# 5 0.000000 0.000000 0.000000 0.000000 -0.161855 0.000000
# 6 0.000000 0.000000 0.000000 0.000000 0.000000 0.019795
#
#
# Mechanical properties :
#
#
# Convention : Reuss Voigt Hill
#
# Bulk Modulus (GPa) = 49.06978 49.08047 49.07513
# Shear Modulus (GPa) = -22.45890 22.45047 -0.00422
#
# Velocity S-wave (km/s) = -2.98549 2.98493 -0.04092
# Velocity P-wave (km/s) = 2.75497 5.59983 4.41293
#
# Compressibility (1/GPa) = 0.02037914
#
# Stress axis : x y z
#
# Youngs Moduli (GPa) = 50.81405 50.81424 123.93347
#
# Poissons Ratio (x) = 0.63049 0.06920
# Poissons Ratio (y) = 0.63048 0.06920
# Poissons Ratio (z) = 0.02837 0.02837
#
# Static dielectric constant tensor:
#      x y z
#    x 2.073150 0.000000 0.000000 
#    y 0.000000 2.073150 0.000000 
#    z 0.000000 0.000000 1.944800 
# 
# From -- ./inp_files/6776.got.cif
#   From: 2010.05.17/outbox.cif.g08.bks.cpg/sg136_4_cif.got.tgz:6776.got - 2010.05.20 12:54:53.
