data_PCOD9569388
_publ_section_title
;
Structure prediction by ZEFSAII (Michael W. Deem and Ramdas Pophale) SiO2 
 PCOD9569388
Probable space group: P 42/M N M
;
_chemical_formula_sum "Si O2"
_cell_formula_units_Z 72
_cell_length_a 13.208899
_cell_length_b 13.208899
_cell_length_c 19.896376
_cell_angle_alpha 90.000000
_cell_angle_beta 90.000000
_cell_angle_gamma 90.000000
_cell_volume 3471.420457
_symmetry_space_group_name_H-M "P 42/M N M"
_symmetry_group_IT_number 136
_symmetry_cell_setting 'tetragonal'
loop_
_space_group_symop_operation_xyz
x,y,z
1/2-y,1/2+x,1/2+z
-x,-y,z
1/2+y,1/2-x,1/2+z
1/2+x,1/2-y,1/2-z
1/2-x,1/2+y,1/2-z
y,x,-z
-y,-x,-z
-x,-y,-z
1/2+y,1/2-x,1/2-z
x,y,-z
1/2-y,1/2+x,1/2-z
1/2-x,1/2+y,1/2+z
1/2+x,1/2-y,1/2+z
-y,-x,z
y,x,z
loop_
_atom_site_type_symbol
_atom_site_label
_atom_site_fract_x
_atom_site_fract_y
_atom_site_fract_z
Si Si1 0.033369 0.684114 0.422501
Si Si2 0.750697 0.923893 0.925321
Si Si3 0.467575 0.852473 0.216333
Si Si4 0.994194 0.163778 0.204701
Si Si5 0.081384 0.918617 0.418995
O O1 0.996872 0.678578 0.500000
O O2 0.139603 0.624354 0.419329
O O3 0.963681 0.638493 0.363904
O O4 0.055079 0.801810 0.404090
O O5 0.830604 0.830604 0.920953
O O6 0.776216 0.000391 0.865664
O O7 0.761304 0.968569 0.000000
O O8 0.389879 0.923114 0.256031
O O9 0.462582 0.737555 0.239059
O O10 0.885400 0.114601 0.219417
O O11 0.072538 0.072538 0.197574
O O12 0.075622 0.924379 0.500000
O O13 0.000000 0.000000 0.390934
#
# Coordination Sequence:
#
# PCOD9569388 Si02
#       5
#    16  16  16  16   8
#     4  10  19  35  59  84 116 159 201 243 294 356
#     4   9  16  31  57  87 117 154 200 243 293 355
#     4  11  24  41  59  85 122 157 199 246 299 359
#     4  10  22  38  59  89 120 155 198 246 304 358
#     4   9  18  32  56  92 125 155 200 254 298 347
#
# _framework density 20.740790000000001
#
# number of rings (size 3 to 8) (size 9 to 14) (size 15 to 20)
#    0.000    2.111    3.333    0.000    1.556    2.222 
#    0.000    5.556    0.000    0.000    0.000    0.000 
#    0.000    0.000    0.000    0.000    0.000    0.000 
#
# Total GULP energy -401770.139718 kJ/mol
# GULP energy per Si atom -5580.140829 kJ/mol
# Density = 2.069358 g / cm^3
# Si number density = 20.740790 Si / 1000 Ang^3
#
#
#
# Elastic Constant Matrix: (Units=GPa)
#
#
# Indices 1 2 3 4 5 6 
#
# 1 23.2895 25.2384 5.8757 0.0000 0.0000 0.0000
# 2 25.2384 23.2895 5.8756 0.0000 0.0000 0.0000
# 3 5.8757 5.8756 114.9854 0.0000 0.0000 0.0000
# 4 0.0000 0.0000 0.0000 19.2070 0.0000 0.0000
# 5 0.0000 0.0000 0.0000 0.0000 19.2069 0.0000
# 6 0.0000 0.0000 0.0000 0.0000 0.0000 9.0159
#
#
#
# Elastic Compliance Matrix: (Units=1/GPa)
#
#
# Indices 1 2 3 4 5 6 
#
# 1 -0.246124 0.266989 -0.001066 0.000000 0.000000 0.000000
# 2 0.266989 -0.246124 -0.001067 0.000000 0.000000 0.000000
# 3 -0.001066 -0.001067 0.008806 0.000000 0.000000 0.000000
# 4 0.000000 0.000000 0.000000 0.052064 0.000000 0.000000
# 5 0.000000 0.000000 0.000000 0.000000 0.052065 0.000000
# 6 0.000000 0.000000 0.000000 0.000000 0.000000 0.110915
#
#
# Mechanical properties :
#
#
# Convention : Reuss Voigt Hill
#
# Bulk Modulus (GPa) = 21.61192 26.17153 23.89173
# Shear Modulus (GPa) = -6.38824 17.79094 5.70135
#
# Velocity S-wave (km/s) = -1.75691 2.93196 1.65977
# Velocity P-wave (km/s) = 2.51535 4.90995 3.90094
#
# Compressibility (1/GPa) = 0.04627075
#
# Stress axis : x y z
#
# Youngs Moduli (GPa) = -4.06299 -4.06299 113.56255
#
# Poissons Ratio (x) = 1.08477 0.12103
# Poissons Ratio (y) = 1.08477 0.12112
# Poissons Ratio (z) = -0.00433 -0.00433
#
# Static dielectric constant tensor:
#      x y z
#    x 1.742460 0.000000 0.000000 
#    y 0.000000 1.742460 0.000000 
#    z 0.000000 0.000000 1.791930 
# 
# From -- ./inp_files/6056.got.cif
#   From: 2010.05.17/outbox.cif.g08.bks.cpg/sg136_4_cif.got.tgz:6056.got - 2010.05.20 12:54:53.
