data_PCOD9569553
_publ_section_title
;
Structure prediction by ZEFSAII (Michael W. Deem and Ramdas Pophale) SiO2 
 PCOD9569553
Probable space group: P 42/M N M
;
_chemical_formula_sum "Si O2"
_cell_formula_units_Z 120
_cell_length_a 20.036455
_cell_length_b 20.036455
_cell_length_c 16.580115
_cell_angle_alpha 90.000000
_cell_angle_beta 90.000000
_cell_angle_gamma 90.000000
_cell_volume 6656.245158
_symmetry_space_group_name_H-M "P 42/M N M"
_symmetry_group_IT_number 136
_symmetry_cell_setting 'tetragonal'
loop_
_space_group_symop_operation_xyz
x,y,z
1/2-y,1/2+x,1/2+z
-x,-y,z
1/2+y,1/2-x,1/2+z
1/2+x,1/2-y,1/2-z
1/2-x,1/2+y,1/2-z
y,x,-z
-y,-x,-z
-x,-y,-z
1/2+y,1/2-x,1/2-z
x,y,-z
1/2-y,1/2+x,1/2-z
1/2-x,1/2+y,1/2+z
1/2+x,1/2-y,1/2+z
-y,-x,z
y,x,z
loop_
_atom_site_type_symbol
_atom_site_label
_atom_site_fract_x
_atom_site_fract_y
_atom_site_fract_z
Si Si1 0.425567 0.312701 0.363506
Si Si2 0.068502 0.340735 0.212828
Si Si3 0.332012 0.909164 0.404060
Si Si4 0.608302 0.504378 0.907915
Si Si5 0.888416 0.997569 0.000000
Si Si6 0.770523 0.005621 0.698412
Si Si7 0.469430 0.926218 0.860892
Si Si8 0.328140 0.949390 0.087183
O O1 0.363811 0.363811 0.363840
O O2 0.482634 0.343839 0.422305
O O3 0.456635 0.300376 0.275991
O O4 0.407289 0.238322 0.394937
O O5 0.133071 0.354563 0.156569
O O6 0.052684 0.403096 0.271196
O O7 0.054832 0.277376 0.271474
O O8 0.007350 0.333040 0.152039
O O9 0.323224 0.891452 0.500000
O O10 0.268272 0.939921 0.357152
O O11 0.381931 0.972068 0.398105
O O12 0.551374 0.448627 0.908683
O O13 0.572369 0.572369 0.878293
O O14 0.668428 0.480773 0.854037
O O15 0.629932 0.515768 0.000000
O O16 0.948317 0.051684 0.000000
O O17 0.925489 0.925489 0.000000
O O18 0.400245 0.915901 0.908411
O O19 0.500000 0.000000 0.864054
O O20 0.319578 0.980854 0.000000
#
# Coordination Sequence:
#
# PCOD9569553 Si02
#       8
#    16  16  16  16   8  16  16  16
#     4  10  20  36  55  80 115 149 187 236 290 350
#     4  10  21  32  49  75 112 151 191 235 284 340
#     4  11  22  34  52  79 114 156 199 245 295 344
#     4   9  18  35  62  94 121 145 183 242 308 367
#     4   9  18  34  58  86 115 144 178 230 291 350
#     4  10  21  35  56  85 118 155 196 243 300 360
#     4  11  21  32  51  77 112 148 186 241 291 332
#     4  11  21  31  50  78 108 142 185 229 283 341
#
# _framework density 18.028182000000001
#
# number of rings (size 3 to 8) (size 9 to 14) (size 15 to 20)
#    0.000    1.800    2.000    4.400    1.867    1.067 
#    0.000    1.333    0.000    8.000    0.000    0.000 
#    0.000    0.000    0.000    0.000    0.000    0.000 
#
# Total GULP energy -668034.068210 kJ/mol
# GULP energy per Si atom -5566.950568 kJ/mol
# Density = 1.798715 g / cm^3
# Si number density = 18.028182 Si / 1000 Ang^3
#
#
#
# Elastic Constant Matrix: (Units=GPa)
#
#
# Indices 1 2 3 4 5 6 
#
# 1 79.8475 22.4966 35.2198 0.0000 0.0000 0.0000
# 2 22.4966 79.8475 35.2199 0.0000 0.0000 0.0000
# 3 35.2198 35.2199 118.2798 0.0000 0.0000 0.0000
# 4 0.0000 0.0000 0.0000 27.8436 0.0000 0.0000
# 5 0.0000 0.0000 0.0000 0.0000 27.8437 0.0000
# 6 0.0000 0.0000 0.0000 0.0000 0.0000 14.2734
#
#
#
# Elastic Compliance Matrix: (Units=1/GPa)
#
#
# Indices 1 2 3 4 5 6 
#
# 1 0.014863 -0.002573 -0.003659 0.000000 0.000000 0.000000
# 2 -0.002573 0.014863 -0.003659 0.000000 0.000000 0.000000
# 3 -0.003659 -0.003659 0.010634 0.000000 0.000000 0.000000
# 4 0.000000 0.000000 0.000000 0.035915 0.000000 0.000000
# 5 0.000000 0.000000 0.000000 0.000000 0.035915 0.000000
# 6 0.000000 0.000000 0.000000 0.000000 0.000000 0.070060
#
#
# Mechanical properties :
#
#
# Convention : Reuss Voigt Hill
#
# Bulk Modulus (GPa) = 48.60194 51.53860 50.07027
# Shear Modulus (GPa) = 23.93568 26.32803 25.13186
#
# Velocity S-wave (km/s) = 3.64769 3.82564 3.73772
# Velocity P-wave (km/s) = 6.69016 6.94002 6.81624
#
# Compressibility (1/GPa) = 0.02057531
#
# Stress axis : x y z
#
# Youngs Moduli (GPa) = 67.28084 67.28082 94.03927
#
# Poissons Ratio (x) = 0.17314 0.34413
# Poissons Ratio (y) = 0.17314 0.34413
# Poissons Ratio (z) = 0.24621 0.24621
#
# Static dielectric constant tensor:
#      x y z
#    x 1.640410 0.000000 0.000000 
#    y 0.000000 1.640410 0.000000 
#    z 0.000000 0.000000 1.764390 
# 
# From -- ./inp_files/5333.got.cif
#   From: 2010.05.17/outbox.cif.g08.bks.cpg/sg136_3_cif.got.tgz:5333.got - 2010.05.20 12:54:53.
