data_PCOD9569147
_publ_section_title
;
Structure prediction by ZEFSAII (Michael W. Deem and Ramdas Pophale) SiO2 
 PCOD9569147
Probable space group: P 42/M N M
;
_chemical_formula_sum "Si O2"
_cell_formula_units_Z 104
_cell_length_a 26.921415
_cell_length_b 26.921415
_cell_length_c 9.052871
_cell_angle_alpha 90.000000
_cell_angle_beta 90.000000
_cell_angle_gamma 90.000000
_cell_volume 6561.182193
_symmetry_space_group_name_H-M "P 42/M N M"
_symmetry_group_IT_number 136
_symmetry_cell_setting 'tetragonal'
loop_
_space_group_symop_operation_xyz
x,y,z
1/2-y,1/2+x,1/2+z
-x,-y,z
1/2+y,1/2-x,1/2+z
1/2+x,1/2-y,1/2-z
1/2-x,1/2+y,1/2-z
y,x,-z
-y,-x,-z
-x,-y,-z
1/2+y,1/2-x,1/2-z
x,y,-z
1/2-y,1/2+x,1/2-z
1/2-x,1/2+y,1/2+z
1/2+x,1/2-y,1/2+z
-y,-x,z
y,x,z
loop_
_atom_site_type_symbol
_atom_site_label
_atom_site_fract_x
_atom_site_fract_y
_atom_site_fract_z
Si Si1 0.142561 0.456759 0.823545
Si Si2 0.122342 0.571974 0.825608
Si Si3 0.827665 0.910261 0.826796
Si Si4 0.541257 0.541257 0.820374
Si Si5 0.279731 0.084951 0.831497
Si Si6 0.533183 0.754823 0.671031
Si Si7 0.013855 0.846071 0.676432
O O1 0.126475 0.513473 0.786625
O O2 0.101273 0.419878 0.761013
O O3 0.196663 0.445649 0.753279
O O4 0.146265 0.453402 0.000000
O O5 0.175571 0.594142 0.778680
O O6 0.114054 0.576190 0.000000
O O7 0.868533 0.868533 0.810208
O O8 0.772575 0.889706 0.796375
O O9 0.840023 0.956544 0.723621
O O10 0.827306 0.926912 0.000000
O O11 0.500000 0.500000 0.770613
O O12 0.529315 0.598144 0.776420
O O13 0.539838 0.539838 0.000000
O O14 0.265254 0.026389 0.825341
O O15 0.295158 0.095992 0.000000
O O16 0.548512 0.753438 0.500000
O O17 0.540840 0.701265 0.747680
O O18 0.019503 0.842285 0.500000
#
# Coordination Sequence:
#
# PCOD9569147 Si02
#       7
#    16  16  16   8  16  16  16
#     4  10  20  33  50  72  97 126 159 192 231 281
#     4  10  20  32  47  69  96 125 157 193 232 276
#     4   9  17  29  45  67  94 123 155 194 241 289
#     4   9  18  30  43  65  99 135 165 197 239 285
#     4   8  15  28  45  64  89 120 151 187 230 278
#     4   9  17  31  49  68  91 119 155 197 237 274
#     4  10  18  29  46  67  93 126 164 200 235 280
#
# _framework density 15.850803000000001
#
# number of rings (size 3 to 8) (size 9 to 14) (size 15 to 20)
#    0.000    2.692    0.000    3.231    0.000    6.769 
#    0.000    3.077    0.000    2.769    2.000    0.000 
#    0.000    0.000    0.000    0.000    0.000    0.000 
#
# Total GULP energy -579123.345459 kJ/mol
# GULP energy per Si atom -5568.493706 kJ/mol
# Density = 1.581473 g / cm^3
# Si number density = 15.850803 Si / 1000 Ang^3
#
#
#
# Elastic Constant Matrix: (Units=GPa)
#
#
# Indices 1 2 3 4 5 6 
#
# 1 81.5993 48.7555 45.1509 0.0000 0.0000 0.0000
# 2 48.7555 81.5993 45.1509 0.0000 0.0000 0.0000
# 3 45.1509 45.1509 61.2067 0.0000 0.0000 0.0000
# 4 0.0000 0.0000 0.0000 22.7249 0.0000 0.0000
# 5 0.0000 0.0000 0.0000 0.0000 22.7249 0.0000
# 6 0.0000 0.0000 0.0000 0.0000 0.0000 7.1865
#
#
#
# Elastic Compliance Matrix: (Units=1/GPa)
#
#
# Indices 1 2 3 4 5 6 
#
# 1 0.023068 -0.007379 -0.011573 0.000000 0.000000 0.000000
# 2 -0.007379 0.023068 -0.011573 0.000000 0.000000 0.000000
# 3 -0.011573 -0.011573 0.033412 0.000000 0.000000 0.000000
# 4 0.000000 0.000000 0.000000 0.044005 0.000000 0.000000
# 5 0.000000 0.000000 0.000000 0.000000 0.044005 0.000000
# 6 0.000000 0.000000 0.000000 0.000000 0.000000 0.139149
#
#
# Mechanical properties :
#
#
# Convention : Reuss Voigt Hill
#
# Bulk Modulus (GPa) = 54.06224 55.83555 54.94890
# Shear Modulus (GPa) = 13.37175 16.21714 14.79444
#
# Velocity S-wave (km/s) = 2.90763 3.20208 3.05840
# Velocity P-wave (km/s) = 6.74191 6.99809 6.87120
#
# Compressibility (1/GPa) = 0.01849720
#
# Stress axis : x y z
#
# Youngs Moduli (GPa) = 43.35053 43.35053 29.92901
#
# Poissons Ratio (x) = 0.31990 0.34637
# Poissons Ratio (y) = 0.31990 0.34637
# Poissons Ratio (z) = 0.50170 0.50170
#
# Static dielectric constant tensor:
#      x y z
#    x 1.532840 0.000000 0.000000 
#    y 0.000000 1.532840 0.000000 
#    z 0.000000 0.000000 1.540490 
# 
# From -- ./inp_files/2209.got.cif
#   From: 2010.05.17/outbox.cif.g08.bks.cpg/sg136_2_cif.got.tgz:2209.got - 2010.05.20 12:54:53.
