data_PCOD9569083
_publ_section_title
;
Structure prediction by ZEFSAII (Michael W. Deem and Ramdas Pophale) SiO2 
 PCOD9569083
Probable space group: P 42/M B C
;
_chemical_formula_sum "Si O2"
_cell_formula_units_Z 92
_cell_length_a 15.000000
_cell_length_b 15.000000
_cell_length_c 21.000000
_cell_angle_alpha 90.000000
_cell_angle_beta 90.000000
_cell_angle_gamma 90.000000
_cell_volume 4725.000000
_symmetry_space_group_name_H-M "P 42/M B C"
_symmetry_group_IT_number 135
_symmetry_cell_setting 'tetragonal'
loop_
_space_group_symop_operation_xyz
x,y,z
-y,x,1/2+z
-x,-y,z
y,-x,1/2+z
1/2+x,1/2-y,-z
1/2-x,1/2+y,-z
1/2+y,1/2+x,1/2-z
1/2-y,1/2-x,1/2-z
-x,-y,-z
y,-x,1/2-z
x,y,-z
-y,x,1/2-z
1/2-x,1/2+y,z
1/2+x,1/2-y,z
1/2-y,1/2-x,1/2+z
1/2+y,1/2+x,1/2+z
loop_
_atom_site_type_symbol
_atom_site_label
_atom_site_fract_x
_atom_site_fract_y
_atom_site_fract_z
Si Si1 0.295224 0.514851 0.370679
Si Si2 0.786854 0.393727 0.000000
Si Si3 0.772697 0.165856 0.867926
Si Si4 0.000000 0.000000 0.750000
Si Si5 0.491484 0.703675 0.722849
Si Si6 0.010495 0.679136 0.000000
Si Si7 0.815852 0.849799 0.129854
Si Si8 0.897134 0.685460 0.500000
O O1 0.324911 0.619194 0.374846
O O2 0.266140 0.503673 0.296136
O O3 0.232672 0.503928 0.432885
O O4 0.355747 0.424081 0.376110
O O5 0.731889 0.364440 0.062161
O O6 0.793163 0.499353 0.000000
O O7 0.888964 0.359572 0.000000
O O8 0.754932 0.090411 0.815395
O O9 0.720443 0.254517 0.847553
O O10 0.730917 0.142547 0.936701
O O11 0.095871 0.976393 0.780033
O O12 0.579057 0.717568 0.680998
O O13 0.921299 0.618558 0.000000
#
# Coordination Sequence:
#
# PCOD9569083 Si02
#       8
#    16   8  16   4  16   8  16   8
#     4  12  24  41  70 100 137 180 222 287 346 410
#     4  12  25  46  73  99 133 184 239 288 347 404
#     4  12  24  45  70 102 140 182 232 282 342 420
#     4  12  20  44  60  98 148 172 212 286 352 408
#     4  12  24  41  69 101 139 185 219 280 355 409
#     4  12  25  48  66  97 138 180 238 287 344 401
#     4  12  24  45  70 102 140 182 232 282 342 420
#     4  12  25  46  73  99 133 184 239 288 347 404
#
# _framework density 19.470898999999999
#
# number of rings (size 3 to 8) (size 9 to 14) (size 15 to 20)
#    0.000    0.000    8.696    1.826    0.000    2.783 
#    0.000    0.870    0.000    0.000    4.522    0.000 
#    0.000    0.000    0.000    0.000    0.000    0.000 
#
# Total GULP energy -513022.728879 kJ/mol
# GULP energy per Si atom -5576.334010 kJ/mol
# Density = 1.942658 g / cm^3
# Si number density = 19.470899 Si / 1000 Ang^3
#
#
#
# Elastic Constant Matrix: (Units=GPa)
#
#
# Indices 1 2 3 4 5 6 
#
# 1 78.3010 -21.5015 19.4196 0.0000 0.0000 0.0000
# 2 -21.5015 78.3010 19.4196 0.0000 0.0000 0.0000
# 3 19.4196 19.4196 135.9374 0.0000 0.0000 0.0000
# 4 0.0000 0.0000 0.0000 145.5965 0.0000 0.0000
# 5 0.0000 0.0000 0.0000 0.0000 145.5965 0.0000
# 6 0.0000 0.0000 0.0000 0.0000 0.0000 26.4402
#
#
#
# Elastic Compliance Matrix: (Units=1/GPa)
#
#
# Indices 1 2 3 4 5 6 
#
# 1 0.014766 0.004746 -0.002787 0.000000 0.000000 0.000000
# 2 0.004746 0.014766 -0.002787 0.000000 0.000000 0.000000
# 3 -0.002787 -0.002787 0.008153 0.000000 0.000000 0.000000
# 4 0.000000 0.000000 0.000000 0.006868 0.000000 0.000000
# 5 0.000000 0.000000 0.000000 0.000000 0.006868 0.000000
# 6 0.000000 0.000000 0.000000 0.000000 0.000000 0.037821
#
#
# Mechanical properties :
#
#
# Convention : Reuss Voigt Hill
#
# Bulk Modulus (GPa) = 27.75713 36.35718 32.05715
# Shear Modulus (GPa) = 48.58682 81.87341 65.23012
#
# Velocity S-wave (km/s) = 5.00077 6.49156 5.79431
# Velocity P-wave (km/s) = 6.90147 8.65450 7.82722
#
# Compressibility (1/GPa) = 0.03602678
#
# Stress axis : x y z
#
# Youngs Moduli (GPa) = 67.72403 67.72403 122.65832
#
# Poissons Ratio (x) = -0.32142 0.34190
# Poissons Ratio (y) = -0.32142 0.34190
# Poissons Ratio (z) = 0.18877 0.18877
#
# Static dielectric constant tensor:
#      x y z
#    x 1.696550 0.000000 0.000000 
#    y 0.000000 1.696550 0.000000 
#    z 0.000000 0.000000 1.689780 
# 
# From -- ./inp_files/5524.got.cif
#   From: 2010.05.17/outbox.ucp.g08.bks.cvg/sg135_3_cif.got.tgz:5524.got - 2010.06.11 11:40:18.
