data_PCOD9569394
_publ_section_title
;
Structure prediction by ZEFSAII (Michael W. Deem and Ramdas Pophale) SiO2 
 PCOD9569394
Probable space group: P 42/M N M
;
_chemical_formula_sum "Si O2"
_cell_formula_units_Z 80
_cell_length_a 12.071530
_cell_length_b 12.071530
_cell_length_c 28.288081
_cell_angle_alpha 90.000000
_cell_angle_beta 90.000000
_cell_angle_gamma 90.000000
_cell_volume 4122.191116
_symmetry_space_group_name_H-M "P 42/M N M"
_symmetry_group_IT_number 136
_symmetry_cell_setting 'tetragonal'
loop_
_space_group_symop_operation_xyz
x,y,z
1/2-y,1/2+x,1/2+z
-x,-y,z
1/2+y,1/2-x,1/2+z
1/2+x,1/2-y,1/2-z
1/2-x,1/2+y,1/2-z
y,x,-z
-y,-x,-z
-x,-y,-z
1/2+y,1/2-x,1/2-z
x,y,-z
1/2-y,1/2+x,1/2-z
1/2-x,1/2+y,1/2+z
1/2+x,1/2-y,1/2+z
-y,-x,z
y,x,z
loop_
_atom_site_type_symbol
_atom_site_label
_atom_site_fract_x
_atom_site_fract_y
_atom_site_fract_z
Si Si1 0.518714 0.176533 0.850886
Si Si2 0.993611 0.819973 0.088403
Si Si3 0.515379 0.179833 0.677802
Si Si4 0.178782 0.996101 0.734210
Si Si5 0.402387 0.090975 0.447419
O O1 0.405269 0.108869 0.840556
O O2 0.508491 0.285926 0.820164
O O3 0.552246 0.180413 0.905899
O O4 0.615906 0.099587 0.829799
O O5 0.879507 0.879507 0.072245
O O6 0.981332 0.785087 0.143216
O O7 0.037635 0.708161 0.063639
O O8 0.088998 0.911003 0.083165
O O9 0.520476 0.218255 0.731602
O O10 0.086734 0.086734 0.745324
O O11 0.123902 0.876099 0.742935
O O12 0.354144 0.094335 0.500000
O O13 0.500000 0.000000 0.445956
#
# Coordination Sequence:
#
# PCOD9569394 Si02
#       5
#    16  16  16  16  16
#     4  10  20  37  57  86 109 147 195 245 285 342
#     4  10  20  34  57  91 126 154 187 242 308 362
#     4  10  19  36  57  85 114 152 191 231 285 353
#     4  11  24  37  52  80 118 155 191 235 287 348
#     4  10  20  40  62  82 112 153 198 242 288 350
#
# _framework density 19.407154999999999
#
# number of rings (size 3 to 8) (size 9 to 14) (size 15 to 20)
#    0.000    1.800    4.000    2.400    0.000   11.200 
#    0.000    1.000    0.000    0.600    0.000    1.400 
#    0.000    0.000    0.000    0.000    0.000    0.000 
#
# Total GULP energy -446155.597112 kJ/mol
# GULP energy per Si atom -5576.944964 kJ/mol
# Density = 1.936298 g / cm^3
# Si number density = 19.407155 Si / 1000 Ang^3
#
#
#
# Elastic Constant Matrix: (Units=GPa)
#
#
# Indices 1 2 3 4 5 6 
#
# 1 66.6025 23.6533 25.0116 0.0000 0.0000 0.0000
# 2 23.6533 66.6025 25.0116 0.0000 0.0000 0.0000
# 3 25.0116 25.0116 147.3410 0.0000 0.0000 0.0000
# 4 0.0000 0.0000 0.0000 7.9179 0.0000 0.0000
# 5 0.0000 0.0000 0.0000 0.0000 7.9179 0.0000
# 6 0.0000 0.0000 0.0000 0.0000 0.0000 -2.2017
#
#
#
# Elastic Compliance Matrix: (Units=1/GPa)
#
#
# Indices 1 2 3 4 5 6 
#
# 1 0.017757 -0.005526 -0.002076 0.000000 0.000000 0.000000
# 2 -0.005526 0.017757 -0.002076 0.000000 0.000000 0.000000
# 3 -0.002076 -0.002076 0.007492 0.000000 0.000000 0.000000
# 4 0.000000 0.000000 0.000000 0.126296 0.000000 0.000000
# 5 0.000000 0.000000 0.000000 0.000000 0.126296 0.000000
# 6 0.000000 0.000000 0.000000 0.000000 0.000000 -0.454197
#
#
# Mechanical properties :
#
#
# Convention : Reuss Voigt Hill
#
# Bulk Modulus (GPa) = 42.28704 47.54432 44.91568
# Shear Modulus (GPa) = -38.06359 16.51812 -10.77274
#
# Velocity S-wave (km/s) = -4.43348 2.92059 -2.35859
# Velocity P-wave (km/s) = 2.09068 5.99372 3.97201
#
# Compressibility (1/GPa) = 0.02364791
#
# Stress axis : x y z
#
# Youngs Moduli (GPa) = 56.31648 56.31648 133.47862
#
# Poissons Ratio (x) = 0.31123 0.27712
# Poissons Ratio (y) = 0.31123 0.27712
# Poissons Ratio (z) = 0.11692 0.11692
#
# Static dielectric constant tensor:
#      x y z
#    x 1.678790 0.000000 0.000000 
#    y 0.000000 1.678790 0.000000 
#    z 0.000000 0.000000 1.719860 
# 
# From -- ./inp_files/9534.got.cif
#   From: 2010.05.17/outbox.cif.g08.bks.cpg/sg136_5_cif.got.tgz:9534.got - 2010.05.20 12:54:53.
