data_PCOD9569633
_publ_section_title
;
Structure prediction by ZEFSAII (Michael W. Deem and Ramdas Pophale) SiO2 
 PCOD9569633
Probable space group: P 42/M N M
;
_chemical_formula_sum "Si O2"
_cell_formula_units_Z 64
_cell_length_a 12.105071
_cell_length_b 12.105071
_cell_length_c 21.981833
_cell_angle_alpha 90.000000
_cell_angle_beta 90.000000
_cell_angle_gamma 90.000000
_cell_volume 3221.058306
_symmetry_space_group_name_H-M "P 42/M N M"
_symmetry_group_IT_number 136
_symmetry_cell_setting 'tetragonal'
loop_
_space_group_symop_operation_xyz
x,y,z
1/2-y,1/2+x,1/2+z
-x,-y,z
1/2+y,1/2-x,1/2+z
1/2+x,1/2-y,1/2-z
1/2-x,1/2+y,1/2-z
y,x,-z
-y,-x,-z
-x,-y,-z
1/2+y,1/2-x,1/2-z
x,y,-z
1/2-y,1/2+x,1/2-z
1/2-x,1/2+y,1/2+z
1/2+x,1/2-y,1/2+z
-y,-x,z
y,x,z
loop_
_atom_site_type_symbol
_atom_site_label
_atom_site_fract_x
_atom_site_fract_y
_atom_site_fract_z
Si Si1 0.036516 0.776921 0.301972
Si Si2 0.214610 0.970044 0.434476
Si Si3 0.455021 0.875444 0.566451
Si Si4 0.275095 0.096705 0.182444
O O1 0.116390 0.883611 0.298120
O O2 0.975691 0.781091 0.367795
O O3 0.116728 0.669963 0.302634
O O4 0.961354 0.765799 0.243366
O O5 0.219158 0.030542 0.500000
O O6 0.105761 0.894240 0.434858
O O7 0.321943 0.890253 0.434455
O O8 0.490174 0.832777 0.500000
O O9 0.482518 0.806438 0.626311
O O10 0.500000 0.000000 0.572349
O O11 0.181198 0.181198 0.161196
#
# Coordination Sequence:
#
# PCOD9569633 Si02
#       4
#    16  16  16  16
#     4   9  19  32  49  75 102 135 177 217 261 315
#     4   8  14  27  46  68  98 131 164 208 259 307
#     4   9  17  28  46  75 102 128 166 213 261 306
#     4  10  21  33  50  76 104 140 174 209 264 317
#
# _framework density 19.869247000000001
#
# number of rings (size 3 to 8) (size 9 to 14) (size 15 to 20)
#    0.000    3.000    0.000    2.250    7.000    2.000 
#    0.000    0.000    0.000    1.500    0.000    8.750 
#    0.000    0.000    0.000    0.000    0.000    0.000 
#
# Total GULP energy -356324.830882 kJ/mol
# GULP energy per Si atom -5567.575483 kJ/mol
# Density = 1.982402 g / cm^3
# Si number density = 19.869247 Si / 1000 Ang^3
#
#
#
# Elastic Constant Matrix: (Units=GPa)
#
#
# Indices 1 2 3 4 5 6 
#
# 1 17.5839 18.1114 37.6351 0.0000 0.0000 0.0000
# 2 18.1114 17.5839 37.6351 0.0000 0.0000 0.0000
# 3 37.6351 37.6351 225.3161 0.0000 0.0000 0.0000
# 4 0.0000 0.0000 0.0000 -77.2076 0.0000 0.0000
# 5 0.0000 0.0000 0.0000 0.0000 -77.2076 0.0000
# 6 0.0000 0.0000 0.0000 0.0000 0.0000 2.5260
#
#
#
# Elastic Compliance Matrix: (Units=1/GPa)
#
#
# Indices 1 2 3 4 5 6 
#
# 1 -0.926183 0.969431 -0.007224 0.000000 0.000000 0.000000
# 2 0.969431 -0.926183 -0.007224 0.000000 0.000000 0.000000
# 3 -0.007224 -0.007224 0.006851 0.000000 0.000000 0.000000
# 4 0.000000 0.000000 0.000000 -0.012952 0.000000 0.000000
# 5 0.000000 0.000000 0.000000 0.000000 -0.012952 0.000000
# 6 0.000000 0.000000 0.000000 0.000000 0.000000 0.395877
#
#
# Mechanical properties :
#
#
# Convention : Reuss Voigt Hill
#
# Bulk Modulus (GPa) = 15.51554 49.69413 32.60484
# Shear Modulus (GPa) = -1.48631 -19.23768 -10.36200
#
# Velocity S-wave (km/s) = -0.86584 -3.11499 -2.28614
# Velocity P-wave (km/s) = 2.61270 3.48243 3.07844
#
# Compressibility (1/GPa) = 0.06445150
#
# Stress axis : x y z
#
# Youngs Moduli (GPa) = -1.07970 -1.07970 145.95529
#
# Poissons Ratio (x) = 1.04669 1.05434
# Poissons Ratio (y) = 1.04669 1.05434
# Poissons Ratio (z) = -0.00780 -0.00780
#
# Static dielectric constant tensor:
#      x y z
#    x 1.707780 0.000000 0.000000 
#    y 0.000000 1.707780 0.000000 
#    z 0.000000 0.000000 1.790390 
# 
# From -- ./inp_files/5914.got.cif
#   From: 2010.05.17/outbox.cif.g08.bks.cpg/sg136_3_cif.got.tgz:5914.got - 2010.05.20 12:54:53.
