data_PCOD9569151
_publ_section_title
;
Structure prediction by ZEFSAII (Michael W. Deem and Ramdas Pophale) SiO2 
 PCOD9569151
Probable space group: P 42/M N M
;
_chemical_formula_sum "Si O2"
_cell_formula_units_Z 96
_cell_length_a 25.139897
_cell_length_b 25.139897
_cell_length_c 7.516040
_cell_angle_alpha 90.000000
_cell_angle_beta 90.000000
_cell_angle_gamma 90.000000
_cell_volume 4750.245670
_symmetry_space_group_name_H-M "P 42/M N M"
_symmetry_group_IT_number 136
_symmetry_cell_setting 'tetragonal'
loop_
_space_group_symop_operation_xyz
x,y,z
1/2-y,1/2+x,1/2+z
-x,-y,z
1/2+y,1/2-x,1/2+z
1/2+x,1/2-y,1/2-z
1/2-x,1/2+y,1/2-z
y,x,-z
-y,-x,-z
-x,-y,-z
1/2+y,1/2-x,1/2-z
x,y,-z
1/2-y,1/2+x,1/2-z
1/2-x,1/2+y,1/2+z
1/2+x,1/2-y,1/2+z
-y,-x,z
y,x,z
loop_
_atom_site_type_symbol
_atom_site_label
_atom_site_fract_x
_atom_site_fract_y
_atom_site_fract_z
Si Si1 0.937681 0.356237 0.212572
Si Si2 0.230188 0.353254 0.717066
Si Si3 0.561745 0.561745 0.282424
Si Si4 0.940606 0.940606 0.212043
Si Si5 0.648130 0.351871 0.213718
Si Si6 0.561049 0.144439 0.787446
Si Si7 0.268521 0.144847 0.717383
Si Si8 0.851461 0.148540 0.782454
O O1 0.901791 0.307165 0.276767
O O2 0.909204 0.410081 0.278211
O O3 0.999345 0.352346 0.249987
O O4 0.932549 0.355542 0.000000
O O5 0.231153 0.352308 0.500000
O O6 0.199494 0.298849 0.769734
O O7 0.290601 0.361468 0.774334
O O8 0.562824 0.562824 0.500000
O O9 0.500648 0.573437 0.225527
O O10 0.605148 0.605148 0.222781
O O11 0.896113 0.896113 0.245750
O O12 0.945065 0.945065 0.000000
O O13 0.636887 0.291773 0.277539
O O14 0.650269 0.349732 0.000000
O O15 0.596480 0.193857 0.723096
O O16 0.566174 0.145141 0.000000
O O17 0.267661 0.145461 0.500000
O O18 0.852493 0.147508 0.000000
#
# Coordination Sequence:
#
# PCOD9569151 Si02
#       8
#    16  16   8   8   8  16  16   8
#     4   9  18  31  46  67  93 119 152 192 228 265
#     4   8  14  25  42  66  93 115 141 186 233 265
#     4   8  16  30  44  59  87 125 152 175 218 269
#     4   9  18  33  47  62  93 127 148 176 223 267
#     4  10  18  29  50  74  90 113 152 185 212 263
#     4   9  18  32  47  64  91 124 153 185 229 274
#     4   8  15  28  44  64  92 120 143 177 228 274
#     4   9  14  22  43  71  90 111 150 190 222 263
#
# _framework density 20.209482999999999
#
# number of rings (size 3 to 8) (size 9 to 14) (size 15 to 20)
#    0.000    3.333    0.000    3.000    0.000    4.333 
#    0.000    5.000    0.000    1.000    0.000    1.750 
#    0.000    0.000    0.000    0.000    0.000    0.000 
#
# Total GULP energy -535059.673926 kJ/mol
# GULP energy per Si atom -5573.538270 kJ/mol
# Density = 2.016349 g / cm^3
# Si number density = 20.209483 Si / 1000 Ang^3
#
#
#
# Elastic Constant Matrix: (Units=GPa)
#
#
# Indices 1 2 3 4 5 6 
#
# 1 225.0034 105.0330 4.8865 0.0000 0.0000 0.0000
# 2 105.0330 225.0036 4.8868 0.0000 0.0000 0.0000
# 3 4.8865 4.8868 47.3879 0.0000 0.0000 0.0000
# 4 0.0000 0.0000 0.0000 10.8534 0.0000 0.0000
# 5 0.0000 0.0000 0.0000 0.0000 10.8534 0.0000
# 6 0.0000 0.0000 0.0000 0.0000 0.0000 25.8542
#
#
#
# Elastic Compliance Matrix: (Units=1/GPa)
#
#
# Indices 1 2 3 4 5 6 
#
# 1 0.005687 -0.002648 -0.000313 0.000000 0.000000 0.000000
# 2 -0.002648 0.005687 -0.000313 0.000000 0.000000 0.000000
# 3 -0.000313 -0.000313 0.021167 0.000000 0.000000 0.000000
# 4 0.000000 0.000000 0.000000 0.092137 0.000000 0.000000
# 5 0.000000 0.000000 0.000000 0.000000 0.092137 0.000000
# 6 0.000000 0.000000 0.000000 0.000000 0.000000 0.038678
#
#
# Mechanical properties :
#
#
# Convention : Reuss Voigt Hill
#
# Bulk Modulus (GPa) = 38.47346 80.77860 59.62603
# Shear Modulus (GPa) = 18.47007 35.01809 26.74408
#
# Velocity S-wave (km/s) = 3.02641 4.16715 3.64172
# Velocity P-wave (km/s) = 5.59382 7.95053 6.87393
#
# Compressibility (1/GPa) = 0.02599195
#
# Stress axis : x y z
#
# Youngs Moduli (GPa) = 175.82979 175.82997 47.24317
#
# Poissons Ratio (x) = 0.46561 0.01481
# Poissons Ratio (y) = 0.46561 0.01481
# Poissons Ratio (z) = 0.05510 0.05511
#
# Static dielectric constant tensor:
#      x y z
#    x 1.713530 0.000000 0.000000 
#    y 0.000000 1.713530 0.000000 
#    z 0.000000 0.000000 1.790680 
# 
# From -- ./inp_files/3962.got.cif
#   From: 2010.05.17/outbox.cif.g08.bks.cpg/sg136_2_cif.got.tgz:3962.got - 2010.05.20 12:54:53.
