data_PCOD9569755
_publ_section_title
;
Structure prediction by ZEFSAII (Michael W. Deem and Ramdas Pophale) SiO2 
 PCOD9569755
Probable space group: P 42/M N M
;
_chemical_formula_sum "Si O2"
_cell_formula_units_Z 116
_cell_length_a 26.529380
_cell_length_b 26.529380
_cell_length_c 7.660824
_cell_angle_alpha 90.000000
_cell_angle_beta 90.000000
_cell_angle_gamma 90.000000
_cell_volume 5391.749242
_symmetry_space_group_name_H-M "P 42/M N M"
_symmetry_group_IT_number 136
_symmetry_cell_setting 'tetragonal'
loop_
_space_group_symop_operation_xyz
x,y,z
1/2-y,1/2+x,1/2+z
-x,-y,z
1/2+y,1/2-x,1/2+z
1/2+x,1/2-y,1/2-z
1/2-x,1/2+y,1/2-z
y,x,-z
-y,-x,-z
-x,-y,-z
1/2+y,1/2-x,1/2-z
x,y,-z
1/2-y,1/2+x,1/2-z
1/2-x,1/2+y,1/2+z
1/2+x,1/2-y,1/2+z
-y,-x,z
y,x,z
loop_
_atom_site_type_symbol
_atom_site_label
_atom_site_fract_x
_atom_site_fract_y
_atom_site_fract_z
Si Si1 0.377227 0.297169 0.300373
Si Si2 0.931113 0.068888 0.000000
Si Si3 0.855480 0.027619 0.298944
Si Si4 0.893567 0.606702 0.296698
Si Si5 0.651846 0.999288 0.711650
Si Si6 0.238519 0.035300 0.705907
Si Si7 0.269754 0.652119 0.288448
Si Si8 0.830628 0.301402 0.303623
O O1 0.389545 0.310662 0.500000
O O2 0.325551 0.325551 0.254670
O O3 0.421861 0.321115 0.192228
O O4 0.366769 0.238436 0.287818
O O5 0.960899 0.101435 0.842900
O O6 0.872502 0.016488 0.500000
O O7 0.814809 0.986589 0.231042
O O8 0.890151 0.621462 0.500000
O O9 0.950372 0.618732 0.240269
O O10 0.874552 0.549790 0.277127
O O11 0.854831 0.641870 0.195540
O O12 0.653300 0.002611 0.500000
O O13 0.709558 0.989769 0.774357
O O14 0.238460 0.024328 0.500000
O O15 0.239279 0.095242 0.730458
O O16 0.267241 0.652144 0.500000
O O17 0.322375 0.677626 0.235659
O O18 0.224124 0.687871 0.225730
O O19 0.824393 0.281962 0.500000
#
# Coordination Sequence:
#
# PCOD9569755 Si02
#       8
#    16   4  16  16  16  16  16  16
#     4  11  21  35  54  83 119 160 207 250 305 377
#     4  12  22  40  60  94 133 166 214 256 332 374
#     4  11  22  38  61  91 128 170 212 262 313 382
#     4  11  23  39  60  85 113 156 209 263 315 374
#     4  10  22  41  61  84 120 157 209 266 317 376
#     4  10  22  40  63  89 121 165 212 260 316 372
#     4  10  22  39  60  89 123 160 203 253 313 383
#     4  11  22  36  56  83 120 161 201 250 316 376
#
# _framework density 21.514353
#
# number of rings (size 3 to 8) (size 9 to 14) (size 15 to 20)
#    0.000    1.379    2.759    2.690    0.966    5.241 
#    0.000    1.379    0.000    0.000    0.000    0.966 
#    0.000    2.207    0.000    0.000    0.000    0.000 
#
# Total GULP energy -646794.867198 kJ/mol
# GULP energy per Si atom -5575.817821 kJ/mol
# Density = 2.146539 g / cm^3
# Si number density = 21.514353 Si / 1000 Ang^3
#
#
#
# Elastic Constant Matrix: (Units=GPa)
#
#
# Indices 1 2 3 4 5 6 
#
# 1 22.7830 14.7038 -3.2766 0.0000 0.0000 0.0000
# 2 14.7038 22.7837 -3.2765 0.0000 0.0000 0.0000
# 3 -3.2766 -3.2765 66.1593 0.0000 0.0000 0.0000
# 4 0.0000 0.0000 0.0000 129.8446 0.0000 0.0000
# 5 0.0000 0.0000 0.0000 0.0000 129.9539 0.0000
# 6 0.0000 0.0000 0.0000 0.0000 0.0000 36.6704
#
#
#
# Elastic Compliance Matrix: (Units=1/GPa)
#
#
# Indices 1 2 3 4 5 6 
#
# 1 0.075340 -0.048430 0.001333 0.000000 0.000000 0.000000
# 2 -0.048430 0.075338 0.001333 0.000000 0.000000 0.000000
# 3 0.001333 0.001333 0.015247 0.000000 0.000000 0.000000
# 4 0.000000 0.000000 0.000000 0.007702 0.000000 0.000000
# 5 0.000000 0.000000 0.000000 0.000000 0.007695 0.000000
# 6 0.000000 0.000000 0.000000 0.000000 0.000000 0.027270
#
#
# Mechanical properties :
#
#
# Convention : Reuss Voigt Hill
#
# Bulk Modulus (GPa) = 13.44175 14.22529 13.83352
# Shear Modulus (GPa) = 15.38841 66.19880 40.79360
#
# Velocity S-wave (km/s) = 2.67734 5.55305 4.35916
# Velocity P-wave (km/s) = 3.97730 6.90953 5.63740
#
# Compressibility (1/GPa) = 0.07439508
#
# Stress axis : x y z
#
# Youngs Moduli (GPa) = 13.27314 13.27353 65.58654
#
# Poissons Ratio (x) = 0.64284 -0.08741
# Poissons Ratio (y) = 0.64282 -0.08739
# Poissons Ratio (z) = -0.01769 -0.01769
#
# Static dielectric constant tensor:
#      x y z
#    x 1.816200 0.000000 0.000000 
#    y 0.000000 1.816200 0.000000 
#    z 0.000000 0.000000 1.828780 
# 
# From -- ./inp_files/2333.got.cif
#   From: 2010.05.17/outbox.cif.g08.bks.cpg/sg136_2_cif.got.tgz:2333.got - 2010.05.20 12:54:53.
