data_PCOD9569876
_publ_section_title
;
Structure prediction by ZEFSAII (Michael W. Deem and Ramdas Pophale) SiO2 
 PCOD9569876
Probable space group: P 42/M N M
;
_chemical_formula_sum "Si O2"
_cell_formula_units_Z 48
_cell_length_a 13.173567
_cell_length_b 13.173567
_cell_length_c 11.742879
_cell_angle_alpha 90.000000
_cell_angle_beta 90.000000
_cell_angle_gamma 90.000000
_cell_volume 2037.892894
_symmetry_space_group_name_H-M "P 42/M N M"
_symmetry_group_IT_number 136
_symmetry_cell_setting 'tetragonal'
loop_
_space_group_symop_operation_xyz
x,y,z
1/2-y,1/2+x,1/2+z
-x,-y,z
1/2+y,1/2-x,1/2+z
1/2+x,1/2-y,1/2-z
1/2-x,1/2+y,1/2-z
y,x,-z
-y,-x,-z
-x,-y,-z
1/2+y,1/2-x,1/2-z
x,y,-z
1/2-y,1/2+x,1/2-z
1/2-x,1/2+y,1/2+z
1/2+x,1/2-y,1/2+z
-y,-x,z
y,x,z
loop_
_atom_site_type_symbol
_atom_site_label
_atom_site_fract_x
_atom_site_fract_y
_atom_site_fract_z
Si Si1 0.184680 0.352254 0.000000
Si Si2 0.578301 0.578301 0.201233
Si Si3 0.783527 0.216473 0.868710
Si Si4 0.196363 0.037021 0.500000
Si Si5 0.864611 0.399001 0.260162
O O1 0.197388 0.475267 0.000000
O O2 0.128419 0.322670 0.884621
O O3 0.291720 0.291720 0.000000
O O4 0.500000 0.500000 0.259960
O O5 0.646185 0.646185 0.285377
O O6 0.512426 0.646719 0.114408
O O7 0.667830 0.191678 0.833933
O O8 0.805601 0.194400 0.000000
O O9 0.151473 0.151473 0.500000
O O10 0.864178 0.518499 0.244746
#
# Coordination Sequence:
#
# PCOD9569876 Si02
#       5
#     8   8   8   8  16
#     4  12  20  44  75  99 138 187 239 286 347 426
#     4   9  16  33  59  91 132 174 215 268 340 403
#     4  12  25  46  68 105 148 179 234 302 354 416
#     4   9  14  28  59  94 123 163 226 284 319 389
#     4  11  27  48  73 103 140 189 237 287 353 425
#
# _framework density 23.553737999999999
#
# number of rings (size 3 to 8) (size 9 to 14) (size 15 to 20)
#    0.000    1.333    6.667    1.000    4.667    1.667 
#    6.000    0.000    0.000    0.000    0.000    0.000 
#    0.000    0.000    0.000    0.000    0.000    0.000 
#
# Total GULP energy -268421.628671 kJ/mol
# GULP energy per Si atom -5592.117264 kJ/mol
# Density = 2.350013 g / cm^3
# Si number density = 23.553738 Si / 1000 Ang^3
#
#
#
# Elastic Constant Matrix: (Units=GPa)
#
#
# Indices 1 2 3 4 5 6 
#
# 1 73.7460 37.2414 30.1106 0.0000 0.0000 0.0000
# 2 37.2414 73.7462 30.1108 0.0000 0.0000 0.0000
# 3 30.1106 30.1108 168.1529 0.0000 0.0000 0.0000
# 4 0.0000 0.0000 0.0000 21.5961 0.0000 0.0000
# 5 0.0000 0.0000 0.0000 0.0000 21.5961 0.0000
# 6 0.0000 0.0000 0.0000 0.0000 0.0000 31.1030
#
#
#
# Elastic Compliance Matrix: (Units=1/GPa)
#
#
# Indices 1 2 3 4 5 6 
#
# 1 0.018687 -0.008707 -0.001787 0.000000 0.000000 0.000000
# 2 -0.008707 0.018687 -0.001787 0.000000 0.000000 0.000000
# 3 -0.001787 -0.001787 0.006587 0.000000 0.000000 0.000000
# 4 0.000000 0.000000 0.000000 0.046305 0.000000 0.000000
# 5 0.000000 0.000000 0.000000 0.000000 0.046305 0.000000
# 6 0.000000 0.000000 0.000000 0.000000 0.000000 0.032151
#
#
# Mechanical properties :
#
#
# Convention : Reuss Voigt Hill
#
# Bulk Modulus (GPa) = 51.55128 56.73008 54.14068
# Shear Modulus (GPa) = 25.03139 29.40453 27.21796
#
# Velocity S-wave (km/s) = 3.26350 3.53711 3.40305
# Velocity P-wave (km/s) = 6.01122 6.38899 6.20298
#
# Compressibility (1/GPa) = 0.01939816
#
# Stress axis : x y z
#
# Youngs Moduli (GPa) = 53.51396 53.51404 151.81495
#
# Poissons Ratio (x) = 0.46595 0.27130
# Poissons Ratio (y) = 0.46595 0.27130
# Poissons Ratio (z) = 0.09563 0.09563
#
# Static dielectric constant tensor:
#      x y z
#    x 1.928480 0.000000 0.000000 
#    y 0.000000 1.928480 0.000000 
#    z 0.000000 0.000000 1.873910 
# 
# From -- ./inp_files/3054.got.cif
#   From: 2010.05.17/outbox.cif.g08.bks.cpg/sg136_2_cif.got.tgz:3054.got - 2010.05.20 12:54:53.
