data_PCOD9569322
_publ_section_title
;
Structure prediction by ZEFSAII (Michael W. Deem and Ramdas Pophale) SiO2 
 PCOD9569322
Probable space group: P 42/M N M
;
_chemical_formula_sum "Si O2"
_cell_formula_units_Z 84
_cell_length_a 21.681846
_cell_length_b 21.681846
_cell_length_c 11.420551
_cell_angle_alpha 90.000000
_cell_angle_beta 90.000000
_cell_angle_gamma 90.000000
_cell_volume 5368.828959
_symmetry_space_group_name_H-M "P 42/M N M"
_symmetry_group_IT_number 136
_symmetry_cell_setting 'tetragonal'
loop_
_space_group_symop_operation_xyz
x,y,z
1/2-y,1/2+x,1/2+z
-x,-y,z
1/2+y,1/2-x,1/2+z
1/2+x,1/2-y,1/2-z
1/2-x,1/2+y,1/2-z
y,x,-z
-y,-x,-z
-x,-y,-z
1/2+y,1/2-x,1/2-z
x,y,-z
1/2-y,1/2+x,1/2-z
1/2-x,1/2+y,1/2+z
1/2+x,1/2-y,1/2+z
-y,-x,z
y,x,z
loop_
_atom_site_type_symbol
_atom_site_label
_atom_site_fract_x
_atom_site_fract_y
_atom_site_fract_z
Si Si1 0.088578 0.088578 0.500000
Si Si2 0.455519 0.350695 0.000000
Si Si3 0.154070 0.154070 0.280127
Si Si4 0.341480 0.341480 0.630546
Si Si5 0.929030 0.747790 0.140495
Si Si6 0.265416 0.443426 0.771631
Si Si7 0.750101 0.249900 0.777441
Si Si8 0.651087 0.829052 0.860529
O O1 0.118510 0.118510 0.382725
O O2 0.016254 0.106071 0.500000
O O3 0.456620 0.305302 0.888149
O O4 0.394469 0.394469 0.000000
O O5 0.109856 0.196435 0.199598
O O6 0.202705 0.202705 0.334024
O O7 0.359388 0.359388 0.500000
O O8 0.309562 0.397749 0.697950
O O9 0.288979 0.288979 0.631372
O O10 0.895854 0.681491 0.165144
O O11 0.995912 0.751434 0.197636
O O12 0.930030 0.755413 0.000000
O O13 0.200660 0.410017 0.804357
O O14 0.796358 0.285108 0.691766
O O15 0.645879 0.823319 0.000000
#
# Coordination Sequence:
#
# PCOD9569322 Si02
#       8
#     4   8   8   8  16  16   8  16
#     4  12  23  36  54  76 112 146 186 216 266 307
#     4  12  23  38  56  76 108 146 187 228 254 310
#     4  10  19  33  51  77 103 139 174 213 262 328
#     4  10  20  32  48  75 106 136 172 216 265 320
#     4  10  20  35  54  77 109 140 171 220 273 327
#     4  11  20  34  56  78 103 138 180 222 267 313
#     4   8  17  28  47  75 105 130 163 214 277 319
#     4   9  17  30  52  78 102 133 175 218 269 322
#
# _framework density 15.645868999999999
#
# number of rings (size 3 to 8) (size 9 to 14) (size 15 to 20)
#    0.000    1.905    3.810    1.286    0.667    2.286 
#    0.000    0.000    2.095    0.571    0.000    6.667 
#    0.000    0.000    0.000    0.000    0.000    0.000 
#
# Total GULP energy -467656.676331 kJ/mol
# GULP energy per Si atom -5567.341385 kJ/mol
# Density = 1.561026 g / cm^3
# Si number density = 15.645869 Si / 1000 Ang^3
#
#
#
# Elastic Constant Matrix: (Units=GPa)
#
#
# Indices 1 2 3 4 5 6 
#
# 1 88.2710 54.4563 45.6020 0.0000 0.0000 0.0000
# 2 54.4563 88.2710 45.6020 0.0000 0.0000 0.0000
# 3 45.6020 45.6020 99.0773 0.0000 0.0000 0.0000
# 4 0.0000 0.0000 0.0000 27.2114 0.0000 0.0000
# 5 0.0000 0.0000 0.0000 0.0000 27.2114 0.0000
# 6 0.0000 0.0000 0.0000 0.0000 0.0000 26.7520
#
#
#
# Elastic Compliance Matrix: (Units=1/GPa)
#
#
# Indices 1 2 3 4 5 6 
#
# 1 0.019749 -0.009824 -0.004568 0.000000 0.000000 0.000000
# 2 -0.009824 0.019749 -0.004568 0.000000 0.000000 0.000000
# 3 -0.004568 -0.004568 0.014299 0.000000 0.000000 0.000000
# 4 0.000000 0.000000 0.000000 0.036749 0.000000 0.000000
# 5 0.000000 0.000000 0.000000 0.000000 0.036749 0.000000
# 6 0.000000 0.000000 0.000000 0.000000 0.000000 0.037380
#
#
# Mechanical properties :
#
#
# Convention : Reuss Voigt Hill
#
# Bulk Modulus (GPa) = 62.98797 62.99331 62.99064
# Shear Modulus (GPa) = 24.05125 24.89887 24.47506
#
# Velocity S-wave (km/s) = 3.92500 3.99357 3.95943
# Velocity P-wave (km/s) = 7.80300 7.84947 7.82627
#
# Compressibility (1/GPa) = 0.01587605
#
# Stress axis : x y z
#
# Youngs Moduli (GPa) = 50.63469 50.63469 69.93728
#
# Poissons Ratio (x) = 0.49742 0.31950
# Poissons Ratio (y) = 0.49742 0.31950
# Poissons Ratio (z) = 0.23132 0.23132
#
# Static dielectric constant tensor:
#      x y z
#    x 1.526880 0.000000 0.000000 
#    y 0.000000 1.526880 0.000000 
#    z 0.000000 0.000000 1.501180 
# 
# From -- ./inp_files/3764.got.cif
#   From: 2010.05.17/outbox.cif.g08.bks.cpg/sg136_2_cif.got.tgz:3764.got - 2010.05.20 12:54:53.
