data_PCOD9569178
_publ_section_title
;
Structure prediction by ZEFSAII (Michael W. Deem and Ramdas Pophale) SiO2 
 PCOD9569178
Probable space group: P 42/M N M
;
_chemical_formula_sum "Si O2"
_cell_formula_units_Z 116
_cell_length_a 27.551250
_cell_length_b 27.551250
_cell_length_c 7.666133
_cell_angle_alpha 90.000000
_cell_angle_beta 90.000000
_cell_angle_gamma 90.000000
_cell_volume 5819.142129
_symmetry_space_group_name_H-M "P 42/M N M"
_symmetry_group_IT_number 136
_symmetry_cell_setting 'tetragonal'
loop_
_space_group_symop_operation_xyz
x,y,z
1/2-y,1/2+x,1/2+z
-x,-y,z
1/2+y,1/2-x,1/2+z
1/2+x,1/2-y,1/2-z
1/2-x,1/2+y,1/2-z
y,x,-z
-y,-x,-z
-x,-y,-z
1/2+y,1/2-x,1/2-z
x,y,-z
1/2-y,1/2+x,1/2-z
1/2-x,1/2+y,1/2+z
1/2+x,1/2-y,1/2+z
-y,-x,z
y,x,z
loop_
_atom_site_type_symbol
_atom_site_label
_atom_site_fract_x
_atom_site_fract_y
_atom_site_fract_z
Si Si1 0.453610 0.546391 0.000000
Si Si2 0.915198 0.700972 0.708813
Si Si3 0.312074 0.610379 0.290968
Si Si4 0.838843 0.233789 0.790407
Si Si5 0.297948 0.975854 0.290346
Si Si6 0.061362 0.807144 0.707446
Si Si7 0.162947 0.375534 0.290312
Si Si8 0.619470 0.481886 0.298582
O O1 0.422287 0.518810 0.155134
O O2 0.917441 0.695360 0.500000
O O3 0.896252 0.756061 0.737689
O O4 0.879777 0.658880 0.776571
O O5 0.969898 0.693866 0.776580
O O6 0.311895 0.612812 0.500000
O O7 0.342482 0.657519 0.225729
O O8 0.343993 0.562620 0.245334
O O9 0.788537 0.211464 0.726171
O O10 0.882025 0.196883 0.746316
O O11 0.853939 0.286185 0.721037
O O12 0.836212 0.237621 0.000000
O O13 0.295565 0.977825 0.500000
O O14 0.244583 0.959635 0.227366
O O15 0.335481 0.932933 0.247275
O O16 0.053960 0.809867 0.500000
O O17 0.031386 0.850311 0.790449
O O18 0.163341 0.371286 0.500000
O O19 0.604663 0.473499 0.500000
#
# Coordination Sequence:
#
# PCOD9569178 Si02
#       8
#     4  16  16  16  16  16  16  16
#     4  12  22  32  52  74 113 154 182 234 286 336
#     4  10  20  33  53  77 104 140 181 220 271 330
#     4  10  21  33  46  72 109 144 179 215 259 321
#     4   9  18  33  52  74 107 142 177 223 278 325
#     4   9  18  32  52  74 102 136 176 226 275 325
#     4  10  18  31  52  78 103 136 184 235 279 324
#     4   9  19  34  52  78 105 136 180 225 269 329
#     4  11  21  33  50  76 110 146 189 231 277 333
#
# _framework density 19.934208999999999
#
# number of rings (size 3 to 8) (size 9 to 14) (size 15 to 20)
#    0.000    2.207    2.759    0.621    0.966    2.759 
#    0.000    1.379    0.000    0.414    0.000    3.862 
#    0.000    2.207    0.000    0.000    0.000    0.000 
#
# Total GULP energy -646069.208209 kJ/mol
# GULP energy per Si atom -5569.562140 kJ/mol
# Density = 1.988884 g / cm^3
# Si number density = 19.934209 Si / 1000 Ang^3
#
#
#
# Elastic Constant Matrix: (Units=GPa)
#
#
# Indices 1 2 3 4 5 6 
#
# 1 69.4939 66.7624 6.6071 0.0000 0.0000 0.0000
# 2 66.7624 69.4948 6.6071 0.0000 0.0000 0.0000
# 3 6.6071 6.6071 62.0682 0.0000 0.0000 0.0000
# 4 0.0000 0.0000 0.0000 9.6319 0.0000 0.0000
# 5 0.0000 0.0000 0.0000 0.0000 9.6318 0.0000
# 6 0.0000 0.0000 0.0000 0.0000 0.0000 31.0044
#
#
#
# Elastic Compliance Matrix: (Units=1/GPa)
#
#
# Indices 1 2 3 4 5 6 
#
# 1 0.186731 -0.179314 -0.000790 0.000000 0.000000 0.000000
# 2 -0.179314 0.186728 -0.000789 0.000000 0.000000 0.000000
# 3 -0.000790 -0.000789 0.016279 0.000000 0.000000 0.000000
# 4 0.000000 0.000000 0.000000 0.103822 0.000000 0.000000
# 5 0.000000 0.000000 0.000000 0.000000 0.103823 0.000000
# 6 0.000000 0.000000 0.000000 0.000000 0.000000 0.032253
#
#
# Mechanical properties :
#
#
# Convention : Reuss Voigt Hill
#
# Bulk Modulus (GPa) = 35.77422 40.11224 37.94323
# Shear Modulus (GPa) = 4.99631 18.12564 11.56098
#
# Velocity S-wave (km/s) = 1.58488 3.01869 2.41084
# Velocity P-wave (km/s) = 4.61890 5.68471 5.17929
#
# Compressibility (1/GPa) = 0.02795309
#
# Stress axis : x y z
#
# Youngs Moduli (GPa) = 5.35531 5.35537 61.42749
#
# Poissons Ratio (x) = 0.96029 0.04850
# Poissons Ratio (y) = 0.96028 0.04847
# Poissons Ratio (z) = 0.00423 0.00423
#
# Static dielectric constant tensor:
#      x y z
#    x 1.716690 0.000000 0.000000 
#    y 0.000000 1.716690 0.000000 
#    z 0.000000 0.000000 1.720920 
# 
# From -- ./inp_files/2317.got.cif
#   From: 2010.05.17/outbox.cif.g08.bks.cpg/sg136_2_cif.got.tgz:2317.got - 2010.05.20 12:54:53.
