data_PCOD9569446
_publ_section_title
;
Structure prediction by ZEFSAII (Michael W. Deem and Ramdas Pophale) SiO2 
 PCOD9569446
Probable space group: P 42/M N M
;
_chemical_formula_sum "Si O2"
_cell_formula_units_Z 96
_cell_length_a 24.964413
_cell_length_b 24.964413
_cell_length_c 8.954035
_cell_angle_alpha 90.000000
_cell_angle_beta 90.000000
_cell_angle_gamma 90.000000
_cell_volume 5580.350853
_symmetry_space_group_name_H-M "P 42/M N M"
_symmetry_group_IT_number 136
_symmetry_cell_setting 'tetragonal'
loop_
_space_group_symop_operation_xyz
x,y,z
1/2-y,1/2+x,1/2+z
-x,-y,z
1/2+y,1/2-x,1/2+z
1/2+x,1/2-y,1/2-z
1/2-x,1/2+y,1/2-z
y,x,-z
-y,-x,-z
-x,-y,-z
1/2+y,1/2-x,1/2-z
x,y,-z
1/2-y,1/2+x,1/2-z
1/2-x,1/2+y,1/2+z
1/2+x,1/2-y,1/2+z
-y,-x,z
y,x,z
loop_
_atom_site_type_symbol
_atom_site_label
_atom_site_fract_x
_atom_site_fract_y
_atom_site_fract_z
Si Si1 0.695801 0.919107 0.678971
Si Si2 0.380580 0.380580 0.822009
Si Si3 0.289998 0.969196 0.826232
Si Si4 0.338310 0.486088 0.671436
Si Si5 0.292605 0.292605 0.818680
Si Si6 0.905491 0.820987 0.677916
Si Si7 0.685464 0.145028 0.319953
O O1 0.688582 0.920732 0.500000
O O2 0.758109 0.905380 0.711842
O O3 0.662635 0.871200 0.752114
O O4 0.685654 0.977721 0.749230
O O5 0.364719 0.438619 0.763381
O O6 0.336653 0.336653 0.769306
O O7 0.379674 0.379674 0.000000
O O8 0.225782 0.976945 0.822319
O O9 0.302085 0.914460 0.739567
O O10 0.306337 0.965389 0.000000
O O11 0.355490 0.483639 0.500000
O O12 0.347653 0.544379 0.740046
O O13 0.314367 0.233927 0.772493
O O14 0.292274 0.292274 0.000000
O O15 0.913425 0.826013 0.500000
O O16 0.850982 0.850982 0.719115
O O17 0.683659 0.145105 0.500000
#
# Coordination Sequence:
#
# PCOD9569446 Si02
#       7
#    16   8  16  16   8  16  16
#     4  10  21  36  56  83 112 146 183 223 271 325
#     4  11  19  33  54  76 105 143 181 220 271 331
#     4  10  20  36  56  79 108 145 185 224 269 325
#     4  10  20  33  51  77 105 136 179 228 276 322
#     4   9  20  33  51  80 114 147 179 216 271 324
#     4   9  19  36  55  74 102 142 185 224 268 326
#     4  11  21  36  56  83 116 148 183 227 271 322
#
# _framework density 17.203220000000002
#
# number of rings (size 3 to 8) (size 9 to 14) (size 15 to 20)
#    0.000    2.000    1.667    2.250    1.167    2.333 
#    0.000    1.667    0.000    3.000    0.000    3.500 
#    0.000    0.000    0.000    0.000    0.000    0.000 
#
# Total GULP energy -535604.254876 kJ/mol
# GULP energy per Si atom -5579.210988 kJ/mol
# Density = 1.716407 g / cm^3
# Si number density = 17.203220 Si / 1000 Ang^3
#
#
#
# Elastic Constant Matrix: (Units=GPa)
#
#
# Indices 1 2 3 4 5 6 
#
# 1 72.3573 47.0590 36.3367 0.0000 0.0000 0.0000
# 2 47.0590 72.3573 36.3367 0.0000 0.0000 0.0000
# 3 36.3367 36.3367 58.6024 0.0000 0.0000 0.0000
# 4 0.0000 0.0000 0.0000 25.5207 0.0000 0.0000
# 5 0.0000 0.0000 0.0000 0.0000 25.5207 0.0000
# 6 0.0000 0.0000 0.0000 0.0000 0.0000 26.6099
#
#
#
# Elastic Compliance Matrix: (Units=1/GPa)
#
#
# Indices 1 2 3 4 5 6 
#
# 1 0.026489 -0.013040 -0.008339 0.000000 0.000000 0.000000
# 2 -0.013040 0.026489 -0.008339 0.000000 0.000000 0.000000
# 3 -0.008339 -0.008339 0.027406 0.000000 0.000000 0.000000
# 4 0.000000 0.000000 0.000000 0.039184 0.000000 0.000000
# 5 0.000000 0.000000 0.000000 0.000000 0.039184 0.000000
# 6 0.000000 0.000000 0.000000 0.000000 0.000000 0.037580
#
#
# Mechanical properties :
#
#
# Convention : Reuss Voigt Hill
#
# Bulk Modulus (GPa) = 47.73927 49.19797 48.46862
# Shear Modulus (GPa) = 19.02956 21.10254 20.06605
#
# Velocity S-wave (km/s) = 3.32951 3.50617 3.41898
# Velocity P-wave (km/s) = 6.52620 6.71202 6.61976
#
# Compressibility (1/GPa) = 0.02094711
#
# Stress axis : x y z
#
# Youngs Moduli (GPa) = 37.75198 37.75198 36.48889
#
# Poissons Ratio (x) = 0.49227 0.30429
# Poissons Ratio (y) = 0.49227 0.30429
# Poissons Ratio (z) = 0.31482 0.31482
#
# Static dielectric constant tensor:
#      x y z
#    x 1.568390 0.000000 0.000000 
#    y 0.000000 1.568390 0.000000 
#    z 0.000000 0.000000 1.576880 
# 
# From -- ./inp_files/2053.got.cif
#   From: 2010.05.17/outbox.cif.g08.bks.cpg/sg136_2_cif.got.tgz:2053.got - 2010.05.20 12:54:53.
