data_PCOD9569362
_publ_section_title
;
Structure prediction by ZEFSAII (Michael W. Deem and Ramdas Pophale) SiO2 
 PCOD9569362
Probable space group: P 42/M N M
;
_chemical_formula_sum "Si O2"
_cell_formula_units_Z 120
_cell_length_a 27.505069
_cell_length_b 27.505069
_cell_length_c 8.538482
_cell_angle_alpha 90.000000
_cell_angle_beta 90.000000
_cell_angle_gamma 90.000000
_cell_volume 6459.607718
_symmetry_space_group_name_H-M "P 42/M N M"
_symmetry_group_IT_number 136
_symmetry_cell_setting 'tetragonal'
loop_
_space_group_symop_operation_xyz
x,y,z
1/2-y,1/2+x,1/2+z
-x,-y,z
1/2+y,1/2-x,1/2+z
1/2+x,1/2-y,1/2-z
1/2-x,1/2+y,1/2-z
y,x,-z
-y,-x,-z
-x,-y,-z
1/2+y,1/2-x,1/2-z
x,y,-z
1/2-y,1/2+x,1/2-z
1/2-x,1/2+y,1/2+z
1/2+x,1/2-y,1/2+z
-y,-x,z
y,x,z
loop_
_atom_site_type_symbol
_atom_site_label
_atom_site_fract_x
_atom_site_fract_y
_atom_site_fract_z
Si Si1 0.459203 0.540798 0.180452
Si Si2 0.913929 0.702979 0.687384
Si Si3 0.306498 0.613481 0.310756
Si Si4 0.832583 0.243613 0.815496
Si Si5 0.303566 0.976084 0.316444
Si Si6 0.075737 0.801034 0.679985
Si Si7 0.157598 0.375841 0.187307
Si Si8 0.642712 0.487675 0.314352
O O1 0.500000 0.500000 0.177998
O O2 0.412422 0.521909 0.270531
O O3 0.446697 0.553304 0.000000
O O4 0.915777 0.708309 0.500000
O O5 0.886973 0.750991 0.752958
O O6 0.884663 0.654988 0.734080
O O7 0.969481 0.698070 0.749950
O O8 0.306590 0.614648 0.500000
O O9 0.342548 0.657453 0.258535
O O10 0.328295 0.560911 0.261294
O O11 0.782883 0.217118 0.766038
O O12 0.876740 0.206165 0.784298
O O13 0.847627 0.292081 0.724513
O O14 0.829653 0.254585 0.000000
O O15 0.316701 0.981096 0.500000
O O16 0.249403 0.954270 0.309344
O O17 0.336346 0.931595 0.253048
O O18 0.090647 0.808196 0.500000
O O19 0.037159 0.840514 0.733679
O O20 0.151346 0.377096 0.000000
O O21 0.649982 0.492158 0.500000
#
# Coordination Sequence:
#
# PCOD9569362 Si02
#       8
#     8  16  16  16  16  16  16  16
#     4  11  25  41  55  73 101 143 191 239 297 359
#     4  11  21  36  59  88 116 147 189 233 281 335
#     4  10  21  37  55  82 116 150 189 234 288 346
#     4  10  21  37  56  80 111 147 187 232 281 331
#     4   8  17  34  56  81 111 144 182 227 270 322
#     4  10  19  34  56  82 108 141 183 228 278 334
#     4  10  21  38  58  84 116 151 188 230 283 339
#     4  11  21  36  57  80 107 140 184 241 293 342
#
# _framework density 18.576978
#
# number of rings (size 3 to 8) (size 9 to 14) (size 15 to 20)
#    0.000    1.933    2.000    3.000    0.000    3.467 
#    0.000    2.000    0.000    0.400    0.000    2.800 
#    0.000    0.000    0.000    0.000    0.000    0.000 
#
# Total GULP energy -669459.042532 kJ/mol
# GULP energy per Si atom -5578.825354 kJ/mol
# Density = 1.853470 g / cm^3
# Si number density = 18.576978 Si / 1000 Ang^3
#
#
#
# Elastic Constant Matrix: (Units=GPa)
#
#
# Indices 1 2 3 4 5 6 
#
# 1 35.4652 41.3736 -1.0662 0.0000 0.0000 0.0000
# 2 41.3736 35.4657 -1.0664 0.0000 0.0000 0.0000
# 3 -1.0662 -1.0664 13.4830 0.0000 0.0000 0.0000
# 4 0.0000 0.0000 0.0000 47.3287 0.0000 0.0000
# 5 0.0000 0.0000 0.0000 0.0000 47.3282 0.0000
# 6 0.0000 0.0000 0.0000 0.0000 0.0000 32.5937
#
#
#
# Elastic Compliance Matrix: (Units=1/GPa)
#
#
# Indices 1 2 3 4 5 6 
#
# 1 -0.078107 0.091149 0.001032 0.000000 0.000000 0.000000
# 2 0.091149 -0.078106 0.001031 0.000000 0.000000 0.000000
# 3 0.001032 0.001031 0.074330 0.000000 0.000000 0.000000
# 4 0.000000 0.000000 0.000000 0.021129 0.000000 0.000000
# 5 0.000000 0.000000 0.000000 0.000000 0.021129 0.000000
# 6 0.000000 0.000000 0.000000 0.000000 0.000000 0.030681
#
#
# Mechanical properties :
#
#
# Convention : Reuss Voigt Hill
#
# Bulk Modulus (GPa) = 9.56553 18.09955 13.83254
# Shear Modulus (GPa) = -31.14861 28.46163 -1.34349
#
# Velocity S-wave (km/s) = -4.09923 3.91844 -0.85133
# Velocity P-wave (km/s) = 4.15267 5.49876 2.54870
#
# Compressibility (1/GPa) = 0.10454200
#
# Stress axis : x y z
#
# Youngs Moduli (GPa) = -12.80296 -12.80313 13.45344
#
# Poissons Ratio (x) = 1.16700 -0.01389
# Poissons Ratio (y) = 1.16698 -0.01387
# Poissons Ratio (z) = 0.01322 0.01319
#
# Static dielectric constant tensor:
#      x y z
#    x 1.749340 0.000000 0.000000 
#    y 0.000000 1.749390 0.000000 
#    z 0.000000 0.000000 1.636510 
# 
# From -- ./inp_files/2336.got.cif
#   From: 2010.05.17/outbox.cif.g08.bks.cpg/sg136_2_cif.got.tgz:2336.got - 2010.05.20 12:54:53.
