data_PCOD9569354
_publ_section_title
;
Structure prediction by ZEFSAII (Michael W. Deem and Ramdas Pophale) SiO2 
 PCOD9569354
Probable space group: P 42/M N M
;
_chemical_formula_sum "Si O2"
_cell_formula_units_Z 128
_cell_length_a 23.748376
_cell_length_b 23.748376
_cell_length_c 12.791201
_cell_angle_alpha 90.000000
_cell_angle_beta 90.000000
_cell_angle_gamma 90.000000
_cell_volume 7214.050135
_symmetry_space_group_name_H-M "P 42/M N M"
_symmetry_group_IT_number 136
_symmetry_cell_setting 'tetragonal'
loop_
_space_group_symop_operation_xyz
x,y,z
1/2-y,1/2+x,1/2+z
-x,-y,z
1/2+y,1/2-x,1/2+z
1/2+x,1/2-y,1/2-z
1/2-x,1/2+y,1/2-z
y,x,-z
-y,-x,-z
-x,-y,-z
1/2+y,1/2-x,1/2-z
x,y,-z
1/2-y,1/2+x,1/2-z
1/2-x,1/2+y,1/2+z
1/2+x,1/2-y,1/2+z
-y,-x,z
y,x,z
loop_
_atom_site_type_symbol
_atom_site_label
_atom_site_fract_x
_atom_site_fract_y
_atom_site_fract_z
Si Si1 0.635996 0.726596 0.111694
Si Si2 0.563392 0.766391 0.378950
Si Si3 0.316146 0.831816 0.239515
Si Si4 0.402130 0.764506 0.123476
Si Si5 0.045472 0.140939 0.622726
Si Si6 0.594195 0.903182 0.874494
Si Si7 0.489771 0.847123 0.233399
Si Si8 0.437721 0.341391 0.254088
O O1 0.669100 0.669100 0.098193
O O2 0.675173 0.764348 0.183263
O O3 0.580400 0.707132 0.170175
O O4 0.624006 0.753443 0.000000
O O5 0.552200 0.776905 0.500000
O O6 0.624370 0.792151 0.346777
O O7 0.521047 0.801039 0.305349
O O8 0.558641 0.699374 0.354704
O O9 0.345196 0.778860 0.186211
O O10 0.360263 0.862823 0.316863
O O11 0.426761 0.702272 0.142123
O O12 0.445350 0.812298 0.163789
O O13 0.392873 0.770284 0.000000
O O14 0.026135 0.139925 0.500000
O O15 0.092535 0.092535 0.633875
O O16 0.994491 0.133561 0.704669
O O17 0.609228 0.960623 0.813542
O O18 0.533455 0.879320 0.841129
O O19 0.600576 0.906464 0.000000
O O20 0.389523 0.389523 0.265581
#
# Coordination Sequence:
#
# PCOD9569354 Si02
#       8
#    16  16  16  16  16  16  16  16
#     4   9  17  30  50  77 107 136 168 212 266 319
#     4  10  19  34  55  80 109 141 178 220 267 318
#     4   9  19  31  50  79 107 140 179 219 262 316
#     4  10  19  34  54  77 108 144 178 214 262 318
#     4  10  21  36  56  82 110 142 178 217 268 325
#     4  10  20  34  52  75 105 142 188 230 269 313
#     4  10  20  35  53  79 105 142 181 225 270 317
#     4  10  20  35  55  81 109 140 176 220 270 321
#
# _framework density 17.743153
#
# number of rings (size 3 to 8) (size 9 to 14) (size 15 to 20)
#    0.000    2.250    1.250    1.875    0.000    2.000 
#    0.000    3.125    0.000    2.625    0.000    0.875 
#    0.000    0.000    0.000    0.000    0.000    0.000 
#
# Total GULP energy -712596.174406 kJ/mol
# GULP energy per Si atom -5567.157613 kJ/mol
# Density = 1.770277 g / cm^3
# Si number density = 17.743153 Si / 1000 Ang^3
#
#
#
# Elastic Constant Matrix: (Units=GPa)
#
#
# Indices 1 2 3 4 5 6 
#
# 1 41.1524 19.0761 15.9292 0.0000 0.0000 0.0000
# 2 19.0761 41.1524 15.9292 0.0000 0.0000 0.0000
# 3 15.9292 15.9292 86.1322 0.0000 0.0000 0.0000
# 4 0.0000 0.0000 0.0000 19.0137 0.0000 0.0000
# 5 0.0000 0.0000 0.0000 0.0000 19.0137 0.0000
# 6 0.0000 0.0000 0.0000 0.0000 0.0000 26.1442
#
#
#
# Elastic Compliance Matrix: (Units=1/GPa)
#
#
# Indices 1 2 3 4 5 6 
#
# 1 0.031851 -0.013447 -0.003404 0.000000 0.000000 0.000000
# 2 -0.013447 0.031851 -0.003404 0.000000 0.000000 0.000000
# 3 -0.003404 -0.003404 0.012869 0.000000 0.000000 0.000000
# 4 0.000000 0.000000 0.000000 0.052594 0.000000 0.000000
# 5 0.000000 0.000000 0.000000 0.000000 0.052594 0.000000
# 6 0.000000 0.000000 0.000000 0.000000 0.000000 0.038249
#
#
# Mechanical properties :
#
#
# Convention : Reuss Voigt Hill
#
# Bulk Modulus (GPa) = 27.72984 30.03399 28.88192
# Shear Modulus (GPa) = 18.34620 20.66780 19.50700
#
# Velocity S-wave (km/s) = 3.21906 3.41667 3.31933
# Velocity P-wave (km/s) = 5.42944 5.70339 5.56810
#
# Compressibility (1/GPa) = 0.03606223
#
# Stress axis : x y z
#
# Youngs Moduli (GPa) = 31.39654 31.39654 77.70634
#
# Poissons Ratio (x) = 0.42219 0.26448
# Poissons Ratio (y) = 0.42219 0.26448
# Poissons Ratio (z) = 0.10686 0.10686
#
# Static dielectric constant tensor:
#      x y z
#    x 1.630720 0.000000 0.000000 
#    y 0.000000 1.630720 0.000000 
#    z 0.000000 0.000000 1.649270 
# 
# From -- ./inp_files/4069.got.cif
#   From: 2010.05.17/outbox.cif.g08.bks.cpg/sg136_3_cif.got.tgz:4069.got - 2010.05.20 12:54:53.
