data_PCOD9569054
_publ_section_title
;
Structure prediction by ZEFSAII (Michael W. Deem and Ramdas Pophale) SiO2 
 PCOD9569054
Probable space group: P 42/M B C
;
_chemical_formula_sum "Si O2"
_cell_formula_units_Z 36
_cell_length_a 9.645350
_cell_length_b 9.645350
_cell_length_c 14.322159
_cell_angle_alpha 90.000000
_cell_angle_beta 90.000000
_cell_angle_gamma 90.000000
_cell_volume 1332.430219
_symmetry_space_group_name_H-M "P 42/M B C"
_symmetry_group_IT_number 135
_symmetry_cell_setting 'tetragonal'
loop_
_space_group_symop_operation_xyz
x,y,z
-y,x,1/2+z
-x,-y,z
y,-x,1/2+z
1/2+x,1/2-y,-z
1/2-x,1/2+y,-z
1/2+y,1/2+x,1/2-z
1/2-y,1/2-x,1/2-z
-x,-y,-z
y,-x,1/2-z
x,y,-z
-y,x,1/2-z
1/2-x,1/2+y,z
1/2+x,1/2-y,z
1/2-y,1/2-x,1/2+z
1/2+y,1/2+x,1/2+z
loop_
_atom_site_type_symbol
_atom_site_label
_atom_site_fract_x
_atom_site_fract_y
_atom_site_fract_z
Si Si1 0.681311 0.887966 0.500000
Si Si2 0.223650 0.914311 0.000000
Si Si3 0.290102 0.911335 0.657900
Si Si4 0.500000 0.500000 0.750000
O O1 0.849089 0.926072 0.500000
O O2 0.569632 0.763954 0.500000
O O3 0.647734 0.963530 0.597595
O O4 0.284039 0.824932 0.912622
O O5 0.374653 0.874653 0.750000
O O6 0.131019 0.939081 0.690740
#
# Coordination Sequence:
#
# PCOD9569054 Si02
#       4
#     8   8  16   4
#     4  11  27  50  79 119 159 218 270 337 411 489
#     4  11  27  48  79 112 159 217 266 336 409 489
#     4  11  26  49  78 113 166 207 275 334 412 483
#     4  12  28  50  80 128 152 226 268 342 400 508
#
# _framework density 27.0183
#
# number of rings (size 3 to 8) (size 9 to 14) (size 15 to 20)
#    0.000    0.889    0.000    5.333   12.444    5.333 
#    8.000    0.000    0.000    0.000    0.000    0.000 
#    0.000    0.000    0.000    0.000    0.000    0.000 
#
# Total GULP energy -200519.626257 kJ/mol
# GULP energy per Si atom -5569.989618 kJ/mol
# Density = 2.695680 g / cm^3
# Si number density = 27.018300 Si / 1000 Ang^3
#
#
#
# Elastic Constant Matrix: (Units=GPa)
#
#
# Indices 1 2 3 4 5 6 
#
# 1 100.0357 24.4141 32.8341 0.0000 0.0000 0.0000
# 2 24.4141 100.0357 32.8341 0.0000 0.0000 0.0000
# 3 32.8341 32.8341 204.7856 0.0000 0.0000 0.0000
# 4 0.0000 0.0000 0.0000 51.2928 0.0000 0.0000
# 5 0.0000 0.0000 0.0000 0.0000 51.2928 0.0000
# 6 0.0000 0.0000 0.0000 0.0000 0.0000 46.2149
#
#
#
# Elastic Compliance Matrix: (Units=1/GPa)
#
#
# Indices 1 2 3 4 5 6 
#
# 1 0.011001 -0.002223 -0.001407 0.000000 0.000000 0.000000
# 2 -0.002223 0.011001 -0.001407 0.000000 0.000000 0.000000
# 3 -0.001407 -0.001407 0.005334 0.000000 0.000000 0.000000
# 4 0.000000 0.000000 0.000000 0.019496 0.000000 0.000000
# 5 0.000000 0.000000 0.000000 0.000000 0.019496 0.000000
# 6 0.000000 0.000000 0.000000 0.000000 0.000000 0.021638
#
#
# Mechanical properties :
#
#
# Convention : Reuss Voigt Hill
#
# Bulk Modulus (GPa) = 57.93459 65.00241 61.46850
# Shear Modulus (GPa) = 48.17185 50.74509 49.45847
#
# Velocity S-wave (km/s) = 4.22706 4.33849 4.28314
# Velocity P-wave (km/s) = 6.73152 7.01481 6.87462
#
# Compressibility (1/GPa) = 0.01726084
#
# Stress axis : x y z
#
# Youngs Moduli (GPa) = 90.90180 90.90180 187.46001
#
# Poissons Ratio (x) = 0.20206 0.26383
# Poissons Ratio (y) = 0.20206 0.26383
# Poissons Ratio (z) = 0.12794 0.12794
#
# Static dielectric constant tensor:
#      x y z
#    x 2.817210 0.000000 0.000000 
#    y 0.000000 2.817210 0.000000 
#    z 0.000000 0.000000 1.726260 
# 
# From -- ./inp_files/1769.got.cif
#   From: 2010.05.17/outbox.cif.g08.bks.cpg/sg135_1_cif.got.tgz:1769.got - 2010.05.20 12:50:20.
