data_PCOD9569144
_publ_section_title
;
Structure prediction by ZEFSAII (Michael W. Deem and Ramdas Pophale) SiO2 
 PCOD9569144
Probable space group: P 42/M N M
;
_chemical_formula_sum "Si O2"
_cell_formula_units_Z 96
_cell_length_a 13.710725
_cell_length_b 13.710725
_cell_length_c 32.882298
_cell_angle_alpha 90.000000
_cell_angle_beta 90.000000
_cell_angle_gamma 90.000000
_cell_volume 6181.345250
_symmetry_space_group_name_H-M "P 42/M N M"
_symmetry_group_IT_number 136
_symmetry_cell_setting 'tetragonal'
loop_
_space_group_symop_operation_xyz
x,y,z
1/2-y,1/2+x,1/2+z
-x,-y,z
1/2+y,1/2-x,1/2+z
1/2+x,1/2-y,1/2-z
1/2-x,1/2+y,1/2-z
y,x,-z
-y,-x,-z
-x,-y,-z
1/2+y,1/2-x,1/2-z
x,y,-z
1/2-y,1/2+x,1/2-z
1/2-x,1/2+y,1/2+z
1/2+x,1/2-y,1/2+z
-y,-x,z
y,x,z
loop_
_atom_site_type_symbol
_atom_site_label
_atom_site_fract_x
_atom_site_fract_y
_atom_site_fract_z
Si Si1 0.658736 0.507854 0.792617
Si Si2 0.796601 0.638000 0.664354
Si Si3 0.555215 0.100840 0.670934
Si Si4 0.706713 0.866530 0.247782
Si Si5 0.494122 0.780314 0.127517
Si Si6 0.664457 0.499647 0.954239
O O1 0.576755 0.423246 0.794466
O O2 0.606387 0.606387 0.778571
O O3 0.740554 0.465733 0.762838
O O4 0.700791 0.519558 0.837841
O O5 0.694549 0.694549 0.656563
O O6 0.816129 0.522874 0.658467
O O7 0.824431 0.657660 0.711513
O O8 0.882980 0.688796 0.638269
O O9 0.612290 0.136880 0.710504
O O10 0.500000 0.000000 0.681901
O O11 0.629793 0.066535 0.636235
O O12 0.790420 0.790420 0.235213
O O13 0.501734 0.739331 0.082551
O O14 0.594882 0.405119 0.949916
O O15 0.592086 0.592086 0.951299
O O16 0.706335 0.498496 0.000000
#
# Coordination Sequence:
#
# PCOD9569144 Si02
#       6
#    16  16  16  16  16  16
#     4   9  17  28  42  61  87 121 156 191 231 275
#     4   9  19  32  46  61  83 121 162 199 241 289
#     4  10  22  31  45  65  91 121 158 202 243 280
#     4   9  19  31  41  60  87 116 157 201 240 281
#     4  10  18  29  45  68  94 119 153 195 235 286
#     4   9  17  29  48  75 104 131 155 183 231 297
#
# _framework density 15.5306
#
# number of rings (size 3 to 8) (size 9 to 14) (size 15 to 20)
#    0.000    2.667    0.000    3.500    7.000    3.333 
#    0.000    0.000    0.000    4.500    0.000    0.000 
#    0.000    0.000    0.000    1.833    0.000    0.000 
#
# Total GULP energy -535312.645099 kJ/mol
# GULP energy per Si atom -5576.173386 kJ/mol
# Density = 1.549525 g / cm^3
# Si number density = 15.530600 Si / 1000 Ang^3
#
#
#
# Elastic Constant Matrix: (Units=GPa)
#
#
# Indices 1 2 3 4 5 6 
#
# 1 62.0997 32.2685 45.0752 0.0000 0.0000 0.0000
# 2 32.2685 62.0997 45.0752 0.0000 0.0000 0.0000
# 3 45.0752 45.0752 116.4012 0.0000 0.0000 0.0000
# 4 0.0000 0.0000 0.0000 19.8935 0.0000 0.0000
# 5 0.0000 0.0000 0.0000 0.0000 19.8935 0.0000
# 6 0.0000 0.0000 0.0000 0.0000 0.0000 27.5788
#
#
#
# Elastic Compliance Matrix: (Units=1/GPa)
#
#
# Indices 1 2 3 4 5 6 
#
# 1 0.025170 -0.008352 -0.006513 0.000000 0.000000 0.000000
# 2 -0.008352 0.025170 -0.006513 0.000000 0.000000 0.000000
# 3 -0.006513 -0.006513 0.013635 0.000000 0.000000 0.000000
# 4 0.000000 0.000000 0.000000 0.050268 0.000000 0.000000
# 5 0.000000 0.000000 0.000000 0.000000 0.050268 0.000000
# 6 0.000000 0.000000 0.000000 0.000000 0.000000 0.036260
#
#
# Mechanical properties :
#
#
# Convention : Reuss Voigt Hill
#
# Bulk Modulus (GPa) = 47.12354 53.93759 50.53057
# Shear Modulus (GPa) = 19.95223 21.35196 20.65209
#
# Velocity S-wave (km/s) = 3.58817 3.71189 3.65055
# Velocity P-wave (km/s) = 6.89745 7.29220 7.09757
#
# Compressibility (1/GPa) = 0.02122082
#
# Stress axis : x y z
#
# Youngs Moduli (GPa) = 39.72957 39.72957 73.34076
#
# Poissons Ratio (x) = 0.33181 0.47765
# Poissons Ratio (y) = 0.33181 0.47765
# Poissons Ratio (z) = 0.25875 0.25875
#
# Static dielectric constant tensor:
#      x y z
#    x 1.558100 0.000000 0.000000 
#    y 0.000000 1.558100 0.000000 
#    z 0.000000 0.000000 1.474250 
# 
# From -- ./inp_files/9857.got.cif
#   From: 2010.05.17/outbox.cif.g08.bks.cpg/sg136_5_cif.got.tgz:9857.got - 2010.05.20 12:54:53.
