data_PCOD9569406
_publ_section_title
;
Structure prediction by ZEFSAII (Michael W. Deem and Ramdas Pophale) SiO2 
 PCOD9569406
Probable space group: P 42/M N M
;
_chemical_formula_sum "Si O2"
_cell_formula_units_Z 96
_cell_length_a 24.597466
_cell_length_b 24.597466
_cell_length_c 7.774394
_cell_angle_alpha 90.000000
_cell_angle_beta 90.000000
_cell_angle_gamma 90.000000
_cell_volume 4703.783067
_symmetry_space_group_name_H-M "P 42/M N M"
_symmetry_group_IT_number 136
_symmetry_cell_setting 'tetragonal'
loop_
_space_group_symop_operation_xyz
x,y,z
1/2-y,1/2+x,1/2+z
-x,-y,z
1/2+y,1/2-x,1/2+z
1/2+x,1/2-y,1/2-z
1/2-x,1/2+y,1/2-z
y,x,-z
-y,-x,-z
-x,-y,-z
1/2+y,1/2-x,1/2-z
x,y,-z
1/2-y,1/2+x,1/2-z
1/2-x,1/2+y,1/2+z
1/2+x,1/2-y,1/2+z
-y,-x,z
y,x,z
loop_
_atom_site_type_symbol
_atom_site_label
_atom_site_fract_x
_atom_site_fract_y
_atom_site_fract_z
Si Si1 0.790041 0.008590 0.203155
Si Si2 0.696538 0.928873 0.791932
Si Si3 0.718641 0.632482 0.792120
Si Si4 0.192734 0.278737 0.209865
Si Si5 0.499309 0.412251 0.710200
Si Si6 0.074719 0.539293 0.807416
O O1 0.741424 0.971616 0.273278
O O2 0.850638 0.998466 0.274160
O O3 0.777439 0.071970 0.224877
O O4 0.793196 0.996438 0.000000
O O5 0.712308 0.868476 0.731164
O O6 0.635397 0.945044 0.743608
O O7 0.698118 0.928525 0.000000
O O8 0.663673 0.663673 0.736997
O O9 0.768658 0.670990 0.739441
O O10 0.718490 0.630555 0.000000
O O11 0.223739 0.223739 0.264520
O O12 0.192057 0.278043 0.000000
O O13 0.498359 0.411196 0.500000
O O14 0.550797 0.449204 0.760046
O O15 0.445278 0.445278 0.764201
O O16 0.065697 0.474256 0.800100
O O17 0.064727 0.558766 0.000000
#
# Coordination Sequence:
#
# PCOD9569406 Si02
#       6
#    16  16  16  16  16  16
#     4  10  20  31  48  78 111 137 173 224 270 317
#     4  10  21  35  53  83 116 147 185 227 272 326
#     4   9  18  33  53  75  99 135 183 226 266 317
#     4   8  16  33  55  76 102 141 186 225 263 313
#     4   8  14  26  45  70 102 140 179 220 270 322
#     4  11  23  41  63  85 111 143 182 227 278 332
#
# _framework density 20.409105
#
# number of rings (size 3 to 8) (size 9 to 14) (size 15 to 20)
#    0.000    2.667    0.000    4.000    2.333    2.333 
#    0.000    3.333    0.000    2.000    0.000    4.667 
#    0.000    0.000    0.000    0.000    0.000    0.000 
#
# Total GULP energy -535794.302888 kJ/mol
# GULP energy per Si atom -5581.190655 kJ/mol
# Density = 2.036265 g / cm^3
# Si number density = 20.409105 Si / 1000 Ang^3
#
#
#
# Elastic Constant Matrix: (Units=GPa)
#
#
# Indices 1 2 3 4 5 6 
#
# 1 135.7988 123.4051 -2.1821 0.0000 0.0000 0.0000
# 2 123.4051 135.7988 -2.1821 0.0000 0.0000 0.0000
# 3 -2.1821 -2.1821 31.3780 0.0000 0.0000 0.0000
# 4 0.0000 0.0000 0.0000 21.7926 0.0000 0.0000
# 5 0.0000 0.0000 0.0000 0.0000 21.7926 0.0000
# 6 0.0000 0.0000 0.0000 0.0000 0.0000 17.5029
#
#
#
# Elastic Compliance Matrix: (Units=1/GPa)
#
#
# Indices 1 2 3 4 5 6 
#
# 1 0.042274 -0.038412 0.000269 0.000000 0.000000 0.000000
# 2 -0.038412 0.042274 0.000269 0.000000 0.000000 0.000000
# 3 0.000269 0.000269 0.031907 0.000000 0.000000 0.000000
# 4 0.000000 0.000000 0.000000 0.045887 0.000000 0.000000
# 5 0.000000 0.000000 0.000000 0.000000 0.045887 0.000000
# 6 0.000000 0.000000 0.000000 0.000000 0.000000 0.057133
#
#
# Mechanical properties :
#
#
# Convention : Reuss Voigt Hill
#
# Bulk Modulus (GPa) = 24.56625 60.11750 42.34188
# Shear Modulus (GPa) = 14.09716 24.47995 19.28855
#
# Velocity S-wave (km/s) = 2.63102 3.46708 3.07758
# Velocity P-wave (km/s) = 4.61441 6.74890 5.78102
#
# Compressibility (1/GPa) = 0.04070625
#
# Stress axis : x y z
#
# Youngs Moduli (GPa) = 23.65495 23.65495 31.34123
#
# Poissons Ratio (x) = 0.90863 -0.00842
# Poissons Ratio (y) = 0.90863 -0.00842
# Poissons Ratio (z) = -0.00635 -0.00635
#
# Static dielectric constant tensor:
#      x y z
#    x 1.703990 0.000000 0.000000 
#    y 0.000000 1.703990 0.000000 
#    z 0.000000 0.000000 1.762110 
# 
# From -- ./inp_files/1986.got.cif
#   From: 2010.05.17/outbox.cif.g08.bks.cpg/sg136_1_cif.got.tgz:1986.got - 2010.05.20 12:54:53.
