data_PCOD9569655
_publ_section_title
;
Structure prediction by ZEFSAII (Michael W. Deem and Ramdas Pophale) SiO2 
 PCOD9569655
Probable space group: P 42/M N M
;
_chemical_formula_sum "Si O2"
_cell_formula_units_Z 112
_cell_length_a 16.125883
_cell_length_b 16.125883
_cell_length_c 22.325154
_cell_angle_alpha 90.000000
_cell_angle_beta 90.000000
_cell_angle_gamma 90.000000
_cell_volume 5805.524636
_symmetry_space_group_name_H-M "P 42/M N M"
_symmetry_group_IT_number 136
_symmetry_cell_setting 'tetragonal'
loop_
_space_group_symop_operation_xyz
x,y,z
1/2-y,1/2+x,1/2+z
-x,-y,z
1/2+y,1/2-x,1/2+z
1/2+x,1/2-y,1/2-z
1/2-x,1/2+y,1/2-z
y,x,-z
-y,-x,-z
-x,-y,-z
1/2+y,1/2-x,1/2-z
x,y,-z
1/2-y,1/2+x,1/2-z
1/2-x,1/2+y,1/2+z
1/2+x,1/2-y,1/2+z
-y,-x,z
y,x,z
loop_
_atom_site_type_symbol
_atom_site_label
_atom_site_fract_x
_atom_site_fract_y
_atom_site_fract_z
Si Si1 0.422800 0.099972 0.570547
Si Si2 0.162721 0.603669 0.432359
Si Si3 0.108608 0.756794 0.143165
Si Si4 0.138630 0.999098 0.430662
Si Si5 0.031537 0.696240 0.370924
Si Si6 0.787626 0.921226 0.171411
Si Si7 0.695224 0.167186 0.269079
O O1 0.409182 0.080498 0.500000
O O2 0.521982 0.106210 0.581471
O O3 0.397024 0.193276 0.588254
O O4 0.371779 0.038437 0.613466
O O5 0.189671 0.596316 0.500000
O O6 0.103604 0.680738 0.420263
O O7 0.240579 0.607569 0.388963
O O8 0.167661 0.832340 0.128285
O O9 0.144920 0.708340 0.200371
O O10 0.019343 0.789548 0.165108
O O11 0.168360 0.002059 0.500000
O O12 0.084289 0.915712 0.422927
O O13 0.213185 0.003585 0.384015
O O14 0.074968 0.074968 0.423115
O O15 0.084058 0.689163 0.309457
O O16 0.874429 0.874429 0.178230
O O17 0.724152 0.885816 0.221185
O O18 0.773867 0.226134 0.287686
#
# Coordination Sequence:
#
# PCOD9569655 Si02
#       7
#    16  16  16  16  16  16  16
#     4  10  21  35  54  82 115 148 185 234 287 336
#     4   9  18  33  52  79 115 144 172 222 282 333
#     4  10  22  39  58  80 111 152 192 237 289 340
#     4   9  18  31  45  67 104 143 179 224 271 316
#     4  11  19  31  56  81 105 144 188 229 274 343
#     4   9  19  36  58  82 111 143 181 232 282 337
#     4   9  20  37  56  82 116 147 184 236 291 343
#
# _framework density 19.291969000000002
#
# number of rings (size 3 to 8) (size 9 to 14) (size 15 to 20)
#    0.000    2.429    0.000    2.571    2.000    3.143 
#    0.000    0.714    0.000    0.857    0.000    4.000 
#    0.000    0.000    0.000    0.000    0.000    0.000 
#
# Total GULP energy -624472.467034 kJ/mol
# GULP energy per Si atom -5575.647027 kJ/mol
# Density = 1.924806 g / cm^3
# Si number density = 19.291969 Si / 1000 Ang^3
#
#
#
# Elastic Constant Matrix: (Units=GPa)
#
#
# Indices 1 2 3 4 5 6 
#
# 1 44.9405 20.2491 4.5441 0.0000 0.0000 0.0000
# 2 20.2491 44.9405 4.5441 0.0000 0.0000 0.0000
# 3 4.5441 4.5441 11.1014 0.0000 0.0000 0.0000
# 4 0.0000 0.0000 0.0000 17.2330 0.0000 0.0000
# 5 0.0000 0.0000 0.0000 0.0000 17.2330 0.0000
# 6 0.0000 0.0000 0.0000 0.0000 0.0000 22.3153
#
#
#
# Elastic Compliance Matrix: (Units=1/GPa)
#
#
# Indices 1 2 3 4 5 6 
#
# 1 0.028384 -0.012116 -0.006659 0.000000 0.000000 0.000000
# 2 -0.012116 0.028384 -0.006659 0.000000 0.000000 0.000000
# 3 -0.006659 -0.006659 0.095530 0.000000 0.000000 0.000000
# 4 0.000000 0.000000 0.000000 0.058028 0.000000 0.000000
# 5 0.000000 0.000000 0.000000 0.000000 0.058028 0.000000
# 6 0.000000 0.000000 0.000000 0.000000 0.000000 0.044812
#
#
# Mechanical properties :
#
#
# Convention : Reuss Voigt Hill
#
# Bulk Modulus (GPa) = 9.85895 17.73965 13.79930
# Shear Modulus (GPa) = 12.56772 16.13261 14.35016
#
# Velocity S-wave (km/s) = 2.55512 2.89491 2.73030
# Velocity P-wave (km/s) = 3.71838 4.51545 4.13616
#
# Compressibility (1/GPa) = 0.10143069
#
# Stress axis : x y z
#
# Youngs Moduli (GPa) = 35.23107 35.23107 10.46790
#
# Poissons Ratio (x) = 0.42685 0.06971
# Poissons Ratio (y) = 0.42685 0.06971
# Poissons Ratio (z) = 0.23460 0.23460
#
# Static dielectric constant tensor:
#      x y z
#    x 1.684880 0.000000 0.000000 
#    y 0.000000 1.684880 0.000000 
#    z 0.000000 0.000000 1.668410 
# 
# From -- ./inp_files/8517.got.cif
#   From: 2010.05.17/outbox.cif.g08.bks.cpg/sg136_5_cif.got.tgz:8517.got - 2010.05.20 12:54:53.
