data_PCOD9569397
_publ_section_title
;
Structure prediction by ZEFSAII (Michael W. Deem and Ramdas Pophale) SiO2 
 PCOD9569397
Probable space group: P 42/M N M
;
_chemical_formula_sum "Si O2"
_cell_formula_units_Z 72
_cell_length_a 14.868522
_cell_length_b 14.868522
_cell_length_c 17.907137
_cell_angle_alpha 90.000000
_cell_angle_beta 90.000000
_cell_angle_gamma 90.000000
_cell_volume 3958.783539
_symmetry_space_group_name_H-M "P 42/M N M"
_symmetry_group_IT_number 136
_symmetry_cell_setting 'tetragonal'
loop_
_space_group_symop_operation_xyz
x,y,z
1/2-y,1/2+x,1/2+z
-x,-y,z
1/2+y,1/2-x,1/2+z
1/2+x,1/2-y,1/2-z
1/2-x,1/2+y,1/2-z
y,x,-z
-y,-x,-z
-x,-y,-z
1/2+y,1/2-x,1/2-z
x,y,-z
1/2-y,1/2+x,1/2-z
1/2-x,1/2+y,1/2+z
1/2+x,1/2-y,1/2+z
-y,-x,z
y,x,z
loop_
_atom_site_type_symbol
_atom_site_label
_atom_site_fract_x
_atom_site_fract_y
_atom_site_fract_z
Si Si1 0.696123 0.456782 0.587941
Si Si2 0.484842 0.723449 0.088882
Si Si3 0.225273 0.225273 0.588403
Si Si4 0.930704 0.069297 0.686603
Si Si5 0.812626 0.664894 0.090425
Si Si6 0.858592 0.141409 0.834293
O O1 0.707607 0.478133 0.500000
O O2 0.614339 0.385662 0.593574
O O3 0.783982 0.402437 0.616190
O O4 0.672504 0.546573 0.631089
O O5 0.380509 0.744346 0.101763
O O6 0.513105 0.636129 0.134747
O O7 0.560920 0.797032 0.109749
O O8 0.494335 0.705908 0.000000
O O9 0.243659 0.243659 0.500000
O O10 0.285583 0.285583 0.641633
O O11 0.875538 0.124463 0.747529
O O12 0.000000 0.000000 0.725050
O O13 0.726281 0.726281 0.112198
O O14 0.815928 0.669720 0.000000
#
# Coordination Sequence:
#
# PCOD9569397 Si02
#       6
#    16  16   8   8  16   8
#     4   9  17  32  56  82 110 149 196 241 281 331
#     4  10  19  36  61  89 116 145 195 252 299 354
#     4  10  22  39  61  84 118 161 203 248 294 351
#     4  12  23  36  56  88 119 148 189 243 314 359
#     4   8  14  27  52  86 112 135 179 238 295 338
#     4  12  24  38  49  82 121 163 196 236 291 353
#
# _framework density 18.187404000000001
#
# number of rings (size 3 to 8) (size 9 to 14) (size 15 to 20)
#    0.000    2.222    2.222    3.667    0.000    1.333 
#    4.000    1.111    0.000    5.333    0.000    0.000 
#    0.000    0.000    0.000    0.000    0.000    0.000 
#
# Total GULP energy -401498.769676 kJ/mol
# GULP energy per Si atom -5576.371801 kJ/mol
# Density = 1.814601 g / cm^3
# Si number density = 18.187404 Si / 1000 Ang^3
#
#
#
# Elastic Constant Matrix: (Units=GPa)
#
#
# Indices 1 2 3 4 5 6 
#
# 1 139.4425 34.0469 43.8181 0.0000 0.0000 0.0000
# 2 34.0469 139.4425 43.8181 0.0000 0.0000 0.0000
# 3 43.8181 43.8181 50.6177 0.0000 0.0000 0.0000
# 4 0.0000 0.0000 0.0000 20.2948 0.0000 0.0000
# 5 0.0000 0.0000 0.0000 0.0000 20.2948 0.0000
# 6 0.0000 0.0000 0.0000 0.0000 0.0000 35.8925
#
#
#
# Elastic Compliance Matrix: (Units=1/GPa)
#
#
# Indices 1 2 3 4 5 6 
#
# 1 0.009866 0.000378 -0.008867 0.000000 0.000000 0.000000
# 2 0.000378 0.009866 -0.008867 0.000000 0.000000 0.000000
# 3 -0.008867 -0.008867 0.035108 0.000000 0.000000 0.000000
# 4 0.000000 0.000000 0.000000 0.049274 0.000000 0.000000
# 5 0.000000 0.000000 0.000000 0.000000 0.049274 0.000000
# 6 0.000000 0.000000 0.000000 0.000000 0.000000 0.027861
#
#
# Mechanical properties :
#
#
# Convention : Reuss Voigt Hill
#
# Bulk Modulus (GPa) = 49.68788 63.65208 56.66998
# Shear Modulus (GPa) = 22.45474 29.15105 25.80289
#
# Velocity S-wave (km/s) = 3.51754 4.00786 3.77068
# Velocity P-wave (km/s) = 6.62395 7.51606 7.08406
#
# Compressibility (1/GPa) = 0.02012563
#
# Stress axis : x y z
#
# Youngs Moduli (GPa) = 101.36193 101.36193 28.48347
#
# Poissons Ratio (x) = -0.03827 0.25257
# Poissons Ratio (y) = -0.03827 0.25257
# Poissons Ratio (z) = 0.89880 0.89880
#
# Static dielectric constant tensor:
#      x y z
#    x 1.631260 0.000000 0.000000 
#    y 0.000000 1.631260 0.000000 
#    z 0.000000 0.000000 1.614940 
# 
# From -- ./inp_files/6135.got.cif
#   From: 2010.05.17/outbox.cif.g08.bks.cpg/sg136_4_cif.got.tgz:6135.got - 2010.05.20 12:54:53.
