data_PCOD9569232
_publ_section_title
;
Structure prediction by ZEFSAII (Michael W. Deem and Ramdas Pophale) SiO2 
 PCOD9569232
Probable space group: P 42/M N M
;
_chemical_formula_sum "Si O2"
_cell_formula_units_Z 52
_cell_length_a 15.233162
_cell_length_b 15.233162
_cell_length_c 13.377788
_cell_angle_alpha 90.000000
_cell_angle_beta 90.000000
_cell_angle_gamma 90.000000
_cell_volume 3104.305331
_symmetry_space_group_name_H-M "P 42/M N M"
_symmetry_group_IT_number 136
_symmetry_cell_setting 'tetragonal'
loop_
_space_group_symop_operation_xyz
x,y,z
1/2-y,1/2+x,1/2+z
-x,-y,z
1/2+y,1/2-x,1/2+z
1/2+x,1/2-y,1/2-z
1/2-x,1/2+y,1/2-z
y,x,-z
-y,-x,-z
-x,-y,-z
1/2+y,1/2-x,1/2-z
x,y,-z
1/2-y,1/2+x,1/2-z
1/2-x,1/2+y,1/2+z
1/2+x,1/2-y,1/2+z
-y,-x,z
y,x,z
loop_
_atom_site_type_symbol
_atom_site_label
_atom_site_fract_x
_atom_site_fract_y
_atom_site_fract_z
Si Si1 0.616534 0.874280 0.118406
Si Si2 0.692820 0.307181 0.618469
Si Si3 0.428266 0.571735 0.734769
Si Si4 0.684730 0.539789 0.113156
Si Si5 0.500000 0.000000 0.250000
O O1 0.712861 0.842888 0.155068
O O2 0.556570 0.787255 0.126568
O O3 0.572296 0.951522 0.181235
O O4 0.622425 0.897192 0.000000
O O5 0.703773 0.296227 0.500000
O O6 0.620824 0.379177 0.646525
O O7 0.500000 0.500000 0.702424
O O8 0.477466 0.641862 0.805208
O O9 0.632526 0.632526 0.119301
O O10 0.669016 0.506616 0.000000
#
# Coordination Sequence:
#
# PCOD9569232 Si02
#       5
#    16   8   8  16   4
#     4  10  20  35  53  72  99 135 169 199 243 299
#     4  10  20  36  53  67  94 137 171 193 233 301
#     4  10  19  29  48  79 102 119 157 208 249 279
#     4   9  16  30  51  74 100 129 159 195 240 292
#     4  12  22  32  52  82 104 120 162 224 256 274
#
# _framework density 16.750928999999999
#
# number of rings (size 3 to 8) (size 9 to 14) (size 15 to 20)
#    0.000    2.154    1.538    2.769    0.000    2.154 
#    0.000    0.000    0.000    0.000    0.000    0.000 
#    0.000    0.000    0.000    0.000    0.000    0.000 
#
# Total GULP energy -289863.921198 kJ/mol
# GULP energy per Si atom -5574.306177 kJ/mol
# Density = 1.671280 g / cm^3
# Si number density = 16.750929 Si / 1000 Ang^3
#
#
#
# Elastic Constant Matrix: (Units=GPa)
#
#
# Indices 1 2 3 4 5 6 
#
# 1 70.8892 42.1354 25.5127 0.0000 0.0000 0.0000
# 2 42.1354 70.8888 25.5124 0.0000 0.0000 0.0000
# 3 25.5127 25.5124 26.6122 0.0000 0.0000 0.0000
# 4 0.0000 0.0000 0.0000 21.8004 0.0000 0.0000
# 5 0.0000 0.0000 0.0000 0.0000 21.8004 0.0000
# 6 0.0000 0.0000 0.0000 0.0000 0.0000 25.1294
#
#
#
# Elastic Compliance Matrix: (Units=1/GPa)
#
#
# Indices 1 2 3 4 5 6 
#
# 1 0.025189 -0.009590 -0.014954 0.000000 0.000000 0.000000
# 2 -0.009590 0.025188 -0.014954 0.000000 0.000000 0.000000
# 3 -0.014954 -0.014954 0.066249 0.000000 0.000000 0.000000
# 4 0.000000 0.000000 0.000000 0.045871 0.000000 0.000000
# 5 0.000000 0.000000 0.000000 0.000000 0.045871 0.000000
# 6 0.000000 0.000000 0.000000 0.000000 0.000000 0.039794
#
#
# Mechanical properties :
#
#
# Convention : Reuss Voigt Hill
#
# Bulk Modulus (GPa) = 26.57455 39.41237 32.99346
# Shear Modulus (GPa) = 14.71882 18.76136 16.74009
#
# Velocity S-wave (km/s) = 2.96748 3.35030 3.16468
# Velocity P-wave (km/s) = 5.25740 6.20851 5.75264
#
# Compressibility (1/GPa) = 0.03762998
#
# Stress axis : x y z
#
# Youngs Moduli (GPa) = 39.70055 39.70072 15.09452
#
# Poissons Ratio (x) = 0.38072 0.22573
# Poissons Ratio (y) = 0.38072 0.22572
# Poissons Ratio (z) = 0.59370 0.59368
#
# Static dielectric constant tensor:
#      x y z
#    x 1.561490 0.000000 0.000000 
#    y 0.000000 1.561490 0.000000 
#    z 0.000000 0.000000 1.545390 
# 
# From -- ./inp_files/3131.got.cif
#   From: 2010.05.17/outbox.cif.g08.bks.cpg/sg136_2_cif.got.tgz:3131.got - 2010.05.20 12:54:53.
