data_PCOD9569555
_publ_section_title
;
Structure prediction by ZEFSAII (Michael W. Deem and Ramdas Pophale) SiO2 
 PCOD9569555
Probable space group: P 42/M N M
;
_chemical_formula_sum "Si O2"
_cell_formula_units_Z 96
_cell_length_a 24.680521
_cell_length_b 24.680521
_cell_length_c 8.133233
_cell_angle_alpha 90.000000
_cell_angle_beta 90.000000
_cell_angle_gamma 90.000000
_cell_volume 4954.180901
_symmetry_space_group_name_H-M "P 42/M N M"
_symmetry_group_IT_number 136
_symmetry_cell_setting 'tetragonal'
loop_
_space_group_symop_operation_xyz
x,y,z
1/2-y,1/2+x,1/2+z
-x,-y,z
1/2+y,1/2-x,1/2+z
1/2+x,1/2-y,1/2-z
1/2-x,1/2+y,1/2-z
y,x,-z
-y,-x,-z
-x,-y,-z
1/2+y,1/2-x,1/2-z
x,y,-z
1/2-y,1/2+x,1/2-z
1/2-x,1/2+y,1/2+z
1/2+x,1/2-y,1/2+z
-y,-x,z
y,x,z
loop_
_atom_site_type_symbol
_atom_site_label
_atom_site_fract_x
_atom_site_fract_y
_atom_site_fract_z
Si Si1 0.999633 0.086788 0.197938
Si Si2 0.801804 0.430086 0.201788
Si Si3 0.691670 0.222413 0.799555
Si Si4 0.035489 0.421716 0.305561
Si Si5 0.779728 0.134023 0.801460
Si Si6 0.488184 0.290416 0.194684
O O1 0.051051 0.051051 0.254466
O O2 0.001113 0.148999 0.246804
O O3 0.999106 0.084943 0.000000
O O4 0.945720 0.054281 0.254481
O O5 0.785826 0.369596 0.255043
O O6 0.862408 0.446678 0.253885
O O7 0.756285 0.472156 0.260426
O O8 0.802323 0.430739 0.000000
O O9 0.723100 0.276901 0.746583
O O10 0.729472 0.171802 0.750650
O O11 0.691261 0.223131 0.000000
O O12 0.046055 0.424931 0.500000
O O13 0.067199 0.471779 0.223930
O O14 0.834184 0.165817 0.749777
O O15 0.777347 0.073670 0.737567
O O16 0.780029 0.132192 0.000000
O O17 0.494386 0.290389 0.000000
#
# Coordination Sequence:
#
# PCOD9569555 Si02
#       6
#    16  16  16  16  16  16
#     4   9  19  37  58  77 102 140 182 221 259 304
#     4   9  20  34  49  76 111 141 172 215 263 314
#     4   8  15  31  54  75  96 130 175 215 251 299
#     4  10  20  36  56  78 105 137 176 220 268 318
#     4   9  18  33  55  79 100 130 176 221 256 300
#     4  11  22  33  49  79 113 140 168 211 267 318
#
# _framework density 19.377573999999999
#
# number of rings (size 3 to 8) (size 9 to 14) (size 15 to 20)
#    0.000    2.667    0.000    3.500    2.333    3.667 
#    0.000    5.000    0.000    2.000    0.000    0.000 
#    0.000    0.000    0.000    0.000    0.000    0.000 
#
# Total GULP energy -535656.582179 kJ/mol
# GULP energy per Si atom -5579.756064 kJ/mol
# Density = 1.933347 g / cm^3
# Si number density = 19.377574 Si / 1000 Ang^3
#
#
#
# Elastic Constant Matrix: (Units=GPa)
#
#
# Indices 1 2 3 4 5 6 
#
# 1 -161.2871 433.7588 1.3688 0.0000 0.0000 0.0000
# 2 433.7588 -161.2871 1.3688 0.0000 0.0000 0.0000
# 3 1.3688 1.3688 8.4155 0.0000 0.0000 0.0000
# 4 0.0000 0.0000 0.0000 0.9898 0.0000 0.0000
# 5 0.0000 0.0000 0.0000 0.0000 0.9898 0.0000
# 6 0.0000 0.0000 0.0000 0.0000 0.0000 16.8082
#
#
#
# Elastic Compliance Matrix: (Units=1/GPa)
#
#
# Indices 1 2 3 4 5 6 
#
# 1 0.000998 0.002678 -0.000598 0.000000 0.000000 0.000000
# 2 0.002678 0.000998 -0.000598 0.000000 0.000000 0.000000
# 3 -0.000598 -0.000598 0.119024 0.000000 0.000000 0.000000
# 4 0.000000 0.000000 0.000000 1.010291 0.000000 0.000000
# 5 0.000000 0.000000 0.000000 0.000000 1.010291 0.000000
# 6 0.000000 0.000000 0.000000 0.000000 0.000000 0.059495
#
#
# Mechanical properties :
#
#
# Convention : Reuss Voigt Hill
#
# Bulk Modulus (GPa) = 8.06556 62.09268 35.07912
# Shear Modulus (GPa) = 2.23268 -46.28610 -22.02671
#
# Velocity S-wave (km/s) = 1.07457 -4.89268 -3.37517
# Velocity P-wave (km/s) = 2.38976 0.44208 1.71849
#
# Compressibility (1/GPa) = 0.12398400
#
# Stress axis : x y z
#
# Youngs Moduli (GPa) = 1002.21937 1002.21937 8.40170
#
# Poissons Ratio (x) = -2.68427 0.00502
# Poissons Ratio (y) = -2.68427 0.00502
# Poissons Ratio (z) = 0.59927 0.59927
#
# Static dielectric constant tensor:
#      x y z
#    x 1.664850 0.000000 0.000000 
#    y 0.000000 1.664850 0.000000 
#    z 0.000000 0.000000 1.692090 
# 
# From -- ./inp_files/1920.got.cif
#   From: 2010.05.17/outbox.cif.g08.bks.cpg/sg136_1_cif.got.tgz:1920.got - 2010.05.20 12:54:53.
