data_PCOD9569816
_publ_section_title
;
Structure prediction by ZEFSAII (Michael W. Deem and Ramdas Pophale) SiO2 
 PCOD9569816
Probable space group: P 42/M N M
;
_chemical_formula_sum "Si O2"
_cell_formula_units_Z 84
_cell_length_a 14.030057
_cell_length_b 14.030057
_cell_length_c 23.758503
_cell_angle_alpha 90.000000
_cell_angle_beta 90.000000
_cell_angle_gamma 90.000000
_cell_volume 4676.683113
_symmetry_space_group_name_H-M "P 42/M N M"
_symmetry_group_IT_number 136
_symmetry_cell_setting 'tetragonal'
loop_
_space_group_symop_operation_xyz
x,y,z
1/2-y,1/2+x,1/2+z
-x,-y,z
1/2+y,1/2-x,1/2+z
1/2+x,1/2-y,1/2-z
1/2-x,1/2+y,1/2-z
y,x,-z
-y,-x,-z
-x,-y,-z
1/2+y,1/2-x,1/2-z
x,y,-z
1/2-y,1/2+x,1/2-z
1/2-x,1/2+y,1/2+z
1/2+x,1/2-y,1/2+z
-y,-x,z
y,x,z
loop_
_atom_site_type_symbol
_atom_site_label
_atom_site_fract_x
_atom_site_fract_y
_atom_site_fract_z
Si Si1 0.142527 0.292116 0.353390
Si Si2 0.529926 0.681669 0.896969
Si Si3 0.588438 0.411563 0.000000
Si Si4 0.682750 0.839202 0.114451
Si Si5 0.109639 0.384171 0.759636
Si Si6 0.469967 0.110672 0.564922
O O1 0.229880 0.229880 0.375051
O O2 0.159571 0.327062 0.290321
O O3 0.126702 0.382357 0.393354
O O4 0.048999 0.225544 0.355933
O O5 0.595001 0.595001 0.874335
O O6 0.473743 0.643565 0.950970
O O7 0.603441 0.766877 0.910445
O O8 0.782759 0.782759 0.112321
O O9 0.651331 0.859777 0.178980
O O10 0.674321 0.939235 0.082325
O O11 0.128545 0.496292 0.750424
O O12 0.443168 0.126977 0.500000
O O13 0.500000 0.000000 0.571125
#
# Coordination Sequence:
#
# PCOD9569816 Si02
#       6
#    16  16   4  16  16  16
#     4  12  24  38  63  93 123 162 209 256 313 368
#     4  11  23  36  56  88 125 168 202 242 306 384
#     4  12  25  40  56  86 144 178 195 248 323 398
#     4  11  23  40  63  90 120 161 214 257 301 371
#     4  11  20  38  65  89 124 159 201 260 318 362
#     4  11  23  40  60  88 128 162 200 252 306 361
#
# _framework density 17.961449000000002
#
# number of rings (size 3 to 8) (size 9 to 14) (size 15 to 20)
#    0.000    0.762    6.667    1.429    2.667    0.762 
#    0.000    0.000    0.000    0.571    0.000    1.333 
#    0.000    0.000    0.000    0.000    0.000    0.000 
#
# Total GULP energy -468072.127905 kJ/mol
# GULP energy per Si atom -5572.287237 kJ/mol
# Density = 1.792057 g / cm^3
# Si number density = 17.961449 Si / 1000 Ang^3
#
#
#
# Elastic Constant Matrix: (Units=GPa)
#
#
# Indices 1 2 3 4 5 6 
#
# 1 55.2596 43.2816 20.5223 0.0000 0.0000 0.0000
# 2 43.2816 55.2601 20.5224 0.0000 0.0000 0.0000
# 3 20.5223 20.5224 72.1009 0.0000 0.0000 0.0000
# 4 0.0000 0.0000 0.0000 100.8750 0.0000 0.0000
# 5 0.0000 0.0000 0.0000 0.0000 100.8703 0.0000
# 6 0.0000 0.0000 0.0000 0.0000 0.0000 29.1573
#
#
#
# Elastic Compliance Matrix: (Units=1/GPa)
#
#
# Indices 1 2 3 4 5 6 
#
# 1 0.047499 -0.035986 -0.003277 0.000000 0.000000 0.000000
# 2 -0.035986 0.047498 -0.003277 0.000000 0.000000 0.000000
# 3 -0.003277 -0.003277 0.015735 0.000000 0.000000 0.000000
# 4 0.000000 0.000000 0.000000 0.009913 0.000000 0.000000
# 5 0.000000 0.000000 0.000000 0.000000 0.009914 0.000000
# 6 0.000000 0.000000 0.000000 0.000000 0.000000 0.034297
#
#
# Mechanical properties :
#
#
# Convention : Reuss Voigt Hill
#
# Bulk Modulus (GPa) = 38.98189 39.03033 39.00611
# Shear Modulus (GPa) = 19.34338 52.73349 36.03844
#
# Velocity S-wave (km/s) = 3.28524 5.42430 4.48418
# Velocity P-wave (km/s) = 6.01170 7.81076 6.96952
#
# Compressibility (1/GPa) = 0.02565294
#
# Stress axis : x y z
#
# Youngs Moduli (GPa) = 21.05312 21.05331 63.55296
#
# Poissons Ratio (x) = 0.75762 0.20826
# Poissons Ratio (y) = 0.75761 0.20826
# Poissons Ratio (z) = 0.06899 0.06899
#
# Static dielectric constant tensor:
#      x y z
#    x 1.622790 0.000000 0.000000 
#    y 0.000000 1.622790 0.000000 
#    z 0.000000 0.000000 1.597750 
# 
# From -- ./inp_files/7385.got.cif
#   From: 2010.05.17/outbox.cif.g08.bks.cpg/sg136_4_cif.got.tgz:7385.got - 2010.05.20 12:54:53.
