data_PCOD9569817
_publ_section_title
;
Structure prediction by ZEFSAII (Michael W. Deem and Ramdas Pophale) SiO2 
 PCOD9569817
Probable space group: P 42/M N M
;
_chemical_formula_sum "Si O2"
_cell_formula_units_Z 80
_cell_length_a 22.911044
_cell_length_b 22.911044
_cell_length_c 10.538143
_cell_angle_alpha 90.000000
_cell_angle_beta 90.000000
_cell_angle_gamma 90.000000
_cell_volume 5531.639209
_symmetry_space_group_name_H-M "P 42/M N M"
_symmetry_group_IT_number 136
_symmetry_cell_setting 'tetragonal'
loop_
_space_group_symop_operation_xyz
x,y,z
1/2-y,1/2+x,1/2+z
-x,-y,z
1/2+y,1/2-x,1/2+z
1/2+x,1/2-y,1/2-z
1/2-x,1/2+y,1/2-z
y,x,-z
-y,-x,-z
-x,-y,-z
1/2+y,1/2-x,1/2-z
x,y,-z
1/2-y,1/2+x,1/2-z
1/2-x,1/2+y,1/2+z
1/2+x,1/2-y,1/2+z
-y,-x,z
y,x,z
loop_
_atom_site_type_symbol
_atom_site_label
_atom_site_fract_x
_atom_site_fract_y
_atom_site_fract_z
Si Si1 0.258019 0.641396 0.000000
Si Si2 0.453427 0.645400 0.000000
Si Si3 0.772618 0.127302 0.646935
Si Si4 0.817551 0.716807 0.237769
Si Si5 0.369096 0.531142 0.500000
Si Si6 0.627577 0.272423 0.500000
Si Si7 0.038896 0.862622 0.261214
O O1 0.221042 0.651512 0.873127
O O2 0.308338 0.691663 0.000000
O O3 0.293134 0.580796 0.000000
O O4 0.492510 0.638259 0.874996
O O5 0.404635 0.595366 0.000000
O O6 0.762937 0.109755 0.500000
O O7 0.821066 0.178935 0.643535
O O8 0.715415 0.156688 0.706470
O O9 0.802742 0.075760 0.725685
O O10 0.766914 0.766914 0.237840
O O11 0.861352 0.734318 0.125105
O O12 0.423020 0.576981 0.500000
O O13 0.309470 0.568706 0.500000
O O14 0.370376 0.492371 0.626593
O O15 0.678915 0.321086 0.500000
O O16 0.084556 0.915445 0.280815
#
# Coordination Sequence:
#
# PCOD9569817 Si02
#       7
#     8   8  16  16   8   8  16
#     4   9  18  28  40  65  90 105 134 180 228 275
#     4  11  21  33  47  62  86 121 161 199 227 260
#     4   9  16  29  47  65  82 105 143 186 227 278
#     4   9  15  26  46  66  84 104 131 175 228 283
#     4  11  23  35  45  62  90 121 161 207 241 264
#     4   9  16  28  46  63  80 111 146 178 226 281
#     4  11  22  34  47  62  85 120 164 205 233 259
#
# _framework density 14.462258
#
# number of rings (size 3 to 8) (size 9 to 14) (size 15 to 20)
#    0.000    2.200    2.000    2.400    0.000    6.400 
#    0.000    3.000    0.000    0.000    0.000    0.000 
#    0.000    0.000    0.000    0.000    0.000   70.000 
#
# Total GULP energy -445893.494730 kJ/mol
# GULP energy per Si atom -5573.668684 kJ/mol
# Density = 1.442934 g / cm^3
# Si number density = 14.462258 Si / 1000 Ang^3
#
#
#
# Elastic Constant Matrix: (Units=GPa)
#
#
# Indices 1 2 3 4 5 6 
#
# 1 48.7750 52.5546 44.3175 0.0000 0.0000 0.0000
# 2 52.5546 48.7763 44.3185 0.0000 0.0000 0.0000
# 3 44.3175 44.3185 136.8460 0.0000 0.0000 0.0000
# 4 0.0000 0.0000 0.0000 17.8913 0.0000 0.0000
# 5 0.0000 0.0000 0.0000 0.0000 17.8950 0.0000
# 6 0.0000 0.0000 0.0000 0.0000 0.0000 27.8256
#
#
#
# Elastic Compliance Matrix: (Units=1/GPa)
#
#
# Indices 1 2 3 4 5 6 
#
# 1 -0.125427 0.139195 -0.004460 0.000000 0.000000 0.000000
# 2 0.139195 -0.125425 -0.004459 0.000000 0.000000 0.000000
# 3 -0.004460 -0.004459 0.010196 0.000000 0.000000 0.000000
# 4 0.000000 0.000000 0.000000 0.055893 0.000000 0.000000
# 5 0.000000 0.000000 0.000000 0.000000 0.055881 0.000000
# 6 0.000000 0.000000 0.000000 0.000000 0.000000 0.035938
#
#
# Mechanical properties :
#
#
# Convention : Reuss Voigt Hill
#
# Bulk Modulus (GPa) = 50.25767 57.41982 53.83874
# Shear Modulus (GPa) = -14.41486 18.93617 2.26065
#
# Velocity S-wave (km/s) = -3.16052 3.62242 1.25161
# Velocity P-wave (km/s) = 4.63766 7.56871 6.27667
#
# Compressibility (1/GPa) = 0.01989746
#
# Stress axis : x y z
#
# Youngs Moduli (GPa) = -7.97276 -7.97291 98.07998
#
# Poissons Ratio (x) = 1.10979 0.43742
# Poissons Ratio (y) = 1.10977 0.43730
# Poissons Ratio (z) = -0.03556 -0.03555
#
# Static dielectric constant tensor:
#      x y z
#    x 1.465510 0.000000 0.000000 
#    y 0.000000 1.465510 0.000000 
#    z 0.000000 0.000000 1.478600 
# 
# From -- ./inp_files/1884.got.cif
#   From: 2010.05.17/outbox.cif.g08.bks.cpg/sg136_1_cif.got.tgz:1884.got - 2010.05.20 12:54:53.
