data_PCOD9569072
_publ_section_title
;
Structure prediction by ZEFSAII (Michael W. Deem and Ramdas Pophale) SiO2 
 PCOD9569072
Probable space group: P 42/M B C
;
_chemical_formula_sum "Si O2"
_cell_formula_units_Z 96
_cell_length_a 24.000000
_cell_length_b 24.000000
_cell_length_c 9.000000
_cell_angle_alpha 90.000000
_cell_angle_beta 90.000000
_cell_angle_gamma 90.000000
_cell_volume 5184.000000
_symmetry_space_group_name_H-M "P 42/M B C"
_symmetry_group_IT_number 135
_symmetry_cell_setting 'tetragonal'
loop_
_space_group_symop_operation_xyz
x,y,z
-y,x,1/2+z
-x,-y,z
y,-x,1/2+z
1/2+x,1/2-y,-z
1/2-x,1/2+y,-z
1/2+y,1/2+x,1/2-z
1/2-y,1/2-x,1/2-z
-x,-y,-z
y,-x,1/2-z
x,y,-z
-y,x,1/2-z
1/2-x,1/2+y,z
1/2+x,1/2-y,z
1/2-y,1/2-x,1/2+z
1/2+y,1/2+x,1/2+z
loop_
_atom_site_type_symbol
_atom_site_label
_atom_site_fract_x
_atom_site_fract_y
_atom_site_fract_z
Si Si1 0.493513 0.798884 0.323480
Si Si2 0.695570 0.723243 0.822939
Si Si3 0.502291 0.083610 0.177601
Si Si4 0.579207 0.699377 0.324320
Si Si5 0.367047 0.786704 0.677238
Si Si6 0.420895 0.528107 0.178338
O O1 0.494877 0.813391 0.500000
O O2 0.505763 0.853204 0.227394
O O3 0.536175 0.749213 0.298155
O O4 0.431251 0.778900 0.286311
O O5 0.721760 0.778241 0.750000
O O6 0.634232 0.710456 0.768369
O O7 0.735586 0.672057 0.775374
O O8 0.697776 0.728198 0.000000
O O9 0.453672 0.046329 0.250000
O O10 0.558584 0.058584 0.250000
O O11 0.503406 0.077269 0.000000
O O12 0.593129 0.698891 0.500000
O O13 0.551283 0.640205 0.289036
O O14 0.341702 0.841702 0.750000
O O15 0.362240 0.791775 0.500000
O O16 0.468256 0.567899 0.247202
O O17 0.427797 0.523953 0.000000
#
# Coordination Sequence:
#
# PCOD9569072 Si02
#       6
#    16  16  16  16  16  16
#     4  10  21  38  57  82 116 150 187 233 285 338
#     4  10  21  38  61  84 113 151 193 237 284 343
#     4  11  22  38  60  86 115 151 192 234 284 339
#     4  10  23  39  58  85 118 156 195 239 291 344
#     4   9  19  35  58  84 110 145 183 229 283 332
#     4  10  21  38  61  87 117 154 195 244 297 353
#
# _framework density 18.518519000000001
#
# number of rings (size 3 to 8) (size 9 to 14) (size 15 to 20)
#    0.000    2.000    0.000    4.000    2.333    5.333 
#    0.000    0.000    0.000    0.000    0.000    0.000 
#    0.000    0.000    0.000    0.000    0.000    0.000 
#
# Total GULP energy -536102.325433 kJ/mol
# GULP energy per Si atom -5584.399223 kJ/mol
# Density = 1.847637 g / cm^3
# Si number density = 18.518519 Si / 1000 Ang^3
#
#
#
# Elastic Constant Matrix: (Units=GPa)
#
#
# Indices 1 2 3 4 5 6 
#
# 1 99.0274 58.0624 67.7903 0.0000 0.0000 0.0000
# 2 58.0624 99.0183 67.7880 0.0000 0.0000 0.0000
# 3 67.7903 67.7880 83.9665 0.0000 0.0000 0.0000
# 4 0.0000 0.0000 0.0000 26.6223 0.0000 0.0000
# 5 0.0000 0.0000 0.0000 0.0000 26.6228 0.0000
# 6 0.0000 0.0000 0.0000 0.0000 0.0000 11.8726
#
#
#
# Elastic Compliance Matrix: (Units=1/GPa)
#
#
# Indices 1 2 3 4 5 6 
#
# 1 0.022704 -0.001709 -0.016950 0.000000 0.000000 0.000000
# 2 -0.001709 0.022706 -0.016952 0.000000 0.000000 0.000000
# 3 -0.016950 -0.016952 0.039280 0.000000 0.000000 0.000000
# 4 0.000000 0.000000 0.000000 0.037563 0.000000 0.000000
# 5 0.000000 0.000000 0.000000 0.000000 0.037562 0.000000
# 6 0.000000 0.000000 0.000000 0.000000 0.000000 0.084228
#
#
# Mechanical properties :
#
#
# Convention : Reuss Voigt Hill
#
# Bulk Modulus (GPa) = 74.24876 74.36595 74.30736
# Shear Modulus (GPa) = 15.63711 18.91495 17.27603
#
# Velocity S-wave (km/s) = 2.90902 3.19941 3.05766
# Velocity P-wave (km/s) = 7.17388 7.34119 7.25802
#
# Compressibility (1/GPa) = 0.01346824
#
# Stress axis : x y z
#
# Youngs Moduli (GPa) = 44.04595 44.04071 25.45855
#
# Poissons Ratio (x) = 0.07526 0.43152
# Poissons Ratio (y) = 0.07527 0.43156
# Poissons Ratio (z) = 0.74658 0.74656
#
# Static dielectric constant tensor:
#      x y z
#    x 1.624600 0.000000 0.000000 
#    y 0.000000 1.624600 0.000000 
#    z 0.000000 0.000000 1.620950 
# 
# From -- ./inp_files/1207.got.cif
#   From: 2010.05.17/outbox.ucp.g08.bks.cvg/sg135_1_cif.got.tgz:1207.got - 2010.06.11 11:40:18.
