data_PCOD9569554
_publ_section_title
;
Structure prediction by ZEFSAII (Michael W. Deem and Ramdas Pophale) SiO2 
 PCOD9569554
Probable space group: P 42/M N M
;
_chemical_formula_sum "Si O2"
_cell_formula_units_Z 96
_cell_length_a 23.701329
_cell_length_b 23.701329
_cell_length_c 7.532283
_cell_angle_alpha 90.000000
_cell_angle_beta 90.000000
_cell_angle_gamma 90.000000
_cell_volume 4231.282545
_symmetry_space_group_name_H-M "P 42/M N M"
_symmetry_group_IT_number 136
_symmetry_cell_setting 'tetragonal'
loop_
_space_group_symop_operation_xyz
x,y,z
1/2-y,1/2+x,1/2+z
-x,-y,z
1/2+y,1/2-x,1/2+z
1/2+x,1/2-y,1/2-z
1/2-x,1/2+y,1/2-z
y,x,-z
-y,-x,-z
-x,-y,-z
1/2+y,1/2-x,1/2-z
x,y,-z
1/2-y,1/2+x,1/2-z
1/2-x,1/2+y,1/2+z
1/2+x,1/2-y,1/2+z
-y,-x,z
y,x,z
loop_
_atom_site_type_symbol
_atom_site_label
_atom_site_fract_x
_atom_site_fract_y
_atom_site_fract_z
Si Si1 0.972976 0.882997 0.217617
Si Si2 0.388412 0.707971 0.699595
Si Si3 0.829214 0.085126 0.783809
Si Si4 0.919626 0.297483 0.217331
Si Si5 0.297656 0.792371 0.205032
Si Si6 0.413573 0.970150 0.794400
O O1 0.938119 0.938119 0.275073
O O2 0.940037 0.826600 0.278524
O O3 0.037008 0.873631 0.268528
O O4 0.970366 0.882967 0.000000
O O5 0.403752 0.725966 0.500000
O O6 0.340478 0.659523 0.688924
O O7 0.356878 0.759384 0.789559
O O8 0.854235 0.145766 0.727820
O O9 0.766627 0.068101 0.725110
O O10 0.827486 0.086125 0.000000
O O11 0.854722 0.305214 0.277568
O O12 0.956566 0.351044 0.277497
O O13 0.922971 0.297193 0.000000
O O14 0.249519 0.750482 0.282955
O O15 0.281788 0.800698 0.000000
O O16 0.464722 0.932966 0.716213
O O17 0.412799 0.954057 0.000000
#
# Coordination Sequence:
#
# PCOD9569554 Si02
#       6
#    16  16  16  16  16  16
#     4   8  14  24  38  59  89 123 156 191 231 274
#     4   8  14  25  40  60  89 121 151 188 236 284
#     4   9  16  26  41  62  91 126 161 195 231 273
#     4   9  18  30  44  65  92 122 154 191 236 281
#     4   9  16  27  44  65  91 123 160 200 237 275
#     4  10  20  36  56  76 100 126 156 195 238 287
#
# _framework density 22.688157
#
# number of rings (size 3 to 8) (size 9 to 14) (size 15 to 20)
#    0.000    3.167    0.000    2.500    0.000    3.667 
#    0.000    5.000    0.000    0.000    0.000    1.167 
#    0.000    4.667    0.000    6.500    0.000    6.667 
#
# Total GULP energy -534885.435224 kJ/mol
# GULP energy per Si atom -5571.723284 kJ/mol
# Density = 2.263652 g / cm^3
# Si number density = 22.688157 Si / 1000 Ang^3
#
#
#
# Elastic Constant Matrix: (Units=GPa)
#
#
# Indices 1 2 3 4 5 6 
#
# 1 133.3292 76.9815 -1.9572 0.0000 0.0000 0.0000
# 2 76.9815 133.3292 -1.9572 0.0000 0.0000 0.0000
# 3 -1.9572 -1.9572 47.9362 0.0000 0.0000 0.0000
# 4 0.0000 0.0000 0.0000 1.7206 0.0000 0.0000
# 5 0.0000 0.0000 0.0000 0.0000 1.7206 0.0000
# 6 0.0000 0.0000 0.0000 0.0000 0.0000 33.0766
#
#
#
# Elastic Compliance Matrix: (Units=1/GPa)
#
#
# Indices 1 2 3 4 5 6 
#
# 1 0.011253 -0.006494 0.000194 0.000000 0.000000 0.000000
# 2 -0.006494 0.011253 0.000194 0.000000 0.000000 0.000000
# 3 0.000194 0.000194 0.020877 0.000000 0.000000 0.000000
# 4 0.000000 0.000000 0.000000 0.581182 0.000000 0.000000
# 5 0.000000 0.000000 0.000000 0.000000 0.581182 0.000000
# 6 0.000000 0.000000 0.000000 0.000000 0.000000 0.030233
#
#
# Mechanical properties :
#
#
# Convention : Reuss Voigt Hill
#
# Bulk Modulus (GPa) = 32.08102 51.19208 41.63655
# Shear Modulus (GPa) = 3.97273 23.40541 13.68907
#
# Velocity S-wave (km/s) = 1.32469 3.21536 2.45900
# Velocity P-wave (km/s) = 4.06330 6.03300 5.14332
#
# Compressibility (1/GPa) = 0.03117107
#
# Stress axis : x y z
#
# Youngs Moduli (GPa) = 88.86737 88.86737 47.89972
#
# Poissons Ratio (x) = 0.57713 -0.00931
# Poissons Ratio (y) = 0.57713 -0.00931
# Poissons Ratio (z) = -0.01727 -0.01727
#
# Static dielectric constant tensor:
#      x y z
#    x 1.849700 0.000000 0.000000 
#    y 0.000000 1.849700 0.000000 
#    z 0.000000 0.000000 1.850830 
# 
# From -- ./inp_files/2015.got.cif
#   From: 2010.05.17/outbox.cif.g08.bks.cpg/sg136_2_cif.got.tgz:2015.got - 2010.05.20 12:54:53.
