data_PCOD9569650
_publ_section_title
;
Structure prediction by ZEFSAII (Michael W. Deem and Ramdas Pophale) SiO2 
 PCOD9569650
Probable space group: P 42/M N M
;
_chemical_formula_sum "Si O2"
_cell_formula_units_Z 96
_cell_length_a 24.816694
_cell_length_b 24.816694
_cell_length_c 7.728871
_cell_angle_alpha 90.000000
_cell_angle_beta 90.000000
_cell_angle_gamma 90.000000
_cell_volume 4759.966652
_symmetry_space_group_name_H-M "P 42/M N M"
_symmetry_group_IT_number 136
_symmetry_cell_setting 'tetragonal'
loop_
_space_group_symop_operation_xyz
x,y,z
1/2-y,1/2+x,1/2+z
-x,-y,z
1/2+y,1/2-x,1/2+z
1/2+x,1/2-y,1/2-z
1/2-x,1/2+y,1/2-z
y,x,-z
-y,-x,-z
-x,-y,-z
1/2+y,1/2-x,1/2-z
x,y,-z
1/2-y,1/2+x,1/2-z
1/2-x,1/2+y,1/2+z
1/2+x,1/2-y,1/2+z
-y,-x,z
y,x,z
loop_
_atom_site_type_symbol
_atom_site_label
_atom_site_fract_x
_atom_site_fract_y
_atom_site_fract_z
Si Si1 0.561362 0.646768 0.290434
Si Si2 0.439341 0.645989 0.709376
Si Si3 0.069054 0.448026 0.298773
Si Si4 0.853185 0.355760 0.201011
Si Si5 0.765149 0.149199 0.703247
Si Si6 0.766148 0.851221 0.706268
O O1 0.561205 0.649429 0.500000
O O2 0.591787 0.591787 0.240667
O O3 0.500312 0.649335 0.228228
O O4 0.598739 0.695151 0.225894
O O5 0.440334 0.645859 0.500000
O O6 0.407764 0.592237 0.765697
O O7 0.402433 0.695756 0.765780
O O8 0.082662 0.456967 0.500000
O O9 0.071272 0.506927 0.213011
O O10 0.109043 0.402321 0.225227
O O11 0.862400 0.291743 0.209668
O O12 0.793283 0.361658 0.278995
O O13 0.849958 0.373005 0.000000
O O14 0.755288 0.157707 0.500000
O O15 0.798612 0.201388 0.770558
O O16 0.760163 0.842486 0.500000
O O17 0.799373 0.799373 0.775891
#
# Coordination Sequence:
#
# PCOD9569650 Si02
#       6
#    16  16  16  16  16  16
#     4   9  18  33  52  73 101 139 177 212 254 303
#     4   9  18  32  50  74 103 134 172 218 260 296
#     4  10  21  38  58  79 105 136 170 210 258 307
#     4  10  21  36  56  80 103 133 172 208 248 306
#     4  10  21  35  52  77 107 136 168 211 259 302
#     4   9  18  33  52  74 103 138 171 205 250 303
#
# _framework density 20.168208
#
# number of rings (size 3 to 8) (size 9 to 14) (size 15 to 20)
#    0.000    2.500    0.000    2.000    0.000    6.000 
#    0.000    6.667    0.000    0.000    0.000    4.667 
#    0.000    0.000    0.000    0.000    0.000    0.000 
#
# Total GULP energy -535606.726001 kJ/mol
# GULP energy per Si atom -5579.236729 kJ/mol
# Density = 2.012230 g / cm^3
# Si number density = 20.168208 Si / 1000 Ang^3
#
#
#
# Elastic Constant Matrix: (Units=GPa)
#
#
# Indices 1 2 3 4 5 6 
#
# 1 136.1212 64.8466 -7.6160 0.0000 0.0000 0.0000
# 2 64.8466 136.1212 -7.6160 0.0000 0.0000 0.0000
# 3 -7.6160 -7.6160 32.4296 0.0000 0.0000 0.0000
# 4 0.0000 0.0000 0.0000 12.6640 0.0000 0.0000
# 5 0.0000 0.0000 0.0000 0.0000 12.6640 0.0000
# 6 0.0000 0.0000 0.0000 0.0000 0.0000 26.2220
#
#
#
# Elastic Compliance Matrix: (Units=1/GPa)
#
#
# Indices 1 2 3 4 5 6 
#
# 1 0.009548 -0.004482 0.001190 0.000000 0.000000 0.000000
# 2 -0.004482 0.009548 0.001190 0.000000 0.000000 0.000000
# 3 0.001190 0.001190 0.031395 0.000000 0.000000 0.000000
# 4 0.000000 0.000000 0.000000 0.078964 0.000000 0.000000
# 5 0.000000 0.000000 0.000000 0.000000 0.078964 0.000000
# 6 0.000000 0.000000 0.000000 0.000000 0.000000 0.038136
#
#
# Mechanical properties :
#
#
# Convention : Reuss Voigt Hill
#
# Bulk Modulus (GPa) = 21.60477 44.87792 33.24134
# Shear Modulus (GPa) = 18.78365 27.31382 23.04873
#
# Velocity S-wave (km/s) = 3.05511 3.68407 3.38424
# Velocity P-wave (km/s) = 4.81461 6.35584 5.63814
#
# Compressibility (1/GPa) = 0.04628608
#
# Stress axis : x y z
#
# Youngs Moduli (GPa) = 104.73214 104.73214 31.85234
#
# Poissons Ratio (x) = 0.46942 -0.03790
# Poissons Ratio (y) = 0.46942 -0.03790
# Poissons Ratio (z) = -0.12461 -0.12461
#
# Static dielectric constant tensor:
#      x y z
#    x 1.705750 0.000000 0.000000 
#    y 0.000000 1.705750 0.000000 
#    z 0.000000 0.000000 1.754110 
# 
# From -- ./inp_files/1916.got.cif
#   From: 2010.05.17/outbox.cif.g08.bks.cpg/sg136_1_cif.got.tgz:1916.got - 2010.05.20 12:54:53.
