data_PCOD9569798
_publ_section_title
;
Structure prediction by ZEFSAII (Michael W. Deem and Ramdas Pophale) SiO2 
 PCOD9569798
Probable space group: P 42/M N M
;
_chemical_formula_sum "Si O2"
_cell_formula_units_Z 96
_cell_length_a 15.476829
_cell_length_b 15.476829
_cell_length_c 22.614676
_cell_angle_alpha 90.000000
_cell_angle_beta 90.000000
_cell_angle_gamma 90.000000
_cell_volume 5416.943906
_symmetry_space_group_name_H-M "P 42/M N M"
_symmetry_group_IT_number 136
_symmetry_cell_setting 'tetragonal'
loop_
_space_group_symop_operation_xyz
x,y,z
1/2-y,1/2+x,1/2+z
-x,-y,z
1/2+y,1/2-x,1/2+z
1/2+x,1/2-y,1/2-z
1/2-x,1/2+y,1/2-z
y,x,-z
-y,-x,-z
-x,-y,-z
1/2+y,1/2-x,1/2-z
x,y,-z
1/2-y,1/2+x,1/2-z
1/2-x,1/2+y,1/2+z
1/2+x,1/2-y,1/2+z
-y,-x,z
y,x,z
loop_
_atom_site_type_symbol
_atom_site_label
_atom_site_fract_x
_atom_site_fract_y
_atom_site_fract_z
Si Si1 0.559919 0.911787 0.900025
Si Si2 0.289532 0.849673 0.845677
Si Si3 0.072561 0.265594 0.432018
Si Si4 0.570900 0.429101 0.570989
Si Si5 0.932092 0.932092 0.570964
Si Si6 0.008455 0.263038 0.067678
Si Si7 0.113762 0.416536 0.764916
O O1 0.502644 0.837193 0.929396
O O2 0.584729 0.877037 0.835043
O O3 0.500000 0.000000 0.895758
O O4 0.650582 0.933311 0.930968
O O5 0.199892 0.800109 0.844045
O O6 0.357397 0.794213 0.883897
O O7 0.281244 0.936233 0.883637
O O8 0.323736 0.867314 0.779813
O O9 0.106183 0.264344 0.500000
O O10 0.046616 0.167805 0.415660
O O11 0.500000 0.500000 0.593757
O O12 0.565505 0.434496 0.500000
O O13 0.670930 0.449839 0.584728
O O14 0.937588 0.937588 0.500000
O O15 0.000000 0.000000 0.596860
O O16 0.974544 0.254491 0.000000
O O17 0.116289 0.517130 0.747610
#
# Coordination Sequence:
#
# PCOD9569798 Si02
#       7
#    16  16  16   8   8  16  16
#     4  12  21  36  61  90 121 153 195 249 307 363
#     4  12  23  35  58  91 118 151 203 253 298 355
#     4  11  21  34  58  89 122 153 187 244 307 357
#     4   9  20  40  58  77 117 170 204 228 284 365
#     4   9  20  40  58  77 115 166 202 226 282 363
#     4  11  22  37  60  88 123 158 193 247 308 363
#     4  11  18  38  59  75 108 161 193 233 295 352
#
# _framework density 17.722169999999998
#
# number of rings (size 3 to 8) (size 9 to 14) (size 15 to 20)
#    0.000    1.000    7.500    1.500    0.000    2.333 
#    3.000    0.000    0.000    0.000    0.000    2.333 
#    0.000    0.000    0.000    0.000    0.000    0.000 
#
# Total GULP energy -535187.381991 kJ/mol
# GULP energy per Si atom -5574.868562 kJ/mol
# Density = 1.768183 g / cm^3
# Si number density = 17.722170 Si / 1000 Ang^3
#
#
#
# Elastic Constant Matrix: (Units=GPa)
#
#
# Indices 1 2 3 4 5 6 
#
# 1 87.7524 48.5224 13.7481 0.0000 0.0000 0.0000
# 2 48.5224 87.7522 13.7483 0.0000 0.0000 0.0000
# 3 13.7481 13.7483 86.0712 0.0000 0.0000 0.0000
# 4 0.0000 0.0000 0.0000 11.3258 0.0000 0.0000
# 5 0.0000 0.0000 0.0000 0.0000 11.3266 0.0000
# 6 0.0000 0.0000 0.0000 0.0000 0.0000 36.8157
#
#
#
# Elastic Compliance Matrix: (Units=1/GPa)
#
#
# Indices 1 2 3 4 5 6 
#
# 1 0.016537 -0.008954 -0.001211 0.000000 0.000000 0.000000
# 2 -0.008954 0.016537 -0.001211 0.000000 0.000000 0.000000
# 3 -0.001211 -0.001211 0.012005 0.000000 0.000000 0.000000
# 4 0.000000 0.000000 0.000000 0.088294 0.000000 0.000000
# 5 0.000000 0.000000 0.000000 0.000000 0.088288 0.000000
# 6 0.000000 0.000000 0.000000 0.000000 0.000000 0.027162
#
#
# Mechanical properties :
#
#
# Convention : Reuss Voigt Hill
#
# Bulk Modulus (GPa) = 44.79169 45.95705 45.37437
# Shear Modulus (GPa) = 17.92003 24.26408 21.09205
#
# Velocity S-wave (km/s) = 3.18333 3.70420 3.45360
# Velocity P-wave (km/s) = 6.23223 6.65455 6.44685
#
# Compressibility (1/GPa) = 0.02232557
#
# Stress axis : x y z
#
# Youngs Moduli (GPa) = 60.47185 60.47167 83.29722
#
# Poissons Ratio (x) = 0.54147 0.10088
# Poissons Ratio (y) = 0.54147 0.10089
# Poissons Ratio (z) = 0.07324 0.07324
#
# Static dielectric constant tensor:
#      x y z
#    x 1.618060 0.000000 0.000000 
#    y 0.000000 1.618060 0.000000 
#    z 0.000000 0.000000 1.623280 
# 
# From -- ./inp_files/8434.got.cif
#   From: 2010.05.17/outbox.cif.g08.bks.cpg/sg136_5_cif.got.tgz:8434.got - 2010.05.20 12:54:53.
