data_PCOD9569183
_publ_section_title
;
Structure prediction by ZEFSAII (Michael W. Deem and Ramdas Pophale) SiO2 
 PCOD9569183
Probable space group: P 42/M N M
;
_chemical_formula_sum "Si O2"
_cell_formula_units_Z 80
_cell_length_a 13.161164
_cell_length_b 13.161164
_cell_length_c 28.051824
_cell_angle_alpha 90.000000
_cell_angle_beta 90.000000
_cell_angle_gamma 90.000000
_cell_volume 4859.031418
_symmetry_space_group_name_H-M "P 42/M N M"
_symmetry_group_IT_number 136
_symmetry_cell_setting 'tetragonal'
loop_
_space_group_symop_operation_xyz
x,y,z
1/2-y,1/2+x,1/2+z
-x,-y,z
1/2+y,1/2-x,1/2+z
1/2+x,1/2-y,1/2-z
1/2-x,1/2+y,1/2-z
y,x,-z
-y,-x,-z
-x,-y,-z
1/2+y,1/2-x,1/2-z
x,y,-z
1/2-y,1/2+x,1/2-z
1/2-x,1/2+y,1/2+z
1/2+x,1/2-y,1/2+z
-y,-x,z
y,x,z
loop_
_atom_site_type_symbol
_atom_site_label
_atom_site_fract_x
_atom_site_fract_y
_atom_site_fract_z
Si Si1 0.544098 0.111480 0.862244
Si Si2 0.809044 0.635576 0.554809
Si Si3 0.514743 0.786034 0.297152
Si Si4 0.335440 0.506208 0.392715
Si Si5 0.209047 0.376571 0.799745
O O1 0.601448 0.155292 0.907914
O O2 0.457736 0.184044 0.841036
O O3 0.500000 0.000000 0.874751
O O4 0.626311 0.085060 0.820981
O O5 0.840498 0.626931 0.500000
O O6 0.724882 0.724882 0.558304
O O7 0.754822 0.531954 0.573320
O O8 0.503427 0.702272 0.338361
O O9 0.565314 0.754067 0.247778
O O10 0.402178 0.829769 0.288496
O O11 0.383797 0.616203 0.401861
O O12 0.424496 0.424496 0.399885
O O13 0.288778 0.288778 0.812472
#
# Coordination Sequence:
#
# PCOD9569183 Si02
#       5
#    16  16  16  16  16
#     4   9  19  33  52  73 103 132 169 217 252 302
#     4   9  18  33  53  75  98 131 174 214 260 313
#     4  10  18  32  48  71 102 137 174 206 250 309
#     4   9  17  29  45  70 104 134 164 207 259 312
#     4  11  20  31  51  74 101 138 175 214 256 302
#
# _framework density 16.464186999999999
#
# number of rings (size 3 to 8) (size 9 to 14) (size 15 to 20)
#    0.000    2.400    2.000    1.200    0.000    1.600 
#    0.000    2.000    0.000    3.600    0.000    1.400 
#    0.000    0.000    0.000    0.000    0.000    0.000 
#
# Total GULP energy -445751.655237 kJ/mol
# GULP energy per Si atom -5571.895690 kJ/mol
# Density = 1.642671 g / cm^3
# Si number density = 16.464187 Si / 1000 Ang^3
#
#
#
# Elastic Constant Matrix: (Units=GPa)
#
#
# Indices 1 2 3 4 5 6 
#
# 1 56.6448 27.7105 45.2506 0.0000 0.0000 0.0000
# 2 27.7105 56.6448 45.2506 0.0000 0.0000 0.0000
# 3 45.2506 45.2506 109.5389 0.0000 0.0000 0.0000
# 4 0.0000 0.0000 0.0000 17.8369 0.0000 0.0000
# 5 0.0000 0.0000 0.0000 0.0000 17.8369 0.0000
# 6 0.0000 0.0000 0.0000 0.0000 0.0000 23.2735
#
#
#
# Elastic Compliance Matrix: (Units=1/GPa)
#
#
# Indices 1 2 3 4 5 6 
#
# 1 0.027926 -0.006635 -0.008795 0.000000 0.000000 0.000000
# 2 -0.006635 0.027926 -0.008795 0.000000 0.000000 0.000000
# 3 -0.008795 -0.008795 0.016396 0.000000 0.000000 0.000000
# 4 0.000000 0.000000 0.000000 0.056063 0.000000 0.000000
# 5 0.000000 0.000000 0.000000 0.000000 0.056063 0.000000
# 6 0.000000 0.000000 0.000000 0.000000 0.000000 0.042967
#
#
# Mechanical properties :
#
#
# Convention : Reuss Voigt Hill
#
# Bulk Modulus (GPa) = 42.02340 51.02797 46.52568
# Shear Modulus (GPa) = 17.62272 18.76393 18.19333
#
# Velocity S-wave (km/s) = 3.27520 3.37958 3.32780
# Velocity P-wave (km/s) = 6.31523 6.80363 6.56397
#
# Compressibility (1/GPa) = 0.02379627
#
# Stress axis : x y z
#
# Youngs Moduli (GPa) = 35.80920 35.80920 60.99154
#
# Poissons Ratio (x) = 0.23760 0.53643
# Poissons Ratio (y) = 0.23760 0.53643
# Poissons Ratio (z) = 0.31495 0.31495
#
# Static dielectric constant tensor:
#      x y z
#    x 1.569250 0.000000 0.000000 
#    y 0.000000 1.569250 0.000000 
#    z 0.000000 0.000000 1.541630 
# 
# From -- ./inp_files/8252.got.cif
#   From: 2010.05.17/outbox.cif.g08.bks.cpg/sg136_5_cif.got.tgz:8252.got - 2010.05.20 12:54:53.
