data_PCOD9569658
_publ_section_title
;
Structure prediction by ZEFSAII (Michael W. Deem and Ramdas Pophale) SiO2 
 PCOD9569658
Probable space group: P 42/M N M
;
_chemical_formula_sum "Si O2"
_cell_formula_units_Z 80
_cell_length_a 13.458334
_cell_length_b 13.458334
_cell_length_c 21.674057
_cell_angle_alpha 90.000000
_cell_angle_beta 90.000000
_cell_angle_gamma 90.000000
_cell_volume 3925.751592
_symmetry_space_group_name_H-M "P 42/M N M"
_symmetry_group_IT_number 136
_symmetry_cell_setting 'tetragonal'
loop_
_space_group_symop_operation_xyz
x,y,z
1/2-y,1/2+x,1/2+z
-x,-y,z
1/2+y,1/2-x,1/2+z
1/2+x,1/2-y,1/2-z
1/2-x,1/2+y,1/2-z
y,x,-z
-y,-x,-z
-x,-y,-z
1/2+y,1/2-x,1/2-z
x,y,-z
1/2-y,1/2+x,1/2-z
1/2-x,1/2+y,1/2+z
1/2+x,1/2-y,1/2+z
-y,-x,z
y,x,z
loop_
_atom_site_type_symbol
_atom_site_label
_atom_site_fract_x
_atom_site_fract_y
_atom_site_fract_z
Si Si1 0.703795 0.135158 0.381443
Si Si2 0.236948 0.506660 0.568116
Si Si3 0.340649 0.490740 0.304118
Si Si4 0.561394 0.101205 0.875969
Si Si5 0.697920 0.862053 0.254492
O O1 0.808366 0.191635 0.392317
O O2 0.617455 0.194145 0.418570
O O3 0.675606 0.149656 0.309191
O O4 0.685506 0.018619 0.394687
O O5 0.280331 0.501562 0.500000
O O6 0.309111 0.483739 0.624787
O O7 0.144758 0.430424 0.575138
O O8 0.425717 0.574284 0.300573
O O9 0.387625 0.387625 0.282171
O O10 0.252075 0.535308 0.264387
O O11 0.616065 0.130625 0.812927
O O12 0.500000 0.000000 0.864557
O O13 0.782441 0.782441 0.271662
#
# Coordination Sequence:
#
# PCOD9569658 Si02
#       5
#    16  16  16  16  16
#     4   9  20  34  51  76 102 137 185 231 274 326
#     4  10  21  36  52  76 112 147 179 226 282 331
#     4   9  19  35  54  79 110 146 187 228 272 333
#     4  10  22  33  53  79 108 144 189 231 277 329
#     4   9  19  34  50  74 108 140 174 222 280 328
#
# _framework density 20.378261999999999
#
# number of rings (size 3 to 8) (size 9 to 14) (size 15 to 20)
#    0.000    2.600    0.000    1.800    8.400    7.200 
#    0.000    1.000    0.000    0.000    0.000    0.000 
#    0.000    0.000    0.000   16.000    0.000    0.000 
#
# Total GULP energy -446658.885875 kJ/mol
# GULP energy per Si atom -5583.236073 kJ/mol
# Density = 2.033188 g / cm^3
# Si number density = 20.378262 Si / 1000 Ang^3
#
#
#
# Elastic Constant Matrix: (Units=GPa)
#
#
# Indices 1 2 3 4 5 6 
#
# 1 45.9089 19.7734 3.4155 0.0000 0.0000 0.0000
# 2 19.7734 45.9089 3.4155 0.0000 0.0000 0.0000
# 3 3.4155 3.4155 64.5696 0.0000 0.0000 0.0000
# 4 0.0000 0.0000 0.0000 8.2730 0.0000 0.0000
# 5 0.0000 0.0000 0.0000 0.0000 8.2730 0.0000
# 6 0.0000 0.0000 0.0000 0.0000 0.0000 42.2055
#
#
#
# Elastic Compliance Matrix: (Units=1/GPa)
#
#
# Indices 1 2 3 4 5 6 
#
# 1 0.026786 -0.011477 -0.000810 0.000000 0.000000 0.000000
# 2 -0.011477 0.026786 -0.000810 0.000000 0.000000 0.000000
# 3 -0.000810 -0.000810 0.015573 0.000000 0.000000 0.000000
# 4 0.000000 0.000000 0.000000 0.120875 0.000000 0.000000
# 5 0.000000 0.000000 0.000000 0.000000 0.120875 0.000000
# 6 0.000000 0.000000 0.000000 0.000000 0.000000 0.023694
#
#
# Mechanical properties :
#
#
# Convention : Reuss Voigt Hill
#
# Bulk Modulus (GPa) = 23.28195 23.28846 23.28520
# Shear Modulus (GPa) = 13.32987 20.40251 16.86619
#
# Velocity S-wave (km/s) = 2.56036 3.16759 2.88002
# Velocity P-wave (km/s) = 4.49336 4.98308 4.74454
#
# Compressibility (1/GPa) = 0.04295173
#
# Stress axis : x y z
#
# Youngs Moduli (GPa) = 37.33356 37.33356 64.21444
#
# Poissons Ratio (x) = 0.42846 0.05200
# Poissons Ratio (y) = 0.42846 0.05200
# Poissons Ratio (z) = 0.03023 0.03023
#
# Static dielectric constant tensor:
#      x y z
#    x 1.776190 0.000000 0.000000 
#    y 0.000000 1.776190 0.000000 
#    z 0.000000 0.000000 1.672310 
# 
# From -- ./inp_files/7266.got.cif
#   From: 2010.05.17/outbox.cif.g08.bks.cpg/sg136_4_cif.got.tgz:7266.got - 2010.05.20 12:54:53.
