data_PCOD9569500
_publ_section_title
;
Structure prediction by ZEFSAII (Michael W. Deem and Ramdas Pophale) SiO2 
 PCOD9569500
Probable space group: P 42/M N M
;
_chemical_formula_sum "Si O2"
_cell_formula_units_Z 104
_cell_length_a 18.698615
_cell_length_b 18.698615
_cell_length_c 17.322365
_cell_angle_alpha 90.000000
_cell_angle_beta 90.000000
_cell_angle_gamma 90.000000
_cell_volume 6056.560569
_symmetry_space_group_name_H-M "P 42/M N M"
_symmetry_group_IT_number 136
_symmetry_cell_setting 'tetragonal'
loop_
_space_group_symop_operation_xyz
x,y,z
1/2-y,1/2+x,1/2+z
-x,-y,z
1/2+y,1/2-x,1/2+z
1/2+x,1/2-y,1/2-z
1/2-x,1/2+y,1/2-z
y,x,-z
-y,-x,-z
-x,-y,-z
1/2+y,1/2-x,1/2-z
x,y,-z
1/2-y,1/2+x,1/2-z
1/2-x,1/2+y,1/2+z
1/2+x,1/2-y,1/2+z
-y,-x,z
y,x,z
loop_
_atom_site_type_symbol
_atom_site_label
_atom_site_fract_x
_atom_site_fract_y
_atom_site_fract_z
Si Si1 0.733235 0.850175 0.783345
Si Si2 0.560978 0.439023 0.907317
Si Si3 0.578993 0.840169 0.411797
Si Si4 0.479096 0.710324 0.174093
Si Si5 0.633904 0.911503 0.088503
Si Si6 0.648394 0.984509 0.409492
Si Si7 0.764466 0.117619 0.218671
O O1 0.800665 0.800665 0.802328
O O2 0.761317 0.911914 0.725305
O O3 0.697494 0.884586 0.858275
O O4 0.672022 0.796347 0.751037
O O5 0.500000 0.500000 0.900914
O O6 0.633166 0.464505 0.863459
O O7 0.573265 0.426736 0.000000
O O8 0.603545 0.827379 0.500000
O O9 0.496596 0.862448 0.413480
O O10 0.619512 0.909475 0.377766
O O11 0.589173 0.770791 0.359881
O O12 0.488058 0.767893 0.105881
O O13 0.551051 0.717042 0.225562
O O14 0.556967 0.887073 0.121597
O O15 0.639857 0.884702 0.000000
O O16 0.630498 0.982855 0.500000
O O17 0.834718 0.165283 0.206368
#
# Coordination Sequence:
#
# PCOD9569500 Si02
#       7
#    16   8  16  16  16  16  16
#     4  11  22  37  57  83 111 146 194 242 291 353
#     4  11  26  46  66  90 117 155 207 254 304 359
#     4  10  20  35  56  83 117 154 189 229 282 348
#     4  12  21  39  62  84 114 155 193 244 295 350
#     4  10  20  36  57  82 115 152 188 231 285 346
#     4  10  20  34  55  86 118 149 187 229 283 349
#     4  11  23  37  56  84 114 148 194 243 294 350
#
# _framework density 17.171461999999998
#
# number of rings (size 3 to 8) (size 9 to 14) (size 15 to 20)
#    0.000    1.308    5.385    1.385    0.000    2.462 
#    0.000    0.000    0.000    0.000    0.000    0.000 
#    0.000    4.923    0.000    0.000    0.000    0.000 
#
# Total GULP energy -579831.443023 kJ/mol
# GULP energy per Si atom -5575.302337 kJ/mol
# Density = 1.713238 g / cm^3
# Si number density = 17.171462 Si / 1000 Ang^3
#
#
#
# Elastic Constant Matrix: (Units=GPa)
#
#
# Indices 1 2 3 4 5 6 
#
# 1 112.1201 49.7678 39.0809 0.0000 0.0000 0.0000
# 2 49.7678 112.1202 39.0809 0.0000 0.0000 0.0000
# 3 39.0809 39.0809 57.8836 0.0000 0.0000 0.0000
# 4 0.0000 0.0000 0.0000 27.1863 0.0000 0.0000
# 5 0.0000 0.0000 0.0000 0.0000 27.1865 0.0000
# 6 0.0000 0.0000 0.0000 0.0000 0.0000 36.3917
#
#
#
# Elastic Compliance Matrix: (Units=1/GPa)
#
#
# Indices 1 2 3 4 5 6 
#
# 1 0.012601 -0.003437 -0.006188 0.000000 0.000000 0.000000
# 2 -0.003437 0.012601 -0.006188 0.000000 0.000000 0.000000
# 3 -0.006188 -0.006188 0.025631 0.000000 0.000000 0.000000
# 4 0.000000 0.000000 0.000000 0.036783 0.000000 0.000000
# 5 0.000000 0.000000 0.000000 0.000000 0.036783 0.000000
# 6 0.000000 0.000000 0.000000 0.000000 0.000000 0.027479
#
#
# Mechanical properties :
#
#
# Convention : Reuss Voigt Hill
#
# Bulk Modulus (GPa) = 52.05589 59.77590 55.91590
# Shear Modulus (GPa) = 26.32883 28.43251 27.38067
#
# Velocity S-wave (km/s) = 3.91997 4.07357 3.99751
# Velocity P-wave (km/s) = 7.13228 7.55063 7.34443
#
# Compressibility (1/GPa) = 0.01921012
#
# Stress axis : x y z
#
# Youngs Moduli (GPa) = 79.35735 79.35740 39.01473
#
# Poissons Ratio (x) = 0.27272 0.24141
# Poissons Ratio (y) = 0.27272 0.24141
# Poissons Ratio (z) = 0.49103 0.49103
#
# Static dielectric constant tensor:
#      x y z
#    x 1.571730 0.000000 0.000000 
#    y 0.000000 1.571730 0.000000 
#    z 0.000000 0.000000 1.594830 
# 
# From -- ./inp_files/6431.got.cif
#   From: 2010.05.17/outbox.cif.g08.bks.cpg/sg136_4_cif.got.tgz:6431.got - 2010.05.20 12:54:53.
