data_PCOD9569253
_publ_section_title
;
Structure prediction by ZEFSAII (Michael W. Deem and Ramdas Pophale) SiO2 
 PCOD9569253
Probable space group: P 42/M N M
;
_chemical_formula_sum "Si O2"
_cell_formula_units_Z 72
_cell_length_a 23.304047
_cell_length_b 23.304047
_cell_length_c 9.068892
_cell_angle_alpha 90.000000
_cell_angle_beta 90.000000
_cell_angle_gamma 90.000000
_cell_volume 4925.121231
_symmetry_space_group_name_H-M "P 42/M N M"
_symmetry_group_IT_number 136
_symmetry_cell_setting 'tetragonal'
loop_
_space_group_symop_operation_xyz
x,y,z
1/2-y,1/2+x,1/2+z
-x,-y,z
1/2+y,1/2-x,1/2+z
1/2+x,1/2-y,1/2-z
1/2-x,1/2+y,1/2-z
y,x,-z
-y,-x,-z
-x,-y,-z
1/2+y,1/2-x,1/2-z
x,y,-z
1/2-y,1/2+x,1/2-z
1/2-x,1/2+y,1/2+z
1/2+x,1/2-y,1/2+z
-y,-x,z
y,x,z
loop_
_atom_site_type_symbol
_atom_site_label
_atom_site_fract_x
_atom_site_fract_y
_atom_site_fract_z
Si Si1 0.610609 0.705876 0.323734
Si Si2 0.048570 0.048570 0.326723
Si Si3 0.807858 0.290710 0.330445
Si Si4 0.873608 0.776063 0.674628
Si Si5 0.331178 0.518293 0.323045
O O1 0.614883 0.714626 0.500000
O O2 0.651073 0.651073 0.287592
O O3 0.637144 0.760711 0.242067
O O4 0.545043 0.692050 0.286599
O O5 0.059806 0.059806 0.500000
O O6 0.106595 0.027568 0.249188
O O7 0.000000 0.000000 0.314647
O O8 0.817838 0.306873 0.500000
O O9 0.758982 0.241019 0.328436
O O10 0.780134 0.342427 0.238692
O O11 0.882961 0.770971 0.500000
O O12 0.829385 0.829385 0.698087
O O13 0.931804 0.790997 0.758977
O O14 0.335593 0.523169 0.500000
#
# Coordination Sequence:
#
# PCOD9569253 Si02
#       5
#    16   8  16  16  16
#     4   9  18  32  47  65  90 121 155 191 235 279
#     4  11  23  35  45  61  89 127 167 203 237 274
#     4   9  17  29  47  68  88 113 149 190 234 281
#     4  10  19  31  47  66  91 120 152 192 238 282
#     4  11  21  32  48  67  91 122 160 200 234 277
#
# _framework density 14.618930000000001
#
# number of rings (size 3 to 8) (size 9 to 14) (size 15 to 20)
#    0.000    2.111    1.111    3.000    0.000    7.111 
#    0.000    2.222    0.000    0.000    0.000    0.000 
#    0.000    0.889    0.000    9.333    0.000    4.000 
#
# Total GULP energy -401699.891406 kJ/mol
# GULP energy per Si atom -5579.165158 kJ/mol
# Density = 1.458566 g / cm^3
# Si number density = 14.618930 Si / 1000 Ang^3
#
#
#
# Elastic Constant Matrix: (Units=GPa)
#
#
# Indices 1 2 3 4 5 6 
#
# 1 82.4175 74.3771 61.4167 0.0000 0.0000 0.0000
# 2 74.3771 82.4175 61.4167 0.0000 0.0000 0.0000
# 3 61.4167 61.4167 85.3351 0.0000 0.0000 0.0000
# 4 0.0000 0.0000 0.0000 22.1522 0.0000 0.0000
# 5 0.0000 0.0000 0.0000 0.0000 22.1522 0.0000
# 6 0.0000 0.0000 0.0000 0.0000 0.0000 22.5810
#
#
#
# Elastic Compliance Matrix: (Units=1/GPa)
#
#
# Indices 1 2 3 4 5 6 
#
# 1 0.069497 -0.054875 -0.010524 0.000000 0.000000 0.000000
# 2 -0.054875 0.069497 -0.010524 0.000000 0.000000 0.000000
# 3 -0.010524 -0.010524 0.026867 0.000000 0.000000 0.000000
# 4 0.000000 0.000000 0.000000 0.045142 0.000000 0.000000
# 5 0.000000 0.000000 0.000000 0.000000 0.045142 0.000000
# 6 0.000000 0.000000 0.000000 0.000000 0.000000 0.044285
#
#
# Mechanical properties :
#
#
# Convention : Reuss Voigt Hill
#
# Bulk Modulus (GPa) = 71.34724 71.62124 71.48424
# Shear Modulus (GPa) = 10.94222 16.90770 13.92496
#
# Velocity S-wave (km/s) = 2.73883 3.40452 3.08966
# Velocity P-wave (km/s) = 7.67543 8.03447 7.85700
#
# Compressibility (1/GPa) = 0.01401596
#
# Stress axis : x y z
#
# Youngs Moduli (GPa) = 14.38916 14.38916 37.22099
#
# Poissons Ratio (x) = 0.78960 0.39170
# Poissons Ratio (y) = 0.78960 0.39170
# Poissons Ratio (z) = 0.15143 0.15143
#
# Static dielectric constant tensor:
#      x y z
#    x 1.464020 0.000000 0.000000 
#    y 0.000000 1.464020 0.000000 
#    z 0.000000 0.000000 1.488650 
# 
# From -- ./inp_files/1560.got.cif
#   From: 2010.05.17/outbox.cif.g08.bks.cpg/sg136_1_cif.got.tgz:1560.got - 2010.05.20 12:54:53.
