data_PCOD9569275
_publ_section_title
;
Structure prediction by ZEFSAII (Michael W. Deem and Ramdas Pophale) SiO2 
 PCOD9569275
Probable space group: P 42/M N M
;
_chemical_formula_sum "Si O2"
_cell_formula_units_Z 80
_cell_length_a 16.108286
_cell_length_b 16.108286
_cell_length_c 16.125276
_cell_angle_alpha 90.000000
_cell_angle_beta 90.000000
_cell_angle_gamma 90.000000
_cell_volume 4184.136271
_symmetry_space_group_name_H-M "P 42/M N M"
_symmetry_group_IT_number 136
_symmetry_cell_setting 'tetragonal'
loop_
_space_group_symop_operation_xyz
x,y,z
1/2-y,1/2+x,1/2+z
-x,-y,z
1/2+y,1/2-x,1/2+z
1/2+x,1/2-y,1/2-z
1/2-x,1/2+y,1/2-z
y,x,-z
-y,-x,-z
-x,-y,-z
1/2+y,1/2-x,1/2-z
x,y,-z
1/2-y,1/2+x,1/2-z
1/2-x,1/2+y,1/2+z
1/2+x,1/2-y,1/2+z
-y,-x,z
y,x,z
loop_
_atom_site_type_symbol
_atom_site_label
_atom_site_fract_x
_atom_site_fract_y
_atom_site_fract_z
Si Si1 0.319615 0.544899 0.695104
Si Si2 0.504371 0.369379 0.127474
Si Si3 0.171205 0.313374 0.253543
Si Si4 0.606412 0.748731 0.594704
Si Si5 0.381481 0.237939 0.910692
O O1 0.383475 0.616526 0.665006
O O2 0.362629 0.499564 0.772882
O O3 0.240730 0.589767 0.737498
O O4 0.290768 0.479704 0.626981
O O5 0.595887 0.404114 0.107192
O O6 0.439311 0.439311 0.099896
O O7 0.469889 0.284176 0.092523
O O8 0.245631 0.245631 0.254921
O O9 0.182741 0.364549 0.337988
O O10 0.185250 0.368805 0.171763
O O11 0.600232 0.778403 0.500000
O O12 0.675516 0.675516 0.596707
O O13 0.310746 0.310746 0.907086
O O14 0.370859 0.195415 0.000000
#
# Coordination Sequence:
#
# PCOD9569275 Si02
#       5
#    16  16  16  16  16
#     4  10  19  31  52  79 106 138 176 218 265 318
#     4   9  16  27  45  71 102 129 157 201 259 318
#     4   9  18  33  50  72 105 141 180 220 259 310
#     4  10  20  35  56  81 112 148 180 216 271 334
#     4   9  16  27  45  67  93 128 165 201 248 304
#
# _framework density 19.119835999999999
#
# number of rings (size 3 to 8) (size 9 to 14) (size 15 to 20)
#    0.000    2.600    2.000    0.600    0.000    2.800 
#    0.000    6.000    0.000    4.200    0.000    1.400 
#    0.000    0.000    0.000    0.000    0.000    0.000 
#
# Total GULP energy -445553.426072 kJ/mol
# GULP energy per Si atom -5569.417826 kJ/mol
# Density = 1.907632 g / cm^3
# Si number density = 19.119836 Si / 1000 Ang^3
#
#
#
# Elastic Constant Matrix: (Units=GPa)
#
#
# Indices 1 2 3 4 5 6 
#
# 1 34.1156 25.6533 33.8095 0.0000 0.0000 0.0000
# 2 25.6533 34.1156 33.8095 0.0000 0.0000 0.0000
# 3 33.8095 33.8095 156.3299 0.0000 0.0000 0.0000
# 4 0.0000 0.0000 0.0000 2.7633 0.0000 0.0000
# 5 0.0000 0.0000 0.0000 0.0000 2.7633 0.0000
# 6 0.0000 0.0000 0.0000 0.0000 0.0000 24.9088
#
#
#
# Elastic Compliance Matrix: (Units=1/GPa)
#
#
# Indices 1 2 3 4 5 6 
#
# 1 0.070161 -0.048011 -0.004791 0.000000 0.000000 0.000000
# 2 -0.048011 0.070161 -0.004791 0.000000 0.000000 0.000000
# 3 -0.004791 -0.004791 0.008469 0.000000 0.000000 0.000000
# 4 0.000000 0.000000 0.000000 0.361887 0.000000 0.000000
# 5 0.000000 0.000000 0.000000 0.000000 0.361887 0.000000
# 6 0.000000 0.000000 0.000000 0.000000 0.000000 0.040146
#
#
# Mechanical properties :
#
#
# Convention : Reuss Voigt Hill
#
# Bulk Modulus (GPa) = 29.75454 45.67842 37.71648
# Shear Modulus (GPa) = 4.81186 14.83966 9.82576
#
# Velocity S-wave (km/s) = 1.58813 2.78895 2.26940
# Velocity P-wave (km/s) = 4.35417 5.85777 5.16102
#
# Compressibility (1/GPa) = 0.03360831
#
# Stress axis : x y z
#
# Youngs Moduli (GPa) = 14.25285 14.25285 118.07982
#
# Poissons Ratio (x) = 0.68429 0.56567
# Poissons Ratio (y) = 0.68429 0.56567
# Poissons Ratio (z) = 0.06828 0.06828
#
# Static dielectric constant tensor:
#      x y z
#    x 1.691530 0.000000 0.000000 
#    y 0.000000 1.691530 0.000000 
#    z 0.000000 0.000000 1.698990 
# 
# From -- ./inp_files/4895.got.cif
#   From: 2010.05.17/outbox.cif.g08.bks.cpg/sg136_3_cif.got.tgz:4895.got - 2010.05.20 12:54:53.
