data_PCOD9569235
_publ_section_title
;
Structure prediction by ZEFSAII (Michael W. Deem and Ramdas Pophale) SiO2 
 PCOD9569235
Probable space group: P 42/M N M
;
_chemical_formula_sum "Si O2"
_cell_formula_units_Z 96
_cell_length_a 24.544785
_cell_length_b 24.544785
_cell_length_c 8.702516
_cell_angle_alpha 90.000000
_cell_angle_beta 90.000000
_cell_angle_gamma 90.000000
_cell_volume 5242.800050
_symmetry_space_group_name_H-M "P 42/M N M"
_symmetry_group_IT_number 136
_symmetry_cell_setting 'tetragonal'
loop_
_space_group_symop_operation_xyz
x,y,z
1/2-y,1/2+x,1/2+z
-x,-y,z
1/2+y,1/2-x,1/2+z
1/2+x,1/2-y,1/2-z
1/2-x,1/2+y,1/2-z
y,x,-z
-y,-x,-z
-x,-y,-z
1/2+y,1/2-x,1/2-z
x,y,-z
1/2-y,1/2+x,1/2-z
1/2-x,1/2+y,1/2+z
1/2+x,1/2-y,1/2+z
-y,-x,z
y,x,z
loop_
_atom_site_type_symbol
_atom_site_label
_atom_site_fract_x
_atom_site_fract_y
_atom_site_fract_z
Si Si1 0.776638 0.556683 0.185295
Si Si2 0.433172 0.037578 0.829012
Si Si3 0.932184 0.156673 0.185250
Si Si4 0.143663 0.055470 0.814911
Si Si5 0.736342 0.933190 0.683459
Si Si6 0.146960 0.637649 0.677674
O O1 0.715537 0.571271 0.236202
O O2 0.785804 0.493513 0.237207
O O3 0.817451 0.604377 0.241136
O O4 0.781361 0.556362 0.000000
O O5 0.489823 0.068508 0.794725
O O6 0.387023 0.081759 0.819917
O O7 0.433620 0.013627 0.000000
O O8 0.884523 0.115478 0.231240
O O9 0.992088 0.133078 0.222583
O O10 0.929723 0.163785 0.000000
O O11 0.096281 0.096281 0.763622
O O12 0.202160 0.070191 0.744709
O O13 0.147854 0.059183 0.000000
O O14 0.736155 0.934716 0.500000
O O15 0.701534 0.881157 0.737617
O O16 0.159462 0.651754 0.500000
#
# Coordination Sequence:
#
# PCOD9569235 Si02
#       6
#    16  16  16  16  16  16
#     4   9  19  35  52  72 101 136 172 210 254 303
#     4  10  19  30  44  64  92 124 161 210 264 313
#     4   9  18  33  54  81 109 133 162 203 248 296
#     4   9  18  34  56  80 107 138 167 197 242 302
#     4  10  20  34  53  76 103 134 170 215 260 299
#     4  10  20  33  49  69  95 131 175 215 252 302
#
# _framework density 18.310825999999999
#
# number of rings (size 3 to 8) (size 9 to 14) (size 15 to 20)
#    0.000    2.500    0.000    2.500    0.000    5.000 
#    0.000    2.500    0.000    1.000    0.000    4.667 
#    0.000    0.000    0.000    0.000    0.000    0.000 
#
# Total GULP energy -534936.840084 kJ/mol
# GULP energy per Si atom -5572.258751 kJ/mol
# Density = 1.826915 g / cm^3
# Si number density = 18.310826 Si / 1000 Ang^3
#
#
#
# Elastic Constant Matrix: (Units=GPa)
#
#
# Indices 1 2 3 4 5 6 
#
# 1 69.4008 71.0631 13.6274 0.0000 0.0000 0.0000
# 2 71.0631 69.4008 13.6274 0.0000 0.0000 0.0000
# 3 13.6274 13.6274 11.7504 0.0000 0.0000 0.0000
# 4 0.0000 0.0000 0.0000 18.6329 0.0000 0.0000
# 5 0.0000 0.0000 0.0000 0.0000 18.6329 0.0000
# 6 0.0000 0.0000 0.0000 0.0000 0.0000 38.2702
#
#
#
# Elastic Compliance Matrix: (Units=1/GPa)
#
#
# Indices 1 2 3 4 5 6 
#
# 1 -0.296197 0.305383 -0.010654 0.000000 0.000000 0.000000
# 2 0.305383 -0.296197 -0.010654 0.000000 0.000000 0.000000
# 3 -0.010654 -0.010654 0.109816 0.000000 0.000000 0.000000
# 4 0.000000 0.000000 0.000000 0.053669 0.000000 0.000000
# 5 0.000000 0.000000 0.000000 0.000000 0.053669 0.000000
# 6 0.000000 0.000000 0.000000 0.000000 0.000000 0.026130
#
#
# Mechanical properties :
#
#
# Convention : Reuss Voigt Hill
#
# Bulk Modulus (GPa) = 11.68600 38.57643 25.13121
# Shear Modulus (GPa) = -5.62596 18.58945 6.48175
#
# Velocity S-wave (km/s) = -1.75475 3.18970 1.88349
# Velocity P-wave (km/s) = 1.51339 5.88888 4.29937
#
# Compressibility (1/GPa) = 0.08557251
#
# Stress axis : x y z
#
# Youngs Moduli (GPa) = -3.37613 -3.37613 9.10618
#
# Poissons Ratio (x) = 1.03101 0.09702
# Poissons Ratio (y) = 1.03101 0.09702
# Poissons Ratio (z) = -0.03597 -0.03597
#
# Static dielectric constant tensor:
#      x y z
#    x 1.636570 0.000000 0.000000 
#    y 0.000000 1.636570 0.000000 
#    z 0.000000 0.000000 1.647590 
# 
# From -- ./inp_files/1967.got.cif
#   From: 2010.05.17/outbox.cif.g08.bks.cpg/sg136_1_cif.got.tgz:1967.got - 2010.05.20 12:54:53.
