data_PCOD9569402
_publ_section_title
;
Structure prediction by ZEFSAII (Michael W. Deem and Ramdas Pophale) SiO2 
 PCOD9569402
Probable space group: P 42/M N M
;
_chemical_formula_sum "Si O2"
_cell_formula_units_Z 72
_cell_length_a 26.307246
_cell_length_b 26.307246
_cell_length_c 7.887023
_cell_angle_alpha 90.000000
_cell_angle_beta 90.000000
_cell_angle_gamma 90.000000
_cell_volume 5458.381410
_symmetry_space_group_name_H-M "P 42/M N M"
_symmetry_group_IT_number 136
_symmetry_cell_setting 'tetragonal'
loop_
_space_group_symop_operation_xyz
x,y,z
1/2-y,1/2+x,1/2+z
-x,-y,z
1/2+y,1/2-x,1/2+z
1/2+x,1/2-y,1/2-z
1/2-x,1/2+y,1/2-z
y,x,-z
-y,-x,-z
-x,-y,-z
1/2+y,1/2-x,1/2-z
x,y,-z
1/2-y,1/2+x,1/2-z
1/2-x,1/2+y,1/2+z
1/2+x,1/2-y,1/2+z
-y,-x,z
y,x,z
loop_
_atom_site_type_symbol
_atom_site_label
_atom_site_fract_x
_atom_site_fract_y
_atom_site_fract_z
Si Si1 0.704332 0.617114 0.000000
Si Si2 0.161279 0.994475 0.500000
Si Si3 0.836898 0.749872 0.808468
Si Si4 0.670547 0.757637 0.691787
Si Si5 0.915190 0.998317 0.192322
Si Si6 0.109663 0.196718 0.500000
O O1 0.736470 0.632738 0.833790
O O2 0.652797 0.652797 0.000000
O O3 0.692820 0.557521 0.000000
O O4 0.126243 0.993303 0.333371
O O5 0.187035 0.049750 0.500000
O O6 0.791706 0.791706 0.814073
O O7 0.809573 0.697922 0.750056
O O8 0.874485 0.771277 0.666306
O O9 0.857360 0.745468 0.000000
O O10 0.650280 0.761990 0.500000
O O11 0.715637 0.715637 0.686775
O O12 0.956788 0.043213 0.200972
O O13 0.895107 0.997075 0.000000
O O14 0.946346 0.946346 0.223000
O O15 0.144928 0.144928 0.500000
#
# Coordination Sequence:
#
# PCOD9569402 Si02
#       6
#     8   8  16  16  16   8
#     4  10  20  30  42  63  86 115 147 180 224 261
#     4  12  22  31  42  60  92 120 146 179 224 276
#     4   9  15  26  45  65  83 101 132 180 221 257
#     4   9  15  26  45  65  83 101 132 180 221 257
#     4   9  18  32  48  60  72 104 156 204 235 255
#     4  10  20  30  42  63  86 115 147 180 224 261
#
# _framework density 13.190723
#
# number of rings (size 3 to 8) (size 9 to 14) (size 15 to 20)
#    0.000    2.444    2.222    2.667    0.000    2.667 
#    0.000    4.444    0.000    0.000    0.000    0.000 
#    0.000    0.000    0.000    0.000    0.000    3.333 
#
# Total GULP energy -400984.537932 kJ/mol
# GULP energy per Si atom -5569.229693 kJ/mol
# Density = 1.316070 g / cm^3
# Si number density = 13.190723 Si / 1000 Ang^3
#
#
#
# Elastic Constant Matrix: (Units=GPa)
#
#
# Indices 1 2 3 4 5 6 
#
# 1 58.8541 32.6922 42.4154 0.0000 0.0000 0.0000
# 2 32.6922 58.8541 42.4154 0.0000 0.0000 0.0000
# 3 42.4154 42.4154 121.7271 0.0000 0.0000 0.0000
# 4 0.0000 0.0000 0.0000 27.8967 0.0000 0.0000
# 5 0.0000 0.0000 0.0000 0.0000 27.8967 0.0000
# 6 0.0000 0.0000 0.0000 0.0000 0.0000 8.2302
#
#
#
# Elastic Compliance Matrix: (Units=1/GPa)
#
#
# Indices 1 2 3 4 5 6 
#
# 1 0.027178 -0.011046 -0.005621 0.000000 0.000000 0.000000
# 2 -0.011046 0.027178 -0.005621 0.000000 0.000000 0.000000
# 3 -0.005621 -0.005621 0.012133 0.000000 0.000000 0.000000
# 4 0.000000 0.000000 0.000000 0.035847 0.000000 0.000000
# 5 0.000000 0.000000 0.000000 0.000000 0.035847 0.000000
# 6 0.000000 0.000000 0.000000 0.000000 0.000000 0.121503
#
#
# Mechanical properties :
#
#
# Convention : Reuss Voigt Hill
#
# Bulk Modulus (GPa) = 45.63679 52.72014 49.17847
# Shear Modulus (GPa) = 16.04802 20.93222 18.49012
#
# Velocity S-wave (km/s) = 3.49178 3.98790 3.74806
# Velocity P-wave (km/s) = 7.13649 7.82680 7.48960
#
# Compressibility (1/GPa) = 0.02191215
#
# Stress axis : x y z
#
# Youngs Moduli (GPa) = 36.79453 36.79453 82.42321
#
# Poissons Ratio (x) = 0.40642 0.46332
# Poissons Ratio (y) = 0.40642 0.46332
# Poissons Ratio (z) = 0.20683 0.20683
#
# Static dielectric constant tensor:
#      x y z
#    x 1.415380 0.000000 0.000000 
#    y 0.000000 1.415380 0.000000 
#    z 0.000000 0.000000 1.458080 
# 
# From -- ./inp_files/1643.got.cif
#   From: 2010.05.17/outbox.cif.g08.bks.cpg/sg136_1_cif.got.tgz:1643.got - 2010.05.20 12:54:53.
