data_PCOD9569808
_publ_section_title
;
Structure prediction by ZEFSAII (Michael W. Deem and Ramdas Pophale) SiO2 
 PCOD9569808
Probable space group: P 42/M N M
;
_chemical_formula_sum "Si O2"
_cell_formula_units_Z 64
_cell_length_a 20.284160
_cell_length_b 20.284160
_cell_length_c 7.802601
_cell_angle_alpha 90.000000
_cell_angle_beta 90.000000
_cell_angle_gamma 90.000000
_cell_volume 3210.357920
_symmetry_space_group_name_H-M "P 42/M N M"
_symmetry_group_IT_number 136
_symmetry_cell_setting 'tetragonal'
loop_
_space_group_symop_operation_xyz
x,y,z
1/2-y,1/2+x,1/2+z
-x,-y,z
1/2+y,1/2-x,1/2+z
1/2+x,1/2-y,1/2-z
1/2-x,1/2+y,1/2-z
y,x,-z
-y,-x,-z
-x,-y,-z
1/2+y,1/2-x,1/2-z
x,y,-z
1/2-y,1/2+x,1/2-z
1/2-x,1/2+y,1/2+z
1/2+x,1/2-y,1/2+z
-y,-x,z
y,x,z
loop_
_atom_site_type_symbol
_atom_site_label
_atom_site_fract_x
_atom_site_fract_y
_atom_site_fract_z
Si Si1 0.981765 0.745806 0.691959
Si Si2 0.725672 0.831488 0.795550
Si Si3 0.229001 0.879799 0.709757
Si Si4 0.984894 0.395497 0.799027
O O1 0.973473 0.771280 0.500000
O O2 0.908201 0.739320 0.763982
O O3 0.009170 0.671392 0.696486
O O4 0.045475 0.781205 0.774733
O O5 0.785927 0.785927 0.731383
O O6 0.658031 0.796339 0.732266
O O7 0.723027 0.824159 0.000000
O O8 0.231118 0.884107 0.500000
O O9 0.169585 0.830416 0.753668
O O10 0.054959 0.432124 0.779972
O O11 0.971867 0.384111 0.000000
#
# Coordination Sequence:
#
# PCOD9569808 Si02
#       4
#    16  16  16  16
#     4  11  20  30  50  77 101 127 162 208 260 308
#     4   9  18  34  54  73  98 135 174 210 251 302
#     4   8  16  32  52  72  95 128 169 207 244 293
#     4  11  21  33  47  67  99 134 168 203 243 296
#
# _framework density 19.935471
#
# number of rings (size 3 to 8) (size 9 to 14) (size 15 to 20)
#    0.000    2.250    0.000    6.750    0.000    2.500 
#    0.000    1.250    0.000    6.750    0.000    5.250 
#    0.000    0.000    0.000    0.000    0.000    0.000 
#
# Total GULP energy -356671.412089 kJ/mol
# GULP energy per Si atom -5572.990814 kJ/mol
# Density = 1.989010 g / cm^3
# Si number density = 19.935471 Si / 1000 Ang^3
#
#
#
# Elastic Constant Matrix: (Units=GPa)
#
#
# Indices 1 2 3 4 5 6 
#
# 1 82.0788 16.8598 0.2135 0.0000 0.0000 0.0000
# 2 16.8598 82.0788 0.2135 0.0000 0.0000 0.0000
# 3 0.2135 0.2135 51.3316 0.0000 0.0000 0.0000
# 4 0.0000 0.0000 0.0000 17.5007 0.0000 0.0000
# 5 0.0000 0.0000 0.0000 0.0000 17.5007 0.0000
# 6 0.0000 0.0000 0.0000 0.0000 0.0000 6.3206
#
#
#
# Elastic Compliance Matrix: (Units=1/GPa)
#
#
# Indices 1 2 3 4 5 6 
#
# 1 0.012720 -0.002613 -0.000042 0.000000 0.000000 0.000000
# 2 -0.002613 0.012720 -0.000042 0.000000 0.000000 0.000000
# 3 -0.000042 -0.000042 0.019482 0.000000 0.000000 0.000000
# 4 0.000000 0.000000 0.000000 0.057140 0.000000 0.000000
# 5 0.000000 0.000000 0.000000 0.000000 0.057140 0.000000
# 6 0.000000 0.000000 0.000000 0.000000 0.000000 0.158213
#
#
# Mechanical properties :
#
#
# Convention : Reuss Voigt Hill
#
# Bulk Modulus (GPa) = 25.29832 27.78474 26.54153
# Shear Modulus (GPa) = 14.88160 21.47791 18.17976
#
# Velocity S-wave (km/s) = 2.73516 3.28589 3.02309
# Velocity P-wave (km/s) = 4.76366 5.32576 5.05253
#
# Compressibility (1/GPa) = 0.03952832
#
# Stress axis : x y z
#
# Youngs Moduli (GPa) = 78.61501 78.61501 51.33071
#
# Poissons Ratio (x) = 0.20540 0.00216
# Poissons Ratio (y) = 0.20540 0.00216
# Poissons Ratio (z) = 0.00330 0.00330
#
# Static dielectric constant tensor:
#      x y z
#    x 1.741040 0.000000 0.000000 
#    y 0.000000 1.741040 0.000000 
#    z 0.000000 0.000000 1.748710 
# 
# From -- ./inp_files/1394.got.cif
#   From: 2010.05.17/outbox.cif.g08.bks.cpg/sg136_1_cif.got.tgz:1394.got - 2010.05.20 12:54:53.
