data_PCOD9569612
_publ_section_title
;
Structure prediction by ZEFSAII (Michael W. Deem and Ramdas Pophale) SiO2 
 PCOD9569612
Probable space group: P 42/M N M
;
_chemical_formula_sum "Si O2"
_cell_formula_units_Z 112
_cell_length_a 16.476551
_cell_length_b 16.476551
_cell_length_c 22.151383
_cell_angle_alpha 90.000000
_cell_angle_beta 90.000000
_cell_angle_gamma 90.000000
_cell_volume 6013.585085
_symmetry_space_group_name_H-M "P 42/M N M"
_symmetry_group_IT_number 136
_symmetry_cell_setting 'tetragonal'
loop_
_space_group_symop_operation_xyz
x,y,z
1/2-y,1/2+x,1/2+z
-x,-y,z
1/2+y,1/2-x,1/2+z
1/2+x,1/2-y,1/2-z
1/2-x,1/2+y,1/2-z
y,x,-z
-y,-x,-z
-x,-y,-z
1/2+y,1/2-x,1/2-z
x,y,-z
1/2-y,1/2+x,1/2-z
1/2-x,1/2+y,1/2+z
1/2+x,1/2-y,1/2+z
-y,-x,z
y,x,z
loop_
_atom_site_type_symbol
_atom_site_label
_atom_site_fract_x
_atom_site_fract_y
_atom_site_fract_z
Si Si1 0.831010 0.699207 0.278323
Si Si2 0.034531 0.269140 0.069754
Si Si3 0.501250 0.632165 0.802243
Si Si4 0.711674 0.980707 0.357055
Si Si5 0.437221 0.937023 0.931271
Si Si6 0.702192 0.566764 0.678529
Si Si7 0.825285 0.306222 0.637458
O O1 0.781363 0.781363 0.297066
O O2 0.923622 0.692348 0.299386
O O3 0.779407 0.624294 0.306119
O O4 0.828154 0.697198 0.206232
O O5 0.124393 0.293525 0.092253
O O6 0.979589 0.350440 0.070089
O O7 0.992666 0.215064 0.121915
O O8 0.035585 0.238841 0.000000
O O9 0.430907 0.569094 0.788854
O O10 0.581872 0.581872 0.817518
O O11 0.476500 0.691273 0.856317
O O12 0.521227 0.680849 0.740948
O O13 0.652565 0.939971 0.404904
O O14 0.695856 0.076944 0.360770
O O15 0.500000 0.000000 0.900177
O O16 0.464620 0.927588 0.000000
O O17 0.627823 0.627823 0.666012
O O18 0.778548 0.221453 0.624189
#
# Coordination Sequence:
#
# PCOD9569612 Si02
#       7
#    16  16  16  16  16  16  16
#     4  10  21  36  55  85 123 154 190 250 312 361
#     4  11  23  40  60  85 121 164 205 244 298 364
#     4  10  21  38  61  89 123 163 204 249 307 370
#     4  12  20  34  61  86 114 156 201 242 299 364
#     4  10  21  38  56  80 116 157 197 243 298 360
#     4  10  20  38  61  88 121 157 200 255 307 357
#     4  11  24  39  57  86 124 157 194 250 306 359
#
# _framework density 18.624497999999999
#
# number of rings (size 3 to 8) (size 9 to 14) (size 15 to 20)
#    0.000    1.429    4.286    1.714    0.000    2.286 
#    0.000    0.000    0.000    3.000    0.000    4.000 
#    0.000    0.000    0.000    0.000    0.000    0.000 
#
# Total GULP energy -623875.796453 kJ/mol
# GULP energy per Si atom -5570.319611 kJ/mol
# Density = 1.858211 g / cm^3
# Si number density = 18.624498 Si / 1000 Ang^3
#
#
#
# Elastic Constant Matrix: (Units=GPa)
#
#
# Indices 1 2 3 4 5 6 
#
# 1 82.8177 21.9316 26.5557 0.0000 0.0000 0.0000
# 2 21.9316 82.8177 26.5557 0.0000 0.0000 0.0000
# 3 26.5557 26.5557 44.4735 0.0000 0.0000 0.0000
# 4 0.0000 0.0000 0.0000 0.3467 0.0000 0.0000
# 5 0.0000 0.0000 0.0000 0.0000 0.3467 0.0000
# 6 0.0000 0.0000 0.0000 0.0000 0.0000 27.4195
#
#
#
# Elastic Compliance Matrix: (Units=1/GPa)
#
#
# Indices 1 2 3 4 5 6 
#
# 1 0.015058 -0.001366 -0.008176 0.000000 0.000000 0.000000
# 2 -0.001366 0.015058 -0.008176 0.000000 0.000000 0.000000
# 3 -0.008176 -0.008176 0.032249 0.000000 0.000000 0.000000
# 4 0.000000 0.000000 0.000000 2.884633 0.000000 0.000000
# 5 0.000000 0.000000 0.000000 0.000000 2.884633 0.000000
# 6 0.000000 0.000000 0.000000 0.000000 0.000000 0.036470
#
#
# Mechanical properties :
#
#
# Convention : Reuss Voigt Hill
#
# Bulk Modulus (GPa) = 37.13303 40.02164 38.57734
# Shear Modulus (GPa) = 0.84566 14.62696 7.73631
#
# Velocity S-wave (km/s) = 0.67457 2.80547 2.04031
# Velocity P-wave (km/s) = 4.53737 5.65947 5.12920
#
# Compressibility (1/GPa) = 0.02693020
#
# Stress axis : x y z
#
# Youngs Moduli (GPa) = 66.40985 66.40985 31.00892
#
# Poissons Ratio (x) = 0.09072 0.25352
# Poissons Ratio (y) = 0.09072 0.25352
# Poissons Ratio (z) = 0.54294 0.54294
#
# Static dielectric constant tensor:
#      x y z
#    x 1.682830 0.000000 0.000000 
#    y 0.000000 1.682830 0.000000 
#    z 0.000000 0.000000 1.634790 
# 
# From -- ./inp_files/8485.got.cif
#   From: 2010.05.17/outbox.cif.g08.bks.cpg/sg136_5_cif.got.tgz:8485.got - 2010.05.20 12:54:53.
