data_PCOD9569809
_publ_section_title
;
Structure prediction by ZEFSAII (Michael W. Deem and Ramdas Pophale) SiO2 
 PCOD9569809
Probable space group: P 42/M N M
;
_chemical_formula_sum "Si O2"
_cell_formula_units_Z 56
_cell_length_a 19.858654
_cell_length_b 19.858654
_cell_length_c 8.541067
_cell_angle_alpha 90.000000
_cell_angle_beta 90.000000
_cell_angle_gamma 90.000000
_cell_volume 3368.307613
_symmetry_space_group_name_H-M "P 42/M N M"
_symmetry_group_IT_number 136
_symmetry_cell_setting 'tetragonal'
loop_
_space_group_symop_operation_xyz
x,y,z
1/2-y,1/2+x,1/2+z
-x,-y,z
1/2+y,1/2-x,1/2+z
1/2+x,1/2-y,1/2-z
1/2-x,1/2+y,1/2-z
y,x,-z
-y,-x,-z
-x,-y,-z
1/2+y,1/2-x,1/2-z
x,y,-z
1/2-y,1/2+x,1/2-z
1/2-x,1/2+y,1/2+z
1/2+x,1/2-y,1/2+z
-y,-x,z
y,x,z
loop_
_atom_site_type_symbol
_atom_site_label
_atom_site_fract_x
_atom_site_fract_y
_atom_site_fract_z
Si Si1 0.520312 0.703444 0.187371
Si Si2 0.261288 0.628886 0.809211
Si Si3 0.653130 0.765153 0.688487
Si Si4 0.944768 0.055233 0.187761
O O1 0.447421 0.729216 0.243604
O O2 0.580898 0.751851 0.238518
O O3 0.535320 0.629047 0.252346
O O4 0.518676 0.699296 0.000000
O O5 0.324431 0.675570 0.761311
O O6 0.193561 0.668060 0.760805
O O7 0.260933 0.628923 0.000000
O O8 0.646895 0.766321 0.500000
O O9 0.702276 0.702276 0.727434
O O10 0.943260 0.056741 0.000000
O O11 0.000000 0.000000 0.238784
#
# Coordination Sequence:
#
# PCOD9569809 Si02
#       4
#    16  16  16   8
#     4  11  20  31  51  77 102 127 166 213 254 292
#     4   8  16  31  50  71  96 131 169 203 243 295
#     4   9  17  32  52  70  95 132 170 201 245 305
#     4  11  23  35  47  69 105 143 171 194 243 312
#
# _framework density 16.625561000000001
#
# number of rings (size 3 to 8) (size 9 to 14) (size 15 to 20)
#    0.000    2.429    1.429    3.857    0.000    2.286 
#    0.000    2.857    0.000    4.286    0.000    6.000 
#    0.000    0.000    0.000    0.000    0.000    0.000 
#
# Total GULP energy -312332.509193 kJ/mol
# GULP energy per Si atom -5577.366236 kJ/mol
# Density = 1.658772 g / cm^3
# Si number density = 16.625561 Si / 1000 Ang^3
#
#
#
# Elastic Constant Matrix: (Units=GPa)
#
#
# Indices 1 2 3 4 5 6 
#
# 1 140.3207 109.7317 26.1848 0.0000 0.0000 0.0000
# 2 109.7317 140.3206 26.1850 0.0000 0.0000 0.0000
# 3 26.1848 26.1850 16.8947 0.0000 0.0000 0.0000
# 4 0.0000 0.0000 0.0000 8.1765 0.0000 0.0000
# 5 0.0000 0.0000 0.0000 0.0000 8.1763 0.0000
# 6 0.0000 0.0000 0.0000 0.0000 0.0000 24.0248
#
#
#
# Elastic Compliance Matrix: (Units=1/GPa)
#
#
# Indices 1 2 3 4 5 6 
#
# 1 0.019306 -0.013385 -0.009177 0.000000 0.000000 0.000000
# 2 -0.013385 0.019306 -0.009177 0.000000 0.000000 0.000000
# 3 -0.009177 -0.009177 0.087637 0.000000 0.000000 0.000000
# 4 0.000000 0.000000 0.000000 0.122302 0.000000 0.000000
# 5 0.000000 0.000000 0.000000 0.000000 0.122304 0.000000
# 6 0.000000 0.000000 0.000000 0.000000 0.000000 0.041624
#
#
# Mechanical properties :
#
#
# Convention : Reuss Voigt Hill
#
# Bulk Modulus (GPa) = 15.93090 69.08210 42.50650
# Shear Modulus (GPa) = 10.06273 17.10448 13.58360
#
# Velocity S-wave (km/s) = 2.46286 3.21098 2.86148
# Velocity P-wave (km/s) = 4.20602 7.44239 6.04482
#
# Compressibility (1/GPa) = 0.06277108
#
# Stress axis : x y z
#
# Youngs Moduli (GPa) = 51.79660 51.79621 11.41065
#
# Poissons Ratio (x) = 0.69330 0.10471
# Poissons Ratio (y) = 0.69331 0.10472
# Poissons Ratio (z) = 0.47533 0.47536
#
# Static dielectric constant tensor:
#      x y z
#    x 1.553360 0.000000 0.000000 
#    y 0.000000 1.553360 0.000000 
#    z 0.000000 0.000000 1.571100 
# 
# From -- ./inp_files/1102.got.cif
#   From: 2010.05.17/outbox.cif.g08.bks.cpg/sg136_1_cif.got.tgz:1102.got - 2010.05.20 12:54:53.
