data_PCOD9569525
_publ_section_title
;
Structure prediction by ZEFSAII (Michael W. Deem and Ramdas Pophale) SiO2 
 PCOD9569525
Probable space group: P 42/M N M
;
_chemical_formula_sum "Si O2"
_cell_formula_units_Z 88
_cell_length_a 17.236179
_cell_length_b 17.236179
_cell_length_c 14.925600
_cell_angle_alpha 90.000000
_cell_angle_beta 90.000000
_cell_angle_gamma 90.000000
_cell_volume 4434.184809
_symmetry_space_group_name_H-M "P 42/M N M"
_symmetry_group_IT_number 136
_symmetry_cell_setting 'tetragonal'
loop_
_space_group_symop_operation_xyz
x,y,z
1/2-y,1/2+x,1/2+z
-x,-y,z
1/2+y,1/2-x,1/2+z
1/2+x,1/2-y,1/2-z
1/2-x,1/2+y,1/2-z
y,x,-z
-y,-x,-z
-x,-y,-z
1/2+y,1/2-x,1/2-z
x,y,-z
1/2-y,1/2+x,1/2-z
1/2-x,1/2+y,1/2+z
1/2+x,1/2-y,1/2+z
-y,-x,z
y,x,z
loop_
_atom_site_type_symbol
_atom_site_label
_atom_site_fract_x
_atom_site_fract_y
_atom_site_fract_z
Si Si1 0.168614 0.044793 0.712590
Si Si2 0.933352 0.066649 0.603178
Si Si3 0.450176 0.106115 0.786219
Si Si4 0.777943 0.648467 0.327743
Si Si5 0.974236 0.152835 0.898168
Si Si6 0.438665 0.814234 0.097449
O O1 0.117269 0.117269 0.681988
O O2 0.254195 0.055017 0.678358
O O3 0.135429 0.969665 0.661254
O O4 0.159724 0.034884 0.818231
O O5 0.914404 0.085597 0.500000
O O6 0.000000 0.000000 0.601041
O O7 0.523788 0.094352 0.718050
O O8 0.394031 0.176570 0.754987
O O9 0.495459 0.123207 0.878366
O O10 0.727063 0.727063 0.308561
O O11 0.717796 0.589275 0.372789
O O12 0.849714 0.659907 0.395448
O O13 0.929274 0.070727 0.891810
O O14 0.002006 0.162101 0.000000
O O15 0.453134 0.779254 0.000000
#
# Coordination Sequence:
#
# PCOD9569525 Si02
#       6
#    16   8  16  16  16  16
#     4  11  21  34  52  80 115 150 191 241 296 356
#     4   9  18  32  49  73 111 153 188 228 286 356
#     4   9  19  38  62  87 122 160 203 257 308 361
#     4  10  20  37  61  87 119 157 201 253 307 362
#     4  10  20  35  55  79 108 147 197 247 297 353
#     4  11  22  37  60  89 120 156 200 248 307 372
#
# _framework density 19.845811999999999
#
# number of rings (size 3 to 8) (size 9 to 14) (size 15 to 20)
#    0.000    1.909    2.727    1.636    0.000    3.273 
#    0.000    9.091    0.000    0.000    0.000    0.000 
#    0.000    0.000    0.000    0.000    0.000    0.000 
#
# Total GULP energy -490299.862587 kJ/mol
# GULP energy per Si atom -5571.589348 kJ/mol
# Density = 1.980064 g / cm^3
# Si number density = 19.845812 Si / 1000 Ang^3
#
#
#
# Elastic Constant Matrix: (Units=GPa)
#
#
# Indices 1 2 3 4 5 6 
#
# 1 64.0564 27.0816 21.8786 0.0000 0.0000 0.0000
# 2 27.0816 64.0564 21.8786 0.0000 0.0000 0.0000
# 3 21.8786 21.8786 96.5627 0.0000 0.0000 0.0000
# 4 0.0000 0.0000 0.0000 11.7997 0.0000 0.0000
# 5 0.0000 0.0000 0.0000 0.0000 11.7996 0.0000
# 6 0.0000 0.0000 0.0000 0.0000 0.0000 36.6428
#
#
#
# Elastic Compliance Matrix: (Units=1/GPa)
#
#
# Indices 1 2 3 4 5 6 
#
# 1 0.019679 -0.007367 -0.002790 0.000000 0.000000 0.000000
# 2 -0.007367 0.019679 -0.002790 0.000000 0.000000 0.000000
# 3 -0.002790 -0.002790 0.011620 0.000000 0.000000 0.000000
# 4 0.000000 0.000000 0.000000 0.084748 0.000000 0.000000
# 5 0.000000 0.000000 0.000000 0.000000 0.084748 0.000000
# 6 0.000000 0.000000 0.000000 0.000000 0.000000 0.027290
#
#
# Mechanical properties :
#
#
# Convention : Reuss Voigt Hill
#
# Bulk Modulus (GPa) = 39.86391 40.70590 40.28490
# Shear Modulus (GPa) = 17.72939 22.30420 20.01679
#
# Velocity S-wave (km/s) = 2.99215 3.35606 3.17932
# Velocity P-wave (km/s) = 5.66283 5.96432 5.81553
#
# Compressibility (1/GPa) = 0.02508535
#
# Stress axis : x y z
#
# Youngs Moduli (GPa) = 50.81671 50.81672 86.05826
#
# Poissons Ratio (x) = 0.37436 0.24006
# Poissons Ratio (y) = 0.37436 0.24006
# Poissons Ratio (z) = 0.14175 0.14175
#
# Static dielectric constant tensor:
#      x y z
#    x 1.740730 0.000000 0.000000 
#    y 0.000000 1.740730 0.000000 
#    z 0.000000 0.000000 1.704190 
# 
# From -- ./inp_files/5060.got.cif
#   From: 2010.05.17/outbox.cif.g08.bks.cpg/sg136_3_cif.got.tgz:5060.got - 2010.05.20 12:54:53.
