data_PCOD9569422
_publ_section_title
;
Structure prediction by ZEFSAII (Michael W. Deem and Ramdas Pophale) SiO2 
 PCOD9569422
Probable space group: P 42/M N M
;
_chemical_formula_sum "Si O2"
_cell_formula_units_Z 112
_cell_length_a 13.843367
_cell_length_b 13.843367
_cell_length_c 33.018267
_cell_angle_alpha 90.000000
_cell_angle_beta 90.000000
_cell_angle_gamma 90.000000
_cell_volume 6327.581393
_symmetry_space_group_name_H-M "P 42/M N M"
_symmetry_group_IT_number 136
_symmetry_cell_setting 'tetragonal'
loop_
_space_group_symop_operation_xyz
x,y,z
1/2-y,1/2+x,1/2+z
-x,-y,z
1/2+y,1/2-x,1/2+z
1/2+x,1/2-y,1/2-z
1/2-x,1/2+y,1/2-z
y,x,-z
-y,-x,-z
-x,-y,-z
1/2+y,1/2-x,1/2-z
x,y,-z
1/2-y,1/2+x,1/2-z
1/2-x,1/2+y,1/2+z
1/2+x,1/2-y,1/2+z
-y,-x,z
y,x,z
loop_
_atom_site_type_symbol
_atom_site_label
_atom_site_fract_x
_atom_site_fract_y
_atom_site_fract_z
Si Si1 0.455628 0.696424 0.826246
Si Si2 0.382801 0.771244 0.089002
Si Si3 0.797477 0.643146 0.194890
Si Si4 0.919330 0.241624 0.864372
Si Si5 0.126957 0.290427 0.112980
Si Si6 0.393078 0.956784 0.547223
Si Si7 0.652030 0.813254 0.716443
O O1 0.407065 0.592936 0.818413
O O2 0.439138 0.722322 0.873327
O O3 0.563890 0.715376 0.813423
O O4 0.392072 0.775173 0.801791
O O5 0.309186 0.690815 0.072025
O O6 0.316433 0.855091 0.109147
O O7 0.459088 0.817655 0.058827
O O8 0.748550 0.748550 0.197790
O O9 0.861321 0.647857 0.154601
O O10 0.841924 0.619021 0.238681
O O11 0.857167 0.142834 0.863277
O O12 0.923038 0.286145 0.818825
O O13 0.025508 0.234781 0.882614
O O14 0.216005 0.216005 0.109342
O O15 0.123469 0.365149 0.076026
O O16 0.385821 0.931407 0.500000
O O17 0.500000 0.000000 0.554834
O O18 0.715611 0.715611 0.720915
#
# Coordination Sequence:
#
# PCOD9569422 Si02
#       7
#    16  16  16  16  16  16  16
#     4   9  17  31  52  72 100 141 179 218 273 324
#     4   9  17  34  59  83 106 138 181 230 275 326
#     4  10  20  32  48  74 107 143 186 227 268 321
#     4   9  18  35  58  80 110 150 187 226 276 331
#     4  11  23  37  56  83 116 151 185 230 282 334
#     4  11  22  38  61  87 112 142 182 228 281 341
#     4   8  17  32  49  73 103 138 182 231 273 310
#
# _framework density 17.700285999999998
#
# number of rings (size 3 to 8) (size 9 to 14) (size 15 to 20)
#    0.000    2.429    2.857    1.714    2.000    1.143 
#    0.000    0.000    0.000    3.429    0.000    2.000 
#    0.000    0.000    0.000    0.000    0.000    0.000 
#
# Total GULP energy -623901.935806 kJ/mol
# GULP energy per Si atom -5570.552998 kJ/mol
# Density = 1.766000 g / cm^3
# Si number density = 17.700286 Si / 1000 Ang^3
#
#
#
# Elastic Constant Matrix: (Units=GPa)
#
#
# Indices 1 2 3 4 5 6 
#
# 1 71.0457 27.4165 50.1661 0.0000 0.0000 0.0000
# 2 27.4165 71.0457 50.1661 0.0000 0.0000 0.0000
# 3 50.1661 50.1661 101.9468 0.0000 0.0000 0.0000
# 4 0.0000 0.0000 0.0000 16.8970 0.0000 0.0000
# 5 0.0000 0.0000 0.0000 0.0000 16.8970 0.0000
# 6 0.0000 0.0000 0.0000 0.0000 0.0000 21.6997
#
#
#
# Elastic Compliance Matrix: (Units=1/GPa)
#
#
# Indices 1 2 3 4 5 6 
#
# 1 0.021645 -0.001275 -0.010024 0.000000 0.000000 0.000000
# 2 -0.001275 0.021645 -0.010024 0.000000 0.000000 0.000000
# 3 -0.010024 -0.010024 0.019674 0.000000 0.000000 0.000000
# 4 0.000000 0.000000 0.000000 0.059182 0.000000 0.000000
# 5 0.000000 0.000000 0.000000 0.000000 0.059182 0.000000
# 6 0.000000 0.000000 0.000000 0.000000 0.000000 0.046084
#
#
# Mechanical properties :
#
#
# Convention : Reuss Voigt Hill
#
# Bulk Modulus (GPa) = 49.21394 55.50397 52.35895
# Shear Modulus (GPa) = 18.06152 18.85138 18.45645
#
# Velocity S-wave (km/s) = 3.19785 3.26702 3.23262
# Velocity P-wave (km/s) = 6.44200 6.75700 6.60138
#
# Compressibility (1/GPa) = 0.02031945
#
# Stress axis : x y z
#
# Youngs Moduli (GPa) = 46.19911 46.19911 50.82799
#
# Poissons Ratio (x) = 0.05890 0.50950
# Poissons Ratio (y) = 0.05890 0.50950
# Poissons Ratio (z) = 0.46310 0.46310
#
# Static dielectric constant tensor:
#      x y z
#    x 1.605300 0.000000 0.000000 
#    y 0.000000 1.605300 0.000000 
#    z 0.000000 0.000000 1.615570 
# 
# From -- ./inp_files/9953.got.cif
#   From: 2010.05.17/outbox.cif.g08.bks.cpg/sg136_5_cif.got.tgz:9953.got - 2010.05.20 12:54:53.
