data_PCOD9569751
_publ_section_title
;
Structure prediction by ZEFSAII (Michael W. Deem and Ramdas Pophale) SiO2 
 PCOD9569751
Probable space group: P 42/M N M
;
_chemical_formula_sum "Si O2"
_cell_formula_units_Z 112
_cell_length_a 14.685941
_cell_length_b 14.685941
_cell_length_c 27.697750
_cell_angle_alpha 90.000000
_cell_angle_beta 90.000000
_cell_angle_gamma 90.000000
_cell_volume 5973.763834
_symmetry_space_group_name_H-M "P 42/M N M"
_symmetry_group_IT_number 136
_symmetry_cell_setting 'tetragonal'
loop_
_space_group_symop_operation_xyz
x,y,z
1/2-y,1/2+x,1/2+z
-x,-y,z
1/2+y,1/2-x,1/2+z
1/2+x,1/2-y,1/2-z
1/2-x,1/2+y,1/2-z
y,x,-z
-y,-x,-z
-x,-y,-z
1/2+y,1/2-x,1/2-z
x,y,-z
1/2-y,1/2+x,1/2-z
1/2-x,1/2+y,1/2+z
1/2+x,1/2-y,1/2+z
-y,-x,z
y,x,z
loop_
_atom_site_type_symbol
_atom_site_label
_atom_site_fract_x
_atom_site_fract_y
_atom_site_fract_z
Si Si1 0.496527 0.646675 0.304450
Si Si2 0.723079 0.953890 0.282601
Si Si3 0.580396 0.925578 0.198394
Si Si4 0.302376 0.969715 0.121068
Si Si5 0.135343 0.278599 0.057518
Si Si6 0.782177 0.065926 0.441628
Si Si7 0.267615 0.120839 0.385744
O O1 0.403322 0.596679 0.320669
O O2 0.569891 0.569891 0.295354
O O3 0.477181 0.697158 0.254025
O O4 0.538056 0.714261 0.344484
O O5 0.644200 0.919945 0.245725
O O6 0.745077 0.891585 0.327851
O O7 0.674386 0.040259 0.307452
O O8 0.635487 0.964426 0.153859
O O9 0.500000 0.000000 0.202222
O O10 0.308547 0.691454 0.423354
O O11 0.351342 0.874357 0.109247
O O12 0.280938 0.032624 0.075692
O O13 0.197107 0.366888 0.069470
O O14 0.135289 0.274020 0.000000
O O15 0.783753 0.050302 0.500000
O O16 0.874219 0.125782 0.430191
O O17 0.764460 0.971317 0.413329
O O18 0.203574 0.203574 0.402315
#
# Coordination Sequence:
#
# PCOD9569751 Si02
#       7
#    16  16  16  16  16  16  16
#     4  10  22  39  56  76 112 163 206 238 281 346
#     4  11  19  34  55  81 111 144 189 238 289 338
#     4  11  18  33  56  81 111 149 180 229 293 355
#     4  11  22  35  59  86 119 152 194 239 300 351
#     4   9  19  38  64  92 118 145 187 243 300 359
#     4   9  21  43  66  87 115 151 190 236 297 368
#     4  12  25  37  55  87 121 155 199 248 290 342
#
# _framework density 18.748649
#
# number of rings (size 3 to 8) (size 9 to 14) (size 15 to 20)
#    0.000    1.571    2.857    3.857    0.000    1.714 
#    0.000    5.714    0.000    1.286    0.000    5.000 
#    0.000    0.000    0.000    0.000    0.000    0.000 
#
# Total GULP energy -623936.823597 kJ/mol
# GULP energy per Si atom -5570.864496 kJ/mol
# Density = 1.870598 g / cm^3
# Si number density = 18.748649 Si / 1000 Ang^3
#
#
#
# Elastic Constant Matrix: (Units=GPa)
#
#
# Indices 1 2 3 4 5 6 
#
# 1 98.4724 55.1611 35.2044 0.0000 0.0000 0.0000
# 2 55.1611 98.4724 35.2044 0.0000 0.0000 0.0000
# 3 35.2044 35.2044 55.8850 0.0000 0.0000 0.0000
# 4 0.0000 0.0000 0.0000 16.6784 0.0000 0.0000
# 5 0.0000 0.0000 0.0000 0.0000 16.6784 0.0000
# 6 0.0000 0.0000 0.0000 0.0000 0.0000 30.1316
#
#
#
# Elastic Compliance Matrix: (Units=1/GPa)
#
#
# Indices 1 2 3 4 5 6 
#
# 1 0.016120 -0.006969 -0.005764 0.000000 0.000000 0.000000
# 2 -0.006969 0.016120 -0.005764 0.000000 0.000000 0.000000
# 3 -0.005764 -0.005764 0.025157 0.000000 0.000000 0.000000
# 4 0.000000 0.000000 0.000000 0.059958 0.000000 0.000000
# 5 0.000000 0.000000 0.000000 0.000000 0.059958 0.000000
# 6 0.000000 0.000000 0.000000 0.000000 0.000000 0.033188
#
#
# Mechanical properties :
#
#
# Convention : Reuss Voigt Hill
#
# Bulk Modulus (GPa) = 49.01924 55.99662 52.50793
# Shear Modulus (GPa) = 19.66219 21.18167 20.42193
#
# Velocity S-wave (km/s) = 3.24192 3.36485 3.30396
# Velocity P-wave (km/s) = 6.34158 6.71030 6.52854
#
# Compressibility (1/GPa) = 0.02040015
#
# Stress axis : x y z
#
# Youngs Moduli (GPa) = 62.03576 62.03576 39.75111
#
# Poissons Ratio (x) = 0.43232 0.22915
# Poissons Ratio (y) = 0.43232 0.22915
# Poissons Ratio (z) = 0.35761 0.35761
#
# Static dielectric constant tensor:
#      x y z
#    x 1.677350 0.000000 0.000000 
#    y 0.000000 1.677350 0.000000 
#    z 0.000000 0.000000 1.659260 
# 
# From -- ./inp_files/8509.got.cif
#   From: 2010.05.17/outbox.cif.g08.bks.cpg/sg136_5_cif.got.tgz:8509.got - 2010.05.20 12:54:53.
