data_PCOD9569766
_publ_section_title
;
Structure prediction by ZEFSAII (Michael W. Deem and Ramdas Pophale) SiO2 
 PCOD9569766
Probable space group: P 42/M N M
;
_chemical_formula_sum "Si O2"
_cell_formula_units_Z 72
_cell_length_a 14.598666
_cell_length_b 14.598666
_cell_length_c 17.732288
_cell_angle_alpha 90.000000
_cell_angle_beta 90.000000
_cell_angle_gamma 90.000000
_cell_volume 3779.123819
_symmetry_space_group_name_H-M "P 42/M N M"
_symmetry_group_IT_number 136
_symmetry_cell_setting 'tetragonal'
loop_
_space_group_symop_operation_xyz
x,y,z
1/2-y,1/2+x,1/2+z
-x,-y,z
1/2+y,1/2-x,1/2+z
1/2+x,1/2-y,1/2-z
1/2-x,1/2+y,1/2-z
y,x,-z
-y,-x,-z
-x,-y,-z
1/2+y,1/2-x,1/2-z
x,y,-z
1/2-y,1/2+x,1/2-z
1/2-x,1/2+y,1/2+z
1/2+x,1/2-y,1/2+z
-y,-x,z
y,x,z
loop_
_atom_site_type_symbol
_atom_site_label
_atom_site_fract_x
_atom_site_fract_y
_atom_site_fract_z
Si Si1 0.924105 0.075896 0.415171
Si Si2 0.314249 0.837898 0.590013
Si Si3 0.786079 0.786079 0.588825
Si Si4 0.130900 0.869101 0.088905
Si Si5 0.749946 0.483551 0.840735
Si Si6 0.549420 0.297148 0.671984
O O1 0.894976 0.105025 0.500000
O O2 0.972377 0.155453 0.369428
O O3 0.000000 0.000000 0.425004
O O4 0.318919 0.846013 0.500000
O O5 0.220801 0.779200 0.608760
O O6 0.395530 0.774930 0.621057
O O7 0.317927 0.938743 0.627044
O O8 0.803572 0.803572 0.500000
O O9 0.708724 0.708724 0.596593
O O10 0.750066 0.880780 0.625818
O O11 0.038809 0.834755 0.128871
O O12 0.114974 0.885027 0.000000
O O13 0.749071 0.477633 0.750906
O O14 0.618899 0.381101 0.688648
#
# Coordination Sequence:
#
# PCOD9569766 Si02
#       6
#     8  16   8   8  16  16
#     4  11  19  30  54  92 131 162 200 253 318 388
#     4  10  22  40  65  96 130 169 213 265 325 390
#     4  11  24  41  63  93 129 172 214 261 326 389
#     4  11  26  45  67  89 126 174 226 274 314 374
#     4  12  22  36  63  96 135 164 206 264 326 390
#     4  11  24  41  67  97 127 168 218 271 326 380
#
# _framework density 19.052033999999999
#
# number of rings (size 3 to 8) (size 9 to 14) (size 15 to 20)
#    0.000    1.000    3.333    3.667    3.111    1.778 
#    0.000    1.111    0.000    4.000    0.000    0.000 
#    0.000    0.000    0.000    0.000    0.000    0.000 
#
# Total GULP energy -402166.639887 kJ/mol
# GULP energy per Si atom -5585.647776 kJ/mol
# Density = 1.900867 g / cm^3
# Si number density = 19.052034 Si / 1000 Ang^3
#
#
#
# Elastic Constant Matrix: (Units=GPa)
#
#
# Indices 1 2 3 4 5 6 
#
# 1 71.1101 62.0821 50.9420 0.0000 0.0000 0.0000
# 2 62.0821 71.1106 50.9416 0.0000 0.0000 0.0000
# 3 50.9420 50.9416 135.9850 0.0000 0.0000 0.0000
# 4 0.0000 0.0000 0.0000 38.5355 0.0000 0.0000
# 5 0.0000 0.0000 0.0000 0.0000 38.5355 0.0000
# 6 0.0000 0.0000 0.0000 0.0000 0.0000 32.3041
#
#
#
# Elastic Compliance Matrix: (Units=1/GPa)
#
#
# Indices 1 2 3 4 5 6 
#
# 1 0.060644 -0.050120 -0.003943 0.000000 0.000000 0.000000
# 2 -0.050120 0.060643 -0.003942 0.000000 0.000000 0.000000
# 3 -0.003943 -0.003942 0.010307 0.000000 0.000000 0.000000
# 4 0.000000 0.000000 0.000000 0.025950 0.000000 0.000000
# 5 0.000000 0.000000 0.000000 0.000000 0.025950 0.000000
# 6 0.000000 0.000000 0.000000 0.000000 0.000000 0.030956
#
#
# Mechanical properties :
#
#
# Convention : Reuss Voigt Hill
#
# Bulk Modulus (GPa) = 64.16260 67.34858 65.75559
# Shear Modulus (GPa) = 14.89630 29.49102 22.19366
#
# Velocity S-wave (km/s) = 2.79923 3.93863 3.41676
# Velocity P-wave (km/s) = 6.64818 7.49068 7.08197
#
# Compressibility (1/GPa) = 0.01558540
#
# Stress axis : x y z
#
# Youngs Moduli (GPa) = 16.48973 16.48998 97.01780
#
# Poissons Ratio (x) = 0.82648 0.38250
# Poissons Ratio (y) = 0.82646 0.38244
# Poissons Ratio (z) = 0.06501 0.06500
#
# Static dielectric constant tensor:
#      x y z
#    x 1.670610 0.000000 0.000000 
#    y 0.000000 1.670610 0.000000 
#    z 0.000000 0.000000 1.620470 
# 
# From -- ./inp_files/6145.got.cif
#   From: 2010.05.17/outbox.cif.g08.bks.cpg/sg136_4_cif.got.tgz:6145.got - 2010.05.20 12:54:53.
