data_PCOD9569056
_publ_section_title
;
Structure prediction by ZEFSAII (Michael W. Deem and Ramdas Pophale) SiO2 
 PCOD9569056
Probable space group: P 42/M B C
;
_chemical_formula_sum "Si O2"
_cell_formula_units_Z 40
_cell_length_a 10.335714
_cell_length_b 10.335714
_cell_length_c 16.558063
_cell_angle_alpha 90.000000
_cell_angle_beta 90.000000
_cell_angle_gamma 90.000000
_cell_volume 1768.847929
_symmetry_space_group_name_H-M "P 42/M B C"
_symmetry_group_IT_number 135
_symmetry_cell_setting 'tetragonal'
loop_
_space_group_symop_operation_xyz
x,y,z
-y,x,1/2+z
-x,-y,z
y,-x,1/2+z
1/2+x,1/2-y,-z
1/2-x,1/2+y,-z
1/2+y,1/2+x,1/2-z
1/2-y,1/2-x,1/2-z
-x,-y,-z
y,-x,1/2-z
x,y,-z
-y,x,1/2-z
1/2-x,1/2+y,z
1/2+x,1/2-y,z
1/2-y,1/2-x,1/2+z
1/2+y,1/2+x,1/2+z
loop_
_atom_site_type_symbol
_atom_site_label
_atom_site_fract_x
_atom_site_fract_y
_atom_site_fract_z
Si Si1 0.500000 0.000000 0.750000
Si Si2 0.000000 0.000000 0.250000
Si Si3 0.888421 0.105986 0.000000
Si Si4 0.244969 0.983956 0.358523
Si Si5 0.118036 0.398509 0.000000
O O1 0.369104 0.007556 0.697423
O O2 0.049011 0.120189 0.195634
O O3 0.905751 0.193211 0.919989
O O4 0.754019 0.031079 0.000000
O O5 0.000000 0.000000 0.000000
O O6 0.304380 0.885212 0.423181
O O7 0.000000 0.500000 0.000000
#
# Coordination Sequence:
#
# PCOD9569056 Si02
#       5
#     4   4   8  16   8
#     4  12  28  46  76 112 150 188 256 320 376 442
#     4  12  28  46  76 112 152 190 252 316 384 442
#     4  11  26  51  78 110 155 209 252 310 380 473
#     4  11  28  48  74 111 150 198 248 312 379 447
#     4  11  26  51  78 112 151 209 258 310 372 473
#
# _framework density 22.613591
#
# number of rings (size 3 to 8) (size 9 to 14) (size 15 to 20)
#    0.000    0.800    4.000    0.000   11.200    6.400 
#    0.000    0.000    0.000    0.000    0.000    0.000 
#    0.000    0.000    0.000    0.000    0.000    0.000 
#
# Total GULP energy -223204.598114 kJ/mol
# GULP energy per Si atom -5580.114953 kJ/mol
# Density = 2.256212 g / cm^3
# Si number density = 22.613591 Si / 1000 Ang^3
#
#
#
# Elastic Constant Matrix: (Units=GPa)
#
#
# Indices 1 2 3 4 5 6 
#
# 1 175.6073 45.4366 53.2338 0.0000 0.0000 0.0000
# 2 45.4366 175.6073 53.2338 0.0000 0.0000 0.0000
# 3 53.2338 53.2338 152.3649 0.0000 0.0000 0.0000
# 4 0.0000 0.0000 0.0000 570.1312 0.0000 0.0000
# 5 0.0000 0.0000 0.0000 0.0000 570.1312 0.0000
# 6 0.0000 0.0000 0.0000 0.0000 0.0000 24.9062
#
#
#
# Elastic Compliance Matrix: (Units=1/GPa)
#
#
# Indices 1 2 3 4 5 6 
#
# 1 0.006561 -0.001121 -0.001900 0.000000 0.000000 0.000000
# 2 -0.001121 0.006561 -0.001900 0.000000 0.000000 0.000000
# 3 -0.001900 -0.001900 0.007891 0.000000 0.000000 0.000000
# 4 0.000000 0.000000 0.000000 0.001754 0.000000 0.000000
# 5 0.000000 0.000000 0.000000 0.000000 0.001754 0.000000
# 6 0.000000 0.000000 0.000000 0.000000 0.000000 0.040151
#
#
# Mechanical properties :
#
#
# Convention : Reuss Voigt Hill
#
# Bulk Modulus (GPa) = 89.54031 89.70977 89.62504
# Shear Modulus (GPa) = 63.90704 256.47874 160.19289
#
# Velocity S-wave (km/s) = 5.32182 10.66134 8.42573
# Velocity P-wave (km/s) = 8.80024 13.83145 11.59209
#
# Compressibility (1/GPa) = 0.01116815
#
# Stress axis : x y z
#
# Youngs Moduli (GPa) = 152.42087 152.42087 126.72439
#
# Poissons Ratio (x) = 0.17093 0.24083
# Poissons Ratio (y) = 0.17093 0.24083
# Poissons Ratio (z) = 0.28966 0.28966
#
# Static dielectric constant tensor:
#      x y z
#    x 1.835630 0.000000 0.000000 
#    y 0.000000 1.835630 0.000000 
#    z 0.000000 0.000000 1.887850 
# 
# From -- ./inp_files/2941.got.cif
#   From: 2010.05.17/outbox.cif.g08.bks.cpg/sg135_2_cif.got.tgz:2941.got - 2010.05.20 12:50:20.
