data_PCOD9569533
_publ_section_title
;
Structure prediction by ZEFSAII (Michael W. Deem and Ramdas Pophale) SiO2 
 PCOD9569533
Probable space group: P 42/M N M
;
_chemical_formula_sum "Si O2"
_cell_formula_units_Z 96
_cell_length_a 25.240591
_cell_length_b 25.240591
_cell_length_c 8.853266
_cell_angle_alpha 90.000000
_cell_angle_beta 90.000000
_cell_angle_gamma 90.000000
_cell_volume 5640.304519
_symmetry_space_group_name_H-M "P 42/M N M"
_symmetry_group_IT_number 136
_symmetry_cell_setting 'tetragonal'
loop_
_space_group_symop_operation_xyz
x,y,z
1/2-y,1/2+x,1/2+z
-x,-y,z
1/2+y,1/2-x,1/2+z
1/2+x,1/2-y,1/2-z
1/2-x,1/2+y,1/2-z
y,x,-z
-y,-x,-z
-x,-y,-z
1/2+y,1/2-x,1/2-z
x,y,-z
1/2-y,1/2+x,1/2-z
1/2-x,1/2+y,1/2+z
1/2+x,1/2-y,1/2+z
-y,-x,z
y,x,z
loop_
_atom_site_type_symbol
_atom_site_label
_atom_site_fract_x
_atom_site_fract_y
_atom_site_fract_z
Si Si1 0.575353 0.424648 0.680432
Si Si2 0.835102 0.835102 0.179537
Si Si3 0.878931 0.033021 0.319432
Si Si4 0.233190 0.982721 0.819786
Si Si5 0.418105 0.874622 0.178400
Si Si6 0.462627 0.155104 0.819826
Si Si7 0.247271 0.597329 0.821565
O O1 0.569530 0.430471 0.500000
O O2 0.620028 0.379973 0.708633
O O3 0.520266 0.404871 0.751060
O O4 0.855591 0.781562 0.254568
O O5 0.829614 0.829614 0.000000
O O6 0.874484 0.026805 0.500000
O O7 0.917986 0.082015 0.287584
O O8 0.820720 0.040451 0.249332
O O9 0.287634 0.957224 0.758830
O O10 0.236088 0.043685 0.764003
O O11 0.231402 0.980716 0.000000
O O12 0.384982 0.917061 0.270727
O O13 0.479928 0.869332 0.222373
O O14 0.395409 0.815433 0.198473
O O15 0.415632 0.887850 0.000000
O O16 0.463473 0.163256 0.000000
O O17 0.257496 0.590188 0.000000
#
# Coordination Sequence:
#
# PCOD9569533 Si02
#       7
#     8   8  16  16  16  16  16
#     4  11  22  34  51  80 113 144 182 232 282 330
#     4  11  21  32  52  83 111 142 185 233 283 329
#     4  11  23  37  54  77 107 145 187 230 277 331
#     4  11  21  35  56  80 107 142 182 225 271 324
#     4   9  20  37  56  84 115 145 183 223 270 327
#     4  10  21  37  59  85 114 148 182 221 272 326
#     4  10  20  35  56  80 109 144 182 226 275 327
#
# _framework density 17.020358000000002
#
# number of rings (size 3 to 8) (size 9 to 14) (size 15 to 20)
#    0.000    1.667    1.667    4.750    0.000    7.333 
#    0.000    1.667    1.833    0.000    0.000    0.000 
#    0.000    0.000    0.000    0.000    0.000    0.000 
#
# Total GULP energy -536202.337808 kJ/mol
# GULP energy per Si atom -5585.441019 kJ/mol
# Density = 1.698162 g / cm^3
# Si number density = 17.020358 Si / 1000 Ang^3
#
#
#
# Elastic Constant Matrix: (Units=GPa)
#
#
# Indices 1 2 3 4 5 6 
#
# 1 90.0602 68.6954 62.0767 0.0000 0.0000 0.0000
# 2 68.6954 90.0602 62.0770 0.0000 0.0000 0.0000
# 3 62.0767 62.0770 97.4790 0.0000 0.0000 0.0000
# 4 0.0000 0.0000 0.0000 29.7932 0.0000 0.0000
# 5 0.0000 0.0000 0.0000 0.0000 29.7932 0.0000
# 6 0.0000 0.0000 0.0000 0.0000 0.0000 27.4496
#
#
#
# Elastic Compliance Matrix: (Units=1/GPa)
#
#
# Indices 1 2 3 4 5 6 
#
# 1 0.029677 -0.017129 -0.007991 0.000000 0.000000 0.000000
# 2 -0.017129 0.029677 -0.007991 0.000000 0.000000 0.000000
# 3 -0.007991 -0.007991 0.020436 0.000000 0.000000 0.000000
# 4 0.000000 0.000000 0.000000 0.033565 0.000000 0.000000
# 5 0.000000 0.000000 0.000000 0.000000 0.033565 0.000000
# 6 0.000000 0.000000 0.000000 0.000000 0.000000 0.036430
#
#
# Mechanical properties :
#
#
# Convention : Reuss Voigt Hill
#
# Bulk Modulus (GPa) = 73.69839 73.69974 73.69907
# Shear Modulus (GPa) = 19.67762 23.05721 21.36742
#
# Velocity S-wave (km/s) = 3.40387 3.68460 3.54701
# Velocity P-wave (km/s) = 7.67089 7.84198 7.75691
#
# Compressibility (1/GPa) = 0.01356882
#
# Stress axis : x y z
#
# Youngs Moduli (GPa) = 33.69601 33.69575 48.93220
#
# Poissons Ratio (x) = 0.57717 0.39101
# Poissons Ratio (y) = 0.57717 0.39103
# Poissons Ratio (z) = 0.26926 0.26927
#
# Static dielectric constant tensor:
#      x y z
#    x 1.566540 0.000000 0.000000 
#    y 0.000000 1.566540 0.000000 
#    z 0.000000 0.000000 1.568980 
# 
# From -- ./inp_files/2083.got.cif
#   From: 2010.05.17/outbox.cif.g08.bks.cpg/sg136_2_cif.got.tgz:2083.got - 2010.05.20 12:54:53.
