data_PCOD9569419
_publ_section_title
;
Structure prediction by ZEFSAII (Michael W. Deem and Ramdas Pophale) SiO2 
 PCOD9569419
Probable space group: P 42/M N M
;
_chemical_formula_sum "Si O2"
_cell_formula_units_Z 72
_cell_length_a 22.043211
_cell_length_b 22.043211
_cell_length_c 7.484591
_cell_angle_alpha 90.000000
_cell_angle_beta 90.000000
_cell_angle_gamma 90.000000
_cell_volume 3636.786352
_symmetry_space_group_name_H-M "P 42/M N M"
_symmetry_group_IT_number 136
_symmetry_cell_setting 'tetragonal'
loop_
_space_group_symop_operation_xyz
x,y,z
1/2-y,1/2+x,1/2+z
-x,-y,z
1/2+y,1/2-x,1/2+z
1/2+x,1/2-y,1/2-z
1/2-x,1/2+y,1/2-z
y,x,-z
-y,-x,-z
-x,-y,-z
1/2+y,1/2-x,1/2-z
x,y,-z
1/2-y,1/2+x,1/2-z
1/2-x,1/2+y,1/2+z
1/2+x,1/2-y,1/2+z
-y,-x,z
y,x,z
loop_
_atom_site_type_symbol
_atom_site_label
_atom_site_fract_x
_atom_site_fract_y
_atom_site_fract_z
Si Si1 0.742059 0.164340 0.215841
Si Si2 0.014793 0.312425 0.206258
Si Si3 0.621238 0.107486 0.297604
Si Si4 0.549915 0.549915 0.718401
Si Si5 0.541530 0.689175 0.717471
O O1 0.773954 0.226047 0.268207
O O2 0.677121 0.153750 0.298267
O O3 0.786460 0.108567 0.264227
O O4 0.736166 0.162513 0.000000
O O5 0.065256 0.356666 0.287471
O O6 0.951914 0.349815 0.208916
O O7 0.001974 0.244643 0.279886
O O8 0.033293 0.303331 0.000000
O O9 0.604837 0.089158 0.500000
O O10 0.500000 0.500000 0.773964
O O11 0.550304 0.550304 0.500000
O O12 0.534044 0.619310 0.774783
O O13 0.538211 0.688843 0.500000
#
# Coordination Sequence:
#
# PCOD9569419 Si02
#       5
#    16  16  16   8  16
#     4   9  16  29  50  70  91 126 165 200 243 292
#     4   9  19  34  49  66  95 131 161 198 253 305
#     4  10  20  32  48  72  97 125 163 208 252 294
#     4   9  14  20  38  70  97 117 151 193 227 274
#     4   8  13  25  43  63  89 120 153 188 228 280
#
# _framework density 19.797696999999999
#
# number of rings (size 3 to 8) (size 9 to 14) (size 15 to 20)
#    0.000    3.000    1.111    2.000    0.000    2.667 
#    0.000    3.333    0.000    4.000    0.000    0.000 
#    0.000   22.222    0.000    0.000    0.000    0.000 
#
# Total GULP energy -400963.188414 kJ/mol
# GULP energy per Si atom -5568.933172 kJ/mol
# Density = 1.975264 g / cm^3
# Si number density = 19.797697 Si / 1000 Ang^3
#
#
#
# Elastic Constant Matrix: (Units=GPa)
#
#
# Indices 1 2 3 4 5 6 
#
# 1 117.6014 86.8097 -0.9425 0.0000 0.0000 0.0000
# 2 86.8097 117.6014 -0.9425 0.0000 0.0000 0.0000
# 3 -0.9425 -0.9425 51.4868 0.0000 0.0000 0.0000
# 4 0.0000 0.0000 0.0000 6.8486 0.0000 0.0000
# 5 0.0000 0.0000 0.0000 0.0000 6.8486 0.0000
# 6 0.0000 0.0000 0.0000 0.0000 0.0000 31.8013
#
#
#
# Elastic Compliance Matrix: (Units=1/GPa)
#
#
# Indices 1 2 3 4 5 6 
#
# 1 0.018685 -0.013792 0.000090 0.000000 0.000000 0.000000
# 2 -0.013792 0.018685 0.000090 0.000000 0.000000 0.000000
# 3 0.000090 0.000090 0.019426 0.000000 0.000000 0.000000
# 4 0.000000 0.000000 0.000000 0.146015 0.000000 0.000000
# 5 0.000000 0.000000 0.000000 0.000000 0.146015 0.000000
# 6 0.000000 0.000000 0.000000 0.000000 0.000000 0.031445
#
#
# Mechanical properties :
#
#
# Convention : Reuss Voigt Hill
#
# Bulk Modulus (GPa) = 33.81820 50.72655 42.27237
# Shear Modulus (GPa) = 11.98030 22.55069 17.26550
#
# Velocity S-wave (km/s) = 2.46262 3.37865 2.95633
# Velocity P-wave (km/s) = 5.02045 6.39519 5.74906
#
# Compressibility (1/GPa) = 0.02956988
#
# Stress axis : x y z
#
# Youngs Moduli (GPa) = 53.51989 53.51989 51.47807
#
# Poissons Ratio (x) = 0.73813 -0.00461
# Poissons Ratio (y) = 0.73813 -0.00461
# Poissons Ratio (z) = -0.00479 -0.00479
#
# Static dielectric constant tensor:
#      x y z
#    x 1.691450 0.000000 0.000000 
#    y 0.000000 1.691450 0.000000 
#    z 0.000000 0.000000 1.802250 
# 
# From -- ./inp_files/1602.got.cif
#   From: 2010.05.17/outbox.cif.g08.bks.cpg/sg136_1_cif.got.tgz:1602.got - 2010.05.20 12:54:53.
