data_PCOD9569427
_publ_section_title
;
Structure prediction by ZEFSAII (Michael W. Deem and Ramdas Pophale) SiO2 
 PCOD9569427
Probable space group: P 42/M N M
;
_chemical_formula_sum "Si O2"
_cell_formula_units_Z 80
_cell_length_a 12.740356
_cell_length_b 12.740356
_cell_length_c 29.183318
_cell_angle_alpha 90.000000
_cell_angle_beta 90.000000
_cell_angle_gamma 90.000000
_cell_volume 4736.939027
_symmetry_space_group_name_H-M "P 42/M N M"
_symmetry_group_IT_number 136
_symmetry_cell_setting 'tetragonal'
loop_
_space_group_symop_operation_xyz
x,y,z
1/2-y,1/2+x,1/2+z
-x,-y,z
1/2+y,1/2-x,1/2+z
1/2+x,1/2-y,1/2-z
1/2-x,1/2+y,1/2-z
y,x,-z
-y,-x,-z
-x,-y,-z
1/2+y,1/2-x,1/2-z
x,y,-z
1/2-y,1/2+x,1/2-z
1/2-x,1/2+y,1/2+z
1/2+x,1/2-y,1/2+z
-y,-x,z
y,x,z
loop_
_atom_site_type_symbol
_atom_site_label
_atom_site_fract_x
_atom_site_fract_y
_atom_site_fract_z
Si Si1 0.347113 0.829688 0.355094
Si Si2 0.894308 0.433212 0.447332
Si Si3 0.672265 0.505003 0.690035
Si Si4 0.834310 0.999802 0.945181
Si Si5 0.535380 0.839243 0.235260
O O1 0.251210 0.748791 0.353407
O O2 0.354355 0.883321 0.404842
O O3 0.452141 0.761180 0.342399
O O4 0.334656 0.914734 0.314861
O O5 0.888139 0.391523 0.500000
O O6 0.789514 0.502471 0.439607
O O7 0.000000 0.500000 0.443668
O O8 0.585839 0.414162 0.696428
O O9 0.607974 0.607974 0.674496
O O10 0.730847 0.530283 0.737523
O O11 0.893391 0.893391 0.927881
O O12 0.846759 0.997983 0.000000
O O13 0.902777 0.097224 0.928045
O O14 0.420291 0.891241 0.236231
#
# Coordination Sequence:
#
# PCOD9569427 Si02
#       5
#    16  16  16  16  16
#     4  10  20  32  51  74  98 132 173 207 247 304
#     4  10  21  33  48  70 103 142 177 217 258 304
#     4   9  18  32  50  75 106 132 158 201 253 307
#     4   8  14  27  48  71  95 126 164 208 262 316
#     4   9  18  31  52  75  99 136 163 202 247 303
#
# _framework density 16.888544
#
# number of rings (size 3 to 8) (size 9 to 14) (size 15 to 20)
#    0.000    2.800    0.000    1.800    5.600    2.800 
#    0.000    2.000    0.000    0.000    0.000    0.000 
#    0.000    2.400    0.000   40.000    0.000    0.000 
#
# Total GULP energy -445357.137299 kJ/mol
# GULP energy per Si atom -5566.964216 kJ/mol
# Density = 1.685010 g / cm^3
# Si number density = 16.888544 Si / 1000 Ang^3
#
#
#
# Elastic Constant Matrix: (Units=GPa)
#
#
# Indices 1 2 3 4 5 6 
#
# 1 61.6925 18.7875 30.8699 0.0000 0.0000 0.0000
# 2 18.7875 61.6925 30.8699 0.0000 0.0000 0.0000
# 3 30.8699 30.8699 134.3488 0.0000 0.0000 0.0000
# 4 0.0000 0.0000 0.0000 5.2048 0.0000 0.0000
# 5 0.0000 0.0000 0.0000 0.0000 5.2048 0.0000
# 6 0.0000 0.0000 0.0000 0.0000 0.0000 8.9983
#
#
#
# Elastic Compliance Matrix: (Units=1/GPa)
#
#
# Indices 1 2 3 4 5 6 
#
# 1 0.019196 -0.004111 -0.003466 0.000000 0.000000 0.000000
# 2 -0.004111 0.019196 -0.003466 0.000000 0.000000 0.000000
# 3 -0.003466 -0.003466 0.009036 0.000000 0.000000 0.000000
# 4 0.000000 0.000000 0.000000 0.192131 0.000000 0.000000
# 5 0.000000 0.000000 0.000000 0.000000 0.192131 0.000000
# 6 0.000000 0.000000 0.000000 0.000000 0.000000 0.111132
#
#
# Mechanical properties :
#
#
# Convention : Reuss Voigt Hill
#
# Bulk Modulus (GPa) = 39.46199 46.53205 42.99702
# Shear Modulus (GPa) = 8.72057 15.69533 12.20795
#
# Velocity S-wave (km/s) = 2.27482 3.05183 2.69151
# Velocity P-wave (km/s) = 5.50605 6.32696 5.93073
#
# Compressibility (1/GPa) = 0.02534084
#
# Stress axis : x y z
#
# Youngs Moduli (GPa) = 52.09467 52.09467 110.66709
#
# Poissons Ratio (x) = 0.21418 0.38357
# Poissons Ratio (y) = 0.21418 0.38357
# Poissons Ratio (z) = 0.18056 0.18056
#
# Static dielectric constant tensor:
#      x y z
#    x 1.555650 0.000000 0.000000 
#    y 0.000000 1.555650 0.000000 
#    z 0.000000 0.000000 1.623030 
# 
# From -- ./inp_files/9530.got.cif
#   From: 2010.05.17/outbox.cif.g08.bks.cpg/sg136_5_cif.got.tgz:9530.got - 2010.05.20 12:54:53.
