data_PCOD9569411
_publ_section_title
;
Structure prediction by ZEFSAII (Michael W. Deem and Ramdas Pophale) SiO2 
 PCOD9569411
Probable space group: P 42/M N M
;
_chemical_formula_sum "Si O2"
_cell_formula_units_Z 72
_cell_length_a 23.544436
_cell_length_b 23.544436
_cell_length_c 8.904544
_cell_angle_alpha 90.000000
_cell_angle_beta 90.000000
_cell_angle_gamma 90.000000
_cell_volume 4936.149075
_symmetry_space_group_name_H-M "P 42/M N M"
_symmetry_group_IT_number 136
_symmetry_cell_setting 'tetragonal'
loop_
_space_group_symop_operation_xyz
x,y,z
1/2-y,1/2+x,1/2+z
-x,-y,z
1/2+y,1/2-x,1/2+z
1/2+x,1/2-y,1/2-z
1/2-x,1/2+y,1/2-z
y,x,-z
-y,-x,-z
-x,-y,-z
1/2+y,1/2-x,1/2-z
x,y,-z
1/2-y,1/2+x,1/2-z
1/2-x,1/2+y,1/2+z
1/2+x,1/2-y,1/2+z
-y,-x,z
y,x,z
loop_
_atom_site_type_symbol
_atom_site_label
_atom_site_fract_x
_atom_site_fract_y
_atom_site_fract_z
Si Si1 0.783915 0.313473 0.172853
Si Si2 0.454034 0.454034 0.182562
Si Si3 0.699354 0.395183 0.321257
Si Si4 0.483484 0.325496 0.180334
Si Si5 0.128193 0.777514 0.181579
O O1 0.736785 0.263216 0.171563
O O2 0.756700 0.363153 0.270325
O O3 0.840690 0.281280 0.225265
O O4 0.791022 0.332238 0.000000
O O5 0.500000 0.500000 0.235388
O O6 0.470576 0.390527 0.228986
O O7 0.454750 0.454750 0.000000
O O8 0.698645 0.402241 0.500000
O O9 0.646958 0.353043 0.279679
O O10 0.692228 0.455273 0.241317
O O11 0.432547 0.287736 0.245620
O O12 0.483042 0.323475 0.000000
O O13 0.170386 0.829615 0.224444
O O14 0.124369 0.777823 0.000000
#
# Coordination Sequence:
#
# PCOD9569411 Si02
#       5
#    16   8  16  16  16
#     4   8  15  29  48  66  84 112 146 181 228 279
#     4   9  18  30  41  57  83 119 161 197 223 252
#     4  10  20  32  45  64  89 118 152 192 233 270
#     4  11  20  30  45  64  89 121 157 193 226 268
#     4   9  17  30  47  66  90 116 145 186 232 275
#
# _framework density 14.586271
#
# number of rings (size 3 to 8) (size 9 to 14) (size 15 to 20)
#    0.000    2.556    1.111    3.333    0.000    3.111 
#    0.000    2.222    0.000    2.667    0.000    0.000 
#    0.000    0.889    0.000    9.333    0.000    4.000 
#
# Total GULP energy -401291.181286 kJ/mol
# GULP energy per Si atom -5573.488629 kJ/mol
# Density = 1.455307 g / cm^3
# Si number density = 14.586271 Si / 1000 Ang^3
#
#
#
# Elastic Constant Matrix: (Units=GPa)
#
#
# Indices 1 2 3 4 5 6 
#
# 1 87.7599 78.9871 37.9853 0.0000 0.0000 0.0000
# 2 78.9871 87.7599 37.9853 0.0000 0.0000 0.0000
# 3 37.9853 37.9853 35.8098 0.0000 0.0000 0.0000
# 4 0.0000 0.0000 0.0000 20.3517 0.0000 0.0000
# 5 0.0000 0.0000 0.0000 0.0000 20.3517 0.0000
# 6 0.0000 0.0000 0.0000 0.0000 0.0000 24.7641
#
#
#
# Elastic Compliance Matrix: (Units=1/GPa)
#
#
# Indices 1 2 3 4 5 6 
#
# 1 0.062798 -0.051191 -0.012311 0.000000 0.000000 0.000000
# 2 -0.051191 0.062798 -0.012311 0.000000 0.000000 0.000000
# 3 -0.012311 -0.012311 0.054044 0.000000 0.000000 0.000000
# 4 0.000000 0.000000 0.000000 0.049136 0.000000 0.000000
# 5 0.000000 0.000000 0.000000 0.000000 0.049136 0.000000
# 6 0.000000 0.000000 0.000000 0.000000 0.000000 0.040381
#
#
# Mechanical properties :
#
#
# Convention : Reuss Voigt Hill
#
# Bulk Modulus (GPa) = 35.70029 57.91610 46.80820
# Shear Modulus (GPa) = 10.43281 16.85160 13.64221
#
# Velocity S-wave (km/s) = 2.67732 3.40267 3.06155
# Velocity P-wave (km/s) = 5.83830 7.43166 6.68264
#
# Compressibility (1/GPa) = 0.02801098
#
# Stress axis : x y z
#
# Youngs Moduli (GPa) = 15.92417 15.92417 18.50355
#
# Poissons Ratio (x) = 0.81518 0.22780
# Poissons Ratio (y) = 0.81518 0.22780
# Poissons Ratio (z) = 0.19605 0.19605
#
# Static dielectric constant tensor:
#      x y z
#    x 1.472570 0.000000 0.000000 
#    y 0.000000 1.472570 0.000000 
#    z 0.000000 0.000000 1.485160 
# 
# From -- ./inp_files/1558.got.cif
#   From: 2010.05.17/outbox.cif.g08.bks.cpg/sg136_1_cif.got.tgz:1558.got - 2010.05.20 12:54:53.
