data_PCOD9569381
_publ_section_title
;
Structure prediction by ZEFSAII (Michael W. Deem and Ramdas Pophale) SiO2 
 PCOD9569381
Probable space group: P 42/M N M
;
_chemical_formula_sum "Si O2"
_cell_formula_units_Z 96
_cell_length_a 15.328466
_cell_length_b 15.328466
_cell_length_c 21.604821
_cell_angle_alpha 90.000000
_cell_angle_beta 90.000000
_cell_angle_gamma 90.000000
_cell_volume 5076.309141
_symmetry_space_group_name_H-M "P 42/M N M"
_symmetry_group_IT_number 136
_symmetry_cell_setting 'tetragonal'
loop_
_space_group_symop_operation_xyz
x,y,z
1/2-y,1/2+x,1/2+z
-x,-y,z
1/2+y,1/2-x,1/2+z
1/2+x,1/2-y,1/2-z
1/2-x,1/2+y,1/2-z
y,x,-z
-y,-x,-z
-x,-y,-z
1/2+y,1/2-x,1/2-z
x,y,-z
1/2-y,1/2+x,1/2-z
1/2-x,1/2+y,1/2+z
1/2+x,1/2-y,1/2+z
-y,-x,z
y,x,z
loop_
_atom_site_type_symbol
_atom_site_label
_atom_site_fract_x
_atom_site_fract_y
_atom_site_fract_z
Si Si1 0.243830 0.613144 0.846942
Si Si2 0.316516 0.459747 0.927582
Si Si3 0.182732 0.321932 0.875482
Si Si4 0.377791 0.065882 0.239002
Si Si5 0.313798 0.551137 0.427380
Si Si6 0.227234 0.375313 0.571054
O O1 0.305113 0.694888 0.832000
O O2 0.299631 0.542905 0.885056
O O3 0.203459 0.574261 0.784838
O O4 0.164426 0.648494 0.889559
O O5 0.404457 0.404457 0.914395
O O6 0.236376 0.394102 0.912976
O O7 0.317169 0.483350 0.000000
O O8 0.255335 0.255335 0.848256
O O9 0.122586 0.362114 0.822163
O O10 0.121179 0.263197 0.918688
O O11 0.464424 0.103027 0.272458
O O12 0.330665 0.535176 0.500000
O O13 0.401059 0.598942 0.401647
O O14 0.275906 0.460561 0.401849
O O15 0.199376 0.394258 0.500000
O O16 0.299577 0.299577 0.568430
#
# Coordination Sequence:
#
# PCOD9569381 Si02
#       6
#    16  16  16  16  16  16
#     4  11  22  38  58  82 114 153 194 236 289 350
#     4  10  21  38  61  88 118 151 191 242 296 349
#     4  10  19  35  56  79 109 145 187 233 284 342
#     4  11  22  37  57  81 112 145 189 239 284 337
#     4   9  17  30  51  78 107 141 183 231 285 346
#     4   9  18  32  50  75 109 146 184 230 283 344
#
# _framework density 18.911377000000002
#
# number of rings (size 3 to 8) (size 9 to 14) (size 15 to 20)
#    0.000    2.000    1.667    2.500    0.000    3.667 
#    0.000    2.500    0.000    4.000    0.000    2.333 
#    0.000    0.000    0.000    0.000    0.000    0.000 
#
# Total GULP energy -535332.440840 kJ/mol
# GULP energy per Si atom -5576.379592 kJ/mol
# Density = 1.886833 g / cm^3
# Si number density = 18.911377 Si / 1000 Ang^3
#
#
#
# Elastic Constant Matrix: (Units=GPa)
#
#
# Indices 1 2 3 4 5 6 
#
# 1 63.6461 1.4195 14.8032 0.0000 0.0000 0.0000
# 2 1.4195 63.6461 14.8032 0.0000 0.0000 0.0000
# 3 14.8032 14.8032 30.2859 0.0000 0.0000 0.0000
# 4 0.0000 0.0000 0.0000 24.7291 0.0000 0.0000
# 5 0.0000 0.0000 0.0000 0.0000 24.7291 0.0000
# 6 0.0000 0.0000 0.0000 0.0000 0.0000 23.1530
#
#
#
# Elastic Compliance Matrix: (Units=1/GPa)
#
#
# Indices 1 2 3 4 5 6 
#
# 1 0.017918 0.001847 -0.009661 0.000000 0.000000 0.000000
# 2 0.001847 0.017918 -0.009661 0.000000 0.000000 0.000000
# 3 -0.009661 -0.009661 0.042463 0.000000 0.000000 0.000000
# 4 0.000000 0.000000 0.000000 0.040438 0.000000 0.000000
# 5 0.000000 0.000000 0.000000 0.000000 0.040438 0.000000
# 6 0.000000 0.000000 0.000000 0.000000 0.000000 0.043191
#
#
# Mechanical properties :
#
#
# Convention : Reuss Voigt Hill
#
# Bulk Modulus (GPa) = 23.06826 24.40330 23.73578
# Shear Modulus (GPa) = 19.85993 22.95905 21.40949
#
# Velocity S-wave (km/s) = 3.24413 3.48808 3.36831
# Velocity P-wave (km/s) = 5.12417 5.39947 5.26362
#
# Compressibility (1/GPa) = 0.04334961
#
# Stress axis : x y z
#
# Youngs Moduli (GPa) = 55.81101 55.81101 23.55018
#
# Poissons Ratio (x) = -0.10310 0.22751
# Poissons Ratio (y) = -0.10310 0.22751
# Poissons Ratio (z) = 0.53917 0.53917
#
# Static dielectric constant tensor:
#      x y z
#    x 1.660080 0.000000 0.000000 
#    y 0.000000 1.660080 0.000000 
#    z 0.000000 0.000000 1.636290 
# 
# From -- ./inp_files/7473.got.cif
#   From: 2010.05.17/outbox.cif.g08.bks.cpg/sg136_4_cif.got.tgz:7473.got - 2010.05.20 12:54:53.
