data_PCOD9569839
_publ_section_title
;
Structure prediction by ZEFSAII (Michael W. Deem and Ramdas Pophale) SiO2 
 PCOD9569839
Probable space group: P 42/M N M
;
_chemical_formula_sum "Si O2"
_cell_formula_units_Z 52
_cell_length_a 16.786596
_cell_length_b 16.786596
_cell_length_c 7.916958
_cell_angle_alpha 90.000000
_cell_angle_beta 90.000000
_cell_angle_gamma 90.000000
_cell_volume 2230.918053
_symmetry_space_group_name_H-M "P 42/M N M"
_symmetry_group_IT_number 136
_symmetry_cell_setting 'tetragonal'
loop_
_space_group_symop_operation_xyz
x,y,z
1/2-y,1/2+x,1/2+z
-x,-y,z
1/2+y,1/2-x,1/2+z
1/2+x,1/2-y,1/2-z
1/2-x,1/2+y,1/2-z
y,x,-z
-y,-x,-z
-x,-y,-z
1/2+y,1/2-x,1/2-z
x,y,-z
1/2-y,1/2+x,1/2-z
1/2-x,1/2+y,1/2+z
1/2+x,1/2-y,1/2+z
-y,-x,z
y,x,z
loop_
_atom_site_type_symbol
_atom_site_label
_atom_site_fract_x
_atom_site_fract_y
_atom_site_fract_z
Si Si1 0.919602 0.404865 0.806650
Si Si2 0.230553 0.896662 0.700528
Si Si3 0.320110 0.679891 0.000000
Si Si4 0.926996 0.806519 0.187451
O O1 0.896958 0.484230 0.706784
O O2 0.885071 0.322951 0.739409
O O3 0.898933 0.418865 0.000000
O O4 0.219982 0.904130 0.500000
O O5 0.176313 0.823688 0.762810
O O6 0.204593 0.980099 0.782297
O O7 0.278107 0.624509 0.848304
O O8 0.899548 0.899548 0.186502
O O9 0.905650 0.774771 0.000000
#
# Coordination Sequence:
#
# PCOD9569839 Si02
#       4
#    16  16   4  16
#     4  11  23  43  69  94 122 161 212 262 311 371
#     4  11  22  38  62  93 129 165 203 257 322 380
#     4   8  14  32  49  76 120 160 210 258 296 368
#     4   9  17  31  52  80 117 164 210 251 305 373
#
# _framework density 23.308788
#
# number of rings (size 3 to 8) (size 9 to 14) (size 15 to 20)
#    0.923    0.923    1.538    4.615    0.000    3.077 
#    0.000    5.385    0.000    9.231    0.000    0.000 
#    0.000    0.000    0.000    0.000    0.000    0.000 
#
# Total GULP energy -289497.187425 kJ/mol
# GULP energy per Si atom -5567.253604 kJ/mol
# Density = 2.325574 g / cm^3
# Si number density = 23.308788 Si / 1000 Ang^3
#
#
#
# Elastic Constant Matrix: (Units=GPa)
#
#
# Indices 1 2 3 4 5 6 
#
# 1 82.0265 103.0144 25.5823 0.0000 0.0000 0.0000
# 2 103.0144 82.0265 25.5814 0.0000 0.0000 0.0000
# 3 25.5823 25.5814 155.4614 0.0000 0.0000 0.0000
# 4 0.0000 0.0000 0.0000 26.2211 0.0000 0.0000
# 5 0.0000 0.0000 0.0000 0.0000 26.2209 0.0000
# 6 0.0000 0.0000 0.0000 0.0000 0.0000 8.6186
#
#
#
# Elastic Compliance Matrix: (Units=1/GPa)
#
#
# Indices 1 2 3 4 5 6 
#
# 1 -0.020992 0.026654 -0.000932 0.000000 0.000000 0.000000
# 2 0.026654 -0.020992 -0.000932 0.000000 0.000000 0.000000
# 3 -0.000932 -0.000932 0.006739 0.000000 0.000000 0.000000
# 4 0.000000 0.000000 0.000000 0.038137 0.000000 0.000000
# 5 0.000000 0.000000 0.000000 0.000000 0.038137 0.000000
# 6 0.000000 0.000000 0.000000 0.000000 0.000000 0.116028
#
#
# Mechanical properties :
#
#
# Convention : Reuss Voigt Hill
#
# Bulk Modulus (GPa) = 69.75438 69.76340 69.75889
# Shear Modulus (GPa) = 44.54163 23.23454 33.88808
#
# Velocity S-wave (km/s) = 4.37617 3.16066 3.81711
# Velocity P-wave (km/s) = 7.45155 6.58140 7.02995
#
# Compressibility (1/GPa) = 0.01433602
#
# Stress axis : x y z
#
# Youngs Moduli (GPa) = -47.63643 -47.63661 148.38801
#
# Poissons Ratio (x) = 1.26971 0.13823
# Poissons Ratio (y) = 1.26971 0.13827
# Poissons Ratio (z) = -0.04437 -0.04439
#
# Static dielectric constant tensor:
#      x y z
#    x 1.899720 0.000000 0.000000 
#    y 0.000000 1.899720 0.000000 
#    z 0.000000 0.000000 1.851820 
# 
# From -- ./inp_files/963.got.cif
#   From: 2010.05.17/outbox.cif.g08.bks.cpg/sg136_1_cif.got.tgz:963.got - 2010.05.20 12:54:53.
