data_PCOD9569040
_publ_section_title
;
Structure prediction by ZEFSAII (Michael W. Deem and Ramdas Pophale) SiO2 
 PCOD9569040
Probable space group: P 42/M B C
;
_chemical_formula_sum "Si O2"
_cell_formula_units_Z 40
_cell_length_a 9.836540
_cell_length_b 9.836540
_cell_length_c 16.514902
_cell_angle_alpha 90.000000
_cell_angle_beta 90.000000
_cell_angle_gamma 90.000000
_cell_volume 1597.940947
_symmetry_space_group_name_H-M "P 42/M B C"
_symmetry_group_IT_number 135
_symmetry_cell_setting 'tetragonal'
loop_
_space_group_symop_operation_xyz
x,y,z
-y,x,1/2+z
-x,-y,z
y,-x,1/2+z
1/2+x,1/2-y,-z
1/2-x,1/2+y,-z
1/2+y,1/2+x,1/2-z
1/2-y,1/2-x,1/2-z
-x,-y,-z
y,-x,1/2-z
x,y,-z
-y,x,1/2-z
1/2-x,1/2+y,z
1/2+x,1/2-y,z
1/2-y,1/2-x,1/2+z
1/2+y,1/2+x,1/2+z
loop_
_atom_site_type_symbol
_atom_site_label
_atom_site_fract_x
_atom_site_fract_y
_atom_site_fract_z
Si Si1 0.073864 0.861873 0.000000
Si Si2 0.161986 0.515639 0.000000
Si Si3 0.705563 0.887629 0.647186
Si Si4 0.343434 0.843434 0.250000
O O1 0.029992 0.785604 0.079417
O O2 0.236068 0.889170 0.000000
O O3 0.000000 0.000000 0.000000
O O4 0.181813 0.592089 0.912242
O O5 0.000000 0.500000 0.000000
O O6 0.803960 0.773782 0.685144
O O7 0.670637 0.005531 0.712230
#
# Coordination Sequence:
#
# PCOD9569040 Si02
#       4
#     8   8  16   8
#     4  11  24  47  76 103 143 197 256 314 368 464
#     4  11  24  47  78 103 143 203 256 314 375 467
#     4  11  28  46  71 111 149 198 254 314 391 456
#     4  12  28  46  76 110 158 196 248 319 389 448
#
# _framework density 25.032215000000001
#
# number of rings (size 3 to 8) (size 9 to 14) (size 15 to 20)
#    0.000    0.800    0.000    4.800   16.800    6.400 
#    0.000    0.000    0.000    0.000    0.000    0.000 
#    0.000    0.000    0.000    0.000    0.000    0.000 
#
# Total GULP energy -223284.544960 kJ/mol
# GULP energy per Si atom -5582.113624 kJ/mol
# Density = 2.497524 g / cm^3
# Si number density = 25.032215 Si / 1000 Ang^3
#
#
#
# Elastic Constant Matrix: (Units=GPa)
#
#
# Indices 1 2 3 4 5 6 
#
# 1 106.8705 58.9450 60.8976 0.0000 0.0000 0.0000
# 2 58.9450 106.8705 60.8976 0.0000 0.0000 0.0000
# 3 60.8976 60.8976 184.6626 0.0000 0.0000 0.0000
# 4 0.0000 0.0000 0.0000 25.7916 0.0000 0.0000
# 5 0.0000 0.0000 0.0000 0.0000 25.7916 0.0000
# 6 0.0000 0.0000 0.0000 0.0000 0.0000 52.7360
#
#
#
# Elastic Compliance Matrix: (Units=1/GPa)
#
#
# Indices 1 2 3 4 5 6 
#
# 1 0.014412 -0.006454 -0.002625 0.000000 0.000000 0.000000
# 2 -0.006454 0.014412 -0.002625 0.000000 0.000000 0.000000
# 3 -0.002625 -0.002625 0.007146 0.000000 0.000000 0.000000
# 4 0.000000 0.000000 0.000000 0.038772 0.000000 0.000000
# 5 0.000000 0.000000 0.000000 0.000000 0.038772 0.000000
# 6 0.000000 0.000000 0.000000 0.000000 0.000000 0.018962
#
#
# Mechanical properties :
#
#
# Convention : Reuss Voigt Hill
#
# Bulk Modulus (GPa) = 79.58452 84.43155 82.00804
# Shear Modulus (GPa) = 31.23608 35.37476 33.30542
#
# Velocity S-wave (km/s) = 3.53630 3.76329 3.65156
# Velocity P-wave (km/s) = 6.96676 7.25848 7.11412
#
# Compressibility (1/GPa) = 0.01256526
#
# Stress axis : x y z
#
# Youngs Moduli (GPa) = 69.38585 69.38585 139.93199
#
# Poissons Ratio (x) = 0.44779 0.36726
# Poissons Ratio (y) = 0.44779 0.36726
# Poissons Ratio (z) = 0.18211 0.18211
#
# Static dielectric constant tensor:
#      x y z
#    x 1.921910 0.000000 0.000000 
#    y 0.000000 1.921910 0.000000 
#    z 0.000000 0.000000 1.982140 
# 
# From -- ./inp_files/3937.got.cif
#   From: 2010.05.17/outbox.cif.g08.bks.cpg/sg135_2_cif.got.tgz:3937.got - 2010.05.20 12:50:20.
