data_PCOD9569059
_publ_section_title
;
Structure prediction by ZEFSAII (Michael W. Deem and Ramdas Pophale) SiO2 
 PCOD9569059
Probable space group: P 42/M B C
;
_chemical_formula_sum "Si O2"
_cell_formula_units_Z 48
_cell_length_a 8.985947
_cell_length_b 8.985947
_cell_length_c 22.998993
_cell_angle_alpha 90.000000
_cell_angle_beta 90.000000
_cell_angle_gamma 90.000000
_cell_volume 1857.105288
_symmetry_space_group_name_H-M "P 42/M B C"
_symmetry_group_IT_number 135
_symmetry_cell_setting 'tetragonal'
loop_
_space_group_symop_operation_xyz
x,y,z
-y,x,1/2+z
-x,-y,z
y,-x,1/2+z
1/2+x,1/2-y,-z
1/2-x,1/2+y,-z
1/2+y,1/2+x,1/2-z
1/2-y,1/2-x,1/2-z
-x,-y,-z
y,-x,1/2-z
x,y,-z
-y,x,1/2-z
1/2-x,1/2+y,z
1/2+x,1/2-y,z
1/2-y,1/2-x,1/2+z
1/2+y,1/2+x,1/2+z
loop_
_atom_site_type_symbol
_atom_site_label
_atom_site_fract_x
_atom_site_fract_y
_atom_site_fract_z
Si Si1 0.165067 0.062105 0.563466
Si Si2 0.966191 0.231491 0.270485
Si Si3 0.127559 0.387368 0.114439
O O1 0.234660 0.031301 0.500000
O O2 0.158719 0.237740 0.573058
O O3 0.242908 0.977309 0.616573
O O4 0.000000 0.000000 0.561842
O O5 0.878430 0.378430 0.250000
O O6 0.101407 0.158946 0.233444
O O7 0.039777 0.286536 0.330959
O O8 0.000000 0.500000 0.093112
#
# Coordination Sequence:
#
# PCOD9569059 Si02
#       3
#    16  16  16
#     4  11  27  51  83 120 162 215 283 361 445 527
#     4  11  31  52  82 122 172 232 291 353 429 518
#     4  12  29  49  82 120 168 220 288 358 437 527
#
# _framework density 25.846679000000002
#
# number of rings (size 3 to 8) (size 9 to 14) (size 15 to 20)
#    0.000    0.667    0.000    3.000   18.667    5.333 
#    0.000    0.000    0.000    0.000    0.000    0.000 
#    0.000    0.000    0.000    0.000    0.000    0.000 
#
# Total GULP energy -268264.093693 kJ/mol
# GULP energy per Si atom -5588.835285 kJ/mol
# Density = 2.578785 g / cm^3
# Si number density = 25.846679 Si / 1000 Ang^3
#
#
#
# Elastic Constant Matrix: (Units=GPa)
#
#
# Indices 1 2 3 4 5 6 
#
# 1 160.4065 71.6445 57.3905 0.0000 0.0000 0.0000
# 2 71.6445 160.4065 57.3905 0.0000 0.0000 0.0000
# 3 57.3905 57.3905 112.7539 0.0000 0.0000 0.0000
# 4 0.0000 0.0000 0.0000 38.5601 0.0000 0.0000
# 5 0.0000 0.0000 0.0000 0.0000 38.5601 0.0000
# 6 0.0000 0.0000 0.0000 0.0000 0.0000 77.0445
#
#
#
# Elastic Compliance Matrix: (Units=1/GPa)
#
#
# Indices 1 2 3 4 5 6 
#
# 1 0.008513 -0.002753 -0.002931 0.000000 0.000000 0.000000
# 2 -0.002753 0.008513 -0.002931 0.000000 0.000000 0.000000
# 3 -0.002931 -0.002931 0.011853 0.000000 0.000000 0.000000
# 4 0.000000 0.000000 0.000000 0.025934 0.000000 0.000000
# 5 0.000000 0.000000 0.000000 0.000000 0.025934 0.000000
# 6 0.000000 0.000000 0.000000 0.000000 0.000000 0.012980
#
#
# Mechanical properties :
#
#
# Convention : Reuss Voigt Hill
#
# Bulk Modulus (GPa) = 85.86661 89.60197 87.73429
# Shear Modulus (GPa) = 43.53896 47.30905 45.42400
#
# Velocity S-wave (km/s) = 4.10873 4.28293 4.19673
# Velocity P-wave (km/s) = 7.47011 7.69415 7.58296
#
# Compressibility (1/GPa) = 0.01164597
#
# Stress axis : x y z
#
# Youngs Moduli (GPa) = 117.47092 117.47092 84.36649
#
# Poissons Ratio (x) = 0.32344 0.24732
# Poissons Ratio (y) = 0.32344 0.24732
# Poissons Ratio (z) = 0.34436 0.34436
#
# Static dielectric constant tensor:
#      x y z
#    x 2.027420 0.000000 0.000000 
#    y 0.000000 2.027420 0.000000 
#    z 0.000000 0.000000 2.094960 
# 
# From -- ./inp_files/6605.got.cif
#   From: 2010.05.17/outbox.cif.g08.bks.cpg/sg135_4_cif.got.tgz:6605.got - 2010.05.20 12:50:20.
