data_PCOD9569778
_publ_section_title
;
Structure prediction by ZEFSAII (Michael W. Deem and Ramdas Pophale) SiO2 
 PCOD9569778
Probable space group: P 42/M N M
;
_chemical_formula_sum "Si O2"
_cell_formula_units_Z 88
_cell_length_a 12.449495
_cell_length_b 12.449495
_cell_length_c 27.553633
_cell_angle_alpha 90.000000
_cell_angle_beta 90.000000
_cell_angle_gamma 90.000000
_cell_volume 4270.535533
_symmetry_space_group_name_H-M "P 42/M N M"
_symmetry_group_IT_number 136
_symmetry_cell_setting 'tetragonal'
loop_
_space_group_symop_operation_xyz
x,y,z
1/2-y,1/2+x,1/2+z
-x,-y,z
1/2+y,1/2-x,1/2+z
1/2+x,1/2-y,1/2-z
1/2-x,1/2+y,1/2-z
y,x,-z
-y,-x,-z
-x,-y,-z
1/2+y,1/2-x,1/2-z
x,y,-z
1/2-y,1/2+x,1/2-z
1/2-x,1/2+y,1/2+z
1/2+x,1/2-y,1/2+z
-y,-x,z
y,x,z
loop_
_atom_site_type_symbol
_atom_site_label
_atom_site_fract_x
_atom_site_fract_y
_atom_site_fract_z
Si Si1 0.732551 0.442039 0.943850
Si Si2 0.671564 0.849371 0.308278
Si Si3 0.817255 0.648436 0.896577
Si Si4 0.910017 0.089984 0.941764
Si Si5 0.330008 0.943323 0.908177
Si Si6 0.587373 0.760452 0.792544
O O1 0.640152 0.359849 0.926986
O O2 0.742475 0.550566 0.913647
O O3 0.847164 0.382240 0.938777
O O4 0.712694 0.467532 0.000000
O O5 0.755558 0.755558 0.320556
O O6 0.588913 0.856566 0.352723
O O7 0.615153 0.818044 0.257932
O O8 0.733687 0.960981 0.301428
O O9 0.759610 0.759610 0.910741
O O10 0.820917 0.641711 0.838219
O O11 0.935674 0.632133 0.917761
O O12 0.796715 0.057683 0.918456
O O13 0.897123 0.102878 0.000000
O O14 0.000000 0.000000 0.933145
O O15 0.643443 0.643443 0.791352
#
# Coordination Sequence:
#
# PCOD9569778 Si02
#       6
#    16  16  16   8  16  16
#     4  11  24  43  68  97 129 170 224 277 329 397
#     4  11  22  40  66  95 130 175 224 275 332 398
#     4  11  25  42  63  95 133 173 218 273 331 397
#     4  11  24  42  66  96 135 177 217 273 341 407
#     4  12  22  41  67  97 130 171 223 274 332 399
#     4  10  23  40  62  95 132 171 221 275 334 397
#
# _framework density 20.606314000000001
#
# number of rings (size 3 to 8) (size 9 to 14) (size 15 to 20)
#    0.000    1.000    3.636    2.727    0.000    5.091 
#    0.000    3.636    0.000    0.000    0.000    0.000 
#    0.000    0.000    0.000    0.000    0.000    0.000 
#
# Total GULP energy -491956.582863 kJ/mol
# GULP energy per Si atom -5590.415714 kJ/mol
# Density = 2.055941 g / cm^3
# Si number density = 20.606314 Si / 1000 Ang^3
#
#
#
# Elastic Constant Matrix: (Units=GPa)
#
#
# Indices 1 2 3 4 5 6 
#
# 1 92.0310 22.3408 13.3011 0.0000 0.0000 0.0000
# 2 22.3408 92.0311 13.3011 0.0000 0.0000 0.0000
# 3 13.3011 13.3011 75.3111 0.0000 0.0000 0.0000
# 4 0.0000 0.0000 0.0000 21.9275 0.0000 0.0000
# 5 0.0000 0.0000 0.0000 0.0000 21.9275 0.0000
# 6 0.0000 0.0000 0.0000 0.0000 0.0000 28.2736
#
#
#
# Elastic Compliance Matrix: (Units=1/GPa)
#
#
# Indices 1 2 3 4 5 6 
#
# 1 0.011734 -0.002616 -0.001610 0.000000 0.000000 0.000000
# 2 -0.002616 0.011734 -0.001610 0.000000 0.000000 0.000000
# 3 -0.001610 -0.001610 0.013847 0.000000 0.000000 0.000000
# 4 0.000000 0.000000 0.000000 0.045605 0.000000 0.000000
# 5 0.000000 0.000000 0.000000 0.000000 0.045605 0.000000
# 6 0.000000 0.000000 0.000000 0.000000 0.000000 0.035369
#
#
# Mechanical properties :
#
#
# Convention : Reuss Voigt Hill
#
# Bulk Modulus (GPa) = 38.99919 39.69544 39.34732
# Shear Modulus (GPa) = 27.15731 28.45441 27.80586
#
# Velocity S-wave (km/s) = 3.63424 3.72002 3.67738
# Velocity P-wave (km/s) = 6.04791 6.14467 6.09648
#
# Compressibility (1/GPa) = 0.02564156
#
# Stress axis : x y z
#
# Youngs Moduli (GPa) = 85.22537 85.22543 72.21733
#
# Poissons Ratio (x) = 0.22292 0.11630
# Poissons Ratio (y) = 0.22292 0.11630
# Poissons Ratio (z) = 0.13724 0.13724
#
# Static dielectric constant tensor:
#      x y z
#    x 1.721530 0.000000 0.000000 
#    y 0.000000 1.721530 0.000000 
#    z 0.000000 0.000000 1.723240 
# 
# From -- ./inp_files/9727.got.cif
#   From: 2010.05.17/outbox.cif.g08.bks.cpg/sg136_5_cif.got.tgz:9727.got - 2010.05.20 12:54:53.
