data_PCOD9569912
_publ_section_title
;
Structure prediction by ZEFSAII (Michael W. Deem and Ramdas Pophale) SiO2 
 PCOD9569912
Probable space group: P 42/M N M
;
_chemical_formula_sum "Si O2"
_cell_formula_units_Z 72
_cell_length_a 21.000000
_cell_length_b 21.000000
_cell_length_c 9.000000
_cell_angle_alpha 90.000000
_cell_angle_beta 90.000000
_cell_angle_gamma 90.000000
_cell_volume 3969.000000
_symmetry_space_group_name_H-M "P 42/M N M"
_symmetry_group_IT_number 136
_symmetry_cell_setting 'tetragonal'
loop_
_space_group_symop_operation_xyz
x,y,z
1/2-y,1/2+x,1/2+z
-x,-y,z
1/2+y,1/2-x,1/2+z
1/2+x,1/2-y,1/2-z
1/2-x,1/2+y,1/2-z
y,x,-z
-y,-x,-z
-x,-y,-z
1/2+y,1/2-x,1/2-z
x,y,-z
1/2-y,1/2+x,1/2-z
1/2-x,1/2+y,1/2+z
1/2+x,1/2-y,1/2+z
-y,-x,z
y,x,z
loop_
_atom_site_type_symbol
_atom_site_label
_atom_site_fract_x
_atom_site_fract_y
_atom_site_fract_z
Si Si1 0.542560 0.816130 0.827566
Si Si2 0.015428 0.808370 0.824492
Si Si3 0.051843 0.948158 0.181964
Si Si4 0.280067 0.614644 0.829286
Si Si5 0.641761 0.898243 0.671771
O O1 0.553766 0.750923 0.740460
O O2 0.589602 0.870648 0.777880
O O3 0.471214 0.840664 0.798280
O O4 0.547822 0.802580 0.000000
O O5 0.034805 0.877518 0.767394
O O6 0.942590 0.796936 0.778561
O O7 0.022073 0.808201 0.000000
O O8 0.051156 0.948845 0.000000
O O9 0.000000 0.000000 0.230597
O O10 0.329661 0.670340 0.814078
O O11 0.208413 0.637839 0.806321
O O12 0.282076 0.589755 0.000000
O O13 0.621579 0.892268 0.500000
#
# Coordination Sequence:
#
# PCOD9569912 Si02
#       5
#    16  16   8  16  16
#     4  10  21  37  55  77 107 137 171 218 267 315
#     4  10  19  33  54  77 105 140 176 218 262 311
#     4   9  18  32  51  79 109 139 179 219 257 306
#     4   9  18  34  54  77 106 139 175 217 262 309
#     4   9  19  35  54  76 103 138 175 212 259 315
#
# _framework density 18.14059
#
# number of rings (size 3 to 8) (size 9 to 14) (size 15 to 20)
#    0.000    2.556    0.000    3.333    0.000    6.222 
#    2.000    4.444    0.000    4.000    0.000    0.000 
#    0.000    0.000    0.000    0.000    0.000    0.000 
#
# Total GULP energy -401063.839165 kJ/mol
# GULP energy per Si atom -5570.331100 kJ/mol
# Density = 1.809930 g / cm^3
# Si number density = 18.140590 Si / 1000 Ang^3
#
#
#
# Elastic Constant Matrix: (Units=GPa)
#
#
# Indices 1 2 3 4 5 6 
#
# 1 35.8954 0.7165 60.8229 0.0000 0.0000 0.0000
# 2 0.7165 35.8954 60.8228 0.0000 0.0000 0.0000
# 3 60.8229 60.8228 22.4782 0.0000 0.0000 0.0000
# 4 0.0000 0.0000 0.0000 12.7722 0.0000 0.0000
# 5 0.0000 0.0000 0.0000 0.0000 12.7720 0.0000
# 6 0.0000 0.0000 0.0000 0.0000 0.0000 -2.2278
#
#
#
# Elastic Compliance Matrix: (Units=1/GPa)
#
#
# Indices 1 2 3 4 5 6 
#
# 1 0.012504 -0.015922 0.009249 0.000000 0.000000 0.000000
# 2 -0.015922 0.012504 0.009249 0.000000 0.000000 0.000000
# 3 0.009249 0.009249 -0.005568 0.000000 0.000000 0.000000
# 4 0.000000 0.000000 0.000000 0.078295 0.000000 0.000000
# 5 0.000000 0.000000 0.000000 0.000000 0.078296 0.000000
# 6 0.000000 0.000000 0.000000 0.000000 0.000000 -0.448880
#
#
# Mechanical properties :
#
#
# Convention : Reuss Voigt Hill
#
# Bulk Modulus (GPa) = 40.66130 37.66595 39.16362
# Shear Modulus (GPa) = -18.53202 2.79040 -7.87081
#
# Velocity S-wave (km/s) = -3.19968 1.24159 -2.08523
# Velocity P-wave (km/s) = 2.96860 4.78161 3.97973
#
# Compressibility (1/GPa) = 0.02459341
#
# Stress axis : x y z
#
# Youngs Moduli (GPa) = 79.97508 79.97463 -179.61006
#
# Poissons Ratio (x) = 1.27337 1.66129
# Poissons Ratio (y) = 1.27338 1.66128
# Poissons Ratio (z) = -0.73972 -0.73972
#
# Static dielectric constant tensor:
#      x y z
#    x 1.610860 0.000000 0.000000 
#    y 0.000000 1.610860 0.000000 
#    z 0.000000 0.000000 1.628490 
# 
# From -- ./inp_files/1527.got.cif
#   From: 2010.05.17/outbox.ucp.g08.bks.cvg/sg136_1_cif.got.tgz:1527.got - 2010.06.11 11:40:42.
