data_PCOD9569566
_publ_section_title
;
Structure prediction by ZEFSAII (Michael W. Deem and Ramdas Pophale) SiO2 
 PCOD9569566
Probable space group: P 42/M N M
;
_chemical_formula_sum "Si O2"
_cell_formula_units_Z 64
_cell_length_a 11.654789
_cell_length_b 11.654789
_cell_length_c 23.082461
_cell_angle_alpha 90.000000
_cell_angle_beta 90.000000
_cell_angle_gamma 90.000000
_cell_volume 3135.385469
_symmetry_space_group_name_H-M "P 42/M N M"
_symmetry_group_IT_number 136
_symmetry_cell_setting 'tetragonal'
loop_
_space_group_symop_operation_xyz
x,y,z
1/2-y,1/2+x,1/2+z
-x,-y,z
1/2+y,1/2-x,1/2+z
1/2+x,1/2-y,1/2-z
1/2-x,1/2+y,1/2-z
y,x,-z
-y,-x,-z
-x,-y,-z
1/2+y,1/2-x,1/2-z
x,y,-z
1/2-y,1/2+x,1/2-z
1/2-x,1/2+y,1/2+z
1/2+x,1/2-y,1/2+z
-y,-x,z
y,x,z
loop_
_atom_site_type_symbol
_atom_site_label
_atom_site_fract_x
_atom_site_fract_y
_atom_site_fract_z
Si Si1 0.792699 0.386284 0.432590
Si Si2 0.188073 0.362501 0.614598
Si Si3 0.282248 0.460300 0.135215
Si Si4 0.319461 0.948926 0.243260
O O1 0.819556 0.366020 0.500000
O O2 0.662255 0.337746 0.423425
O O3 0.822886 0.517002 0.417612
O O4 0.871346 0.307056 0.392666
O O5 0.295579 0.295579 0.589453
O O6 0.211952 0.396383 0.681678
O O7 0.081716 0.272667 0.615511
O O8 0.407129 0.407129 0.119708
O O9 0.270816 0.457940 0.205075
O O10 0.424899 0.871837 0.266630
#
# Coordination Sequence:
#
# PCOD9569566 Si02
#       4
#    16  16  16  16
#     4  10  22  41  64  86 110 149 201 251 295 345
#     4  11  22  35  55  86 121 155 191 239 299 360
#     4  10  20  36  58  83 115 156 199 242 286 347
#     4   9  16  31  56  83 113 149 193 243 290 338
#
# _framework density 20.412161999999999
#
# number of rings (size 3 to 8) (size 9 to 14) (size 15 to 20)
#    0.000    2.000    2.500    1.500    0.000    3.500 
#    0.000    1.250    0.000    3.000    0.000    5.250 
#    0.000    0.000    0.000    0.000    0.000    0.000 
#
# Total GULP energy -356433.409145 kJ/mol
# GULP energy per Si atom -5569.272018 kJ/mol
# Density = 2.036570 g / cm^3
# Si number density = 20.412162 Si / 1000 Ang^3
#
#
#
# Elastic Constant Matrix: (Units=GPa)
#
#
# Indices 1 2 3 4 5 6 
#
# 1 -3.2858 72.8655 6.8283 0.0000 0.0000 0.0000
# 2 72.8655 -3.2858 6.8283 0.0000 0.0000 0.0000
# 3 6.8283 6.8283 60.6838 0.0000 0.0000 0.0000
# 4 0.0000 0.0000 0.0000 -15.8085 0.0000 0.0000
# 5 0.0000 0.0000 0.0000 0.0000 -15.8085 0.0000
# 6 0.0000 0.0000 0.0000 0.0000 0.0000 24.7584
#
#
#
# Elastic Compliance Matrix: (Units=1/GPa)
#
#
# Indices 1 2 3 4 5 6 
#
# 1 0.000782 0.013914 -0.001654 0.000000 0.000000 0.000000
# 2 0.013914 0.000782 -0.001654 0.000000 0.000000 0.000000
# 3 -0.001654 -0.001654 0.016851 0.000000 0.000000 0.000000
# 4 0.000000 0.000000 0.000000 -0.063257 0.000000 0.000000
# 5 0.000000 0.000000 0.000000 0.000000 -0.063257 0.000000
# 6 0.000000 0.000000 0.000000 0.000000 0.000000 0.040390
#
#
# Mechanical properties :
#
#
# Convention : Reuss Voigt Hill
#
# Bulk Modulus (GPa) = 25.23378 25.23958 25.23668
# Shear Modulus (GPa) = -66.03986 -3.53237 -34.78612
#
# Velocity S-wave (km/s) = -5.69416 -1.31692 -4.13266
# Velocity P-wave (km/s) = 5.55358 3.17481 3.22202
#
# Compressibility (1/GPa) = 0.03962942
#
# Stress axis : x y z
#
# Youngs Moduli (GPa) = 1278.08409 1278.08409 59.34359
#
# Poissons Ratio (x) = -17.78348 0.09814
# Poissons Ratio (y) = -17.78348 0.09814
# Poissons Ratio (z) = 2.11356 2.11356
#
# Static dielectric constant tensor:
#      x y z
#    x 1.744240 0.000000 0.000000 
#    y 0.000000 1.744240 0.000000 
#    z 0.000000 0.000000 1.693850 
# 
# From -- ./inp_files/7024.got.cif
#   From: 2010.05.17/outbox.cif.g08.bks.cpg/sg136_4_cif.got.tgz:7024.got - 2010.05.20 12:54:53.
