data_PCOD9569786
_publ_section_title
;
Structure prediction by ZEFSAII (Michael W. Deem and Ramdas Pophale) SiO2 
 PCOD9569786
Probable space group: P 42/M N M
;
_chemical_formula_sum "Si O2"
_cell_formula_units_Z 88
_cell_length_a 14.049289
_cell_length_b 14.049289
_cell_length_c 22.400935
_cell_angle_alpha 90.000000
_cell_angle_beta 90.000000
_cell_angle_gamma 90.000000
_cell_volume 4421.553032
_symmetry_space_group_name_H-M "P 42/M N M"
_symmetry_group_IT_number 136
_symmetry_cell_setting 'tetragonal'
loop_
_space_group_symop_operation_xyz
x,y,z
1/2-y,1/2+x,1/2+z
-x,-y,z
1/2+y,1/2-x,1/2+z
1/2+x,1/2-y,1/2-z
1/2-x,1/2+y,1/2-z
y,x,-z
-y,-x,-z
-x,-y,-z
1/2+y,1/2-x,1/2-z
x,y,-z
1/2-y,1/2+x,1/2-z
1/2-x,1/2+y,1/2+z
1/2+x,1/2-y,1/2+z
-y,-x,z
y,x,z
loop_
_atom_site_type_symbol
_atom_site_label
_atom_site_fract_x
_atom_site_fract_y
_atom_site_fract_z
Si Si1 0.667403 0.819401 0.379286
Si Si2 0.292837 0.858518 0.373927
Si Si3 0.135408 0.417121 0.748301
Si Si4 0.919679 0.080322 0.068947
Si Si5 0.776497 0.482590 0.431084
Si Si6 0.467200 0.683256 0.071258
O O1 0.719025 0.719025 0.391780
O O2 0.631263 0.824900 0.311423
O O3 0.577991 0.837590 0.421893
O O4 0.745513 0.897792 0.393699
O O5 0.242240 0.757761 0.370909
O O6 0.304577 0.898623 0.307397
O O7 0.396063 0.833869 0.401377
O O8 0.222812 0.929788 0.409625
O O9 0.123939 0.529888 0.739750
O O10 0.826004 0.022642 0.093689
O O11 0.893027 0.106974 0.000000
O O12 0.000000 0.000000 0.067173
O O13 0.761131 0.457170 0.500000
O O14 0.422369 0.577632 0.083709
O O15 0.458927 0.695381 0.000000
#
# Coordination Sequence:
#
# PCOD9569786 Si02
#       6
#    16  16  16   8  16  16
#     4  11  21  39  65  91 124 162 206 257 313 377
#     4  12  25  42  64  91 126 168 217 265 314 379
#     4  11  22  41  65  89 120 161 206 260 321 371
#     4   9  18  34  54  82 126 170 199 229 284 364
#     4  11  22  36  60  94 128 163 201 249 312 379
#     4  10  23  42  65  94 127 165 210 265 326 383
#
# _framework density 19.902509999999999
#
# number of rings (size 3 to 8) (size 9 to 14) (size 15 to 20)
#    0.000    1.182    4.545    2.182    0.000    4.000 
#    0.000    2.727    0.000    0.000    0.000    0.000 
#    0.000    0.000    0.000    0.000    0.000    0.000 
#
# Total GULP energy -490335.392636 kJ/mol
# GULP energy per Si atom -5571.993098 kJ/mol
# Density = 1.985721 g / cm^3
# Si number density = 19.902510 Si / 1000 Ang^3
#
#
#
# Elastic Constant Matrix: (Units=GPa)
#
#
# Indices 1 2 3 4 5 6 
#
# 1 63.6863 41.3742 10.5868 0.0000 0.0000 0.0000
# 2 41.3742 63.6862 10.5866 0.0000 0.0000 0.0000
# 3 10.5868 10.5866 67.2479 0.0000 0.0000 0.0000
# 4 0.0000 0.0000 0.0000 12.6445 0.0000 0.0000
# 5 0.0000 0.0000 0.0000 0.0000 12.6447 0.0000
# 6 0.0000 0.0000 0.0000 0.0000 0.0000 28.8845
#
#
#
# Elastic Compliance Matrix: (Units=1/GPa)
#
#
# Indices 1 2 3 4 5 6 
#
# 1 0.027325 -0.017494 -0.001548 0.000000 0.000000 0.000000
# 2 -0.017494 0.027325 -0.001548 0.000000 0.000000 0.000000
# 3 -0.001548 -0.001548 0.015358 0.000000 0.000000 0.000000
# 4 0.000000 0.000000 0.000000 0.079086 0.000000 0.000000
# 5 0.000000 0.000000 0.000000 0.000000 0.079085 0.000000
# 6 0.000000 0.000000 0.000000 0.000000 0.000000 0.034621
#
#
# Mechanical properties :
#
#
# Convention : Reuss Voigt Hill
#
# Bulk Modulus (GPa) = 34.68868 35.52394 35.10631
# Shear Modulus (GPa) = 15.94459 19.63958 17.79208
#
# Velocity S-wave (km/s) = 2.83350 3.14473 2.99316
# Velocity P-wave (km/s) = 5.30774 5.57436 5.44268
#
# Compressibility (1/GPa) = 0.02882785
#
# Stress axis : x y z
#
# Youngs Moduli (GPa) = 36.59718 36.59714 65.11432
#
# Poissons Ratio (x) = 0.64024 0.10077
# Poissons Ratio (y) = 0.64024 0.10076
# Poissons Ratio (z) = 0.05664 0.05663
#
# Static dielectric constant tensor:
#      x y z
#    x 1.469000 0.000000 0.000000 
#    y 0.000000 1.469030 0.000000 
#    z 0.000000 0.000000 1.696530 
# 
# From -- ./inp_files/7390.got.cif
#   From: 2010.05.17/outbox.cif.g08.bks.cpg/sg136_4_cif.got.tgz:7390.got - 2010.05.20 12:54:53.
