data_PCOD9569154
_publ_section_title
;
Structure prediction by ZEFSAII (Michael W. Deem and Ramdas Pophale) SiO2 
 PCOD9569154
Probable space group: P 42/M N M
;
_chemical_formula_sum "Si O2"
_cell_formula_units_Z 112
_cell_length_a 33.905295
_cell_length_b 33.905295
_cell_length_c 7.976992
_cell_angle_alpha 90.000000
_cell_angle_beta 90.000000
_cell_angle_gamma 90.000000
_cell_volume 9170.102948
_symmetry_space_group_name_H-M "P 42/M N M"
_symmetry_group_IT_number 136
_symmetry_cell_setting 'tetragonal'
loop_
_space_group_symop_operation_xyz
x,y,z
1/2-y,1/2+x,1/2+z
-x,-y,z
1/2+y,1/2-x,1/2+z
1/2+x,1/2-y,1/2-z
1/2-x,1/2+y,1/2-z
y,x,-z
-y,-x,-z
-x,-y,-z
1/2+y,1/2-x,1/2-z
x,y,-z
1/2-y,1/2+x,1/2-z
1/2-x,1/2+y,1/2+z
1/2+x,1/2-y,1/2+z
-y,-x,z
y,x,z
loop_
_atom_site_type_symbol
_atom_site_label
_atom_site_fract_x
_atom_site_fract_y
_atom_site_fract_z
Si Si1 0.645438 0.009042 0.692108
Si Si2 0.334159 0.074468 0.802804
Si Si3 0.229373 0.634432 0.183190
Si Si4 0.234642 0.170053 0.000000
Si Si5 0.364822 0.901413 0.297322
Si Si6 0.561231 0.989271 0.196773
Si Si7 0.700387 0.160750 0.188484
Si Si8 0.261751 0.802784 0.500000
O O1 0.658791 0.012039 0.500000
O O2 0.641388 0.053560 0.764212
O O3 0.601268 0.992666 0.704767
O O4 0.667808 0.972536 0.777739
O O5 0.297939 0.096390 0.714561
O O6 0.375200 0.096590 0.745860
O O7 0.331295 0.083380 0.000000
O O8 0.258406 0.643817 0.335295
O O9 0.197843 0.670362 0.182669
O O10 0.248240 0.632629 0.000000
O O11 0.194122 0.194122 0.000000
O O12 0.269434 0.203458 0.000000
O O13 0.366882 0.904006 0.500000
O O14 0.327220 0.875710 0.242434
O O15 0.540640 0.031631 0.215205
O O16 0.566933 0.979205 0.000000
O O17 0.731276 0.171278 0.333626
O O18 0.716121 0.155131 0.000000
O O19 0.221138 0.778863 0.500000
#
# Coordination Sequence:
#
# PCOD9569154 Si02
#       8
#    16  16  16   8  16  16  16   8
#     4  11  21  30  41  58  72  86 114 149 180 219
#     4  10  18  30  44  55  71  95 120 149 183 222
#     4   9  16  27  41  57  75  98 119 139 169 207
#     4   9  16  26  40  60  80  98 117 139 163 201
#     4   9  18  31  43  52  70  94 117 148 186 221
#     4  11  21  33  44  52  65  82 102 135 182 231
#     4   9  16  26  42  57  73  97 120 137 167 208
#     4   9  16  26  40  58  82  98 113 139 163 197
#
# _framework density 12.213604
#
# number of rings (size 3 to 8) (size 9 to 14) (size 15 to 20)
#    0.000    2.286    1.429    3.429    0.000    3.429 
#    0.000    2.857    0.000    0.000    0.000    0.000 
#    0.000    0.000    0.000    0.000    0.000    0.000 
#
# Total GULP energy -623629.955075 kJ/mol
# GULP energy per Si atom -5568.124599 kJ/mol
# Density = 1.218581 g / cm^3
# Si number density = 12.213604 Si / 1000 Ang^3
#
#
#
# Elastic Constant Matrix: (Units=GPa)
#
#
# Indices 1 2 3 4 5 6 
#
# 1 32.0497 23.9493 18.3353 0.0000 0.0000 0.0000
# 2 23.9493 32.0497 18.3349 0.0000 0.0000 0.0000
# 3 18.3353 18.3349 56.5345 0.0000 0.0000 0.0000
# 4 0.0000 0.0000 0.0000 5.1466 0.0000 0.0000
# 5 0.0000 0.0000 0.0000 0.0000 5.1472 0.0000
# 6 0.0000 0.0000 0.0000 0.0000 0.0000 -31.6629
#
#
#
# Elastic Compliance Matrix: (Units=1/GPa)
#
#
# Indices 1 2 3 4 5 6 
#
# 1 0.073062 -0.050389 -0.007354 0.000000 0.000000 0.000000
# 2 -0.050389 0.073061 -0.007353 0.000000 0.000000 0.000000
# 3 -0.007354 -0.007353 0.022458 0.000000 0.000000 0.000000
# 4 0.000000 0.000000 0.000000 0.194302 0.000000 0.000000
# 5 0.000000 0.000000 0.000000 0.000000 0.194279 0.000000
# 6 0.000000 0.000000 0.000000 0.000000 0.000000 -0.031583
#
#
# Mechanical properties :
#
#
# Convention : Reuss Voigt Hill
#
# Bulk Modulus (GPa) = 26.04812 26.87477 26.46145
# Shear Modulus (GPa) = 7.47870 -0.27283 3.60293
#
# Velocity S-wave (km/s) = 2.47721 -0.47315 1.71940
# Velocity P-wave (km/s) = 5.43650 4.66404 5.06501
#
# Compressibility (1/GPa) = 0.03839048
#
# Stress axis : x y z
#
# Youngs Moduli (GPa) = 13.68705 13.68715 44.52803
#
# Poissons Ratio (x) = 0.68968 0.32744
# Poissons Ratio (y) = 0.68968 0.32740
# Poissons Ratio (z) = 0.10065 0.10064
#
# Static dielectric constant tensor:
#      x y z
#    x 1.392330 0.000000 0.000000 
#    y 0.000000 1.392330 0.000000 
#    z 0.000000 0.000000 1.444190 
# 
# From -- ./inp_files/2393.got.cif
#   From: 2010.05.17/outbox.cif.g08.bks.cpg/sg136_2_cif.got.tgz:2393.got - 2010.05.20 12:54:53.
