data_PCOD9569886
_publ_section_title
;
Structure prediction by ZEFSAII (Michael W. Deem and Ramdas Pophale) SiO2 
 PCOD9569886
Probable space group: P 42/M N M
;
_chemical_formula_sum "Si O2"
_cell_formula_units_Z 64
_cell_length_a 9.965247
_cell_length_b 9.965247
_cell_length_c 30.793430
_cell_angle_alpha 90.000000
_cell_angle_beta 90.000000
_cell_angle_gamma 90.000000
_cell_volume 3057.976910
_symmetry_space_group_name_H-M "P 42/M N M"
_symmetry_group_IT_number 136
_symmetry_cell_setting 'tetragonal'
loop_
_space_group_symop_operation_xyz
x,y,z
1/2-y,1/2+x,1/2+z
-x,-y,z
1/2+y,1/2-x,1/2+z
1/2+x,1/2-y,1/2-z
1/2-x,1/2+y,1/2-z
y,x,-z
-y,-x,-z
-x,-y,-z
1/2+y,1/2-x,1/2-z
x,y,-z
1/2-y,1/2+x,1/2-z
1/2-x,1/2+y,1/2+z
1/2+x,1/2-y,1/2+z
-y,-x,z
y,x,z
loop_
_atom_site_type_symbol
_atom_site_label
_atom_site_fract_x
_atom_site_fract_y
_atom_site_fract_z
Si Si1 0.726352 0.495223 0.048043
Si Si2 0.403406 0.171663 0.865269
Si Si3 0.223438 0.991055 0.818726
Si Si4 0.225287 0.006364 0.723087
O O1 0.640641 0.359360 0.053184
O O2 0.614687 0.614687 0.048015
O O3 0.818323 0.520011 0.089582
O O4 0.789875 0.495870 0.000000
O O5 0.293062 0.293062 0.865807
O O6 0.487847 0.195866 0.821410
O O7 0.322221 0.036380 0.856302
O O8 0.146813 0.853188 0.826280
O O9 0.289709 0.993323 0.770800
O O10 0.106879 0.106879 0.816163
O O11 0.111393 0.888608 0.723547
O O12 0.145960 0.145960 0.721497
#
# Coordination Sequence:
#
# PCOD9569886 Si02
#       4
#    16  16  16  16
#     4   8  13  20  30  48  75 103 136 184 233 273
#     4   9  14  20  34  51  68 101 141 171 214 273
#     4   8  14  23  33  48  72 100 132 172 215 264
#     4   8  13  21  33  50  71  95 130 174 212 253
#
# _framework density 20.928868999999999
#
# number of rings (size 3 to 8) (size 9 to 14) (size 15 to 20)
#    0.000    3.750    0.000    3.000    0.000    3.000 
#    0.000    0.000    0.000    1.500    0.000    5.250 
#    0.000    0.000    0.000    4.500    0.000   49.500 
#
# Total GULP energy -357216.563675 kJ/mol
# GULP energy per Si atom -5581.508807 kJ/mol
# Density = 2.088123 g / cm^3
# Si number density = 20.928869 Si / 1000 Ang^3
#
#
#
# Elastic Constant Matrix: (Units=GPa)
#
#
# Indices 1 2 3 4 5 6 
#
# 1 37.7328 37.5407 66.3180 0.0000 0.0000 0.0000
# 2 37.5407 37.7328 66.3180 0.0000 0.0000 0.0000
# 3 66.3180 66.3180 222.4018 0.0000 0.0000 0.0000
# 4 0.0000 0.0000 0.0000 19.8485 0.0000 0.0000
# 5 0.0000 0.0000 0.0000 0.0000 19.8485 0.0000
# 6 0.0000 0.0000 0.0000 0.0000 0.0000 26.2584
#
#
#
# Elastic Compliance Matrix: (Units=1/GPa)
#
#
# Indices 1 2 3 4 5 6 
#
# 1 2.617577 -2.589584 -0.008347 0.000000 0.000000 0.000000
# 2 -2.589584 2.617577 -0.008347 0.000000 0.000000 0.000000
# 3 -0.008347 -0.008347 0.009475 0.000000 0.000000 0.000000
# 4 0.000000 0.000000 0.000000 0.050382 0.000000 0.000000
# 5 0.000000 0.000000 0.000000 0.000000 0.050382 0.000000
# 6 0.000000 0.000000 0.000000 0.000000 0.000000 0.038083
#
#
# Mechanical properties :
#
#
# Convention : Reuss Voigt Hill
#
# Bulk Modulus (GPa) = 31.17998 70.91342 51.04670
# Shear Modulus (GPa) = 0.47140 21.70378 11.08759
#
# Velocity S-wave (km/s) = 0.47511 3.22378 2.30418
# Velocity P-wave (km/s) = 3.90274 6.91474 5.61449
#
# Compressibility (1/GPa) = 0.03207186
#
# Stress axis : x y z
#
# Youngs Moduli (GPa) = 0.38203 0.38203 105.54602
#
# Poissons Ratio (x) = 0.98931 0.88103
# Poissons Ratio (y) = 0.98931 0.88103
# Poissons Ratio (z) = 0.00319 0.00319
#
# Static dielectric constant tensor:
#      x y z
#    x 1.786520 0.000000 0.000000 
#    y 0.000000 1.786520 0.000000 
#    z 0.000000 0.000000 1.718660 
# 
# From -- ./inp_files/8106.got.cif
#   From: 2010.05.17/outbox.cif.g08.bks.cpg/sg136_5_cif.got.tgz:8106.got - 2010.05.20 12:54:53.
