data_PCOD9569273
_publ_section_title
;
Structure prediction by ZEFSAII (Michael W. Deem and Ramdas Pophale) SiO2 
 PCOD9569273
Probable space group: P 42/M N M
;
_chemical_formula_sum "Si O2"
_cell_formula_units_Z 72
_cell_length_a 21.529088
_cell_length_b 21.529088
_cell_length_c 9.474202
_cell_angle_alpha 90.000000
_cell_angle_beta 90.000000
_cell_angle_gamma 90.000000
_cell_volume 4391.308071
_symmetry_space_group_name_H-M "P 42/M N M"
_symmetry_group_IT_number 136
_symmetry_cell_setting 'tetragonal'
loop_
_space_group_symop_operation_xyz
x,y,z
1/2-y,1/2+x,1/2+z
-x,-y,z
1/2+y,1/2-x,1/2+z
1/2+x,1/2-y,1/2-z
1/2-x,1/2+y,1/2-z
y,x,-z
-y,-x,-z
-x,-y,-z
1/2+y,1/2-x,1/2-z
x,y,-z
1/2-y,1/2+x,1/2-z
1/2-x,1/2+y,1/2+z
1/2+x,1/2-y,1/2+z
-y,-x,z
y,x,z
loop_
_atom_site_type_symbol
_atom_site_label
_atom_site_fract_x
_atom_site_fract_y
_atom_site_fract_z
Si Si1 0.822549 0.490104 0.336571
Si Si2 0.306162 0.448749 0.668813
Si Si3 0.659828 0.760481 0.838327
Si Si4 0.629119 0.876172 0.335038
Si Si5 0.550387 0.550387 0.670728
O O1 0.829335 0.470195 0.500000
O O2 0.748805 0.500921 0.309050
O O3 0.854024 0.441695 0.232573
O O4 0.856167 0.556872 0.322014
O O5 0.305168 0.434371 0.500000
O O6 0.282673 0.389878 0.757386
O O7 0.377409 0.463934 0.708148
O O8 0.723996 0.723996 0.840220
O O9 0.664711 0.823910 0.753343
O O10 0.639392 0.771086 0.000000
O O11 0.644666 0.874248 0.500000
O O12 0.500000 0.500000 0.723535
O O13 0.548012 0.548012 0.500000
#
# Coordination Sequence:
#
# PCOD9569273 Si02
#       5
#    16  16  16  16   8
#     4   9  19  34  50  73 103 134 173 218 265 310
#     4   9  17  31  52  75 103 137 172 214 256 303
#     4  10  19  31  51  77 101 128 168 218 266 307
#     4  10  21  35  53  76 102 138 176 213 261 315
#     4   9  16  28  51  81 107 137 179 217 253 304
#
# _framework density 16.396025999999999
#
# number of rings (size 3 to 8) (size 9 to 14) (size 15 to 20)
#    0.000    2.556    1.111    2.667    0.000    6.222 
#    0.000    3.333    0.000    5.333    0.000    0.000 
#    0.000    0.000    0.000    0.000    0.000    0.000 
#
# Total GULP energy -401025.923543 kJ/mol
# GULP energy per Si atom -5569.804494 kJ/mol
# Density = 1.635871 g / cm^3
# Si number density = 16.396026 Si / 1000 Ang^3
#
#
#
# Elastic Constant Matrix: (Units=GPa)
#
#
# Indices 1 2 3 4 5 6 
#
# 1 67.5037 43.0246 48.6845 0.0000 0.0000 0.0000
# 2 43.0246 67.5037 48.6845 0.0000 0.0000 0.0000
# 3 48.6845 48.6845 90.1308 0.0000 0.0000 0.0000
# 4 0.0000 0.0000 0.0000 22.7703 0.0000 0.0000
# 5 0.0000 0.0000 0.0000 0.0000 22.7703 0.0000
# 6 0.0000 0.0000 0.0000 0.0000 0.0000 20.4731
#
#
#
# Elastic Compliance Matrix: (Units=1/GPa)
#
#
# Indices 1 2 3 4 5 6 
#
# 1 0.029056 -0.011795 -0.009324 0.000000 0.000000 0.000000
# 2 -0.011795 0.029056 -0.009324 0.000000 0.000000 0.000000
# 3 -0.009324 -0.009324 0.021167 0.000000 0.000000 0.000000
# 4 0.000000 0.000000 0.000000 0.043917 0.000000 0.000000
# 5 0.000000 0.000000 0.000000 0.000000 0.043917 0.000000
# 6 0.000000 0.000000 0.000000 0.000000 0.000000 0.048845
#
#
# Mechanical properties :
#
#
# Convention : Reuss Voigt Hill
#
# Bulk Modulus (GPa) = 54.36269 56.21390 55.28830
# Shear Modulus (GPa) = 17.66947 18.85238 18.26093
#
# Velocity S-wave (km/s) = 3.28635 3.39457 3.34090
# Velocity P-wave (km/s) = 6.90131 7.05150 6.97681
#
# Compressibility (1/GPa) = 0.01839497
#
# Stress axis : x y z
#
# Youngs Moduli (GPa) = 34.41621 34.41621 47.24264
#
# Poissons Ratio (x) = 0.40594 0.44047
# Poissons Ratio (y) = 0.40594 0.44047
# Poissons Ratio (z) = 0.32088 0.32088
#
# Static dielectric constant tensor:
#      x y z
#    x 1.551680 0.000000 0.000000 
#    y 0.000000 1.551680 0.000000 
#    z 0.000000 0.000000 1.552130 
# 
# From -- ./inp_files/1539.got.cif
#   From: 2010.05.17/outbox.cif.g08.bks.cpg/sg136_1_cif.got.tgz:1539.got - 2010.05.20 12:54:53.
