data_PCOD9569573
_publ_section_title
;
Structure prediction by ZEFSAII (Michael W. Deem and Ramdas Pophale) SiO2 
 PCOD9569573
Probable space group: P 42/M N M
;
_chemical_formula_sum "Si O2"
_cell_formula_units_Z 72
_cell_length_a 20.363473
_cell_length_b 20.363473
_cell_length_c 8.121553
_cell_angle_alpha 90.000000
_cell_angle_beta 90.000000
_cell_angle_gamma 90.000000
_cell_volume 3367.772769
_symmetry_space_group_name_H-M "P 42/M N M"
_symmetry_group_IT_number 136
_symmetry_cell_setting 'tetragonal'
loop_
_space_group_symop_operation_xyz
x,y,z
1/2-y,1/2+x,1/2+z
-x,-y,z
1/2+y,1/2-x,1/2+z
1/2+x,1/2-y,1/2-z
1/2-x,1/2+y,1/2-z
y,x,-z
-y,-x,-z
-x,-y,-z
1/2+y,1/2-x,1/2-z
x,y,-z
1/2-y,1/2+x,1/2-z
1/2-x,1/2+y,1/2+z
1/2+x,1/2-y,1/2+z
-y,-x,z
y,x,z
loop_
_atom_site_type_symbol
_atom_site_label
_atom_site_fract_x
_atom_site_fract_y
_atom_site_fract_z
Si Si1 0.407473 0.789143 0.698916
Si Si2 0.729324 0.270677 0.299127
Si Si3 0.336180 0.336180 0.196469
Si Si4 0.945873 0.945873 0.200555
Si Si5 0.429803 0.068930 0.315899
Si Si6 0.188486 0.985803 0.199034
O O1 0.408757 0.792343 0.500000
O O2 0.344067 0.747833 0.750720
O O3 0.399002 0.862040 0.766165
O O4 0.474493 0.753203 0.753190
O O5 0.730288 0.269713 0.500000
O O6 0.782903 0.217098 0.241801
O O7 0.318265 0.410337 0.249094
O O8 0.334214 0.334214 0.000000
O O9 0.972112 0.875064 0.255481
O O10 0.943352 0.943352 0.000000
O O11 0.000000 0.000000 0.246320
O O12 0.490688 0.082171 0.197256
O O13 0.449858 0.087624 0.500000
O O14 0.187803 0.986398 0.000000
#
# Coordination Sequence:
#
# PCOD9569573 Si02
#       6
#    16   8   8   8  16  16
#     4  10  21  39  64  91 120 159 205 250 302 360
#     4   9  21  41  61  85 122 166 204 244 298 366
#     4  11  23  37  56  86 125 164 199 240 302 364
#     4   9  15  29  55  81 110 147 194 246 290 337
#     4  11  23  41  64  91 121 155 199 251 305 360
#     4  10  20  36  60  88 115 151 201 251 296 352
#
# _framework density 21.379113
#
# number of rings (size 3 to 8) (size 9 to 14) (size 15 to 20)
#    0.000    1.889    1.111    3.667    3.111    3.556 
#    0.000    2.778    0.000    2.667    0.000    0.000 
#    0.000    0.000    0.000    0.000    0.000    0.000 
#
# Total GULP energy -402281.500101 kJ/mol
# GULP energy per Si atom -5587.243057 kJ/mol
# Density = 2.133045 g / cm^3
# Si number density = 21.379113 Si / 1000 Ang^3
#
#
#
# Elastic Constant Matrix: (Units=GPa)
#
#
# Indices 1 2 3 4 5 6 
#
# 1 65.6524 20.0904 0.7856 0.0000 0.0000 0.0000
# 2 20.0904 65.6525 0.7856 0.0000 0.0000 0.0000
# 3 0.7856 0.7856 29.3558 0.0000 0.0000 0.0000
# 4 0.0000 0.0000 0.0000 39.5090 0.0000 0.0000
# 5 0.0000 0.0000 0.0000 0.0000 39.5084 0.0000
# 6 0.0000 0.0000 0.0000 0.0000 0.0000 39.6282
#
#
#
# Elastic Compliance Matrix: (Units=1/GPa)
#
#
# Indices 1 2 3 4 5 6 
#
# 1 0.016808 -0.005140 -0.000312 0.000000 0.000000 0.000000
# 2 -0.005140 0.016808 -0.000312 0.000000 0.000000 0.000000
# 3 -0.000312 -0.000312 0.034082 0.000000 0.000000 0.000000
# 4 0.000000 0.000000 0.000000 0.025311 0.000000 0.000000
# 5 0.000000 0.000000 0.000000 0.000000 0.025311 0.000000
# 6 0.000000 0.000000 0.000000 0.000000 0.000000 0.025235
#
#
# Mechanical properties :
#
#
# Convention : Reuss Voigt Hill
#
# Bulk Modulus (GPa) = 17.80326 22.66489 20.23407
# Shear Modulus (GPa) = 28.76766 32.99572 30.88169
#
# Velocity S-wave (km/s) = 3.67222 3.93283 3.80475
# Velocity P-wave (km/s) = 5.13086 5.58993 5.36530
#
# Compressibility (1/GPa) = 0.05616948
#
# Stress axis : x y z
#
# Youngs Moduli (GPa) = 59.49438 59.49452 29.34138
#
# Poissons Ratio (x) = 0.30579 0.00916
# Poissons Ratio (y) = 0.30579 0.00916
# Poissons Ratio (z) = 0.01858 0.01858
#
# Static dielectric constant tensor:
#      x y z
#    x 1.761510 0.000000 0.000000 
#    y 0.000000 1.761510 0.000000 
#    z 0.000000 0.000000 1.769080 
# 
# From -- ./inp_files/1640.got.cif
#   From: 2010.05.17/outbox.cif.g08.bks.cpg/sg136_1_cif.got.tgz:1640.got - 2010.05.20 12:54:53.
