data_PCOD9569683
_publ_section_title
;
Structure prediction by ZEFSAII (Michael W. Deem and Ramdas Pophale) SiO2 
 PCOD9569683
Probable space group: P 42/M N M
;
_chemical_formula_sum "Si O2"
_cell_formula_units_Z 80
_cell_length_a 10.771349
_cell_length_b 10.771349
_cell_length_c 29.240489
_cell_angle_alpha 90.000000
_cell_angle_beta 90.000000
_cell_angle_gamma 90.000000
_cell_volume 3392.538824
_symmetry_space_group_name_H-M "P 42/M N M"
_symmetry_group_IT_number 136
_symmetry_cell_setting 'tetragonal'
loop_
_space_group_symop_operation_xyz
x,y,z
1/2-y,1/2+x,1/2+z
-x,-y,z
1/2+y,1/2-x,1/2+z
1/2+x,1/2-y,1/2-z
1/2-x,1/2+y,1/2-z
y,x,-z
-y,-x,-z
-x,-y,-z
1/2+y,1/2-x,1/2-z
x,y,-z
1/2-y,1/2+x,1/2-z
1/2-x,1/2+y,1/2+z
1/2+x,1/2-y,1/2+z
-y,-x,z
y,x,z
loop_
_atom_site_type_symbol
_atom_site_label
_atom_site_fract_x
_atom_site_fract_y
_atom_site_fract_z
Si Si1 0.320648 0.106330 0.050409
Si Si2 0.257445 0.547244 0.643215
Si Si3 0.494548 0.297494 0.739816
Si Si4 0.853620 0.517254 0.173446
Si Si5 0.509753 0.297226 0.911675
O O1 0.209131 0.209131 0.051547
O O2 0.292338 0.014975 0.092860
O O3 0.445425 0.185902 0.059982
O O4 0.324046 0.050376 0.000000
O O5 0.393133 0.606868 0.637819
O O6 0.260498 0.461224 0.687807
O O7 0.162363 0.653714 0.660242
O O8 0.619167 0.380834 0.737644
O O9 0.387035 0.387035 0.757992
O O10 0.510028 0.187877 0.775413
O O11 0.764034 0.453754 0.136831
O O12 0.000000 0.500000 0.166303
O O13 0.626650 0.373351 0.931208
O O14 0.400976 0.400976 0.905288
#
# Coordination Sequence:
#
# PCOD9569683 Si02
#       5
#    16  16  16  16  16
#     4   8  14  27  50  82 117 150 187 236 290 337
#     4   9  19  34  52  76 108 148 187 228 277 337
#     4  10  21  37  57  78 105 145 188 232 284 340
#     4  11  22  33  50  77 112 144 185 228 278 341
#     4   9  17  32  55  82 115 153 191 233 282 338
#
# _framework density 23.581159
#
# number of rings (size 3 to 8) (size 9 to 14) (size 15 to 20)
#    0.000    2.600    0.000    3.600    2.800    2.000 
#    0.000    3.000    0.000   10.200    0.000    4.200 
#    0.000    0.000    0.000    0.000    0.000    0.000 
#
# Total GULP energy -446218.769472 kJ/mol
# GULP energy per Si atom -5577.734618 kJ/mol
# Density = 2.352749 g / cm^3
# Si number density = 23.581159 Si / 1000 Ang^3
#
#
#
# Elastic Constant Matrix: (Units=GPa)
#
#
# Indices 1 2 3 4 5 6 
#
# 1 35.7729 10.4712 11.2312 0.0000 0.0000 0.0000
# 2 10.4712 35.7729 11.2312 0.0000 0.0000 0.0000
# 3 11.2312 11.2312 173.4712 0.0000 0.0000 0.0000
# 4 0.0000 0.0000 0.0000 23.6746 0.0000 0.0000
# 5 0.0000 0.0000 0.0000 0.0000 23.6746 0.0000
# 6 0.0000 0.0000 0.0000 0.0000 0.0000 24.0855
#
#
#
# Elastic Compliance Matrix: (Units=1/GPa)
#
#
# Indices 1 2 3 4 5 6 
#
# 1 0.030925 -0.008598 -0.001445 0.000000 0.000000 0.000000
# 2 -0.008598 0.030925 -0.001445 0.000000 0.000000 0.000000
# 3 -0.001445 -0.001445 0.005952 0.000000 0.000000 0.000000
# 4 0.000000 0.000000 0.000000 0.042239 0.000000 0.000000
# 5 0.000000 0.000000 0.000000 0.000000 0.042239 0.000000
# 6 0.000000 0.000000 0.000000 0.000000 0.000000 0.041519
#
#
# Mechanical properties :
#
#
# Convention : Reuss Voigt Hill
#
# Bulk Modulus (GPa) = 22.31005 34.54266 28.42636
# Shear Modulus (GPa) = 21.57792 28.42585 25.00188
#
# Velocity S-wave (km/s) = 3.02826 3.47572 3.25968
# Velocity P-wave (km/s) = 4.65925 5.54867 5.12330
#
# Compressibility (1/GPa) = 0.04482284
#
# Stress axis : x y z
#
# Youngs Moduli (GPa) = 32.33650 32.33650 168.01584
#
# Poissons Ratio (x) = 0.27804 0.24287
# Poissons Ratio (y) = 0.27804 0.24287
# Poissons Ratio (z) = 0.04674 0.04674
#
# Static dielectric constant tensor:
#      x y z
#    x 1.961610 0.000000 0.000000 
#    y 0.000000 1.961610 0.000000 
#    z 0.000000 0.000000 1.931990 
# 
# From -- ./inp_files/9548.got.cif
#   From: 2010.05.17/outbox.cif.g08.bks.cpg/sg136_5_cif.got.tgz:9548.got - 2010.05.20 12:54:53.
