data_PCOD9569522
_publ_section_title
;
Structure prediction by ZEFSAII (Michael W. Deem and Ramdas Pophale) SiO2 
 PCOD9569522
Probable space group: P 42/M N M
;
_chemical_formula_sum "Si O2"
_cell_formula_units_Z 64
_cell_length_a 12.412470
_cell_length_b 12.412470
_cell_length_c 23.726652
_cell_angle_alpha 90.000000
_cell_angle_beta 90.000000
_cell_angle_gamma 90.000000
_cell_volume 3655.551311
_symmetry_space_group_name_H-M "P 42/M N M"
_symmetry_group_IT_number 136
_symmetry_cell_setting 'tetragonal'
loop_
_space_group_symop_operation_xyz
x,y,z
1/2-y,1/2+x,1/2+z
-x,-y,z
1/2+y,1/2-x,1/2+z
1/2+x,1/2-y,1/2-z
1/2-x,1/2+y,1/2-z
y,x,-z
-y,-x,-z
-x,-y,-z
1/2+y,1/2-x,1/2-z
x,y,-z
1/2-y,1/2+x,1/2-z
1/2-x,1/2+y,1/2+z
1/2+x,1/2-y,1/2+z
-y,-x,z
y,x,z
loop_
_atom_site_type_symbol
_atom_site_label
_atom_site_fract_x
_atom_site_fract_y
_atom_site_fract_z
Si Si1 0.870048 0.505975 0.174083
Si Si2 0.107193 0.717532 0.211513
Si Si3 0.180125 0.997942 0.892428
Si Si4 0.415220 0.900653 0.438550
O O1 0.840710 0.380299 0.175798
O O2 0.826019 0.559356 0.230477
O O3 0.845505 0.570922 0.116956
O O4 0.000000 0.500000 0.178624
O O5 0.196467 0.803534 0.225537
O O6 0.020497 0.774768 0.170843
O O7 0.109269 0.890732 0.907044
O O8 0.286967 0.024156 0.928284
O O9 0.097471 0.097471 0.895618
O O10 0.361217 0.896828 0.500000
O O11 0.500000 0.000000 0.440237
#
# Coordination Sequence:
#
# PCOD9569522 Si02
#       4
#    16  16  16  16
#     4  11  18  35  52  75 108 140 186 223 276 328
#     4  11  20  32  55  81 108 144 180 226 282 337
#     4  10  21  36  55  84 118 147 179 229 292 343
#     4  10  20  35  55  76 105 148 193 230 264 325
#
# _framework density 17.507618999999998
#
# number of rings (size 3 to 8) (size 9 to 14) (size 15 to 20)
#    0.000    1.500    7.500    0.000    0.000    5.000 
#    0.000    1.250    0.000    0.750    0.000    0.000 
#    0.000    1.000    0.000   16.750    0.000    0.000 
#
# Total GULP energy -356398.823467 kJ/mol
# GULP energy per Si atom -5568.731617 kJ/mol
# Density = 1.746777 g / cm^3
# Si number density = 17.507619 Si / 1000 Ang^3
#
#
#
# Elastic Constant Matrix: (Units=GPa)
#
#
# Indices 1 2 3 4 5 6 
#
# 1 75.9719 21.6423 30.5342 0.0000 0.0000 0.0000
# 2 21.6423 75.9719 30.5342 0.0000 0.0000 0.0000
# 3 30.5342 30.5342 77.6579 0.0000 0.0000 0.0000
# 4 0.0000 0.0000 0.0000 -36.7992 0.0000 0.0000
# 5 0.0000 0.0000 0.0000 0.0000 -36.7992 0.0000
# 6 0.0000 0.0000 0.0000 0.0000 0.0000 14.8538
#
#
#
# Elastic Compliance Matrix: (Units=1/GPa)
#
#
# Indices 1 2 3 4 5 6 
#
# 1 0.015996 -0.002410 -0.005342 0.000000 0.000000 0.000000
# 2 -0.002410 0.015996 -0.005342 0.000000 0.000000 0.000000
# 3 -0.005342 -0.005342 0.017078 0.000000 0.000000 0.000000
# 4 0.000000 0.000000 0.000000 -0.027174 0.000000 0.000000
# 5 0.000000 0.000000 0.000000 0.000000 -0.027174 0.000000
# 6 0.000000 0.000000 0.000000 0.000000 0.000000 0.067323
#
#
# Mechanical properties :
#
#
# Convention : Reuss Voigt Hill
#
# Bulk Modulus (GPa) = 43.70135 43.89145 43.79640
# Shear Modulus (GPa) = 52.15953 -1.95620 25.10166
#
# Velocity S-wave (km/s) = 5.46417 -1.05819 3.79061
# Velocity P-wave (km/s) = 8.05140 4.86121 6.65043
#
# Compressibility (1/GPa) = 0.02288259
#
# Stress axis : x y z
#
# Youngs Moduli (GPa) = 62.51443 62.51443 58.55539
#
# Poissons Ratio (x) = 0.15065 0.31280
# Poissons Ratio (y) = 0.15065 0.31280
# Poissons Ratio (z) = 0.33395 0.33395
#
# Static dielectric constant tensor:
#      x y z
#    x 1.643610 0.000000 0.000000 
#    y 0.000000 1.643610 0.000000 
#    z 0.000000 0.000000 1.643190 
# 
# From -- ./inp_files/8114.got.cif
#   From: 2010.05.17/outbox.cif.g08.bks.cpg/sg136_5_cif.got.tgz:8114.got - 2010.05.20 12:54:53.
