data_PCOD9569853
_publ_section_title
;
Structure prediction by ZEFSAII (Michael W. Deem and Ramdas Pophale) SiO2 
 PCOD9569853
Probable space group: P 42/M N M
;
_chemical_formula_sum "Si O2"
_cell_formula_units_Z 84
_cell_length_a 11.863038
_cell_length_b 11.863038
_cell_length_c 28.003696
_cell_angle_alpha 90.000000
_cell_angle_beta 90.000000
_cell_angle_gamma 90.000000
_cell_volume 3941.006921
_symmetry_space_group_name_H-M "P 42/M N M"
_symmetry_group_IT_number 136
_symmetry_cell_setting 'tetragonal'
loop_
_space_group_symop_operation_xyz
x,y,z
1/2-y,1/2+x,1/2+z
-x,-y,z
1/2+y,1/2-x,1/2+z
1/2+x,1/2-y,1/2-z
1/2-x,1/2+y,1/2-z
y,x,-z
-y,-x,-z
-x,-y,-z
1/2+y,1/2-x,1/2-z
x,y,-z
1/2-y,1/2+x,1/2-z
1/2-x,1/2+y,1/2+z
1/2+x,1/2-y,1/2+z
-y,-x,z
y,x,z
loop_
_atom_site_type_symbol
_atom_site_label
_atom_site_fract_x
_atom_site_fract_y
_atom_site_fract_z
Si Si1 0.500000 0.500000 0.932771
Si Si2 0.818482 0.371925 0.445674
Si Si3 0.086641 0.730192 0.111573
Si Si4 0.772626 0.411513 0.696330
Si Si5 0.040663 0.773712 0.291498
Si Si6 0.250790 0.519286 0.102504
O O1 0.502747 0.360291 0.930430
O O2 0.860738 0.374746 0.500000
O O3 0.718961 0.281039 0.442479
O O4 0.774343 0.492767 0.429309
O O5 0.917456 0.332612 0.410566
O O6 0.153074 0.846926 0.114276
O O7 0.178013 0.632767 0.101192
O O8 0.016730 0.712913 0.160783
O O9 0.674675 0.325326 0.678651
O O10 0.740275 0.454115 0.748861
O O11 0.885950 0.339417 0.701970
O O12 0.126553 0.873448 0.279068
O O13 0.990030 0.796799 0.343467
#
# Coordination Sequence:
#
# PCOD9569853 Si02
#       6
#     4  16  16  16  16  16
#     4  12  24  44  77 104 140 176 232 296 361 408
#     4  11  25  48  76 103 138 185 232 288 362 425
#     4  12  26  43  68 104 143 184 235 290 346 419
#     4  11  25  41  62  97 139 186 236 291 348 413
#     4  11  23  39  62  91 132 182 235 281 343 412
#     4  12  24  45  72 103 138 182 231 295 354 416
#
# _framework density 21.314349
#
# number of rings (size 3 to 8) (size 9 to 14) (size 15 to 20)
#    0.000    0.571    4.762    2.857    1.333    8.000 
#    0.000    1.905    0.000    0.000    0.000    0.000 
#    0.000    0.000    0.000    0.000    0.000    0.000 
#
# Total GULP energy -468995.272115 kJ/mol
# GULP energy per Si atom -5583.277049 kJ/mol
# Density = 2.126584 g / cm^3
# Si number density = 21.314349 Si / 1000 Ang^3
#
#
#
# Elastic Constant Matrix: (Units=GPa)
#
#
# Indices 1 2 3 4 5 6 
#
# 1 76.4953 47.1663 6.3794 0.0000 0.0000 0.0000
# 2 47.1663 76.4953 6.3794 0.0000 0.0000 0.0000
# 3 6.3794 6.3794 70.0490 0.0000 0.0000 0.0000
# 4 0.0000 0.0000 0.0000 25.4975 0.0000 0.0000
# 5 0.0000 0.0000 0.0000 0.0000 25.4975 0.0000
# 6 0.0000 0.0000 0.0000 0.0000 0.0000 16.9146
#
#
#
# Elastic Compliance Matrix: (Units=1/GPa)
#
#
# Indices 1 2 3 4 5 6 
#
# 1 0.021130 -0.012966 -0.000743 0.000000 0.000000 0.000000
# 2 -0.012966 0.021130 -0.000743 0.000000 0.000000 0.000000
# 3 -0.000743 -0.000743 0.014411 0.000000 0.000000 0.000000
# 4 0.000000 0.000000 0.000000 0.039220 0.000000 0.000000
# 5 0.000000 0.000000 0.000000 0.000000 0.039220 0.000000
# 6 0.000000 0.000000 0.000000 0.000000 0.000000 0.059120
#
#
# Mechanical properties :
#
#
# Convention : Reuss Voigt Hill
#
# Bulk Modulus (GPa) = 36.01789 38.09885 37.05837
# Shear Modulus (GPa) = 21.51548 24.45623 22.98585
#
# Velocity S-wave (km/s) = 3.18061 3.39101 3.28750
# Velocity P-wave (km/s) = 5.51575 5.76589 5.64221
#
# Compressibility (1/GPa) = 0.02776398
#
# Stress axis : x y z
#
# Youngs Moduli (GPa) = 47.32705 47.32705 69.39084
#
# Poissons Ratio (x) = 0.61366 0.05159
# Poissons Ratio (y) = 0.61366 0.05159
# Poissons Ratio (z) = 0.03518 0.03518
#
# Static dielectric constant tensor:
#      x y z
#    x 1.762490 0.000000 0.000000 
#    y 0.000000 1.762490 0.000000 
#    z 0.000000 0.000000 1.787830 
# 
# From -- ./inp_files/9713.got.cif
#   From: 2010.05.17/outbox.cif.g08.bks.cpg/sg136_5_cif.got.tgz:9713.got - 2010.05.20 12:54:53.
