data_PCOD9569867
_publ_section_title
;
Structure prediction by ZEFSAII (Michael W. Deem and Ramdas Pophale) SiO2 
 PCOD9569867
Probable space group: P 42/M N M
;
_chemical_formula_sum "Si O2"
_cell_formula_units_Z 48
_cell_length_a 14.200259
_cell_length_b 14.200259
_cell_length_c 10.749205
_cell_angle_alpha 90.000000
_cell_angle_beta 90.000000
_cell_angle_gamma 90.000000
_cell_volume 2167.548764
_symmetry_space_group_name_H-M "P 42/M N M"
_symmetry_group_IT_number 136
_symmetry_cell_setting 'tetragonal'
loop_
_space_group_symop_operation_xyz
x,y,z
1/2-y,1/2+x,1/2+z
-x,-y,z
1/2+y,1/2-x,1/2+z
1/2+x,1/2-y,1/2-z
1/2-x,1/2+y,1/2-z
y,x,-z
-y,-x,-z
-x,-y,-z
1/2+y,1/2-x,1/2-z
x,y,-z
1/2-y,1/2+x,1/2-z
1/2-x,1/2+y,1/2+z
1/2+x,1/2-y,1/2+z
-y,-x,z
y,x,z
loop_
_atom_site_type_symbol
_atom_site_label
_atom_site_fract_x
_atom_site_fract_y
_atom_site_fract_z
Si Si1 0.245988 0.593620 0.500000
Si Si2 0.257526 0.742475 0.852380
Si Si3 0.745989 0.592676 0.000000
Si Si4 0.468035 0.739049 0.759057
Si Si5 0.597396 0.597396 0.348603
O O1 0.350214 0.649787 0.500000
O O2 0.175709 0.679819 0.500000
O O3 0.222110 0.529194 0.381117
O O4 0.361062 0.760622 0.797578
O O5 0.178549 0.821452 0.826186
O O6 0.264793 0.735207 0.000000
O O7 0.763545 0.531340 0.876761
O O8 0.642872 0.642872 0.000000
O O9 0.505796 0.635487 0.721219
O O10 0.586504 0.586504 0.500000
#
# Coordination Sequence:
#
# PCOD9569867 Si02
#       5
#     8   8   8  16   8
#     4  11  24  43  67  96 134 181 223 267 329 394
#     4  11  24  42  65  94 132 175 211 262 332 391
#     4  11  24  43  67  96 134 181 223 267 329 394
#     4  12  22  41  68  99 130 170 220 271 324 395
#     4  11  24  42  65  94 132 175 211 262 332 391
#
# _framework density 22.144831
#
# number of rings (size 3 to 8) (size 9 to 14) (size 15 to 20)
#    0.000    0.667    6.667    2.000    0.000    0.667 
#    0.000    3.333    0.000   24.000    0.000    0.000 
#    0.000    0.000    0.000    0.000    0.000    0.000 
#
# Total GULP energy -267287.096213 kJ/mol
# GULP energy per Si atom -5568.481171 kJ/mol
# Density = 2.209443 g / cm^3
# Si number density = 22.144831 Si / 1000 Ang^3
#
#
#
# Elastic Constant Matrix: (Units=GPa)
#
#
# Indices 1 2 3 4 5 6 
#
# 1 7.3771 116.8122 39.2993 0.0000 0.0000 0.0000
# 2 116.8122 7.3768 39.2993 0.0000 0.0000 0.0000
# 3 39.2993 39.2993 198.1355 0.0000 0.0000 0.0000
# 4 0.0000 0.0000 0.0000 -146.1833 0.0000 0.0000
# 5 0.0000 0.0000 0.0000 0.0000 -146.1976 0.0000
# 6 0.0000 0.0000 0.0000 0.0000 0.0000 42.7397
#
#
#
# Elastic Compliance Matrix: (Units=1/GPa)
#
#
# Indices 1 2 3 4 5 6 
#
# 1 0.000035 0.009173 -0.001826 0.000000 0.000000 0.000000
# 2 0.009173 0.000035 -0.001826 0.000000 0.000000 0.000000
# 3 -0.001826 -0.001826 0.005772 0.000000 0.000000 0.000000
# 4 0.000000 0.000000 0.000000 -0.006841 0.000000 0.000000
# 5 0.000000 0.000000 0.000000 0.000000 -0.006840 0.000000
# 6 0.000000 0.000000 0.000000 0.000000 0.000000 0.023397
#
#
# Mechanical properties :
#
#
# Convention : Reuss Voigt Hill
#
# Bulk Modulus (GPa) = 59.23370 67.07900 63.15635
# Shear Modulus (GPa) = 492.82572 -48.76299 222.03136
#
# Velocity S-wave (km/s) = 14.93418 -4.69764 10.02402
# Velocity P-wave (km/s) = 18.00498 0.96593 12.74975
#
# Compressibility (1/GPa) = 0.01688228
#
# Stress axis : x y z
#
# Youngs Moduli (GPa) = 28431.63437 28450.95313 173.26321
#
# Poissons Ratio (x) = -260.98026 0.31645
# Poissons Ratio (y) = -260.80305 0.31645
# Poissons Ratio (z) = 51.92743 51.96267
#
# Static dielectric constant tensor:
#      x y z
#    x 1.865710 0.000000 0.000000 
#    y 0.000000 1.865710 0.000000 
#    z 0.000000 0.000000 1.874870 
# 
# From -- ./inp_files/3038.got.cif
#   From: 2010.05.17/outbox.cif.g08.bks.cpg/sg136_2_cif.got.tgz:3038.got - 2010.05.20 12:54:53.
