data_PCOD9569226
_publ_section_title
;
Structure prediction by ZEFSAII (Michael W. Deem and Ramdas Pophale) SiO2 
 PCOD9569226
Probable space group: P 42/M N M
;
_chemical_formula_sum "Si O2"
_cell_formula_units_Z 112
_cell_length_a 19.951208
_cell_length_b 19.951208
_cell_length_c 18.025821
_cell_angle_alpha 90.000000
_cell_angle_beta 90.000000
_cell_angle_gamma 90.000000
_cell_volume 7175.190679
_symmetry_space_group_name_H-M "P 42/M N M"
_symmetry_group_IT_number 136
_symmetry_cell_setting 'tetragonal'
loop_
_space_group_symop_operation_xyz
x,y,z
1/2-y,1/2+x,1/2+z
-x,-y,z
1/2+y,1/2-x,1/2+z
1/2+x,1/2-y,1/2-z
1/2-x,1/2+y,1/2-z
y,x,-z
-y,-x,-z
-x,-y,-z
1/2+y,1/2-x,1/2-z
x,y,-z
1/2-y,1/2+x,1/2-z
1/2-x,1/2+y,1/2+z
1/2+x,1/2-y,1/2+z
-y,-x,z
y,x,z
loop_
_atom_site_type_symbol
_atom_site_label
_atom_site_fract_x
_atom_site_fract_y
_atom_site_fract_z
Si Si1 0.370653 0.262543 0.148314
Si Si2 0.905344 0.331653 0.215631
Si Si3 0.731384 0.841161 0.085728
Si Si4 0.188684 0.558750 0.712493
Si Si5 0.475372 0.366594 0.912764
Si Si6 0.300328 0.188860 0.414312
Si Si7 0.405129 0.700517 0.830212
O O1 0.316136 0.316136 0.175905
O O2 0.398068 0.223158 0.219051
O O3 0.330175 0.210644 0.097094
O O4 0.425541 0.304217 0.103290
O O5 0.871136 0.398163 0.250101
O O6 0.860784 0.312724 0.144152
O O7 0.983618 0.335240 0.197471
O O8 0.797976 0.797976 0.105855
O O9 0.715200 0.902105 0.140168
O O10 0.736585 0.860798 0.000000
O O11 0.250753 0.561889 0.770033
O O12 0.433526 0.433526 0.891857
O O13 0.541021 0.348838 0.866577
O O14 0.490484 0.371006 0.000000
O O15 0.320835 0.181750 0.500000
O O16 0.256768 0.256768 0.406566
O O17 0.249169 0.129212 0.391199
O O18 0.344272 0.655729 0.798208
#
# Coordination Sequence:
#
# PCOD9569226 Si02
#       7
#    16  16  16  16  16  16  16
#     4   9  16  29  48  70  94 123 156 193 235 280
#     4  10  19  32  50  70  96 127 163 199 237 284
#     4   9  17  30  50  75  99 120 151 201 251 290
#     4  10  20  33  50  72  94 129 166 199 240 287
#     4  10  19  29  45  70  98 127 157 188 229 284
#     4   9  18  32  51  74  97 124 160 204 248 285
#     4  10  19  33  50  69  96 129 162 195 236 289
#
# _framework density 15.609341000000001
#
# number of rings (size 3 to 8) (size 9 to 14) (size 15 to 20)
#    0.000    2.429    1.429    1.714    0.000    7.143 
#    0.000    0.714    0.000    0.000    0.000    4.000 
#    0.000    0.000    0.000    9.429    0.000    0.000 
#
# Total GULP energy -624089.007072 kJ/mol
# GULP energy per Si atom -5572.223277 kJ/mol
# Density = 1.557381 g / cm^3
# Si number density = 15.609341 Si / 1000 Ang^3
#
#
#
# Elastic Constant Matrix: (Units=GPa)
#
#
# Indices 1 2 3 4 5 6 
#
# 1 83.9806 40.7549 42.0917 0.0000 0.0000 0.0000
# 2 40.7549 83.9806 42.0917 0.0000 0.0000 0.0000
# 3 42.0917 42.0917 88.1381 0.0000 0.0000 0.0000
# 4 0.0000 0.0000 0.0000 16.7259 0.0000 0.0000
# 5 0.0000 0.0000 0.0000 0.0000 16.7259 0.0000
# 6 0.0000 0.0000 0.0000 0.0000 0.0000 15.7376
#
#
#
# Elastic Compliance Matrix: (Units=1/GPa)
#
#
# Indices 1 2 3 4 5 6 
#
# 1 0.017482 -0.005652 -0.005650 0.000000 0.000000 0.000000
# 2 -0.005652 0.017482 -0.005650 0.000000 0.000000 0.000000
# 3 -0.005650 -0.005650 0.016742 0.000000 0.000000 0.000000
# 4 0.000000 0.000000 0.000000 0.059788 0.000000 0.000000
# 5 0.000000 0.000000 0.000000 0.000000 0.059788 0.000000
# 6 0.000000 0.000000 0.000000 0.000000 0.000000 0.063542
#
#
# Mechanical properties :
#
#
# Convention : Reuss Voigt Hill
#
# Bulk Modulus (GPa) = 56.16899 56.21956 56.19427
# Shear Modulus (GPa) = 18.20429 18.58193 18.39311
#
# Velocity S-wave (km/s) = 3.41874 3.45401 3.43642
# Velocity P-wave (km/s) = 7.18652 7.21122 7.19888
#
# Compressibility (1/GPa) = 0.01780342
#
# Stress axis : x y z
#
# Youngs Moduli (GPa) = 57.20139 57.20139 59.73054
#
# Poissons Ratio (x) = 0.32332 0.33745
# Poissons Ratio (y) = 0.32332 0.33745
# Poissons Ratio (z) = 0.32316 0.32316
#
# Static dielectric constant tensor:
#      x y z
#    x 1.518840 0.000000 0.000000 
#    y 0.000000 1.518840 0.000000 
#    z 0.000000 0.000000 1.498740 
# 
# From -- ./inp_files/6583.got.cif
#   From: 2010.05.17/outbox.cif.g08.bks.cpg/sg136_4_cif.got.tgz:6583.got - 2010.05.20 12:54:53.
