data_PCOD9569127
_publ_section_title
;
Structure prediction by ZEFSAII (Michael W. Deem and Ramdas Pophale) SiO2 
 PCOD9569127
Probable space group: P 42/M N M
;
_chemical_formula_sum "Si O2"
_cell_formula_units_Z 104
_cell_length_a 26.212444
_cell_length_b 26.212444
_cell_length_c 7.649382
_cell_angle_alpha 90.000000
_cell_angle_beta 90.000000
_cell_angle_gamma 90.000000
_cell_volume 5255.830863
_symmetry_space_group_name_H-M "P 42/M N M"
_symmetry_group_IT_number 136
_symmetry_cell_setting 'tetragonal'
loop_
_space_group_symop_operation_xyz
x,y,z
1/2-y,1/2+x,1/2+z
-x,-y,z
1/2+y,1/2-x,1/2+z
1/2+x,1/2-y,1/2-z
1/2-x,1/2+y,1/2-z
y,x,-z
-y,-x,-z
-x,-y,-z
1/2+y,1/2-x,1/2-z
x,y,-z
1/2-y,1/2+x,1/2-z
1/2-x,1/2+y,1/2+z
1/2+x,1/2-y,1/2+z
-y,-x,z
y,x,z
loop_
_atom_site_type_symbol
_atom_site_label
_atom_site_fract_x
_atom_site_fract_y
_atom_site_fract_z
Si Si1 0.152871 0.005873 0.792694
Si Si2 0.154790 0.611578 0.710732
Si Si3 0.457786 0.542215 0.285318
Si Si4 0.063125 0.543914 0.306977
Si Si5 0.265824 0.033526 0.210835
Si Si6 0.297674 0.919929 0.710713
Si Si7 0.184774 0.894646 0.288791
O O1 0.099411 0.027867 0.725888
O O2 0.207707 0.025841 0.722733
O O3 0.154465 0.945211 0.764611
O O4 0.153636 0.016072 0.000000
O O5 0.160379 0.618889 0.500000
O O6 0.116684 0.564873 0.746191
O O7 0.207744 0.586290 0.774115
O O8 0.120540 0.659504 0.774385
O O9 0.500000 0.500000 0.232088
O O10 0.458081 0.541920 0.500000
O O11 0.061717 0.483312 0.309933
O O12 0.051896 0.564601 0.500000
O O13 0.297085 0.980632 0.246550
O O14 0.264114 0.036724 0.000000
O O15 0.299859 0.917905 0.500000
O O16 0.242539 0.900498 0.773678
O O17 0.186511 0.893609 0.500000
O O18 0.155126 0.844875 0.227188
#
# Coordination Sequence:
#
# PCOD9569127 Si02
#       7
#    16  16   8  16  16  16  16
#     4   9  17  29  47  68  91 119 148 175 211 261
#     4   9  17  28  43  60  81 110 142 178 218 256
#     4   9  16  26  43  69  97 119 141 171 209 259
#     4  10  18  27  38  54  77 104 134 169 214 258
#     4   9  17  30  46  64  87 114 147 186 223 256
#     4   9  17  30  46  63  85 114 147 179 218 266
#     4   9  17  29  46  67  91 115 142 180 220 257
#
# _framework density 19.787548000000001
#
# number of rings (size 3 to 8) (size 9 to 14) (size 15 to 20)
#    0.000    2.846    0.000    2.308    0.000    0.923 
#    0.000    2.692    1.692    1.385    0.000    0.000 
#    0.000    0.000    0.000    0.000    0.000    0.000 
#
# Total GULP energy -578993.357140 kJ/mol
# GULP energy per Si atom -5567.243819 kJ/mol
# Density = 1.974251 g / cm^3
# Si number density = 19.787548 Si / 1000 Ang^3
#
#
#
# Elastic Constant Matrix: (Units=GPa)
#
#
# Indices 1 2 3 4 5 6 
#
# 1 99.2750 97.0295 9.0892 0.0000 0.0000 0.0000
# 2 97.0295 99.2750 9.0893 0.0000 0.0000 0.0000
# 3 9.0892 9.0893 29.5313 0.0000 0.0000 0.0000
# 4 0.0000 0.0000 0.0000 5.9611 0.0000 0.0000
# 5 0.0000 0.0000 0.0000 0.0000 5.9611 0.0000
# 6 0.0000 0.0000 0.0000 0.0000 0.0000 37.2879
#
#
#
# Elastic Compliance Matrix: (Units=1/GPa)
#
#
# Indices 1 2 3 4 5 6 
#
# 1 0.225291 -0.220048 -0.001614 0.000000 0.000000 0.000000
# 2 -0.220048 0.225291 -0.001614 0.000000 0.000000 0.000000
# 3 -0.001614 -0.001614 0.034856 0.000000 0.000000 0.000000
# 4 0.000000 0.000000 0.000000 0.167756 0.000000 0.000000
# 5 0.000000 0.000000 0.000000 0.000000 0.167755 0.000000
# 6 0.000000 0.000000 0.000000 0.000000 0.000000 0.026818
#
#
# Mechanical properties :
#
#
# Convention : Reuss Voigt Hill
#
# Bulk Modulus (GPa) = 25.71526 50.94414 38.32970
# Shear Modulus (GPa) = 3.82473 17.36690 10.59582
#
# Velocity S-wave (km/s) = 1.39180 2.96576 2.31655
# Velocity P-wave (km/s) = 3.95053 6.12610 5.15440
#
# Compressibility (1/GPa) = 0.03888742
#
# Stress axis : x y z
#
# Youngs Moduli (GPa) = 4.43870 4.43870 28.68963
#
# Poissons Ratio (x) = 0.97673 0.04630
# Poissons Ratio (y) = 0.97673 0.04631
# Poissons Ratio (z) = 0.00716 0.00716
#
# Static dielectric constant tensor:
#      x y z
#    x 1.708410 0.000000 0.000000 
#    y 0.000000 1.708410 0.000000 
#    z 0.000000 0.000000 1.689930 
# 
# From -- ./inp_files/2234.got.cif
#   From: 2010.05.17/outbox.cif.g08.bks.cpg/sg136_2_cif.got.tgz:2234.got - 2010.05.20 12:54:53.
