data_PCOD9569085
_publ_section_title
;
Structure prediction by ZEFSAII (Michael W. Deem and Ramdas Pophale) SiO2 
 PCOD9569085
Probable space group: P 42/M N M
;
_chemical_formula_sum "Si O2"
_cell_formula_units_Z 96
_cell_length_a 13.934902
_cell_length_b 13.934902
_cell_length_c 31.005136
_cell_angle_alpha 90.000000
_cell_angle_beta 90.000000
_cell_angle_gamma 90.000000
_cell_volume 6020.623622
_symmetry_space_group_name_H-M "P 42/M N M"
_symmetry_group_IT_number 136
_symmetry_cell_setting 'tetragonal'
loop_
_space_group_symop_operation_xyz
x,y,z
1/2-y,1/2+x,1/2+z
-x,-y,z
1/2+y,1/2-x,1/2+z
1/2+x,1/2-y,1/2-z
1/2-x,1/2+y,1/2-z
y,x,-z
-y,-x,-z
-x,-y,-z
1/2+y,1/2-x,1/2-z
x,y,-z
1/2-y,1/2+x,1/2-z
1/2-x,1/2+y,1/2+z
1/2+x,1/2-y,1/2+z
-y,-x,z
y,x,z
loop_
_atom_site_type_symbol
_atom_site_label
_atom_site_fract_x
_atom_site_fract_y
_atom_site_fract_z
Si Si1 0.713305 0.129704 0.336530
Si Si2 0.121601 0.601577 0.249147
Si Si3 0.588338 0.256586 0.167183
Si Si4 0.606510 0.951192 0.092813
Si Si5 0.058432 0.601592 0.500000
Si Si6 0.148788 0.699925 0.908291
Si Si7 0.722747 0.874176 0.500000
O O1 0.787442 0.212559 0.347914
O O2 0.666841 0.148435 0.289652
O O3 0.627748 0.119461 0.370725
O O4 0.763915 0.025837 0.334933
O O5 0.123794 0.489260 0.262324
O O6 0.189471 0.613728 0.208036
O O7 0.643358 0.356643 0.171184
O O8 0.629262 0.203938 0.124643
O O9 0.500000 0.000000 0.096564
O O10 0.683069 0.036543 0.097800
O O11 0.613229 0.903923 0.045321
O O12 0.000000 0.500000 0.500000
O O13 0.985604 0.692004 0.500000
O O14 0.195392 0.804609 0.901259
O O15 0.174387 0.667848 0.956877
O O16 0.831820 0.831820 0.500000
#
# Coordination Sequence:
#
# PCOD9569085 Si02
#       7
#    16  16  16  16   8  16   8
#     4  11  22  33  49  74 102 133 167 208 249 295
#     4   9  18  31  52  75  97 124 166 210 253 293
#     4  10  19  32  48  69  99 134 167 203 247 297
#     4  11  18  32  53  72 101 131 167 211 253 296
#     4  10  16  28  47  74  97 134 163 206 257 298
#     4  10  18  28  48  76  99 125 161 205 254 298
#     4  10  16  24  40  72 106 122 152 206 258 300
#
# _framework density 15.945192
#
# number of rings (size 3 to 8) (size 9 to 14) (size 15 to 20)
#    0.000    1.833    5.000    1.500    2.333    0.333 
#    0.000    0.417    0.000    0.500    0.000    0.000 
#    0.000   12.667    0.000    0.000    0.000    0.000 
#
# Total GULP energy -535081.852969 kJ/mol
# GULP energy per Si atom -5573.769302 kJ/mol
# Density = 1.590890 g / cm^3
# Si number density = 15.945192 Si / 1000 Ang^3
#
#
#
# Elastic Constant Matrix: (Units=GPa)
#
#
# Indices 1 2 3 4 5 6 
#
# 1 74.8964 58.8407 36.9365 0.0000 0.0000 0.0000
# 2 58.8407 74.8964 36.9365 0.0000 0.0000 0.0000
# 3 36.9365 36.9365 91.7418 0.0000 0.0000 0.0000
# 4 0.0000 0.0000 0.0000 1.8559 0.0000 0.0000
# 5 0.0000 0.0000 0.0000 0.0000 1.8559 0.0000
# 6 0.0000 0.0000 0.0000 0.0000 0.0000 32.9257
#
#
#
# Elastic Compliance Matrix: (Units=1/GPa)
#
#
# Indices 1 2 3 4 5 6 
#
# 1 0.035950 -0.026334 -0.003871 0.000000 0.000000 0.000000
# 2 -0.026334 0.035950 -0.003871 0.000000 0.000000 0.000000
# 3 -0.003871 -0.003871 0.014018 0.000000 0.000000 0.000000
# 4 0.000000 0.000000 0.000000 0.538816 0.000000 0.000000
# 5 0.000000 0.000000 0.000000 0.000000 0.538816 0.000000
# 6 0.000000 0.000000 0.000000 0.000000 0.000000 0.030371
#
#
# Mechanical properties :
#
#
# Convention : Reuss Voigt Hill
#
# Bulk Modulus (GPa) = 56.29555 56.32911 56.31233
# Shear Modulus (GPa) = 3.94324 14.58223 9.26274
#
# Velocity S-wave (km/s) = 1.57428 3.02739 2.41282
# Velocity P-wave (km/s) = 6.21987 6.90098 6.56926
#
# Compressibility (1/GPa) = 0.01776339
#
# Stress axis : x y z
#
# Youngs Moduli (GPa) = 27.81679 27.81679 71.33901
#
# Poissons Ratio (x) = 0.73252 0.27619
# Poissons Ratio (y) = 0.73252 0.27619
# Poissons Ratio (z) = 0.10769 0.10769
#
# Static dielectric constant tensor:
#      x y z
#    x 1.526720 0.000000 0.000000 
#    y 0.000000 1.526720 0.000000 
#    z 0.000000 0.000000 1.539410 
# 
# From -- ./inp_files/9922.got.cif
#   From: 2010.05.17/outbox.cif.g08.bks.cpg/sg136_5_cif.got.tgz:9922.got - 2010.05.20 12:54:53.
