data_PCOD9569091
_publ_section_title
;
Structure prediction by ZEFSAII (Michael W. Deem and Ramdas Pophale) SiO2 
 PCOD9569091
Probable space group: P 42/M N M
;
_chemical_formula_sum "Si O2"
_cell_formula_units_Z 46
_cell_length_a 10.442633
_cell_length_b 10.442633
_cell_length_c 20.058043
_cell_angle_alpha 90.000000
_cell_angle_beta 90.000000
_cell_angle_gamma 90.000000
_cell_volume 2187.301186
_symmetry_space_group_name_H-M "P 42/M N M"
_symmetry_group_IT_number 136
_symmetry_cell_setting 'tetragonal'
loop_
_space_group_symop_operation_xyz
x,y,z
1/2-y,1/2+x,1/2+z
-x,-y,z
1/2+y,1/2-x,1/2+z
1/2+x,1/2-y,1/2-z
1/2-x,1/2+y,1/2-z
y,x,-z
-y,-x,-z
-x,-y,-z
1/2+y,1/2-x,1/2-z
x,y,-z
1/2-y,1/2+x,1/2-z
1/2-x,1/2+y,1/2+z
1/2+x,1/2-y,1/2+z
-y,-x,z
y,x,z
loop_
_atom_site_type_symbol
_atom_site_label
_atom_site_fract_x
_atom_site_fract_y
_atom_site_fract_z
Si Si1 0.990198 0.357776 0.147013
Si Si2 0.313969 0.686032 0.143614
Si Si3 0.393302 0.606699 0.713857
Si Si4 0.681190 0.318811 0.000000
Si Si5 0.013896 0.690439 0.000000
Si Si6 0.000000 0.000000 0.000000
O O1 0.062592 0.243457 0.184600
O O2 0.039713 0.358930 0.070208
O O3 0.000000 0.500000 0.175045
O O4 0.839108 0.329815 0.146760
O O5 0.379029 0.620972 0.206925
O O6 0.364530 0.635470 0.072284
O O7 0.500000 0.500000 0.694994
O O8 0.834581 0.340284 0.000000
O O9 0.000623 0.842913 0.000000
#
# Coordination Sequence:
#
# PCOD9569091 Si02
#       6
#    16   8   8   4   8   2
#     4  11  24  41  68  98 139 181 227 284 345 405
#     4  10  23  42  68  94 135 176 227 281 348 411
#     4  12  27  42  67 103 136 179 234 285 335 417
#     4   7  16  37  61  90 119 176 214 267 340 402
#     4   9  18  34  62  98 132 171 225 277 336 398
#     4  10  16  28  72 100 138 168 220 296 344 380
#
# _framework density 21.030483
#
# number of rings (size 3 to 8) (size 9 to 14) (size 15 to 20)
#    0.000    1.739    1.739    2.609    7.304    0.000 
#    0.000    0.435    0.000    0.000    0.000    0.000 
#    0.000    0.000    0.000    0.000    0.000    0.000 
#
# Total GULP energy -256304.493476 kJ/mol
# GULP energy per Si atom -5571.836815 kJ/mol
# Density = 2.098262 g / cm^3
# Si number density = 21.030483 Si / 1000 Ang^3
#
#
#
# Elastic Constant Matrix: (Units=GPa)
#
#
# Indices 1 2 3 4 5 6 
#
# 1 147.4766 17.1911 38.6110 0.0000 0.0000 0.0000
# 2 17.1911 147.4780 38.6108 0.0000 0.0000 0.0000
# 3 38.6110 38.6108 169.6042 0.0000 0.0000 0.0000
# 4 0.0000 0.0000 0.0000 16.1859 0.0000 0.0000
# 5 0.0000 0.0000 0.0000 0.0000 16.1862 0.0000
# 6 0.0000 0.0000 0.0000 0.0000 0.0000 19.1296
#
#
#
# Elastic Compliance Matrix: (Units=1/GPa)
#
#
# Indices 1 2 3 4 5 6 
#
# 1 0.007237 -0.000438 -0.001548 0.000000 0.000000 0.000000
# 2 -0.000438 0.007237 -0.001548 0.000000 0.000000 0.000000
# 3 -0.001548 -0.001548 0.006601 0.000000 0.000000 0.000000
# 4 0.000000 0.000000 0.000000 0.061782 0.000000 0.000000
# 5 0.000000 0.000000 0.000000 0.000000 0.061781 0.000000
# 6 0.000000 0.000000 0.000000 0.000000 0.000000 0.052275
#
#
# Mechanical properties :
#
#
# Convention : Reuss Voigt Hill
#
# Bulk Modulus (GPa) = 71.39233 72.59829 71.99531
# Shear Modulus (GPa) = 23.96361 34.97674 29.47018
#
# Velocity S-wave (km/s) = 3.37927 4.08259 3.74747
# Velocity P-wave (km/s) = 7.01760 7.53783 7.28236
#
# Compressibility (1/GPa) = 0.01400711
#
# Stress axis : x y z
#
# Youngs Moduli (GPa) = 138.17780 138.17928 151.49749
#
# Poissons Ratio (x) = 0.06058 0.23448
# Poissons Ratio (y) = 0.06058 0.23447
# Poissons Ratio (z) = 0.21386 0.21386
#
# Static dielectric constant tensor:
#      x y z
#    x 1.717750 0.000000 0.000000 
#    y 0.000000 1.717760 0.000000 
#    z 0.000000 0.000000 1.853340 
# 
# From -- ./inp_files/6884.got.cif
#   From: 2010.05.17/outbox.cif.g08.bks.cpg/sg136_4_cif.got.tgz:6884.got - 2010.05.20 12:54:53.
