data_PCOD9569380
_publ_section_title
;
Structure prediction by ZEFSAII (Michael W. Deem and Ramdas Pophale) SiO2 
 PCOD9569380
Probable space group: P 42/M N M
;
_chemical_formula_sum "Si O2"
_cell_formula_units_Z 48
_cell_length_a 12.095946
_cell_length_b 12.095946
_cell_length_c 18.488895
_cell_angle_alpha 90.000000
_cell_angle_beta 90.000000
_cell_angle_gamma 90.000000
_cell_volume 2705.145534
_symmetry_space_group_name_H-M "P 42/M N M"
_symmetry_group_IT_number 136
_symmetry_cell_setting 'tetragonal'
loop_
_space_group_symop_operation_xyz
x,y,z
1/2-y,1/2+x,1/2+z
-x,-y,z
1/2+y,1/2-x,1/2+z
1/2+x,1/2-y,1/2-z
1/2-x,1/2+y,1/2-z
y,x,-z
-y,-x,-z
-x,-y,-z
1/2+y,1/2-x,1/2-z
x,y,-z
1/2-y,1/2+x,1/2-z
1/2-x,1/2+y,1/2+z
1/2+x,1/2-y,1/2+z
-y,-x,z
y,x,z
loop_
_atom_site_type_symbol
_atom_site_label
_atom_site_fract_x
_atom_site_fract_y
_atom_site_fract_z
Si Si1 0.320720 0.492582 0.360535
Si Si2 0.407251 0.903947 0.580868
Si Si3 0.965663 0.325251 0.271516
O O1 0.407757 0.592244 0.362136
O O2 0.384330 0.384330 0.388929
O O3 0.211496 0.531213 0.402555
O O4 0.281637 0.469536 0.278284
O O5 0.360904 0.903046 0.500000
O O6 0.321376 0.927804 0.645530
O O7 0.500000 0.000000 0.585464
O O8 0.882297 0.413811 0.234526
#
# Coordination Sequence:
#
# PCOD9569380 Si02
#       3
#    16  16  16
#     4  10  21  35  54  81 110 141 176 221 274 319
#     4  10  19  35  56  78 108 142 179 219 264 318
#     4   9  15  32  53  79 100 136 178 217 260 302
#
# _framework density 17.743962
#
# number of rings (size 3 to 8) (size 9 to 14) (size 15 to 20)
#    0.000    2.333    6.667    0.000    0.000    6.667 
#    0.000    1.667    0.000    1.000    0.000    2.333 
#    0.000    0.000    0.000    0.000    0.000    0.000 
#
# Total GULP energy -267411.630893 kJ/mol
# GULP energy per Si atom -5571.075644 kJ/mol
# Density = 1.770358 g / cm^3
# Si number density = 17.743962 Si / 1000 Ang^3
#
#
#
# Elastic Constant Matrix: (Units=GPa)
#
#
# Indices 1 2 3 4 5 6 
#
# 1 67.9900 16.2017 5.8446 0.0000 0.0000 0.0000
# 2 16.2017 67.9900 5.8446 0.0000 0.0000 0.0000
# 3 5.8446 5.8446 127.3943 0.0000 0.0000 0.0000
# 4 0.0000 0.0000 0.0000 4.2497 0.0000 0.0000
# 5 0.0000 0.0000 0.0000 0.0000 4.2497 0.0000
# 6 0.0000 0.0000 0.0000 0.0000 0.0000 6.0210
#
#
#
# Elastic Compliance Matrix: (Units=1/GPa)
#
#
# Indices 1 2 3 4 5 6 
#
# 1 0.015632 -0.003678 -0.000548 0.000000 0.000000 0.000000
# 2 -0.003678 0.015632 -0.000548 0.000000 0.000000 0.000000
# 3 -0.000548 -0.000548 0.007900 0.000000 0.000000 0.000000
# 4 0.000000 0.000000 0.000000 0.235312 0.000000 0.000000
# 5 0.000000 0.000000 0.000000 0.000000 0.235312 0.000000
# 6 0.000000 0.000000 0.000000 0.000000 0.000000 0.166087
#
#
# Mechanical properties :
#
#
# Convention : Reuss Voigt Hill
#
# Bulk Modulus (GPa) = 33.76793 35.46178 34.61486
# Shear Modulus (GPa) = 7.19120 18.60296 12.89708
#
# Velocity S-wave (km/s) = 2.01533 3.24143 2.69893
# Velocity P-wave (km/s) = 4.94847 5.83419 5.40949
#
# Compressibility (1/GPa) = 0.02961389
#
# Stress axis : x y z
#
# Youngs Moduli (GPa) = 63.97302 63.97302 126.58281
#
# Poissons Ratio (x) = 0.23528 0.06942
# Poissons Ratio (y) = 0.23528 0.06942
# Poissons Ratio (z) = 0.03508 0.03508
#
# Static dielectric constant tensor:
#      x y z
#    x 1.607890 0.000000 0.000000 
#    y 0.000000 1.607890 0.000000 
#    z 0.000000 0.000000 1.645720 
# 
# From -- ./inp_files/5700.got.cif
#   From: 2010.05.17/outbox.cif.g08.bks.cpg/sg136_3_cif.got.tgz:5700.got - 2010.05.20 12:54:53.
