data_PCOD9569159
_publ_section_title
;
Structure prediction by ZEFSAII (Michael W. Deem and Ramdas Pophale) SiO2 
 PCOD9569159
Probable space group: P 42/M N M
;
_chemical_formula_sum "Si O2"
_cell_formula_units_Z 128
_cell_length_a 21.979337
_cell_length_b 21.979337
_cell_length_c 16.530194
_cell_angle_alpha 90.000000
_cell_angle_beta 90.000000
_cell_angle_gamma 90.000000
_cell_volume 7985.592164
_symmetry_space_group_name_H-M "P 42/M N M"
_symmetry_group_IT_number 136
_symmetry_cell_setting 'tetragonal'
loop_
_space_group_symop_operation_xyz
x,y,z
1/2-y,1/2+x,1/2+z
-x,-y,z
1/2+y,1/2-x,1/2+z
1/2+x,1/2-y,1/2-z
1/2-x,1/2+y,1/2-z
y,x,-z
-y,-x,-z
-x,-y,-z
1/2+y,1/2-x,1/2-z
x,y,-z
1/2-y,1/2+x,1/2-z
1/2-x,1/2+y,1/2+z
1/2+x,1/2-y,1/2+z
-y,-x,z
y,x,z
loop_
_atom_site_type_symbol
_atom_site_label
_atom_site_fract_x
_atom_site_fract_y
_atom_site_fract_z
Si Si1 0.677994 0.053490 0.822236
Si Si2 0.264626 0.906719 0.590373
Si Si3 0.226174 0.127529 0.227948
Si Si4 0.090352 0.553130 0.097113
Si Si5 0.525231 0.218252 0.833517
Si Si6 0.411495 0.917908 0.407624
Si Si7 0.267745 0.827472 0.745660
Si Si8 0.285537 0.053997 0.906037
O O1 0.608766 0.061173 0.853564
O O2 0.705790 0.118945 0.801026
O O3 0.687860 0.012778 0.741348
O O4 0.716765 0.017759 0.889781
O O5 0.245289 0.889993 0.500000
O O6 0.245053 0.974495 0.616306
O O7 0.338396 0.913963 0.589862
O O8 0.250678 0.858429 0.659811
O O9 0.162741 0.162741 0.233882
O O10 0.240469 0.078056 0.296735
O O11 0.278794 0.178688 0.231888
O O12 0.236813 0.091592 0.144273
O O13 0.162722 0.552948 0.115129
O O14 0.070593 0.484556 0.123695
O O15 0.080375 0.558949 0.000000
O O16 0.434598 0.916889 0.500000
O O17 0.430777 0.853566 0.371010
O O18 0.209960 0.790041 0.777710
O O19 0.283799 0.069709 0.000000
#
# Coordination Sequence:
#
# PCOD9569159 Si02
#       8
#    16  16  16  16  16  16  16  16
#     4  10  20  31  46  65  91 126 162 197 240 279
#     4   9  16  29  48  69  93 122 155 194 240 277
#     4  10  19  31  48  67  92 126 160 197 238 282
#     4  10  18  30  47  64  88 124 165 200 229 263
#     4   9  18  30  47  65  92 124 157 196 237 277
#     4   8  15  26  41  62  89 118 151 194 230 260
#     4  10  19  31  47  67  94 126 161 199 234 279
#     4  10  19  32  48  67  93 121 159 205 243 277
#
# _framework density 16.028867999999999
#
# number of rings (size 3 to 8) (size 9 to 14) (size 15 to 20)
#    0.000    2.500    2.500    1.500    0.000    1.000 
#    0.000    3.125    0.000    3.750    0.000    0.000 
#    0.000   40.500    0.000   20.250    0.000    0.000 
#
# Total GULP energy -712862.257745 kJ/mol
# GULP energy per Si atom -5569.236389 kJ/mol
# Density = 1.599239 g / cm^3
# Si number density = 16.028868 Si / 1000 Ang^3
#
#
#
# Elastic Constant Matrix: (Units=GPa)
#
#
# Indices 1 2 3 4 5 6 
#
# 1 33.9935 8.8382 7.7950 0.0000 0.0000 0.0000
# 2 8.8382 33.9935 7.7950 0.0000 0.0000 0.0000
# 3 7.7950 7.7950 31.0620 0.0000 0.0000 0.0000
# 4 0.0000 0.0000 0.0000 10.3053 0.0000 0.0000
# 5 0.0000 0.0000 0.0000 0.0000 10.3053 0.0000
# 6 0.0000 0.0000 0.0000 0.0000 0.0000 23.6498
#
#
#
# Elastic Compliance Matrix: (Units=1/GPa)
#
#
# Indices 1 2 3 4 5 6 
#
# 1 0.032724 -0.007029 -0.006448 0.000000 0.000000 0.000000
# 2 -0.007029 0.032724 -0.006448 0.000000 0.000000 0.000000
# 3 -0.006448 -0.006448 0.035430 0.000000 0.000000 0.000000
# 4 0.000000 0.000000 0.000000 0.097037 0.000000 0.000000
# 5 0.000000 0.000000 0.000000 0.000000 0.097037 0.000000
# 6 0.000000 0.000000 0.000000 0.000000 0.000000 0.042284
#
#
# Mechanical properties :
#
#
# Convention : Reuss Voigt Hill
#
# Bulk Modulus (GPa) = 16.38635 16.43393 16.41014
# Shear Modulus (GPa) = 12.58090 13.82682 13.20386
#
# Velocity S-wave (km/s) = 2.80463 2.94022 2.87323
# Velocity P-wave (km/s) = 4.55337 4.66921 4.61165
#
# Compressibility (1/GPa) = 0.06102642
#
# Stress axis : x y z
#
# Youngs Moduli (GPa) = 30.55901 30.55901 28.22475
#
# Poissons Ratio (x) = 0.21481 0.18199
# Poissons Ratio (y) = 0.21481 0.18199
# Poissons Ratio (z) = 0.19704 0.19704
#
# Static dielectric constant tensor:
#      x y z
#    x 1.551560 0.000000 0.000000 
#    y 0.000000 1.551560 0.000000 
#    z 0.000000 0.000000 1.586740 
# 
# From -- ./inp_files/6643.got.cif
#   From: 2010.05.17/outbox.cif.g08.bks.cpg/sg136_4_cif.got.tgz:6643.got - 2010.05.20 12:54:53.
