data_PCOD9569623
_publ_section_title
;
Structure prediction by ZEFSAII (Michael W. Deem and Ramdas Pophale) SiO2 
 PCOD9569623
Probable space group: P 42/M N M
;
_chemical_formula_sum "Si O2"
_cell_formula_units_Z 60
_cell_length_a 12.421069
_cell_length_b 12.421069
_cell_length_c 18.630790
_cell_angle_alpha 90.000000
_cell_angle_beta 90.000000
_cell_angle_gamma 90.000000
_cell_volume 2874.413337
_symmetry_space_group_name_H-M "P 42/M N M"
_symmetry_group_IT_number 136
_symmetry_cell_setting 'tetragonal'
loop_
_space_group_symop_operation_xyz
x,y,z
1/2-y,1/2+x,1/2+z
-x,-y,z
1/2+y,1/2-x,1/2+z
1/2+x,1/2-y,1/2-z
1/2-x,1/2+y,1/2-z
y,x,-z
-y,-x,-z
-x,-y,-z
1/2+y,1/2-x,1/2-z
x,y,-z
1/2-y,1/2+x,1/2-z
1/2-x,1/2+y,1/2+z
1/2+x,1/2-y,1/2+z
-y,-x,z
y,x,z
loop_
_atom_site_type_symbol
_atom_site_label
_atom_site_fract_x
_atom_site_fract_y
_atom_site_fract_z
Si Si1 0.332141 0.010545 0.000000
Si Si2 0.233777 0.766224 0.154116
Si Si3 0.426466 0.247417 0.000000
Si Si4 0.481201 0.776424 0.157168
Si Si5 0.829706 0.170295 0.000000
Si Si6 0.911272 0.088729 0.250317
Si Si7 0.000000 0.500000 0.375869
O O1 0.350135 0.139955 0.000000
O O2 0.400610 0.974244 0.070065
O O3 0.215125 0.953754 0.000000
O O4 0.356320 0.787149 0.175461
O O5 0.149722 0.850279 0.186716
O O6 0.222779 0.777221 0.069418
O O7 0.496112 0.246471 0.072672
O O8 0.350567 0.350567 0.000000
O O9 0.532669 0.681019 0.202212
O O10 0.530439 0.894879 0.168344
O O11 0.000000 0.000000 0.228860
#
# Coordination Sequence:
#
# PCOD9569623 Si02
#       7
#     8   8   8  16   4   8   8
#     4   9  18  32  60  98 135 166 224 291 330 407
#     4  12  26  43  71 100 134 195 234 289 355 426
#     4  10  20  39  71 111 140 171 226 307 361 404
#     4  11  22  44  71 104 143 184 234 288 362 427
#     4  12  20  44  71  95 128 186 248 288 338 401
#     4  12  28  49  66 104 153 181 235 306 358 444
#     4   9  18  36  65  98 132 172 230 280 340 413
#
# _framework density 20.873823999999999
#
# number of rings (size 3 to 8) (size 9 to 14) (size 15 to 20)
#    0.000    1.333    5.333    1.600    0.000    2.133 
#    0.000    3.333    0.000    0.000    0.000    0.000 
#    0.000    0.000    0.000    0.000    0.000    0.000 
#
# Total GULP energy -334931.660866 kJ/mol
# GULP energy per Si atom -5582.194348 kJ/mol
# Density = 2.082631 g / cm^3
# Si number density = 20.873824 Si / 1000 Ang^3
#
#
#
# Elastic Constant Matrix: (Units=GPa)
#
#
# Indices 1 2 3 4 5 6 
#
# 1 123.1985 59.0354 37.3710 0.0000 0.0000 0.0000
# 2 59.0354 123.1981 37.3709 0.0000 0.0000 0.0000
# 3 37.3710 37.3709 59.9922 0.0000 0.0000 0.0000
# 4 0.0000 0.0000 0.0000 7.9701 0.0000 0.0000
# 5 0.0000 0.0000 0.0000 0.0000 7.9705 0.0000
# 6 0.0000 0.0000 0.0000 0.0000 0.0000 50.1544
#
#
#
# Elastic Compliance Matrix: (Units=1/GPa)
#
#
# Indices 1 2 3 4 5 6 
#
# 1 0.011478 -0.004107 -0.004591 0.000000 0.000000 0.000000
# 2 -0.004107 0.011478 -0.004591 0.000000 0.000000 0.000000
# 3 -0.004591 -0.004591 0.022389 0.000000 0.000000 0.000000
# 4 0.000000 0.000000 0.000000 0.125468 0.000000 0.000000
# 5 0.000000 0.000000 0.000000 0.000000 0.125462 0.000000
# 6 0.000000 0.000000 0.000000 0.000000 0.000000 0.019938
#
#
# Mechanical properties :
#
#
# Convention : Reuss Voigt Hill
#
# Bulk Modulus (GPa) = 53.29140 63.77146 58.53143
# Shear Modulus (GPa) = 14.32464 24.72645 19.52555
#
# Velocity S-wave (km/s) = 2.62248 3.44549 3.06176
# Velocity P-wave (km/s) = 5.89538 6.81511 6.37186
#
# Compressibility (1/GPa) = 0.01876475
#
# Stress axis : x y z
#
# Youngs Moduli (GPa) = 87.12368 87.12346 44.66481
#
# Poissons Ratio (x) = 0.35785 0.20507
# Poissons Ratio (y) = 0.35785 0.20507
# Poissons Ratio (z) = 0.40002 0.40001
#
# Static dielectric constant tensor:
#      x y z
#    x 1.776280 0.000000 0.000000 
#    y 0.000000 1.776280 0.000000 
#    z 0.000000 0.000000 1.749260 
# 
# From -- ./inp_files/7124.got.cif
#   From: 2010.05.17/outbox.cif.g08.bks.cpg/sg136_4_cif.got.tgz:7124.got - 2010.05.20 12:54:53.
