data_PCOD9569086
_publ_section_title
;
Structure prediction by ZEFSAII (Michael W. Deem and Ramdas Pophale) SiO2 
 PCOD9569086
Probable space group: P 42/M N M
;
_chemical_formula_sum "Si O2"
_cell_formula_units_Z 104
_cell_length_a 27.466088
_cell_length_b 27.466088
_cell_length_c 7.783362
_cell_angle_alpha 90.000000
_cell_angle_beta 90.000000
_cell_angle_gamma 90.000000
_cell_volume 5871.659248
_symmetry_space_group_name_H-M "P 42/M N M"
_symmetry_group_IT_number 136
_symmetry_cell_setting 'tetragonal'
loop_
_space_group_symop_operation_xyz
x,y,z
1/2-y,1/2+x,1/2+z
-x,-y,z
1/2+y,1/2-x,1/2+z
1/2+x,1/2-y,1/2-z
1/2-x,1/2+y,1/2-z
y,x,-z
-y,-x,-z
-x,-y,-z
1/2+y,1/2-x,1/2-z
x,y,-z
1/2-y,1/2+x,1/2-z
1/2-x,1/2+y,1/2+z
1/2+x,1/2-y,1/2+z
-y,-x,z
y,x,z
loop_
_atom_site_type_symbol
_atom_site_label
_atom_site_fract_x
_atom_site_fract_y
_atom_site_fract_z
Si Si1 0.581974 0.500543 0.000000
Si Si2 0.206636 0.642073 0.789388
Si Si3 0.359203 0.640798 0.704066
Si Si4 0.961323 0.748198 0.300342
Si Si5 0.850235 0.973045 0.804928
Si Si6 0.354194 0.997810 0.795910
Si Si7 0.103659 0.600997 0.792191
Si Si8 0.281536 0.718465 0.803082
O O1 0.615930 0.499161 0.832312
O O2 0.546485 0.546485 0.000000
O O3 0.547282 0.452719 0.000000
O O4 0.235707 0.593246 0.734234
O O5 0.150773 0.632829 0.737346
O O6 0.234537 0.690497 0.727897
O O7 0.207961 0.642380 0.000000
O O8 0.351451 0.648550 0.500000
O O9 0.350138 0.584336 0.741784
O O10 0.323215 0.676786 0.800638
O O11 0.956969 0.761685 0.500000
O O12 0.986127 0.793398 0.207033
O O13 0.990772 0.698190 0.284608
O O14 0.868151 0.978153 0.000000
O O15 0.386895 0.045463 0.762410
O O16 0.378060 0.947819 0.731914
O O17 0.347124 0.993500 0.000000
O O18 0.103674 0.601292 0.000000
O O19 0.269157 0.730844 0.000000
#
# Coordination Sequence:
#
# PCOD9569086 Si02
#       8
#     8  16   8  16  16  16  16   8
#     4  11  24  38  54  76 108 150 188 225 282 336
#     4   8  15  26  44  70  98 128 161 203 253 315
#     4  10  20  28  42  73 110 139 167 213 264 319
#     4  10  18  31  52  77 105 132 167 216 267 321
#     4  11  21  34  53  78 107 141 184 227 271 329
#     4  10  20  33  51  74 102 136 175 222 270 323
#     4   9  19  35  49  68 102 137 174 221 269 321
#     4  10  16  24  46  72  99 133 167 199 251 328
#
# _framework density 17.712199999999999
#
# number of rings (size 3 to 8) (size 9 to 14) (size 15 to 20)
#    0.000    2.231    3.077    1.846    1.077    1.846 
#    0.000    2.308    0.000    0.000    2.000    0.000 
#    0.000    0.000    0.000    0.000    0.000    0.000 
#
# Total GULP energy -580036.497891 kJ/mol
# GULP energy per Si atom -5577.274018 kJ/mol
# Density = 1.767189 g / cm^3
# Si number density = 17.712200 Si / 1000 Ang^3
#
#
#
# Elastic Constant Matrix: (Units=GPa)
#
#
# Indices 1 2 3 4 5 6 
#
# 1 97.0298 62.9121 16.8017 0.0000 0.0000 0.0000
# 2 62.9121 97.0309 16.8016 0.0000 0.0000 0.0000
# 3 16.8017 16.8016 47.9871 0.0000 0.0000 0.0000
# 4 0.0000 0.0000 0.0000 13.1564 0.0000 0.0000
# 5 0.0000 0.0000 0.0000 0.0000 13.1561 0.0000
# 6 0.0000 0.0000 0.0000 0.0000 0.0000 27.6007
#
#
#
# Elastic Compliance Matrix: (Units=1/GPa)
#
#
# Indices 1 2 3 4 5 6 
#
# 1 0.018029 -0.011281 -0.002363 0.000000 0.000000 0.000000
# 2 -0.011281 0.018029 -0.002363 0.000000 0.000000 0.000000
# 3 -0.002363 -0.002363 0.022494 0.000000 0.000000 0.000000
# 4 0.000000 0.000000 0.000000 0.076009 0.000000 0.000000
# 5 0.000000 0.000000 0.000000 0.000000 0.076010 0.000000
# 6 0.000000 0.000000 0.000000 0.000000 0.000000 0.036231
#
#
# Mechanical properties :
#
#
# Convention : Reuss Voigt Hill
#
# Bulk Modulus (GPa) = 37.67993 48.34206 43.01099
# Shear Modulus (GPa) = 17.38155 20.48479 18.93317
#
# Velocity S-wave (km/s) = 3.13602 3.40448 3.27300
# Velocity P-wave (km/s) = 5.86792 6.54265 6.21445
#
# Compressibility (1/GPa) = 0.02653933
#
# Stress axis : x y z
#
# Youngs Moduli (GPa) = 55.46496 55.46571 44.45712
#
# Poissons Ratio (x) = 0.62569 0.10505
# Poissons Ratio (y) = 0.62568 0.10504
# Poissons Ratio (z) = 0.13106 0.13106
#
# Static dielectric constant tensor:
#      x y z
#    x 1.608120 0.000000 0.000000 
#    y 0.000000 1.608120 0.000000 
#    z 0.000000 0.000000 1.654260 
# 
# From -- ./inp_files/2257.got.cif
#   From: 2010.05.17/outbox.cif.g08.bks.cpg/sg136_2_cif.got.tgz:2257.got - 2010.05.20 12:54:53.
