data_PCOD9569927
_publ_section_title
;
Structure prediction by ZEFSAII (Michael W. Deem and Ramdas Pophale) SiO2 
 PCOD9569927
Probable space group: P 42/M N M
;
_chemical_formula_sum "Si O2"
_cell_formula_units_Z 64
_cell_length_a 12.000000
_cell_length_b 12.000000
_cell_length_c 24.000000
_cell_angle_alpha 90.000000
_cell_angle_beta 90.000000
_cell_angle_gamma 90.000000
_cell_volume 3456.000000
_symmetry_space_group_name_H-M "P 42/M N M"
_symmetry_group_IT_number 136
_symmetry_cell_setting 'tetragonal'
loop_
_space_group_symop_operation_xyz
x,y,z
1/2-y,1/2+x,1/2+z
-x,-y,z
1/2+y,1/2-x,1/2+z
1/2+x,1/2-y,1/2-z
1/2-x,1/2+y,1/2-z
y,x,-z
-y,-x,-z
-x,-y,-z
1/2+y,1/2-x,1/2-z
x,y,-z
1/2-y,1/2+x,1/2-z
1/2-x,1/2+y,1/2+z
1/2+x,1/2-y,1/2+z
-y,-x,z
y,x,z
loop_
_atom_site_type_symbol
_atom_site_label
_atom_site_fract_x
_atom_site_fract_y
_atom_site_fract_z
Si Si1 0.545147 0.270897 0.000000
Si Si2 0.593123 0.593123 0.681469
Si Si3 0.407381 0.407381 0.185985
Si Si4 0.976932 0.319231 0.879420
Si Si5 0.472766 0.189527 0.880997
Si Si6 0.583280 0.761582 0.500000
O O1 0.477451 0.242182 0.943622
O O2 0.608391 0.391610 0.000000
O O3 0.645527 0.180889 0.000000
O O4 0.500000 0.500000 0.668662
O O5 0.603372 0.603372 0.747791
O O6 0.553557 0.711168 0.656350
O O7 0.500000 0.500000 0.173251
O O8 0.291589 0.448885 0.159747
O O9 0.876981 0.410140 0.873364
O O10 0.981960 0.281277 0.943636
O O11 0.094155 0.380624 0.869758
O O12 0.642619 0.642619 0.500000
#
# Coordination Sequence:
#
# PCOD9569927 Si02
#       6
#     8   8   8  16  16   8
#     4   9  17  32  62  95 128 162 197 244 312 373
#     4  11  26  43  63  86 120 165 210 263 308 359
#     4  11  26  43  61  88 121 162 212 259 311 360
#     4  10  21  40  65  92 124 161 205 251 314 369
#     4  10  22  39  64  95 124 159 204 257 304 376
#     4   9  15  31  61  93 122 162 199 236 300 384
#
# _framework density 18.518519000000001
#
# number of rings (size 3 to 8) (size 9 to 14) (size 15 to 20)
#    0.000    2.000    1.250    1.500    5.250    5.500 
#    0.000    5.000    0.000    0.000    0.000    0.000 
#    0.000    0.000    0.000    0.000    0.000    0.000 
#
# Total GULP energy -357106.800810 kJ/mol
# GULP energy per Si atom -5579.793763 kJ/mol
# Density = 1.847637 g / cm^3
# Si number density = 18.518519 Si / 1000 Ang^3
#
#
#
# Elastic Constant Matrix: (Units=GPa)
#
#
# Indices 1 2 3 4 5 6 
#
# 1 129.1914 95.1934 83.0921 0.0000 0.0000 0.0000
# 2 95.1934 129.1913 83.0921 0.0000 0.0000 0.0000
# 3 83.0921 83.0921 93.1825 0.0000 0.0000 0.0000
# 4 0.0000 0.0000 0.0000 164.3870 0.0000 0.0000
# 5 0.0000 0.0000 0.0000 0.0000 164.4019 0.0000
# 6 0.0000 0.0000 0.0000 0.0000 0.0000 20.0556
#
#
#
# Elastic Compliance Matrix: (Units=1/GPa)
#
#
# Indices 1 2 3 4 5 6 
#
# 1 0.021269 -0.008145 -0.011703 0.000000 0.000000 0.000000
# 2 -0.008145 0.021269 -0.011703 0.000000 0.000000 0.000000
# 3 -0.011703 -0.011703 0.031603 0.000000 0.000000 0.000000
# 4 0.000000 0.000000 0.000000 0.006083 0.000000 0.000000
# 5 0.000000 0.000000 0.000000 0.000000 0.006083 0.000000
# 6 0.000000 0.000000 0.000000 0.000000 0.000000 0.049861
#
#
# Mechanical properties :
#
#
# Convention : Reuss Voigt Hill
#
# Bulk Modulus (GPa) = 90.58450 97.14670 93.86560
# Shear Modulus (GPa) = 24.63679 75.78141 50.20910
#
# Velocity S-wave (km/s) = 3.65140 6.40397 5.21266
# Velocity P-wave (km/s) = 8.17305 10.35636 9.32880
#
# Compressibility (1/GPa) = 0.01103942
#
# Stress axis : x y z
#
# Youngs Moduli (GPa) = 47.01732 47.01727 31.64270
#
# Poissons Ratio (x) = 0.38294 0.37031
# Poissons Ratio (y) = 0.38294 0.37031
# Poissons Ratio (z) = 0.55024 0.55024
#
# Static dielectric constant tensor:
#      x y z
#    x 1.630040 0.000000 0.000000 
#    y 0.000000 1.630040 0.000000 
#    z 0.000000 0.000000 1.629980 
# 
# From -- ./inp_files/8204.got.cif
#   From: 2010.05.17/outbox.ucp.g08.bks.cvg/sg136_5_cif.got.tgz:8204.got - 2010.06.11 11:40:42.
