data_PCOD9569357
_publ_section_title
;
Structure prediction by ZEFSAII (Michael W. Deem and Ramdas Pophale) SiO2 
 PCOD9569357
Probable space group: P 42/M N M
;
_chemical_formula_sum "Si O2"
_cell_formula_units_Z 120
_cell_length_a 13.910957
_cell_length_b 13.910957
_cell_length_c 35.502598
_cell_angle_alpha 90.000000
_cell_angle_beta 90.000000
_cell_angle_gamma 90.000000
_cell_volume 6870.275477
_symmetry_space_group_name_H-M "P 42/M N M"
_symmetry_group_IT_number 136
_symmetry_cell_setting 'tetragonal'
loop_
_space_group_symop_operation_xyz
x,y,z
1/2-y,1/2+x,1/2+z
-x,-y,z
1/2+y,1/2-x,1/2+z
1/2+x,1/2-y,1/2-z
1/2-x,1/2+y,1/2-z
y,x,-z
-y,-x,-z
-x,-y,-z
1/2+y,1/2-x,1/2-z
x,y,-z
1/2-y,1/2+x,1/2-z
1/2-x,1/2+y,1/2+z
1/2+x,1/2-y,1/2+z
-y,-x,z
y,x,z
loop_
_atom_site_type_symbol
_atom_site_label
_atom_site_fract_x
_atom_site_fract_y
_atom_site_fract_z
Si Si1 0.009505 0.660803 0.747295
Si Si2 0.215795 0.052480 0.409293
Si Si3 0.432218 0.908540 0.956678
Si Si4 0.239276 0.079980 0.323326
Si Si5 0.293282 0.453234 0.458774
Si Si6 0.240777 0.401025 0.679406
Si Si7 0.654359 0.489910 0.379893
Si Si8 0.581815 0.581815 0.042997
O O1 0.096619 0.584426 0.742841
O O2 0.038731 0.723142 0.783164
O O3 0.988160 0.725686 0.710631
O O4 0.149591 0.149591 0.413892
O O5 0.320795 0.061389 0.427573
O O6 0.220470 0.034410 0.364356
O O7 0.164787 0.968043 0.432710
O O8 0.320272 0.937188 0.957234
O O9 0.500000 0.000000 0.947552
O O10 0.456816 0.878224 0.000000
O O11 0.146635 0.146635 0.313396
O O12 0.328851 0.153206 0.328314
O O13 0.319037 0.491970 0.500000
O O14 0.352737 0.352737 0.454664
O O15 0.321615 0.517679 0.423645
O O16 0.333217 0.333217 0.684536
O O17 0.258378 0.470612 0.644314
O O18 0.607291 0.392710 0.364996
O O19 0.572104 0.572104 0.377600
O O20 0.500000 0.500000 0.039926
O O21 0.608839 0.608839 0.000000
#
# Coordination Sequence:
#
# PCOD9569357 Si02
#       8
#    16  16  16  16  16  16  16   8
#     4   9  18  34  52  74 100 130 168 208 255 312
#     4  10  19  34  55  80 107 138 179 225 271 325
#     4  10  20  33  50  75 105 133 169 217 264 310
#     4   9  18  33  53  75 101 132 167 212 267 314
#     4   9  17  30  49  72  98 131 170 210 253 301
#     4   9  17  31  50  72  99 132 169 208 251 304
#     4   9  17  29  47  72 100 128 164 208 248 292
#     4   9  18  32  54  82 108 140 183 227 273 327
#
# _framework density 17.466550000000002
#
# number of rings (size 3 to 8) (size 9 to 14) (size 15 to 20)
#    0.000    2.733    0.000    1.600    0.000    4.267 
#    8.400    1.333    1.467    0.000    0.000    0.000 
#    0.000    0.000    0.000    0.000    0.000    0.000 
#
# Total GULP energy -668194.397871 kJ/mol
# GULP energy per Si atom -5568.286649 kJ/mol
# Density = 1.742680 g / cm^3
# Si number density = 17.466550 Si / 1000 Ang^3
#
#
#
# Elastic Constant Matrix: (Units=GPa)
#
#
# Indices 1 2 3 4 5 6 
#
# 1 38.3432 20.4281 40.5059 0.0000 0.0000 0.0000
# 2 20.4281 38.3432 40.5059 0.0000 0.0000 0.0000
# 3 40.5059 40.5059 129.9990 0.0000 0.0000 0.0000
# 4 0.0000 0.0000 0.0000 27.6451 0.0000 0.0000
# 5 0.0000 0.0000 0.0000 0.0000 27.6451 0.0000
# 6 0.0000 0.0000 0.0000 0.0000 0.0000 11.6269
#
#
#
# Elastic Compliance Matrix: (Units=1/GPa)
#
#
# Indices 1 2 3 4 5 6 
#
# 1 0.042822 -0.012997 -0.009293 0.000000 0.000000 0.000000
# 2 -0.012997 0.042822 -0.009293 0.000000 0.000000 0.000000
# 3 -0.009293 -0.009293 0.013484 0.000000 0.000000 0.000000
# 4 0.000000 0.000000 0.000000 0.036173 0.000000 0.000000
# 5 0.000000 0.000000 0.000000 0.000000 0.036173 0.000000
# 6 0.000000 0.000000 0.000000 0.000000 0.000000 0.086007
#
#
# Mechanical properties :
#
#
# Convention : Reuss Voigt Hill
#
# Bulk Modulus (GPa) = 27.80784 45.50727 36.65756
# Shear Modulus (GPa) = 15.03159 20.39980 17.71569
#
# Velocity S-wave (km/s) = 2.93677 3.42121 3.18821
# Velocity P-wave (km/s) = 5.23972 6.45885 5.88096
#
# Compressibility (1/GPa) = 0.03596108
#
# Stress axis : x y z
#
# Youngs Moduli (GPa) = 23.35260 23.35260 74.16460
#
# Poissons Ratio (x) = 0.30351 0.68921
# Poissons Ratio (y) = 0.30351 0.68921
# Poissons Ratio (z) = 0.21702 0.21702
#
# Static dielectric constant tensor:
#      x y z
#    x 1.592170 0.000000 0.000000 
#    y 0.000000 1.592170 0.000000 
#    z 0.000000 0.000000 1.600720 
# 
# From -- ./inp_files/10048.got.cif
#   From: 2010.05.17/outbox.cif.g08.bks.cpg/sg136_6_cif.got.tgz:10048.got - 2010.05.20 12:54:53.
