data_PCOD9569390
_publ_section_title
;
Structure prediction by ZEFSAII (Michael W. Deem and Ramdas Pophale) SiO2 
 PCOD9569390
Probable space group: P 42/M N M
;
_chemical_formula_sum "Si O2"
_cell_formula_units_Z 96
_cell_length_a 15.267061
_cell_length_b 15.267061
_cell_length_c 20.168534
_cell_angle_alpha 90.000000
_cell_angle_beta 90.000000
_cell_angle_gamma 90.000000
_cell_volume 4700.945467
_symmetry_space_group_name_H-M "P 42/M N M"
_symmetry_group_IT_number 136
_symmetry_cell_setting 'tetragonal'
loop_
_space_group_symop_operation_xyz
x,y,z
1/2-y,1/2+x,1/2+z
-x,-y,z
1/2+y,1/2-x,1/2+z
1/2+x,1/2-y,1/2-z
1/2-x,1/2+y,1/2-z
y,x,-z
-y,-x,-z
-x,-y,-z
1/2+y,1/2-x,1/2-z
x,y,-z
1/2-y,1/2+x,1/2-z
1/2-x,1/2+y,1/2+z
1/2+x,1/2-y,1/2+z
-y,-x,z
y,x,z
loop_
_atom_site_type_symbol
_atom_site_label
_atom_site_fract_x
_atom_site_fract_y
_atom_site_fract_z
Si Si1 0.464507 0.742610 0.715927
Si Si2 0.694968 0.058301 0.423705
Si Si3 0.807305 0.662248 0.289053
Si Si4 0.071200 0.282588 0.075295
Si Si5 0.884200 0.377578 0.073633
Si Si6 0.507346 0.360336 0.157524
O O1 0.559627 0.788433 0.720686
O O2 0.387771 0.804273 0.744759
O O3 0.442289 0.721795 0.639361
O O4 0.472200 0.663291 0.766651
O O5 0.725108 0.059205 0.500000
O O6 0.652223 0.152351 0.410702
O O7 0.621997 0.982122 0.417766
O O8 0.773836 0.027624 0.377959
O O9 0.722874 0.722874 0.275593
O O10 0.834500 0.668980 0.366374
O O11 0.983131 0.342004 0.075269
O O12 0.080144 0.246723 0.000000
O O13 0.848922 0.357315 0.000000
O O14 0.594929 0.405072 0.128215
O O15 0.431458 0.431458 0.153763
#
# Coordination Sequence:
#
# PCOD9569390 Si02
#       6
#    16  16  16  16  16  16
#     4  11  22  37  60  86 117 155 196 247 302 358
#     4  10  19  35  59  86 118 156 196 240 289 353
#     4  11  23  38  58  87 121 155 199 249 299 357
#     4   9  19  35  57  88 120 150 186 236 299 362
#     4   9  18  33  57  88 122 156 187 229 288 358
#     4  11  24  41  59  81 114 159 208 252 297 351
#
# _framework density 20.421423999999998
#
# number of rings (size 3 to 8) (size 9 to 14) (size 15 to 20)
#    0.000    1.833    1.667    2.500    0.000    3.333 
#    0.000    3.333    0.000    5.500    0.000    1.167 
#    0.000    0.000    0.000    0.000    0.000    0.000 
#
# Total GULP energy -535641.494898 kJ/mol
# GULP energy per Si atom -5579.598905 kJ/mol
# Density = 2.037494 g / cm^3
# Si number density = 20.421424 Si / 1000 Ang^3
#
#
#
# Elastic Constant Matrix: (Units=GPa)
#
#
# Indices 1 2 3 4 5 6 
#
# 1 37.7853 36.3028 28.3951 0.0000 0.0000 0.0000
# 2 36.3028 37.7853 28.3951 0.0000 0.0000 0.0000
# 3 28.3951 28.3951 104.4797 0.0000 0.0000 0.0000
# 4 0.0000 0.0000 0.0000 4.5249 0.0000 0.0000
# 5 0.0000 0.0000 0.0000 0.0000 4.5249 0.0000
# 6 0.0000 0.0000 0.0000 0.0000 0.0000 18.5393
#
#
#
# Elastic Compliance Matrix: (Units=1/GPa)
#
#
# Indices 1 2 3 4 5 6 
#
# 1 0.345801 -0.328751 -0.004634 0.000000 0.000000 0.000000
# 2 -0.328751 0.345801 -0.004634 0.000000 0.000000 0.000000
# 3 -0.004634 -0.004634 0.012090 0.000000 0.000000 0.000000
# 4 0.000000 0.000000 0.000000 0.220999 0.000000 0.000000
# 5 0.000000 0.000000 0.000000 0.000000 0.220999 0.000000
# 6 0.000000 0.000000 0.000000 0.000000 0.000000 0.053940
#
#
# Mechanical properties :
#
#
# Convention : Reuss Voigt Hill
#
# Bulk Modulus (GPa) = 36.16123 40.69292 38.42707
# Shear Modulus (GPa) = 2.65268 11.31497 6.98383
#
# Velocity S-wave (km/s) = 1.14096 2.35643 1.85129
# Velocity P-wave (km/s) = 4.41380 5.23197 4.84021
#
# Compressibility (1/GPa) = 0.02765393
#
# Stress axis : x y z
#
# Youngs Moduli (GPa) = 2.89184 2.89184 82.71429
#
# Poissons Ratio (x) = 0.95070 0.38326
# Poissons Ratio (y) = 0.95070 0.38326
# Poissons Ratio (z) = 0.01340 0.01340
#
# Static dielectric constant tensor:
#      x y z
#    x 1.756630 0.000000 0.000000 
#    y 0.000000 1.756630 0.000000 
#    z 0.000000 0.000000 1.767000 
# 
# From -- ./inp_files/7466.got.cif
#   From: 2010.05.17/outbox.cif.g08.bks.cpg/sg136_4_cif.got.tgz:7466.got - 2010.05.20 12:54:53.
