data_PCOD9569919
_publ_section_title
;
Structure prediction by ZEFSAII (Michael W. Deem and Ramdas Pophale) SiO2 
 PCOD9569919
Probable space group: P 42/M N M
;
_chemical_formula_sum "Si O2"
_cell_formula_units_Z 96
_cell_length_a 24.000000
_cell_length_b 24.000000
_cell_length_c 9.000000
_cell_angle_alpha 90.000000
_cell_angle_beta 90.000000
_cell_angle_gamma 90.000000
_cell_volume 5184.000000
_symmetry_space_group_name_H-M "P 42/M N M"
_symmetry_group_IT_number 136
_symmetry_cell_setting 'tetragonal'
loop_
_space_group_symop_operation_xyz
x,y,z
1/2-y,1/2+x,1/2+z
-x,-y,z
1/2+y,1/2-x,1/2+z
1/2+x,1/2-y,1/2-z
1/2-x,1/2+y,1/2-z
y,x,-z
-y,-x,-z
-x,-y,-z
1/2+y,1/2-x,1/2-z
x,y,-z
1/2-y,1/2+x,1/2-z
1/2-x,1/2+y,1/2+z
1/2+x,1/2-y,1/2+z
-y,-x,z
y,x,z
loop_
_atom_site_type_symbol
_atom_site_label
_atom_site_fract_x
_atom_site_fract_y
_atom_site_fract_z
Si Si1 0.204116 0.380179 0.324275
Si Si2 0.630701 0.201257 0.324955
Si Si3 0.182886 0.817115 0.172882
Si Si4 0.797830 0.797830 0.327953
Si Si5 0.512969 0.353019 0.827257
Si Si6 0.588502 0.588502 0.674915
Si Si7 0.258988 0.004895 0.174775
Si Si8 0.123469 0.123469 0.169056
O O1 0.198751 0.367815 0.500000
O O2 0.151355 0.357312 0.236545
O O3 0.260217 0.346638 0.269462
O O4 0.208512 0.446818 0.311612
O O5 0.639155 0.206207 0.500000
O O6 0.673038 0.244722 0.246768
O O7 0.565324 0.213399 0.297705
O O8 0.135805 0.864196 0.176622
O O9 0.194792 0.805209 0.000000
O O10 0.787647 0.787647 0.500000
O O11 0.844014 0.844014 0.296402
O O12 0.462669 0.389266 0.768737
O O13 0.499126 0.289128 0.796335
O O14 0.560554 0.364571 0.706799
O O15 0.527085 0.363277 0.000000
O O16 0.576480 0.576480 0.500000
O O17 0.239123 0.005915 0.000000
O O18 0.138873 0.138873 0.000000
#
# Coordination Sequence:
#
# PCOD9569919 Si02
#       8
#    16  16   8   8  16   8  16   8
#     4  10  20  37  60  88 118 155 197 241 291 351
#     4  11  23  38  59  90 123 156 194 242 295 356
#     4   9  17  32  58  85 110 149 196 235 283 351
#     4  12  23  37  59  90 122 156 195 243 292 347
#     4  12  24  38  58  87 117 150 199 254 296 342
#     4  11  21  39  61  81 113 158 200 240 294 354
#     4  10  21  39  62  84 116 160 197 234 296 366
#     4  12  24  40  60  82 113 159 205 244 292 350
#
# _framework density 18.518519000000001
#
# number of rings (size 3 to 8) (size 9 to 14) (size 15 to 20)
#    0.000    1.167    3.333    4.250    0.000    2.333 
#    0.000    1.667    0.000    0.500    0.000    3.500 
#    0.000    0.000    0.000    0.000    0.000    0.000 
#
# Total GULP energy -534938.210525 kJ/mol
# GULP energy per Si atom -5572.273026 kJ/mol
# Density = 1.847637 g / cm^3
# Si number density = 18.518519 Si / 1000 Ang^3
#
#
#
# Elastic Constant Matrix: (Units=GPa)
#
#
# Indices 1 2 3 4 5 6 
#
# 1 -30.3561 -30.0044 -58.8580 0.0000 0.0000 0.0000
# 2 -30.0044 -30.3639 -58.8622 0.0000 0.0000 0.0000
# 3 -58.8580 -58.8622 -23.6854 0.0000 0.0000 0.0000
# 4 0.0000 0.0000 0.0000 26.1498 0.0000 0.0000
# 5 0.0000 0.0000 0.0000 0.0000 26.1498 0.0000
# 6 0.0000 0.0000 0.0000 0.0000 0.0000 25.0585
#
#
#
# Elastic Compliance Matrix: (Units=1/GPa)
#
#
# Indices 1 2 3 4 5 6 
#
# 1 -1.404030 1.408257 -0.010755 0.000000 0.000000 0.000000
# 2 1.408257 -1.403869 -0.010651 0.000000 0.000000 0.000000
# 3 -0.010755 -0.010651 0.010977 0.000000 0.000000 0.000000
# 4 0.000000 0.000000 0.000000 0.038241 0.000000 0.000000
# 5 0.000000 0.000000 0.000000 0.000000 0.038241 0.000000
# 6 0.000000 0.000000 0.000000 0.000000 0.000000 0.039907
#
#
# Mechanical properties :
#
#
# Convention : Reuss Voigt Hill
#
# Bulk Modulus (GPa) = -43.06219 -42.20608 -42.63413
# Shear Modulus (GPa) = -0.91542 19.69291 9.38874
#
# Velocity S-wave (km/s) = -0.70385 3.26455 2.25409
# Velocity P-wave (km/s) = 4.89537 2.93787 4.03706
#
# Compressibility (1/GPa) = -0.02322223
#
# Stress axis : x y z
#
# Youngs Moduli (GPa) = -0.71224 -0.71232 91.10102
#
# Poissons Ratio (x) = 1.00313 0.97980
# Poissons Ratio (y) = 1.00301 0.97036
# Poissons Ratio (z) = -0.00766 -0.00759
#
# Static dielectric constant tensor:
#      x y z
#    x 1.728560 0.000000 0.000000 
#    y 0.000000 1.728560 0.000000 
#    z 0.000000 0.000000 1.617520 
# 
# From -- ./inp_files/2110.got.cif
#   From: 2010.05.17/outbox.ucp.g08.bks.cvg/sg136_2_cif.got.tgz:2110.got - 2010.06.11 11:40:42.
