data_PCOD9569986
_publ_section_title
;
Structure prediction by ZEFSAII (Michael W. Deem and Ramdas Pophale) SiO2 
 PCOD9569986
Probable space group: P 42/N M C
;
_chemical_formula_sum "Si O2"
_cell_formula_units_Z 60
_cell_length_a 13.975913
_cell_length_b 13.975913
_cell_length_c 15.923364
_cell_angle_alpha 90.000000
_cell_angle_beta 90.000000
_cell_angle_gamma 90.000000
_cell_volume 3110.249293
_symmetry_space_group_name_H-M "P 42/N M C"
_symmetry_group_IT_number 137
_space_group.IT_coordinate_system_code '2'
_symmetry_cell_setting 'tetragonal'
loop_
_space_group_symop_operation_xyz
x,y,z
1/2-y,x,1/2+z
1/2-x,1/2-y,z
y,1/2-x,1/2+z
1/2+x,-y,-z
-x,1/2+y,-z
1/2+y,1/2+x,1/2-z
-y,-x,1/2-z
-x,-y,-z
1/2+y,-x,1/2-z
1/2+x,1/2+y,-z
-y,1/2+x,1/2-z
1/2-x,y,z
x,1/2-y,z
1/2-y,1/2-x,1/2+z
y,x,1/2+z
loop_
_atom_site_type_symbol
_atom_site_label
_atom_site_fract_x
_atom_site_fract_y
_atom_site_fract_z
Si Si1 0.960005 0.750000 0.488960
Si Si2 0.043580 0.250000 0.146034
Si Si3 0.750000 0.750000 0.429144
Si Si4 0.356279 0.044789 0.317552
Si Si5 0.569272 0.535561 0.874017
Si Si6 0.924274 0.750000 0.665738
O O1 0.844219 0.750000 0.484645
O O2 0.984750 0.653208 0.440029
O O3 0.991880 0.750000 0.584721
O O4 0.157916 0.250000 0.130342
O O5 0.020459 0.358635 0.112867
O O6 0.021546 0.250000 0.244962
O O7 0.250000 0.005482 0.334014
O O8 0.381484 0.037682 0.218515
O O9 0.360720 0.156111 0.337156
O O10 0.444089 0.999387 0.368982
#
# Coordination Sequence:
#
# PCOD9569986 Si02
#       6
#     8   8   4  16  16   8
#     4  10  18  31  48  76 104 136 167 210 262 317
#     4   8  16  31  49  75  98 134 172 219 255 302
#     4   8  16  26  48  70  98 126 166 212 256 296
#     4  10  19  33  53  79 104 138 175 222 259 313
#     4   9  18  33  54  75 106 138 176 212 260 312
#     4  10  21  28  52  76 106 132 171 223 274 300
#
# _framework density 19.291060000000002
#
# number of rings (size 3 to 8) (size 9 to 14) (size 15 to 20)
#    0.000    2.667    1.333    0.400    7.467    1.067 
#    0.000    0.667    0.000    0.800    3.467    5.600 
#    0.000    0.000    0.000    0.000    0.000    0.000 
#
# Total GULP energy -334056.109640 kJ/mol
# GULP energy per Si atom -5567.601827 kJ/mol
# Density = 1.924715 g / cm^3
# Si number density = 19.291060 Si / 1000 Ang^3
#
#
#
# Elastic Constant Matrix: (Units=GPa)
#
#
# Indices 1 2 3 4 5 6 
#
# 1 95.3638 50.0835 4.4026 0.0000 0.0000 0.0000
# 2 50.0835 95.3638 4.4026 0.0000 0.0000 0.0000
# 3 4.4026 4.4026 60.3911 0.0000 0.0000 0.0000
# 4 0.0000 0.0000 0.0000 6.8854 0.0000 0.0000
# 5 0.0000 0.0000 0.0000 0.0000 6.8854 0.0000
# 6 0.0000 0.0000 0.0000 0.0000 0.0000 100.7207
#
#
#
# Elastic Compliance Matrix: (Units=1/GPa)
#
#
# Indices 1 2 3 4 5 6 
#
# 1 0.014495 -0.007589 -0.000503 0.000000 0.000000 0.000000
# 2 -0.007589 0.014495 -0.000503 0.000000 0.000000 0.000000
# 3 -0.000503 -0.000503 0.016632 0.000000 0.000000 0.000000
# 4 0.000000 0.000000 0.000000 0.145234 0.000000 0.000000
# 5 0.000000 0.000000 0.000000 0.000000 0.145234 0.000000
# 6 0.000000 0.000000 0.000000 0.000000 0.000000 0.009928
#
#
# Mechanical properties :
#
#
# Convention : Reuss Voigt Hill
#
# Bulk Modulus (GPa) = 35.17413 40.98847 38.08130
# Shear Modulus (GPa) = 13.41602 35.71365 24.56484
#
# Velocity S-wave (km/s) = 2.64001 4.30735 3.57232
# Velocity P-wave (km/s) = 5.25031 6.78463 6.06618
#
# Compressibility (1/GPa) = 0.02842998
#
# Stress axis : x y z
#
# Youngs Moduli (GPa) = 68.98827 68.98827 60.12458
#
# Poissons Ratio (x) = 0.52358 0.03027
# Poissons Ratio (y) = 0.52358 0.03027
# Poissons Ratio (z) = 0.03473 0.03473
#
# Static dielectric constant tensor:
#      x y z
#    x 1.696820 0.000000 0.000000 
#    y 0.000000 1.696820 0.000000 
#    z 0.000000 0.000000 1.741030 
# 
# From -- ./inp_files/4793.got.cif
#   From: 2010.05.17/outbox.cif.g08.bks.cpg/sg137_3_cif.got.tgz:4793.got - 2010.05.20 13:01:12.
