data_PCOD9569543
_publ_section_title
;
Structure prediction by ZEFSAII (Michael W. Deem and Ramdas Pophale) SiO2 
 PCOD9569543
Probable space group: P 42/M N M
;
_chemical_formula_sum "Si O2"
_cell_formula_units_Z 72
_cell_length_a 14.041410
_cell_length_b 14.041410
_cell_length_c 19.193343
_cell_angle_alpha 90.000000
_cell_angle_beta 90.000000
_cell_angle_gamma 90.000000
_cell_volume 3784.182438
_symmetry_space_group_name_H-M "P 42/M N M"
_symmetry_group_IT_number 136
_symmetry_cell_setting 'tetragonal'
loop_
_space_group_symop_operation_xyz
x,y,z
1/2-y,1/2+x,1/2+z
-x,-y,z
1/2+y,1/2-x,1/2+z
1/2+x,1/2-y,1/2-z
1/2-x,1/2+y,1/2-z
y,x,-z
-y,-x,-z
-x,-y,-z
1/2+y,1/2-x,1/2-z
x,y,-z
1/2-y,1/2+x,1/2-z
1/2-x,1/2+y,1/2+z
1/2+x,1/2-y,1/2+z
-y,-x,z
y,x,z
loop_
_atom_site_type_symbol
_atom_site_label
_atom_site_fract_x
_atom_site_fract_y
_atom_site_fract_z
Si Si1 0.891977 0.458041 0.416718
Si Si2 0.362203 0.210052 0.645435
Si Si3 0.002735 0.153945 0.500000
Si Si4 0.055826 0.209332 0.361243
Si Si5 0.783587 0.623721 0.192316
O O1 0.880467 0.437402 0.500000
O O2 0.816871 0.539100 0.391244
O O3 0.878624 0.368970 0.363886
O O4 0.000000 0.500000 0.407725
O O5 0.315066 0.315066 0.636548
O O6 0.285371 0.134624 0.618035
O O7 0.359518 0.185660 0.727929
O O8 0.932219 0.067782 0.500000
O O9 0.989175 0.206487 0.428896
O O10 0.109529 0.109529 0.500000
O O11 0.110055 0.110055 0.347997
O O12 0.982001 0.237995 0.302905
O O13 0.703989 0.703989 0.175641
#
# Coordination Sequence:
#
# PCOD9569543 Si02
#       5
#    16  16   8  16  16
#     4  11  24  39  60  91 121 160 204 242 301 370
#     4  10  22  39  61  87 116 159 209 252 301 358
#     4   9  18  30  48  79 114 148 178 215 290 375
#     4  10  20  35  57  84 119 154 187 238 305 370
#     4  11  23  38  60  89 121 160 205 252 307 364
#
# _framework density 19.026565999999999
#
# number of rings (size 3 to 8) (size 9 to 14) (size 15 to 20)
#    0.000    1.667    2.222    2.000    3.111    2.222 
#    0.000    0.000    0.000    2.000    0.000    1.556 
#    0.000    0.000    0.000    0.000    0.000    0.000 
#
# Total GULP energy -400888.823896 kJ/mol
# GULP energy per Si atom -5567.900332 kJ/mol
# Density = 1.898326 g / cm^3
# Si number density = 19.026566 Si / 1000 Ang^3
#
#
#
# Elastic Constant Matrix: (Units=GPa)
#
#
# Indices 1 2 3 4 5 6 
#
# 1 82.3498 34.4609 24.5844 0.0000 0.0000 0.0000
# 2 34.4609 82.3504 24.5843 0.0000 0.0000 0.0000
# 3 24.5844 24.5843 39.4954 0.0000 0.0000 0.0000
# 4 0.0000 0.0000 0.0000 28.6393 0.0000 0.0000
# 5 0.0000 0.0000 0.0000 0.0000 28.6397 0.0000
# 6 0.0000 0.0000 0.0000 0.0000 0.0000 33.5202
#
#
#
# Elastic Compliance Matrix: (Units=1/GPa)
#
#
# Indices 1 2 3 4 5 6 
#
# 1 0.016241 -0.004641 -0.007221 0.000000 0.000000 0.000000
# 2 -0.004641 0.016241 -0.007221 0.000000 0.000000 0.000000
# 3 -0.007221 -0.007221 0.034309 0.000000 0.000000 0.000000
# 4 0.000000 0.000000 0.000000 0.034917 0.000000 0.000000
# 5 0.000000 0.000000 0.000000 0.000000 0.034917 0.000000
# 6 0.000000 0.000000 0.000000 0.000000 0.000000 0.029833
#
#
# Mechanical properties :
#
#
# Convention : Reuss Voigt Hill
#
# Bulk Modulus (GPa) = 34.93291 41.27275 38.10283
# Shear Modulus (GPa) = 23.34671 26.19756 24.77214
#
# Velocity S-wave (km/s) = 3.50674 3.71468 3.61221
# Velocity P-wave (km/s) = 5.89883 6.33543 6.12103
#
# Compressibility (1/GPa) = 0.02862630
#
# Stress axis : x y z
#
# Youngs Moduli (GPa) = 61.57280 61.57335 29.14720
#
# Poissons Ratio (x) = 0.28574 0.21046
# Poissons Ratio (y) = 0.28574 0.21046
# Poissons Ratio (z) = 0.44460 0.44460
#
# Static dielectric constant tensor:
#      x y z
#    x 1.717760 0.000000 0.000000 
#    y 0.000000 1.717760 0.000000 
#    z 0.000000 0.000000 1.633800 
# 
# From -- ./inp_files/6082.got.cif
#   From: 2010.05.17/outbox.cif.g08.bks.cpg/sg136_4_cif.got.tgz:6082.got - 2010.05.20 12:54:53.
