data_PCOD9569637
_publ_section_title
;
Structure prediction by ZEFSAII (Michael W. Deem and Ramdas Pophale) SiO2 
 PCOD9569637
Probable space group: P 42/M N M
;
_chemical_formula_sum "Si O2"
_cell_formula_units_Z 96
_cell_length_a 23.614598
_cell_length_b 23.614598
_cell_length_c 7.367833
_cell_angle_alpha 90.000000
_cell_angle_beta 90.000000
_cell_angle_gamma 90.000000
_cell_volume 4108.666463
_symmetry_space_group_name_H-M "P 42/M N M"
_symmetry_group_IT_number 136
_symmetry_cell_setting 'tetragonal'
loop_
_space_group_symop_operation_xyz
x,y,z
1/2-y,1/2+x,1/2+z
-x,-y,z
1/2+y,1/2-x,1/2+z
1/2+x,1/2-y,1/2-z
1/2-x,1/2+y,1/2-z
y,x,-z
-y,-x,-z
-x,-y,-z
1/2+y,1/2-x,1/2-z
x,y,-z
1/2-y,1/2+x,1/2-z
1/2-x,1/2+y,1/2+z
1/2+x,1/2-y,1/2+z
-y,-x,z
y,x,z
loop_
_atom_site_type_symbol
_atom_site_label
_atom_site_fract_x
_atom_site_fract_y
_atom_site_fract_z
Si Si1 0.974382 0.884793 0.222013
Si Si2 0.389450 0.707272 0.704603
Si Si3 0.828114 0.086304 0.778438
Si Si4 0.923723 0.295972 0.207617
Si Si5 0.300688 0.792103 0.278717
Si Si6 0.415448 0.963781 0.791693
O O1 0.941071 0.941071 0.280272
O O2 0.939256 0.829737 0.286593
O O3 0.038448 0.873435 0.271166
O O4 0.971701 0.884831 0.000000
O O5 0.407766 0.722684 0.500000
O O6 0.338239 0.661762 0.691007
O O7 0.358528 0.761418 0.784765
O O8 0.853061 0.146939 0.719540
O O9 0.766470 0.067736 0.711195
O O10 0.824637 0.088159 0.000000
O O11 0.855639 0.299829 0.210584
O O12 0.949673 0.353631 0.287802
O O13 0.945112 0.293317 0.000000
O O14 0.301334 0.792614 0.500000
O O15 0.247186 0.752815 0.224381
O O16 0.469664 0.931105 0.711513
O O17 0.413548 0.944790 0.000000
#
# Coordination Sequence:
#
# PCOD9569637 Si02
#       6
#    16  16  16  16  16  16
#     4   8  13  22  38  61  89 121 158 200 243 284
#     4   7  11  21  37  59  86 113 147 197 249 289
#     4   9  17  28  41  60  92 132 167 199 237 284
#     4  10  21  34  49  72 101 135 170 201 248 313
#     4   9  17  29  47  71  98 133 178 221 259 300
#     4  10  21  38  59  81 104 131 165 206 256 315
#
# _framework density 23.365244000000001
#
# number of rings (size 3 to 8) (size 9 to 14) (size 15 to 20)
#    0.000    3.167    0.000    3.500    0.000    4.000 
#    0.000    5.000    0.000    0.000    0.000    0.000 
#    0.000    0.667    0.000    3.500    0.000    3.333 
#
# Total GULP energy -535221.760064 kJ/mol
# GULP energy per Si atom -5575.226667 kJ/mol
# Density = 2.331206 g / cm^3
# Si number density = 23.365244 Si / 1000 Ang^3
#
#
#
# Elastic Constant Matrix: (Units=GPa)
#
#
# Indices 1 2 3 4 5 6 
#
# 1 134.4860 76.5274 -3.1075 0.0000 0.0000 0.0000
# 2 76.5274 134.4860 -3.1075 0.0000 0.0000 0.0000
# 3 -3.1075 -3.1075 84.0603 0.0000 0.0000 0.0000
# 4 0.0000 0.0000 0.0000 -155.6763 0.0000 0.0000
# 5 0.0000 0.0000 0.0000 0.0000 -155.6763 0.0000
# 6 0.0000 0.0000 0.0000 0.0000 0.0000 36.0664
#
#
#
# Elastic Compliance Matrix: (Units=1/GPa)
#
#
# Indices 1 2 3 4 5 6 
#
# 1 0.010999 -0.006255 0.000175 0.000000 0.000000 0.000000
# 2 -0.006255 0.010999 0.000175 0.000000 0.000000 0.000000
# 3 0.000175 0.000175 0.011909 0.000000 0.000000 0.000000
# 4 0.000000 0.000000 0.000000 -0.006424 0.000000 0.000000
# 5 0.000000 0.000000 0.000000 0.000000 -0.006424 0.000000
# 6 0.000000 0.000000 0.000000 0.000000 0.000000 0.027727
#
#
# Mechanical properties :
#
#
# Convention : Reuss Voigt Hill
#
# Bulk Modulus (GPa) = 45.25068 54.85080 50.05074
# Shear Modulus (GPa) = 73.57168 -36.20927 18.68120
#
# Velocity S-wave (km/s) = 5.61747 -3.94090 2.83066
# Velocity P-wave (km/s) = 7.84113 1.67891 5.67019
#
# Compressibility (1/GPa) = 0.02209912
#
# Stress axis : x y z
#
# Youngs Moduli (GPa) = 90.91778 90.91778 83.96876
#
# Poissons Ratio (x) = 0.56867 -0.01473
# Poissons Ratio (y) = 0.56867 -0.01473
# Poissons Ratio (z) = -0.01595 -0.01595
#
# Static dielectric constant tensor:
#      x y z
#    x 1.881920 0.000000 0.000000 
#    y 0.000000 1.881920 0.000000 
#    z 0.000000 0.000000 1.900490 
# 
# From -- ./inp_files/1995.got.cif
#   From: 2010.05.17/outbox.cif.g08.bks.cpg/sg136_1_cif.got.tgz:1995.got - 2010.05.20 12:54:53.
