data_PCOD9569738
_publ_section_title
;
Structure prediction by ZEFSAII (Michael W. Deem and Ramdas Pophale) SiO2 
 PCOD9569738
Probable space group: P 42/M N M
;
_chemical_formula_sum "Si O2"
_cell_formula_units_Z 84
_cell_length_a 12.283642
_cell_length_b 12.283642
_cell_length_c 28.671827
_cell_angle_alpha 90.000000
_cell_angle_beta 90.000000
_cell_angle_gamma 90.000000
_cell_volume 4326.230641
_symmetry_space_group_name_H-M "P 42/M N M"
_symmetry_group_IT_number 136
_symmetry_cell_setting 'tetragonal'
loop_
_space_group_symop_operation_xyz
x,y,z
1/2-y,1/2+x,1/2+z
-x,-y,z
1/2+y,1/2-x,1/2+z
1/2+x,1/2-y,1/2-z
1/2-x,1/2+y,1/2-z
y,x,-z
-y,-x,-z
-x,-y,-z
1/2+y,1/2-x,1/2-z
x,y,-z
1/2-y,1/2+x,1/2-z
1/2-x,1/2+y,1/2+z
1/2+x,1/2-y,1/2+z
-y,-x,z
y,x,z
loop_
_atom_site_type_symbol
_atom_site_label
_atom_site_fract_x
_atom_site_fract_y
_atom_site_fract_z
Si Si1 0.108923 0.713678 0.142673
Si Si2 0.401811 0.082986 0.445190
Si Si3 0.000000 0.000000 0.681186
Si Si4 0.885342 0.705495 0.801172
Si Si5 0.005244 0.828874 0.556559
Si Si6 0.975028 0.738581 0.303540
O O1 0.175448 0.824553 0.149854
O O2 0.093096 0.685887 0.088282
O O3 0.181894 0.616240 0.164246
O O4 0.992374 0.712916 0.167153
O O5 0.395701 0.111541 0.500000
O O6 0.293357 0.017358 0.431519
O O7 0.500000 0.000000 0.438079
O O8 0.863926 0.998210 0.683601
O O9 0.795775 0.795775 0.813845
O O10 0.830838 0.586522 0.804530
O O11 0.926050 0.729620 0.748627
O O12 0.005009 0.833936 0.500000
O O13 0.908099 0.908099 0.572756
O O14 0.116307 0.883694 0.573277
#
# Coordination Sequence:
#
# PCOD9569738 Si02
#       6
#    16  16   4  16  16  16
#     4  12  26  43  65  96 131 176 227 271 333 404
#     4  10  21  40  63  89 126 170 217 271 332 397
#     4  12  24  40  68  96 141 172 221 272 324 404
#     4  12  25  41  68  95 133 175 220 276 331 392
#     4   8  14  28  53  85 116 148 190 246 313 379
#     4  12  24  43  64  99 135 177 216 267 335 399
#
# _framework density 19.416442
#
# number of rings (size 3 to 8) (size 9 to 14) (size 15 to 20)
#    0.000    1.143    4.762    2.857    1.333    1.524 
#    1.714    0.952    0.000    1.714    0.000    1.333 
#    0.000    0.000    0.000    0.000    0.000    0.000 
#
# Total GULP energy -468554.609962 kJ/mol
# GULP energy per Si atom -5578.031071 kJ/mol
# Density = 1.937225 g / cm^3
# Si number density = 19.416442 Si / 1000 Ang^3
#
#
#
# Elastic Constant Matrix: (Units=GPa)
#
#
# Indices 1 2 3 4 5 6 
#
# 1 142.2061 46.2206 32.2237 0.0000 0.0000 0.0000
# 2 46.2206 142.2061 32.2237 0.0000 0.0000 0.0000
# 3 32.2237 32.2237 57.7752 0.0000 0.0000 0.0000
# 4 0.0000 0.0000 0.0000 -3.8417 0.0000 0.0000
# 5 0.0000 0.0000 0.0000 0.0000 -3.8417 0.0000
# 6 0.0000 0.0000 0.0000 0.0000 0.0000 29.6878
#
#
#
# Elastic Compliance Matrix: (Units=1/GPa)
#
#
# Indices 1 2 3 4 5 6 
#
# 1 0.008488 -0.001930 -0.003658 0.000000 0.000000 0.000000
# 2 -0.001930 0.008488 -0.003658 0.000000 0.000000 0.000000
# 3 -0.003658 -0.003658 0.021389 0.000000 0.000000 0.000000
# 4 0.000000 0.000000 0.000000 -0.260299 0.000000 0.000000
# 5 0.000000 0.000000 0.000000 0.000000 -0.260299 0.000000
# 6 0.000000 0.000000 0.000000 0.000000 0.000000 0.033684
#
#
# Mechanical properties :
#
#
# Convention : Reuss Voigt Hill
#
# Bulk Modulus (GPa) = 50.31724 62.61371 56.46548
# Shear Modulus (GPa) = -11.80826 19.83549 4.01361
#
# Velocity S-wave (km/s) = -2.46876 3.19969 1.43931
# Velocity P-wave (km/s) = 4.22429 6.78000 5.64859
#
# Compressibility (1/GPa) = 0.01987390
#
# Stress axis : x y z
#
# Youngs Moduli (GPa) = 117.81052 117.81052 46.75376
#
# Poissons Ratio (x) = 0.22738 0.17101
# Poissons Ratio (y) = 0.22738 0.17101
# Poissons Ratio (z) = 0.43092 0.43092
#
# Static dielectric constant tensor:
#      x y z
#    x 1.648910 0.000000 0.000000 
#    y 0.000000 1.648910 0.000000 
#    z 0.000000 0.000000 1.728030 
# 
# From -- ./inp_files/9726.got.cif
#   From: 2010.05.17/outbox.cif.g08.bks.cpg/sg136_5_cif.got.tgz:9726.got - 2010.05.20 12:54:53.
