data_PCOD9569679
_publ_section_title
;
Structure prediction by ZEFSAII (Michael W. Deem and Ramdas Pophale) SiO2 
 PCOD9569679
Probable space group: P 42/M N M
;
_chemical_formula_sum "Si O2"
_cell_formula_units_Z 80
_cell_length_a 17.286328
_cell_length_b 17.286328
_cell_length_c 14.039458
_cell_angle_alpha 90.000000
_cell_angle_beta 90.000000
_cell_angle_gamma 90.000000
_cell_volume 4195.230627
_symmetry_space_group_name_H-M "P 42/M N M"
_symmetry_group_IT_number 136
_symmetry_cell_setting 'tetragonal'
loop_
_space_group_symop_operation_xyz
x,y,z
1/2-y,1/2+x,1/2+z
-x,-y,z
1/2+y,1/2-x,1/2+z
1/2+x,1/2-y,1/2-z
1/2-x,1/2+y,1/2-z
y,x,-z
-y,-x,-z
-x,-y,-z
1/2+y,1/2-x,1/2-z
x,y,-z
1/2-y,1/2+x,1/2-z
1/2-x,1/2+y,1/2+z
1/2+x,1/2-y,1/2+z
-y,-x,z
y,x,z
loop_
_atom_site_type_symbol
_atom_site_label
_atom_site_fract_x
_atom_site_fract_y
_atom_site_fract_z
Si Si1 0.651120 0.112016 0.385840
Si Si2 0.082227 0.207392 0.614753
Si Si3 0.800663 0.071199 0.727136
Si Si4 0.302779 0.997794 0.886173
Si Si5 0.438045 0.883272 0.885628
O O1 0.667204 0.110939 0.500000
O O2 0.730157 0.114819 0.327236
O O3 0.587394 0.177338 0.367521
O O4 0.612881 0.028419 0.361182
O O5 0.075179 0.204976 0.500000
O O6 0.154100 0.154100 0.642808
O O7 0.090661 0.297592 0.642020
O O8 0.002588 0.179233 0.661471
O O9 0.871253 0.128748 0.741160
O O10 0.766793 0.036179 0.824826
O O11 0.378710 0.948821 0.855526
O O12 0.291790 0.988563 0.000000
O O13 0.436824 0.887108 0.000000
#
# Coordination Sequence:
#
# PCOD9569679 Si02
#       5
#    16  16  16  16  16
#     4   9  19  36  57  82 113 148 186 234 291 350
#     4   9  19  37  61  87 115 146 183 236 302 359
#     4  11  24  37  55  86 116 150 198 250 291 336
#     4  10  21  37  55  80 117 158 192 225 281 351
#     4   8  15  31  55  83 112 141 178 225 277 340
#
# _framework density 19.069272999999999
#
# number of rings (size 3 to 8) (size 9 to 14) (size 15 to 20)
#    0.000    2.600    0.000    2.400    5.600    5.600 
#    0.000    3.000    0.000    1.800    0.000    1.400 
#    0.000    0.000    0.000    0.000    0.000    0.000 
#
# Total GULP energy -446509.298888 kJ/mol
# GULP energy per Si atom -5581.366236 kJ/mol
# Density = 1.902587 g / cm^3
# Si number density = 19.069273 Si / 1000 Ang^3
#
#
#
# Elastic Constant Matrix: (Units=GPa)
#
#
# Indices 1 2 3 4 5 6 
#
# 1 37.2828 26.9479 20.1504 0.0000 0.0000 0.0000
# 2 26.9479 37.2828 20.1504 0.0000 0.0000 0.0000
# 3 20.1504 20.1504 101.0322 0.0000 0.0000 0.0000
# 4 0.0000 0.0000 0.0000 24.2788 0.0000 0.0000
# 5 0.0000 0.0000 0.0000 0.0000 24.2788 0.0000
# 6 0.0000 0.0000 0.0000 0.0000 0.0000 12.7341
#
#
#
# Elastic Compliance Matrix: (Units=1/GPa)
#
#
# Indices 1 2 3 4 5 6 
#
# 1 0.057278 -0.039482 -0.003549 0.000000 0.000000 0.000000
# 2 -0.039482 0.057278 -0.003549 0.000000 0.000000 0.000000
# 3 -0.003549 -0.003549 0.011314 0.000000 0.000000 0.000000
# 4 0.000000 0.000000 0.000000 0.041188 0.000000 0.000000
# 5 0.000000 0.000000 0.000000 0.000000 0.041188 0.000000
# 6 0.000000 0.000000 0.000000 0.000000 0.000000 0.078529
#
#
# Mechanical properties :
#
#
# Convention : Reuss Voigt Hill
#
# Bulk Modulus (GPa) = 30.57343 34.45501 32.51422
# Shear Modulus (GPa) = 12.79302 19.48159 16.13731
#
# Velocity S-wave (km/s) = 2.59293 3.19975 2.91219
# Velocity P-wave (km/s) = 5.00320 5.63549 5.32873
#
# Compressibility (1/GPa) = 0.03270813
#
# Stress axis : x y z
#
# Youngs Moduli (GPa) = 17.45884 17.45884 88.38903
#
# Poissons Ratio (x) = 0.68930 0.31372
# Poissons Ratio (y) = 0.68930 0.31372
# Poissons Ratio (z) = 0.06197 0.06197
#
# Static dielectric constant tensor:
#      x y z
#    x 1.646560 0.000000 0.000000 
#    y 0.000000 1.646560 0.000000 
#    z 0.000000 0.000000 1.711490 
# 
# From -- ./inp_files/4905.got.cif
#   From: 2010.05.17/outbox.cif.g08.bks.cpg/sg136_3_cif.got.tgz:4905.got - 2010.05.20 12:54:53.
