data_PCOD9569448
_publ_section_title
;
Structure prediction by ZEFSAII (Michael W. Deem and Ramdas Pophale) SiO2 
 PCOD9569448
Probable space group: P 42/M N M
;
_chemical_formula_sum "Si O2"
_cell_formula_units_Z 96
_cell_length_a 23.495115
_cell_length_b 23.495115
_cell_length_c 7.866590
_cell_angle_alpha 90.000000
_cell_angle_beta 90.000000
_cell_angle_gamma 90.000000
_cell_volume 4342.518385
_symmetry_space_group_name_H-M "P 42/M N M"
_symmetry_group_IT_number 136
_symmetry_cell_setting 'tetragonal'
loop_
_space_group_symop_operation_xyz
x,y,z
1/2-y,1/2+x,1/2+z
-x,-y,z
1/2+y,1/2-x,1/2+z
1/2+x,1/2-y,1/2-z
1/2-x,1/2+y,1/2-z
y,x,-z
-y,-x,-z
-x,-y,-z
1/2+y,1/2-x,1/2-z
x,y,-z
1/2-y,1/2+x,1/2-z
1/2-x,1/2+y,1/2+z
1/2+x,1/2-y,1/2+z
-y,-x,z
y,x,z
loop_
_atom_site_type_symbol
_atom_site_label
_atom_site_fract_x
_atom_site_fract_y
_atom_site_fract_z
Si Si1 0.978277 0.888777 0.302480
Si Si2 0.393827 0.703179 0.692118
Si Si3 0.827213 0.086278 0.709039
Si Si4 0.918443 0.298595 0.300706
Si Si5 0.303583 0.789498 0.200039
Si Si6 0.588816 0.020694 0.699823
O O1 0.986993 0.903259 0.500000
O O2 0.939302 0.939302 0.226656
O O3 0.942340 0.830197 0.292088
O O4 0.038871 0.871809 0.230105
O O5 0.412738 0.715406 0.500000
O O6 0.343313 0.656688 0.684304
O O7 0.363560 0.757293 0.773188
O O8 0.825804 0.084598 0.500000
O O9 0.851961 0.148039 0.756119
O O10 0.764357 0.071932 0.772609
O O11 0.933263 0.296164 0.500000
O O12 0.850534 0.306362 0.286490
O O13 0.953057 0.352419 0.229843
O O14 0.252928 0.747073 0.262890
O O15 0.294576 0.797909 0.000000
O O16 0.595558 0.009037 0.500000
O O17 0.433585 0.037732 0.781042
#
# Coordination Sequence:
#
# PCOD9569448 Si02
#       6
#    16  16  16  16  16  16
#     4   9  17  30  50  77 107 139 181 232 278 317
#     4   9  17  30  49  73 102 137 176 218 266 320
#     4   9  18  33  53  77 107 144 184 226 271 319
#     4  10  21  36  55  79 106 140 181 220 265 325
#     4  10  20  33  51  77 109 144 182 226 276 325
#     4  10  21  38  60  85 112 143 179 221 272 328
#
# _framework density 22.106988000000001
#
# number of rings (size 3 to 8) (size 9 to 14) (size 15 to 20)
#    0.000    2.500    0.000    2.500    0.000    6.667 
#    0.000    4.167    0.000    1.500    0.000    2.333 
#    0.000    0.000    0.000    0.000    0.000    0.000 
#
# Total GULP energy -535480.884986 kJ/mol
# GULP energy per Si atom -5577.925885 kJ/mol
# Density = 2.205667 g / cm^3
# Si number density = 22.106988 Si / 1000 Ang^3
#
#
#
# Elastic Constant Matrix: (Units=GPa)
#
#
# Indices 1 2 3 4 5 6 
#
# 1 76.7215 85.7744 -7.1430 0.0000 0.0000 0.0000
# 2 85.7744 76.7215 -7.1430 0.0000 0.0000 0.0000
# 3 -7.1430 -7.1430 34.5471 0.0000 0.0000 0.0000
# 4 0.0000 0.0000 0.0000 5.7619 0.0000 0.0000
# 5 0.0000 0.0000 0.0000 0.0000 5.7619 0.0000
# 6 0.0000 0.0000 0.0000 0.0000 0.0000 32.5484
#
#
#
# Elastic Compliance Matrix: (Units=1/GPa)
#
#
# Indices 1 2 3 4 5 6 
#
# 1 -0.052097 0.058365 0.001296 0.000000 0.000000 0.000000
# 2 0.058365 -0.052097 0.001296 0.000000 0.000000 0.000000
# 3 0.001296 0.001296 0.029482 0.000000 0.000000 0.000000
# 4 0.000000 0.000000 0.000000 0.173553 0.000000 0.000000
# 5 0.000000 0.000000 0.000000 0.000000 0.173553 0.000000
# 6 0.000000 0.000000 0.000000 0.000000 0.000000 0.030724
#
#
# Mechanical properties :
#
#
# Convention : Reuss Voigt Hill
#
# Bulk Modulus (GPa) = 21.18573 36.77411 28.97992
# Shear Modulus (GPa) = 25.38901 16.58124 20.98512
#
# Velocity S-wave (km/s) = 3.39257 2.74167 3.08434
# Velocity P-wave (km/s) = 4.99501 5.16653 5.08149
#
# Compressibility (1/GPa) = 0.04720159
#
# Stress axis : x y z
#
# Youngs Moduli (GPa) = -19.19485 -19.19485 33.91916
#
# Poissons Ratio (x) = 1.12031 -0.04396
# Poissons Ratio (y) = 1.12031 -0.04396
# Poissons Ratio (z) = 0.02488 0.02488
#
# Static dielectric constant tensor:
#      x y z
#    x 1.828270 0.000000 0.000000 
#    y 0.000000 1.828270 0.000000 
#    z 0.000000 0.000000 1.804040 
# 
# From -- ./inp_files/1927.got.cif
#   From: 2010.05.17/outbox.cif.g08.bks.cpg/sg136_1_cif.got.tgz:1927.got - 2010.05.20 12:54:53.
