data_PCOD9569542
_publ_section_title
;
Structure prediction by ZEFSAII (Michael W. Deem and Ramdas Pophale) SiO2 
 PCOD9569542
Probable space group: P 42/M N M
;
_chemical_formula_sum "Si O2"
_cell_formula_units_Z 80
_cell_length_a 11.475859
_cell_length_b 11.475859
_cell_length_c 29.093277
_cell_angle_alpha 90.000000
_cell_angle_beta 90.000000
_cell_angle_gamma 90.000000
_cell_volume 3831.449000
_symmetry_space_group_name_H-M "P 42/M N M"
_symmetry_group_IT_number 136
_symmetry_cell_setting 'tetragonal'
loop_
_space_group_symop_operation_xyz
x,y,z
1/2-y,1/2+x,1/2+z
-x,-y,z
1/2+y,1/2-x,1/2+z
1/2+x,1/2-y,1/2-z
1/2-x,1/2+y,1/2-z
y,x,-z
-y,-x,-z
-x,-y,-z
1/2+y,1/2-x,1/2-z
x,y,-z
1/2-y,1/2+x,1/2-z
1/2-x,1/2+y,1/2+z
1/2+x,1/2-y,1/2+z
-y,-x,z
y,x,z
loop_
_atom_site_type_symbol
_atom_site_label
_atom_site_fract_x
_atom_site_fract_y
_atom_site_fract_z
Si Si1 0.393618 0.095051 0.947148
Si Si2 0.428861 0.246668 0.613789
Si Si3 0.072300 0.264639 0.201641
Si Si4 0.770289 0.948857 0.398005
Si Si5 0.453728 0.260261 0.202114
O O1 0.445631 0.213967 0.926330
O O2 0.500000 0.000000 0.946067
O O3 0.291995 0.040175 0.915974
O O4 0.358567 0.108661 0.000000
O O5 0.370225 0.370225 0.602517
O O6 0.464435 0.242493 0.667183
O O7 0.330348 0.149548 0.604637
O O8 0.162084 0.162084 0.189224
O O9 0.138603 0.386385 0.195007
O O10 0.037830 0.251282 0.254630
O O11 0.885133 0.885133 0.417029
O O12 0.792627 0.987804 0.345821
O O13 0.356918 0.356918 0.213746
#
# Coordination Sequence:
#
# PCOD9569542 Si02
#       5
#    16  16  16  16  16
#     4   9  18  34  57  85 117 151 191 245 303 354
#     4  10  20  35  57  84 114 150 193 240 296 360
#     4  11  23  37  55  81 113 151 193 236 290 354
#     4  10  20  35  57  84 114 150 193 240 296 360
#     4  11  23  37  55  81 113 151 193 236 290 354
#
# _framework density 20.879828
#
# number of rings (size 3 to 8) (size 9 to 14) (size 15 to 20)
#    0.000    1.800    2.000    2.400    0.000    8.800 
#    0.000    4.000    0.000    2.400    0.000    2.800 
#    0.000    0.000    0.000    0.000    0.000    0.000 
#
# Total GULP energy -447026.831709 kJ/mol
# GULP energy per Si atom -5587.835396 kJ/mol
# Density = 2.083231 g / cm^3
# Si number density = 20.879828 Si / 1000 Ang^3
#
#
#
# Elastic Constant Matrix: (Units=GPa)
#
#
# Indices 1 2 3 4 5 6 
#
# 1 53.3701 39.8404 14.3134 0.0000 0.0000 0.0000
# 2 39.8404 53.3701 14.3134 0.0000 0.0000 0.0000
# 3 14.3134 14.3134 86.2894 0.0000 0.0000 0.0000
# 4 0.0000 0.0000 0.0000 -6.1995 0.0000 0.0000
# 5 0.0000 0.0000 0.0000 0.0000 -6.1995 0.0000
# 6 0.0000 0.0000 0.0000 0.0000 0.0000 29.6479
#
#
#
# Elastic Compliance Matrix: (Units=1/GPa)
#
#
# Indices 1 2 3 4 5 6 
#
# 1 0.042608 -0.031304 -0.001875 0.000000 0.000000 0.000000
# 2 -0.031304 0.042608 -0.001875 0.000000 0.000000 0.000000
# 3 -0.001875 -0.001875 0.012211 0.000000 0.000000 0.000000
# 4 0.000000 0.000000 0.000000 -0.161303 0.000000 0.000000
# 5 0.000000 0.000000 0.000000 0.000000 -0.161303 0.000000
# 6 0.000000 0.000000 0.000000 0.000000 0.000000 0.033729
#
#
# Mechanical properties :
#
#
# Convention : Reuss Voigt Hill
#
# Bulk Modulus (GPa) = 36.60443 36.66266 36.63354
# Shear Modulus (GPa) = -44.54897 11.75393 -16.39752
#
# Velocity S-wave (km/s) = -4.62409 2.37519 -2.80541
# Velocity P-wave (km/s) = 3.30765 5.01189 2.66257
#
# Compressibility (1/GPa) = 0.02731910
#
# Stress axis : x y z
#
# Youngs Moduli (GPa) = 23.46984 23.46984 81.89352
#
# Poissons Ratio (x) = 0.73469 0.15356
# Poissons Ratio (y) = 0.73469 0.15356
# Poissons Ratio (z) = 0.04401 0.04401
#
# Static dielectric constant tensor:
#      x y z
#    x 1.763320 0.000000 0.000000 
#    y 0.000000 1.763320 0.000000 
#    z 0.000000 0.000000 1.696630 
# 
# From -- ./inp_files/9538.got.cif
#   From: 2010.05.17/outbox.cif.g08.bks.cpg/sg136_5_cif.got.tgz:9538.got - 2010.05.20 12:54:53.
