data_PCOD9569450
_publ_section_title
;
Structure prediction by ZEFSAII (Michael W. Deem and Ramdas Pophale) SiO2 
 PCOD9569450
Probable space group: P 42/M N M
;
_chemical_formula_sum "Si O2"
_cell_formula_units_Z 72
_cell_length_a 21.767934
_cell_length_b 21.767934
_cell_length_c 9.003052
_cell_angle_alpha 90.000000
_cell_angle_beta 90.000000
_cell_angle_gamma 90.000000
_cell_volume 4266.032724
_symmetry_space_group_name_H-M "P 42/M N M"
_symmetry_group_IT_number 136
_symmetry_cell_setting 'tetragonal'
loop_
_space_group_symop_operation_xyz
x,y,z
1/2-y,1/2+x,1/2+z
-x,-y,z
1/2+y,1/2-x,1/2+z
1/2+x,1/2-y,1/2-z
1/2-x,1/2+y,1/2-z
y,x,-z
-y,-x,-z
-x,-y,-z
1/2+y,1/2-x,1/2-z
x,y,-z
1/2-y,1/2+x,1/2-z
1/2-x,1/2+y,1/2+z
1/2+x,1/2-y,1/2+z
-y,-x,z
y,x,z
loop_
_atom_site_type_symbol
_atom_site_label
_atom_site_fract_x
_atom_site_fract_y
_atom_site_fract_z
Si Si1 0.551306 0.551306 0.821685
Si Si2 0.462573 0.316200 0.675477
Si Si3 0.492476 0.815319 0.320548
Si Si4 0.239733 0.338702 0.668022
Si Si5 0.386847 0.129445 0.825257
O O1 0.500000 0.500000 0.781056
O O2 0.533493 0.618978 0.759025
O O3 0.554434 0.554434 0.000000
O O4 0.473802 0.327082 0.500000
O O5 0.502966 0.256790 0.725567
O O6 0.393675 0.288681 0.689887
O O7 0.495477 0.814583 0.500000
O O8 0.431571 0.851607 0.274728
O O9 0.550610 0.852702 0.258508
O O10 0.214669 0.347360 0.500000
O O11 0.275647 0.275647 0.674820
O O12 0.187037 0.343772 0.788087
O O13 0.399185 0.124270 0.000000
#
# Coordination Sequence:
#
# PCOD9569450 Si02
#       5
#     8  16  16  16  16
#     4  11  23  35  49  77 111 135 165 215 265 306
#     4   9  17  34  56  73  95 133 173 207 248 305
#     4   9  20  37  53  74 107 139 172 217 264 311
#     4   9  17  32  53  76 102 131 166 212 263 312
#     4  10  20  33  52  78 104 136 178 220 260 308
#
# _framework density 16.877507000000001
#
# number of rings (size 3 to 8) (size 9 to 14) (size 15 to 20)
#    0.000    2.556    1.111    2.333    0.000    7.111 
#    0.000    3.333    0.000    6.667    0.000    0.000 
#    0.000    0.000    0.000    0.000    0.000    0.000 
#
# Total GULP energy -400968.188086 kJ/mol
# GULP energy per Si atom -5569.002612 kJ/mol
# Density = 1.683909 g / cm^3
# Si number density = 16.877507 Si / 1000 Ang^3
#
#
#
# Elastic Constant Matrix: (Units=GPa)
#
#
# Indices 1 2 3 4 5 6 
#
# 1 95.1065 73.6989 34.6417 0.0000 0.0000 0.0000
# 2 73.6989 95.1065 34.6417 0.0000 0.0000 0.0000
# 3 34.6417 34.6417 27.0903 0.0000 0.0000 0.0000
# 4 0.0000 0.0000 0.0000 11.4297 0.0000 0.0000
# 5 0.0000 0.0000 0.0000 0.0000 11.4297 0.0000
# 6 0.0000 0.0000 0.0000 0.0000 0.0000 26.6474
#
#
#
# Elastic Compliance Matrix: (Units=1/GPa)
#
#
# Indices 1 2 3 4 5 6 
#
# 1 0.029590 -0.017123 -0.015943 0.000000 0.000000 0.000000
# 2 -0.017123 0.029590 -0.015943 0.000000 0.000000 0.000000
# 3 -0.015943 -0.015943 0.077687 0.000000 0.000000 0.000000
# 4 0.000000 0.000000 0.000000 0.087491 0.000000 0.000000
# 5 0.000000 0.000000 0.000000 0.000000 0.087491 0.000000
# 6 0.000000 0.000000 0.000000 0.000000 0.000000 0.037527
#
#
# Mechanical properties :
#
#
# Convention : Reuss Voigt Hill
#
# Bulk Modulus (GPa) = 25.73937 55.91866 40.82901
# Shear Modulus (GPa) = 10.86149 14.85610 12.85879
#
# Velocity S-wave (km/s) = 2.53958 2.97009 2.76323
# Velocity P-wave (km/s) = 4.88703 6.70566 5.86724
#
# Compressibility (1/GPa) = 0.03885099
#
# Stress axis : x y z
#
# Youngs Moduli (GPa) = 33.79533 33.79533 12.87220
#
# Poissons Ratio (x) = 0.57866 0.20522
# Poissons Ratio (y) = 0.57866 0.20522
# Poissons Ratio (z) = 0.53879 0.53879
#
# Static dielectric constant tensor:
#      x y z
#    x 1.574540 0.000000 0.000000 
#    y 0.000000 1.574540 0.000000 
#    z 0.000000 0.000000 1.577390 
# 
# From -- ./inp_files/1565.got.cif
#   From: 2010.05.17/outbox.cif.g08.bks.cpg/sg136_1_cif.got.tgz:1565.got - 2010.05.20 12:54:53.
