data_PCOD9569781
_publ_section_title
;
Structure prediction by ZEFSAII (Michael W. Deem and Ramdas Pophale) SiO2 
 PCOD9569781
Probable space group: P 42/M N M
;
_chemical_formula_sum "Si O2"
_cell_formula_units_Z 84
_cell_length_a 11.794128
_cell_length_b 11.794128
_cell_length_c 28.381701
_cell_angle_alpha 90.000000
_cell_angle_beta 90.000000
_cell_angle_gamma 90.000000
_cell_volume 3947.935912
_symmetry_space_group_name_H-M "P 42/M N M"
_symmetry_group_IT_number 136
_symmetry_cell_setting 'tetragonal'
loop_
_space_group_symop_operation_xyz
x,y,z
1/2-y,1/2+x,1/2+z
-x,-y,z
1/2+y,1/2-x,1/2+z
1/2+x,1/2-y,1/2-z
1/2-x,1/2+y,1/2-z
y,x,-z
-y,-x,-z
-x,-y,-z
1/2+y,1/2-x,1/2-z
x,y,-z
1/2-y,1/2+x,1/2-z
1/2-x,1/2+y,1/2+z
1/2+x,1/2-y,1/2+z
-y,-x,z
y,x,z
loop_
_atom_site_type_symbol
_atom_site_label
_atom_site_fract_x
_atom_site_fract_y
_atom_site_fract_z
Si Si1 0.491624 0.775881 0.306262
Si Si2 0.913313 0.602148 0.108873
Si Si3 0.006969 0.183731 0.610184
Si Si4 0.993844 0.182023 0.943423
Si Si5 0.399622 0.782182 0.205075
Si Si6 0.500000 0.500000 0.316101
O O1 0.399864 0.834317 0.340728
O O2 0.471407 0.804074 0.251555
O O3 0.609566 0.838838 0.317398
O O4 0.499206 0.641493 0.314060
O O5 0.797580 0.547895 0.088997
O O6 0.000000 0.500000 0.114541
O O7 0.971098 0.698284 0.076986
O O8 0.123783 0.123783 0.592166
O O9 0.032290 0.218901 0.664112
O O10 0.912052 0.087949 0.607934
O O11 0.875716 0.124285 0.927164
O O12 0.991288 0.186703 0.000000
O O13 0.091085 0.091085 0.929685
O O14 0.301324 0.698677 0.222309
#
# Coordination Sequence:
#
# PCOD9569781 Si02
#       6
#    16  16  16  16  16   4
#     4  12  26  39  58  91 123 168 214 268 331 374
#     4  12  25  40  64  95 128 168 212 264 327 386
#     4  10  23  41  62  86 120 170 221 270 320 378
#     4   9  21  42  70 102 134 167 204 256 322 395
#     4  11  23  39  60  82 123 164 219 274 319 378
#     4  12  28  40  60  92 125 164 224 276 329 384
#
# _framework density 21.276942999999999
#
# number of rings (size 3 to 8) (size 9 to 14) (size 15 to 20)
#    0.000    1.143    3.810    2.286    5.333    2.667 
#    0.000    0.000    0.000    0.571    0.000    2.667 
#    0.000    0.000    0.000    0.000    0.000    0.000 
#
# Total GULP energy -468067.098814 kJ/mol
# GULP energy per Si atom -5572.227367 kJ/mol
# Density = 2.122852 g / cm^3
# Si number density = 21.276943 Si / 1000 Ang^3
#
#
#
# Elastic Constant Matrix: (Units=GPa)
#
#
# Indices 1 2 3 4 5 6 
#
# 1 129.0381 76.2955 15.6266 0.0000 0.0000 0.0000
# 2 76.2955 129.0381 15.6266 0.0000 0.0000 0.0000
# 3 15.6266 15.6266 31.0881 0.0000 0.0000 0.0000
# 4 0.0000 0.0000 0.0000 15.8240 0.0000 0.0000
# 5 0.0000 0.0000 0.0000 0.0000 15.8240 0.0000
# 6 0.0000 0.0000 0.0000 0.0000 0.0000 37.7005
#
#
#
# Elastic Compliance Matrix: (Units=1/GPa)
#
#
# Indices 1 2 3 4 5 6 
#
# 1 0.012117 -0.006843 -0.002651 0.000000 0.000000 0.000000
# 2 -0.006843 0.012117 -0.002651 0.000000 0.000000 0.000000
# 3 -0.002651 -0.002651 0.034831 0.000000 0.000000 0.000000
# 4 0.000000 0.000000 0.000000 0.063195 0.000000 0.000000
# 5 0.000000 0.000000 0.000000 0.000000 0.063195 0.000000
# 6 0.000000 0.000000 0.000000 0.000000 0.000000 0.026525
#
#
# Mechanical properties :
#
#
# Convention : Reuss Voigt Hill
#
# Bulk Modulus (GPa) = 28.75587 56.02907 42.39247
# Shear Modulus (GPa) = 20.17256 25.97742 23.07499
#
# Velocity S-wave (km/s) = 3.08246 3.49796 3.29676
# Velocity P-wave (km/s) = 5.11987 6.53488 5.87017
#
# Compressibility (1/GPa) = 0.03477551
#
# Stress axis : x y z
#
# Youngs Moduli (GPa) = 82.53006 82.53006 28.70965
#
# Poissons Ratio (x) = 0.56477 0.07610
# Poissons Ratio (y) = 0.56477 0.07610
# Poissons Ratio (z) = 0.21877 0.21877
#
# Static dielectric constant tensor:
#      x y z
#    x 1.799900 0.000000 0.000000 
#    y 0.000000 1.799900 0.000000 
#    z 0.000000 0.000000 1.802160 
# 
# From -- ./inp_files/9761.got.cif
#   From: 2010.05.17/outbox.cif.g08.bks.cpg/sg136_5_cif.got.tgz:9761.got - 2010.05.20 12:54:53.
