data_PCOD9569477
_publ_section_title
;
Structure prediction by ZEFSAII (Michael W. Deem and Ramdas Pophale) SiO2 
 PCOD9569477
Probable space group: P 42/M N M
;
_chemical_formula_sum "Si O2"
_cell_formula_units_Z 96
_cell_length_a 24.618296
_cell_length_b 24.618296
_cell_length_c 7.883551
_cell_angle_alpha 90.000000
_cell_angle_beta 90.000000
_cell_angle_gamma 90.000000
_cell_volume 4777.908845
_symmetry_space_group_name_H-M "P 42/M N M"
_symmetry_group_IT_number 136
_symmetry_cell_setting 'tetragonal'
loop_
_space_group_symop_operation_xyz
x,y,z
1/2-y,1/2+x,1/2+z
-x,-y,z
1/2+y,1/2-x,1/2+z
1/2+x,1/2-y,1/2-z
1/2-x,1/2+y,1/2-z
y,x,-z
-y,-x,-z
-x,-y,-z
1/2+y,1/2-x,1/2-z
x,y,-z
1/2-y,1/2+x,1/2-z
1/2-x,1/2+y,1/2+z
1/2+x,1/2-y,1/2+z
-y,-x,z
y,x,z
loop_
_atom_site_type_symbol
_atom_site_label
_atom_site_fract_x
_atom_site_fract_y
_atom_site_fract_z
Si Si1 0.354582 0.016827 0.198144
Si Si2 0.403084 0.122836 0.308637
Si Si3 0.987056 0.771681 0.202017
Si Si4 0.726098 0.362024 0.705711
Si Si5 0.827148 0.289159 0.308783
Si Si6 0.813531 0.102347 0.797472
O O1 0.368483 0.068844 0.304772
O O2 0.292147 0.000641 0.218960
O O3 0.389382 0.964385 0.243587
O O4 0.362877 0.031215 0.000000
O O5 0.405551 0.145633 0.500000
O O6 0.374546 0.166436 0.192747
O O7 0.924623 0.777518 0.267601
O O8 0.041302 0.801600 0.270241
O O9 0.983853 0.784229 0.000000
O O10 0.734411 0.365494 0.500000
O O11 0.671040 0.328961 0.738233
O O12 0.775795 0.322902 0.767906
O O13 0.811824 0.274432 0.500000
O O14 0.855188 0.236332 0.228737
O O15 0.867224 0.132777 0.730572
O O16 0.819052 0.096385 0.000000
#
# Coordination Sequence:
#
# PCOD9569477 Si02
#       6
#    16  16  16  16  16  16
#     4  10  20  36  53  70  99 139 178 215 259 310
#     4  11  22  35  53  75 102 135 180 223 258 308
#     4   9  16  31  51  71 101 136 168 204 253 314
#     4   9  17  29  49  76 101 129 166 208 254 304
#     4  11  20  32  52  78 107 136 171 216 266 314
#     4  10  20  34  53  77 106 140 174 210 259 313
#
# _framework density 20.092472999999998
#
# number of rings (size 3 to 8) (size 9 to 14) (size 15 to 20)
#    0.000    2.000    3.333    1.500    0.000    2.667 
#    0.000    1.667    0.000    0.500    0.000    3.500 
#    0.000    0.000    0.000    1.500    0.000    1.667 
#
# Total GULP energy -534935.685827 kJ/mol
# GULP energy per Si atom -5572.246727 kJ/mol
# Density = 2.004674 g / cm^3
# Si number density = 20.092473 Si / 1000 Ang^3
#
#
#
# Elastic Constant Matrix: (Units=GPa)
#
#
# Indices 1 2 3 4 5 6 
#
# 1 37.5317 82.2696 7.6281 0.0000 0.0000 0.0000
# 2 82.2696 37.5317 7.6281 0.0000 0.0000 0.0000
# 3 7.6281 7.6281 19.9155 0.0000 0.0000 0.0000
# 4 0.0000 0.0000 0.0000 9.7465 0.0000 0.0000
# 5 0.0000 0.0000 0.0000 0.0000 9.7465 0.0000
# 6 0.0000 0.0000 0.0000 0.0000 0.0000 21.6590
#
#
#
# Elastic Compliance Matrix: (Units=1/GPa)
#
#
# Indices 1 2 3 4 5 6 
#
# 1 -0.006789 0.015564 -0.003361 0.000000 0.000000 0.000000
# 2 0.015564 -0.006789 -0.003361 0.000000 0.000000 0.000000
# 3 -0.003361 -0.003361 0.052787 0.000000 0.000000 0.000000
# 4 0.000000 0.000000 0.000000 0.102600 0.000000 0.000000
# 5 0.000000 0.000000 0.000000 0.000000 0.102600 0.000000
# 6 0.000000 0.000000 0.000000 0.000000 0.000000 0.046170
#
#
# Mechanical properties :
#
#
# Convention : Reuss Voigt Hill
#
# Bulk Modulus (GPa) = 17.57693 32.22564 24.90128
# Shear Modulus (GPa) = 17.13140 8.06063 12.59602
#
# Velocity S-wave (km/s) = 2.92315 2.00511 2.50652
# Velocity P-wave (km/s) = 4.49000 4.62970 4.56038
#
# Compressibility (1/GPa) = 0.05689277
#
# Stress axis : x y z
#
# Youngs Moduli (GPa) = -147.30533 -147.30533 18.94412
#
# Poissons Ratio (x) = 2.29263 0.06367
# Poissons Ratio (y) = 2.29263 0.06367
# Poissons Ratio (z) = -0.49511 -0.49511
#
# Static dielectric constant tensor:
#      x y z
#    x 1.735250 0.000000 0.000000 
#    y 0.000000 1.735250 0.000000 
#    z 0.000000 0.000000 1.769330 
# 
# From -- ./inp_files/1944.got.cif
#   From: 2010.05.17/outbox.cif.g08.bks.cpg/sg136_1_cif.got.tgz:1944.got - 2010.05.20 12:54:53.
