data_PCOD9569327
_publ_section_title
;
Structure prediction by ZEFSAII (Michael W. Deem and Ramdas Pophale) SiO2 
 PCOD9569327
Probable space group: P 42/M N M
;
_chemical_formula_sum "Si O2"
_cell_formula_units_Z 96
_cell_length_a 25.205923
_cell_length_b 25.205923
_cell_length_c 9.088363
_cell_angle_alpha 90.000000
_cell_angle_beta 90.000000
_cell_angle_gamma 90.000000
_cell_volume 5774.187409
_symmetry_space_group_name_H-M "P 42/M N M"
_symmetry_group_IT_number 136
_symmetry_cell_setting 'tetragonal'
loop_
_space_group_symop_operation_xyz
x,y,z
1/2-y,1/2+x,1/2+z
-x,-y,z
1/2+y,1/2-x,1/2+z
1/2+x,1/2-y,1/2-z
1/2-x,1/2+y,1/2-z
y,x,-z
-y,-x,-z
-x,-y,-z
1/2+y,1/2-x,1/2-z
x,y,-z
1/2-y,1/2+x,1/2-z
1/2-x,1/2+y,1/2+z
1/2+x,1/2-y,1/2+z
-y,-x,z
y,x,z
loop_
_atom_site_type_symbol
_atom_site_label
_atom_site_fract_x
_atom_site_fract_y
_atom_site_fract_z
Si Si1 0.704832 0.913333 0.822145
Si Si2 0.386089 0.386089 0.823572
Si Si3 0.286967 0.969119 0.829157
Si Si4 0.339801 0.488804 0.671415
Si Si5 0.297625 0.297625 0.821739
Si Si6 0.905342 0.818310 0.673787
Si Si7 0.691581 0.141949 0.322749
O O1 0.761163 0.900791 0.748859
O O2 0.665256 0.865923 0.782657
O O3 0.689616 0.973792 0.779919
O O4 0.711375 0.913825 0.000000
O O5 0.368752 0.441827 0.756039
O O6 0.341786 0.341786 0.783276
O O7 0.388454 0.388454 0.000000
O O8 0.223363 0.976984 0.821163
O O9 0.301380 0.917102 0.738674
O O10 0.301197 0.960649 0.000000
O O11 0.354830 0.490589 0.500000
O O12 0.347320 0.545078 0.749708
O O13 0.319591 0.240158 0.771607
O O14 0.295002 0.295002 0.000000
O O15 0.915719 0.812486 0.500000
O O16 0.852757 0.852757 0.694198
O O17 0.694724 0.140095 0.500000
#
# Coordination Sequence:
#
# PCOD9569327 Si02
#       7
#    16   8  16  16   8  16  16
#     4   9  20  35  54  78 105 137 174 212 255 310
#     4  11  19  31  52  78 107 135 169 216 265 313
#     4   9  18  33  50  73 103 135 169 211 257 303
#     4  10  20  34  52  74 101 137 178 215 259 311
#     4   9  18  29  47  78 108 133 165 206 257 306
#     4  10  21  36  53  74 102 135 174 217 261 309
#     4  10  19  33  53  78 105 137 174 212 254 309
#
# _framework density 16.625715
#
# number of rings (size 3 to 8) (size 9 to 14) (size 15 to 20)
#    0.000    2.333    1.667    2.250    1.167    4.667 
#    0.000    0.833    0.000    3.000    0.000    3.500 
#    0.000    0.000    0.000    0.000    0.000    0.000 
#
# Total GULP energy -535218.078197 kJ/mol
# GULP energy per Si atom -5575.188315 kJ/mol
# Density = 1.658787 g / cm^3
# Si number density = 16.625715 Si / 1000 Ang^3
#
#
#
# Elastic Constant Matrix: (Units=GPa)
#
#
# Indices 1 2 3 4 5 6 
#
# 1 86.2219 55.7930 31.6115 0.0000 0.0000 0.0000
# 2 55.7930 86.2219 31.6115 0.0000 0.0000 0.0000
# 3 31.6115 31.6115 34.7915 0.0000 0.0000 0.0000
# 4 0.0000 0.0000 0.0000 23.8046 0.0000 0.0000
# 5 0.0000 0.0000 0.0000 0.0000 23.8046 0.0000
# 6 0.0000 0.0000 0.0000 0.0000 0.0000 24.3761
#
#
#
# Elastic Compliance Matrix: (Units=1/GPa)
#
#
# Indices 1 2 3 4 5 6 
#
# 1 0.022344 -0.010520 -0.010744 0.000000 0.000000 0.000000
# 2 -0.010520 0.022344 -0.010744 0.000000 0.000000 0.000000
# 3 -0.010744 -0.010744 0.048266 0.000000 0.000000 0.000000
# 4 0.000000 0.000000 0.000000 0.042009 0.000000 0.000000
# 5 0.000000 0.000000 0.000000 0.000000 0.042009 0.000000
# 6 0.000000 0.000000 0.000000 0.000000 0.000000 0.041024
#
#
# Mechanical properties :
#
#
# Convention : Reuss Voigt Hill
#
# Bulk Modulus (GPa) = 34.55400 49.47413 42.01407
# Shear Modulus (GPa) = 17.14351 20.27833 18.71092
#
# Velocity S-wave (km/s) = 3.21463 3.49620 3.35837
# Velocity P-wave (km/s) = 5.88277 6.79118 6.35323
#
# Compressibility (1/GPa) = 0.02894021
#
# Stress axis : x y z
#
# Youngs Moduli (GPa) = 44.75476 44.75476 20.71854
#
# Poissons Ratio (x) = 0.47080 0.22259
# Poissons Ratio (y) = 0.47080 0.22259
# Poissons Ratio (z) = 0.48083 0.48083
#
# Static dielectric constant tensor:
#      x y z
#    x 1.552090 0.000000 0.000000 
#    y 0.000000 1.552090 0.000000 
#    z 0.000000 0.000000 1.557620 
# 
# From -- ./inp_files/2054.got.cif
#   From: 2010.05.17/outbox.cif.g08.bks.cpg/sg136_2_cif.got.tgz:2054.got - 2010.05.20 12:54:53.
