data_PCOD9569175
_publ_section_title
;
Structure prediction by ZEFSAII (Michael W. Deem and Ramdas Pophale) SiO2 
 PCOD9569175
Probable space group: P 42/M N M
;
_chemical_formula_sum "Si O2"
_cell_formula_units_Z 116
_cell_length_a 27.584904
_cell_length_b 27.584904
_cell_length_c 7.297883
_cell_angle_alpha 90.000000
_cell_angle_beta 90.000000
_cell_angle_gamma 90.000000
_cell_volume 5553.155697
_symmetry_space_group_name_H-M "P 42/M N M"
_symmetry_group_IT_number 136
_symmetry_cell_setting 'tetragonal'
loop_
_space_group_symop_operation_xyz
x,y,z
1/2-y,1/2+x,1/2+z
-x,-y,z
1/2+y,1/2-x,1/2+z
1/2+x,1/2-y,1/2-z
1/2-x,1/2+y,1/2-z
y,x,-z
-y,-x,-z
-x,-y,-z
1/2+y,1/2-x,1/2-z
x,y,-z
1/2-y,1/2+x,1/2-z
1/2-x,1/2+y,1/2+z
1/2+x,1/2-y,1/2+z
-y,-x,z
y,x,z
loop_
_atom_site_type_symbol
_atom_site_label
_atom_site_fract_x
_atom_site_fract_y
_atom_site_fract_z
Si Si1 0.618306 0.381695 0.000000
Si Si2 0.021474 0.752293 0.223155
Si Si3 0.357216 0.957890 0.210967
Si Si4 0.434433 0.878748 0.221930
Si Si5 0.306965 0.231500 0.722147
Si Si6 0.310320 0.385868 0.277210
Si Si7 0.576297 0.306091 0.709507
Si Si8 0.625629 0.211485 0.221502
O O1 0.650401 0.409918 0.159318
O O2 0.034619 0.697547 0.287151
O O3 0.061712 0.791778 0.279709
O O4 0.969700 0.774157 0.276321
O O5 0.021095 0.749718 0.000000
O O6 0.394823 0.918117 0.286337
O O7 0.383186 0.010222 0.216683
O O8 0.349363 0.942792 0.000000
O O9 0.416012 0.825579 0.279801
O O10 0.435270 0.880476 0.000000
O O11 0.308808 0.231091 0.500000
O O12 0.256455 0.256455 0.774420
O O13 0.349233 0.267543 0.779960
O O14 0.310385 0.176736 0.782639
O O15 0.311495 0.386298 0.500000
O O16 0.360837 0.360837 0.218408
O O17 0.567352 0.321679 0.500000
O O18 0.618780 0.265913 0.712391
O O19 0.625512 0.213146 0.000000
#
# Coordination Sequence:
#
# PCOD9569175 Si02
#       8
#     4  16  16  16  16  16  16  16
#     4  12  26  44  60  86 125 154 192 244 294 338
#     4   9  17  32  54  80 113 150 192 240 294 356
#     4  10  20  35  53  73 107 150 192 253 310 358
#     4  10  21  34  51  75 102 145 202 253 306 364
#     4   8  14  22  40  71 109 148 183 222 279 349
#     4   8  13  24  45  80 117 147 187 238 288 349
#     4  11  23  38  60  88 116 155 197 238 289 357
#     4  10  18  31  51  76 111 147 193 240 289 357
#
# _framework density 20.889023999999999
#
# number of rings (size 3 to 8) (size 9 to 14) (size 15 to 20)
#    0.000    2.483    2.069    1.862    0.966    4.138 
#    0.000    1.379    0.000    0.000    1.793    1.448 
#    0.000    3.310    0.000    0.000    0.000    0.000 
#
# Total GULP energy -646319.710445 kJ/mol
# GULP energy per Si atom -5571.721642 kJ/mol
# Density = 2.084148 g / cm^3
# Si number density = 20.889024 Si / 1000 Ang^3
#
#
#
# Elastic Constant Matrix: (Units=GPa)
#
#
# Indices 1 2 3 4 5 6 
#
# 1 68.8535 48.0340 6.3678 0.0000 0.0000 0.0000
# 2 48.0340 68.8515 6.3675 0.0000 0.0000 0.0000
# 3 6.3678 6.3675 98.0625 0.0000 0.0000 0.0000
# 4 0.0000 0.0000 0.0000 7.8577 0.0000 0.0000
# 5 0.0000 0.0000 0.0000 0.0000 7.8578 0.0000
# 6 0.0000 0.0000 0.0000 0.0000 0.0000 36.6715
#
#
#
# Elastic Compliance Matrix: (Units=1/GPa)
#
#
# Indices 1 2 3 4 5 6 
#
# 1 0.028325 -0.019709 -0.000560 0.000000 0.000000 0.000000
# 2 -0.019709 0.028326 -0.000559 0.000000 0.000000 0.000000
# 3 -0.000560 -0.000559 0.010270 0.000000 0.000000 0.000000
# 4 0.000000 0.000000 0.000000 0.127263 0.000000 0.000000
# 5 0.000000 0.000000 0.000000 0.000000 0.127262 0.000000
# 6 0.000000 0.000000 0.000000 0.000000 0.000000 0.027269
#
#
# Mechanical properties :
#
#
# Convention : Reuss Voigt Hill
#
# Bulk Modulus (GPa) = 39.58076 39.70068 39.64072
# Shear Modulus (GPa) = 12.53785 22.14396 17.34090
#
# Velocity S-wave (km/s) = 2.45258 3.25941 2.88435
# Velocity P-wave (km/s) = 5.19706 5.76297 5.48732
#
# Compressibility (1/GPa) = 0.02526480
#
# Stress axis : x y z
#
# Youngs Moduli (GPa) = 35.30462 35.30362 97.36870
#
# Poissons Ratio (x) = 0.69580 0.05448
# Poissons Ratio (y) = 0.69582 0.05447
# Poissons Ratio (z) = 0.01975 0.01975
#
# Static dielectric constant tensor:
#      x y z
#    x 1.757770 0.000000 0.000000 
#    y 0.000000 1.757770 0.000000 
#    z 0.000000 0.000000 1.840970 
# 
# From -- ./inp_files/2326.got.cif
#   From: 2010.05.17/outbox.cif.g08.bks.cpg/sg136_2_cif.got.tgz:2326.got - 2010.05.20 12:54:53.
