data_PCOD9569913
_publ_section_title
;
Structure prediction by ZEFSAII (Michael W. Deem and Ramdas Pophale) SiO2 
 PCOD9569913
Probable space group: P 42/M N M
;
_chemical_formula_sum "Si O2"
_cell_formula_units_Z 98
_cell_length_a 15.000000
_cell_length_b 15.000000
_cell_length_c 24.000000
_cell_angle_alpha 90.000000
_cell_angle_beta 90.000000
_cell_angle_gamma 90.000000
_cell_volume 5400.000000
_symmetry_space_group_name_H-M "P 42/M N M"
_symmetry_group_IT_number 136
_symmetry_cell_setting 'tetragonal'
loop_
_space_group_symop_operation_xyz
x,y,z
1/2-y,1/2+x,1/2+z
-x,-y,z
1/2+y,1/2-x,1/2+z
1/2+x,1/2-y,1/2-z
1/2-x,1/2+y,1/2-z
y,x,-z
-y,-x,-z
-x,-y,-z
1/2+y,1/2-x,1/2-z
x,y,-z
1/2-y,1/2+x,1/2-z
1/2-x,1/2+y,1/2+z
1/2+x,1/2-y,1/2+z
-y,-x,z
y,x,z
loop_
_atom_site_type_symbol
_atom_site_label
_atom_site_fract_x
_atom_site_fract_y
_atom_site_fract_z
Si Si1 0.500000 0.500000 0.500000
Si Si2 0.049687 0.637498 0.255924
Si Si3 0.569073 0.918566 0.433846
Si Si4 0.071974 0.928026 0.568170
Si Si5 0.229104 0.463585 0.066174
Si Si6 0.931413 0.068588 0.114220
Si Si7 0.012297 0.738182 0.852143
Si Si8 0.819513 0.675515 0.855393
O O1 0.446631 0.446631 0.549084
O O2 0.103689 0.550708 0.235036
O O3 0.048629 0.709692 0.207777
O O4 0.095949 0.670450 0.311569
O O5 0.568754 0.898194 0.500000
O O6 0.540433 0.836908 0.396287
O O7 0.500000 0.000000 0.425035
O O8 0.666292 0.955137 0.416524
O O9 0.074338 0.925663 0.500000
O O10 0.042836 0.829940 0.587466
O O11 0.000000 0.000000 0.585219
O O12 0.183671 0.371668 0.084883
O O13 0.232333 0.467781 0.000000
O O14 0.832351 0.046126 0.129932
O O15 0.000000 0.000000 0.143026
O O16 0.905543 0.736394 0.849818
O O17 0.732001 0.732001 0.845745
#
# Coordination Sequence:
#
# PCOD9569913 Si02
#       8
#     2  16  16   8  16   8  16  16
#     4   8  24  48  60  76 116 160 220 246 268 348
#     4   9  20  36  59  85 114 147 185 238 301 362
#     4  10  20  33  56  89 122 145 180 240 299 354
#     4   9  18  34  54  74 114 159 192 221 267 346
#     4  10  19  34  54  85 117 151 188 234 292 355
#     4  10  24  44  61  81 118 161 208 243 286 345
#     4  11  22  38  62  82 116 157 196 243 304 346
#     4  11  21  34  58  87 113 144 196 247 291 349
#
# _framework density 18.148147999999999
#
# number of rings (size 3 to 8) (size 9 to 14) (size 15 to 20)
#    0.245    1.714    2.449    1.469    4.571    0.000 
#    1.469    0.000    0.000    2.939    0.000    0.000 
#    0.000    0.000    0.000    0.000    0.000    0.000 
#
# Total GULP energy -545612.648240 kJ/mol
# GULP energy per Si atom -5567.476002 kJ/mol
# Density = 1.810684 g / cm^3
# Si number density = 18.148148 Si / 1000 Ang^3
#
#
#
# Elastic Constant Matrix: (Units=GPa)
#
#
# Indices 1 2 3 4 5 6 
#
# 1 36.2396 48.1608 24.1987 0.0000 0.0000 0.0000
# 2 48.1608 36.2393 24.1986 0.0000 0.0000 0.0000
# 3 24.1987 24.1986 2.9356 0.0000 0.0000 0.0000
# 4 0.0000 0.0000 0.0000 -4.1156 0.0000 0.0000
# 5 0.0000 0.0000 0.0000 0.0000 -4.1157 0.0000
# 6 0.0000 0.0000 0.0000 0.0000 0.0000 9.0927
#
#
#
# Elastic Compliance Matrix: (Units=1/GPa)
#
#
# Indices 1 2 3 4 5 6 
#
# 1 -0.043531 0.040352 0.026207 0.000000 0.000000 0.000000
# 2 0.040352 -0.043531 0.026206 0.000000 0.000000 0.000000
# 3 0.026207 0.026206 -0.091404 0.000000 0.000000 0.000000
# 4 0.000000 0.000000 0.000000 -0.242978 0.000000 0.000000
# 5 0.000000 0.000000 0.000000 0.000000 -0.242974 0.000000
# 6 0.000000 0.000000 0.000000 0.000000 0.000000 0.109979
#
#
# Mechanical properties :
#
#
# Convention : Reuss Voigt Hill
#
# Bulk Modulus (GPa) = 141.55681 29.83674 85.69678
# Shear Modulus (GPa) = -6.77861 -1.23729 -4.00795
#
# Velocity S-wave (km/s) = -1.93475 -0.82659 -1.48770
# Velocity P-wave (km/s) = 8.55447 3.94529 6.66124
#
# Compressibility (1/GPa) = 0.00706430
#
# Stress axis : x y z
#
# Youngs Moduli (GPa) = -22.97205 -22.97201 -10.94048
#
# Poissons Ratio (x) = 0.92697 0.28671
# Poissons Ratio (y) = 0.92697 0.28671
# Poissons Ratio (z) = 0.60202 0.60202
#
# Static dielectric constant tensor:
#      x y z
#    x 1.719940 0.000000 0.000000 
#    y 0.000000 1.719950 0.000000 
#    z 0.000000 0.000000 1.619200 
# 
# From -- ./inp_files/8459.got.cif
#   From: 2010.05.17/outbox.ucp.g08.bks.cvg/sg136_5_cif.got.tgz:8459.got - 2010.06.11 11:40:42.
