data_PCOD9569107
_publ_section_title
;
Structure prediction by ZEFSAII (Michael W. Deem and Ramdas Pophale) SiO2 
 PCOD9569107
Probable space group: P 42/M N M
;
_chemical_formula_sum "Si O2"
_cell_formula_units_Z 104
_cell_length_a 27.229472
_cell_length_b 27.229472
_cell_length_c 8.345069
_cell_angle_alpha 90.000000
_cell_angle_beta 90.000000
_cell_angle_gamma 90.000000
_cell_volume 6187.402553
_symmetry_space_group_name_H-M "P 42/M N M"
_symmetry_group_IT_number 136
_symmetry_cell_setting 'tetragonal'
loop_
_space_group_symop_operation_xyz
x,y,z
1/2-y,1/2+x,1/2+z
-x,-y,z
1/2+y,1/2-x,1/2+z
1/2+x,1/2-y,1/2-z
1/2-x,1/2+y,1/2-z
y,x,-z
-y,-x,-z
-x,-y,-z
1/2+y,1/2-x,1/2-z
x,y,-z
1/2-y,1/2+x,1/2-z
1/2-x,1/2+y,1/2+z
1/2+x,1/2-y,1/2+z
-y,-x,z
y,x,z
loop_
_atom_site_type_symbol
_atom_site_label
_atom_site_fract_x
_atom_site_fract_y
_atom_site_fract_z
Si Si1 0.348713 0.651288 0.680393
Si Si2 0.460829 0.539172 0.805924
Si Si3 0.602040 0.101377 0.193186
Si Si4 0.276169 0.723832 0.183218
Si Si5 0.544304 0.349082 0.809788
Si Si6 0.142026 0.293787 0.694166
Si Si7 0.499359 0.147584 0.190521
Si Si8 0.251217 0.037784 0.811057
O O1 0.334588 0.665413 0.500000
O O2 0.318063 0.681938 0.807735
O O3 0.405826 0.658531 0.711454
O O4 0.500000 0.500000 0.742666
O O5 0.473167 0.596025 0.763600
O O6 0.462754 0.537247 0.000000
O O7 0.633915 0.149470 0.238329
O O8 0.546142 0.114461 0.241191
O O9 0.622231 0.051655 0.267113
O O10 0.603487 0.096966 0.000000
O O11 0.230406 0.693049 0.253898
O O12 0.263499 0.736502 0.000000
O O13 0.517041 0.298287 0.771521
O O14 0.554645 0.350851 0.000000
O O15 0.142120 0.290292 0.500000
O O16 0.093133 0.265149 0.751709
O O17 0.505931 0.200806 0.269786
O O18 0.503797 0.154463 0.000000
O O19 0.243785 0.039137 0.000000
#
# Coordination Sequence:
#
# PCOD9569107 Si02
#       8
#     8   8  16   8  16  16  16  16
#     4  11  19  25  38  66  99 128 161 197 235 285
#     4   8  16  30  48  71  97 131 173 211 249 297
#     4   9  19  35  51  73 101 130 167 213 255 303
#     4  10  17  27  46  68  98 137 163 188 235 296
#     4  10  18  29  46  67  97 132 163 200 248 301
#     4   9  18  31  48  71 103 135 165 197 242 301
#     4  10  21  36  54  74 100 132 168 207 256 312
#     4  11  20  30  47  72 100 128 162 205 246 293
#
# _framework density 16.808346
#
# number of rings (size 3 to 8) (size 9 to 14) (size 15 to 20)
#    0.000    2.231    1.538    4.385    0.000    3.385 
#    0.000    1.538    0.000    8.308    2.000    0.000 
#    0.000    0.000    0.000    0.000    0.000    0.000 
#
# Total GULP energy -579196.154678 kJ/mol
# GULP energy per Si atom -5569.193795 kJ/mol
# Density = 1.677009 g / cm^3
# Si number density = 16.808346 Si / 1000 Ang^3
#
#
#
# Elastic Constant Matrix: (Units=GPa)
#
#
# Indices 1 2 3 4 5 6 
#
# 1 98.0729 61.7293 17.4090 0.0000 0.0000 0.0000
# 2 61.7293 98.0727 17.4087 0.0000 0.0000 0.0000
# 3 17.4090 17.4087 40.0964 0.0000 0.0000 0.0000
# 4 0.0000 0.0000 0.0000 18.4757 0.0000 0.0000
# 5 0.0000 0.0000 0.0000 0.0000 18.4759 0.0000
# 6 0.0000 0.0000 0.0000 0.0000 0.0000 25.7721
#
#
#
# Elastic Compliance Matrix: (Units=1/GPa)
#
#
# Indices 1 2 3 4 5 6 
#
# 1 0.017213 -0.010302 -0.003001 0.000000 0.000000 0.000000
# 2 -0.010302 0.017213 -0.003001 0.000000 0.000000 0.000000
# 3 -0.003001 -0.003001 0.027546 0.000000 0.000000 0.000000
# 4 0.000000 0.000000 0.000000 0.054125 0.000000 0.000000
# 5 0.000000 0.000000 0.000000 0.000000 0.054125 0.000000
# 6 0.000000 0.000000 0.000000 0.000000 0.000000 0.038802
#
#
# Mechanical properties :
#
#
# Convention : Reuss Voigt Hill
#
# Bulk Modulus (GPa) = 34.05361 47.70401 40.87881
# Shear Modulus (GPa) = 19.88710 21.85775 20.87243
#
# Velocity S-wave (km/s) = 3.44345 3.61003 3.52773
# Velocity P-wave (km/s) = 6.00947 6.76899 6.40051
#
# Compressibility (1/GPa) = 0.02936546
#
# Stress axis : x y z
#
# Youngs Moduli (GPa) = 58.09432 58.09434 36.30339
#
# Poissons Ratio (x) = 0.59848 0.10894
# Poissons Ratio (y) = 0.59848 0.10894
# Poissons Ratio (z) = 0.17434 0.17433
#
# Static dielectric constant tensor:
#      x y z
#    x 1.599630 0.000000 0.000000 
#    y 0.000000 1.599630 0.000000 
#    z 0.000000 0.000000 1.587910 
# 
# From -- ./inp_files/2276.got.cif
#   From: 2010.05.17/outbox.cif.g08.bks.cpg/sg136_2_cif.got.tgz:2276.got - 2010.05.20 12:54:53.
