data_PCOD9569395
_publ_section_title
;
Structure prediction by ZEFSAII (Michael W. Deem and Ramdas Pophale) SiO2 
 PCOD9569395
Probable space group: P 42/M N M
;
_chemical_formula_sum "Si O2"
_cell_formula_units_Z 120
_cell_length_a 26.168368
_cell_length_b 26.168368
_cell_length_c 7.555652
_cell_angle_alpha 90.000000
_cell_angle_beta 90.000000
_cell_angle_gamma 90.000000
_cell_volume 5173.985699
_symmetry_space_group_name_H-M "P 42/M N M"
_symmetry_group_IT_number 136
_symmetry_cell_setting 'tetragonal'
loop_
_space_group_symop_operation_xyz
x,y,z
1/2-y,1/2+x,1/2+z
-x,-y,z
1/2+y,1/2-x,1/2+z
1/2+x,1/2-y,1/2-z
1/2-x,1/2+y,1/2-z
y,x,-z
-y,-x,-z
-x,-y,-z
1/2+y,1/2-x,1/2-z
x,y,-z
1/2-y,1/2+x,1/2-z
1/2-x,1/2+y,1/2+z
1/2+x,1/2-y,1/2+z
-y,-x,z
y,x,z
loop_
_atom_site_type_symbol
_atom_site_label
_atom_site_fract_x
_atom_site_fract_y
_atom_site_fract_z
Si Si1 0.993956 0.690983 0.206270
Si Si2 0.542594 0.457407 0.704064
Si Si3 0.272864 0.423397 0.715175
Si Si4 0.005044 0.856674 0.795151
Si Si5 0.298021 0.120100 0.796123
Si Si6 0.815081 0.898469 0.286628
Si Si7 0.921408 0.519889 0.200616
Si Si8 0.687369 0.768846 0.790082
O O1 0.936219 0.691014 0.283754
O O2 0.016914 0.634508 0.220176
O O3 0.035803 0.730341 0.279433
O O4 0.987555 0.704745 0.000000
O O5 0.500000 0.500000 0.694755
O O6 0.557169 0.442832 0.500000
O O7 0.517129 0.407937 0.789775
O O8 0.272932 0.424512 0.500000
O O9 0.326966 0.446347 0.777580
O O10 0.260147 0.366135 0.768329
O O11 0.955802 0.819793 0.785958
O O12 0.017261 0.868883 0.000000
O O13 0.236726 0.125320 0.786730
O O14 0.317903 0.173394 0.716318
O O15 0.316340 0.117802 0.000000
O O16 0.812427 0.900291 0.500000
O O17 0.864012 0.864012 0.237429
O O18 0.962865 0.554961 0.296483
O O19 0.918191 0.538557 0.000000
O O20 0.733929 0.733929 0.718874
O O21 0.696837 0.774978 0.000000
#
# Coordination Sequence:
#
# PCOD9569395 Si02
#       8
#    16   8  16  16  16  16  16  16
#     4  10  21  38  59  90 123 151 198 255 307 363
#     4   9  18  32  57  91 119 147 199 259 299 351
#     4  10  22  39  61  89 120 157 203 251 303 365
#     4  10  19  36  60  85 115 157 201 245 300 358
#     4  10  21  40  64  87 116 154 202 252 298 354
#     4  11  22  34  54  87 123 153 187 237 299 362
#     4  11  23  40  61  86 119 159 201 246 297 353
#     4  10  23  42  63  90 121 161 209 249 296 362
#
# _framework density 23.192951000000001
#
# number of rings (size 3 to 8) (size 9 to 14) (size 15 to 20)
#    0.000    1.800    2.000    2.400    1.867    4.267 
#    0.000    1.333    0.000    0.800    0.000    0.000 
#    0.000    0.000    0.000    0.000    0.000    0.000 
#
# Total GULP energy -670302.660288 kJ/mol
# GULP energy per Si atom -5585.855502 kJ/mol
# Density = 2.314016 g / cm^3
# Si number density = 23.192951 Si / 1000 Ang^3
#
#
#
# Elastic Constant Matrix: (Units=GPa)
#
#
# Indices 1 2 3 4 5 6 
#
# 1 63.0034 -2.3408 -5.5128 0.0000 0.0000 0.0000
# 2 -2.3408 63.0033 -5.5127 0.0000 0.0000 0.0000
# 3 -5.5128 -5.5127 67.2520 0.0000 0.0000 0.0000
# 4 0.0000 0.0000 0.0000 7.6678 0.0000 0.0000
# 5 0.0000 0.0000 0.0000 0.0000 7.6677 0.0000
# 6 0.0000 0.0000 0.0000 0.0000 0.0000 32.9865
#
#
#
# Elastic Compliance Matrix: (Units=1/GPa)
#
#
# Indices 1 2 3 4 5 6 
#
# 1 0.016019 0.000715 0.001372 0.000000 0.000000 0.000000
# 2 0.000715 0.016019 0.001372 0.000000 0.000000 0.000000
# 3 0.001372 0.001372 0.015094 0.000000 0.000000 0.000000
# 4 0.000000 0.000000 0.000000 0.130415 0.000000 0.000000
# 5 0.000000 0.000000 0.000000 0.000000 0.130417 0.000000
# 6 0.000000 0.000000 0.000000 0.000000 0.000000 0.030315
#
#
# Mechanical properties :
#
#
# Convention : Reuss Voigt Hill
#
# Bulk Modulus (GPa) = 18.50173 18.50292 18.50232
# Shear Modulus (GPa) = 14.31113 23.43941 18.87527
#
# Velocity S-wave (km/s) = 2.48674 3.18248 2.85588
# Velocity P-wave (km/s) = 4.02986 4.63675 4.34391
#
# Compressibility (1/GPa) = 0.05404900
#
# Stress axis : x y z
#
# Youngs Moduli (GPa) = 62.42687 62.42677 66.25005
#
# Poissons Ratio (x) = -0.04465 -0.09088
# Poissons Ratio (y) = -0.04465 -0.09088
# Poissons Ratio (z) = -0.08563 -0.08563
#
# Static dielectric constant tensor:
#      x y z
#    x 1.869610 0.000000 0.000000 
#    y 0.000000 1.869610 0.000000 
#    z 0.000000 0.000000 1.892520 
# 
# From -- ./inp_files/2300.got.cif
#   From: 2010.05.17/outbox.cif.g08.bks.cpg/sg136_2_cif.got.tgz:2300.got - 2010.05.20 12:54:53.
