data_PCOD9569323
_publ_section_title
;
Structure prediction by ZEFSAII (Michael W. Deem and Ramdas Pophale) SiO2 
 PCOD9569323
Probable space group: P 42/M N M
;
_chemical_formula_sum "Si O2"
_cell_formula_units_Z 96
_cell_length_a 25.464402
_cell_length_b 25.464402
_cell_length_c 8.114040
_cell_angle_alpha 90.000000
_cell_angle_beta 90.000000
_cell_angle_gamma 90.000000
_cell_volume 5261.433769
_symmetry_space_group_name_H-M "P 42/M N M"
_symmetry_group_IT_number 136
_symmetry_cell_setting 'tetragonal'
loop_
_space_group_symop_operation_xyz
x,y,z
1/2-y,1/2+x,1/2+z
-x,-y,z
1/2+y,1/2-x,1/2+z
1/2+x,1/2-y,1/2-z
1/2-x,1/2+y,1/2-z
y,x,-z
-y,-x,-z
-x,-y,-z
1/2+y,1/2-x,1/2-z
x,y,-z
1/2-y,1/2+x,1/2-z
1/2-x,1/2+y,1/2+z
1/2+x,1/2-y,1/2+z
-y,-x,z
y,x,z
loop_
_atom_site_type_symbol
_atom_site_label
_atom_site_fract_x
_atom_site_fract_y
_atom_site_fract_z
Si Si1 0.696940 0.915791 0.695599
Si Si2 0.385633 0.385633 0.195977
Si Si3 0.288709 0.969074 0.692115
Si Si4 0.327640 0.486331 0.694223
Si Si5 0.299222 0.299222 0.699400
Si Si6 0.897896 0.814853 0.801922
Si Si7 0.690734 0.147615 0.196084
O O1 0.686502 0.919314 0.500000
O O2 0.757911 0.901819 0.722299
O O3 0.665658 0.865799 0.764742
O O4 0.688993 0.975366 0.761055
O O5 0.442359 0.369079 0.260986
O O6 0.342744 0.342744 0.255191
O O7 0.385418 0.385418 0.000000
O O8 0.302804 0.964799 0.500000
O O9 0.225899 0.974660 0.708763
O O10 0.302999 0.914447 0.776568
O O11 0.314928 0.482436 0.500000
O O12 0.343063 0.546320 0.728719
O O13 0.297047 0.297047 0.500000
O O14 0.320053 0.242019 0.759282
O O15 0.849574 0.849574 0.742733
O O16 0.893203 0.808117 0.000000
O O17 0.689764 0.157624 0.000000
#
# Coordination Sequence:
#
# PCOD9569323 Si02
#       7
#    16   8  16  16   8  16  16
#     4   9  20  35  53  78 105 136 171 209 254 308
#     4  12  22  32  49  75 104 131 168 216 261 299
#     4  10  19  33  52  76 104 132 169 214 256 298
#     4  10  19  33  52  71  97 135 174 208 254 311
#     4  10  20  32  50  75 105 138 170 202 251 308
#     4   9  19  35  53  74 100 133 173 215 255 303
#     4  10  20  34  53  77 106 139 173 207 250 310
#
# _framework density 18.245977
#
# number of rings (size 3 to 8) (size 9 to 14) (size 15 to 20)
#    0.000    2.167    1.667    1.750    1.167    2.333 
#    0.000    0.417    0.000    3.000    0.000    3.500 
#    0.000    0.000    0.000    0.000    0.000    0.000 
#
# Total GULP energy -535142.205234 kJ/mol
# GULP energy per Si atom -5574.397971 kJ/mol
# Density = 1.820445 g / cm^3
# Si number density = 18.245977 Si / 1000 Ang^3
#
#
#
# Elastic Constant Matrix: (Units=GPa)
#
#
# Indices 1 2 3 4 5 6 
#
# 1 77.2187 48.9026 -3.1669 0.0000 0.0000 0.0000
# 2 48.9026 77.2187 -3.1669 0.0000 0.0000 0.0000
# 3 -3.1669 -3.1669 12.9443 0.0000 0.0000 0.0000
# 4 0.0000 0.0000 0.0000 -45.5732 0.0000 0.0000
# 5 0.0000 0.0000 0.0000 0.0000 -45.5732 0.0000
# 6 0.0000 0.0000 0.0000 0.0000 0.0000 27.1499
#
#
#
# Elastic Compliance Matrix: (Units=1/GPa)
#
#
# Indices 1 2 3 4 5 6 
#
# 1 0.021672 -0.013644 0.001964 0.000000 0.000000 0.000000
# 2 -0.013644 0.021672 0.001964 0.000000 0.000000 0.000000
# 3 0.001964 0.001964 0.078215 0.000000 0.000000 0.000000
# 4 0.000000 0.000000 0.000000 -0.021943 0.000000 0.000000
# 5 0.000000 0.000000 0.000000 0.000000 -0.021943 0.000000
# 6 0.000000 0.000000 0.000000 0.000000 0.000000 0.036833
#
#
# Mechanical properties :
#
#
# Convention : Reuss Voigt Hill
#
# Bulk Modulus (GPa) = 9.79181 28.05770 18.92476
# Shear Modulus (GPa) = 29.76550 -4.47846 12.64352
#
# Velocity S-wave (km/s) = 4.04337 -1.56838 2.63525
# Velocity P-wave (km/s) = 5.21313 3.48297 4.43327
#
# Compressibility (1/GPa) = 0.10212612
#
# Stress axis : x y z
#
# Youngs Moduli (GPa) = 46.14348 46.14348 12.78523
#
# Poissons Ratio (x) = 0.62958 -0.02511
# Poissons Ratio (y) = 0.62958 -0.02511
# Poissons Ratio (z) = -0.09062 -0.09062
#
# Static dielectric constant tensor:
#      x y z
#    x 1.627590 0.000000 0.000000 
#    y 0.000000 1.627590 0.000000 
#    z 0.000000 0.000000 1.648860 
# 
# From -- ./inp_files/2056.got.cif
#   From: 2010.05.17/outbox.cif.g08.bks.cpg/sg136_2_cif.got.tgz:2056.got - 2010.05.20 12:54:53.
