data_PCOD9569745
_publ_section_title
;
Structure prediction by ZEFSAII (Michael W. Deem and Ramdas Pophale) SiO2 
 PCOD9569745
Probable space group: P 42/M N M
;
_chemical_formula_sum "Si O2"
_cell_formula_units_Z 40
_cell_length_a 9.528105
_cell_length_b 9.528105
_cell_length_c 19.247725
_cell_angle_alpha 90.000000
_cell_angle_beta 90.000000
_cell_angle_gamma 90.000000
_cell_volume 1747.400574
_symmetry_space_group_name_H-M "P 42/M N M"
_symmetry_group_IT_number 136
_symmetry_cell_setting 'tetragonal'
loop_
_space_group_symop_operation_xyz
x,y,z
1/2-y,1/2+x,1/2+z
-x,-y,z
1/2+y,1/2-x,1/2+z
1/2+x,1/2-y,1/2-z
1/2-x,1/2+y,1/2-z
y,x,-z
-y,-x,-z
-x,-y,-z
1/2+y,1/2-x,1/2-z
x,y,-z
1/2-y,1/2+x,1/2-z
1/2-x,1/2+y,1/2+z
1/2+x,1/2-y,1/2+z
-y,-x,z
y,x,z
loop_
_atom_site_type_symbol
_atom_site_label
_atom_site_fract_x
_atom_site_fract_y
_atom_site_fract_z
Si Si1 0.112576 0.112576 0.584362
Si Si2 0.200163 0.572890 0.717983
Si Si3 0.334368 0.904120 0.420903
O O1 0.106514 0.106514 0.500000
O O2 0.052849 0.265376 0.601306
O O3 0.000000 0.000000 0.612570
O O4 0.175357 0.421927 0.751730
O O5 0.348759 0.651242 0.727390
O O6 0.159783 0.564675 0.636509
O O7 0.385963 0.908574 0.500000
O O8 0.203017 0.796984 0.421856
#
# Coordination Sequence:
#
# PCOD9569745 Si02
#       3
#     8  16  16
#     4   7  10  18  38  72 100 120 164 222 265 302
#     4  10  22  38  56  82 115 148 186 229 278 339
#     4   8  14  27  50  77 104 139 185 232 272 317
#
# _framework density 22.891144000000001
#
# number of rings (size 3 to 8) (size 9 to 14) (size 15 to 20)
#    0.000    3.400    0.000    2.400    2.800    0.800 
#    0.000    4.000    0.000    3.600    0.000    5.600 
#    0.000    0.000    0.000    0.000    0.000    0.000 
#
# Total GULP energy -223138.275800 kJ/mol
# GULP energy per Si atom -5578.456895 kJ/mol
# Density = 2.283904 g / cm^3
# Si number density = 22.891144 Si / 1000 Ang^3
#
#
#
# Elastic Constant Matrix: (Units=GPa)
#
#
# Indices 1 2 3 4 5 6 
#
# 1 56.5233 23.2096 9.9061 0.0000 0.0000 0.0000
# 2 23.2096 56.5233 9.9061 0.0000 0.0000 0.0000
# 3 9.9061 9.9061 99.4756 0.0000 0.0000 0.0000
# 4 0.0000 0.0000 0.0000 82.9764 0.0000 0.0000
# 5 0.0000 0.0000 0.0000 0.0000 82.9764 0.0000
# 6 0.0000 0.0000 0.0000 0.0000 0.0000 25.3910
#
#
#
# Elastic Compliance Matrix: (Units=1/GPa)
#
#
# Indices 1 2 3 4 5 6 
#
# 1 0.021439 -0.008579 -0.001281 0.000000 0.000000 0.000000
# 2 -0.008579 0.021439 -0.001281 0.000000 0.000000 0.000000
# 3 -0.001281 -0.001281 0.010308 0.000000 0.000000 0.000000
# 4 0.000000 0.000000 0.000000 0.012052 0.000000 0.000000
# 5 0.000000 0.000000 0.000000 0.000000 0.012052 0.000000
# 6 0.000000 0.000000 0.000000 0.000000 0.000000 0.039384
#
#
# Mechanical properties :
#
#
# Convention : Reuss Voigt Hill
#
# Bulk Modulus (GPa) = 32.35684 33.17398 32.76541
# Shear Modulus (GPa) = 33.49977 49.56878 41.53428
#
# Velocity S-wave (km/s) = 3.82964 4.65845 4.26423
# Velocity P-wave (km/s) = 5.80695 6.59230 6.21205
#
# Compressibility (1/GPa) = 0.03090536
#
# Stress axis : x y z
#
# Youngs Moduli (GPa) = 46.64427 46.64427 97.01417
#
# Poissons Ratio (x) = 0.40015 0.12424
# Poissons Ratio (y) = 0.40015 0.12424
# Poissons Ratio (z) = 0.05973 0.05973
#
# Static dielectric constant tensor:
#      x y z
#    x 1.853740 0.000000 0.000000 
#    y 0.000000 1.853740 0.000000 
#    z 0.000000 0.000000 1.894370 
# 
# From -- ./inp_files/5601.got.cif
#   From: 2010.05.17/outbox.cif.g08.bks.cpg/sg136_3_cif.got.tgz:5601.got - 2010.05.20 12:54:53.
