data_PCOD9569710
_publ_section_title
;
Structure prediction by ZEFSAII (Michael W. Deem and Ramdas Pophale) SiO2 
 PCOD9569710
Probable space group: P 42/M N M
;
_chemical_formula_sum "Si O2"
_cell_formula_units_Z 68
_cell_length_a 17.129027
_cell_length_b 17.129027
_cell_length_c 13.266678
_cell_angle_alpha 90.000000
_cell_angle_beta 90.000000
_cell_angle_gamma 90.000000
_cell_volume 3892.490634
_symmetry_space_group_name_H-M "P 42/M N M"
_symmetry_group_IT_number 136
_symmetry_cell_setting 'tetragonal'
loop_
_space_group_symop_operation_xyz
x,y,z
1/2-y,1/2+x,1/2+z
-x,-y,z
1/2+y,1/2-x,1/2+z
1/2+x,1/2-y,1/2-z
1/2-x,1/2+y,1/2-z
y,x,-z
-y,-x,-z
-x,-y,-z
1/2+y,1/2-x,1/2-z
x,y,-z
1/2-y,1/2+x,1/2-z
1/2-x,1/2+y,1/2+z
1/2+x,1/2-y,1/2+z
-y,-x,z
y,x,z
loop_
_atom_site_type_symbol
_atom_site_label
_atom_site_fract_x
_atom_site_fract_y
_atom_site_fract_z
Si Si1 0.687019 0.515805 0.382672
Si Si2 0.147112 0.278767 0.888468
Si Si3 0.819314 0.582498 0.262496
Si Si4 0.411332 0.031002 0.615879
Si Si5 0.500000 0.500000 0.352365
O O1 0.690826 0.541872 0.500000
O O2 0.736409 0.435608 0.374939
O O3 0.732460 0.571254 0.304607
O O4 0.596772 0.500914 0.357955
O O5 0.212254 0.212254 0.888052
O O6 0.167240 0.341304 0.804438
O O7 0.145956 0.316514 0.000000
O O8 0.877984 0.586421 0.356960
O O9 0.852825 0.512544 0.192166
O O10 0.389637 0.017780 0.500000
O O11 0.500000 0.000000 0.630457
#
# Coordination Sequence:
#
# PCOD9569710 Si02
#       5
#    16  16  16  16   4
#     4  11  22  38  62  87 117 152 198 252 303 355
#     4  10  21  38  58  84 118 155 198 245 290 350
#     4  12  20  35  55  89 118 158 192 235 294 362
#     4  11  20  33  53  84 124 158 188 225 280 354
#     4  12  25  44  64  88 113 150 205 264 312 348
#
# _framework density 17.469536000000002
#
# number of rings (size 3 to 8) (size 9 to 14) (size 15 to 20)
#    0.000    0.941    5.882    2.471    1.647    3.765 
#    0.000    0.000    0.000    0.000    0.000    5.765 
#    0.000    0.000    0.000    0.000    0.000    0.000 
#
# Total GULP energy -378560.736020 kJ/mol
# GULP energy per Si atom -5567.069647 kJ/mol
# Density = 1.742977 g / cm^3
# Si number density = 17.469536 Si / 1000 Ang^3
#
#
#
# Elastic Constant Matrix: (Units=GPa)
#
#
# Indices 1 2 3 4 5 6 
#
# 1 90.1395 6.9157 40.0739 0.0000 0.0000 0.0000
# 2 6.9157 90.1395 40.0739 0.0000 0.0000 0.0000
# 3 40.0739 40.0739 84.4347 0.0000 0.0000 0.0000
# 4 0.0000 0.0000 0.0000 -1.5734 0.0000 0.0000
# 5 0.0000 0.0000 0.0000 0.0000 -1.5734 0.0000
# 6 0.0000 0.0000 0.0000 0.0000 0.0000 26.6382
#
#
#
# Elastic Compliance Matrix: (Units=1/GPa)
#
#
# Indices 1 2 3 4 5 6 
#
# 1 0.014480 0.002464 -0.008042 0.000000 0.000000 0.000000
# 2 0.002464 0.014480 -0.008042 0.000000 0.000000 0.000000
# 3 -0.008042 -0.008042 0.019477 0.000000 0.000000 0.000000
# 4 0.000000 0.000000 0.000000 -0.635556 0.000000 0.000000
# 5 0.000000 0.000000 0.000000 0.000000 -0.635556 0.000000
# 6 0.000000 0.000000 0.000000 0.000000 0.000000 0.037540
#
#
# Mechanical properties :
#
#
# Convention : Reuss Voigt Hill
#
# Bulk Modulus (GPa) = 47.17445 48.76006 47.96725
# Shear Modulus (GPa) = -4.34470 16.54163 6.09847
#
# Velocity S-wave (km/s) = -1.57874 3.08049 1.87043
# Velocity P-wave (km/s) = 4.87229 6.37374 5.67291
#
# Compressibility (1/GPa) = 0.02119792
#
# Stress axis : x y z
#
# Youngs Moduli (GPa) = 69.05990 69.05990 51.34190
#
# Poissons Ratio (x) = -0.17019 0.41290
# Poissons Ratio (y) = -0.17019 0.41290
# Poissons Ratio (z) = 0.55539 0.55539
#
# Static dielectric constant tensor:
#      x y z
#    x 1.609710 0.000000 0.000000 
#    y 0.000000 1.609710 0.000000 
#    z 0.000000 0.000000 1.600940 
# 
# From -- ./inp_files/4824.got.cif
#   From: 2010.05.17/outbox.cif.g08.bks.cpg/sg136_3_cif.got.tgz:4824.got - 2010.05.20 12:54:53.
