data_PCOD9569973
_publ_section_title
;
Structure prediction by ZEFSAII (Michael W. Deem and Ramdas Pophale) SiO2 
 PCOD9569973
Probable space group: P 42/N M C
;
_chemical_formula_sum "Si O2"
_cell_formula_units_Z 112
_cell_length_a 14.570550
_cell_length_b 14.570550
_cell_length_c 30.707449
_cell_angle_alpha 90.000000
_cell_angle_beta 90.000000
_cell_angle_gamma 90.000000
_cell_volume 6519.219898
_symmetry_space_group_name_H-M "P 42/N M C"
_symmetry_group_IT_number 137
_space_group.IT_coordinate_system_code '2'
_symmetry_cell_setting 'tetragonal'
loop_
_space_group_symop_operation_xyz
x,y,z
1/2-y,x,1/2+z
1/2-x,1/2-y,z
y,1/2-x,1/2+z
1/2+x,-y,-z
-x,1/2+y,-z
1/2+y,1/2+x,1/2-z
-y,-x,1/2-z
-x,-y,-z
1/2+y,-x,1/2-z
1/2+x,1/2+y,-z
-y,1/2+x,1/2-z
1/2-x,y,z
x,1/2-y,z
1/2-y,1/2-x,1/2+z
y,x,1/2+z
loop_
_atom_site_type_symbol
_atom_site_label
_atom_site_fract_x
_atom_site_fract_y
_atom_site_fract_z
Si Si1 0.353250 0.533663 0.868255
Si Si2 0.145740 0.904387 0.549705
Si Si3 0.861707 0.644778 0.082290
Si Si4 0.453026 0.639167 0.791348
Si Si5 0.523360 0.644297 0.500872
Si Si6 0.149797 0.360660 0.181460
Si Si7 0.145710 0.387826 0.580494
O O1 0.250000 0.522086 0.850992
O O2 0.349279 0.594262 0.912192
O O3 0.389586 0.432944 0.882569
O O4 0.411806 0.589086 0.833518
O O5 0.250000 0.874315 0.539475
O O6 0.072945 0.906269 0.509931
O O7 0.151429 0.004477 0.571085
O O8 0.750000 0.647210 0.083519
O O9 0.893602 0.750000 0.087654
O O10 0.887572 0.600841 0.035568
O O11 0.398270 0.601731 0.750000
O O12 0.444886 0.750000 0.795086
O O13 0.560898 0.613151 0.790751
O O14 0.502975 0.750000 0.511337
O O15 0.569415 0.643232 0.453736
O O16 0.250000 0.396452 0.194670
O O17 0.152914 0.250000 0.183862
O O18 0.133055 0.380253 0.130206
O O19 0.250000 0.351825 0.572681
#
# Coordination Sequence:
#
# PCOD9569973 Si02
#       7
#    16  16  16  16  16  16  16
#     4  10  19  31  49  72 100 137 173 203 242 300
#     4  10  19  31  45  66 100 139 175 209 248 297
#     4   8  15  28  44  65  97 134 170 209 249 287
#     4  11  22  36  53  78 107 133 163 201 247 302
#     4  10  19  28  43  69  97 132 176 215 255 295
#     4   9  18  34  55  77 102 132 166 206 254 301
#     4  10  18  30  49  72  97 129 171 216 256 294
#
# _framework density 17.179970000000001
#
# number of rings (size 3 to 8) (size 9 to 14) (size 15 to 20)
#    0.000    2.286    1.429    3.429    0.000    4.143 
#    0.000    0.714    0.000    3.429    0.000    0.000 
#    0.000    3.143    0.000    0.000    0.000    0.000 
#
# Total GULP energy -623718.179986 kJ/mol
# GULP energy per Si atom -5568.912321 kJ/mol
# Density = 1.714087 g / cm^3
# Si number density = 17.179970 Si / 1000 Ang^3
#
#
#
# Elastic Constant Matrix: (Units=GPa)
#
#
# Indices 1 2 3 4 5 6 
#
# 1 104.2870 20.3017 20.1894 0.0000 0.0000 0.0000
# 2 20.3017 104.2851 20.1880 0.0000 0.0000 0.0000
# 3 20.1894 20.1880 38.1536 0.0000 0.0000 0.0000
# 4 0.0000 0.0000 0.0000 7.1852 0.0000 0.0000
# 5 0.0000 0.0000 0.0000 0.0000 7.1817 0.0000
# 6 0.0000 0.0000 0.0000 0.0000 0.0000 25.0860
#
#
#
# Elastic Compliance Matrix: (Units=1/GPa)
#
#
# Indices 1 2 3 4 5 6 
#
# 1 0.010797 -0.001110 -0.005126 0.000000 0.000000 0.000000
# 2 -0.001110 0.010797 -0.005126 0.000000 0.000000 0.000000
# 3 -0.005126 -0.005126 0.031635 0.000000 0.000000 0.000000
# 4 0.000000 0.000000 0.000000 0.139174 0.000000 0.000000
# 5 0.000000 0.000000 0.000000 0.000000 0.139243 0.000000
# 6 0.000000 0.000000 0.000000 0.000000 0.000000 0.039863
#
#
# Mechanical properties :
#
#
# Convention : Reuss Voigt Hill
#
# Bulk Modulus (GPa) = 32.78091 40.89822 36.83956
# Shear Modulus (GPa) = 12.36392 20.29368 16.32880
#
# Velocity S-wave (km/s) = 2.68558 3.44065 3.08629
# Velocity P-wave (km/s) = 5.36085 6.29615 5.84723
#
# Compressibility (1/GPa) = 0.03050556
#
# Stress axis : x y z
#
# Youngs Moduli (GPa) = 92.61506 92.61466 31.61063
#
# Poissons Ratio (x) = 0.10276 0.16205
# Poissons Ratio (y) = 0.10276 0.16204
# Poissons Ratio (z) = 0.47479 0.47475
#
# Static dielectric constant tensor:
#      x y z
#    x 1.621860 0.000000 0.000000 
#    y 0.000000 1.621860 0.000000 
#    z 0.000000 0.000000 1.587220 
# 
# From -- ./inp_files/10666.got.cif
#   From: 2010.05.17/outbox.cif.g08.bks.cpg/sg137_6_cif.got.tgz:10666.got - 2010.05.20 13:01:12.
