data_PCOD9569408
_publ_section_title
;
Structure prediction by ZEFSAII (Michael W. Deem and Ramdas Pophale) SiO2 
 PCOD9569408
Probable space group: P 42/M N M
;
_chemical_formula_sum "Si O2"
_cell_formula_units_Z 72
_cell_length_a 26.068381
_cell_length_b 26.068381
_cell_length_c 7.690183
_cell_angle_alpha 90.000000
_cell_angle_beta 90.000000
_cell_angle_gamma 90.000000
_cell_volume 5225.944512
_symmetry_space_group_name_H-M "P 42/M N M"
_symmetry_group_IT_number 136
_symmetry_cell_setting 'tetragonal'
loop_
_space_group_symop_operation_xyz
x,y,z
1/2-y,1/2+x,1/2+z
-x,-y,z
1/2+y,1/2-x,1/2+z
1/2+x,1/2-y,1/2-z
1/2-x,1/2+y,1/2-z
y,x,-z
-y,-x,-z
-x,-y,-z
1/2+y,1/2-x,1/2-z
x,y,-z
1/2-y,1/2+x,1/2-z
1/2-x,1/2+y,1/2+z
1/2+x,1/2-y,1/2+z
-y,-x,z
y,x,z
loop_
_atom_site_type_symbol
_atom_site_label
_atom_site_fract_x
_atom_site_fract_y
_atom_site_fract_z
Si Si1 0.189538 0.101145 0.500000
Si Si2 0.341066 0.522469 0.289322
Si Si3 0.314312 0.773983 0.000000
Si Si4 0.959349 0.959349 0.210110
Si Si5 0.678081 0.594873 0.290380
Si Si6 0.825735 0.262364 0.307452
O O1 0.141977 0.141977 0.500000
O O2 0.241767 0.133802 0.500000
O O3 0.185674 0.065345 0.329115
O O4 0.334971 0.529811 0.500000
O O5 0.401319 0.527235 0.244871
O O6 0.324724 0.464604 0.241857
O O7 0.303855 0.809492 0.166316
O O8 0.269380 0.730621 0.000000
O O9 0.961752 0.961752 0.000000
O O10 0.000000 0.000000 0.280168
O O11 0.676434 0.596520 0.500000
O O12 0.629602 0.629602 0.228590
O O13 0.729890 0.623272 0.232897
O O14 0.828052 0.284203 0.500000
O O15 0.781124 0.218877 0.302929
#
# Coordination Sequence:
#
# PCOD9569408 Si02
#       6
#     8  16   8   8  16  16
#     4  11  22  34  46  60  84 120 162 194 220 255
#     4  10  20  32  44  61  86 118 154 190 226 265
#     4   9  18  32  46  60  82 109 143 189 225 263
#     4   9  16  29  45  57  80 117 159 198 229 255
#     4   9  16  28  46  65  89 114 141 184 235 274
#     4   9  16  27  44  66  85 102 133 180 231 275
#
# _framework density 13.777415
#
# number of rings (size 3 to 8) (size 9 to 14) (size 15 to 20)
#    0.000    2.556    2.222    0.667    1.556    3.556 
#    0.000    4.444    0.000    0.000    0.000    0.000 
#    0.000    0.000    0.000    0.000    0.000    3.333 
#
# Total GULP energy -401129.184834 kJ/mol
# GULP energy per Si atom -5571.238678 kJ/mol
# Density = 1.374606 g / cm^3
# Si number density = 13.777415 Si / 1000 Ang^3
#
#
#
# Elastic Constant Matrix: (Units=GPa)
#
#
# Indices 1 2 3 4 5 6 
#
# 1 72.1354 66.1223 50.6010 0.0000 0.0000 0.0000
# 2 66.1223 72.1358 50.6008 0.0000 0.0000 0.0000
# 3 50.6010 50.6008 80.9567 0.0000 0.0000 0.0000
# 4 0.0000 0.0000 0.0000 1.5161 0.0000 0.0000
# 5 0.0000 0.0000 0.0000 0.0000 1.5152 0.0000
# 6 0.0000 0.0000 0.0000 0.0000 0.0000 28.2306
#
#
#
# Elastic Compliance Matrix: (Units=1/GPa)
#
#
# Indices 1 2 3 4 5 6 
#
# 1 0.089816 -0.076483 -0.008334 0.000000 0.000000 0.000000
# 2 -0.076483 0.089815 -0.008333 0.000000 0.000000 0.000000
# 3 -0.008334 -0.008333 0.022770 0.000000 0.000000 0.000000
# 4 0.000000 0.000000 0.000000 0.659572 0.000000 0.000000
# 5 0.000000 0.000000 0.000000 0.000000 0.659984 0.000000
# 6 0.000000 0.000000 0.000000 0.000000 0.000000 0.035422
#
#
# Mechanical properties :
#
#
# Convention : Reuss Voigt Hill
#
# Bulk Modulus (GPa) = 62.10640 62.20845 62.15742
# Shear Modulus (GPa) = 2.85870 10.11265 6.48568
#
# Velocity S-wave (km/s) = 1.44202 2.71219 2.17202
# Velocity P-wave (km/s) = 6.92451 7.42014 7.17660
#
# Compressibility (1/GPa) = 0.01610140
#
# Stress axis : x y z
#
# Youngs Moduli (GPa) = 11.13386 11.13403 43.91792
#
# Poissons Ratio (x) = 0.85156 0.36602
# Poissons Ratio (y) = 0.85155 0.36596
# Poissons Ratio (z) = 0.09279 0.09278
#
# Static dielectric constant tensor:
#      x y z
#    x 1.433260 0.000000 0.000000 
#    y 0.000000 1.433260 0.000000 
#    z 0.000000 0.000000 1.494200 
# 
# From -- ./inp_files/1790.got.cif
#   From: 2010.05.17/outbox.cif.g08.bks.cpg/sg136_1_cif.got.tgz:1790.got - 2010.05.20 12:54:53.
