data_PCOD9569480
_publ_section_title
;
Structure prediction by ZEFSAII (Michael W. Deem and Ramdas Pophale) SiO2 
 PCOD9569480
Probable space group: P 42/M N M
;
_chemical_formula_sum "Si O2"
_cell_formula_units_Z 96
_cell_length_a 23.379726
_cell_length_b 23.379726
_cell_length_c 7.959404
_cell_angle_alpha 90.000000
_cell_angle_beta 90.000000
_cell_angle_gamma 90.000000
_cell_volume 4350.702459
_symmetry_space_group_name_H-M "P 42/M N M"
_symmetry_group_IT_number 136
_symmetry_cell_setting 'tetragonal'
loop_
_space_group_symop_operation_xyz
x,y,z
1/2-y,1/2+x,1/2+z
-x,-y,z
1/2+y,1/2-x,1/2+z
1/2+x,1/2-y,1/2-z
1/2-x,1/2+y,1/2-z
y,x,-z
-y,-x,-z
-x,-y,-z
1/2+y,1/2-x,1/2-z
x,y,-z
1/2-y,1/2+x,1/2-z
1/2-x,1/2+y,1/2+z
1/2+x,1/2-y,1/2+z
-y,-x,z
y,x,z
loop_
_atom_site_type_symbol
_atom_site_label
_atom_site_fract_x
_atom_site_fract_y
_atom_site_fract_z
Si Si1 0.426812 0.045939 0.309328
Si Si2 0.082970 0.824749 0.294624
Si Si3 0.122859 0.697386 0.699990
Si Si4 0.038031 0.203811 0.688200
Si Si5 0.842258 0.749290 0.297258
Si Si6 0.001962 0.682248 0.809094
O O1 0.432360 0.066414 0.500000
O O2 0.435521 0.976926 0.312745
O O3 0.364646 0.046106 0.229020
O O4 0.080581 0.824897 0.500000
O O5 0.123370 0.876631 0.240811
O O6 0.113007 0.764134 0.247480
O O7 0.016712 0.829204 0.234685
O O8 0.116933 0.694196 0.500000
O O9 0.184422 0.671857 0.745757
O O10 0.068519 0.665644 0.782742
O O11 0.048254 0.180791 0.500000
O O12 0.099726 0.219100 0.766796
O O13 0.009796 0.266760 0.682209
O O14 0.847802 0.748716 0.500000
O O15 0.788634 0.788634 0.249360
O O16 0.995745 0.701954 0.000000
#
# Coordination Sequence:
#
# PCOD9569480 Si02
#       6
#    16  16  16  16  16  16
#     4  11  22  37  53  72  99 136 182 229 274 319
#     4   8  14  28  52  78 101 130 173 224 274 324
#     4  10  20  34  53  79 108 140 180 228 278 330
#     4   9  19  35  53  76 107 142 181 225 277 333
#     4  10  21  36  54  78 112 151 186 223 274 334
#     4  11  22  36  54  77 106 141 181 227 276 331
#
# _framework density 22.065401000000001
#
# number of rings (size 3 to 8) (size 9 to 14) (size 15 to 20)
#    0.000    2.167    0.000    5.500    2.333    1.667 
#    0.000    0.000    0.000    5.000    0.000    3.500 
#    0.000    0.000    0.000    7.500    0.000    8.333 
#
# Total GULP energy -535071.581463 kJ/mol
# GULP energy per Si atom -5573.662307 kJ/mol
# Density = 2.201518 g / cm^3
# Si number density = 22.065401 Si / 1000 Ang^3
#
#
#
# Elastic Constant Matrix: (Units=GPa)
#
#
# Indices 1 2 3 4 5 6 
#
# 1 78.4556 23.1808 10.3073 0.0000 0.0000 0.0000
# 2 23.1808 78.4556 10.3073 0.0000 0.0000 0.0000
# 3 10.3073 10.3073 77.9821 0.0000 0.0000 0.0000
# 4 0.0000 0.0000 0.0000 15.8616 0.0000 0.0000
# 5 0.0000 0.0000 0.0000 0.0000 15.8616 0.0000
# 6 0.0000 0.0000 0.0000 0.0000 0.0000 41.2502
#
#
#
# Elastic Compliance Matrix: (Units=1/GPa)
#
#
# Indices 1 2 3 4 5 6 
#
# 1 0.014101 -0.003991 -0.001336 0.000000 0.000000 0.000000
# 2 -0.003991 0.014101 -0.001336 0.000000 0.000000 0.000000
# 3 -0.001336 -0.001336 0.013177 0.000000 0.000000 0.000000
# 4 0.000000 0.000000 0.000000 0.063045 0.000000 0.000000
# 5 0.000000 0.000000 0.000000 0.000000 0.063045 0.000000
# 6 0.000000 0.000000 0.000000 0.000000 0.000000 0.024242
#
#
# Mechanical properties :
#
#
# Convention : Reuss Voigt Hill
#
# Bulk Modulus (GPa) = 35.64862 35.83158 35.74010
# Shear Modulus (GPa) = 23.32214 27.33452 25.32833
#
# Velocity S-wave (km/s) = 3.25461 3.52347 3.39171
# Velocity P-wave (km/s) = 5.50584 5.72950 5.61878
#
# Compressibility (1/GPa) = 0.02805157
#
# Stress axis : x y z
#
# Youngs Moduli (GPa) = 70.91832 70.91832 75.89149
#
# Poissons Ratio (x) = 0.28301 0.10141
# Poissons Ratio (y) = 0.28301 0.10141
# Poissons Ratio (z) = 0.09477 0.09477
#
# Static dielectric constant tensor:
#      x y z
#    x 1.906240 0.000000 0.000000 
#    y 0.000000 1.906240 0.000000 
#    z 0.000000 0.000000 1.799520 
# 
# From -- ./inp_files/1910.got.cif
#   From: 2010.05.17/outbox.cif.g08.bks.cpg/sg136_1_cif.got.tgz:1910.got - 2010.05.20 12:54:53.
