data_PCOD9569985
_publ_section_title
;
Structure prediction by ZEFSAII (Michael W. Deem and Ramdas Pophale) SiO2 
 PCOD9569985
Probable space group: P 42/N M C
;
_chemical_formula_sum "Si O2"
_cell_formula_units_Z 96
_cell_length_a 22.708092
_cell_length_b 22.708092
_cell_length_c 11.164410
_cell_angle_alpha 90.000000
_cell_angle_beta 90.000000
_cell_angle_gamma 90.000000
_cell_volume 5757.011105
_symmetry_space_group_name_H-M "P 42/N M C"
_symmetry_group_IT_number 137
_space_group.IT_coordinate_system_code '2'
_symmetry_cell_setting 'tetragonal'
loop_
_space_group_symop_operation_xyz
x,y,z
1/2-y,x,1/2+z
1/2-x,1/2-y,z
y,1/2-x,1/2+z
1/2+x,-y,-z
-x,1/2+y,-z
1/2+y,1/2+x,1/2-z
-y,-x,1/2-z
-x,-y,-z
1/2+y,-x,1/2-z
1/2+x,1/2+y,-z
-y,1/2+x,1/2-z
1/2-x,y,z
x,1/2-y,z
1/2-y,1/2-x,1/2+z
y,x,1/2+z
loop_
_atom_site_type_symbol
_atom_site_label
_atom_site_fract_x
_atom_site_fract_y
_atom_site_fract_z
Si Si1 0.551408 0.103480 0.995079
Si Si2 0.484504 0.316780 0.652102
Si Si3 0.101666 0.685542 0.210160
Si Si4 0.817330 0.413009 0.286414
Si Si5 0.996962 0.135487 0.403965
Si Si6 0.064958 0.031030 0.303711
O O1 0.554692 0.148644 0.104848
O O2 0.588607 0.047324 0.034762
O O3 0.580723 0.137059 0.883615
O O4 0.490445 0.081456 0.938421
O O5 0.463391 0.250000 0.684119
O O6 0.554750 0.314957 0.681489
O O7 0.472851 0.330733 0.513437
O O8 0.465307 0.374278 0.728458
O O9 0.165931 0.665931 0.250000
O O10 0.100109 0.750000 0.155462
O O11 0.855729 0.355729 0.250000
O O12 0.750000 0.399163 0.315949
O O13 0.821483 0.457091 0.174505
O O14 0.036176 0.094932 0.317382
O O15 0.017625 0.982375 0.250000
#
# Coordination Sequence:
#
# PCOD9569985 Si02
#       6
#    16  16  16  16  16  16
#     4  10  18  33  49  72 101 135 171 216 274 323
#     4  10  20  34  51  72 105 140 167 205 262 320
#     4  10  18  31  48  66  94 137 183 226 262 297
#     4  10  22  35  50  73 104 145 189 226 262 308
#     4  11  20  32  54  75 106 136 172 215 270 319
#     4  11  20  32  55  82 105 135 173 218 266 325
#
# _framework density 16.675319999999999
#
# number of rings (size 3 to 8) (size 9 to 14) (size 15 to 20)
#    0.000    1.667    3.333    4.000    2.333    1.000 
#    0.000    0.000    0.000    2.000    0.000    0.000 
#    0.000    5.333    0.000    0.000    0.000    0.000 
#
# Total GULP energy -534656.846099 kJ/mol
# GULP energy per Si atom -5569.342147 kJ/mol
# Density = 1.663737 g / cm^3
# Si number density = 16.675320 Si / 1000 Ang^3
#
#
#
# Elastic Constant Matrix: (Units=GPa)
#
#
# Indices 1 2 3 4 5 6 
#
# 1 63.3997 37.3288 13.1222 0.0000 0.0000 0.0000
# 2 37.3288 63.4000 13.1225 0.0000 0.0000 0.0000
# 3 13.1222 13.1225 57.2267 0.0000 0.0000 0.0000
# 4 0.0000 0.0000 0.0000 13.6453 0.0000 0.0000
# 5 0.0000 0.0000 0.0000 0.0000 13.6451 0.0000
# 6 0.0000 0.0000 0.0000 0.0000 0.0000 14.0634
#
#
#
# Elastic Compliance Matrix: (Units=1/GPa)
#
#
# Indices 1 2 3 4 5 6 
#
# 1 0.024458 -0.013899 -0.002421 0.000000 0.000000 0.000000
# 2 -0.013899 0.024458 -0.002421 0.000000 0.000000 0.000000
# 3 -0.002421 -0.002421 0.018585 0.000000 0.000000 0.000000
# 4 0.000000 0.000000 0.000000 0.073285 0.000000 0.000000
# 5 0.000000 0.000000 0.000000 0.000000 0.073287 0.000000
# 6 0.000000 0.000000 0.000000 0.000000 0.000000 0.071107
#
#
# Mechanical properties :
#
#
# Convention : Reuss Voigt Hill
#
# Bulk Modulus (GPa) = 33.31421 34.57483 33.94452
# Shear Modulus (GPa) = 15.03006 16.30094 15.66550
#
# Velocity S-wave (km/s) = 3.00548 3.12997 3.06836
# Velocity P-wave (km/s) = 5.66263 5.81734 5.74051
#
# Compressibility (1/GPa) = 0.03001722
#
# Stress axis : x y z
#
# Youngs Moduli (GPa) = 40.88705 40.88721 53.80766
#
# Poissons Ratio (x) = 0.56830 0.13027
# Poissons Ratio (y) = 0.56829 0.13028
# Poissons Ratio (z) = 0.09899 0.09900
#
# Static dielectric constant tensor:
#      x y z
#    x 1.566610 0.000000 0.000000 
#    y 0.000000 1.566610 0.000000 
#    z 0.000000 0.000000 1.608020 
# 
# From -- ./inp_files/3861.got.cif
#   From: 2010.05.17/outbox.cif.g08.bks.cpg/sg137_2_cif.got.tgz:3861.got - 2010.05.20 13:01:12.
