data_PCOD9569250
_publ_section_title
;
Structure prediction by ZEFSAII (Michael W. Deem and Ramdas Pophale) SiO2 
 PCOD9569250
Probable space group: P 42/M N M
;
_chemical_formula_sum "Si O2"
_cell_formula_units_Z 128
_cell_length_a 24.029920
_cell_length_b 24.029920
_cell_length_c 12.598990
_cell_angle_alpha 90.000000
_cell_angle_beta 90.000000
_cell_angle_gamma 90.000000
_cell_volume 7275.123684
_symmetry_space_group_name_H-M "P 42/M N M"
_symmetry_group_IT_number 136
_symmetry_cell_setting 'tetragonal'
loop_
_space_group_symop_operation_xyz
x,y,z
1/2-y,1/2+x,1/2+z
-x,-y,z
1/2+y,1/2-x,1/2+z
1/2+x,1/2-y,1/2-z
1/2-x,1/2+y,1/2-z
y,x,-z
-y,-x,-z
-x,-y,-z
1/2+y,1/2-x,1/2-z
x,y,-z
1/2-y,1/2+x,1/2-z
1/2-x,1/2+y,1/2+z
1/2+x,1/2-y,1/2+z
-y,-x,z
y,x,z
loop_
_atom_site_type_symbol
_atom_site_label
_atom_site_fract_x
_atom_site_fract_y
_atom_site_fract_z
Si Si1 0.138037 0.047227 0.874198
Si Si2 0.483880 0.251959 0.880312
Si Si3 0.082559 0.253336 0.210650
Si Si4 0.733929 0.823933 0.382337
Si Si5 0.429758 0.336706 0.263985
Si Si6 0.855455 0.558415 0.224299
Si Si7 0.545984 0.130552 0.624247
Si Si8 0.118622 0.729932 0.120643
O O1 0.085313 0.085313 0.842698
O O2 0.194726 0.081708 0.850080
O O3 0.142312 0.988151 0.813893
O O4 0.134850 0.036648 0.000000
O O5 0.534036 0.253224 0.797575
O O6 0.443046 0.301155 0.841921
O O7 0.458678 0.190542 0.863092
O O8 0.501546 0.260404 0.000000
O O9 0.136063 0.267434 0.281509
O O10 0.066478 0.305440 0.137291
O O11 0.726811 0.851233 0.500000
O O12 0.792144 0.792144 0.381926
O O13 0.684665 0.778761 0.375294
O O14 0.386886 0.386886 0.249514
O O15 0.402827 0.289486 0.340052
O O16 0.875303 0.506179 0.295495
O O17 0.905361 0.591143 0.169308
O O18 0.819029 0.594703 0.306310
O O19 0.533590 0.119490 0.500000
O O20 0.099447 0.721731 0.000000
#
# Coordination Sequence:
#
# PCOD9569250 Si02
#       8
#    16  16  16  16  16  16  16  16
#     4  10  21  36  55  81 112 147 186 229 280 336
#     4   9  19  35  56  78 106 145 186 228 273 327
#     4  10  19  35  56  80 109 142 185 226 273 331
#     4  10  19  30  50  81 113 142 175 222 275 325
#     4  10  21  35  55  81 111 147 188 234 280 331
#     4  10  21  37  55  82 110 141 186 225 272 328
#     4  11  22  38  59  81 109 146 183 228 278 327
#     4  10  19  34  54  79 110 143 181 226 275 326
#
# _framework density 17.594201999999999
#
# number of rings (size 3 to 8) (size 9 to 14) (size 15 to 20)
#    0.000    2.000    1.250    3.375    0.000    2.250 
#    0.000    3.125    0.000    3.375    0.000    3.500 
#    0.000    0.000    0.000    0.000    0.000    0.000 
#
# Total GULP energy -713532.351712 kJ/mol
# GULP energy per Si atom -5574.471498 kJ/mol
# Density = 1.755416 g / cm^3
# Si number density = 17.594202 Si / 1000 Ang^3
#
#
#
# Elastic Constant Matrix: (Units=GPa)
#
#
# Indices 1 2 3 4 5 6 
#
# 1 83.6515 44.9087 22.5035 0.0000 0.0000 0.0000
# 2 44.9087 83.6515 22.5035 0.0000 0.0000 0.0000
# 3 22.5035 22.5035 64.0037 0.0000 0.0000 0.0000
# 4 0.0000 0.0000 0.0000 -20.0654 0.0000 0.0000
# 5 0.0000 0.0000 0.0000 0.0000 -20.0654 0.0000
# 6 0.0000 0.0000 0.0000 0.0000 0.0000 35.9376
#
#
#
# Elastic Compliance Matrix: (Units=1/GPa)
#
#
# Indices 1 2 3 4 5 6 
#
# 1 0.017341 -0.008470 -0.003119 0.000000 0.000000 0.000000
# 2 -0.008470 0.017341 -0.003119 0.000000 0.000000 0.000000
# 3 -0.003119 -0.003119 0.017817 0.000000 0.000000 0.000000
# 4 0.000000 0.000000 0.000000 -0.049837 0.000000 0.000000
# 5 0.000000 0.000000 0.000000 0.000000 -0.049837 0.000000
# 6 0.000000 0.000000 0.000000 0.000000 0.000000 0.027826
#
#
# Mechanical properties :
#
#
# Convention : Reuss Voigt Hill
#
# Bulk Modulus (GPa) = 43.32250 45.68203 44.50226
# Shear Modulus (GPa) = 281.51302 8.58741 145.05021
#
# Velocity S-wave (km/s) = 12.66296 2.21165 9.08961
# Velocity P-wave (km/s) = 15.44272 5.70460 11.64088
#
# Compressibility (1/GPa) = 0.02308270
#
# Stress axis : x y z
#
# Youngs Moduli (GPa) = 57.66753 57.66753 56.12558
#
# Poissons Ratio (x) = 0.48847 0.17504
# Poissons Ratio (y) = 0.48847 0.17504
# Poissons Ratio (z) = 0.17985 0.17985
#
# Static dielectric constant tensor:
#      x y z
#    x 1.610140 0.000000 0.000000 
#    y 0.000000 1.610140 0.000000 
#    z 0.000000 0.000000 1.616060 
# 
# From -- ./inp_files/4091.got.cif
#   From: 2010.05.17/outbox.cif.g08.bks.cpg/sg136_3_cif.got.tgz:4091.got - 2010.05.20 12:54:53.
