data_PCOD9569037
_publ_section_title
;
Structure prediction by ZEFSAII (Michael W. Deem and Ramdas Pophale) SiO2 
 PCOD9569037
Probable space group: P 42/M B C
;
_chemical_formula_sum "Si O2"
_cell_formula_units_Z 116
_cell_length_a 16.867652
_cell_length_b 16.867652
_cell_length_c 19.467284
_cell_angle_alpha 90.000000
_cell_angle_beta 90.000000
_cell_angle_gamma 90.000000
_cell_volume 5538.786557
_symmetry_space_group_name_H-M "P 42/M B C"
_symmetry_group_IT_number 135
_symmetry_cell_setting 'tetragonal'
loop_
_space_group_symop_operation_xyz
x,y,z
-y,x,1/2+z
-x,-y,z
y,-x,1/2+z
1/2+x,1/2-y,-z
1/2-x,1/2+y,-z
1/2+y,1/2+x,1/2-z
1/2-y,1/2-x,1/2-z
-x,-y,-z
y,-x,1/2-z
x,y,-z
-y,x,1/2-z
1/2-x,1/2+y,z
1/2+x,1/2-y,z
1/2-y,1/2-x,1/2+z
1/2+y,1/2+x,1/2+z
loop_
_atom_site_type_symbol
_atom_site_label
_atom_site_fract_x
_atom_site_fract_y
_atom_site_fract_z
Si Si1 0.268731 0.646704 0.717252
Si Si2 0.057147 0.653180 0.582239
Si Si3 0.614762 0.124259 0.919818
Si Si4 0.843988 0.472036 0.665512
Si Si5 0.798483 0.159024 0.077494
Si Si6 0.500000 0.000000 0.750000
Si Si7 0.920181 0.086657 0.716072
Si Si8 0.664155 0.471939 0.079667
O O1 0.209905 0.709905 0.750000
O O2 0.223362 0.562679 0.714286
O O3 0.291543 0.665462 0.638955
O O4 0.349045 0.643288 0.760504
O O5 0.063621 0.645059 0.500000
O O6 0.122585 0.600638 0.619496
O O7 0.968879 0.621456 0.601479
O O8 0.060466 0.747296 0.597157
O O9 0.548668 0.173931 0.880142
O O10 0.703388 0.157517 0.913902
O O11 0.593080 0.123014 0.000000
O O12 0.919270 0.498481 0.708554
O O13 0.827263 0.067530 0.082607
O O14 0.816796 0.187222 0.000000
O O15 0.997944 0.102660 0.763543
O O16 0.942682 0.102681 0.636968
O O17 0.646008 0.451020 0.000000
#
# Coordination Sequence:
#
# PCOD9569037 Si02
#       8
#    16  16  16  16  16   4  16  16
#     4  12  26  42  62  94 131 171 212 265 331 397
#     4   9  17  32  58  88 120 161 208 257 306 372
#     4   9  18  35  60  85 116 161 210 257 314 376
#     4  12  22  35  55  87 130 164 209 255 311 379
#     4   9  20  41  64  92 128 167 214 267 325 391
#     4  12  24  36  46  84 136 168 196 258 294 374
#     4  11  24  45  69  95 128 166 217 274 323 379
#     4   9  18  38  68  95 123 168 217 261 321 390
#
# _framework density 20.943216
#
# number of rings (size 3 to 8) (size 9 to 14) (size 15 to 20)
#    0.000    1.793    3.448    2.897    0.000    3.310 
#    1.241    2.759    0.000    0.000    0.000    0.000 
#    0.000    0.000    0.000    0.000    0.000    0.000 
#
# Total GULP energy -648083.266281 kJ/mol
# GULP energy per Si atom -5586.924709 kJ/mol
# Density = 2.089555 g / cm^3
# Si number density = 20.943216 Si / 1000 Ang^3
#
#
#
# Elastic Constant Matrix: (Units=GPa)
#
#
# Indices 1 2 3 4 5 6 
#
# 1 29.5225 14.4631 19.6913 0.0000 0.0000 0.0000
# 2 14.4631 29.5225 19.6913 0.0000 0.0000 0.0000
# 3 19.6913 19.6913 95.7166 0.0000 0.0000 0.0000
# 4 0.0000 0.0000 0.0000 12.2600 0.0000 0.0000
# 5 0.0000 0.0000 0.0000 0.0000 12.2600 0.0000
# 6 0.0000 0.0000 0.0000 0.0000 0.0000 -5.6949
#
#
#
# Elastic Compliance Matrix: (Units=1/GPa)
#
#
# Indices 1 2 3 4 5 6 
#
# 1 0.047136 -0.019268 -0.005733 0.000000 0.000000 0.000000
# 2 -0.019268 0.047136 -0.005733 0.000000 0.000000 0.000000
# 3 -0.005733 -0.005733 0.012806 0.000000 0.000000 0.000000
# 4 0.000000 0.000000 0.000000 0.081566 0.000000 0.000000
# 5 0.000000 0.000000 0.000000 0.000000 0.081566 0.000000
# 6 0.000000 0.000000 0.000000 0.000000 0.000000 -0.175596
#
#
# Mechanical properties :
#
#
# Convention : Reuss Voigt Hill
#
# Bulk Modulus (GPa) = 21.92520 29.16147 25.54333
# Shear Modulus (GPa) = 29.19110 10.49275 19.84192
#
# Velocity S-wave (km/s) = 3.73744 2.24075 3.08135
# Velocity P-wave (km/s) = 5.39595 4.54411 4.98824
#
# Compressibility (1/GPa) = 0.04560963
#
# Stress axis : x y z
#
# Youngs Moduli (GPa) = 21.21527 21.21527 78.08585
#
# Poissons Ratio (x) = 0.40878 0.44768
# Poissons Ratio (y) = 0.40878 0.44768
# Poissons Ratio (z) = 0.12163 0.12163
#
# Static dielectric constant tensor:
#      x y z
#    x 1.718860 0.000000 0.000000 
#    y 0.000000 1.718860 0.000000 
#    z 0.000000 0.000000 1.766320 
# 
# From -- ./inp_files/4605.got.cif
#   From: 2010.05.17/outbox.cif.g08.bks.cpg/sg135_3_cif.got.tgz:4605.got - 2010.05.20 12:50:20.
