data_PCOD9569310
_publ_section_title
;
Structure prediction by ZEFSAII (Michael W. Deem and Ramdas Pophale) SiO2 
 PCOD9569310
Probable space group: P 42/M N M
;
_chemical_formula_sum "Si O2"
_cell_formula_units_Z 96
_cell_length_a 14.427856
_cell_length_b 14.427856
_cell_length_c 22.629937
_cell_angle_alpha 90.000000
_cell_angle_beta 90.000000
_cell_angle_gamma 90.000000
_cell_volume 4710.716226
_symmetry_space_group_name_H-M "P 42/M N M"
_symmetry_group_IT_number 136
_symmetry_cell_setting 'tetragonal'
loop_
_space_group_symop_operation_xyz
x,y,z
1/2-y,1/2+x,1/2+z
-x,-y,z
1/2+y,1/2-x,1/2+z
1/2+x,1/2-y,1/2-z
1/2-x,1/2+y,1/2-z
y,x,-z
-y,-x,-z
-x,-y,-z
1/2+y,1/2-x,1/2-z
x,y,-z
1/2-y,1/2+x,1/2-z
1/2-x,1/2+y,1/2+z
1/2+x,1/2-y,1/2+z
-y,-x,z
y,x,z
loop_
_atom_site_type_symbol
_atom_site_label
_atom_site_fract_x
_atom_site_fract_y
_atom_site_fract_z
Si Si1 0.500000 0.000000 0.648410
Si Si2 0.184428 0.495401 0.222272
Si Si3 0.439380 0.715803 0.115086
Si Si4 0.423626 0.423626 0.929847
Si Si5 0.705353 0.148562 0.929945
Si Si6 0.328459 0.060382 0.070539
Si Si7 0.790886 0.356212 0.686796
O O1 0.414452 0.024667 0.692458
O O2 0.457871 0.926189 0.602752
O O3 0.263500 0.543241 0.183015
O O4 0.190054 0.385429 0.211917
O O5 0.198763 0.540115 0.286206
O O6 0.361698 0.638302 0.102874
O O7 0.535770 0.675390 0.090044
O O8 0.393723 0.809683 0.089864
O O9 0.500000 0.500000 0.908616
O O10 0.424484 0.424484 0.000000
O O11 0.786606 0.213395 0.903996
O O12 0.719882 0.039936 0.920727
O O13 0.705019 0.160477 0.000000
O O14 0.287375 0.135360 0.115707
O O15 0.332657 0.080607 0.000000
O O16 0.703383 0.296618 0.707013
#
# Coordination Sequence:
#
# PCOD9569310 Si02
#       7
#     8  16  16   8  16  16  16
#     4  10  19  37  58  90 119 155 198 250 306 357
#     4  11  22  39  62  85 116 151 198 253 300 361
#     4  10  19  32  55  82 116 157 203 247 299 354
#     4   9  18  32  50  78 120 164 197 235 290 352
#     4   9  17  31  55  88 119 152 201 253 297 346
#     4  10  20  36  59  88 124 162 200 252 306 364
#     4  11  25  43  64  89 120 160 204 251 314 376
#
# _framework density 20.379066999999999
#
# number of rings (size 3 to 8) (size 9 to 14) (size 15 to 20)
#    0.000    1.917    1.667    3.250    1.167    3.000 
#    0.000    0.833    0.000    1.500    0.000    2.333 
#    0.000    0.000    0.000    0.000    0.000    0.000 
#
# Total GULP energy -534522.336980 kJ/mol
# GULP energy per Si atom -5567.941010 kJ/mol
# Density = 2.033268 g / cm^3
# Si number density = 20.379067 Si / 1000 Ang^3
#
#
#
# Elastic Constant Matrix: (Units=GPa)
#
#
# Indices 1 2 3 4 5 6 
#
# 1 41.1984 41.8615 30.6900 0.0000 0.0000 0.0000
# 2 41.8615 41.1984 30.6900 0.0000 0.0000 0.0000
# 3 30.6900 30.6900 109.8968 0.0000 0.0000 0.0000
# 4 0.0000 0.0000 0.0000 15.9631 0.0000 0.0000
# 5 0.0000 0.0000 0.0000 0.0000 15.9631 0.0000
# 6 0.0000 0.0000 0.0000 0.0000 0.0000 29.9599
#
#
#
# Elastic Compliance Matrix: (Units=1/GPa)
#
#
# Indices 1 2 3 4 5 6 
#
# 1 -0.746460 0.761630 -0.004236 0.000000 0.000000 0.000000
# 2 0.761630 -0.746460 -0.004236 0.000000 0.000000 0.000000
# 3 -0.004236 -0.004236 0.011466 0.000000 0.000000 0.000000
# 4 0.000000 0.000000 0.000000 0.062644 0.000000 0.000000
# 5 0.000000 0.000000 0.000000 0.000000 0.062644 0.000000
# 6 0.000000 0.000000 0.000000 0.000000 0.000000 0.033378
#
#
# Mechanical properties :
#
#
# Convention : Reuss Voigt Hill
#
# Bulk Modulus (GPa) = 40.22503 44.30852 42.26678
# Shear Modulus (GPa) = -1.77254 18.31404 8.27075
#
# Velocity S-wave (km/s) = -0.93363 3.00103 2.01675
# Velocity P-wave (km/s) = 4.31498 5.81357 5.11941
#
# Compressibility (1/GPa) = 0.02486014
#
# Stress axis : x y z
#
# Youngs Moduli (GPa) = -1.33966 -1.33966 87.21731
#
# Poissons Ratio (x) = 1.02032 0.36949
# Poissons Ratio (y) = 1.02032 0.36949
# Poissons Ratio (z) = -0.00568 -0.00568
#
# Static dielectric constant tensor:
#      x y z
#    x 1.792410 0.000000 0.000000 
#    y 0.000000 1.792410 0.000000 
#    z 0.000000 0.000000 1.737410 
# 
# From -- ./inp_files/7547.got.cif
#   From: 2010.05.17/outbox.cif.g08.bks.cpg/sg136_4_cif.got.tgz:7547.got - 2010.05.20 12:54:53.
