data_PCOD9569744
_publ_section_title
;
Structure prediction by ZEFSAII (Michael W. Deem and Ramdas Pophale) SiO2 
 PCOD9569744
Probable space group: P 42/M N M
;
_chemical_formula_sum "Si O2"
_cell_formula_units_Z 112
_cell_length_a 14.691839
_cell_length_b 14.691839
_cell_length_c 29.261225
_cell_angle_alpha 90.000000
_cell_angle_beta 90.000000
_cell_angle_gamma 90.000000
_cell_volume 6316.039314
_symmetry_space_group_name_H-M "P 42/M N M"
_symmetry_group_IT_number 136
_symmetry_cell_setting 'tetragonal'
loop_
_space_group_symop_operation_xyz
x,y,z
1/2-y,1/2+x,1/2+z
-x,-y,z
1/2+y,1/2-x,1/2+z
1/2+x,1/2-y,1/2-z
1/2-x,1/2+y,1/2-z
y,x,-z
-y,-x,-z
-x,-y,-z
1/2+y,1/2-x,1/2-z
x,y,-z
1/2-y,1/2+x,1/2-z
1/2-x,1/2+y,1/2+z
1/2+x,1/2-y,1/2+z
-y,-x,z
y,x,z
loop_
_atom_site_type_symbol
_atom_site_label
_atom_site_fract_x
_atom_site_fract_y
_atom_site_fract_z
Si Si1 0.224388 0.931562 0.383661
Si Si2 0.669159 0.179267 0.450630
Si Si3 0.229599 0.373911 0.389728
Si Si4 0.643100 0.030991 0.195676
Si Si5 0.480602 0.664710 0.446540
Si Si6 0.460185 0.153094 0.799294
Si Si7 0.099884 0.254074 0.552998
O O1 0.138441 0.861560 0.382167
O O2 0.311434 0.884920 0.408601
O O3 0.262639 0.956452 0.333841
O O4 0.211436 0.018793 0.416498
O O5 0.655553 0.133359 0.500000
O O6 0.760320 0.239681 0.453786
O O7 0.589751 0.251241 0.443929
O O8 0.283212 0.283212 0.374604
O O9 0.201080 0.433427 0.346456
O O10 0.298932 0.433634 0.419575
O O11 0.143681 0.340793 0.420463
O O12 0.683208 0.044853 0.246437
O O13 0.552580 0.094230 0.195400
O O14 0.616124 0.924619 0.191618
O O15 0.501644 0.650886 0.500000
O O16 0.424529 0.575472 0.430583
O O17 0.074276 0.273859 0.500000
O O18 0.180549 0.180549 0.550941
#
# Coordination Sequence:
#
# PCOD9569744 Si02
#       7
#    16  16  16  16  16  16  16
#     4  11  20  32  54  80 107 138 181 231 275 323
#     4   8  15  28  46  71 103 134 164 208 265 315
#     4  11  21  34  54  77 107 145 185 228 269 318
#     4   9  18  35  57  79 108 139 171 217 275 331
#     4   9  18  33  52  76 108 142 175 213 264 326
#     4   9  18  34  57  82 106 135 173 222 275 331
#     4  10  22  38  53  74 108 149 192 232 270 319
#
# _framework density 17.732631999999999
#
# number of rings (size 3 to 8) (size 9 to 14) (size 15 to 20)
#    0.000    2.429    1.429    3.429    0.000    2.857 
#    0.000    1.429    0.000    5.143    0.000    2.000 
#    0.000    0.000    0.000    0.000    0.000    0.000 
#
# Total GULP energy -623547.549832 kJ/mol
# GULP energy per Si atom -5567.388838 kJ/mol
# Density = 1.769227 g / cm^3
# Si number density = 17.732632 Si / 1000 Ang^3
#
#
#
# Elastic Constant Matrix: (Units=GPa)
#
#
# Indices 1 2 3 4 5 6 
#
# 1 49.2849 14.7871 34.7430 0.0000 0.0000 0.0000
# 2 14.7871 49.2849 34.7430 0.0000 0.0000 0.0000
# 3 34.7430 34.7430 115.1166 0.0000 0.0000 0.0000
# 4 0.0000 0.0000 0.0000 108.2206 0.0000 0.0000
# 5 0.0000 0.0000 0.0000 0.0000 108.2206 0.0000
# 6 0.0000 0.0000 0.0000 0.0000 0.0000 26.6904
#
#
#
# Elastic Compliance Matrix: (Units=1/GPa)
#
#
# Indices 1 2 3 4 5 6 
#
# 1 0.026094 -0.002893 -0.007002 0.000000 0.000000 0.000000
# 2 -0.002893 0.026094 -0.007002 0.000000 0.000000 0.000000
# 3 -0.007002 -0.007002 0.012914 0.000000 0.000000 0.000000
# 4 0.000000 0.000000 0.000000 0.009240 0.000000 0.000000
# 5 0.000000 0.000000 0.000000 0.000000 0.009240 0.000000
# 6 0.000000 0.000000 0.000000 0.000000 0.000000 0.037467
#
#
# Mechanical properties :
#
#
# Convention : Reuss Voigt Hill
#
# Bulk Modulus (GPa) = 31.94167 42.47029 37.20598
# Shear Modulus (GPa) = 30.25154 57.25390 43.75272
#
# Velocity S-wave (km/s) = 4.13483 5.68836 4.97264
# Velocity P-wave (km/s) = 6.39123 8.19424 7.34824
#
# Compressibility (1/GPa) = 0.03130707
#
# Stress axis : x y z
#
# Youngs Moduli (GPa) = 38.32236 38.32236 77.43793
#
# Poissons Ratio (x) = 0.11086 0.54225
# Poissons Ratio (y) = 0.11086 0.54225
# Poissons Ratio (z) = 0.26835 0.26835
#
# Static dielectric constant tensor:
#      x y z
#    x 1.621090 0.000000 0.000000 
#    y 0.000000 1.621090 0.000000 
#    z 0.000000 0.000000 1.623760 
# 
# From -- ./inp_files/9939.got.cif
#   From: 2010.05.17/outbox.cif.g08.bks.cpg/sg136_5_cif.got.tgz:9939.got - 2010.05.20 12:54:53.
