data_PCOD9569294
_publ_section_title
;
Structure prediction by ZEFSAII (Michael W. Deem and Ramdas Pophale) SiO2 
 PCOD9569294
Probable space group: P 42/M N M
;
_chemical_formula_sum "Si O2"
_cell_formula_units_Z 72
_cell_length_a 13.987346
_cell_length_b 13.987346
_cell_length_c 21.358758
_cell_angle_alpha 90.000000
_cell_angle_beta 90.000000
_cell_angle_gamma 90.000000
_cell_volume 4178.752324
_symmetry_space_group_name_H-M "P 42/M N M"
_symmetry_group_IT_number 136
_symmetry_cell_setting 'tetragonal'
loop_
_space_group_symop_operation_xyz
x,y,z
1/2-y,1/2+x,1/2+z
-x,-y,z
1/2+y,1/2-x,1/2+z
1/2+x,1/2-y,1/2-z
1/2-x,1/2+y,1/2-z
y,x,-z
-y,-x,-z
-x,-y,-z
1/2+y,1/2-x,1/2-z
x,y,-z
1/2-y,1/2+x,1/2-z
1/2-x,1/2+y,1/2+z
1/2+x,1/2-y,1/2+z
-y,-x,z
y,x,z
loop_
_atom_site_type_symbol
_atom_site_label
_atom_site_fract_x
_atom_site_fract_y
_atom_site_fract_z
Si Si1 0.433838 0.900898 0.000000
Si Si2 0.577154 0.577154 0.425200
Si Si3 0.829341 0.680189 0.872747
Si Si4 0.756630 0.093120 0.500000
Si Si5 0.139585 0.419247 0.251980
Si Si6 0.446689 0.204601 0.386516
O O1 0.491606 0.800242 0.000000
O O2 0.365969 0.904722 0.938993
O O3 0.500000 0.000000 0.000000
O O4 0.500000 0.500000 0.400568
O O5 0.572977 0.572977 0.500000
O O6 0.556329 0.685332 0.405531
O O7 0.785896 0.785896 0.865638
O O8 0.808507 0.622336 0.809101
O O9 0.942184 0.677441 0.881119
O O10 0.784526 0.637544 0.935746
O O11 0.868594 0.131407 0.500000
O O12 0.125166 0.533102 0.244447
O O13 0.189537 0.401072 0.318271
#
# Coordination Sequence:
#
# PCOD9569294 Si02
#       6
#     8   8  16   8  16  16
#     4  12  20  33  57  84 112 142 183 236 292 348
#     4  11  24  40  54  80 116 155 195 233 272 340
#     4  10  19  32  50  77 106 143 179 231 285 343
#     4  10  20  32  52  81 113 140 178 223 291 351
#     4   9  19  32  51  76 107 138 179 230 289 339
#     4  11  21  35  55  79 109 150 189 230 284 336
#
# _framework density 17.230022999999999
#
# number of rings (size 3 to 8) (size 9 to 14) (size 15 to 20)
#    0.000    1.667    3.333    2.000    4.667    0.000 
#    0.000    0.000    0.000    0.000    0.000    1.556 
#    0.000    0.000    0.000    0.222    0.000    0.000 
#
# Total GULP energy -400918.064462 kJ/mol
# GULP energy per Si atom -5568.306451 kJ/mol
# Density = 1.719081 g / cm^3
# Si number density = 17.230023 Si / 1000 Ang^3
#
#
#
# Elastic Constant Matrix: (Units=GPa)
#
#
# Indices 1 2 3 4 5 6 
#
# 1 76.2057 26.2917 42.0600 0.0000 0.0000 0.0000
# 2 26.2917 76.2060 42.0600 0.0000 0.0000 0.0000
# 3 42.0600 42.0600 153.3212 0.0000 0.0000 0.0000
# 4 0.0000 0.0000 0.0000 4.9803 0.0000 0.0000
# 5 0.0000 0.0000 0.0000 0.0000 4.9805 0.0000
# 6 0.0000 0.0000 0.0000 0.0000 0.0000 31.0789
#
#
#
# Elastic Compliance Matrix: (Units=1/GPa)
#
#
# Indices 1 2 3 4 5 6 
#
# 1 0.016313 -0.003722 -0.003454 0.000000 0.000000 0.000000
# 2 -0.003722 0.016313 -0.003454 0.000000 0.000000 0.000000
# 3 -0.003454 -0.003454 0.008417 0.000000 0.000000 0.000000
# 4 0.000000 0.000000 0.000000 0.200791 0.000000 0.000000
# 5 0.000000 0.000000 0.000000 0.000000 0.200785 0.000000
# 6 0.000000 0.000000 0.000000 0.000000 0.000000 0.032176
#
#
# Mechanical properties :
#
#
# Convention : Reuss Voigt Hill
#
# Bulk Modulus (GPa) = 50.54777 58.50624 54.52701
# Shear Modulus (GPa) = 9.94730 21.22934 15.58832
#
# Velocity S-wave (km/s) = 2.40536 3.51396 3.01112
# Velocity P-wave (km/s) = 6.09221 7.10588 6.61848
#
# Compressibility (1/GPa) = 0.01978327
#
# Stress axis : x y z
#
# Youngs Moduli (GPa) = 61.30167 61.30188 118.80247
#
# Poissons Ratio (x) = 0.22814 0.41035
# Poissons Ratio (y) = 0.22814 0.41035
# Poissons Ratio (z) = 0.21174 0.21174
#
# Static dielectric constant tensor:
#      x y z
#    x 1.607200 0.000000 0.000000 
#    y 0.000000 1.607200 0.000000 
#    z 0.000000 0.000000 1.594570 
# 
# From -- ./inp_files/6114.got.cif
#   From: 2010.05.17/outbox.cif.g08.bks.cpg/sg136_4_cif.got.tgz:6114.got - 2010.05.20 12:54:53.
