data_PCOD9569689
_publ_section_title
;
Structure prediction by ZEFSAII (Michael W. Deem and Ramdas Pophale) SiO2 
 PCOD9569689
Probable space group: P 42/M N M
;
_chemical_formula_sum "Si O2"
_cell_formula_units_Z 84
_cell_length_a 12.129145
_cell_length_b 12.129145
_cell_length_c 28.797363
_cell_angle_alpha 90.000000
_cell_angle_beta 90.000000
_cell_angle_gamma 90.000000
_cell_volume 4236.557418
_symmetry_space_group_name_H-M "P 42/M N M"
_symmetry_group_IT_number 136
_symmetry_cell_setting 'tetragonal'
loop_
_space_group_symop_operation_xyz
x,y,z
1/2-y,1/2+x,1/2+z
-x,-y,z
1/2+y,1/2-x,1/2+z
1/2+x,1/2-y,1/2-z
1/2-x,1/2+y,1/2-z
y,x,-z
-y,-x,-z
-x,-y,-z
1/2+y,1/2-x,1/2-z
x,y,-z
1/2-y,1/2+x,1/2-z
1/2-x,1/2+y,1/2+z
1/2+x,1/2-y,1/2+z
-y,-x,z
y,x,z
loop_
_atom_site_type_symbol
_atom_site_label
_atom_site_fract_x
_atom_site_fract_y
_atom_site_fract_z
Si Si1 0.920031 0.260538 0.787898
Si Si2 0.280061 0.096824 0.596404
Si Si3 0.129799 0.689159 0.447460
Si Si4 0.763213 0.497375 0.384963
Si Si5 0.244204 0.058844 0.700267
Si Si6 0.500000 0.500000 0.597629
O O1 0.832110 0.167891 0.803604
O O2 0.854704 0.374696 0.786242
O O3 0.010356 0.264497 0.828635
O O4 0.963469 0.231445 0.737333
O O5 0.179511 0.179511 0.586585
O O6 0.389409 0.171235 0.603311
O O7 0.255490 0.036405 0.645749
O O8 0.295600 0.000137 0.559821
O O9 0.152253 0.649504 0.500000
O O10 0.197233 0.802768 0.441409
O O11 0.175064 0.601338 0.410650
O O12 0.636719 0.500269 0.400757
O O13 0.142805 0.142805 0.705819
#
# Coordination Sequence:
#
# PCOD9569689 Si02
#       6
#    16  16  16  16  16   4
#     4  10  21  37  57  87 124 165 211 253 312 382
#     4  10  22  44  65  91 131 174 218 269 324 393
#     4  11  26  45  67  97 129 166 219 277 332 394
#     4  11  22  41  68  95 132 168 213 270 333 397
#     4   9  21  36  54  84 122 160 205 254 301 370
#     4  12  20  40  73 100 124 168 212 272 341 380
#
# _framework density 19.82742
#
# number of rings (size 3 to 8) (size 9 to 14) (size 15 to 20)
#    0.000    1.714    2.857    1.714    4.000    3.810 
#    0.000    3.810    0.000    0.000    0.000    0.000 
#    0.000    0.000    0.000    0.000    0.000    0.000 
#
# Total GULP energy -467917.640874 kJ/mol
# GULP energy per Si atom -5570.448106 kJ/mol
# Density = 1.978229 g / cm^3
# Si number density = 19.827420 Si / 1000 Ang^3
#
#
#
# Elastic Constant Matrix: (Units=GPa)
#
#
# Indices 1 2 3 4 5 6 
#
# 1 80.9076 17.3041 25.7344 0.0000 0.0000 0.0000
# 2 17.3041 80.9076 25.7344 0.0000 0.0000 0.0000
# 3 25.7344 25.7344 43.1825 0.0000 0.0000 0.0000
# 4 0.0000 0.0000 0.0000 1.0405 0.0000 0.0000
# 5 0.0000 0.0000 0.0000 0.0000 1.0405 0.0000
# 6 0.0000 0.0000 0.0000 0.0000 0.0000 8.8298
#
#
#
# Elastic Compliance Matrix: (Units=1/GPa)
#
#
# Indices 1 2 3 4 5 6 
#
# 1 0.015264 -0.000458 -0.008824 0.000000 0.000000 0.000000
# 2 -0.000458 0.015264 -0.008824 0.000000 0.000000 0.000000
# 3 -0.008824 -0.008824 0.033674 0.000000 0.000000 0.000000
# 4 0.000000 0.000000 0.000000 0.961122 0.000000 0.000000
# 5 0.000000 0.000000 0.000000 0.000000 0.961122 0.000000
# 6 0.000000 0.000000 0.000000 0.000000 0.000000 0.113253
#
#
# Mechanical properties :
#
#
# Convention : Reuss Voigt Hill
#
# Bulk Modulus (GPa) = 35.72440 38.06039 36.89240
# Shear Modulus (GPa) = 2.33074 11.26379 6.79727
#
# Velocity S-wave (km/s) = 1.08539 2.38605 1.85355
# Velocity P-wave (km/s) = 4.43030 5.17962 4.81955
#
# Compressibility (1/GPa) = 0.02799207
#
# Stress axis : x y z
#
# Youngs Moduli (GPa) = 65.51227 65.51227 29.69617
#
# Poissons Ratio (x) = 0.03001 0.26203
# Poissons Ratio (y) = 0.03001 0.26203
# Poissons Ratio (z) = 0.57806 0.57806
#
# Static dielectric constant tensor:
#      x y z
#    x 1.690550 0.000000 0.000000 
#    y 0.000000 1.690550 0.000000 
#    z 0.000000 0.000000 1.710750 
# 
# From -- ./inp_files/9683.got.cif
#   From: 2010.05.17/outbox.cif.g08.bks.cpg/sg136_5_cif.got.tgz:9683.got - 2010.05.20 12:54:53.
