data_PCOD9569938
_publ_section_title
;
Structure prediction by ZEFSAII (Michael W. Deem and Ramdas Pophale) SiO2 
 PCOD9569938
Probable space group: P 42/N M C
;
_chemical_formula_sum "Si O2"
_cell_formula_units_Z 96
_cell_length_a 27.785685
_cell_length_b 27.785685
_cell_length_c 8.329967
_cell_angle_alpha 90.000000
_cell_angle_beta 90.000000
_cell_angle_gamma 90.000000
_cell_volume 6431.103466
_symmetry_space_group_name_H-M "P 42/N M C"
_symmetry_group_IT_number 137
_space_group.IT_coordinate_system_code '2'
_symmetry_cell_setting 'tetragonal'
loop_
_space_group_symop_operation_xyz
x,y,z
1/2-y,x,1/2+z
1/2-x,1/2-y,z
y,1/2-x,1/2+z
1/2+x,-y,-z
-x,1/2+y,-z
1/2+y,1/2+x,1/2-z
-y,-x,1/2-z
-x,-y,-z
1/2+y,-x,1/2-z
1/2+x,1/2+y,-z
-y,1/2+x,1/2-z
1/2-x,y,z
x,1/2-y,z
1/2-y,1/2-x,1/2+z
y,x,1/2+z
loop_
_atom_site_type_symbol
_atom_site_label
_atom_site_fract_x
_atom_site_fract_y
_atom_site_fract_z
Si Si1 0.387067 0.196357 0.272938
Si Si2 0.058090 0.076597 0.545893
Si Si3 0.006566 0.192694 0.125454
Si Si4 0.852268 0.556063 0.657495
Si Si5 0.630470 0.802635 0.351393
Si Si6 0.908503 0.486999 0.249099
O O1 0.372393 0.250000 0.229297
O O2 0.440213 0.189032 0.204468
O O3 0.347347 0.163101 0.194730
O O4 0.387294 0.193185 0.465738
O O5 0.109546 0.084375 0.456682
O O6 0.046591 0.113859 0.688342
O O7 0.016379 0.082489 0.415402
O O8 0.067063 0.023411 0.619787
O O9 0.992563 0.250000 0.132533
O O10 0.979660 0.148485 0.215569
O O11 0.013662 0.172006 0.944930
O O12 0.808682 0.587406 0.725269
O O13 0.653505 0.750000 0.333736
O O14 0.937798 0.437798 0.250000
#
# Coordination Sequence:
#
# PCOD9569938 Si02
#       6
#    16  16  16  16  16  16
#     4  10  21  33  43  56  75 102 138 182 227 268
#     4   9  18  29  45  68  93 116 146 184 223 272
#     4  10  20  33  47  63  85 113 147 181 216 264
#     4  10  17  28  44  62  83 112 143 178 219 260
#     4  11  20  29  42  57  74 100 139 183 225 263
#     4  10  18  30  48  70  96 123 150 183 227 271
#
# _framework density 14.927453
#
# number of rings (size 3 to 8) (size 9 to 14) (size 15 to 20)
#    0.000    2.000    0.000    7.000    0.000    2.333 
#    0.000    2.500    0.000    0.000    0.000    0.000 
#    0.000    0.333    0.000    0.000    0.000    0.500 
#
# Total GULP energy -534443.295156 kJ/mol
# GULP energy per Si atom -5567.117658 kJ/mol
# Density = 1.489348 g / cm^3
# Si number density = 14.927453 Si / 1000 Ang^3
#
#
#
# Elastic Constant Matrix: (Units=GPa)
#
#
# Indices 1 2 3 4 5 6 
#
# 1 66.7844 36.1787 25.6083 0.0000 0.0000 0.0000
# 2 36.1787 66.7844 25.6083 0.0000 0.0000 0.0000
# 3 25.6083 25.6083 71.6553 0.0000 0.0000 0.0000
# 4 0.0000 0.0000 0.0000 12.2218 0.0000 0.0000
# 5 0.0000 0.0000 0.0000 0.0000 12.2218 0.0000
# 6 0.0000 0.0000 0.0000 0.0000 0.0000 10.9505
#
#
#
# Elastic Compliance Matrix: (Units=1/GPa)
#
#
# Indices 1 2 3 4 5 6 
#
# 1 0.022243 -0.010431 -0.004221 0.000000 0.000000 0.000000
# 2 -0.010431 0.022243 -0.004221 0.000000 0.000000 0.000000
# 3 -0.004221 -0.004221 0.016973 0.000000 0.000000 0.000000
# 4 0.000000 0.000000 0.000000 0.081821 0.000000 0.000000
# 5 0.000000 0.000000 0.000000 0.000000 0.081821 0.000000
# 6 0.000000 0.000000 0.000000 0.000000 0.000000 0.091320
#
#
# Mechanical properties :
#
#
# Convention : Reuss Voigt Hill
#
# Bulk Modulus (GPa) = 42.17369 42.22388 42.19878
# Shear Modulus (GPa) = 13.80940 14.93406 14.37173
#
# Velocity S-wave (km/s) = 3.04485 3.16641 3.10622
# Velocity P-wave (km/s) = 6.37771 6.45877 6.41837
#
# Compressibility (1/GPa) = 0.02371147
#
# Stress axis : x y z
#
# Youngs Moduli (GPa) = 44.95824 44.95824 58.91700
#
# Poissons Ratio (x) = 0.46895 0.24871
# Poissons Ratio (y) = 0.46895 0.24871
# Poissons Ratio (z) = 0.18979 0.18979
#
# Static dielectric constant tensor:
#      x y z
#    x 1.549400 0.000000 0.000000 
#    y 0.000000 1.549400 0.000000 
#    z 0.000000 0.000000 1.551590 
# 
# From -- ./inp_files/2264.got.cif
#   From: 2010.05.17/outbox.cif.g08.bks.cpg/sg137_2_cif.got.tgz:2264.got - 2010.05.20 13:01:12.
