data_PCOD9569906
_publ_section_title
;
Structure prediction by ZEFSAII (Michael W. Deem and Ramdas Pophale) SiO2 
 PCOD9569906
Probable space group: P 42/M N M
;
_chemical_formula_sum "Si O2"
_cell_formula_units_Z 128
_cell_length_a 21.000000
_cell_length_b 21.000000
_cell_length_c 18.000000
_cell_angle_alpha 90.000000
_cell_angle_beta 90.000000
_cell_angle_gamma 90.000000
_cell_volume 7938.000000
_symmetry_space_group_name_H-M "P 42/M N M"
_symmetry_group_IT_number 136
_symmetry_cell_setting 'tetragonal'
loop_
_space_group_symop_operation_xyz
x,y,z
1/2-y,1/2+x,1/2+z
-x,-y,z
1/2+y,1/2-x,1/2+z
1/2+x,1/2-y,1/2-z
1/2-x,1/2+y,1/2-z
y,x,-z
-y,-x,-z
-x,-y,-z
1/2+y,1/2-x,1/2-z
x,y,-z
1/2-y,1/2+x,1/2-z
1/2-x,1/2+y,1/2+z
1/2+x,1/2-y,1/2+z
-y,-x,z
y,x,z
loop_
_atom_site_type_symbol
_atom_site_label
_atom_site_fract_x
_atom_site_fract_y
_atom_site_fract_z
Si Si1 0.153380 0.564918 0.669802
Si Si2 0.328223 0.143162 0.689235
Si Si3 0.236882 0.662342 0.588324
Si Si4 0.851894 0.250445 0.314921
Si Si5 0.059168 0.614424 0.088070
Si Si6 0.214874 0.112409 0.414571
Si Si7 0.897926 0.526960 0.915449
Si Si8 0.748492 0.528815 0.084408
O O1 0.160373 0.581953 0.756467
O O2 0.213340 0.598908 0.629565
O O3 0.146007 0.493699 0.640619
O O4 0.086156 0.593538 0.639615
O O5 0.343702 0.202263 0.744319
O O6 0.375285 0.140877 0.619759
O O7 0.259565 0.140274 0.650635
O O8 0.232400 0.654874 0.500000
O O9 0.305356 0.694645 0.606284
O O10 0.185483 0.713033 0.618626
O O11 0.814136 0.185865 0.298882
O O12 0.921056 0.238739 0.349575
O O13 0.063062 0.537614 0.099208
O O14 0.049977 0.625710 0.000000
O O15 0.240024 0.122562 0.500000
O O16 0.148146 0.148146 0.410885
O O17 0.211157 0.036687 0.404929
O O18 0.823349 0.510246 0.914813
O O19 0.914024 0.548560 0.000000
O O20 0.735774 0.553912 0.000000
#
# Coordination Sequence:
#
# PCOD9569906 Si02
#       8
#    16  16  16  16  16  16  16  16
#     4  11  22  31  48  69 102 134 174 216 263 294
#     4  11  22  33  51  72 101 135 178 219 250 297
#     4   9  16  28  46  67  94 129 167 203 247 302
#     4  10  20  32  49  75 103 129 161 207 259 306
#     4  11  23  35  49  69 100 142 182 214 251 302
#     4  10  21  38  58  75  98 136 177 215 257 308
#     4  10  18  33  49  66  97 139 175 210 247 299
#     4  10  18  32  54  75  99 128 167 210 257 316
#
# _framework density 16.124969
#
# number of rings (size 3 to 8) (size 9 to 14) (size 15 to 20)
#    0.000    1.750    3.750    2.625    3.500    2.250 
#    0.000    0.000    0.000    0.375    0.000    1.750 
#    0.000    0.000    0.000    0.000    0.000    1.250 
#
# Total GULP energy -713292.166191 kJ/mol
# GULP energy per Si atom -5572.595048 kJ/mol
# Density = 1.608827 g / cm^3
# Si number density = 16.124969 Si / 1000 Ang^3
#
#
#
# Elastic Constant Matrix: (Units=GPa)
#
#
# Indices 1 2 3 4 5 6 
#
# 1 39.5109 24.8896 17.1874 0.0000 0.0000 0.0000
# 2 24.8896 39.5109 17.1874 0.0000 0.0000 0.0000
# 3 17.1874 17.1874 67.3245 0.0000 0.0000 0.0000
# 4 0.0000 0.0000 0.0000 19.3311 0.0000 0.0000
# 5 0.0000 0.0000 0.0000 0.0000 19.3311 0.0000
# 6 0.0000 0.0000 0.0000 0.0000 0.0000 27.4049
#
#
#
# Elastic Compliance Matrix: (Units=1/GPa)
#
#
# Indices 1 2 3 4 5 6 
#
# 1 0.043185 -0.025208 -0.004590 0.000000 0.000000 0.000000
# 2 -0.025208 0.043185 -0.004590 0.000000 0.000000 0.000000
# 3 -0.004590 -0.004590 0.017197 0.000000 0.000000 0.000000
# 4 0.000000 0.000000 0.000000 0.051730 0.000000 0.000000
# 5 0.000000 0.000000 0.000000 0.000000 0.051730 0.000000
# 6 0.000000 0.000000 0.000000 0.000000 0.000000 0.036490
#
#
# Mechanical properties :
#
#
# Convention : Reuss Voigt Hill
#
# Bulk Modulus (GPa) = 28.74077 29.43057 29.08567
# Shear Modulus (GPa) = 15.43736 19.01887 17.22812
#
# Velocity S-wave (km/s) = 3.09748 3.43806 3.27220
# Velocity P-wave (km/s) = 5.53669 5.83537 5.68799
#
# Compressibility (1/GPa) = 0.03479378
#
# Stress axis : x y z
#
# Youngs Moduli (GPa) = 23.15597 23.15597 58.15043
#
# Poissons Ratio (x) = 0.58371 0.26688
# Poissons Ratio (y) = 0.58371 0.26688
# Poissons Ratio (z) = 0.10627 0.10627
#
# Static dielectric constant tensor:
#      x y z
#    x 1.565090 0.000000 0.000000 
#    y 0.000000 1.565090 0.000000 
#    z 0.000000 0.000000 1.547040 
# 
# From -- ./inp_files/6632.got.cif
#   From: 2010.05.17/outbox.ucp.g08.bks.cvg/sg136_4_cif.got.tgz:6632.got - 2010.06.11 11:40:42.
