data_PCOD9569135
_publ_section_title
;
Structure prediction by ZEFSAII (Michael W. Deem and Ramdas Pophale) SiO2 
 PCOD9569135
Probable space group: P 42/M N M
;
_chemical_formula_sum "Si O2"
_cell_formula_units_Z 96
_cell_length_a 25.552416
_cell_length_b 25.552416
_cell_length_c 7.546365
_cell_angle_alpha 90.000000
_cell_angle_beta 90.000000
_cell_angle_gamma 90.000000
_cell_volume 4927.217638
_symmetry_space_group_name_H-M "P 42/M N M"
_symmetry_group_IT_number 136
_symmetry_cell_setting 'tetragonal'
loop_
_space_group_symop_operation_xyz
x,y,z
1/2-y,1/2+x,1/2+z
-x,-y,z
1/2+y,1/2-x,1/2+z
1/2+x,1/2-y,1/2-z
1/2-x,1/2+y,1/2-z
y,x,-z
-y,-x,-z
-x,-y,-z
1/2+y,1/2-x,1/2-z
x,y,-z
1/2-y,1/2+x,1/2-z
1/2-x,1/2+y,1/2+z
1/2+x,1/2-y,1/2+z
-y,-x,z
y,x,z
loop_
_atom_site_type_symbol
_atom_site_label
_atom_site_fract_x
_atom_site_fract_y
_atom_site_fract_z
Si Si1 0.708234 0.708234 0.294362
Si Si2 0.794138 0.526955 0.705740
Si Si3 0.172908 0.984767 0.714606
Si Si4 0.182172 0.099455 0.714493
Si Si5 0.378490 0.378490 0.784647
Si Si6 0.857828 0.305596 0.794132
Si Si7 0.303722 0.087926 0.207039
O O1 0.720750 0.720750 0.500000
O O2 0.663667 0.663667 0.282496
O O3 0.761238 0.681615 0.218017
O O4 0.811099 0.527078 0.500000
O O5 0.731282 0.524106 0.714819
O O6 0.807514 0.583628 0.785320
O O7 0.813010 0.470873 0.781360
O O8 0.175918 0.983366 0.500000
O O9 0.137398 0.936602 0.771861
O O10 0.157214 0.043526 0.765341
O O11 0.183746 0.101581 0.500000
O O12 0.147796 0.147796 0.778200
O O13 0.241803 0.098940 0.776562
O O14 0.376291 0.376291 0.000000
O O15 0.833261 0.362996 0.789017
O O16 0.865244 0.289598 0.000000
O O17 0.317389 0.087229 0.000000
#
# Coordination Sequence:
#
# PCOD9569135 Si02
#       7
#     8  16  16  16   8  16  16
#     4  10  20  32  50  73  99 133 168 195 235 292
#     4   9  18  34  53  71  95 128 166 200 235 288
#     4   9  17  29  46  69  95 126 164 205 248 290
#     4   9  18  33  50  66  92 133 174 204 237 290
#     4  10  18  28  45  72 102 126 156 206 257 291
#     4  10  20  34  52  75 102 132 164 198 238 291
#     4  10  21  34  51  77 102 126 159 203 249 288
#
# _framework density 19.483612999999998
#
# number of rings (size 3 to 8) (size 9 to 14) (size 15 to 20)
#    0.000    2.500    1.667    0.500    1.167    2.333 
#    0.000    0.417    0.000    3.000    0.000    3.500 
#    0.000    6.000    0.000    0.000    0.000    0.000 
#
# Total GULP energy -535044.991653 kJ/mol
# GULP energy per Si atom -5573.385330 kJ/mol
# Density = 1.943927 g / cm^3
# Si number density = 19.483613 Si / 1000 Ang^3
#
#
#
# Elastic Constant Matrix: (Units=GPa)
#
#
# Indices 1 2 3 4 5 6 
#
# 1 105.7710 68.4704 -1.5932 0.0000 0.0000 0.0000
# 2 68.4704 105.7710 -1.5932 0.0000 0.0000 0.0000
# 3 -1.5932 -1.5932 46.5338 0.0000 0.0000 0.0000
# 4 0.0000 0.0000 0.0000 -8.8183 0.0000 0.0000
# 5 0.0000 0.0000 0.0000 0.0000 -8.8183 0.0000
# 6 0.0000 0.0000 0.0000 0.0000 0.0000 27.9981
#
#
#
# Elastic Compliance Matrix: (Units=1/GPa)
#
#
# Indices 1 2 3 4 5 6 
#
# 1 0.016276 -0.010533 0.000197 0.000000 0.000000 0.000000
# 2 -0.010533 0.016276 0.000197 0.000000 0.000000 0.000000
# 3 0.000197 0.000197 0.021503 0.000000 0.000000 0.000000
# 4 0.000000 0.000000 0.000000 -0.113400 0.000000 0.000000
# 5 0.000000 0.000000 0.000000 0.000000 -0.113400 0.000000
# 6 0.000000 0.000000 0.000000 0.000000 0.000000 0.035717
#
#
# Mechanical properties :
#
#
# Convention : Reuss Voigt Hill
#
# Bulk Modulus (GPa) = 29.60752 43.18265 36.39509
# Shear Modulus (GPa) = -47.39758 14.92509 -16.23624
#
# Velocity S-wave (km/s) = -4.93758 2.77073 -2.88987
# Velocity P-wave (km/s) = 4.15658 5.69628 2.75413
#
# Compressibility (1/GPa) = 0.03377520
#
# Stress axis : x y z
#
# Youngs Moduli (GPa) = 61.44029 61.44029 46.50468
#
# Poissons Ratio (x) = 0.64716 -0.00914
# Poissons Ratio (y) = 0.64716 -0.00914
# Poissons Ratio (z) = -0.01208 -0.01208
#
# Static dielectric constant tensor:
#      x y z
#    x 1.678420 0.000000 0.000000 
#    y 0.000000 1.678420 0.000000 
#    z 0.000000 0.000000 1.857120 
# 
# From -- ./inp_files/2094.got.cif
#   From: 2010.05.17/outbox.cif.g08.bks.cpg/sg136_2_cif.got.tgz:2094.got - 2010.05.20 12:54:53.
