data_PCOD9569737
_publ_section_title
;
Structure prediction by ZEFSAII (Michael W. Deem and Ramdas Pophale) SiO2 
 PCOD9569737
Probable space group: P 42/M N M
;
_chemical_formula_sum "Si O2"
_cell_formula_units_Z 44
_cell_length_a 9.848532
_cell_length_b 9.848532
_cell_length_c 19.931080
_cell_angle_alpha 90.000000
_cell_angle_beta 90.000000
_cell_angle_gamma 90.000000
_cell_volume 1933.186853
_symmetry_space_group_name_H-M "P 42/M N M"
_symmetry_group_IT_number 136
_symmetry_cell_setting 'tetragonal'
loop_
_space_group_symop_operation_xyz
x,y,z
1/2-y,1/2+x,1/2+z
-x,-y,z
1/2+y,1/2-x,1/2+z
1/2+x,1/2-y,1/2-z
1/2-x,1/2+y,1/2-z
y,x,-z
-y,-x,-z
-x,-y,-z
1/2+y,1/2-x,1/2-z
x,y,-z
1/2-y,1/2+x,1/2-z
1/2-x,1/2+y,1/2+z
1/2+x,1/2-y,1/2+z
-y,-x,z
y,x,z
loop_
_atom_site_type_symbol
_atom_site_label
_atom_site_fract_x
_atom_site_fract_y
_atom_site_fract_z
Si Si1 0.278416 0.489519 0.076047
Si Si2 0.500000 0.000000 0.250000
Si Si3 0.002969 0.775088 0.000000
Si Si4 0.811945 0.582306 0.357987
O O1 0.399582 0.600419 0.071887
O O2 0.347974 0.347974 0.094639
O O3 0.176070 0.557503 0.126559
O O4 0.222606 0.478430 0.000000
O O5 0.361596 0.000357 0.205945
O O6 0.999233 0.704667 0.927514
O O7 0.151603 0.848398 0.000000
O O8 0.889415 0.889415 0.000000
O O9 0.678975 0.678975 0.348560
#
# Coordination Sequence:
#
# PCOD9569737 Si02
#       4
#    16   4   8  16
#     4   8  13  26  54  86 111 142 186 238 296 343
#     4  12  28  38  56  88 128 166 200 228 292 378
#     4   9  18  37  67  91 110 151 207 256 299 343
#     4  10  21  40  60  83 120 158 197 249 297 345
#
# _framework density 22.760342999999999
#
# number of rings (size 3 to 8) (size 9 to 14) (size 15 to 20)
#    0.000    2.727    1.818    1.091    0.000    3.636 
#    0.000    0.000    0.000    0.000    0.000    0.000 
#    0.000    0.000    0.000    0.000    0.000    0.000 
#
# Total GULP energy -245593.060347 kJ/mol
# GULP energy per Si atom -5581.660462 kJ/mol
# Density = 2.270854 g / cm^3
# Si number density = 22.760343 Si / 1000 Ang^3
#
#
#
# Elastic Constant Matrix: (Units=GPa)
#
#
# Indices 1 2 3 4 5 6 
#
# 1 45.3363 13.1747 31.9646 0.0000 0.0000 0.0000
# 2 13.1747 45.3368 31.9646 0.0000 0.0000 0.0000
# 3 31.9646 31.9646 120.4686 0.0000 0.0000 0.0000
# 4 0.0000 0.0000 0.0000 11.5425 0.0000 0.0000
# 5 0.0000 0.0000 0.0000 0.0000 11.5430 0.0000
# 6 0.0000 0.0000 0.0000 0.0000 0.0000 29.6425
#
#
#
# Elastic Compliance Matrix: (Units=1/GPa)
#
#
# Indices 1 2 3 4 5 6 
#
# 1 0.027581 -0.003512 -0.006386 0.000000 0.000000 0.000000
# 2 -0.003512 0.027580 -0.006386 0.000000 0.000000 0.000000
# 3 -0.006386 -0.006386 0.011690 0.000000 0.000000 0.000000
# 4 0.000000 0.000000 0.000000 0.086636 0.000000 0.000000
# 5 0.000000 0.000000 0.000000 0.000000 0.086632 0.000000
# 6 0.000000 0.000000 0.000000 0.000000 0.000000 0.033735
#
#
# Mechanical properties :
#
#
# Convention : Reuss Voigt Hill
#
# Bulk Modulus (GPa) = 29.17012 40.59439 34.88226
# Shear Modulus (GPa) = 15.73063 19.48145 17.60604
#
# Velocity S-wave (km/s) = 2.63181 2.92882 2.78428
# Velocity P-wave (km/s) = 4.69886 5.41402 5.06907
#
# Compressibility (1/GPa) = 0.03428165
#
# Stress axis : x y z
#
# Youngs Moduli (GPa) = 36.25731 36.25780 85.54423
#
# Poissons Ratio (x) = 0.12735 0.54630
# Poissons Ratio (y) = 0.12735 0.54629
# Poissons Ratio (z) = 0.23155 0.23155
#
# Static dielectric constant tensor:
#      x y z
#    x 1.895440 0.000000 0.000000 
#    y 0.000000 1.895440 0.000000 
#    z 0.000000 0.000000 1.914660 
# 
# From -- ./inp_files/5662.got.cif
#   From: 2010.05.17/outbox.cif.g08.bks.cpg/sg136_3_cif.got.tgz:5662.got - 2010.05.20 12:54:53.
