data_PCOD9569524
_publ_section_title
;
Structure prediction by ZEFSAII (Michael W. Deem and Ramdas Pophale) SiO2 
 PCOD9569524
Probable space group: P 42/M N M
;
_chemical_formula_sum "Si O2"
_cell_formula_units_Z 56
_cell_length_a 19.655917
_cell_length_b 19.655917
_cell_length_c 8.691178
_cell_angle_alpha 90.000000
_cell_angle_beta 90.000000
_cell_angle_gamma 90.000000
_cell_volume 3357.880712
_symmetry_space_group_name_H-M "P 42/M N M"
_symmetry_group_IT_number 136
_symmetry_cell_setting 'tetragonal'
loop_
_space_group_symop_operation_xyz
x,y,z
1/2-y,1/2+x,1/2+z
-x,-y,z
1/2+y,1/2-x,1/2+z
1/2+x,1/2-y,1/2-z
1/2-x,1/2+y,1/2-z
y,x,-z
-y,-x,-z
-x,-y,-z
1/2+y,1/2-x,1/2-z
x,y,-z
1/2-y,1/2+x,1/2-z
1/2-x,1/2+y,1/2+z
1/2+x,1/2-y,1/2+z
-y,-x,z
y,x,z
loop_
_atom_site_type_symbol
_atom_site_label
_atom_site_fract_x
_atom_site_fract_y
_atom_site_fract_z
Si Si1 0.980334 0.209025 0.684814
Si Si2 0.127959 0.240164 0.184353
Si Si3 0.344973 0.232287 0.315841
Si Si4 0.055253 0.944748 0.687255
O O1 0.980974 0.210481 0.500000
O O2 0.918979 0.255126 0.746569
O O3 0.964669 0.131300 0.735699
O O4 0.053197 0.231342 0.748015
O O5 0.175232 0.175232 0.227403
O O6 0.167032 0.305873 0.249580
O O7 0.125371 0.243825 0.000000
O O8 0.348273 0.228082 0.500000
O O9 0.297084 0.297084 0.274434
O O10 0.054772 0.945229 0.500000
O O11 0.000000 0.000000 0.739886
#
# Coordination Sequence:
#
# PCOD9569524 Si02
#       4
#    16  16  16   8
#     4  11  20  33  54  79 110 145 182 223 272 324
#     4  10  21  36  54  78 109 143 183 228 273 321
#     4  10  20  35  55  78 106 141 184 228 272 323
#     4   9  18  30  47  75 111 147 179 212 259 324
#
# _framework density 16.677185000000001
#
# number of rings (size 3 to 8) (size 9 to 14) (size 15 to 20)
#    0.000    1.857    1.429    3.429    0.000    4.000 
#    0.000    0.000    0.000    4.286    0.000    6.000 
#    0.000    0.000    0.000    0.000    0.000    0.000 
#
# Total GULP energy -312758.081817 kJ/mol
# GULP energy per Si atom -5584.965747 kJ/mol
# Density = 1.663923 g / cm^3
# Si number density = 16.677185 Si / 1000 Ang^3
#
#
#
# Elastic Constant Matrix: (Units=GPa)
#
#
# Indices 1 2 3 4 5 6 
#
# 1 144.2747 109.5085 50.4130 0.0000 0.0000 0.0000
# 2 109.5085 144.2747 50.4130 0.0000 0.0000 0.0000
# 3 50.4130 50.4130 55.6668 0.0000 0.0000 0.0000
# 4 0.0000 0.0000 0.0000 26.2505 0.0000 0.0000
# 5 0.0000 0.0000 0.0000 0.0000 26.2505 0.0000
# 6 0.0000 0.0000 0.0000 0.0000 0.0000 23.3223
#
#
#
# Elastic Compliance Matrix: (Units=1/GPa)
#
#
# Indices 1 2 3 4 5 6 
#
# 1 0.017459 -0.011304 -0.005574 0.000000 0.000000 0.000000
# 2 -0.011304 0.017459 -0.005574 0.000000 0.000000 0.000000
# 3 -0.005574 -0.005574 0.028060 0.000000 0.000000 0.000000
# 4 0.000000 0.000000 0.000000 0.038094 0.000000 0.000000
# 5 0.000000 0.000000 0.000000 0.000000 0.038094 0.000000
# 6 0.000000 0.000000 0.000000 0.000000 0.000000 0.042877
#
#
# Mechanical properties :
#
#
# Convention : Reuss Voigt Hill
#
# Bulk Modulus (GPa) = 55.32907 84.98723 70.15815
# Shear Modulus (GPa) = 21.46165 24.09013 22.77589
#
# Velocity S-wave (km/s) = 3.59121 3.80478 3.69954
# Velocity P-wave (km/s) = 7.10241 8.38884 7.77229
#
# Compressibility (1/GPa) = 0.01807368
#
# Stress axis : x y z
#
# Youngs Moduli (GPa) = 57.27638 57.27628 35.63813
#
# Poissons Ratio (x) = 0.64747 0.19864
# Poissons Ratio (y) = 0.64747 0.19865
# Poissons Ratio (z) = 0.31926 0.31926
#
# Static dielectric constant tensor:
#      x y z
#    x 1.539230 0.000000 0.000000 
#    y 0.000000 1.539230 0.000000 
#    z 0.000000 0.000000 1.551570 
# 
# From -- ./inp_files/1099.got.cif
#   From: 2010.05.17/outbox.cif.g08.bks.cpg/sg136_1_cif.got.tgz:1099.got - 2010.05.20 12:54:53.
