data_PCOD9569792
_publ_section_title
;
Structure prediction by ZEFSAII (Michael W. Deem and Ramdas Pophale) SiO2 
 PCOD9569792
Probable space group: P 42/M N M
;
_chemical_formula_sum "Si O2"
_cell_formula_units_Z 70
_cell_length_a 13.649605
_cell_length_b 13.649605
_cell_length_c 19.541072
_cell_angle_alpha 90.000000
_cell_angle_beta 90.000000
_cell_angle_gamma 90.000000
_cell_volume 3640.730670
_symmetry_space_group_name_H-M "P 42/M N M"
_symmetry_group_IT_number 136
_symmetry_cell_setting 'tetragonal'
loop_
_space_group_symop_operation_xyz
x,y,z
1/2-y,1/2+x,1/2+z
-x,-y,z
1/2+y,1/2-x,1/2+z
1/2+x,1/2-y,1/2-z
1/2-x,1/2+y,1/2-z
y,x,-z
-y,-x,-z
-x,-y,-z
1/2+y,1/2-x,1/2-z
x,y,-z
1/2-y,1/2+x,1/2-z
1/2-x,1/2+y,1/2+z
1/2+x,1/2-y,1/2+z
-y,-x,z
y,x,z
loop_
_atom_site_type_symbol
_atom_site_label
_atom_site_fract_x
_atom_site_fract_y
_atom_site_fract_z
Si Si1 0.114460 0.273247 0.645427
Si Si2 0.765901 0.975036 0.500000
Si Si3 0.000000 0.000000 0.500000
Si Si4 0.571005 0.095521 0.500000
Si Si5 0.500000 0.000000 0.250000
Si Si6 0.837601 0.003783 0.244298
Si Si7 0.338471 0.002352 0.147080
O O1 0.210841 0.210841 0.664745
O O2 0.087382 0.253243 0.567527
O O3 0.132548 0.388012 0.650256
O O4 0.026402 0.230595 0.691709
O O5 0.879345 0.001346 0.500000
O O6 0.683833 0.060694 0.500000
O O7 0.544869 0.149946 0.571009
O O8 0.500000 0.000000 0.500000
O O9 0.581992 0.952850 0.200123
O O10 0.891048 0.108953 0.249661
O O11 0.769493 0.991168 0.178188
O O12 0.923945 0.923945 0.243146
#
# Coordination Sequence:
#
# PCOD9569792 Si02
#       7
#    16   8   2   8   4  16  16
#     4  11  21  36  64  94 131 171 222 271 333 410
#     4  12  24  42  62  99 131 178 220 264 349 415
#     4  12  28  44  68  92 152 184 216 286 364 432
#     4  12  24  42  67  93 134 172 220 277 328 393
#     4  12  20  34  64  92 128 162 208 276 324 386
#     4  10  24  43  65  94 133 174 224 277 333 397
#     4  12  22  42  65  96 128 173 218 276 328 392
#
# _framework density 19.226908999999999
#
# number of rings (size 3 to 8) (size 9 to 14) (size 15 to 20)
#    0.000    0.686    6.857    0.686    1.600    0.000 
#    2.057    1.714    0.000    1.371    0.000    0.000 
#    0.000    0.000    0.000    0.000    0.000    0.000 
#
# Total GULP energy -390350.352985 kJ/mol
# GULP energy per Si atom -5576.433614 kJ/mol
# Density = 1.918315 g / cm^3
# Si number density = 19.226909 Si / 1000 Ang^3
#
#
#
# Elastic Constant Matrix: (Units=GPa)
#
#
# Indices 1 2 3 4 5 6 
#
# 1 102.8278 20.5624 33.6697 0.0000 0.0000 0.0000
# 2 20.5624 102.8278 33.6697 0.0000 0.0000 0.0000
# 3 33.6697 33.6697 134.7747 0.0000 0.0000 0.0000
# 4 0.0000 0.0000 0.0000 13.1394 0.0000 0.0000
# 5 0.0000 0.0000 0.0000 0.0000 13.1394 0.0000
# 6 0.0000 0.0000 0.0000 0.0000 0.0000 19.7399
#
#
#
# Elastic Compliance Matrix: (Units=1/GPa)
#
#
# Indices 1 2 3 4 5 6 
#
# 1 0.010770 -0.001386 -0.002344 0.000000 0.000000 0.000000
# 2 -0.001386 0.010770 -0.002344 0.000000 0.000000 0.000000
# 3 -0.002344 -0.002344 0.008591 0.000000 0.000000 0.000000
# 4 0.000000 0.000000 0.000000 0.076107 0.000000 0.000000
# 5 0.000000 0.000000 0.000000 0.000000 0.076107 0.000000
# 6 0.000000 0.000000 0.000000 0.000000 0.000000 0.050659
#
#
# Mechanical properties :
#
#
# Convention : Reuss Voigt Hill
#
# Bulk Modulus (GPa) = 55.61270 57.35932 56.48601
# Shear Modulus (GPa) = 19.90873 26.03898 22.97385
#
# Velocity S-wave (km/s) = 3.22135 3.68407 3.46045
# Velocity P-wave (km/s) = 6.54395 6.92778 6.73860
#
# Compressibility (1/GPa) = 0.01798151
#
# Stress axis : x y z
#
# Youngs Moduli (GPa) = 92.85257 92.85257 116.39970
#
# Poissons Ratio (x) = 0.12870 0.27287
# Poissons Ratio (y) = 0.12870 0.27287
# Poissons Ratio (z) = 0.21767 0.21767
#
# Static dielectric constant tensor:
#      x y z
#    x 1.693650 0.000000 0.000000 
#    y 0.000000 1.693650 0.000000 
#    z 0.000000 0.000000 1.661470 
# 
# From -- ./inp_files/6153.got.cif
#   From: 2010.05.17/outbox.cif.g08.bks.cpg/sg136_4_cif.got.tgz:6153.got - 2010.05.20 12:54:53.
