data_PCOD9569909
_publ_section_title
;
Structure prediction by ZEFSAII (Michael W. Deem and Ramdas Pophale) SiO2 
 PCOD9569909
Probable space group: P 42/M N M
;
_chemical_formula_sum "Si O2"
_cell_formula_units_Z 96
_cell_length_a 24.000000
_cell_length_b 24.000000
_cell_length_c 9.000000
_cell_angle_alpha 90.000000
_cell_angle_beta 90.000000
_cell_angle_gamma 90.000000
_cell_volume 5184.000000
_symmetry_space_group_name_H-M "P 42/M N M"
_symmetry_group_IT_number 136
_symmetry_cell_setting 'tetragonal'
loop_
_space_group_symop_operation_xyz
x,y,z
1/2-y,1/2+x,1/2+z
-x,-y,z
1/2+y,1/2-x,1/2+z
1/2+x,1/2-y,1/2-z
1/2-x,1/2+y,1/2-z
y,x,-z
-y,-x,-z
-x,-y,-z
1/2+y,1/2-x,1/2-z
x,y,-z
1/2-y,1/2+x,1/2-z
1/2-x,1/2+y,1/2+z
1/2+x,1/2-y,1/2+z
-y,-x,z
y,x,z
loop_
_atom_site_type_symbol
_atom_site_label
_atom_site_fract_x
_atom_site_fract_y
_atom_site_fract_z
Si Si1 0.431464 0.431464 0.822786
Si Si2 0.172587 0.616054 0.170905
Si Si3 0.456649 0.631536 0.821193
Si Si4 0.248098 0.521448 0.320937
Si Si5 0.654026 0.654026 0.321097
Si Si6 0.059345 0.548444 0.165918
Si Si7 0.607139 0.774982 0.319117
O O1 0.493991 0.412437 0.787805
O O2 0.389777 0.389777 0.741645
O O3 0.424870 0.424870 0.000000
O O4 0.213939 0.574979 0.259391
O O5 0.115474 0.581744 0.165850
O O6 0.149342 0.675585 0.230531
O O7 0.193362 0.623427 0.000000
O O8 0.398292 0.601709 0.780801
O O9 0.471014 0.689068 0.739737
O O10 0.456325 0.640904 0.000000
O O11 0.247425 0.522261 0.500000
O O12 0.224993 0.459109 0.275077
O O13 0.652756 0.652756 0.500000
O O14 0.634197 0.715790 0.275964
O O15 0.070263 0.485372 0.216317
O O16 0.035398 0.551964 0.000000
O O17 0.606339 0.779156 0.500000
#
# Coordination Sequence:
#
# PCOD9569909 Si02
#       7
#     8  16  16  16   8  16  16
#     4  10  19  34  60  92 122 148 184 236 283 333
#     4  10  21  37  54  78 110 148 193 237 282 342
#     4  10  21  38  60  87 120 157 191 227 280 346
#     4  11  22  38  60  86 117 152 191 243 295 342
#     4  10  18  35  61  85 110 150 196 235 283 340
#     4  10  19  31  50  74 106 142 181 234 290 345
#     4   9  19  36  59  82 110 148 194 239 282 340
#
# _framework density 18.518519000000001
#
# number of rings (size 3 to 8) (size 9 to 14) (size 15 to 20)
#    0.000    2.000    1.667    2.750    0.000    4.000 
#    1.500    2.500    0.000    1.500    0.000    0.000 
#    0.000    0.000    0.000    0.000    0.000    0.000 
#
# Total GULP energy -534967.867092 kJ/mol
# GULP energy per Si atom -5572.581949 kJ/mol
# Density = 1.847637 g / cm^3
# Si number density = 18.518519 Si / 1000 Ang^3
#
#
#
# Elastic Constant Matrix: (Units=GPa)
#
#
# Indices 1 2 3 4 5 6 
#
# 1 135.5528 20.6412 22.1083 0.0000 0.0000 0.0000
# 2 20.6412 135.5528 22.1083 0.0000 0.0000 0.0000
# 3 22.1083 22.1083 26.4967 0.0000 0.0000 0.0000
# 4 0.0000 0.0000 0.0000 24.3555 0.0000 0.0000
# 5 0.0000 0.0000 0.0000 0.0000 24.3555 0.0000
# 6 0.0000 0.0000 0.0000 0.0000 0.0000 44.2620
#
#
#
# Elastic Compliance Matrix: (Units=1/GPa)
#
#
# Indices 1 2 3 4 5 6 
#
# 1 0.008542 -0.000160 -0.006994 0.000000 0.000000 0.000000
# 2 -0.000160 0.008542 -0.006994 0.000000 0.000000 0.000000
# 3 -0.006994 -0.006994 0.049412 0.000000 0.000000 0.000000
# 4 0.000000 0.000000 0.000000 0.041058 0.000000 0.000000
# 5 0.000000 0.000000 0.000000 0.000000 0.041058 0.000000
# 6 0.000000 0.000000 0.000000 0.000000 0.000000 0.022593
#
#
# Mechanical properties :
#
#
# Convention : Reuss Voigt Hill
#
# Bulk Modulus (GPa) = 26.17773 47.47978 36.82875
# Shear Modulus (GPa) = 23.55875 34.11092 28.83484
#
# Velocity S-wave (km/s) = 3.57062 4.29650 3.95027
# Velocity P-wave (km/s) = 5.58263 7.09281 6.38254
#
# Compressibility (1/GPa) = 0.03820041
#
# Stress axis : x y z
#
# Youngs Moduli (GPa) = 117.06491 117.06491 20.23807
#
# Poissons Ratio (x) = 0.01874 0.14154
# Poissons Ratio (y) = 0.01874 0.14154
# Poissons Ratio (z) = 0.81875 0.81875
#
# Static dielectric constant tensor:
#      x y z
#    x 1.652150 0.000000 0.000000 
#    y 0.000000 1.652150 0.000000 
#    z 0.000000 0.000000 1.658320 
# 
# From -- ./inp_files/2070.got.cif
#   From: 2010.05.17/outbox.ucp.g08.bks.cvg/sg136_2_cif.got.tgz:2070.got - 2010.06.11 11:40:42.
