data_PCOD9569102
_publ_section_title
;
Structure prediction by ZEFSAII (Michael W. Deem and Ramdas Pophale) SiO2 
 PCOD9569102
Probable space group: P 42/M N M
;
_chemical_formula_sum "Si O2"
_cell_formula_units_Z 104
_cell_length_a 27.117408
_cell_length_b 27.117408
_cell_length_c 8.722707
_cell_angle_alpha 90.000000
_cell_angle_beta 90.000000
_cell_angle_gamma 90.000000
_cell_volume 6414.275884
_symmetry_space_group_name_H-M "P 42/M N M"
_symmetry_group_IT_number 136
_symmetry_cell_setting 'tetragonal'
loop_
_space_group_symop_operation_xyz
x,y,z
1/2-y,1/2+x,1/2+z
-x,-y,z
1/2+y,1/2-x,1/2+z
1/2+x,1/2-y,1/2-z
1/2-x,1/2+y,1/2-z
y,x,-z
-y,-x,-z
-x,-y,-z
1/2+y,1/2-x,1/2-z
x,y,-z
1/2-y,1/2+x,1/2-z
1/2-x,1/2+y,1/2+z
1/2+x,1/2-y,1/2+z
-y,-x,z
y,x,z
loop_
_atom_site_type_symbol
_atom_site_label
_atom_site_fract_x
_atom_site_fract_y
_atom_site_fract_z
Si Si1 0.351183 0.648818 0.667333
Si Si2 0.460057 0.539944 0.817065
Si Si3 0.601161 0.101782 0.184007
Si Si4 0.281365 0.718636 0.177735
Si Si5 0.531555 0.353278 0.675807
Si Si6 0.138994 0.291731 0.685772
Si Si7 0.496330 0.147527 0.182978
Si Si8 0.253074 0.035678 0.815394
O O1 0.333056 0.666945 0.500000
O O2 0.323296 0.676705 0.801067
O O3 0.409494 0.655450 0.672998
O O4 0.500000 0.500000 0.762332
O O5 0.474594 0.594905 0.760956
O O6 0.459649 0.540352 0.000000
O O7 0.632568 0.150773 0.223862
O O8 0.544721 0.115311 0.224895
O O9 0.621173 0.053361 0.264863
O O10 0.603627 0.095130 0.000000
O O11 0.233600 0.689827 0.240961
O O12 0.271037 0.728964 0.000000
O O13 0.514696 0.359748 0.500000
O O14 0.514171 0.300078 0.737214
O O15 0.136861 0.287311 0.500000
O O16 0.090715 0.264198 0.751613
O O17 0.503334 0.200781 0.260714
O O18 0.497539 0.153998 0.000000
O O19 0.251587 0.038195 0.000000
#
# Coordination Sequence:
#
# PCOD9569102 Si02
#       8
#     8   8  16   8  16  16  16  16
#     4   9  15  25  38  62  97 124 153 187 223 275
#     4  10  21  33  46  69  99 133 171 209 251 295
#     4   9  19  35  50  69  98 130 163 206 251 299
#     4  10  17  25  42  68  98 131 157 184 227 276
#     4   9  18  30  45  67  96 129 162 197 239 290
#     4   9  18  30  45  70 103 132 161 194 235 286
#     4  10  21  35  52  74  99 126 164 206 250 301
#     4  10  18  30  48  71  97 126 159 196 240 290
#
# _framework density 16.213833999999999
#
# number of rings (size 3 to 8) (size 9 to 14) (size 15 to 20)
#    0.000    2.538    1.538    2.538    0.000    6.462 
#    0.000    1.538    0.000    0.000    2.000    0.000 
#    0.000    0.000    0.000    0.000    0.000    0.000 
#
# Total GULP energy -578974.860714 kJ/mol
# GULP energy per Si atom -5567.065968 kJ/mol
# Density = 1.617693 g / cm^3
# Si number density = 16.213834 Si / 1000 Ang^3
#
#
#
# Elastic Constant Matrix: (Units=GPa)
#
#
# Indices 1 2 3 4 5 6 
#
# 1 102.5440 68.4057 29.4130 0.0000 0.0000 0.0000
# 2 68.4057 102.5441 29.4130 0.0000 0.0000 0.0000
# 3 29.4130 29.4130 29.0152 0.0000 0.0000 0.0000
# 4 0.0000 0.0000 0.0000 19.9271 0.0000 0.0000
# 5 0.0000 0.0000 0.0000 0.0000 19.9270 0.0000
# 6 0.0000 0.0000 0.0000 0.0000 0.0000 24.1534
#
#
#
# Elastic Compliance Matrix: (Units=1/GPa)
#
#
# Indices 1 2 3 4 5 6 
#
# 1 0.019138 -0.010155 -0.009107 0.000000 0.000000 0.000000
# 2 -0.010155 0.019138 -0.009107 0.000000 0.000000 0.000000
# 3 -0.009107 -0.009107 0.052928 0.000000 0.000000 0.000000
# 4 0.000000 0.000000 0.000000 0.050183 0.000000 0.000000
# 5 0.000000 0.000000 0.000000 0.000000 0.050183 0.000000
# 6 0.000000 0.000000 0.000000 0.000000 0.000000 0.041402
#
#
# Mechanical properties :
#
#
# Convention : Reuss Voigt Hill
#
# Bulk Modulus (GPa) = 29.01232 54.28521 41.64876
# Shear Modulus (GPa) = 16.60046 19.92626 18.26336
#
# Velocity S-wave (km/s) = 3.20323 3.50946 3.35984
# Velocity P-wave (km/s) = 5.62257 7.06932 6.38704
#
# Compressibility (1/GPa) = 0.03446812
#
# Stress axis : x y z
#
# Youngs Moduli (GPa) = 52.25213 52.25222 18.89375
#
# Poissons Ratio (x) = 0.53060 0.17206
# Poissons Ratio (y) = 0.53060 0.17206
# Poissons Ratio (z) = 0.47584 0.47583
#
# Static dielectric constant tensor:
#      x y z
#    x 1.561350 0.000000 0.000000 
#    y 0.000000 1.561350 0.000000 
#    z 0.000000 0.000000 1.560020 
# 
# From -- ./inp_files/2274.got.cif
#   From: 2010.05.17/outbox.cif.g08.bks.cpg/sg136_2_cif.got.tgz:2274.got - 2010.05.20 12:54:53.
