data_PCOD9569162
_publ_section_title
;
Structure prediction by ZEFSAII (Michael W. Deem and Ramdas Pophale) SiO2 
 PCOD9569162
Probable space group: P 42/M N M
;
_chemical_formula_sum "Si O2"
_cell_formula_units_Z 128
_cell_length_a 19.744854
_cell_length_b 19.744854
_cell_length_c 17.533978
_cell_angle_alpha 90.000000
_cell_angle_beta 90.000000
_cell_angle_gamma 90.000000
_cell_volume 6835.783679
_symmetry_space_group_name_H-M "P 42/M N M"
_symmetry_group_IT_number 136
_symmetry_cell_setting 'tetragonal'
loop_
_space_group_symop_operation_xyz
x,y,z
1/2-y,1/2+x,1/2+z
-x,-y,z
1/2+y,1/2-x,1/2+z
1/2+x,1/2-y,1/2-z
1/2-x,1/2+y,1/2-z
y,x,-z
-y,-x,-z
-x,-y,-z
1/2+y,1/2-x,1/2-z
x,y,-z
1/2-y,1/2+x,1/2-z
1/2-x,1/2+y,1/2+z
1/2+x,1/2-y,1/2+z
-y,-x,z
y,x,z
loop_
_atom_site_type_symbol
_atom_site_label
_atom_site_fract_x
_atom_site_fract_y
_atom_site_fract_z
Si Si1 0.085160 0.808095 0.669146
Si Si2 0.488138 0.278401 0.414101
Si Si3 0.237278 0.652260 0.751794
Si Si4 0.153769 0.039512 0.236854
Si Si5 0.540648 0.825830 0.915059
Si Si6 0.623899 0.193160 0.416647
Si Si7 0.394187 0.211271 0.691934
Si Si8 0.489797 0.108001 0.767484
O O1 0.142229 0.857772 0.637068
O O2 0.058626 0.750172 0.612195
O O3 0.115352 0.767294 0.741977
O O4 0.022614 0.849942 0.704767
O O5 0.484213 0.305735 0.500000
O O6 0.511354 0.330805 0.348237
O O7 0.547178 0.220974 0.414822
O O8 0.417300 0.246456 0.385686
O O9 0.287584 0.712417 0.772145
O O10 0.279596 0.583244 0.760195
O O11 0.219750 0.656892 0.661441
O O12 0.170180 0.662630 0.801483
O O13 0.090315 0.090315 0.237100
O O14 0.612624 0.865537 0.915035
O O15 0.496407 0.863235 0.851305
O O16 0.512399 0.826756 0.000000
O O17 0.651775 0.216084 0.500000
O O18 0.459988 0.169208 0.718901
O O19 0.552637 0.070268 0.730345
#
# Coordination Sequence:
#
# PCOD9569162 Si02
#       8
#    16  16  16  16  16  16  16  16
#     4  10  20  34  55  81 107 139 179 225 281 338
#     4   9  18  32  51  79 111 145 181 221 271 326
#     4  10  18  30  49  76 104 135 176 217 267 326
#     4   9  20  35  56  82 107 141 182 227 277 334
#     4  10  20  33  52  78 111 141 176 230 281 320
#     4   9  16  28  47  72 106 139 166 207 266 322
#     4  10  19  29  52  72 106 141 183 225 269 317
#     4  10  20  33  51  75 105 151 196 221 257 319
#
# _framework density 18.724993000000001
#
# number of rings (size 3 to 8) (size 9 to 14) (size 15 to 20)
#    0.000    2.375    2.500    1.125    5.250    1.000 
#    0.000    5.625    0.000    9.750    0.000    6.125 
#    0.000    0.000    0.000    0.000    0.000    0.000 
#
# Total GULP energy -713382.351114 kJ/mol
# GULP energy per Si atom -5573.299618 kJ/mol
# Density = 1.868237 g / cm^3
# Si number density = 18.724993 Si / 1000 Ang^3
#
#
#
# Elastic Constant Matrix: (Units=GPa)
#
#
# Indices 1 2 3 4 5 6 
#
# 1 49.7657 19.7800 25.4115 0.0000 0.0000 0.0000
# 2 19.7800 49.7657 25.4115 0.0000 0.0000 0.0000
# 3 25.4115 25.4115 76.4363 0.0000 0.0000 0.0000
# 4 0.0000 0.0000 0.0000 12.1554 0.0000 0.0000
# 5 0.0000 0.0000 0.0000 0.0000 12.1554 0.0000
# 6 0.0000 0.0000 0.0000 0.0000 0.0000 7.9617
#
#
#
# Elastic Compliance Matrix: (Units=1/GPa)
#
#
# Indices 1 2 3 4 5 6 
#
# 1 0.026171 -0.007178 -0.006314 0.000000 0.000000 0.000000
# 2 -0.007178 0.026171 -0.006314 0.000000 0.000000 0.000000
# 3 -0.006314 -0.006314 0.017281 0.000000 0.000000 0.000000
# 4 0.000000 0.000000 0.000000 0.082268 0.000000 0.000000
# 5 0.000000 0.000000 0.000000 0.000000 0.082268 0.000000
# 6 0.000000 0.000000 0.000000 0.000000 0.000000 0.125601
#
#
# Mechanical properties :
#
#
# Convention : Reuss Voigt Hill
#
# Bulk Modulus (GPa) = 33.32160 35.24153 34.28157
# Shear Modulus (GPa) = 12.21365 13.47881 12.84623
#
# Velocity S-wave (km/s) = 2.55672 2.68588 2.62209
# Velocity P-wave (km/s) = 5.15263 5.33667 5.24546
#
# Compressibility (1/GPa) = 0.03001056
#
# Stress axis : x y z
#
# Youngs Moduli (GPa) = 38.20966 38.20966 57.86587
#
# Poissons Ratio (x) = 0.27426 0.36539
# Poissons Ratio (y) = 0.27426 0.36539
# Poissons Ratio (z) = 0.24127 0.24127
#
# Static dielectric constant tensor:
#      x y z
#    x 1.665670 0.000000 0.000000 
#    y 0.000000 1.665670 0.000000 
#    z 0.000000 0.000000 1.646820 
# 
# From -- ./inp_files/6637.got.cif
#   From: 2010.05.17/outbox.cif.g08.bks.cpg/sg136_4_cif.got.tgz:6637.got - 2010.05.20 12:54:53.
