data_PCOD9569868
_publ_section_title
;
Structure prediction by ZEFSAII (Michael W. Deem and Ramdas Pophale) SiO2 
 PCOD9569868
Probable space group: P 42/M N M
;
_chemical_formula_sum "Si O2"
_cell_formula_units_Z 56
_cell_length_a 12.366942
_cell_length_b 12.366942
_cell_length_c 18.855290
_cell_angle_alpha 90.000000
_cell_angle_beta 90.000000
_cell_angle_gamma 90.000000
_cell_volume 2883.751705
_symmetry_space_group_name_H-M "P 42/M N M"
_symmetry_group_IT_number 136
_symmetry_cell_setting 'tetragonal'
loop_
_space_group_symop_operation_xyz
x,y,z
1/2-y,1/2+x,1/2+z
-x,-y,z
1/2+y,1/2-x,1/2+z
1/2+x,1/2-y,1/2-z
1/2-x,1/2+y,1/2-z
y,x,-z
-y,-x,-z
-x,-y,-z
1/2+y,1/2-x,1/2-z
x,y,-z
1/2-y,1/2+x,1/2-z
1/2-x,1/2+y,1/2+z
1/2+x,1/2-y,1/2+z
-y,-x,z
y,x,z
loop_
_atom_site_type_symbol
_atom_site_label
_atom_site_fract_x
_atom_site_fract_y
_atom_site_fract_z
Si Si1 0.731383 0.086603 0.320076
Si Si2 0.091399 0.091399 0.080557
Si Si3 0.887018 0.703918 0.583777
Si Si4 0.995839 0.703457 0.835146
O O1 0.813814 0.186187 0.328244
O O2 0.607914 0.127085 0.325997
O O3 0.748877 0.994443 0.378733
O O4 0.741944 0.036082 0.241819
O O5 0.194525 0.043817 0.120068
O O6 0.120345 0.120345 0.000000
O O7 0.000000 0.000000 0.079340
O O8 0.903033 0.684705 0.500000
O O9 0.789508 0.789508 0.592222
O O10 0.854326 0.594033 0.624142
#
# Coordination Sequence:
#
# PCOD9569868 Si02
#       4
#    16   8  16  16
#     4  12  26  44  69 102 138 180 231 280 340 408
#     4  11  24  42  70 104 138 178 225 286 350 404
#     4  11  26  47  71 100 138 182 227 278 340 406
#     4  12  24  45  69 102 138 179 230 285 340 406
#
# _framework density 19.419146999999999
#
# number of rings (size 3 to 8) (size 9 to 14) (size 15 to 20)
#    0.000    0.429    4.286    4.286    2.000    6.857 
#    0.000    1.429    0.000    0.000    0.000    0.000 
#    0.000    0.000    0.000    0.000    0.000    0.000 
#
# Total GULP energy -313451.503745 kJ/mol
# GULP energy per Si atom -5597.348281 kJ/mol
# Density = 1.937495 g / cm^3
# Si number density = 19.419147 Si / 1000 Ang^3
#
#
#
# Elastic Constant Matrix: (Units=GPa)
#
#
# Indices 1 2 3 4 5 6 
#
# 1 126.5840 11.5634 54.8302 0.0000 0.0000 0.0000
# 2 11.5634 126.5840 54.8302 0.0000 0.0000 0.0000
# 3 54.8302 54.8302 138.8966 0.0000 0.0000 0.0000
# 4 0.0000 0.0000 0.0000 33.6446 0.0000 0.0000
# 5 0.0000 0.0000 0.0000 0.0000 33.6446 0.0000
# 6 0.0000 0.0000 0.0000 0.0000 0.0000 21.3484
#
#
#
# Elastic Compliance Matrix: (Units=1/GPa)
#
#
# Indices 1 2 3 4 5 6 
#
# 1 0.009618 0.000924 -0.004162 0.000000 0.000000 0.000000
# 2 0.000924 0.009618 -0.004162 0.000000 0.000000 0.000000
# 3 -0.004162 -0.004162 0.010485 0.000000 0.000000 0.000000
# 4 0.000000 0.000000 0.000000 0.029722 0.000000 0.000000
# 5 0.000000 0.000000 0.000000 0.000000 0.029722 0.000000
# 6 0.000000 0.000000 0.000000 0.000000 0.000000 0.046842
#
#
# Mechanical properties :
#
#
# Convention : Reuss Voigt Hill
#
# Bulk Modulus (GPa) = 67.01004 70.50136 68.75570
# Shear Modulus (GPa) = 32.09639 35.78356 33.93997
#
# Velocity S-wave (km/s) = 4.06990 4.29732 4.18516
# Velocity P-wave (km/s) = 7.52779 7.81067 7.67053
#
# Compressibility (1/GPa) = 0.01492314
#
# Stress axis : x y z
#
# Youngs Moduli (GPa) = 103.97100 103.97100 95.37281
#
# Poissons Ratio (x) = -0.09607 0.39690
# Poissons Ratio (y) = -0.09607 0.39690
# Poissons Ratio (z) = 0.43268 0.43268
#
# Static dielectric constant tensor:
#      x y z
#    x 1.659220 0.000000 0.000000 
#    y 0.000000 1.659220 0.000000 
#    z 0.000000 0.000000 1.654360 
# 
# From -- ./inp_files/6924.got.cif
#   From: 2010.05.17/outbox.cif.g08.bks.cpg/sg136_4_cif.got.tgz:6924.got - 2010.05.20 12:54:53.
