data_PCOD9569126
_publ_section_title
;
Structure prediction by ZEFSAII (Michael W. Deem and Ramdas Pophale) SiO2 
 PCOD9569126
Probable space group: P 42/M N M
;
_chemical_formula_sum "Si O2"
_cell_formula_units_Z 104
_cell_length_a 27.153553
_cell_length_b 27.153553
_cell_length_c 7.706145
_cell_angle_alpha 90.000000
_cell_angle_beta 90.000000
_cell_angle_gamma 90.000000
_cell_volume 5681.859695
_symmetry_space_group_name_H-M "P 42/M N M"
_symmetry_group_IT_number 136
_symmetry_cell_setting 'tetragonal'
loop_
_space_group_symop_operation_xyz
x,y,z
1/2-y,1/2+x,1/2+z
-x,-y,z
1/2+y,1/2-x,1/2+z
1/2+x,1/2-y,1/2-z
1/2-x,1/2+y,1/2-z
y,x,-z
-y,-x,-z
-x,-y,-z
1/2+y,1/2-x,1/2-z
x,y,-z
1/2-y,1/2+x,1/2-z
1/2-x,1/2+y,1/2+z
1/2+x,1/2-y,1/2+z
-y,-x,z
y,x,z
loop_
_atom_site_type_symbol
_atom_site_label
_atom_site_fract_x
_atom_site_fract_y
_atom_site_fract_z
Si Si1 0.539699 0.539699 0.205056
Si Si2 0.221397 0.625173 0.789706
Si Si3 0.381311 0.618690 0.711446
Si Si4 0.984682 0.751539 0.207564
Si Si5 0.858061 0.992116 0.791894
Si Si6 0.354739 0.984843 0.790709
Si Si7 0.114117 0.593570 0.791386
Si Si8 0.300764 0.699237 0.797968
O O1 0.500000 0.500000 0.280572
O O2 0.525606 0.595267 0.252002
O O3 0.535981 0.535981 0.000000
O O4 0.248239 0.574058 0.740044
O O5 0.165007 0.618854 0.728756
O O6 0.252137 0.672353 0.724329
O O7 0.221219 0.627221 0.000000
O O8 0.378697 0.621304 0.500000
O O9 0.369528 0.563317 0.767864
O O10 0.342678 0.657323 0.785234
O O11 0.008263 0.701130 0.276749
O O12 0.005236 0.803511 0.274247
O O13 0.991530 0.750539 0.000000
O O14 0.854736 0.989956 0.000000
O O15 0.382528 0.035692 0.749685
O O16 0.381334 0.935735 0.725307
O O17 0.352591 0.981452 0.000000
O O18 0.114372 0.598085 0.000000
O O19 0.290210 0.709791 0.000000
#
# Coordination Sequence:
#
# PCOD9569126 Si02
#       8
#     8  16   8  16  16  16  16   8
#     4  11  23  33  43  62  89 121 156 192 229 270
#     4   9  17  28  43  65  93 121 147 178 223 274
#     4  10  18  27  43  66  90 119 148 182 230 279
#     4   9  17  30  48  68  88 115 151 188 225 268
#     4  10  19  31  46  63  88 120 152 187 230 275
#     4   9  18  32  50  71  95 122 153 190 228 271
#     4   9  18  32  48  68  96 126 154 187 228 274
#     4  10  18  26  41  66  93 119 146 183 226 273
#
# _framework density 18.303865999999999
#
# number of rings (size 3 to 8) (size 9 to 14) (size 15 to 20)
#    0.000    2.538    2.308    0.231    0.000    2.462 
#    0.000    1.538    0.000    0.923    0.000    5.385 
#    0.000    1.231    0.000    0.000    0.000    0.000 
#
# Total GULP energy -579712.208865 kJ/mol
# GULP energy per Si atom -5574.155854 kJ/mol
# Density = 1.826221 g / cm^3
# Si number density = 18.303866 Si / 1000 Ang^3
#
#
#
# Elastic Constant Matrix: (Units=GPa)
#
#
# Indices 1 2 3 4 5 6 
#
# 1 140.3249 99.9116 2.1986 0.0000 0.0000 0.0000
# 2 99.9116 140.3247 2.1990 0.0000 0.0000 0.0000
# 3 2.1986 2.1990 25.7829 0.0000 0.0000 0.0000
# 4 0.0000 0.0000 0.0000 15.9853 0.0000 0.0000
# 5 0.0000 0.0000 0.0000 0.0000 15.9853 0.0000
# 6 0.0000 0.0000 0.0000 0.0000 0.0000 30.7450
#
#
#
# Elastic Compliance Matrix: (Units=1/GPa)
#
#
# Indices 1 2 3 4 5 6 
#
# 1 0.014457 -0.010288 -0.000355 0.000000 0.000000 0.000000
# 2 -0.010288 0.014457 -0.000356 0.000000 0.000000 0.000000
# 3 -0.000355 -0.000356 0.038846 0.000000 0.000000 0.000000
# 4 0.000000 0.000000 0.000000 0.062557 0.000000 0.000000
# 5 0.000000 0.000000 0.000000 0.000000 0.062558 0.000000
# 6 0.000000 0.000000 0.000000 0.000000 0.000000 0.032526
#
#
# Mechanical properties :
#
#
# Convention : Reuss Voigt Hill
#
# Bulk Modulus (GPa) = 21.85219 57.22789 39.54004
# Shear Modulus (GPa) = 19.03663 26.01801 22.52732
#
# Velocity S-wave (km/s) = 3.22845 3.77430 3.51200
# Velocity P-wave (km/s) = 5.08544 7.09416 6.17207
#
# Compressibility (1/GPa) = 0.04576200
#
# Stress axis : x y z
#
# Youngs Moduli (GPa) = 69.17200 69.17186 25.74265
#
# Poissons Ratio (x) = 0.71162 0.00915
# Poissons Ratio (y) = 0.71162 0.00916
# Poissons Ratio (z) = 0.02458 0.02461
#
# Static dielectric constant tensor:
#      x y z
#    x 1.652530 0.000000 0.000000 
#    y 0.000000 1.652530 0.000000 
#    z 0.000000 0.000000 1.685560 
# 
# From -- ./inp_files/2260.got.cif
#   From: 2010.05.17/outbox.cif.g08.bks.cpg/sg136_2_cif.got.tgz:2260.got - 2010.05.20 12:54:53.
