data_PCOD9569022
_publ_section_title
;
Structure prediction by ZEFSAII (Michael W. Deem and Ramdas Pophale) SiO2 
 PCOD9569022
Probable space group: P 42/M B C
;
_chemical_formula_sum "Si O2"
_cell_formula_units_Z 96
_cell_length_a 23.746746
_cell_length_b 23.746746
_cell_length_c 8.728782
_cell_angle_alpha 90.000000
_cell_angle_beta 90.000000
_cell_angle_gamma 90.000000
_cell_volume 4922.229525
_symmetry_space_group_name_H-M "P 42/M B C"
_symmetry_group_IT_number 135
_symmetry_cell_setting 'tetragonal'
loop_
_space_group_symop_operation_xyz
x,y,z
-y,x,1/2+z
-x,-y,z
y,-x,1/2+z
1/2+x,1/2-y,-z
1/2-x,1/2+y,-z
1/2+y,1/2+x,1/2-z
1/2-y,1/2-x,1/2-z
-x,-y,-z
y,-x,1/2-z
x,y,-z
-y,x,1/2-z
1/2-x,1/2+y,z
1/2+x,1/2-y,z
1/2-y,1/2-x,1/2+z
1/2+y,1/2+x,1/2+z
loop_
_atom_site_type_symbol
_atom_site_label
_atom_site_fract_x
_atom_site_fract_y
_atom_site_fract_z
Si Si1 0.747234 0.668190 0.182122
Si Si2 0.623204 0.671003 0.316469
Si Si3 0.940044 0.695066 0.817606
Si Si4 0.925697 0.955029 0.683095
Si Si5 0.219884 0.553230 0.817022
Si Si6 0.473254 0.106953 0.817895
O O1 0.776608 0.723393 0.250000
O O2 0.685502 0.661932 0.252869
O O3 0.785855 0.615395 0.231743
O O4 0.744193 0.671245 0.000000
O O5 0.622717 0.663811 0.500000
O O6 0.581338 0.626530 0.239893
O O7 0.599493 0.733435 0.281504
O O8 0.992950 0.733354 0.762354
O O9 0.964715 0.632410 0.782134
O O10 0.932053 0.699656 0.000000
O O11 0.926438 0.960439 0.500000
O O12 0.983400 0.926015 0.740176
O O13 0.157470 0.564820 0.752680
O O14 0.217270 0.545616 0.000000
O O15 0.451203 0.048798 0.750000
O O16 0.467822 0.105657 0.000000
#
# Coordination Sequence:
#
# PCOD9569022 Si02
#       6
#    16  16  16  16  16  16
#     4  12  26  44  66  90 123 165 210 257 311 371
#     4  11  24  41  62  88 120 159 207 258 309 371
#     4   9  20  38  61  88 120 158 201 247 302 363
#     4  11  23  40  61  87 122 161 205 258 315 372
#     4   9  19  35  57  85 117 153 198 246 300 359
#     4   9  18  31  55  86 120 154 191 243 300 359
#
# _framework density 19.503357000000001
#
# number of rings (size 3 to 8) (size 9 to 14) (size 15 to 20)
#    1.000    0.833    0.000    5.000    2.333    3.333 
#    0.000    0.000    0.000    0.500    0.000    3.500 
#    0.000    0.000    0.000    0.000    0.000    0.000 
#
# Total GULP energy -535471.682292 kJ/mol
# GULP energy per Si atom -5577.830024 kJ/mol
# Density = 1.945897 g / cm^3
# Si number density = 19.503357 Si / 1000 Ang^3
#
#
#
# Elastic Constant Matrix: (Units=GPa)
#
#
# Indices 1 2 3 4 5 6 
#
# 1 46.1172 33.8274 21.1495 0.0000 0.0000 0.0000
# 2 33.8274 46.1143 21.1543 0.0000 0.0000 0.0000
# 3 21.1495 21.1543 93.3945 0.0000 0.0000 0.0000
# 4 0.0000 0.0000 0.0000 29.3038 0.0000 0.0000
# 5 0.0000 0.0000 0.0000 0.0000 29.3031 0.0000
# 6 0.0000 0.0000 0.0000 0.0000 0.0000 34.9226
#
#
#
# Elastic Compliance Matrix: (Units=1/GPa)
#
#
# Indices 1 2 3 4 5 6 
#
# 1 0.047792 -0.033583 -0.003216 0.000000 0.000000 0.000000
# 2 -0.033583 0.047798 -0.003222 0.000000 0.000000 0.000000
# 3 -0.003216 -0.003222 0.012165 0.000000 0.000000 0.000000
# 4 0.000000 0.000000 0.000000 0.034125 0.000000 0.000000
# 5 0.000000 0.000000 0.000000 0.000000 0.034126 0.000000
# 6 0.000000 0.000000 0.000000 0.000000 0.000000 0.028635
#
#
# Mechanical properties :
#
#
# Convention : Reuss Voigt Hill
#
# Bulk Modulus (GPa) = 36.08215 37.54316 36.81266
# Shear Modulus (GPa) = 17.01140 26.00554 21.50847
#
# Velocity S-wave (km/s) = 2.95656 3.65552 3.32446
# Velocity P-wave (km/s) = 5.49505 6.09167 5.80104
#
# Compressibility (1/GPa) = 0.02771453
#
# Stress axis : x y z
#
# Youngs Moduli (GPa) = 20.92394 20.92136 82.20152
#
# Poissons Ratio (x) = 0.70260 0.26436
# Poissons Ratio (y) = 0.70269 0.26482
# Poissons Ratio (z) = 0.06729 0.06740
#
# Static dielectric constant tensor:
#      x y z
#    x 1.664150 0.000000 0.000000 
#    y 0.000000 1.664140 0.000000 
#    z 0.000000 0.000000 1.643180 
# 
# From -- ./inp_files/1282.got.cif
#   From: 2010.05.17/outbox.cif.g08.bks.cpg/sg135_1_cif.got.tgz:1282.got - 2010.05.20 12:50:20.
