data_PCOD9569831
_publ_section_title
;
Structure prediction by ZEFSAII (Michael W. Deem and Ramdas Pophale) SiO2 
 PCOD9569831
Probable space group: P 42/M N M
;
_chemical_formula_sum "Si O2"
_cell_formula_units_Z 88
_cell_length_a 12.175695
_cell_length_b 12.175695
_cell_length_c 28.206026
_cell_angle_alpha 90.000000
_cell_angle_beta 90.000000
_cell_angle_gamma 90.000000
_cell_volume 4181.474214
_symmetry_space_group_name_H-M "P 42/M N M"
_symmetry_group_IT_number 136
_symmetry_cell_setting 'tetragonal'
loop_
_space_group_symop_operation_xyz
x,y,z
1/2-y,1/2+x,1/2+z
-x,-y,z
1/2+y,1/2-x,1/2+z
1/2+x,1/2-y,1/2-z
1/2-x,1/2+y,1/2-z
y,x,-z
-y,-x,-z
-x,-y,-z
1/2+y,1/2-x,1/2-z
x,y,-z
1/2-y,1/2+x,1/2-z
1/2-x,1/2+y,1/2+z
1/2+x,1/2-y,1/2+z
-y,-x,z
y,x,z
loop_
_atom_site_type_symbol
_atom_site_label
_atom_site_fract_x
_atom_site_fract_y
_atom_site_fract_z
Si Si1 0.885787 0.708254 0.555102
Si Si2 0.244316 0.432422 0.874214
Si Si3 0.521237 0.179573 0.597110
Si Si4 0.913078 0.913078 0.943895
Si Si5 0.009387 0.676174 0.732944
Si Si6 0.678580 0.498022 0.682582
O O1 0.921362 0.714106 0.500000
O O2 0.766878 0.766878 0.558090
O O3 0.875551 0.581906 0.571734
O O4 0.966496 0.771507 0.591093
O O5 0.339662 0.339662 0.871084
O O6 0.134531 0.384640 0.898836
O O7 0.205894 0.471962 0.821922
O O8 0.550107 0.293837 0.572261
O O9 0.489904 0.213710 0.650697
O O10 0.915733 0.915733 0.000000
O O11 0.000000 0.000000 0.924502
O O12 0.899676 0.608119 0.746533
O O13 0.004414 0.787063 0.763105
O O14 0.617134 0.382867 0.672741
O O15 0.594464 0.594464 0.671335
#
# Coordination Sequence:
#
# PCOD9569831 Si02
#       6
#    16  16  16   8  16  16
#     4  11  27  49  73 101 137 186 239 290 345 408
#     4  12  26  46  72 105 143 182 233 289 346 414
#     4  12  22  42  68 102 142 177 227 288 349 417
#     4  11  22  36  62 100 143 185 225 279 349 419
#     4  11  24  41  66  97 134 180 228 280 341 409
#     4  11  22  37  62  95 133 178 224 276 342 412
#
# _framework density 21.045209
#
# number of rings (size 3 to 8) (size 9 to 14) (size 15 to 20)
#    0.000    0.636    3.636    4.364    2.545    5.818 
#    0.000    0.909    0.000    0.000    0.000    0.000 
#    0.000    0.000    0.000    0.000    0.000    0.000 
#
# Total GULP energy -491951.161751 kJ/mol
# GULP energy per Si atom -5590.354111 kJ/mol
# Density = 2.099731 g / cm^3
# Si number density = 21.045209 Si / 1000 Ang^3
#
#
#
# Elastic Constant Matrix: (Units=GPa)
#
#
# Indices 1 2 3 4 5 6 
#
# 1 73.0305 19.5240 39.7964 0.0000 0.0000 0.0000
# 2 19.5240 73.0305 39.7964 0.0000 0.0000 0.0000
# 3 39.7964 39.7964 127.6279 0.0000 0.0000 0.0000
# 4 0.0000 0.0000 0.0000 27.4018 0.0000 0.0000
# 5 0.0000 0.0000 0.0000 0.0000 27.4018 0.0000
# 6 0.0000 0.0000 0.0000 0.0000 0.0000 21.3484
#
#
#
# Elastic Compliance Matrix: (Units=1/GPa)
#
#
# Indices 1 2 3 4 5 6 
#
# 1 0.016726 -0.001963 -0.004603 0.000000 0.000000 0.000000
# 2 -0.001963 0.016726 -0.004603 0.000000 0.000000 0.000000
# 3 -0.004603 -0.004603 0.010706 0.000000 0.000000 0.000000
# 4 0.000000 0.000000 0.000000 0.036494 0.000000 0.000000
# 5 0.000000 0.000000 0.000000 0.000000 0.036494 0.000000
# 6 0.000000 0.000000 0.000000 0.000000 0.000000 0.046842
#
#
# Mechanical properties :
#
#
# Convention : Reuss Voigt Hill
#
# Bulk Modulus (GPa) = 45.83191 52.43581 49.13386
# Shear Modulus (GPa) = 25.82633 26.86857 26.34745
#
# Velocity S-wave (km/s) = 3.50692 3.57698 3.54212
# Velocity P-wave (km/s) = 6.18248 6.48302 6.33454
#
# Compressibility (1/GPa) = 0.02181886
#
# Stress axis : x y z
#
# Youngs Moduli (GPa) = 59.78638 59.78638 93.40479
#
# Poissons Ratio (x) = 0.11737 0.42998
# Poissons Ratio (y) = 0.11737 0.42998
# Poissons Ratio (z) = 0.27522 0.27522
#
# Static dielectric constant tensor:
#      x y z
#    x 1.762370 0.000000 0.000000 
#    y 0.000000 1.762370 0.000000 
#    z 0.000000 0.000000 1.777850 
# 
# From -- ./inp_files/9764.got.cif
#   From: 2010.05.17/outbox.cif.g08.bks.cpg/sg136_5_cif.got.tgz:9764.got - 2010.05.20 12:54:53.
