data_PCOD9569055
_publ_section_title
;
Structure prediction by ZEFSAII (Michael W. Deem and Ramdas Pophale) SiO2 
 PCOD9569055
Probable space group: P 42/M B C
;
_chemical_formula_sum "Si O2"
_cell_formula_units_Z 64
_cell_length_a 10.998937
_cell_length_b 10.998937
_cell_length_c 21.992078
_cell_angle_alpha 90.000000
_cell_angle_beta 90.000000
_cell_angle_gamma 90.000000
_cell_volume 2660.527156
_symmetry_space_group_name_H-M "P 42/M B C"
_symmetry_group_IT_number 135
_symmetry_cell_setting 'tetragonal'
loop_
_space_group_symop_operation_xyz
x,y,z
-y,x,1/2+z
-x,-y,z
y,-x,1/2+z
1/2+x,1/2-y,-z
1/2-x,1/2+y,-z
1/2+y,1/2+x,1/2-z
1/2-y,1/2-x,1/2-z
-x,-y,-z
y,-x,1/2-z
x,y,-z
-y,x,1/2-z
1/2-x,1/2+y,z
1/2+x,1/2-y,z
1/2-y,1/2-x,1/2+z
1/2+y,1/2+x,1/2+z
loop_
_atom_site_type_symbol
_atom_site_label
_atom_site_fract_x
_atom_site_fract_y
_atom_site_fract_z
Si Si1 0.456482 0.874728 0.604906
Si Si2 0.610317 0.596848 0.934336
Si Si3 0.788126 0.041725 0.335618
Si Si4 0.258634 0.083701 0.212493
O O1 0.458172 0.745553 0.571022
O O2 0.319199 0.892471 0.628335
O O3 0.541750 0.858897 0.664444
O O4 0.500000 0.000000 0.574139
O O5 0.500000 0.500000 0.936275
O O6 0.575779 0.676268 0.875438
O O7 0.605051 0.663446 0.000000
O O8 0.898115 0.135770 0.325157
O O9 0.753715 0.010859 0.266782
O O10 0.296830 0.203171 0.250000
#
# Coordination Sequence:
#
# PCOD9569055 Si02
#       4
#    16  16  16  16
#     4  12  26  46  72 110 152 194 249 313 387 466
#     4  11  26  50  75 102 143 196 257 318 371 447
#     4  12  25  42  71 107 146 196 244 304 382 455
#     4  12  23  41  68 110 151 192 238 304 387 469
#
# _framework density 24.055382999999999
#
# number of rings (size 3 to 8) (size 9 to 14) (size 15 to 20)
#    0.000    0.250    5.000    5.250    0.000    1.500 
#    0.000    2.500    0.000    0.000    0.000    0.000 
#    0.000    0.000    0.000    0.000    0.000    0.000 
#
# Total GULP energy -357765.150184 kJ/mol
# GULP energy per Si atom -5590.080472 kJ/mol
# Density = 2.400063 g / cm^3
# Si number density = 24.055383 Si / 1000 Ang^3
#
#
#
# Elastic Constant Matrix: (Units=GPa)
#
#
# Indices 1 2 3 4 5 6 
#
# 1 113.9051 14.0182 32.4782 0.0000 0.0000 0.0000
# 2 14.0182 113.9042 32.4784 0.0000 0.0000 0.0000
# 3 32.4782 32.4784 111.7759 0.0000 0.0000 0.0000
# 4 0.0000 0.0000 0.0000 23.6146 0.0000 0.0000
# 5 0.0000 0.0000 0.0000 0.0000 23.6201 0.0000
# 6 0.0000 0.0000 0.0000 0.0000 0.0000 43.2242
#
#
#
# Elastic Compliance Matrix: (Units=1/GPa)
#
#
# Indices 1 2 3 4 5 6 
#
# 1 0.009591 -0.000421 -0.002665 0.000000 0.000000 0.000000
# 2 -0.000421 0.009591 -0.002665 0.000000 0.000000 0.000000
# 3 -0.002665 -0.002665 0.010495 0.000000 0.000000 0.000000
# 4 0.000000 0.000000 0.000000 0.042347 0.000000 0.000000
# 5 0.000000 0.000000 0.000000 0.000000 0.042337 0.000000
# 6 0.000000 0.000000 0.000000 0.000000 0.000000 0.023135
#
#
# Mechanical properties :
#
#
# Convention : Reuss Voigt Hill
#
# Bulk Modulus (GPa) = 55.01414 55.28164 55.14789
# Shear Modulus (GPa) = 32.24693 35.46582 33.85637
#
# Velocity S-wave (km/s) = 3.66530 3.84388 3.75565
# Velocity P-wave (km/s) = 6.38999 6.53693 6.46388
#
# Compressibility (1/GPa) = 0.01817715
#
# Stress axis : x y z
#
# Youngs Moduli (GPa) = 104.26718 104.26620 95.28409
#
# Poissons Ratio (x) = 0.04385 0.25389
# Poissons Ratio (y) = 0.04385 0.25389
# Poissons Ratio (z) = 0.27782 0.27783
#
# Static dielectric constant tensor:
#      x y z
#    x 1.975260 0.000000 0.000000 
#    y 0.000000 1.975260 0.000000 
#    z 0.000000 0.000000 1.868260 
# 
# From -- ./inp_files/5041.got.cif
#   From: 2010.05.17/outbox.cif.g08.bks.cpg/sg135_3_cif.got.tgz:5041.got - 2010.05.20 12:50:20.
