data_PCOD9569824
_publ_section_title
;
Structure prediction by ZEFSAII (Michael W. Deem and Ramdas Pophale) SiO2 
 PCOD9569824
Probable space group: P 42/M N M
;
_chemical_formula_sum "Si O2"
_cell_formula_units_Z 48
_cell_length_a 13.096381
_cell_length_b 13.096381
_cell_length_c 14.143126
_cell_angle_alpha 90.000000
_cell_angle_beta 90.000000
_cell_angle_gamma 90.000000
_cell_volume 2425.761018
_symmetry_space_group_name_H-M "P 42/M N M"
_symmetry_group_IT_number 136
_symmetry_cell_setting 'tetragonal'
loop_
_space_group_symop_operation_xyz
x,y,z
1/2-y,1/2+x,1/2+z
-x,-y,z
1/2+y,1/2-x,1/2+z
1/2+x,1/2-y,1/2-z
1/2-x,1/2+y,1/2-z
y,x,-z
-y,-x,-z
-x,-y,-z
1/2+y,1/2-x,1/2-z
x,y,-z
1/2-y,1/2+x,1/2-z
1/2-x,1/2+y,1/2+z
1/2+x,1/2-y,1/2+z
-y,-x,z
y,x,z
loop_
_atom_site_type_symbol
_atom_site_label
_atom_site_fract_x
_atom_site_fract_y
_atom_site_fract_z
Si Si1 0.667929 0.507470 0.891614
Si Si2 0.513276 0.122374 0.391159
Si Si3 0.859734 0.688437 0.280994
O O1 0.578223 0.421777 0.894107
O O2 0.611818 0.611818 0.860190
O O3 0.754231 0.457357 0.827938
O O4 0.704040 0.520848 0.000000
O O5 0.526913 0.152034 0.500000
O O6 0.605001 0.154699 0.322924
O O7 0.408702 0.164875 0.346128
O O8 0.500000 0.000000 0.386029
O O9 0.767710 0.767710 0.278923
#
# Coordination Sequence:
#
# PCOD9569824 Si02
#       3
#    16  16  16
#     4   8  15  29  51  83 120 153 190 239 290 343
#     4  11  23  43  64  86 122 163 206 256 305 362
#     4  11  21  38  64  92 123 164 207 249 311 377
#
# _framework density 19.787604999999999
#
# number of rings (size 3 to 8) (size 9 to 14) (size 15 to 20)
#    0.000    2.000    3.333    2.000    0.000    4.000 
#    0.000    0.000    0.000    0.000    0.000    7.000 
#    0.000    0.000    0.000    0.000    0.000    0.000 
#
# Total GULP energy -268208.050028 kJ/mol
# GULP energy per Si atom -5587.667709 kJ/mol
# Density = 1.974257 g / cm^3
# Si number density = 19.787605 Si / 1000 Ang^3
#
#
#
# Elastic Constant Matrix: (Units=GPa)
#
#
# Indices 1 2 3 4 5 6 
#
# 1 67.6811 18.1761 31.6342 0.0000 0.0000 0.0000
# 2 18.1761 67.6811 31.6342 0.0000 0.0000 0.0000
# 3 31.6342 31.6342 125.0760 0.0000 0.0000 0.0000
# 4 0.0000 0.0000 0.0000 20.2922 0.0000 0.0000
# 5 0.0000 0.0000 0.0000 0.0000 20.2922 0.0000
# 6 0.0000 0.0000 0.0000 0.0000 0.0000 45.5823
#
#
#
# Elastic Compliance Matrix: (Units=1/GPa)
#
#
# Indices 1 2 3 4 5 6 
#
# 1 0.017258 -0.002942 -0.003621 0.000000 0.000000 0.000000
# 2 -0.002942 0.017258 -0.003621 0.000000 0.000000 0.000000
# 3 -0.003621 -0.003621 0.009827 0.000000 0.000000 0.000000
# 4 0.000000 0.000000 0.000000 0.049280 0.000000 0.000000
# 5 0.000000 0.000000 0.000000 0.000000 0.049280 0.000000
# 6 0.000000 0.000000 0.000000 0.000000 0.000000 0.021938
#
#
# Mechanical properties :
#
#
# Convention : Reuss Voigt Hill
#
# Bulk Modulus (GPa) = 41.71068 47.03639 44.37353
# Shear Modulus (GPa) = 25.88007 29.16627 27.52317
#
# Velocity S-wave (km/s) = 3.62040 3.84339 3.73356
# Velocity P-wave (km/s) = 6.21300 6.59680 6.40778
#
# Compressibility (1/GPa) = 0.02397467
#
# Stress axis : x y z
#
# Youngs Moduli (GPa) = 57.94536 57.94536 101.76469
#
# Poissons Ratio (x) = 0.17050 0.36845
# Poissons Ratio (y) = 0.17050 0.36845
# Poissons Ratio (z) = 0.20980 0.20980
#
# Static dielectric constant tensor:
#      x y z
#    x 1.705400 0.000000 0.000000 
#    y 0.000000 1.705400 0.000000 
#    z 0.000000 0.000000 1.684680 
# 
# From -- ./inp_files/2853.got.cif
#   From: 2010.05.17/outbox.cif.g08.bks.cpg/sg136_2_cif.got.tgz:2853.got - 2010.05.20 12:54:53.
