data_PCOD9569510
_publ_section_title
;
Structure prediction by ZEFSAII (Michael W. Deem and Ramdas Pophale) SiO2 
 PCOD9569510
Probable space group: P 42/M N M
;
_chemical_formula_sum "Si O2"
_cell_formula_units_Z 98
_cell_length_a 14.086408
_cell_length_b 14.086408
_cell_length_c 28.900099
_cell_angle_alpha 90.000000
_cell_angle_beta 90.000000
_cell_angle_gamma 90.000000
_cell_volume 5734.556775
_symmetry_space_group_name_H-M "P 42/M N M"
_symmetry_group_IT_number 136
_symmetry_cell_setting 'tetragonal'
loop_
_space_group_symop_operation_xyz
x,y,z
1/2-y,1/2+x,1/2+z
-x,-y,z
1/2+y,1/2-x,1/2+z
1/2+x,1/2-y,1/2-z
1/2-x,1/2+y,1/2-z
y,x,-z
-y,-x,-z
-x,-y,-z
1/2+y,1/2-x,1/2-z
x,y,-z
1/2-y,1/2+x,1/2-z
1/2-x,1/2+y,1/2+z
1/2+x,1/2-y,1/2+z
-y,-x,z
y,x,z
loop_
_atom_site_type_symbol
_atom_site_label
_atom_site_fract_x
_atom_site_fract_y
_atom_site_fract_z
Si Si1 0.437516 0.710627 0.897009
Si Si2 0.887094 0.471244 0.601179
Si Si3 0.354826 0.203295 0.348546
Si Si4 0.726098 0.118982 0.653492
Si Si5 0.574781 0.087986 0.500000
Si Si6 0.231118 0.022817 0.500000
Si Si7 0.000000 0.000000 0.500000
Si Si8 0.567873 0.855904 0.250118
O O1 0.394493 0.605508 0.895053
O O2 0.375414 0.777545 0.863901
O O3 0.543951 0.718652 0.878975
O O4 0.426955 0.745565 0.950162
O O5 0.822512 0.554872 0.620546
O O6 0.873100 0.377520 0.631272
O O7 0.862660 0.447413 0.548312
O O8 0.000000 0.500000 0.604532
O O9 0.304017 0.304017 0.355750
O O10 0.385844 0.189100 0.295616
O O11 0.784020 0.215981 0.655012
O O12 0.709587 0.079881 0.705223
O O13 0.684789 0.055206 0.500000
O O14 0.500000 0.000000 0.500000
O O15 0.118911 0.998939 0.500000
O O16 0.457401 0.880805 0.258329
#
# Coordination Sequence:
#
# PCOD9569510 Si02
#       8
#    16  16  16  16   8   8   2  16
#     4  11  22  37  56  86 124 166 200 241 297 369
#     4  11  19  39  58  86 117 156 200 251 299 349
#     4  11  22  37  62  87 117 155 199 250 314 367
#     4  12  24  36  59  89 119 156 200 246 298 363
#     4  10  20  34  63  84 114 157 214 262 287 341
#     4  12  22  38  54  85 126 177 213 241 298 380
#     4  12  28  36  60  84 144 196 210 242 320 432
#     4  11  20  37  63  87 114 151 198 254 305 366
#
# _framework density 17.089376999999999
#
# number of rings (size 3 to 8) (size 9 to 14) (size 15 to 20)
#    0.000    0.816    7.347    1.469    1.143    0.327 
#    0.000    0.408    0.000    0.490    0.000    0.000 
#    0.000    1.306    0.000    0.000    0.000    0.000 
#
# Total GULP energy -546133.143256 kJ/mol
# GULP energy per Si atom -5572.787176 kJ/mol
# Density = 1.705048 g / cm^3
# Si number density = 17.089377 Si / 1000 Ang^3
#
#
#
# Elastic Constant Matrix: (Units=GPa)
#
#
# Indices 1 2 3 4 5 6 
#
# 1 85.8844 43.5789 32.4239 0.0000 0.0000 0.0000
# 2 43.5789 85.8844 32.4239 0.0000 0.0000 0.0000
# 3 32.4239 32.4239 123.7955 0.0000 0.0000 0.0000
# 4 0.0000 0.0000 0.0000 6.5912 0.0000 0.0000
# 5 0.0000 0.0000 0.0000 0.0000 6.5912 0.0000
# 6 0.0000 0.0000 0.0000 0.0000 0.0000 38.7918
#
#
#
# Elastic Compliance Matrix: (Units=1/GPa)
#
#
# Indices 1 2 3 4 5 6 
#
# 1 0.016264 -0.007374 -0.002329 0.000000 0.000000 0.000000
# 2 -0.007374 0.016264 -0.002329 0.000000 0.000000 0.000000
# 3 -0.002329 -0.002329 0.009298 0.000000 0.000000 0.000000
# 4 0.000000 0.000000 0.000000 0.151716 0.000000 0.000000
# 5 0.000000 0.000000 0.000000 0.000000 0.151716 0.000000
# 6 0.000000 0.000000 0.000000 0.000000 0.000000 0.025779
#
#
# Mechanical properties :
#
#
# Convention : Reuss Voigt Hill
#
# Bulk Modulus (GPa) = 56.29218 56.93533 56.61376
# Shear Modulus (GPa) = 12.46821 22.87068 17.66945
#
# Velocity S-wave (km/s) = 2.70402 3.66224 3.21899
# Velocity P-wave (km/s) = 6.53914 7.16039 6.85681
#
# Compressibility (1/GPa) = 0.01776446
#
# Stress axis : x y z
#
# Youngs Moduli (GPa) = 61.48514 61.48514 107.55446
#
# Poissons Ratio (x) = 0.45336 0.25045
# Poissons Ratio (y) = 0.45336 0.25045
# Poissons Ratio (z) = 0.14317 0.14317
#
# Static dielectric constant tensor:
#      x y z
#    x 1.574980 0.000000 0.000000 
#    y 0.000000 1.574980 0.000000 
#    z 0.000000 0.000000 1.604270 
# 
# From -- ./inp_files/9149.got.cif
#   From: 2010.05.17/outbox.cif.g08.bks.cpg/sg136_5_cif.got.tgz:9149.got - 2010.05.20 12:54:53.
