data_PCOD9569163
_publ_section_title
;
Structure prediction by ZEFSAII (Michael W. Deem and Ramdas Pophale) SiO2 
 PCOD9569163
Probable space group: P 42/M N M
;
_chemical_formula_sum "Si O2"
_cell_formula_units_Z 112
_cell_length_a 15.418726
_cell_length_b 15.418726
_cell_length_c 28.037723
_cell_angle_alpha 90.000000
_cell_angle_beta 90.000000
_cell_angle_gamma 90.000000
_cell_volume 6665.607278
_symmetry_space_group_name_H-M "P 42/M N M"
_symmetry_group_IT_number 136
_symmetry_cell_setting 'tetragonal'
loop_
_space_group_symop_operation_xyz
x,y,z
1/2-y,1/2+x,1/2+z
-x,-y,z
1/2+y,1/2-x,1/2+z
1/2+x,1/2-y,1/2-z
1/2-x,1/2+y,1/2-z
y,x,-z
-y,-x,-z
-x,-y,-z
1/2+y,1/2-x,1/2-z
x,y,-z
1/2-y,1/2+x,1/2-z
1/2-x,1/2+y,1/2+z
1/2+x,1/2-y,1/2+z
-y,-x,z
y,x,z
loop_
_atom_site_type_symbol
_atom_site_label
_atom_site_fract_x
_atom_site_fract_y
_atom_site_fract_z
Si Si1 0.253063 0.893125 0.111203
Si Si2 0.662080 0.801742 0.894643
Si Si3 0.710421 0.434649 0.442976
Si Si4 0.326947 0.461081 0.943730
Si Si5 0.130010 0.446377 0.806676
Si Si6 0.634525 0.063070 0.199544
Si Si7 0.273106 0.127587 0.446007
O O1 0.182905 0.817096 0.116956
O O2 0.289969 0.924262 0.161694
O O3 0.336985 0.854204 0.083428
O O4 0.210970 0.971439 0.081322
O O5 0.737753 0.737753 0.876767
O O6 0.709595 0.882687 0.919048
O O7 0.608715 0.748323 0.934123
O O8 0.598614 0.824838 0.851369
O O9 0.721664 0.441447 0.500000
O O10 0.624397 0.375604 0.434668
O O11 0.415210 0.415210 0.924676
O O12 0.285839 0.550214 0.924809
O O13 0.341644 0.475225 0.000000
O O14 0.123765 0.550694 0.810675
O O15 0.166014 0.425534 0.753946
O O16 0.033057 0.406225 0.804710
O O17 0.299988 0.102475 0.500000
O O18 0.208855 0.208855 0.449672
#
# Coordination Sequence:
#
# PCOD9569163 Si02
#       7
#    16  16  16  16  16  16  16
#     4  11  21  34  52  73 102 134 171 219 260 301
#     4  10  18  30  50  73  99 128 162 210 257 300
#     4  10  21  36  53  74 102 138 178 218 262 311
#     4   9  17  29  46  70  99 130 163 200 248 305
#     4   9  17  32  53  73 100 129 160 203 252 310
#     4   9  18  32  51  75  99 129 162 202 255 305
#     4   9  18  31  46  67  97 132 168 206 249 297
#
# _framework density 16.802669999999999
#
# number of rings (size 3 to 8) (size 9 to 14) (size 15 to 20)
#    0.000    2.429    1.429    2.571    0.000    3.714 
#    0.000    2.143    0.000    3.429    0.000    0.000 
#    0.000    2.286    0.000    0.000    0.000    0.000 
#
# Total GULP energy -623503.540882 kJ/mol
# GULP energy per Si atom -5566.995901 kJ/mol
# Density = 1.676443 g / cm^3
# Si number density = 16.802670 Si / 1000 Ang^3
#
#
#
# Elastic Constant Matrix: (Units=GPa)
#
#
# Indices 1 2 3 4 5 6 
#
# 1 54.7338 5.9472 29.1508 0.0000 0.0000 0.0000
# 2 5.9472 54.7338 29.1508 0.0000 0.0000 0.0000
# 3 29.1508 29.1508 79.4000 0.0000 0.0000 0.0000
# 4 0.0000 0.0000 0.0000 19.6553 0.0000 0.0000
# 5 0.0000 0.0000 0.0000 0.0000 19.6553 0.0000
# 6 0.0000 0.0000 0.0000 0.0000 0.0000 19.0787
#
#
#
# Elastic Compliance Matrix: (Units=1/GPa)
#
#
# Indices 1 2 3 4 5 6 
#
# 1 0.022979 0.002482 -0.009348 0.000000 0.000000 0.000000
# 2 0.002482 0.022979 -0.009348 0.000000 0.000000 0.000000
# 3 -0.009348 -0.009348 0.019458 0.000000 0.000000 0.000000
# 4 0.000000 0.000000 0.000000 0.050877 0.000000 0.000000
# 5 0.000000 0.000000 0.000000 0.000000 0.050877 0.000000
# 6 0.000000 0.000000 0.000000 0.000000 0.000000 0.052414
#
#
# Mechanical properties :
#
#
# Convention : Reuss Voigt Hill
#
# Bulk Modulus (GPa) = 30.31298 35.26279 32.78789
# Shear Modulus (GPa) = 19.01085 19.98580 19.49832
#
# Velocity S-wave (km/s) = 3.36731 3.45257 3.41020
# Velocity P-wave (km/s) = 5.76178 6.07665 5.92130
#
# Compressibility (1/GPa) = 0.03298917
#
# Stress axis : x y z
#
# Youngs Moduli (GPa) = 43.51789 43.51789 51.39224
#
# Poissons Ratio (x) = -0.10800 0.48039
# Poissons Ratio (y) = -0.10800 0.48039
# Poissons Ratio (z) = 0.40679 0.40679
#
# Static dielectric constant tensor:
#      x y z
#    x 1.577430 0.000000 0.000000 
#    y 0.000000 1.577430 0.000000 
#    z 0.000000 0.000000 1.567380 
# 
# From -- ./inp_files/8511.got.cif
#   From: 2010.05.17/outbox.cif.g08.bks.cpg/sg136_5_cif.got.tgz:8511.got - 2010.05.20 12:54:53.
