data_PCOD9569564
_publ_section_title
;
Structure prediction by ZEFSAII (Michael W. Deem and Ramdas Pophale) SiO2 
 PCOD9569564
Probable space group: P 42/M N M
;
_chemical_formula_sum "Si O2"
_cell_formula_units_Z 120
_cell_length_a 20.355373
_cell_length_b 20.355373
_cell_length_c 15.001699
_cell_angle_alpha 90.000000
_cell_angle_beta 90.000000
_cell_angle_gamma 90.000000
_cell_volume 6215.822115
_symmetry_space_group_name_H-M "P 42/M N M"
_symmetry_group_IT_number 136
_symmetry_cell_setting 'tetragonal'
loop_
_space_group_symop_operation_xyz
x,y,z
1/2-y,1/2+x,1/2+z
-x,-y,z
1/2+y,1/2-x,1/2+z
1/2+x,1/2-y,1/2-z
1/2-x,1/2+y,1/2-z
y,x,-z
-y,-x,-z
-x,-y,-z
1/2+y,1/2-x,1/2-z
x,y,-z
1/2-y,1/2+x,1/2-z
1/2-x,1/2+y,1/2+z
1/2+x,1/2-y,1/2+z
-y,-x,z
y,x,z
loop_
_atom_site_type_symbol
_atom_site_label
_atom_site_fract_x
_atom_site_fract_y
_atom_site_fract_z
Si Si1 0.960940 0.563682 0.607375
Si Si2 0.447515 0.193038 0.397679
Si Si3 0.994854 0.713009 0.603629
Si Si4 0.218410 0.115313 0.705154
Si Si5 0.219502 0.323287 0.289976
Si Si6 0.947544 0.947544 0.893792
Si Si7 0.746363 0.148251 0.596749
Si Si8 0.295836 0.565460 0.603424
O O1 0.970774 0.565300 0.500000
O O2 0.884307 0.548306 0.623386
O O3 0.983797 0.637120 0.636896
O O4 0.000000 0.500000 0.641876
O O5 0.423385 0.197444 0.500000
O O6 0.394646 0.220354 0.329862
O O7 0.512114 0.237504 0.392953
O O8 0.972081 0.714620 0.500000
O O9 0.954175 0.763842 0.663255
O O10 0.070329 0.736272 0.603014
O O11 0.151054 0.151054 0.677331
O O12 0.278330 0.161379 0.673318
O O13 0.217460 0.111902 0.812561
O O14 0.286802 0.286802 0.310739
O O15 0.211552 0.324629 0.183742
O O16 0.870052 0.960848 0.875669
O O17 0.952762 0.952762 0.000000
O O18 0.000000 0.000000 0.855174
O O19 0.718843 0.168564 0.500000
O O20 0.819818 0.180183 0.600090
O O21 0.297564 0.590012 0.500000
#
# Coordination Sequence:
#
# PCOD9569564 Si02
#       8
#    16  16  16  16  16   8  16  16
#     4   9  18  34  57  86 117 154 197 238 291 355
#     4  10  20  36  57  85 122 156 191 239 292 354
#     4  10  20  37  61  84 116 157 195 247 301 350
#     4  11  22  36  57  83 116 155 196 241 292 355
#     4  10  21  35  54  82 115 149 188 239 289 349
#     4   9  18  36  60  86 115 149 193 243 302 371
#     4   9  19  37  60  84 110 148 199 249 299 346
#     4  10  21  37  59  84 115 155 195 244 300 355
#
# _framework density 19.305571
#
# number of rings (size 3 to 8) (size 9 to 14) (size 15 to 20)
#    0.000    2.200    2.000    0.800    0.000    2.667 
#    0.000    7.333    0.000    0.000    0.000    1.867 
#    0.000    0.000    0.000    0.000    0.000    0.000 
#
# Total GULP energy -668145.743064 kJ/mol
# GULP energy per Si atom -5567.881192 kJ/mol
# Density = 1.926163 g / cm^3
# Si number density = 19.305571 Si / 1000 Ang^3
#
#
#
# Elastic Constant Matrix: (Units=GPa)
#
#
# Indices 1 2 3 4 5 6 
#
# 1 77.0629 52.4035 20.9151 0.0000 0.0000 0.0000
# 2 52.4035 77.0629 20.9151 0.0000 0.0000 0.0000
# 3 20.9151 20.9151 38.7154 0.0000 0.0000 0.0000
# 4 0.0000 0.0000 0.0000 10.5676 0.0000 0.0000
# 5 0.0000 0.0000 0.0000 0.0000 10.5676 0.0000
# 6 0.0000 0.0000 0.0000 0.0000 0.0000 27.2206
#
#
#
# Elastic Compliance Matrix: (Units=1/GPa)
#
#
# Indices 1 2 3 4 5 6 
#
# 1 0.024955 -0.015598 -0.005055 0.000000 0.000000 0.000000
# 2 -0.015598 0.024955 -0.005055 0.000000 0.000000 0.000000
# 3 -0.005055 -0.005055 0.031291 0.000000 0.000000 0.000000
# 4 0.000000 0.000000 0.000000 0.094629 0.000000 0.000000
# 5 0.000000 0.000000 0.000000 0.000000 0.094629 0.000000
# 6 0.000000 0.000000 0.000000 0.000000 0.000000 0.036737
#
#
# Mechanical properties :
#
#
# Convention : Reuss Voigt Hill
#
# Bulk Modulus (GPa) = 33.57327 42.36763 37.97045
# Shear Modulus (GPa) = 13.56706 16.24499 14.90602
#
# Velocity S-wave (km/s) = 2.65383 2.90395 2.78170
# Velocity P-wave (km/s) = 5.17867 5.76518 5.47978
#
# Compressibility (1/GPa) = 0.02978560
#
# Stress axis : x y z
#
# Youngs Moduli (GPa) = 40.07242 40.07242 31.95780
#
# Poissons Ratio (x) = 0.62503 0.16155
# Poissons Ratio (y) = 0.62503 0.16155
# Poissons Ratio (z) = 0.20257 0.20257
#
# Static dielectric constant tensor:
#      x y z
#    x 1.693360 0.000000 0.000000 
#    y 0.000000 1.693360 0.000000 
#    z 0.000000 0.000000 1.705540 
# 
# From -- ./inp_files/5318.got.cif
#   From: 2010.05.17/outbox.cif.g08.bks.cpg/sg136_3_cif.got.tgz:5318.got - 2010.05.20 12:54:53.
