data_PCOD9569546
_publ_section_title
;
Structure prediction by ZEFSAII (Michael W. Deem and Ramdas Pophale) SiO2 
 PCOD9569546
Probable space group: P 42/M N M
;
_chemical_formula_sum "Si O2"
_cell_formula_units_Z 84
_cell_length_a 12.027677
_cell_length_b 12.027677
_cell_length_c 28.346052
_cell_angle_alpha 90.000000
_cell_angle_beta 90.000000
_cell_angle_gamma 90.000000
_cell_volume 4100.682010
_symmetry_space_group_name_H-M "P 42/M N M"
_symmetry_group_IT_number 136
_symmetry_cell_setting 'tetragonal'
loop_
_space_group_symop_operation_xyz
x,y,z
1/2-y,1/2+x,1/2+z
-x,-y,z
1/2+y,1/2-x,1/2+z
1/2+x,1/2-y,1/2-z
1/2-x,1/2+y,1/2-z
y,x,-z
-y,-x,-z
-x,-y,-z
1/2+y,1/2-x,1/2-z
x,y,-z
1/2-y,1/2+x,1/2-z
1/2-x,1/2+y,1/2+z
1/2+x,1/2-y,1/2+z
-y,-x,z
y,x,z
loop_
_atom_site_type_symbol
_atom_site_label
_atom_site_fract_x
_atom_site_fract_y
_atom_site_fract_z
Si Si1 0.852121 0.147880 0.500000
Si Si2 0.534181 0.871218 0.552178
Si Si3 0.001978 0.314611 0.242145
Si Si4 0.449991 0.725328 0.064686
Si Si5 0.731255 0.914543 0.858689
Si Si6 0.953705 0.224374 0.661138
O O1 0.928301 0.213597 0.459012
O O2 0.492171 0.836837 0.500000
O O3 0.667179 0.880029 0.550278
O O4 0.485582 0.800251 0.595226
O O5 0.500000 0.000000 0.560113
O O6 0.894171 0.393734 0.245419
O O7 0.992728 0.229986 0.285242
O O8 0.016198 0.265439 0.190053
O O9 0.386847 0.613154 0.051300
O O10 0.456030 0.734361 0.120928
O O11 0.842238 0.842238 0.865375
O O12 0.631571 0.826173 0.848936
O O13 0.888286 0.111715 0.652726
#
# Coordination Sequence:
#
# PCOD9569546 Si02
#       6
#     4  16  16  16  16  16
#     4  12  25  40  58  92 140 174 193 242 319 382
#     4  11  23  39  60  89 120 158 208 254 299 366
#     4   9  18  33  57  80 113 161 203 251 305 365
#     4  12  23  38  61  89 127 167 199 243 311 377
#     4  10  21  38  59  86 123 159 201 257 315 363
#     4  10  20  35  57  89 122 155 198 250 306 370
#
# _framework density 20.484397999999999
#
# number of rings (size 3 to 8) (size 9 to 14) (size 15 to 20)
#    0.000    1.524    3.810    2.000    2.667    1.143 
#    0.000    4.762    0.000    1.714    0.000    1.333 
#    0.000    0.000    0.000    0.000    0.000    0.000 
#
# Total GULP energy -467852.256922 kJ/mol
# GULP energy per Si atom -5569.669725 kJ/mol
# Density = 2.043777 g / cm^3
# Si number density = 20.484398 Si / 1000 Ang^3
#
#
#
# Elastic Constant Matrix: (Units=GPa)
#
#
# Indices 1 2 3 4 5 6 
#
# 1 28.4403 23.1400 40.1819 0.0000 0.0000 0.0000
# 2 23.1400 28.4399 40.1817 0.0000 0.0000 0.0000
# 3 40.1819 40.1817 204.5888 0.0000 0.0000 0.0000
# 4 0.0000 0.0000 0.0000 71.9367 0.0000 0.0000
# 5 0.0000 0.0000 0.0000 0.0000 71.9397 0.0000
# 6 0.0000 0.0000 0.0000 0.0000 0.0000 -1.2646
#
#
#
# Elastic Compliance Matrix: (Units=1/GPa)
#
#
# Indices 1 2 3 4 5 6 
#
# 1 0.108303 -0.080368 -0.005487 0.000000 0.000000 0.000000
# 2 -0.080368 0.108305 -0.005487 0.000000 0.000000 0.000000
# 3 -0.005487 -0.005487 0.007043 0.000000 0.000000 0.000000
# 4 0.000000 0.000000 0.000000 0.013901 0.000000 0.000000
# 5 0.000000 0.000000 0.000000 0.000000 0.013901 0.000000
# 6 0.000000 0.000000 0.000000 0.000000 0.000000 -0.790787
#
#
# Mechanical properties :
#
#
# Convention : Reuss Voigt Hill
#
# Bulk Modulus (GPa) = 24.40937 52.05292 38.23114
# Shear Modulus (GPa) = -14.57752 39.05340 12.23794
#
# Velocity S-wave (km/s) = -2.67055 4.37108 2.44688
# Velocity P-wave (km/s) = 1.55975 7.13732 5.16595
#
# Compressibility (1/GPa) = 0.04096788
#
# Stress axis : x y z
#
# Youngs Moduli (GPa) = 9.23333 9.23318 141.98406
#
# Poissons Ratio (x) = 0.74206 0.77900
# Poissons Ratio (y) = 0.74207 0.77903
# Poissons Ratio (z) = 0.05066 0.05066
#
# Static dielectric constant tensor:
#      x y z
#    x 1.743200 0.000000 0.000000 
#    y 0.000000 1.743200 0.000000 
#    z 0.000000 0.000000 1.763980 
# 
# From -- ./inp_files/9738.got.cif
#   From: 2010.05.17/outbox.cif.g08.bks.cpg/sg136_5_cif.got.tgz:9738.got - 2010.05.20 12:54:53.
