data_PCOD9569976
_publ_section_title
;
Structure prediction by ZEFSAII (Michael W. Deem and Ramdas Pophale) SiO2 
 PCOD9569976
Probable space group: P 42/N M C
;
_chemical_formula_sum "Si O2"
_cell_formula_units_Z 96
_cell_length_a 17.795168
_cell_length_b 17.795168
_cell_length_c 18.109504
_cell_angle_alpha 90.000000
_cell_angle_beta 90.000000
_cell_angle_gamma 90.000000
_cell_volume 5734.700488
_symmetry_space_group_name_H-M "P 42/N M C"
_symmetry_group_IT_number 137
_space_group.IT_coordinate_system_code '2'
_symmetry_cell_setting 'tetragonal'
loop_
_space_group_symop_operation_xyz
x,y,z
1/2-y,x,1/2+z
1/2-x,1/2-y,z
y,1/2-x,1/2+z
1/2+x,-y,-z
-x,1/2+y,-z
1/2+y,1/2+x,1/2-z
-y,-x,1/2-z
-x,-y,-z
1/2+y,-x,1/2-z
1/2+x,1/2+y,-z
-y,1/2+x,1/2-z
1/2-x,y,z
x,1/2-y,z
1/2-y,1/2-x,1/2+z
y,x,1/2+z
loop_
_atom_site_type_symbol
_atom_site_label
_atom_site_fract_x
_atom_site_fract_y
_atom_site_fract_z
Si Si1 0.090836 0.598165 0.165467
Si Si2 0.518334 0.159847 0.434996
Si Si3 0.934130 0.541344 0.200747
Si Si4 0.339824 0.832678 0.024042
Si Si5 0.545298 0.661857 0.411434
Si Si6 0.660754 0.837435 0.292281
O O1 0.114617 0.614617 0.250000
O O2 0.121741 0.652821 0.102889
O O3 0.120707 0.516259 0.139314
O O4 0.001204 0.591444 0.166765
O O5 0.513803 0.250000 0.421989
O O6 0.498520 0.113630 0.362795
O O7 0.600734 0.141344 0.467542
O O8 0.463425 0.139152 0.503526
O O9 0.880410 0.598733 0.244622
O O10 0.979082 0.479082 0.250000
O O11 0.250000 0.836957 0.035406
O O12 0.358810 0.750000 0.995785
O O13 0.524575 0.750000 0.409575
O O14 0.625937 0.653433 0.374202
O O15 0.750000 0.846323 0.290176
O O16 0.643348 0.750000 0.270089
#
# Coordination Sequence:
#
# PCOD9569976 Si02
#       6
#    16  16  16  16  16  16
#     4  10  18  30  49  77 105 142 168 215 264 319
#     4   9  19  36  59  76 103 145 181 223 269 318
#     4  11  21  36  54  81 110 143 181 222 271 323
#     4   9  19  34  51  76 107 141 180 217 262 316
#     4   9  17  33  53  76 101 137 180 216 268 326
#     4  10  20  36  57  79 108 144 183 229 277 328
#
# _framework density 16.740193999999999
#
# number of rings (size 3 to 8) (size 9 to 14) (size 15 to 20)
#    0.000    2.333    3.333    2.000    0.000    4.667 
#    0.000    3.333    0.000    3.000    0.000    0.000 
#    0.000    0.000    0.000    0.000    0.000    0.000 
#
# Total GULP energy -534655.389097 kJ/mol
# GULP energy per Si atom -5569.326970 kJ/mol
# Density = 1.670209 g / cm^3
# Si number density = 16.740194 Si / 1000 Ang^3
#
#
#
# Elastic Constant Matrix: (Units=GPa)
#
#
# Indices 1 2 3 4 5 6 
#
# 1 83.2446 49.3264 56.0142 0.0000 0.0000 0.0000
# 2 49.3264 83.2446 56.0142 0.0000 0.0000 0.0000
# 3 56.0142 56.0142 106.0589 0.0000 0.0000 0.0000
# 4 0.0000 0.0000 0.0000 15.9791 0.0000 0.0000
# 5 0.0000 0.0000 0.0000 0.0000 15.9791 0.0000
# 6 0.0000 0.0000 0.0000 0.0000 0.0000 26.9627
#
#
#
# Elastic Compliance Matrix: (Units=1/GPa)
#
#
# Indices 1 2 3 4 5 6 
#
# 1 0.021553 -0.007930 -0.007195 0.000000 0.000000 0.000000
# 2 -0.007930 0.021553 -0.007195 0.000000 0.000000 0.000000
# 3 -0.007195 -0.007195 0.017029 0.000000 0.000000 0.000000
# 4 0.000000 0.000000 0.000000 0.062582 0.000000 0.000000
# 5 0.000000 0.000000 0.000000 0.000000 0.062582 0.000000
# 6 0.000000 0.000000 0.000000 0.000000 0.000000 0.037088
#
#
# Mechanical properties :
#
#
# Convention : Reuss Voigt Hill
#
# Bulk Modulus (GPa) = 64.53639 66.13975 65.33807
# Shear Modulus (GPa) = 18.36945 19.19706 18.78326
#
# Velocity S-wave (km/s) = 3.31618 3.39007 3.35333
# Velocity P-wave (km/s) = 7.30056 7.41072 7.35585
#
# Compressibility (1/GPa) = 0.01549513
#
# Stress axis : x y z
#
# Youngs Moduli (GPa) = 46.39738 46.39738 58.72438
#
# Poissons Ratio (x) = 0.36792 0.42252
# Poissons Ratio (y) = 0.36792 0.42252
# Poissons Ratio (z) = 0.33383 0.33383
#
# Static dielectric constant tensor:
#      x y z
#    x 1.571570 0.000000 0.000000 
#    y 0.000000 1.571570 0.000000 
#    z 0.000000 0.000000 1.562180 
# 
# From -- ./inp_files/6526.got.cif
#   From: 2010.05.17/outbox.cif.g08.bks.cpg/sg137_4_cif.got.tgz:6526.got - 2010.05.20 13:01:12.
