data_PCOD9569757
_publ_section_title
;
Structure prediction by ZEFSAII (Michael W. Deem and Ramdas Pophale) SiO2 
 PCOD9569757
Probable space group: P 42/M N M
;
_chemical_formula_sum "Si O2"
_cell_formula_units_Z 60
_cell_length_a 10.964167
_cell_length_b 10.964167
_cell_length_c 22.085196
_cell_angle_alpha 90.000000
_cell_angle_beta 90.000000
_cell_angle_gamma 90.000000
_cell_volume 2654.926739
_symmetry_space_group_name_H-M "P 42/M N M"
_symmetry_group_IT_number 136
_symmetry_cell_setting 'tetragonal'
loop_
_space_group_symop_operation_xyz
x,y,z
1/2-y,1/2+x,1/2+z
-x,-y,z
1/2+y,1/2-x,1/2+z
1/2+x,1/2-y,1/2-z
1/2-x,1/2+y,1/2-z
y,x,-z
-y,-x,-z
-x,-y,-z
1/2+y,1/2-x,1/2-z
x,y,-z
1/2-y,1/2+x,1/2-z
1/2-x,1/2+y,1/2+z
1/2+x,1/2-y,1/2+z
-y,-x,z
y,x,z
loop_
_atom_site_type_symbol
_atom_site_label
_atom_site_fract_x
_atom_site_fract_y
_atom_site_fract_z
Si Si1 0.474235 0.855206 0.862889
Si Si2 0.776050 0.223951 0.669358
Si Si3 0.145379 0.854621 0.067914
Si Si4 0.463889 0.855576 0.000000
Si Si5 0.636305 0.363696 0.409275
Si Si6 0.256405 0.256405 0.694249
Si Si7 0.709441 0.709441 0.000000
O O1 0.599358 0.779982 0.857453
O O2 0.415438 0.841578 0.930891
O O3 0.383647 0.795778 0.814531
O O4 0.500000 0.000000 0.853579
O O5 0.671416 0.328585 0.659193
O O6 0.798058 0.201943 0.740249
O O7 0.185407 0.814594 0.134391
O O8 0.999651 0.834683 0.070823
O O9 0.186837 0.813163 0.000000
O O10 0.500000 0.000000 0.000000
O O11 0.571008 0.753572 0.000000
O O12 0.725087 0.274914 0.444610
#
# Coordination Sequence:
#
# PCOD9569757 Si02
#       7
#    16   8   8   8   8   8   4
#     4  11  26  47  75 105 144 188 238 297 357 422
#     4  12  27  47  70  97 145 197 241 284 350 431
#     4  11  24  40  68 108 140 168 234 312 363 404
#     4  10  22  39  71 106 134 183 233 288 359 418
#     4  11  21  40  70 103 136 181 230 301 362 413
#     4  12  31  42  70 104 143 197 234 292 350 427
#     4  12  18  39  66 107 140 178 236 278 362 420
#
# _framework density 22.599492999999999
#
# number of rings (size 3 to 8) (size 9 to 14) (size 15 to 20)
#    0.000    0.800    4.000    2.000   13.067    0.533 
#    0.000    0.000    0.000    2.400    0.000    0.000 
#    0.000    0.000    0.000    0.000    0.000    0.000 
#
# Total GULP energy -334573.554273 kJ/mol
# GULP energy per Si atom -5576.225905 kJ/mol
# Density = 2.254806 g / cm^3
# Si number density = 22.599493 Si / 1000 Ang^3
#
#
#
# Elastic Constant Matrix: (Units=GPa)
#
#
# Indices 1 2 3 4 5 6 
#
# 1 68.5429 17.1276 27.0974 0.0000 0.0000 0.0000
# 2 17.1276 68.5429 27.0974 0.0000 0.0000 0.0000
# 3 27.0974 27.0974 134.0099 0.0000 0.0000 0.0000
# 4 0.0000 0.0000 0.0000 26.3448 0.0000 0.0000
# 5 0.0000 0.0000 0.0000 0.0000 26.3448 0.0000
# 6 0.0000 0.0000 0.0000 0.0000 0.0000 37.9926
#
#
#
# Elastic Compliance Matrix: (Units=1/GPa)
#
#
# Indices 1 2 3 4 5 6 
#
# 1 0.016417 -0.003032 -0.002706 0.000000 0.000000 0.000000
# 2 -0.003032 0.016417 -0.002706 0.000000 0.000000 0.000000
# 3 -0.002706 -0.002706 0.008557 0.000000 0.000000 0.000000
# 4 0.000000 0.000000 0.000000 0.037958 0.000000 0.000000
# 5 0.000000 0.000000 0.000000 0.000000 0.037958 0.000000
# 6 0.000000 0.000000 0.000000 0.000000 0.000000 0.026321
#
#
# Mechanical properties :
#
#
# Convention : Reuss Voigt Hill
#
# Bulk Modulus (GPa) = 40.81584 45.97118 43.39351
# Shear Modulus (GPa) = 29.64100 31.45467 30.54784
#
# Velocity S-wave (km/s) = 3.62550 3.73477 3.68054
# Velocity P-wave (km/s) = 5.96870 6.24371 6.10775
#
# Compressibility (1/GPa) = 0.02450029
#
# Stress axis : x y z
#
# Youngs Moduli (GPa) = 60.91210 60.91210 116.86817
#
# Poissons Ratio (x) = 0.18471 0.31630
# Poissons Ratio (y) = 0.18471 0.31630
# Poissons Ratio (z) = 0.16486 0.16486
#
# Static dielectric constant tensor:
#      x y z
#    x 1.866670 0.000000 0.000000 
#    y 0.000000 1.866670 0.000000 
#    z 0.000000 0.000000 2.013860 
# 
# From -- ./inp_files/7140.got.cif
#   From: 2010.05.17/outbox.cif.g08.bks.cpg/sg136_4_cif.got.tgz:7140.got - 2010.05.20 12:54:53.
