data_PCOD9569874
_publ_section_title
;
Structure prediction by ZEFSAII (Michael W. Deem and Ramdas Pophale) SiO2 
 PCOD9569874
Probable space group: P 42/M N M
;
_chemical_formula_sum "Si O2"
_cell_formula_units_Z 36
_cell_length_a 11.670603
_cell_length_b 11.670603
_cell_length_c 12.617582
_cell_angle_alpha 90.000000
_cell_angle_beta 90.000000
_cell_angle_gamma 90.000000
_cell_volume 1718.552198
_symmetry_space_group_name_H-M "P 42/M N M"
_symmetry_group_IT_number 136
_symmetry_cell_setting 'tetragonal'
loop_
_space_group_symop_operation_xyz
x,y,z
1/2-y,1/2+x,1/2+z
-x,-y,z
1/2+y,1/2-x,1/2+z
1/2+x,1/2-y,1/2-z
1/2-x,1/2+y,1/2-z
y,x,-z
-y,-x,-z
-x,-y,-z
1/2+y,1/2-x,1/2-z
x,y,-z
1/2-y,1/2+x,1/2-z
1/2-x,1/2+y,1/2+z
1/2+x,1/2-y,1/2+z
-y,-x,z
y,x,z
loop_
_atom_site_type_symbol
_atom_site_label
_atom_site_fract_x
_atom_site_fract_y
_atom_site_fract_z
Si Si1 0.618655 0.381346 0.000000
Si Si2 0.589764 0.410237 0.244952
Si Si3 0.584432 0.781830 0.000000
Si Si4 0.938653 0.647696 0.201144
O O1 0.582571 0.417430 0.881921
O O2 0.741324 0.451451 0.000000
O O3 0.500000 0.500000 0.291415
O O4 0.564567 0.281475 0.279117
O O5 0.615859 0.859438 0.101634
O O6 0.668040 0.668040 0.000000
O O7 0.889314 0.571651 0.298955
#
# Coordination Sequence:
#
# PCOD9569874 Si02
#       4
#     4   8   8  16
#     4  12  25  42  80 104 138 191 258 295 348 436
#     4  12  25  45  74 107 140 190 243 296 366 425
#     4  12  23  44  72 109 143 193 243 299 365 438
#     4  11  26  44  70 102 147 186 237 306 361 427
#
# _framework density 20.947866999999999
#
# number of rings (size 3 to 8) (size 9 to 14) (size 15 to 20)
#    0.000    0.444    6.667    2.000    3.111    5.333 
#    0.000    2.222    0.000    0.000    0.000    0.000 
#    0.000    0.000    0.000    0.000    0.000    0.000 
#
# Total GULP energy -200477.646597 kJ/mol
# GULP energy per Si atom -5568.823517 kJ/mol
# Density = 2.090019 g / cm^3
# Si number density = 20.947867 Si / 1000 Ang^3
#
#
#
# Elastic Constant Matrix: (Units=GPa)
#
#
# Indices 1 2 3 4 5 6 
#
# 1 143.6550 117.5652 42.1413 0.0000 0.0000 0.0000
# 2 117.5652 143.6540 42.1409 0.0000 0.0000 0.0000
# 3 42.1413 42.1409 88.1466 0.0000 0.0000 0.0000
# 4 0.0000 0.0000 0.0000 -69.5836 0.0000 0.0000
# 5 0.0000 0.0000 0.0000 0.0000 -69.5959 0.0000
# 6 0.0000 0.0000 0.0000 0.0000 0.0000 41.4902
#
#
#
# Elastic Compliance Matrix: (Units=1/GPa)
#
#
# Indices 1 2 3 4 5 6 
#
# 1 0.021428 -0.016902 -0.002164 0.000000 0.000000 0.000000
# 2 -0.016902 0.021428 -0.002164 0.000000 0.000000 0.000000
# 3 -0.002164 -0.002164 0.013414 0.000000 0.000000 0.000000
# 4 0.000000 0.000000 0.000000 -0.014371 0.000000 0.000000
# 5 0.000000 0.000000 0.000000 0.000000 -0.014369 0.000000
# 6 0.000000 0.000000 0.000000 0.000000 0.000000 0.024102
#
#
# Mechanical properties :
#
#
# Convention : Reuss Voigt Hill
#
# Bulk Modulus (GPa) = 72.40749 86.57227 79.48988
# Shear Modulus (GPa) = 50.66102 -7.96398 21.34852
#
# Velocity S-wave (km/s) = 4.92309 -1.95194 3.19584
# Velocity P-wave (km/s) = 8.18269 6.02803 7.18657
#
# Compressibility (1/GPa) = 0.01381073
#
# Stress axis : x y z
#
# Youngs Moduli (GPa) = 46.66779 46.66753 74.54980
#
# Poissons Ratio (x) = 0.78876 0.16133
# Poissons Ratio (y) = 0.78877 0.16132
# Poissons Ratio (z) = 0.10099 0.10098
#
# Static dielectric constant tensor:
#      x y z
#    x 1.802510 0.000000 0.000000 
#    y 0.000000 1.802510 0.000000 
#    z 0.000000 0.000000 1.749400 
# 
# From -- ./inp_files/2737.got.cif
#   From: 2010.05.17/outbox.cif.g08.bks.cpg/sg136_2_cif.got.tgz:2737.got - 2010.05.20 12:54:53.
