data_PCOD9569569
_publ_section_title
;
Structure prediction by ZEFSAII (Michael W. Deem and Ramdas Pophale) SiO2 
 PCOD9569569
Probable space group: P 42/M N M
;
_chemical_formula_sum "Si O2"
_cell_formula_units_Z 96
_cell_length_a 15.858431
_cell_length_b 15.858431
_cell_length_c 18.367105
_cell_angle_alpha 90.000000
_cell_angle_beta 90.000000
_cell_angle_gamma 90.000000
_cell_volume 4619.140184
_symmetry_space_group_name_H-M "P 42/M N M"
_symmetry_group_IT_number 136
_symmetry_cell_setting 'tetragonal'
loop_
_space_group_symop_operation_xyz
x,y,z
1/2-y,1/2+x,1/2+z
-x,-y,z
1/2+y,1/2-x,1/2+z
1/2+x,1/2-y,1/2-z
1/2-x,1/2+y,1/2-z
y,x,-z
-y,-x,-z
-x,-y,-z
1/2+y,1/2-x,1/2-z
x,y,-z
1/2-y,1/2+x,1/2-z
1/2-x,1/2+y,1/2+z
1/2+x,1/2-y,1/2+z
-y,-x,z
y,x,z
loop_
_atom_site_type_symbol
_atom_site_label
_atom_site_fract_x
_atom_site_fract_y
_atom_site_fract_z
Si Si1 0.320492 0.817694 0.317999
Si Si2 0.994759 0.132550 0.343885
Si Si3 0.713600 0.909993 0.419299
Si Si4 0.954790 0.821687 0.185277
Si Si5 0.379288 0.239422 0.667268
Si Si6 0.446039 0.076503 0.081742
O O1 0.238976 0.761025 0.342617
O O2 0.386279 0.747430 0.289884
O O3 0.292538 0.877186 0.251247
O O4 0.374379 0.872166 0.375581
O O5 0.059211 0.059211 0.364048
O O6 0.038674 0.213248 0.378520
O O7 0.999704 0.142541 0.256808
O O8 0.901865 0.098136 0.364790
O O9 0.741736 0.883447 0.500000
O O10 0.669148 0.832324 0.378280
O O11 0.643767 0.980914 0.426564
O O12 0.898657 0.898657 0.151866
O O13 0.027548 0.769617 0.143434
O O14 0.320919 0.320919 0.664127
O O15 0.500000 0.000000 0.117818
O O16 0.417315 0.049311 0.000000
#
# Coordination Sequence:
#
# PCOD9569569 Si02
#       6
#    16  16  16  16  16  16
#     4  10  21  37  59  88 120 156 203 255 307 369
#     4  10  20  36  58  86 122 158 196 245 301 366
#     4  11  23  39  59  85 121 163 205 252 310 374
#     4  10  20  37  59  86 119 154 200 258 316 369
#     4  11  22  37  58  86 119 156 204 257 307 367
#     4  10  22  40  59  84 119 155 196 249 307 370
#
# _framework density 20.783089
#
# number of rings (size 3 to 8) (size 9 to 14) (size 15 to 20)
#    0.000    1.667    1.667    3.000    0.000    5.000 
#    0.000    2.500    0.000    1.500    0.000    1.167 
#    0.000    0.000    0.000    0.000    0.000    0.000 
#
# Total GULP energy -534545.650711 kJ/mol
# GULP energy per Si atom -5568.183862 kJ/mol
# Density = 2.073579 g / cm^3
# Si number density = 20.783089 Si / 1000 Ang^3
#
#
#
# Elastic Constant Matrix: (Units=GPa)
#
#
# Indices 1 2 3 4 5 6 
#
# 1 119.6155 57.8584 24.4409 0.0000 0.0000 0.0000
# 2 57.8584 119.6155 24.4409 0.0000 0.0000 0.0000
# 3 24.4409 24.4409 40.7987 0.0000 0.0000 0.0000
# 4 0.0000 0.0000 0.0000 15.3106 0.0000 0.0000
# 5 0.0000 0.0000 0.0000 0.0000 15.3106 0.0000
# 6 0.0000 0.0000 0.0000 0.0000 0.0000 54.9798
#
#
#
# Elastic Compliance Matrix: (Units=1/GPa)
#
#
# Indices 1 2 3 4 5 6 
#
# 1 0.011470 -0.004722 -0.004042 0.000000 0.000000 0.000000
# 2 -0.004722 0.011470 -0.004042 0.000000 0.000000 0.000000
# 3 -0.004042 -0.004042 0.029354 0.000000 0.000000 0.000000
# 4 0.000000 0.000000 0.000000 0.065314 0.000000 0.000000
# 5 0.000000 0.000000 0.000000 0.000000 0.065314 0.000000
# 6 0.000000 0.000000 0.000000 0.000000 0.000000 0.018188
#
#
# Mechanical properties :
#
#
# Convention : Reuss Voigt Hill
#
# Bulk Modulus (GPa) = 37.48106 54.83443 46.15775
# Shear Modulus (GPa) = 21.22070 28.67285 24.94677
#
# Velocity S-wave (km/s) = 3.19886 3.71836 3.46835
# Velocity P-wave (km/s) = 5.63180 6.69898 6.18844
#
# Compressibility (1/GPa) = 0.02668014
#
# Stress axis : x y z
#
# Youngs Moduli (GPa) = 87.18199 87.18199 34.06689
#
# Poissons Ratio (x) = 0.41169 0.13772
# Poissons Ratio (y) = 0.41169 0.13772
# Poissons Ratio (z) = 0.35243 0.35243
#
# Static dielectric constant tensor:
#      x y z
#    x 2.338360 0.000000 0.000000 
#    y 0.000000 2.338360 0.000000 
#    z 0.000000 0.000000 1.779220 
# 
# From -- ./inp_files/7515.got.cif
#   From: 2010.05.17/outbox.cif.g08.bks.cpg/sg136_4_cif.got.tgz:7515.got - 2010.05.20 12:54:53.
