data_PCOD9569089
_publ_section_title
;
Structure prediction by ZEFSAII (Michael W. Deem and Ramdas Pophale) SiO2 
 PCOD9569089
Probable space group: P 42/M N M
;
_chemical_formula_sum "Si O2"
_cell_formula_units_Z 104
_cell_length_a 27.014999
_cell_length_b 27.014999
_cell_length_c 7.550290
_cell_angle_alpha 90.000000
_cell_angle_beta 90.000000
_cell_angle_gamma 90.000000
_cell_volume 5510.278436
_symmetry_space_group_name_H-M "P 42/M N M"
_symmetry_group_IT_number 136
_symmetry_cell_setting 'tetragonal'
loop_
_space_group_symop_operation_xyz
x,y,z
1/2-y,1/2+x,1/2+z
-x,-y,z
1/2+y,1/2-x,1/2+z
1/2+x,1/2-y,1/2-z
1/2-x,1/2+y,1/2-z
y,x,-z
-y,-x,-z
-x,-y,-z
1/2+y,1/2-x,1/2-z
x,y,-z
1/2-y,1/2+x,1/2-z
1/2-x,1/2+y,1/2+z
1/2+x,1/2-y,1/2+z
-y,-x,z
y,x,z
loop_
_atom_site_type_symbol
_atom_site_label
_atom_site_fract_x
_atom_site_fract_y
_atom_site_fract_z
Si Si1 0.018474 0.749586 0.214595
Si Si2 0.199762 0.800239 0.794769
Si Si3 0.540930 0.459071 0.282471
Si Si4 0.859766 0.491452 0.792760
Si Si5 0.388537 0.898706 0.205326
Si Si6 0.218352 0.371698 0.717433
Si Si7 0.118453 0.881548 0.288446
Si Si8 0.642677 0.504837 0.708752
O O1 0.991505 0.699623 0.273259
O O2 0.076112 0.743625 0.268870
O O3 0.997250 0.801837 0.280041
O O4 0.018050 0.749982 0.000000
O O5 0.248738 0.825922 0.718826
O O6 0.157493 0.842508 0.787671
O O7 0.210736 0.789265 0.000000
O O8 0.500000 0.500000 0.229756
O O9 0.540756 0.459245 0.500000
O O10 0.524664 0.404667 0.220287
O O11 0.882784 0.441093 0.716930
O O12 0.879633 0.542407 0.710759
O O13 0.872430 0.495051 0.000000
O O14 0.338346 0.874428 0.279586
O O15 0.390482 0.883160 0.000000
O O16 0.218343 0.371272 0.500000
O O17 0.120995 0.879006 0.500000
O O18 0.063049 0.868808 0.228943
O O19 0.644788 0.493429 0.500000
#
# Coordination Sequence:
#
# PCOD9569089 Si02
#       8
#    16   8   8  16  16  16   8  16
#     4   9  17  30  49  69  94 124 157 196 236 288
#     4  10  16  28  49  70  91 123 164 198 237 288
#     4   9  16  26  48  71  86 116 169 218 238 266
#     4  10  20  33  52  74  99 127 157 198 240 288
#     4   9  19  35  50  71 101 129 160 196 239 289
#     4   8  14  26  47  70  90 116 152 193 230 274
#     4  12  22  27  39  68 102 129 154 200 251 295
#     4  10  18  32  49  66  91 128 169 204 241 287
#
# _framework density 18.873818
#
# number of rings (size 3 to 8) (size 9 to 14) (size 15 to 20)
#    0.000    2.538    2.308    2.077    0.000    2.154 
#    0.000    2.308    0.000    0.923    0.000    1.077 
#    0.000    0.000    0.000    0.000    0.000    0.000 
#
# Total GULP energy -579903.241041 kJ/mol
# GULP energy per Si atom -5575.992702 kJ/mol
# Density = 1.883086 g / cm^3
# Si number density = 18.873818 Si / 1000 Ang^3
#
#
#
# Elastic Constant Matrix: (Units=GPa)
#
#
# Indices 1 2 3 4 5 6 
#
# 1 118.9291 81.7076 -6.1277 0.0000 0.0000 0.0000
# 2 81.7076 118.9289 -6.1272 0.0000 0.0000 0.0000
# 3 -6.1277 -6.1272 44.9472 0.0000 0.0000 0.0000
# 4 0.0000 0.0000 0.0000 4.7413 0.0000 0.0000
# 5 0.0000 0.0000 0.0000 0.0000 4.7414 0.0000
# 6 0.0000 0.0000 0.0000 0.0000 0.0000 29.9918
#
#
#
# Elastic Compliance Matrix: (Units=1/GPa)
#
#
# Indices 1 2 3 4 5 6 
#
# 1 0.015946 -0.010920 0.000685 0.000000 0.000000 0.000000
# 2 -0.010920 0.015946 0.000685 0.000000 0.000000 0.000000
# 3 0.000685 0.000685 0.022435 0.000000 0.000000 0.000000
# 4 0.000000 0.000000 0.000000 0.210911 0.000000 0.000000
# 5 0.000000 0.000000 0.000000 0.000000 0.210908 0.000000
# 6 0.000000 0.000000 0.000000 0.000000 0.000000 0.033342
#
#
# Mechanical properties :
#
#
# Convention : Reuss Voigt Hill
#
# Bulk Modulus (GPa) = 28.38667 46.85672 37.62170
# Shear Modulus (GPa) = 9.25358 22.11841 15.68600
#
# Velocity S-wave (km/s) = 2.21664 3.42703 2.88600
# Velocity P-wave (km/s) = 4.65019 6.36707 5.57512
#
# Compressibility (1/GPa) = 0.03522780
#
# Stress axis : x y z
#
# Youngs Moduli (GPa) = 62.71124 62.71117 44.57293
#
# Poissons Ratio (x) = 0.68481 -0.03055
# Poissons Ratio (y) = 0.68481 -0.03053
# Poissons Ratio (z) = -0.04298 -0.04296
#
# Static dielectric constant tensor:
#      x y z
#    x 1.655220 0.000000 0.000000 
#    y 0.000000 1.655220 0.000000 
#    z 0.000000 0.000000 1.698950 
# 
# From -- ./inp_files/2285.got.cif
#   From: 2010.05.17/outbox.cif.g08.bks.cpg/sg136_2_cif.got.tgz:2285.got - 2010.05.20 12:54:53.
