data_PCOD9569523
_publ_section_title
;
Structure prediction by ZEFSAII (Michael W. Deem and Ramdas Pophale) SiO2 
 PCOD9569523
Probable space group: P 42/M N M
;
_chemical_formula_sum "Si O2"
_cell_formula_units_Z 116
_cell_length_a 28.203444
_cell_length_b 28.203444
_cell_length_c 7.960923
_cell_angle_alpha 90.000000
_cell_angle_beta 90.000000
_cell_angle_gamma 90.000000
_cell_volume 6332.390843
_symmetry_space_group_name_H-M "P 42/M N M"
_symmetry_group_IT_number 136
_symmetry_cell_setting 'tetragonal'
loop_
_space_group_symop_operation_xyz
x,y,z
1/2-y,1/2+x,1/2+z
-x,-y,z
1/2+y,1/2-x,1/2+z
1/2+x,1/2-y,1/2-z
1/2-x,1/2+y,1/2-z
y,x,-z
-y,-x,-z
-x,-y,-z
1/2+y,1/2-x,1/2-z
x,y,-z
1/2-y,1/2+x,1/2-z
1/2-x,1/2+y,1/2+z
1/2+x,1/2-y,1/2+z
-y,-x,z
y,x,z
loop_
_atom_site_type_symbol
_atom_site_label
_atom_site_fract_x
_atom_site_fract_y
_atom_site_fract_z
Si Si1 0.891706 0.108295 0.000000
Si Si2 0.067723 0.826344 0.696946
Si Si3 0.209790 0.286255 0.300110
Si Si4 0.010655 0.570505 0.315437
Si Si5 0.526605 0.275087 0.705071
Si Si6 0.175772 0.485070 0.692501
Si Si7 0.209935 0.133974 0.202903
Si Si8 0.892572 0.277005 0.693841
O O1 0.861819 0.080503 0.152370
O O2 0.075003 0.841066 0.500000
O O3 0.099218 0.778804 0.727352
O O4 0.013676 0.808696 0.719272
O O5 0.214526 0.290992 0.500000
O O6 0.253976 0.253976 0.238093
O O7 0.162944 0.256109 0.260363
O O8 0.209971 0.338342 0.224280
O O9 0.030573 0.562472 0.500000
O O10 0.959387 0.545618 0.302694
O O11 0.008062 0.626002 0.282064
O O12 0.522908 0.276761 0.500000
O O13 0.514396 0.221122 0.757766
O O14 0.579542 0.289046 0.756295
O O15 0.168499 0.498949 0.500000
O O16 0.192690 0.430387 0.702394
O O17 0.164540 0.164540 0.260959
O O18 0.209829 0.134253 0.000000
O O19 0.905189 0.285099 0.500000
#
# Coordination Sequence:
#
# PCOD9569523 Si02
#       8
#     4  16  16  16  16  16  16  16
#     4  12  22  36  60  82 125 146 194 232 276 342
#     4  10  22  36  56  86 114 154 193 230 281 338
#     4  10  21  33  49  73 107 148 188 229 280 329
#     4  11  22  38  57  77 103 134 180 235 291 342
#     4   9  18  36  58  80 113 150 183 231 285 327
#     4  10  20  35  55  77 105 142 183 225 277 336
#     4   9  18  34  56  82 111 146 191 235 278 334
#     4  10  21  35  51  75 109 145 190 231 275 335
#
# _framework density 18.318515000000001
#
# number of rings (size 3 to 8) (size 9 to 14) (size 15 to 20)
#    0.000    2.069    0.690    3.103    2.897    3.034 
#    0.000    4.138    0.000    0.000    0.000    0.966 
#    0.000    1.103    0.000    0.000    0.000    0.000 
#
# Total GULP energy -646064.975578 kJ/mol
# GULP energy per Si atom -5569.525652 kJ/mol
# Density = 1.827682 g / cm^3
# Si number density = 18.318515 Si / 1000 Ang^3
#
#
#
# Elastic Constant Matrix: (Units=GPa)
#
#
# Indices 1 2 3 4 5 6 
#
# 1 88.2359 61.5486 15.2027 0.0000 0.0000 0.0000
# 2 61.5486 88.2365 15.2032 0.0000 0.0000 0.0000
# 3 15.2027 15.2032 56.3763 0.0000 0.0000 0.0000
# 4 0.0000 0.0000 0.0000 -350.3917 0.0000 0.0000
# 5 0.0000 0.0000 0.0000 0.0000 -350.3407 0.0000
# 6 0.0000 0.0000 0.0000 0.0000 0.0000 9.3781
#
#
#
# Elastic Compliance Matrix: (Units=1/GPa)
#
#
# Indices 1 2 3 4 5 6 
#
# 1 0.022267 -0.015204 -0.001904 0.000000 0.000000 0.000000
# 2 -0.015204 0.022267 -0.001905 0.000000 0.000000 0.000000
# 3 -0.001904 -0.001905 0.018765 0.000000 0.000000 0.000000
# 4 0.000000 0.000000 0.000000 -0.002854 0.000000 0.000000
# 5 0.000000 0.000000 0.000000 0.000000 -0.002854 0.000000
# 6 0.000000 0.000000 0.000000 0.000000 0.000000 0.106631
#
#
# Mechanical properties :
#
#
# Convention : Reuss Voigt Hill
#
# Bulk Modulus (GPa) = 39.56886 46.30642 42.93764
# Shear Modulus (GPa) = 23.73363 -128.87790 -52.57214
#
# Velocity S-wave (km/s) = 3.60336 -8.39682 -5.36295
# Velocity P-wave (km/s) = 6.24177 8.28707 3.85460
#
# Compressibility (1/GPa) = 0.02527240
#
# Stress axis : x y z
#
# Youngs Moduli (GPa) = 44.91001 44.91018 53.29012
#
# Poissons Ratio (x) = 0.68281 0.10149
# Poissons Ratio (y) = 0.68280 0.10151
# Poissons Ratio (z) = 0.08553 0.08555
#
# Static dielectric constant tensor:
#      x y z
#    x 1.611410 0.000000 0.000000 
#    y 0.000000 1.611410 0.000000 
#    z 0.000000 0.000000 1.657230 
# 
# From -- ./inp_files/2329.got.cif
#   From: 2010.05.17/outbox.cif.g08.bks.cpg/sg136_2_cif.got.tgz:2329.got - 2010.05.20 12:54:53.
