data_PCOD9569302
_publ_section_title
;
Structure prediction by ZEFSAII (Michael W. Deem and Ramdas Pophale) SiO2 
 PCOD9569302
Probable space group: P 42/M N M
;
_chemical_formula_sum "Si O2"
_cell_formula_units_Z 112
_cell_length_a 17.018224
_cell_length_b 17.018224
_cell_length_c 24.218980
_cell_angle_alpha 90.000000
_cell_angle_beta 90.000000
_cell_angle_gamma 90.000000
_cell_volume 7014.299731
_symmetry_space_group_name_H-M "P 42/M N M"
_symmetry_group_IT_number 136
_symmetry_cell_setting 'tetragonal'
loop_
_space_group_symop_operation_xyz
x,y,z
1/2-y,1/2+x,1/2+z
-x,-y,z
1/2+y,1/2-x,1/2+z
1/2+x,1/2-y,1/2-z
1/2-x,1/2+y,1/2-z
y,x,-z
-y,-x,-z
-x,-y,-z
1/2+y,1/2-x,1/2-z
x,y,-z
1/2-y,1/2+x,1/2-z
1/2-x,1/2+y,1/2+z
1/2+x,1/2-y,1/2+z
-y,-x,z
y,x,z
loop_
_atom_site_type_symbol
_atom_site_label
_atom_site_fract_x
_atom_site_fract_y
_atom_site_fract_z
Si Si1 0.129531 0.997005 0.600580
Si Si2 0.079141 0.545428 0.158906
Si Si3 0.293725 0.169695 0.820986
Si Si4 0.301884 0.007828 0.438402
Si Si5 0.504864 0.168810 0.269362
Si Si6 0.578420 0.700063 0.209510
Si Si7 0.680971 0.808034 0.939291
O O1 0.078935 0.921066 0.579678
O O2 0.161795 0.972436 0.660888
O O3 0.208477 0.020897 0.568665
O O4 0.068203 0.068203 0.602899
O O5 0.144035 0.543468 0.110448
O O6 0.116505 0.503871 0.213262
O O7 0.000000 0.500000 0.140979
O O8 0.046947 0.627482 0.183400
O O9 0.214417 0.214417 0.802785
O O10 0.319129 0.094506 0.787132
O O11 0.362226 0.235329 0.816651
O O12 0.287105 0.148170 0.885575
O O13 0.326971 0.032921 0.500000
O O14 0.308374 0.912887 0.435576
O O15 0.471702 0.253192 0.253333
O O16 0.632538 0.632538 0.234458
O O17 0.721336 0.721336 0.935675
O O18 0.702521 0.839103 0.000000
#
# Coordination Sequence:
#
# PCOD9569302 Si02
#       7
#    16  16  16  16  16  16  16
#     4  10  20  34  54  78 106 143 185 225 266 317
#     4  12  21  33  52  76 102 138 176 218 268 314
#     4  10  19  32  52  77 102 130 170 216 260 316
#     4  11  22  35  49  71 105 142 181 220 260 309
#     4  12  19  34  53  77 102 135 174 220 267 324
#     4  10  19  33  51  74 104 132 170 221 265 307
#     4   9  16  28  48  71  97 131 168 211 259 302
#
# _framework density 15.967381
#
# number of rings (size 3 to 8) (size 9 to 14) (size 15 to 20)
#    0.000    1.429    5.714    1.286    0.000    2.000 
#    0.000    2.143    0.000    0.000    0.000    0.000 
#    0.000    1.714    0.000    3.571    0.000    0.000 
#
# Total GULP energy -624029.753552 kJ/mol
# GULP energy per Si atom -5571.694228 kJ/mol
# Density = 1.593104 g / cm^3
# Si number density = 15.967381 Si / 1000 Ang^3
#
#
#
# Elastic Constant Matrix: (Units=GPa)
#
#
# Indices 1 2 3 4 5 6 
#
# 1 63.6873 29.0010 37.4652 0.0000 0.0000 0.0000
# 2 29.0010 63.6873 37.4652 0.0000 0.0000 0.0000
# 3 37.4652 37.4652 82.2334 0.0000 0.0000 0.0000
# 4 0.0000 0.0000 0.0000 15.6206 0.0000 0.0000
# 5 0.0000 0.0000 0.0000 0.0000 15.6206 0.0000
# 6 0.0000 0.0000 0.0000 0.0000 0.0000 23.0559
#
#
#
# Elastic Compliance Matrix: (Units=1/GPa)
#
#
# Indices 1 2 3 4 5 6 
#
# 1 0.022955 -0.005875 -0.007781 0.000000 0.000000 0.000000
# 2 -0.005875 0.022955 -0.007781 0.000000 0.000000 0.000000
# 3 -0.007781 -0.007781 0.019251 0.000000 0.000000 0.000000
# 4 0.000000 0.000000 0.000000 0.064018 0.000000 0.000000
# 5 0.000000 0.000000 0.000000 0.000000 0.064018 0.000000
# 6 0.000000 0.000000 0.000000 0.000000 0.000000 0.043373
#
#
# Mechanical properties :
#
#
# Convention : Reuss Voigt Hill
#
# Bulk Modulus (GPa) = 44.87465 46.38567 45.63016
# Shear Modulus (GPa) = 17.42933 17.90452 17.66693
#
# Velocity S-wave (km/s) = 3.30746 3.35224 3.32993
# Velocity P-wave (km/s) = 6.53840 6.64053 6.58967
#
# Compressibility (1/GPa) = 0.02228430
#
# Stress axis : x y z
#
# Youngs Moduli (GPa) = 43.56434 43.56434 51.94599
#
# Poissons Ratio (x) = 0.25595 0.40421
# Poissons Ratio (y) = 0.25595 0.40421
# Poissons Ratio (z) = 0.33899 0.33899
#
# Static dielectric constant tensor:
#      x y z
#    x 1.548400 0.000000 0.000000 
#    y 0.000000 1.548400 0.000000 
#    z 0.000000 0.000000 1.560220 
# 
# From -- ./inp_files/7743.got.cif
#   From: 2010.05.17/outbox.cif.g08.bks.cpg/sg136_4_cif.got.tgz:7743.got - 2010.05.20 12:54:53.
