data_PCOD9569080
_publ_section_title
;
Structure prediction by ZEFSAII (Michael W. Deem and Ramdas Pophale) SiO2 
 PCOD9569080
Probable space group: P 42/M B C
;
_chemical_formula_sum "Si O2"
_cell_formula_units_Z 112
_cell_length_a 15.000000
_cell_length_b 15.000000
_cell_length_c 24.000000
_cell_angle_alpha 90.000000
_cell_angle_beta 90.000000
_cell_angle_gamma 90.000000
_cell_volume 5400.000000
_symmetry_space_group_name_H-M "P 42/M B C"
_symmetry_group_IT_number 135
_symmetry_cell_setting 'tetragonal'
loop_
_space_group_symop_operation_xyz
x,y,z
-y,x,1/2+z
-x,-y,z
y,-x,1/2+z
1/2+x,1/2-y,-z
1/2-x,1/2+y,-z
1/2+y,1/2+x,1/2-z
1/2-y,1/2-x,1/2-z
-x,-y,-z
y,-x,1/2-z
x,y,-z
-y,x,1/2-z
1/2-x,1/2+y,z
1/2+x,1/2-y,z
1/2-y,1/2-x,1/2+z
1/2+y,1/2+x,1/2+z
loop_
_atom_site_type_symbol
_atom_site_label
_atom_site_fract_x
_atom_site_fract_y
_atom_site_fract_z
Si Si1 0.796201 0.165803 0.936087
Si Si2 0.784477 0.153821 0.723908
Si Si3 0.730552 0.991125 0.125615
Si Si4 0.178161 0.828414 0.403553
Si Si5 0.757815 0.455634 0.258499
Si Si6 0.049107 0.591742 0.852149
Si Si7 0.753126 0.484904 0.565741
O O1 0.752152 0.089810 0.896786
O O2 0.735216 0.254080 0.935939
O O3 0.894404 0.200193 0.917840
O O4 0.802093 0.132174 0.000000
O O5 0.693709 0.193709 0.750000
O O6 0.793002 0.185763 0.660725
O O7 0.867471 0.196329 0.757722
O O8 0.786067 0.047119 0.720009
O O9 0.800912 0.924796 0.096845
O O10 0.729918 0.981745 0.193176
O O11 0.635147 0.945507 0.114795
O O12 0.193387 0.928587 0.423339
O O13 0.844490 0.437387 0.297647
O O14 0.003088 0.658781 0.896174
O O15 0.000000 0.500000 0.835527
O O16 0.774763 0.478041 0.500000
#
# Coordination Sequence:
#
# PCOD9569080 Si02
#       7
#    16  16  16  16  16  16  16
#     4  11  25  45  70 100 136 185 239 295 357 419
#     4  11  24  41  67  98 138 184 227 286 349 418
#     4  11  25  41  69 102 137 181 230 287 353 425
#     4  11  22  44  67  95 138 181 227 292 352 416
#     4  11  25  42  67 102 140 182 229 283 350 426
#     4  12  25  44  70 105 146 184 237 291 354 428
#     4  11  25  45  71 100 140 187 237 303 357 417
#
# _framework density 20.740741
#
# number of rings (size 3 to 8) (size 9 to 14) (size 15 to 20)
#    0.000    0.857    2.857    4.286    4.000    3.429 
#    0.000    4.286    0.000    0.000    0.000    0.000 
#    0.000    0.000    0.000    0.000    0.000    0.000 
#
# Total GULP energy -625545.316284 kJ/mol
# GULP energy per Si atom -5585.226038 kJ/mol
# Density = 2.069353 g / cm^3
# Si number density = 20.740741 Si / 1000 Ang^3
#
#
#
# Elastic Constant Matrix: (Units=GPa)
#
#
# Indices 1 2 3 4 5 6 
#
# 1 112.5799 40.7748 27.8698 0.0000 0.0000 0.0000
# 2 40.7748 112.5799 27.8698 0.0000 0.0000 0.0000
# 3 27.8698 27.8698 72.9170 0.0000 0.0000 0.0000
# 4 0.0000 0.0000 0.0000 30.6329 0.0000 0.0000
# 5 0.0000 0.0000 0.0000 0.0000 30.6329 0.0000
# 6 0.0000 0.0000 0.0000 0.0000 0.0000 37.9752
#
#
#
# Elastic Compliance Matrix: (Units=1/GPa)
#
#
# Indices 1 2 3 4 5 6 
#
# 1 0.010750 -0.003177 -0.002894 0.000000 0.000000 0.000000
# 2 -0.003177 0.010750 -0.002894 0.000000 0.000000 0.000000
# 3 -0.002894 -0.002894 0.015927 0.000000 0.000000 0.000000
# 4 0.000000 0.000000 0.000000 0.032645 0.000000 0.000000
# 5 0.000000 0.000000 0.000000 0.000000 0.032645 0.000000
# 6 0.000000 0.000000 0.000000 0.000000 0.000000 0.026333
#
#
# Mechanical properties :
#
#
# Convention : Reuss Voigt Hill
#
# Bulk Modulus (GPa) = 51.29579 54.56727 52.93153
# Shear Modulus (GPa) = 32.57791 33.28571 32.93181
#
# Velocity S-wave (km/s) = 3.96753 4.01040 3.98902
# Velocity P-wave (km/s) = 6.76565 6.91453 6.84049
#
# Compressibility (1/GPa) = 0.01949478
#
# Stress axis : x y z
#
# Youngs Moduli (GPa) = 93.02565 93.02565 62.78720
#
# Poissons Ratio (x) = 0.29553 0.18173
# Poissons Ratio (y) = 0.29553 0.18173
# Poissons Ratio (z) = 0.26926 0.26926
#
# Static dielectric constant tensor:
#      x y z
#    x 1.758470 0.000000 0.000000 
#    y 0.000000 1.758470 0.000000 
#    z 0.000000 0.000000 1.771730 
# 
# From -- ./inp_files/6130.got.cif
#   From: 2010.05.17/outbox.ucp.g08.bks.cvg/sg135_4_cif.got.tgz:6130.got - 2010.06.11 11:40:18.
