data_PCOD9569644
_publ_section_title
;
Structure prediction by ZEFSAII (Michael W. Deem and Ramdas Pophale) SiO2 
 PCOD9569644
Probable space group: P 42/M N M
;
_chemical_formula_sum "Si O2"
_cell_formula_units_Z 116
_cell_length_a 27.162082
_cell_length_b 27.162082
_cell_length_c 7.565082
_cell_angle_alpha 90.000000
_cell_angle_beta 90.000000
_cell_angle_gamma 90.000000
_cell_volume 5581.356353
_symmetry_space_group_name_H-M "P 42/M N M"
_symmetry_group_IT_number 136
_symmetry_cell_setting 'tetragonal'
loop_
_space_group_symop_operation_xyz
x,y,z
1/2-y,1/2+x,1/2+z
-x,-y,z
1/2+y,1/2-x,1/2+z
1/2+x,1/2-y,1/2-z
1/2-x,1/2+y,1/2-z
y,x,-z
-y,-x,-z
-x,-y,-z
1/2+y,1/2-x,1/2-z
x,y,-z
1/2-y,1/2+x,1/2-z
1/2-x,1/2+y,1/2+z
1/2+x,1/2-y,1/2+z
-y,-x,z
y,x,z
loop_
_atom_site_type_symbol
_atom_site_label
_atom_site_fract_x
_atom_site_fract_y
_atom_site_fract_z
Si Si1 0.374432 0.777506 0.296962
Si Si2 0.937818 0.062183 0.500000
Si Si3 0.805567 0.115633 0.211758
Si Si4 0.407999 0.671965 0.715375
Si Si5 0.804541 0.639092 0.206433
Si Si6 0.876216 0.555329 0.701367
Si Si7 0.638794 0.518164 0.284702
Si Si8 0.945555 0.638758 0.703716
O O1 0.360312 0.767335 0.500000
O O2 0.389283 0.725079 0.218338
O O3 0.330071 0.811113 0.221707
O O4 0.421725 0.813646 0.293396
O O5 0.967191 0.093748 0.657777
O O6 0.850155 0.149846 0.277916
O O7 0.753656 0.135207 0.278126
O O8 0.819569 0.059586 0.253285
O O9 0.804075 0.119317 0.000000
O O10 0.407202 0.673589 0.500000
O O11 0.370760 0.629241 0.772038
O O12 0.464039 0.658705 0.759535
O O13 0.829582 0.591708 0.293907
O O14 0.818253 0.636255 0.000000
O O15 0.888737 0.542515 0.500000
O O16 0.920247 0.589030 0.776688
O O17 0.864639 0.503865 0.790470
O O18 0.628004 0.520628 0.500000
O O19 0.929254 0.642056 0.500000
#
# Coordination Sequence:
#
# PCOD9569644 Si02
#       8
#    16   4  16  16  16  16  16  16
#     4   9  19  37  59  86 118 155 196 246 299 353
#     4  12  22  40  69  92 132 164 204 256 314 376
#     4  10  21  37  57  83 119 155 192 240 297 362
#     4   9  19  39  66  89 117 158 205 247 300 371
#     4  10  21  34  55  87 120 151 196 248 295 352
#     4  10  21  37  55  77 111 153 192 240 293 352
#     4  10  22  40  63  94 127 165 205 254 313 373
#     4  10  21  36  55  81 112 148 194 241 295 350
#
# _framework density 20.783477999999999
#
# number of rings (size 3 to 8) (size 9 to 14) (size 15 to 20)
#    0.000    2.207    0.690    1.448    2.897    3.310 
#    1.241    3.793    0.000    1.655    0.000    0.000 
#    0.000    0.000    0.000    0.000    0.000    0.000 
#
# Total GULP energy -646083.559692 kJ/mol
# GULP energy per Si atom -5569.685859 kJ/mol
# Density = 2.073617 g / cm^3
# Si number density = 20.783478 Si / 1000 Ang^3
#
#
#
# Elastic Constant Matrix: (Units=GPa)
#
#
# Indices 1 2 3 4 5 6 
#
# 1 55.9522 184.3657 9.4711 0.0000 0.0000 0.0000
# 2 184.3657 55.9542 9.4726 0.0000 0.0000 0.0000
# 3 9.4711 9.4726 66.2479 0.0000 0.0000 0.0000
# 4 0.0000 0.0000 0.0000 -257.2705 0.0000 0.0000
# 5 0.0000 0.0000 0.0000 0.0000 -257.2670 0.0000
# 6 0.0000 0.0000 0.0000 0.0000 0.0000 5.6248
#
#
#
# Elastic Compliance Matrix: (Units=1/GPa)
#
#
# Indices 1 2 3 4 5 6 
#
# 1 -0.001789 0.005998 -0.000602 0.000000 0.000000 0.000000
# 2 0.005998 -0.001789 -0.000602 0.000000 0.000000 0.000000
# 3 -0.000602 -0.000602 0.015267 0.000000 0.000000 0.000000
# 4 0.000000 0.000000 0.000000 -0.003887 0.000000 0.000000
# 5 0.000000 0.000000 0.000000 0.000000 -0.003887 0.000000
# 6 0.000000 0.000000 0.000000 0.000000 0.000000 0.177784
#
#
# Mechanical properties :
#
#
# Convention : Reuss Voigt Hill
#
# Bulk Modulus (GPa) = 46.99882 64.97477 55.98680
# Shear Modulus (GPa) = 27.90151 -103.45955 -37.77902
#
# Velocity S-wave (km/s) = 3.66797 -7.06313 -4.26812
# Velocity P-wave (km/s) = 6.37192 5.93182 1.64542
#
# Compressibility (1/GPa) = 0.02127713
#
# Stress axis : x y z
#
# Youngs Moduli (GPa) = -558.83297 -558.84860 65.50130
#
# Poissons Ratio (x) = 3.35197 0.03942
# Poissons Ratio (y) = 3.35187 0.03941
# Poissons Ratio (z) = -0.33631 -0.33622
#
# Static dielectric constant tensor:
#      x y z
#    x 1.724780 0.000000 0.000000 
#    y 0.000000 1.724780 0.000000 
#    z 0.000000 0.000000 1.849000 
# 
# From -- ./inp_files/2307.got.cif
#   From: 2010.05.17/outbox.cif.g08.bks.cpg/sg136_2_cif.got.tgz:2307.got - 2010.05.20 12:54:53.
