data_PCOD9569632
_publ_section_title
;
Structure prediction by ZEFSAII (Michael W. Deem and Ramdas Pophale) SiO2 
 PCOD9569632
Probable space group: P 42/M N M
;
_chemical_formula_sum "Si O2"
_cell_formula_units_Z 80
_cell_length_a 13.637385
_cell_length_b 13.637385
_cell_length_c 22.255505
_cell_angle_alpha 90.000000
_cell_angle_beta 90.000000
_cell_angle_gamma 90.000000
_cell_volume 4139.040310
_symmetry_space_group_name_H-M "P 42/M N M"
_symmetry_group_IT_number 136
_symmetry_cell_setting 'tetragonal'
loop_
_space_group_symop_operation_xyz
x,y,z
1/2-y,1/2+x,1/2+z
-x,-y,z
1/2+y,1/2-x,1/2+z
1/2+x,1/2-y,1/2-z
1/2-x,1/2+y,1/2-z
y,x,-z
-y,-x,-z
-x,-y,-z
1/2+y,1/2-x,1/2-z
x,y,-z
1/2-y,1/2+x,1/2-z
1/2-x,1/2+y,1/2+z
1/2+x,1/2-y,1/2+z
-y,-x,z
y,x,z
loop_
_atom_site_type_symbol
_atom_site_label
_atom_site_fract_x
_atom_site_fract_y
_atom_site_fract_z
Si Si1 0.970361 0.192157 0.931839
Si Si2 0.700387 0.933408 0.829664
Si Si3 0.304032 0.847536 0.218161
Si Si4 0.947810 0.394562 0.435976
Si Si5 0.354400 0.799972 0.911879
O O1 0.904244 0.095757 0.923084
O O2 0.892880 0.284267 0.928984
O O3 0.043032 0.211151 0.876275
O O4 0.010272 0.188854 0.000000
O O5 0.694604 0.852983 0.777857
O O6 0.617323 0.900034 0.877015
O O7 0.685071 0.036511 0.793865
O O8 0.192162 0.807838 0.215264
O O9 0.356290 0.800849 0.160212
O O10 0.894220 0.382105 0.500000
O O11 0.000000 0.500000 0.437388
O O12 0.036206 0.317345 0.433122
O O13 0.296175 0.703826 0.932096
#
# Coordination Sequence:
#
# PCOD9569632 Si02
#       5
#    16  16  16  16  16
#     4   9  16  27  45  67  91 125 165 206 262 324
#     4  11  20  31  49  70 105 135 166 218 269 321
#     4  10  21  33  49  74 101 136 177 214 269 335
#     4  11  19  27  44  75 106 135 172 213 267 328
#     4   9  17  29  42  64 103 142 172 205 250 317
#
# _framework density 19.328150999999998
#
# number of rings (size 3 to 8) (size 9 to 14) (size 15 to 20)
#    0.000    2.000    4.000    4.200    0.000    1.200 
#    0.000    0.000    0.000    4.800    0.000    1.400 
#    0.000    0.000    0.000    7.200    0.000    0.000 
#
# Total GULP energy -445551.675267 kJ/mol
# GULP energy per Si atom -5569.395941 kJ/mol
# Density = 1.928416 g / cm^3
# Si number density = 19.328151 Si / 1000 Ang^3
#
#
#
# Elastic Constant Matrix: (Units=GPa)
#
#
# Indices 1 2 3 4 5 6 
#
# 1 52.4970 51.8772 30.1279 0.0000 0.0000 0.0000
# 2 51.8772 52.4970 30.1279 0.0000 0.0000 0.0000
# 3 30.1279 30.1279 167.4866 0.0000 0.0000 0.0000
# 4 0.0000 0.0000 0.0000 9.5685 0.0000 0.0000
# 5 0.0000 0.0000 0.0000 0.0000 9.5685 0.0000
# 6 0.0000 0.0000 0.0000 0.0000 0.0000 26.2423
#
#
#
# Elastic Compliance Matrix: (Units=1/GPa)
#
#
# Indices 1 2 3 4 5 6 
#
# 1 0.812103 -0.801412 -0.001923 0.000000 0.000000 0.000000
# 2 -0.801412 0.812103 -0.001923 0.000000 0.000000 0.000000
# 3 -0.001923 -0.001923 0.006663 0.000000 0.000000 0.000000
# 4 0.000000 0.000000 0.000000 0.104509 0.000000 0.000000
# 5 0.000000 0.000000 0.000000 0.000000 0.104509 0.000000
# 6 0.000000 0.000000 0.000000 0.000000 0.000000 0.038106
#
#
# Mechanical properties :
#
#
# Convention : Reuss Voigt Hill
#
# Bulk Modulus (GPa) = 49.13472 55.19408 52.16440
# Shear Modulus (GPa) = 1.43049 19.76570 10.59810
#
# Velocity S-wave (km/s) = 0.86123 3.20134 2.34417
# Velocity P-wave (km/s) = 5.14446 6.50254 5.86296
#
# Compressibility (1/GPa) = 0.02035221
#
# Stress axis : x y z
#
# Youngs Moduli (GPa) = 1.23137 1.23137 150.09355
#
# Poissons Ratio (x) = 0.98684 0.28865
# Poissons Ratio (y) = 0.98684 0.28865
# Poissons Ratio (z) = 0.00237 0.00237
#
# Static dielectric constant tensor:
#      x y z
#    x 1.693100 0.000000 0.000000 
#    y 0.000000 1.693100 0.000000 
#    z 0.000000 0.000000 1.714630 
# 
# From -- ./inp_files/7252.got.cif
#   From: 2010.05.17/outbox.cif.g08.bks.cpg/sg136_4_cif.got.tgz:7252.got - 2010.05.20 12:54:53.
