data_PCOD9569996
_publ_section_title
;
Structure prediction by ZEFSAII (Michael W. Deem and Ramdas Pophale) SiO2 
 PCOD9569996
Probable space group: P 42/N M C
;
_chemical_formula_sum "Si O2"
_cell_formula_units_Z 120
_cell_length_a 17.840941
_cell_length_b 17.840941
_cell_length_c 22.028613
_cell_angle_alpha 90.000000
_cell_angle_beta 90.000000
_cell_angle_gamma 90.000000
_cell_volume 7011.689361
_symmetry_space_group_name_H-M "P 42/N M C"
_symmetry_group_IT_number 137
_space_group.IT_coordinate_system_code '2'
_symmetry_cell_setting 'tetragonal'
loop_
_space_group_symop_operation_xyz
x,y,z
1/2-y,x,1/2+z
1/2-x,1/2-y,z
y,1/2-x,1/2+z
1/2+x,-y,-z
-x,1/2+y,-z
1/2+y,1/2+x,1/2-z
-y,-x,1/2-z
-x,-y,-z
1/2+y,-x,1/2-z
1/2+x,1/2+y,-z
-y,1/2+x,1/2-z
1/2-x,y,z
x,1/2-y,z
1/2-y,1/2-x,1/2+z
y,x,1/2+z
loop_
_atom_site_type_symbol
_atom_site_label
_atom_site_fract_x
_atom_site_fract_y
_atom_site_fract_z
Si Si1 0.659967 0.833971 0.901054
Si Si2 0.413194 0.406971 0.714506
Si Si3 0.450877 0.838996 0.723358
Si Si4 0.411032 0.931856 0.147117
Si Si5 0.159967 0.467706 0.897963
Si Si6 0.939391 0.661249 0.155281
Si Si7 0.163622 0.836379 0.250000
Si Si8 0.840529 0.985308 0.965498
O O1 0.750000 0.831450 0.902162
O O2 0.631826 0.750000 0.914060
O O3 0.634352 0.862780 0.835282
O O4 0.637409 0.900338 0.946714
O O5 0.370320 0.479477 0.738295
O O6 0.491455 0.430593 0.683196
O O7 0.428949 0.354487 0.772605
O O8 0.377958 0.877958 0.750000
O O9 0.446751 0.750000 0.727290
O O10 0.472093 0.859831 0.654031
O O11 0.481870 0.877910 0.138743
O O12 0.355716 0.888538 0.192843
O O13 0.375782 0.958512 0.083619
O O14 0.250000 0.458346 0.897782
O O15 0.122541 0.388788 0.879449
O O16 0.137099 0.495244 0.964642
O O17 0.936782 0.750000 0.143182
O O18 0.250000 0.847793 0.267432
O O19 0.750000 0.991147 0.960884
#
# Coordination Sequence:
#
# PCOD9569996 Si02
#       8
#    16  16  16  16  16  16   8  16
#     4   9  17  28  46  74 105 138 179 224 265 311
#     4  10  18  32  50  74 105 141 175 217 267 321
#     4  10  20  35  57  80 102 128 167 219 276 330
#     4  11  20  33  55  78 107 144 183 223 261 316
#     4   9  20  38  56  77 104 139 182 222 268 333
#     4  11  21  32  50  77 109 141 177 223 274 322
#     4  11  22  34  52  82 116 146 179 220 262 308
#     4   9  19  35  55  75 102 143 183 219 265 322
#
# _framework density 17.114277999999999
#
# number of rings (size 3 to 8) (size 9 to 14) (size 15 to 20)
#    0.000    2.067    1.333    3.200    0.000    3.067 
#    0.000    1.333    0.000    4.800    0.000    3.733 
#    0.000    0.000    0.000    0.000    0.000    0.000 
#
# Total GULP energy -669334.873040 kJ/mol
# GULP energy per Si atom -5577.790609 kJ/mol
# Density = 1.707533 g / cm^3
# Si number density = 17.114278 Si / 1000 Ang^3
#
#
#
# Elastic Constant Matrix: (Units=GPa)
#
#
# Indices 1 2 3 4 5 6 
#
# 1 75.3493 47.4587 49.7253 0.0000 0.0000 0.0000
# 2 47.4587 75.3491 49.7255 0.0000 0.0000 0.0000
# 3 49.7253 49.7255 129.0722 0.0000 0.0000 0.0000
# 4 0.0000 0.0000 0.0000 16.0264 0.0000 0.0000
# 5 0.0000 0.0000 0.0000 0.0000 16.0261 0.0000
# 6 0.0000 0.0000 0.0000 0.0000 0.0000 26.3756
#
#
#
# Elastic Compliance Matrix: (Units=1/GPa)
#
#
# Indices 1 2 3 4 5 6 
#
# 1 0.023845 -0.012010 -0.004559 0.000000 0.000000 0.000000
# 2 -0.012010 0.023845 -0.004560 0.000000 0.000000 0.000000
# 3 -0.004559 -0.004560 0.011261 0.000000 0.000000 0.000000
# 4 0.000000 0.000000 0.000000 0.062397 0.000000 0.000000
# 5 0.000000 0.000000 0.000000 0.000000 0.062398 0.000000
# 6 0.000000 0.000000 0.000000 0.000000 0.000000 0.037914
#
#
# Mechanical properties :
#
#
# Convention : Reuss Voigt Hill
#
# Bulk Modulus (GPa) = 59.90560 63.73219 61.81889
# Shear Modulus (GPa) = 18.55418 20.54304 19.54861
#
# Velocity S-wave (km/s) = 3.29619 3.46836 3.38337
# Velocity P-wave (km/s) = 7.04030 7.30475 7.17374
#
# Compressibility (1/GPa) = 0.01669293
#
# Stress axis : x y z
#
# Youngs Moduli (GPa) = 41.93805 41.93775 88.80415
#
# Poissons Ratio (x) = 0.50366 0.40490
# Poissons Ratio (y) = 0.50366 0.40491
# Poissons Ratio (z) = 0.19121 0.19122
#
# Static dielectric constant tensor:
#      x y z
#    x 1.576190 0.000000 0.000000 
#    y 0.000000 1.576190 0.000000 
#    z 0.000000 0.000000 1.584000 
# 
# From -- ./inp_files/8162.got.cif
#   From: 2010.05.17/outbox.cif.g08.bks.cpg/sg137_5_cif.got.tgz:8162.got - 2010.05.20 13:01:12.
