data_PCOD9569907
_publ_section_title
;
Structure prediction by ZEFSAII (Michael W. Deem and Ramdas Pophale) SiO2 
 PCOD9569907
Probable space group: P 42/M N M
;
_chemical_formula_sum "Si O2"
_cell_formula_units_Z 96
_cell_length_a 24.000000
_cell_length_b 24.000000
_cell_length_c 9.000000
_cell_angle_alpha 90.000000
_cell_angle_beta 90.000000
_cell_angle_gamma 90.000000
_cell_volume 5184.000000
_symmetry_space_group_name_H-M "P 42/M N M"
_symmetry_group_IT_number 136
_symmetry_cell_setting 'tetragonal'
loop_
_space_group_symop_operation_xyz
x,y,z
1/2-y,1/2+x,1/2+z
-x,-y,z
1/2+y,1/2-x,1/2+z
1/2+x,1/2-y,1/2-z
1/2-x,1/2+y,1/2-z
y,x,-z
-y,-x,-z
-x,-y,-z
1/2+y,1/2-x,1/2-z
x,y,-z
1/2-y,1/2+x,1/2-z
1/2-x,1/2+y,1/2+z
1/2+x,1/2-y,1/2+z
-y,-x,z
y,x,z
loop_
_atom_site_type_symbol
_atom_site_label
_atom_site_fract_x
_atom_site_fract_y
_atom_site_fract_z
Si Si1 0.708279 0.834821 0.324315
Si Si2 0.861238 0.227915 0.179931
Si Si3 0.488219 0.273661 0.328052
Si Si4 0.902254 0.815430 0.320935
Si Si5 0.117511 0.600793 0.332184
Si Si6 0.645032 0.018327 0.834753
O O1 0.715770 0.825771 0.500000
O O2 0.678200 0.778674 0.265260
O O3 0.766701 0.859379 0.268287
O O4 0.663429 0.881830 0.286647
O O5 0.828695 0.171306 0.210263
O O6 0.924878 0.225218 0.232964
O O7 0.864949 0.235496 0.000000
O O8 0.486938 0.292405 0.500000
O O9 0.536615 0.305542 0.243019
O O10 0.503009 0.208168 0.328000
O O11 0.904813 0.811366 0.500000
O O12 0.873859 0.873859 0.281076
O O13 0.136886 0.612530 0.500000
O O14 0.106440 0.535257 0.321660
O O15 0.062646 0.634087 0.290878
O O16 0.638102 0.044040 0.000000
#
# Coordination Sequence:
#
# PCOD9569907 Si02
#       6
#    16  16  16  16  16  16
#     4  10  18  32  54  79 108 139 170 213 265 312
#     4   9  17  31  54  81 105 133 172 215 259 311
#     4  10  19  34  55  78 106 139 172 213 265 316
#     4  10  21  35  54  82 111 141 179 217 257 313
#     4  11  22  34  52  75 102 137 181 224 260 307
#     4  10  21  37  52  72 103 140 182 221 263 312
#
# _framework density 18.518519000000001
#
# number of rings (size 3 to 8) (size 9 to 14) (size 15 to 20)
#    0.000    2.000    3.333    1.000    0.000    4.667 
#    0.000    1.667    0.000    3.500    0.000    3.500 
#    0.000    0.000    0.000    0.000    0.000    0.000 
#
# Total GULP energy -534634.691054 kJ/mol
# GULP energy per Si atom -5569.111365 kJ/mol
# Density = 1.847637 g / cm^3
# Si number density = 18.518519 Si / 1000 Ang^3
#
#
#
# Elastic Constant Matrix: (Units=GPa)
#
#
# Indices 1 2 3 4 5 6 
#
# 1 142.4269 -39.4438 9.1314 0.0000 0.0000 0.0000
# 2 -39.4438 142.4269 9.1314 0.0000 0.0000 0.0000
# 3 9.1314 9.1314 -4.3740 0.0000 0.0000 0.0000
# 4 0.0000 0.0000 0.0000 15.7460 0.0000 0.0000
# 5 0.0000 0.0000 0.0000 0.0000 15.7460 0.0000
# 6 0.0000 0.0000 0.0000 0.0000 0.0000 26.3181
#
#
#
# Elastic Compliance Matrix: (Units=1/GPa)
#
#
# Indices 1 2 3 4 5 6 
#
# 1 0.006293 0.000794 0.014795 0.000000 0.000000 0.000000
# 2 0.000794 0.006293 0.014795 0.000000 0.000000 0.000000
# 3 0.014795 0.014795 -0.166852 0.000000 0.000000 0.000000
# 4 0.000000 0.000000 0.000000 0.063508 0.000000 0.000000
# 5 0.000000 0.000000 0.000000 0.000000 0.063508 0.000000
# 6 0.000000 0.000000 0.000000 0.000000 0.000000 0.037997
#
#
# Mechanical properties :
#
#
# Convention : Reuss Voigt Hill
#
# Bulk Modulus (GPa) = -10.69512 26.45751 7.88120
# Shear Modulus (GPa) = -61.58606 31.67273 -14.95666
#
# Velocity S-wave (km/s) = -5.77310 4.14010 -2.84502
# Velocity P-wave (km/s) = 7.08704 6.09688 2.55482
#
# Compressibility (1/GPa) = -0.09350059
#
# Stress axis : x y z
#
# Youngs Moduli (GPa) = 158.91786 158.91786 -5.99333
#
# Poissons Ratio (x) = -0.12620 0.08867
# Poissons Ratio (y) = -0.12620 0.08867
# Poissons Ratio (z) = -2.35112 -2.35112
#
# Static dielectric constant tensor:
#      x y z
#    x 1.667790 0.000000 0.000000 
#    y 0.000000 1.667790 0.000000 
#    z 0.000000 0.000000 1.658740 
# 
# From -- ./inp_files/1924.got.cif
#   From: 2010.05.17/outbox.ucp.g08.bks.cvg/sg136_1_cif.got.tgz:1924.got - 2010.06.11 11:40:42.
