data_PCOD9569316
_publ_section_title
;
Structure prediction by ZEFSAII (Michael W. Deem and Ramdas Pophale) SiO2 
 PCOD9569316
Probable space group: P 42/M N M
;
_chemical_formula_sum "Si O2"
_cell_formula_units_Z 72
_cell_length_a 20.846291
_cell_length_b 20.846291
_cell_length_c 7.623760
_cell_angle_alpha 90.000000
_cell_angle_beta 90.000000
_cell_angle_gamma 90.000000
_cell_volume 3313.040980
_symmetry_space_group_name_H-M "P 42/M N M"
_symmetry_group_IT_number 136
_symmetry_cell_setting 'tetragonal'
loop_
_space_group_symop_operation_xyz
x,y,z
1/2-y,1/2+x,1/2+z
-x,-y,z
1/2+y,1/2-x,1/2+z
1/2+x,1/2-y,1/2-z
1/2-x,1/2+y,1/2-z
y,x,-z
-y,-x,-z
-x,-y,-z
1/2+y,1/2-x,1/2-z
x,y,-z
1/2-y,1/2+x,1/2-z
1/2-x,1/2+y,1/2+z
1/2+x,1/2-y,1/2+z
-y,-x,z
y,x,z
loop_
_atom_site_type_symbol
_atom_site_label
_atom_site_fract_x
_atom_site_fract_y
_atom_site_fract_z
Si Si1 0.591368 0.957559 0.700571
Si Si2 0.177812 0.981200 0.791153
Si Si3 0.554227 0.445774 0.295496
Si Si4 0.223698 0.590541 0.788643
Si Si5 0.228751 0.228751 0.284688
Si Si6 0.334400 0.334400 0.714750
O O1 0.524665 0.919866 0.704490
O O2 0.605717 0.974745 0.500000
O O3 0.650362 0.916872 0.770161
O O4 0.181173 0.907662 0.727800
O O5 0.117809 0.022216 0.717075
O O6 0.238907 0.026136 0.762867
O O7 0.166521 0.974994 0.000000
O O8 0.500000 0.500000 0.294025
O O9 0.569557 0.430444 0.500000
O O10 0.253867 0.657014 0.724695
O O11 0.225168 0.594427 0.000000
O O12 0.229019 0.229019 0.500000
O O13 0.281714 0.281714 0.229900
O O14 0.333240 0.333240 0.500000
#
# Coordination Sequence:
#
# PCOD9569316 Si02
#       6
#    16  16   8  16   8   8
#     4  10  21  37  58  84 110 141 182 230 279 325
#     4  10  19  32  56  84 109 141 183 225 270 326
#     4   9  15  28  49  79 113 138 173 229 274 309
#     4  10  22  37  56  80 110 147 184 224 273 328
#     4   9  19  37  55  75 110 149 187 223 266 334
#     4   9  18  32  56  85 106 141 188 225 265 325
#
# _framework density 21.732299000000001
#
# number of rings (size 3 to 8) (size 9 to 14) (size 15 to 20)
#    0.000    2.333    1.111    2.000    3.111    1.778 
#    0.000    0.556    0.000    2.000    0.000    0.000 
#    0.000    0.000    0.000    0.000    0.000    0.000 
#
# Total GULP energy -401870.700692 kJ/mol
# GULP energy per Si atom -5581.537510 kJ/mol
# Density = 2.168284 g / cm^3
# Si number density = 21.732299 Si / 1000 Ang^3
#
#
#
# Elastic Constant Matrix: (Units=GPa)
#
#
# Indices 1 2 3 4 5 6 
#
# 1 100.6482 102.2718 3.5907 0.0000 0.0000 0.0000
# 2 102.2718 100.6471 3.5901 0.0000 0.0000 0.0000
# 3 3.5907 3.5901 38.7676 0.0000 0.0000 0.0000
# 4 0.0000 0.0000 0.0000 149.7753 0.0000 0.0000
# 5 0.0000 0.0000 0.0000 0.0000 149.7782 0.0000
# 6 0.0000 0.0000 0.0000 0.0000 0.0000 37.3425
#
#
#
# Elastic Compliance Matrix: (Units=1/GPa)
#
#
# Indices 1 2 3 4 5 6 
#
# 1 -0.305388 0.310334 -0.000453 0.000000 0.000000 0.000000
# 2 0.310334 -0.305391 -0.000463 0.000000 0.000000 0.000000
# 3 -0.000453 -0.000463 0.025880 0.000000 0.000000 0.000000
# 4 0.000000 0.000000 0.000000 0.006677 0.000000 0.000000
# 5 0.000000 0.000000 0.000000 0.000000 0.006677 0.000000
# 6 0.000000 0.000000 0.000000 0.000000 0.000000 0.026779
#
#
# Mechanical properties :
#
#
# Convention : Reuss Voigt Hill
#
# Bulk Modulus (GPa) = 29.46685 50.99647 40.23166
# Shear Modulus (GPa) = -4.33918 76.08658 35.87370
#
# Velocity S-wave (km/s) = -1.41456 5.92341 4.06730
# Velocity P-wave (km/s) = 3.30461 8.38446 6.37258
#
# Compressibility (1/GPa) = 0.03393644
#
# Stress axis : x y z
#
# Youngs Moduli (GPa) = -3.27452 -3.27449 38.64056
#
# Poissons Ratio (x) = 1.01619 0.01752
# Poissons Ratio (y) = 1.01619 0.01787
# Poissons Ratio (z) = -0.00148 -0.00151
#
# Static dielectric constant tensor:
#      x y z
#    x 1.801690 0.000000 0.000000 
#    y 0.000000 1.801690 0.000000 
#    z 0.000000 0.000000 1.808650 
# 
# From -- ./inp_files/1669.got.cif
#   From: 2010.05.17/outbox.cif.g08.bks.cpg/sg136_1_cif.got.tgz:1669.got - 2010.05.20 12:54:53.
