data_PCOD9569218
_publ_section_title
;
Structure prediction by ZEFSAII (Michael W. Deem and Ramdas Pophale) SiO2 
 PCOD9569218
Probable space group: P 42/M N M
;
_chemical_formula_sum "Si O2"
_cell_formula_units_Z 128
_cell_length_a 17.619151
_cell_length_b 17.619151
_cell_length_c 23.106362
_cell_angle_alpha 90.000000
_cell_angle_beta 90.000000
_cell_angle_gamma 90.000000
_cell_volume 7173.011517
_symmetry_space_group_name_H-M "P 42/M N M"
_symmetry_group_IT_number 136
_symmetry_cell_setting 'tetragonal'
loop_
_space_group_symop_operation_xyz
x,y,z
1/2-y,1/2+x,1/2+z
-x,-y,z
1/2+y,1/2-x,1/2+z
1/2+x,1/2-y,1/2-z
1/2-x,1/2+y,1/2-z
y,x,-z
-y,-x,-z
-x,-y,-z
1/2+y,1/2-x,1/2-z
x,y,-z
1/2-y,1/2+x,1/2-z
1/2-x,1/2+y,1/2+z
1/2+x,1/2-y,1/2+z
-y,-x,z
y,x,z
loop_
_atom_site_type_symbol
_atom_site_label
_atom_site_fract_x
_atom_site_fract_y
_atom_site_fract_z
Si Si1 0.100226 0.221719 0.744390
Si Si2 0.504582 0.377876 0.429858
Si Si3 0.608005 0.925041 0.932629
Si Si4 0.319867 0.803311 0.350428
Si Si5 0.671575 0.155774 0.166982
Si Si6 0.492989 0.915189 0.829303
Si Si7 0.226617 0.433457 0.227714
Si Si8 0.219814 0.435470 0.432283
O O1 0.140459 0.140459 0.752913
O O2 0.122073 0.274952 0.799791
O O3 0.144652 0.263589 0.691552
O O4 0.009873 0.223303 0.732612
O O5 0.509992 0.374483 0.500000
O O6 0.582452 0.417549 0.408704
O O7 0.436527 0.436527 0.416389
O O8 0.481640 0.294064 0.410476
O O9 0.667006 0.865310 0.905401
O O10 0.535534 0.914970 0.891385
O O11 0.648656 0.006930 0.926963
O O12 0.591665 0.912373 0.000000
O O13 0.266871 0.733130 0.364451
O O14 0.267784 0.871030 0.323379
O O15 0.592700 0.110432 0.165888
O O16 0.725513 0.114779 0.213710
O O17 0.708006 0.140248 0.104934
O O18 0.533950 0.857323 0.786098
O O19 0.500000 0.000000 0.809391
O O20 0.230378 0.418604 0.500000
#
# Coordination Sequence:
#
# PCOD9569218 Si02
#       8
#    16  16  16  16  16  16  16  16
#     4   9  18  32  50  70  94 121 152 199 247 285
#     4   8  15  29  46  59  73 102 147 193 229 259
#     4  10  20  31  43  67 101 134 162 186 228 286
#     4   9  18  33  50  71  97 125 158 197 237 279
#     4  10  19  29  45  68  92 121 160 189 230 278
#     4  10  19  28  45  66  94 124 157 194 226 261
#     4   9  19  31  49  72  91 117 160 198 235 284
#     4  10  19  29  41  62  91 120 152 188 226 278
#
# _framework density 17.844667999999999
#
# number of rings (size 3 to 8) (size 9 to 14) (size 15 to 20)
#    0.000    2.625    1.250    1.125    5.250    2.000 
#    0.000    1.875    0.000    0.375    0.000    0.000 
#    0.000    0.000    0.000   10.125    0.000    0.000 
#
# Total GULP energy -713249.305826 kJ/mol
# GULP energy per Si atom -5572.260202 kJ/mol
# Density = 1.780405 g / cm^3
# Si number density = 17.844668 Si / 1000 Ang^3
#
#
#
# Elastic Constant Matrix: (Units=GPa)
#
#
# Indices 1 2 3 4 5 6 
#
# 1 17.4694 -4.1233 1.8791 0.0000 0.0000 0.0000
# 2 -4.1233 17.4694 1.8791 0.0000 0.0000 0.0000
# 3 1.8791 1.8791 72.5824 0.0000 0.0000 0.0000
# 4 0.0000 0.0000 0.0000 55.1360 0.0000 0.0000
# 5 0.0000 0.0000 0.0000 0.0000 55.1360 0.0000
# 6 0.0000 0.0000 0.0000 0.0000 0.0000 21.4288
#
#
#
# Elastic Compliance Matrix: (Units=1/GPa)
#
#
# Indices 1 2 3 4 5 6 
#
# 1 0.060895 0.014583 -0.001954 0.000000 0.000000 0.000000
# 2 0.014583 0.060895 -0.001954 0.000000 0.000000 0.000000
# 3 -0.001954 -0.001954 0.013879 0.000000 0.000000 0.000000
# 4 0.000000 0.000000 0.000000 0.018137 0.000000 0.000000
# 5 0.000000 0.000000 0.000000 0.000000 0.018137 0.000000
# 6 0.000000 0.000000 0.000000 0.000000 0.000000 0.046666
#
#
# Mechanical properties :
#
#
# Convention : Reuss Voigt Hill
#
# Bulk Modulus (GPa) = 6.36865 11.86567 9.11716
# Shear Modulus (GPa) = 20.03214 33.53257 26.78236
#
# Velocity S-wave (km/s) = 3.35413 4.33960 3.87830
# Velocity P-wave (km/s) = 4.31010 5.63679 5.01749
#
# Compressibility (1/GPa) = 0.15701906
#
# Stress axis : x y z
#
# Youngs Moduli (GPa) = 16.42165 16.42165 72.05321
#
# Poissons Ratio (x) = -0.23948 0.14080
# Poissons Ratio (y) = -0.23948 0.14080
# Poissons Ratio (z) = 0.03209 0.03209
#
# Static dielectric constant tensor:
#      x y z
#    x 1.628220 0.000000 0.000000 
#    y 0.000000 1.628220 0.000000 
#    z 0.000000 0.000000 1.625540 
# 
# From -- ./inp_files/8677.got.cif
#   From: 2010.05.17/outbox.cif.g08.bks.cpg/sg136_5_cif.got.tgz:8677.got - 2010.05.20 12:54:53.
