data_PCOD9569576
_publ_section_title
;
Structure prediction by ZEFSAII (Michael W. Deem and Ramdas Pophale) SiO2 
 PCOD9569576
Probable space group: P 42/M N M
;
_chemical_formula_sum "Si O2"
_cell_formula_units_Z 64
_cell_length_a 15.098707
_cell_length_b 15.098707
_cell_length_c 14.506610
_cell_angle_alpha 90.000000
_cell_angle_beta 90.000000
_cell_angle_gamma 90.000000
_cell_volume 3307.085708
_symmetry_space_group_name_H-M "P 42/M N M"
_symmetry_group_IT_number 136
_symmetry_cell_setting 'tetragonal'
loop_
_space_group_symop_operation_xyz
x,y,z
1/2-y,1/2+x,1/2+z
-x,-y,z
1/2+y,1/2-x,1/2+z
1/2+x,1/2-y,1/2-z
1/2-x,1/2+y,1/2-z
y,x,-z
-y,-x,-z
-x,-y,-z
1/2+y,1/2-x,1/2-z
x,y,-z
1/2-y,1/2+x,1/2-z
1/2-x,1/2+y,1/2+z
1/2+x,1/2-y,1/2+z
-y,-x,z
y,x,z
loop_
_atom_site_type_symbol
_atom_site_label
_atom_site_fract_x
_atom_site_fract_y
_atom_site_fract_z
Si Si1 0.420912 0.936065 0.106419
Si Si2 0.104390 0.304631 0.896854
Si Si3 0.605230 0.254362 0.803309
Si Si4 0.421140 0.276103 0.108231
O O1 0.397965 0.847858 0.162115
O O2 0.500000 0.000000 0.141247
O O3 0.340157 0.004413 0.103963
O O4 0.443413 0.910870 0.000000
O O5 0.112311 0.245969 0.806845
O O6 0.176044 0.383899 0.882992
O O7 0.123054 0.269471 0.000000
O O8 0.686267 0.313734 0.840694
O O9 0.510464 0.290768 0.835942
O O10 0.342336 0.342336 0.135996
O O11 0.439374 0.290284 0.000000
#
# Coordination Sequence:
#
# PCOD9569576 Si02
#       4
#    16  16  16  16
#     4  10  20  36  60  89 118 154 195 243 309 370
#     4  10  21  38  60  85 116 157 203 248 299 362
#     4  12  24  36  58  92 125 158 201 254 306 362
#     4  10  21  39  62  87 118 157 201 249 305 370
#
# _framework density 19.352385000000002
#
# number of rings (size 3 to 8) (size 9 to 14) (size 15 to 20)
#    0.000    1.500    2.500    3.000    0.000    4.000 
#    0.000    1.250    0.000    2.250    0.000    1.750 
#    0.000    0.000    0.000    0.000    0.000    0.000 
#
# Total GULP energy -357133.436360 kJ/mol
# GULP energy per Si atom -5580.209943 kJ/mol
# Density = 1.930834 g / cm^3
# Si number density = 19.352385 Si / 1000 Ang^3
#
#
#
# Elastic Constant Matrix: (Units=GPa)
#
#
# Indices 1 2 3 4 5 6 
#
# 1 84.0949 82.9915 42.0330 0.0000 0.0000 0.0000
# 2 82.9915 84.0949 42.0330 0.0000 0.0000 0.0000
# 3 42.0330 42.0330 100.1836 0.0000 0.0000 0.0000
# 4 0.0000 0.0000 0.0000 9.3915 0.0000 0.0000
# 5 0.0000 0.0000 0.0000 0.0000 9.3915 0.0000
# 6 0.0000 0.0000 0.0000 0.0000 0.0000 36.2875
#
#
#
# Elastic Compliance Matrix: (Units=1/GPa)
#
#
# Indices 1 2 3 4 5 6 
#
# 1 0.456903 -0.449317 -0.003183 0.000000 0.000000 0.000000
# 2 -0.449317 0.456903 -0.003183 0.000000 0.000000 0.000000
# 3 -0.003183 -0.003183 0.012653 0.000000 0.000000 0.000000
# 4 0.000000 0.000000 0.000000 0.106479 0.000000 0.000000
# 5 0.000000 0.000000 0.000000 0.000000 0.106479 0.000000
# 6 0.000000 0.000000 0.000000 0.000000 0.000000 0.027558
#
#
# Mechanical properties :
#
#
# Convention : Reuss Voigt Hill
#
# Bulk Modulus (GPa) = 66.25360 66.94317 66.59839
# Shear Modulus (GPa) = 2.39996 17.76849 10.08422
#
# Velocity S-wave (km/s) = 1.11482 3.03339 2.28520
# Velocity P-wave (km/s) = 5.99723 6.85094 6.43825
#
# Compressibility (1/GPa) = 0.01509352
#
# Stress axis : x y z
#
# Youngs Moduli (GPa) = 2.18865 2.18865 79.03553
#
# Poissons Ratio (x) = 0.98340 0.25156
# Poissons Ratio (y) = 0.98340 0.25156
# Poissons Ratio (z) = 0.00697 0.00697
#
# Static dielectric constant tensor:
#      x y z
#    x 1.683360 0.000000 0.000000 
#    y 0.000000 1.683360 0.000000 
#    z 0.000000 0.000000 1.713910 
# 
# From -- ./inp_files/4691.got.cif
#   From: 2010.05.17/outbox.cif.g08.bks.cpg/sg136_3_cif.got.tgz:4691.got - 2010.05.20 12:54:53.
