data_PCOD9569896
_publ_section_title
;
Structure prediction by ZEFSAII (Michael W. Deem and Ramdas Pophale) SiO2 
 PCOD9569896
Probable space group: P 42/M N M
;
_chemical_formula_sum "Si O2"
_cell_formula_units_Z 40
_cell_length_a 9.885161
_cell_length_b 9.885161
_cell_length_c 19.406595
_cell_angle_alpha 90.000000
_cell_angle_beta 90.000000
_cell_angle_gamma 90.000000
_cell_volume 1896.342755
_symmetry_space_group_name_H-M "P 42/M N M"
_symmetry_group_IT_number 136
_symmetry_cell_setting 'tetragonal'
loop_
_space_group_symop_operation_xyz
x,y,z
1/2-y,1/2+x,1/2+z
-x,-y,z
1/2+y,1/2-x,1/2+z
1/2+x,1/2-y,1/2-z
1/2-x,1/2+y,1/2-z
y,x,-z
-y,-x,-z
-x,-y,-z
1/2+y,1/2-x,1/2-z
x,y,-z
1/2-y,1/2+x,1/2-z
1/2-x,1/2+y,1/2+z
1/2+x,1/2-y,1/2+z
-y,-x,z
y,x,z
loop_
_atom_site_type_symbol
_atom_site_label
_atom_site_fract_x
_atom_site_fract_y
_atom_site_fract_z
Si Si1 0.506631 0.727527 0.500000
Si Si2 0.222981 0.007452 0.712753
Si Si3 0.588959 0.177927 0.358435
O O1 0.646454 0.646454 0.500000
O O2 0.388446 0.611555 0.500000
O O3 0.487539 0.811626 0.430207
O O4 0.151058 0.151058 0.700466
O O5 0.284114 0.006427 0.789635
O O6 0.334819 0.961559 0.658237
O O7 0.105241 0.894760 0.710717
O O8 0.705728 0.294273 0.361731
#
# Coordination Sequence:
#
# PCOD9569896 Si02
#       3
#     8  16  16
#     4   9  16  28  49  78 109 139 177 226 272 313
#     4   9  17  30  48  71 100 135 176 219 262 316
#     4   9  17  29  48  74 102 134 174 220 271 320
#
# _framework density 21.093235
#
# number of rings (size 3 to 8) (size 9 to 14) (size 15 to 20)
#    0.000    3.000    0.000    1.200    0.000    5.600 
#    0.000    1.000    0.000   10.800    0.000    8.400 
#    0.000    0.000    0.000    0.000    0.000    3.600 
#
# Total GULP energy -223428.330667 kJ/mol
# GULP energy per Si atom -5585.708267 kJ/mol
# Density = 2.104523 g / cm^3
# Si number density = 21.093235 Si / 1000 Ang^3
#
#
#
# Elastic Constant Matrix: (Units=GPa)
#
#
# Indices 1 2 3 4 5 6 
#
# 1 76.6471 47.9481 73.6835 0.0000 0.0000 0.0000
# 2 47.9481 76.6471 73.6835 0.0000 0.0000 0.0000
# 3 73.6835 73.6835 197.8422 0.0000 0.0000 0.0000
# 4 0.0000 0.0000 0.0000 28.2899 0.0000 0.0000
# 5 0.0000 0.0000 0.0000 0.0000 28.2899 0.0000
# 6 0.0000 0.0000 0.0000 0.0000 0.0000 36.0845
#
#
#
# Elastic Compliance Matrix: (Units=1/GPa)
#
#
# Indices 1 2 3 4 5 6 
#
# 1 0.024595 -0.010250 -0.005343 0.000000 0.000000 0.000000
# 2 -0.010250 0.024595 -0.005343 0.000000 0.000000 0.000000
# 3 -0.005343 -0.005343 0.009034 0.000000 0.000000 0.000000
# 4 0.000000 0.000000 0.000000 0.035348 0.000000 0.000000
# 5 0.000000 0.000000 0.000000 0.000000 0.035348 0.000000
# 6 0.000000 0.000000 0.000000 0.000000 0.000000 0.027713
#
#
# Mechanical properties :
#
#
# Convention : Reuss Voigt Hill
#
# Bulk Modulus (GPa) = 61.14807 82.41853 71.78330
# Shear Modulus (GPa) = 24.51533 28.92094 26.71814
#
# Velocity S-wave (km/s) = 3.41286 3.70685 3.56289
# Velocity P-wave (km/s) = 6.67701 7.58151 7.14359
#
# Compressibility (1/GPa) = 0.01635375
#
# Stress axis : x y z
#
# Youngs Moduli (GPa) = 40.65911 40.65904 110.69185
#
# Poissons Ratio (x) = 0.41674 0.59138
# Poissons Ratio (y) = 0.41674 0.59138
# Poissons Ratio (z) = 0.21723 0.21723
#
# Static dielectric constant tensor:
#      x y z
#    x 1.789820 0.000000 0.000000 
#    y 0.000000 1.789820 0.000000 
#    z 0.000000 0.000000 1.690930 
# 
# From -- ./inp_files/4367.got.cif
#   From: 2010.05.17/outbox.cif.g08.bks.cpg/sg136_3_cif.got.tgz:4367.got - 2010.05.20 12:54:53.
