data_PCOD9569193
_publ_section_title
;
Structure prediction by ZEFSAII (Michael W. Deem and Ramdas Pophale) SiO2 
 PCOD9569193
Probable space group: P 42/M N M
;
_chemical_formula_sum "Si O2"
_cell_formula_units_Z 96
_cell_length_a 19.338496
_cell_length_b 19.338496
_cell_length_c 14.539664
_cell_angle_alpha 90.000000
_cell_angle_beta 90.000000
_cell_angle_gamma 90.000000
_cell_volume 5437.506140
_symmetry_space_group_name_H-M "P 42/M N M"
_symmetry_group_IT_number 136
_symmetry_cell_setting 'tetragonal'
loop_
_space_group_symop_operation_xyz
x,y,z
1/2-y,1/2+x,1/2+z
-x,-y,z
1/2+y,1/2-x,1/2+z
1/2+x,1/2-y,1/2-z
1/2-x,1/2+y,1/2-z
y,x,-z
-y,-x,-z
-x,-y,-z
1/2+y,1/2-x,1/2-z
x,y,-z
1/2-y,1/2+x,1/2-z
1/2-x,1/2+y,1/2+z
1/2+x,1/2-y,1/2+z
-y,-x,z
y,x,z
loop_
_atom_site_type_symbol
_atom_site_label
_atom_site_fract_x
_atom_site_fract_y
_atom_site_fract_z
Si Si1 0.018690 0.136168 0.399437
Si Si2 0.706848 0.933993 0.605107
Si Si3 0.737591 0.010055 0.109854
Si Si4 0.489517 0.883900 0.745458
Si Si5 0.495357 0.386805 0.693380
Si Si6 0.781016 0.671002 0.388611
O O1 0.982848 0.131697 0.500000
O O2 0.078117 0.078117 0.400918
O O3 0.051988 0.211953 0.394380
O O4 0.981716 0.125756 0.302147
O O5 0.682017 0.936879 0.500000
O O6 0.665516 0.987891 0.666153
O O7 0.692567 0.857229 0.642621
O O8 0.734257 0.091868 0.132228
O O9 0.669552 0.980206 0.160719
O O10 0.813112 0.988023 0.147214
O O11 0.733723 0.000349 0.000000
O O12 0.559948 0.928230 0.742645
O O13 0.560121 0.439880 0.685561
O O14 0.428508 0.428508 0.654725
O O15 0.781623 0.676899 0.500000
O O16 0.722737 0.722737 0.352933
#
# Coordination Sequence:
#
# PCOD9569193 Si02
#       6
#    16  16  16  16  16  16
#     4   9  17  30  52  82 114 147 182 224 275 329
#     4  10  18  32  54  80 108 137 177 227 280 331
#     4  11  22  38  57  80 111 148 189 230 275 330
#     4  11  23  38  57  82 111 143 184 230 283 345
#     4  10  21  36  56  84 116 150 189 231 276 330
#     4   9  17  30  52  81 107 133 172 225 277 321
#
# _framework density 17.655152000000001
#
# number of rings (size 3 to 8) (size 9 to 14) (size 15 to 20)
#    0.000    2.000    3.333    1.000    0.000    4.333 
#    0.000    4.167    0.000    0.000    0.000    0.000 
#    0.000    0.000    0.000    0.000    0.000    0.000 
#
# Total GULP energy -534735.272740 kJ/mol
# GULP energy per Si atom -5570.159091 kJ/mol
# Density = 1.761497 g / cm^3
# Si number density = 17.655152 Si / 1000 Ang^3
#
#
#
# Elastic Constant Matrix: (Units=GPa)
#
#
# Indices 1 2 3 4 5 6 
#
# 1 38.5260 8.6333 12.5504 0.0000 0.0000 0.0000
# 2 8.6333 38.5260 12.5504 0.0000 0.0000 0.0000
# 3 12.5504 12.5504 72.7838 0.0000 0.0000 0.0000
# 4 0.0000 0.0000 0.0000 36.3566 0.0000 0.0000
# 5 0.0000 0.0000 0.0000 0.0000 36.3566 0.0000
# 6 0.0000 0.0000 0.0000 0.0000 0.0000 22.5895
#
#
#
# Elastic Compliance Matrix: (Units=1/GPa)
#
#
# Indices 1 2 3 4 5 6 
#
# 1 0.028400 -0.005053 -0.004026 0.000000 0.000000 0.000000
# 2 -0.005053 0.028400 -0.004026 0.000000 0.000000 0.000000
# 3 -0.004026 -0.004026 0.015128 0.000000 0.000000 0.000000
# 4 0.000000 0.000000 0.000000 0.027505 0.000000 0.000000
# 5 0.000000 0.000000 0.000000 0.000000 0.027505 0.000000
# 6 0.000000 0.000000 0.000000 0.000000 0.000000 0.044268
#
#
# Mechanical properties :
#
#
# Convention : Reuss Voigt Hill
#
# Bulk Modulus (GPa) = 21.87268 24.14490 23.00879
# Shear Modulus (GPa) = 23.51215 26.80064 25.15639
#
# Velocity S-wave (km/s) = 3.65327 3.90039 3.77885
# Velocity P-wave (km/s) = 5.49644 5.83006 5.66570
#
# Compressibility (1/GPa) = 0.04571914
#
# Stress axis : x y z
#
# Youngs Moduli (GPa) = 35.21098 35.21098 66.10382
#
# Poissons Ratio (x) = 0.17791 0.26613
# Poissons Ratio (y) = 0.17791 0.26613
# Poissons Ratio (z) = 0.14176 0.14176
#
# Static dielectric constant tensor:
#      x y z
#    x 1.578090 0.000000 0.000000 
#    y 0.000000 1.578090 0.000000 
#    z 0.000000 0.000000 1.634350 
# 
# From -- ./inp_files/3817.got.cif
#   From: 2010.05.17/outbox.cif.g08.bks.cpg/sg136_2_cif.got.tgz:3817.got - 2010.05.20 12:54:53.
