data_PCOD9569197
_publ_section_title
;
Structure prediction by ZEFSAII (Michael W. Deem and Ramdas Pophale) SiO2 
 PCOD9569197
Probable space group: P 42/M N M
;
_chemical_formula_sum "Si O2"
_cell_formula_units_Z 48
_cell_length_a 20.167390
_cell_length_b 20.167390
_cell_length_c 5.475890
_cell_angle_alpha 90.000000
_cell_angle_beta 90.000000
_cell_angle_gamma 90.000000
_cell_volume 2227.173800
_symmetry_space_group_name_H-M "P 42/M N M"
_symmetry_group_IT_number 136
_symmetry_cell_setting 'tetragonal'
loop_
_space_group_symop_operation_xyz
x,y,z
1/2-y,1/2+x,1/2+z
-x,-y,z
1/2+y,1/2-x,1/2+z
1/2+x,1/2-y,1/2-z
1/2-x,1/2+y,1/2-z
y,x,-z
-y,-x,-z
-x,-y,-z
1/2+y,1/2-x,1/2-z
x,y,-z
1/2-y,1/2+x,1/2-z
1/2-x,1/2+y,1/2+z
1/2+x,1/2-y,1/2+z
-y,-x,z
y,x,z
loop_
_atom_site_type_symbol
_atom_site_label
_atom_site_fract_x
_atom_site_fract_y
_atom_site_fract_z
Si Si1 0.407656 0.783345 0.000000
Si Si2 0.138117 0.452646 0.000000
Si Si3 0.410056 0.700711 0.500000
Si Si4 0.867703 0.575997 0.500000
Si Si5 0.214996 0.942234 0.000000
Si Si6 0.731385 0.630324 0.000000
O O1 0.479995 0.819097 0.000000
O O2 0.400287 0.742164 0.750940
O O3 0.357792 0.845079 0.000000
O O4 0.098925 0.444410 0.249143
O O5 0.191506 0.391317 0.000000
O O6 0.360027 0.639974 0.500000
O O7 0.487209 0.679765 0.500000
O O8 0.794719 0.543320 0.500000
O O9 0.203776 0.903029 0.251375
O O10 0.706323 0.706323 0.000000
#
# Coordination Sequence:
#
# PCOD9569197 Si02
#       6
#     8   8   8   8   8   8
#     4  12  21  40  62  90 123 158 207 253 304 372
#     4  10  19  38  57  86 118 159 201 237 316 356
#     4  12  23  40  64  90 126 166 203 252 309 372
#     4  10  20  35  63  85 115 165 194 250 300 362
#     4  10  19  39  55  86 116 160 199 236 308 358
#     4  10  18  32  59  83 110 152 196 243 294 351
#
# _framework density 21.551977999999998
#
# number of rings (size 3 to 8) (size 9 to 14) (size 15 to 20)
#    0.000    1.333    6.667    2.000    0.000    0.000 
#    0.000   20.000    0.000    6.000    0.000    0.000 
#    0.000    0.000    0.000    0.000    0.000    0.000 
#
# Total GULP energy -267885.792858 kJ/mol
# GULP energy per Si atom -5580.954018 kJ/mol
# Density = 2.150292 g / cm^3
# Si number density = 21.551978 Si / 1000 Ang^3
#
#
#
# Elastic Constant Matrix: (Units=GPa)
#
#
# Indices 1 2 3 4 5 6 
#
# 1 43.3428 17.2333 15.9530 0.0000 0.0000 0.0000
# 2 17.2333 43.3437 15.9563 0.0000 0.0000 0.0000
# 3 15.9530 15.9563 240.7836 0.0000 0.0000 0.0000
# 4 0.0000 0.0000 0.0000 19.9618 0.0000 0.0000
# 5 0.0000 0.0000 0.0000 0.0000 19.9593 0.0000
# 6 0.0000 0.0000 0.0000 0.0000 0.0000 29.9084
#
#
#
# Elastic Compliance Matrix: (Units=1/GPa)
#
#
# Indices 1 2 3 4 5 6 
#
# 1 0.027702 -0.010597 -0.001133 0.000000 0.000000 0.000000
# 2 -0.010597 0.027702 -0.001134 0.000000 0.000000 0.000000
# 3 -0.001133 -0.001134 0.004303 0.000000 0.000000 0.000000
# 4 0.000000 0.000000 0.000000 0.050096 0.000000 0.000000
# 5 0.000000 0.000000 0.000000 0.000000 0.050102 0.000000
# 6 0.000000 0.000000 0.000000 0.000000 0.000000 0.033435
#
#
# Mechanical properties :
#
#
# Convention : Reuss Voigt Hill
#
# Bulk Modulus (GPa) = 29.42923 47.30615 38.36769
# Shear Modulus (GPa) = 21.70179 32.52106 27.11143
#
# Velocity S-wave (km/s) = 3.17669 3.88875 3.55061
# Velocity P-wave (km/s) = 5.20959 6.49312 5.88644
#
# Compressibility (1/GPa) = 0.03397982
#
# Stress axis : x y z
#
# Youngs Moduli (GPa) = 36.09787 36.09825 232.37935
#
# Poissons Ratio (x) = 0.38254 0.26332
# Poissons Ratio (y) = 0.38254 0.26344
# Poissons Ratio (z) = 0.04090 0.04092
#
# Static dielectric constant tensor:
#      x y z
#    x 1.783970 0.000000 0.000000 
#    y 0.000000 1.783970 0.000000 
#    z 0.000000 0.000000 1.871320 
# 
# From -- ./inp_files/207.got.cif
#   From: 2010.05.17/outbox.cif.g08.bks.cpg/sg136_1_cif.got.tgz:207.got - 2010.05.20 12:54:53.
