data_PCOD9569668
_publ_section_title
;
Structure prediction by ZEFSAII (Michael W. Deem and Ramdas Pophale) SiO2 
 PCOD9569668
Probable space group: P 42/M N M
;
_chemical_formula_sum "Si O2"
_cell_formula_units_Z 84
_cell_length_a 11.778844
_cell_length_b 11.778844
_cell_length_c 28.647934
_cell_angle_alpha 90.000000
_cell_angle_beta 90.000000
_cell_angle_gamma 90.000000
_cell_volume 3974.647766
_symmetry_space_group_name_H-M "P 42/M N M"
_symmetry_group_IT_number 136
_symmetry_cell_setting 'tetragonal'
loop_
_space_group_symop_operation_xyz
x,y,z
1/2-y,1/2+x,1/2+z
-x,-y,z
1/2+y,1/2-x,1/2+z
1/2+x,1/2-y,1/2-z
1/2-x,1/2+y,1/2-z
y,x,-z
-y,-x,-z
-x,-y,-z
1/2+y,1/2-x,1/2-z
x,y,-z
1/2-y,1/2+x,1/2-z
1/2-x,1/2+y,1/2+z
1/2+x,1/2-y,1/2+z
-y,-x,z
y,x,z
loop_
_atom_site_type_symbol
_atom_site_label
_atom_site_fract_x
_atom_site_fract_y
_atom_site_fract_z
Si Si1 0.266803 0.452192 0.659206
Si Si2 0.769690 0.575940 0.948860
Si Si3 0.765865 0.424905 0.856456
Si Si4 0.189580 0.495407 0.756930
Si Si5 0.849922 0.150079 0.000000
Si Si6 0.234349 0.050301 0.064071
O O1 0.372900 0.372900 0.649021
O O2 0.153289 0.377402 0.650528
O O3 0.272079 0.488514 0.712842
O O4 0.263740 0.546339 0.619973
O O5 0.665051 0.665051 0.944453
O O6 0.772003 0.495205 0.904128
O O7 0.883016 0.652499 0.949689
O O8 0.758822 0.518349 0.000000
O O9 0.659517 0.340484 0.858441
O O10 0.759661 0.497227 0.808632
O O11 0.105985 0.387886 0.752794
O O12 0.928178 0.215406 0.959426
O O13 0.126239 0.126239 0.049841
#
# Coordination Sequence:
#
# PCOD9569668 Si02
#       6
#    16  16  16  16   4  16
#     4  10  21  36  56  87 120 147 185 238 291 351
#     4  10  22  40  60  83 112 151 201 247 287 345
#     4  10  22  40  58  83 118 154 197 244 294 347
#     4   9  18  35  58  78 108 150 189 234 288 347
#     4  12  21  36  60  86 122 160 185 234 303 358
#     4  11  21  36  59  86 118 153 190 234 294 359
#
# _framework density 21.133948
#
# number of rings (size 3 to 8) (size 9 to 14) (size 15 to 20)
#    0.000    1.905    1.905    2.000    0.000    4.571 
#    1.714    5.714    0.000    0.000    0.000    0.000 
#    0.000    0.000    0.000    0.000    0.000    0.000 
#
# Total GULP energy -467960.590210 kJ/mol
# GULP energy per Si atom -5570.959407 kJ/mol
# Density = 2.108585 g / cm^3
# Si number density = 21.133948 Si / 1000 Ang^3
#
#
#
# Elastic Constant Matrix: (Units=GPa)
#
#
# Indices 1 2 3 4 5 6 
#
# 1 39.3979 17.4599 50.0616 0.0000 0.0000 0.0000
# 2 17.4599 39.3974 50.0614 0.0000 0.0000 0.0000
# 3 50.0616 50.0614 222.1430 0.0000 0.0000 0.0000
# 4 0.0000 0.0000 0.0000 4.2628 0.0000 0.0000
# 5 0.0000 0.0000 0.0000 0.0000 4.2637 0.0000
# 6 0.0000 0.0000 0.0000 0.0000 0.0000 -264.0843
#
#
#
# Elastic Compliance Matrix: (Units=1/GPa)
#
#
# Indices 1 2 3 4 5 6 
#
# 1 0.037371 -0.008212 -0.006571 0.000000 0.000000 0.000000
# 2 -0.008212 0.037372 -0.006571 0.000000 0.000000 0.000000
# 3 -0.006571 -0.006571 0.007463 0.000000 0.000000 0.000000
# 4 0.000000 0.000000 0.000000 0.234587 0.000000 0.000000
# 5 0.000000 0.000000 0.000000 0.000000 0.234537 0.000000
# 6 0.000000 0.000000 0.000000 0.000000 0.000000 -0.003787
#
#
# Mechanical properties :
#
#
# Convention : Reuss Voigt Hill
#
# Bulk Modulus (GPa) = 25.31822 59.56711 42.44266
# Shear Modulus (GPa) = 8.28612 -38.88787 -15.30087
#
# Velocity S-wave (km/s) = 1.98224 -4.29425 -2.69363
# Velocity P-wave (km/s) = 4.15270 1.91291 3.23297
#
# Compressibility (1/GPa) = 0.03949725
#
# Stress axis : x y z
#
# Youngs Moduli (GPa) = 26.75852 26.75817 133.98741
#
# Poissons Ratio (x) = 0.21974 0.88047
# Poissons Ratio (y) = 0.21974 0.88048
# Poissons Ratio (z) = 0.17584 0.17584
#
# Static dielectric constant tensor:
#      x y z
#    x 1.758190 0.000000 0.000000 
#    y 0.000000 1.758190 0.000000 
#    z 0.000000 0.000000 1.781620 
# 
# From -- ./inp_files/9750.got.cif
#   From: 2010.05.17/outbox.cif.g08.bks.cpg/sg136_5_cif.got.tgz:9750.got - 2010.05.20 12:54:53.
