data_PCOD9569356
_publ_section_title
;
Structure prediction by ZEFSAII (Michael W. Deem and Ramdas Pophale) SiO2 
 PCOD9569356
Probable space group: P 42/M N M
;
_chemical_formula_sum "Si O2"
_cell_formula_units_Z 96
_cell_length_a 25.377197
_cell_length_b 25.377197
_cell_length_c 8.348218
_cell_angle_alpha 90.000000
_cell_angle_beta 90.000000
_cell_angle_gamma 90.000000
_cell_volume 5376.270153
_symmetry_space_group_name_H-M "P 42/M N M"
_symmetry_group_IT_number 136
_symmetry_cell_setting 'tetragonal'
loop_
_space_group_symop_operation_xyz
x,y,z
1/2-y,1/2+x,1/2+z
-x,-y,z
1/2+y,1/2-x,1/2+z
1/2+x,1/2-y,1/2-z
1/2-x,1/2+y,1/2-z
y,x,-z
-y,-x,-z
-x,-y,-z
1/2+y,1/2-x,1/2-z
x,y,-z
1/2-y,1/2+x,1/2-z
1/2-x,1/2+y,1/2+z
1/2+x,1/2-y,1/2+z
-y,-x,z
y,x,z
loop_
_atom_site_type_symbol
_atom_site_label
_atom_site_fract_x
_atom_site_fract_y
_atom_site_fract_z
Si Si1 0.313721 0.601232 0.810971
Si Si2 0.800495 0.199506 0.806887
Si Si3 0.806819 0.643504 0.692301
Si Si4 0.492329 0.337262 0.691186
Si Si5 0.385897 0.385897 0.190052
Si Si6 0.802514 0.411742 0.688079
Si Si7 0.285717 0.973682 0.194039
O O1 0.347732 0.652269 0.770431
O O2 0.346575 0.548630 0.771974
O O3 0.259763 0.597750 0.713516
O O4 0.301152 0.602565 0.000000
O O5 0.743215 0.178535 0.748781
O O6 0.844327 0.155674 0.765015
O O7 0.797155 0.202846 0.000000
O O8 0.800937 0.641165 0.500000
O O9 0.863226 0.668070 0.731201
O O10 0.804335 0.583202 0.753581
O O11 0.497183 0.342093 0.500000
O O12 0.444348 0.371581 0.753514
O O13 0.477862 0.276425 0.729091
O O14 0.381793 0.381793 0.000000
O O15 0.814716 0.410862 0.500000
O O16 0.811994 0.471545 0.751153
O O17 0.290865 0.974125 0.000000
#
# Coordination Sequence:
#
# PCOD9569356 Si02
#       7
#    16   8  16  16   8  16  16
#     4  10  21  37  55  76 105 141 180 223 269 319
#     4  10  20  34  54  77 107 144 182 219 271 329
#     4  10  19  34  55  79 107 142 179 219 271 323
#     4  10  19  35  56  76 102 140 182 224 270 322
#     4  12  22  32  51  81 112 140 176 223 273 325
#     4  10  21  35  53  81 110 140 178 221 267 322
#     4   8  16  33  55  74  99 137 178 216 260 318
#
# _framework density 17.856245999999999
#
# number of rings (size 3 to 8) (size 9 to 14) (size 15 to 20)
#    0.000    2.167    1.667    3.250    1.167    2.000 
#    0.000    2.083    0.000    3.000    0.000    3.500 
#    0.000    0.000    0.000    0.000    0.000    0.000 
#
# Total GULP energy -535305.264493 kJ/mol
# GULP energy per Si atom -5576.096505 kJ/mol
# Density = 1.781560 g / cm^3
# Si number density = 17.856246 Si / 1000 Ang^3
#
#
#
# Elastic Constant Matrix: (Units=GPa)
#
#
# Indices 1 2 3 4 5 6 
#
# 1 76.1769 43.8575 3.6989 0.0000 0.0000 0.0000
# 2 43.8575 76.1773 3.6980 0.0000 0.0000 0.0000
# 3 3.6989 3.6980 5.6959 0.0000 0.0000 0.0000
# 4 0.0000 0.0000 0.0000 11.3336 0.0000 0.0000
# 5 0.0000 0.0000 0.0000 0.0000 11.3224 0.0000
# 6 0.0000 0.0000 0.0000 0.0000 0.0000 26.8300
#
#
#
# Elastic Compliance Matrix: (Units=1/GPa)
#
#
# Indices 1 2 3 4 5 6 
#
# 1 0.019810 -0.011131 -0.005638 0.000000 0.000000 0.000000
# 2 -0.011131 0.019809 -0.005632 0.000000 0.000000 0.000000
# 3 -0.005638 -0.005632 0.182882 0.000000 0.000000 0.000000
# 4 0.000000 0.000000 0.000000 0.088233 0.000000 0.000000
# 5 0.000000 0.000000 0.000000 0.000000 0.088321 0.000000
# 6 0.000000 0.000000 0.000000 0.000000 0.000000 0.037272
#
#
# Mechanical properties :
#
#
# Convention : Reuss Voigt Hill
#
# Bulk Modulus (GPa) = 5.62749 28.95099 17.28924
# Shear Modulus (GPa) = 9.25305 17.01689 13.13497
#
# Velocity S-wave (km/s) = 2.27886 3.09041 2.71513
# Velocity P-wave (km/s) = 3.17532 5.38356 4.41958
#
# Compressibility (1/GPa) = 0.17769918
#
# Stress axis : x y z
#
# Youngs Moduli (GPa) = 50.48003 50.48115 5.46800
#
# Poissons Ratio (x) = 0.56193 0.03083
# Poissons Ratio (y) = 0.56191 0.03080
# Poissons Ratio (z) = 0.28458 0.28432
#
# Static dielectric constant tensor:
#      x y z
#    x 1.612630 0.000000 0.000000 
#    y 0.000000 1.612630 0.000000 
#    z 0.000000 0.000000 1.616530 
# 
# From -- ./inp_files/2046.got.cif
#   From: 2010.05.17/outbox.cif.g08.bks.cpg/sg136_2_cif.got.tgz:2046.got - 2010.05.20 12:54:53.
