data_PCOD9569568
_publ_section_title
;
Structure prediction by ZEFSAII (Michael W. Deem and Ramdas Pophale) SiO2 
 PCOD9569568
Probable space group: P 42/M N M
;
_chemical_formula_sum "Si O2"
_cell_formula_units_Z 96
_cell_length_a 20.277225
_cell_length_b 20.277225
_cell_length_c 12.591237
_cell_angle_alpha 90.000000
_cell_angle_beta 90.000000
_cell_angle_gamma 90.000000
_cell_volume 5177.086710
_symmetry_space_group_name_H-M "P 42/M N M"
_symmetry_group_IT_number 136
_symmetry_cell_setting 'tetragonal'
loop_
_space_group_symop_operation_xyz
x,y,z
1/2-y,1/2+x,1/2+z
-x,-y,z
1/2+y,1/2-x,1/2+z
1/2+x,1/2-y,1/2-z
1/2-x,1/2+y,1/2-z
y,x,-z
-y,-x,-z
-x,-y,-z
1/2+y,1/2-x,1/2-z
x,y,-z
1/2-y,1/2+x,1/2-z
1/2-x,1/2+y,1/2+z
1/2+x,1/2-y,1/2+z
-y,-x,z
y,x,z
loop_
_atom_site_type_symbol
_atom_site_label
_atom_site_fract_x
_atom_site_fract_y
_atom_site_fract_z
Si Si1 0.960847 0.672298 0.873409
Si Si2 0.851189 0.602690 0.274198
Si Si3 0.665631 0.233327 0.884782
Si Si4 0.812987 0.916437 0.788740
Si Si5 0.013977 0.878486 0.620921
Si Si6 0.267600 0.372933 0.119022
O O1 0.031050 0.648627 0.826515
O O2 0.908797 0.629284 0.803982
O O3 0.949486 0.752005 0.853755
O O4 0.955372 0.660527 0.000000
O O5 0.843531 0.656856 0.365874
O O6 0.786433 0.608382 0.202666
O O7 0.740580 0.259421 0.879511
O O8 0.626364 0.271875 0.795760
O O9 0.639160 0.252266 0.000000
O O10 0.864940 0.864940 0.842868
O O11 0.856437 0.966147 0.716026
O O12 0.985675 0.879816 0.500000
O O13 0.053000 0.947001 0.638912
O O14 0.070737 0.822865 0.618180
O O15 0.304405 0.304405 0.142958
O O16 0.239392 0.367952 0.000000
#
# Coordination Sequence:
#
# PCOD9569568 Si02
#       6
#    16  16  16  16  16  16
#     4  11  25  43  63  88 114 147 193 236 286 352
#     4  11  21  39  59  83 115 152 187 237 291 348
#     4   9  18  32  53  81 110 145 192 242 292 342
#     4  10  20  36  58  85 120 157 191 234 290 344
#     4   9  17  30  52  85 122 160 201 242 284 333
#     4   9  17  31  55  85 113 145 191 242 287 332
#
# _framework density 18.543247000000001
#
# number of rings (size 3 to 8) (size 9 to 14) (size 15 to 20)
#    0.000    2.167    1.667    3.000    0.000    2.667 
#    0.000    4.167    0.000    1.500    0.000    1.167 
#    0.000    0.000    0.000    0.000    0.000    0.000 
#
# Total GULP energy -534582.968982 kJ/mol
# GULP energy per Si atom -5568.572594 kJ/mol
# Density = 1.850104 g / cm^3
# Si number density = 18.543247 Si / 1000 Ang^3
#
#
#
# Elastic Constant Matrix: (Units=GPa)
#
#
# Indices 1 2 3 4 5 6 
#
# 1 47.0665 66.1305 30.5665 0.0000 0.0000 0.0000
# 2 66.1305 47.0665 30.5665 0.0000 0.0000 0.0000
# 3 30.5665 30.5665 83.2824 0.0000 0.0000 0.0000
# 4 0.0000 0.0000 0.0000 16.9404 0.0000 0.0000
# 5 0.0000 0.0000 0.0000 0.0000 16.9404 0.0000
# 6 0.0000 0.0000 0.0000 0.0000 0.0000 24.7167
#
#
#
# Elastic Compliance Matrix: (Units=1/GPa)
#
#
# Indices 1 2 3 4 5 6 
#
# 1 -0.020718 0.031736 -0.004044 0.000000 0.000000 0.000000
# 2 0.031736 -0.020718 -0.004044 0.000000 0.000000 0.000000
# 3 -0.004044 -0.004044 0.014976 0.000000 0.000000 0.000000
# 4 0.000000 0.000000 0.000000 0.059031 0.000000 0.000000
# 5 0.000000 0.000000 0.000000 0.000000 0.059031 0.000000
# 6 0.000000 0.000000 0.000000 0.000000 0.000000 0.040458
#
#
# Mechanical properties :
#
#
# Convention : Reuss Voigt Hill
#
# Bulk Modulus (GPa) = 47.99298 47.99358 47.99328
# Shear Modulus (GPa) = 54.52171 15.06296 34.79233
#
# Velocity S-wave (km/s) = 5.42829 2.85321 4.33630
# Velocity P-wave (km/s) = 8.07628 6.06569 7.14209
#
# Compressibility (1/GPa) = 0.02083638
#
# Stress axis : x y z
#
# Youngs Moduli (GPa) = -48.26635 -48.26635 66.77473
#
# Poissons Ratio (x) = 1.53180 0.27003
# Poissons Ratio (y) = 1.53180 0.27003
# Poissons Ratio (z) = -0.19518 -0.19518
#
# Static dielectric constant tensor:
#      x y z
#    x 1.667380 0.000000 0.000000 
#    y 0.000000 1.667380 0.000000 
#    z 0.000000 0.000000 1.625450 
# 
# From -- ./inp_files/3783.got.cif
#   From: 2010.05.17/outbox.cif.g08.bks.cpg/sg136_2_cif.got.tgz:3783.got - 2010.05.20 12:54:53.
