data_PCOD9569941
_publ_section_title
;
Structure prediction by ZEFSAII (Michael W. Deem and Ramdas Pophale) SiO2 
 PCOD9569941
Probable space group: P 42/N M C
;
_chemical_formula_sum "Si O2"
_cell_formula_units_Z 64
_cell_length_a 12.981440
_cell_length_b 12.981440
_cell_length_c 19.100290
_cell_angle_alpha 90.000000
_cell_angle_beta 90.000000
_cell_angle_gamma 90.000000
_cell_volume 3218.738554
_symmetry_space_group_name_H-M "P 42/N M C"
_symmetry_group_IT_number 137
_space_group.IT_coordinate_system_code '2'
_symmetry_cell_setting 'tetragonal'
loop_
_space_group_symop_operation_xyz
x,y,z
1/2-y,x,1/2+z
1/2-x,1/2-y,z
y,1/2-x,1/2+z
1/2+x,-y,-z
-x,1/2+y,-z
1/2+y,1/2+x,1/2-z
-y,-x,1/2-z
-x,-y,-z
1/2+y,-x,1/2-z
1/2+x,1/2+y,-z
-y,1/2+x,1/2-z
1/2-x,y,z
x,1/2-y,z
1/2-y,1/2-x,1/2+z
y,x,1/2+z
loop_
_atom_site_type_symbol
_atom_site_label
_atom_site_fract_x
_atom_site_fract_y
_atom_site_fract_z
Si Si1 0.372745 0.451101 0.507907
Si Si2 0.874851 0.750000 0.734832
Si Si3 0.623986 0.750000 0.575645
Si Si4 0.129223 0.631631 0.098300
Si Si5 0.926203 0.626827 0.341324
O O1 0.250000 0.447652 0.502974
O O2 0.410686 0.351854 0.464782
O O3 0.400134 0.555211 0.466198
O O4 0.395379 0.435622 0.589335
O O5 0.750000 0.750000 0.731773
O O6 0.912382 0.750000 0.655544
O O7 0.904255 0.852914 0.777587
O O8 0.750000 0.750000 0.576163
O O9 0.250000 0.626615 0.078356
O O10 0.105812 0.750000 0.118019
O O11 0.113802 0.549555 0.160644
O O12 0.906751 0.750000 0.353646
#
# Coordination Sequence:
#
# PCOD9569941 Si02
#       5
#    16   8   8  16  16
#     4  10  17  29  51  74 102 132 168 213 258 303
#     4   9  18  30  48  76 105 131 161 206 261 308
#     4   9  18  30  48  76 105 131 161 206 261 308
#     4   9  19  32  47  74 105 134 176 214 247 295
#     4  10  17  29  51  74 102 132 168 213 258 303
#
# _framework density 19.883565999999998
#
# number of rings (size 3 to 8) (size 9 to 14) (size 15 to 20)
#    0.000    2.500    2.500    0.750    0.000    0.000 
#    0.000    1.250    0.000    4.500    0.000   14.000 
#    0.000    2.000    0.000    0.000    0.000    0.000 
#
# Total GULP energy -356722.238140 kJ/mol
# GULP energy per Si atom -5573.784971 kJ/mol
# Density = 1.983831 g / cm^3
# Si number density = 19.883566 Si / 1000 Ang^3
#
#
#
# Elastic Constant Matrix: (Units=GPa)
#
#
# Indices 1 2 3 4 5 6 
#
# 1 56.9863 34.4801 21.0349 0.0000 0.0000 0.0000
# 2 34.4801 56.9863 21.0349 0.0000 0.0000 0.0000
# 3 21.0349 21.0349 79.2380 0.0000 0.0000 0.0000
# 4 0.0000 0.0000 0.0000 -0.3718 0.0000 0.0000
# 5 0.0000 0.0000 0.0000 0.0000 -0.3718 0.0000
# 6 0.0000 0.0000 0.0000 0.0000 0.0000 16.4001
#
#
#
# Elastic Compliance Matrix: (Units=1/GPa)
#
#
# Indices 1 2 3 4 5 6 
#
# 1 0.028443 -0.015989 -0.003306 0.000000 0.000000 0.000000
# 2 -0.015989 0.028443 -0.003306 0.000000 0.000000 0.000000
# 3 -0.003306 -0.003306 0.014375 0.000000 0.000000 0.000000
# 4 0.000000 0.000000 0.000000 -2.689550 0.000000 0.000000
# 5 0.000000 0.000000 0.000000 0.000000 -2.689550 0.000000
# 6 0.000000 0.000000 0.000000 0.000000 0.000000 0.060975
#
#
# Mechanical properties :
#
#
# Convention : Reuss Voigt Hill
#
# Bulk Modulus (GPa) = 38.37499 38.47894 38.42697
# Shear Modulus (GPa) = -0.96284 10.90868 4.97292
#
# Velocity S-wave (km/s) = -0.69663 2.34482 1.58318
# Velocity P-wave (km/s) = 4.32374 5.16963 4.76549
#
# Compressibility (1/GPa) = 0.02605864
#
# Stress axis : x y z
#
# Youngs Moduli (GPa) = 35.15827 35.15827 69.56305
#
# Poissons Ratio (x) = 0.56215 0.22997
# Poissons Ratio (y) = 0.56215 0.22997
# Poissons Ratio (z) = 0.11623 0.11623
#
# Static dielectric constant tensor:
#      x y z
#    x 1.749120 0.000000 0.000000 
#    y 0.000000 1.749120 0.000000 
#    z 0.000000 0.000000 1.660510 
# 
# From -- ./inp_files/6103.got.cif
#   From: 2010.05.17/outbox.cif.g08.bks.cpg/sg137_4_cif.got.tgz:6103.got - 2010.05.20 13:01:12.
