data_PCOD9569734
_publ_section_title
;
Structure prediction by ZEFSAII (Michael W. Deem and Ramdas Pophale) SiO2 
 PCOD9569734
Probable space group: P 42/M N M
;
_chemical_formula_sum "Si O2"
_cell_formula_units_Z 120
_cell_length_a 27.381525
_cell_length_b 27.381525
_cell_length_c 7.964582
_cell_angle_alpha 90.000000
_cell_angle_beta 90.000000
_cell_angle_gamma 90.000000
_cell_volume 5971.428719
_symmetry_space_group_name_H-M "P 42/M N M"
_symmetry_group_IT_number 136
_symmetry_cell_setting 'tetragonal'
loop_
_space_group_symop_operation_xyz
x,y,z
1/2-y,1/2+x,1/2+z
-x,-y,z
1/2+y,1/2-x,1/2+z
1/2+x,1/2-y,1/2-z
1/2-x,1/2+y,1/2-z
y,x,-z
-y,-x,-z
-x,-y,-z
1/2+y,1/2-x,1/2-z
x,y,-z
1/2-y,1/2+x,1/2-z
1/2-x,1/2+y,1/2+z
1/2+x,1/2-y,1/2+z
-y,-x,z
y,x,z
loop_
_atom_site_type_symbol
_atom_site_label
_atom_site_fract_x
_atom_site_fract_y
_atom_site_fract_z
Si Si1 0.499731 0.582156 0.500000
Si Si2 0.393624 0.916857 0.307528
Si Si3 0.169982 0.248120 0.198401
Si Si4 0.982284 0.647427 0.697087
Si Si5 0.250409 0.558108 0.201557
Si Si6 0.644816 0.807263 0.311004
Si Si7 0.300461 0.379636 0.798699
Si Si8 0.487706 0.342197 0.799823
O O1 0.546811 0.546811 0.500000
O O2 0.452304 0.547697 0.500000
O O3 0.500898 0.615219 0.667847
O O4 0.409849 0.924191 0.500000
O O5 0.437234 0.889263 0.215338
O O6 0.346381 0.882008 0.304904
O O7 0.376429 0.968493 0.232205
O O8 0.201401 0.201401 0.254799
O O9 0.112506 0.242818 0.230211
O O10 0.189153 0.297303 0.284223
O O11 0.177681 0.254345 0.000000
O O12 0.993022 0.655815 0.500000
O O13 0.966098 0.700147 0.767349
O O14 0.296845 0.523945 0.233157
O O15 0.245325 0.562825 0.000000
O O16 0.633173 0.822443 0.500000
O O17 0.626638 0.752699 0.279063
O O18 0.337513 0.337513 0.740423
O O19 0.323654 0.432578 0.768175
O O20 0.294794 0.374768 0.000000
O O21 0.491443 0.355271 0.000000
#
# Coordination Sequence:
#
# PCOD9569734 Si02
#       8
#     8  16  16  16  16  16  16  16
#     4  11  26  46  70 102 140 178 226 287 342 406
#     4  11  23  40  63  88 121 163 211 262 315 377
#     4  11  24  40  60  88 125 168 211 258 317 386
#     4  10  22  41  63  90 124 163 209 263 318 373
#     4  10  21  40  65  92 126 167 215 269 324 386
#     4  12  24  38  59  91 129 166 209 259 316 387
#     4  10  21  39  64  93 127 166 209 260 319 388
#     4  10  23  44  70  99 134 178 225 277 340 403
#
# _framework density 20.095693000000001
#
# number of rings (size 3 to 8) (size 9 to 14) (size 15 to 20)
#    0.000    1.400    1.333    3.600    1.867    8.000 
#    0.000    3.333    0.000    0.000    0.000    0.000 
#    0.000    0.000    0.000    0.000    0.000    0.000 
#
# Total GULP energy -670737.912070 kJ/mol
# GULP energy per Si atom -5589.482601 kJ/mol
# Density = 2.004995 g / cm^3
# Si number density = 20.095693 Si / 1000 Ang^3
#
#
#
# Elastic Constant Matrix: (Units=GPa)
#
#
# Indices 1 2 3 4 5 6 
#
# 1 107.0368 43.6795 25.5377 0.0000 0.0000 0.0000
# 2 43.6795 107.0409 25.5387 0.0000 0.0000 0.0000
# 3 25.5377 25.5387 49.7786 0.0000 0.0000 0.0000
# 4 0.0000 0.0000 0.0000 46.5932 0.0000 0.0000
# 5 0.0000 0.0000 0.0000 0.0000 46.5926 0.0000
# 6 0.0000 0.0000 0.0000 0.0000 0.0000 23.3113
#
#
#
# Elastic Compliance Matrix: (Units=1/GPa)
#
#
# Indices 1 2 3 4 5 6 
#
# 1 0.011907 -0.003876 -0.004120 0.000000 0.000000 0.000000
# 2 -0.003876 0.011907 -0.004120 0.000000 0.000000 0.000000
# 3 -0.004120 -0.004120 0.024317 0.000000 0.000000 0.000000
# 4 0.000000 0.000000 0.000000 0.021462 0.000000 0.000000
# 5 0.000000 0.000000 0.000000 0.000000 0.021463 0.000000
# 6 0.000000 0.000000 0.000000 0.000000 0.000000 0.042898
#
#
# Mechanical properties :
#
#
# Convention : Reuss Voigt Hill
#
# Bulk Modulus (GPa) = 41.84468 50.37422 46.10945
# Shear Modulus (GPa) = 30.09284 34.57278 32.33281
#
# Velocity S-wave (km/s) = 3.87392 4.15228 4.01551
# Velocity P-wave (km/s) = 6.39356 6.93615 6.67037
#
# Compressibility (1/GPa) = 0.02389790
#
# Stress axis : x y z
#
# Youngs Moduli (GPa) = 83.98217 83.98489 41.12409
#
# Poissons Ratio (x) = 0.32552 0.16944
# Poissons Ratio (y) = 0.32551 0.16945
# Poissons Ratio (z) = 0.34603 0.34605
#
# Static dielectric constant tensor:
#      x y z
#    x 1.679940 0.000000 0.000000 
#    y 0.000000 1.679940 0.000000 
#    z 0.000000 0.000000 1.721310 
# 
# From -- ./inp_files/2340.got.cif
#   From: 2010.05.17/outbox.cif.g08.bks.cpg/sg136_2_cif.got.tgz:2340.got - 2010.05.20 12:54:53.
