data_PCOD9569344
_publ_section_title
;
Structure prediction by ZEFSAII (Michael W. Deem and Ramdas Pophale) SiO2 
 PCOD9569344
Probable space group: P 42/M N M
;
_chemical_formula_sum "Si O2"
_cell_formula_units_Z 88
_cell_length_a 17.267133
_cell_length_b 17.267133
_cell_length_c 16.421657
_cell_angle_alpha 90.000000
_cell_angle_beta 90.000000
_cell_angle_gamma 90.000000
_cell_volume 4896.180784
_symmetry_space_group_name_H-M "P 42/M N M"
_symmetry_group_IT_number 136
_symmetry_cell_setting 'tetragonal'
loop_
_space_group_symop_operation_xyz
x,y,z
1/2-y,1/2+x,1/2+z
-x,-y,z
1/2+y,1/2-x,1/2+z
1/2+x,1/2-y,1/2-z
1/2-x,1/2+y,1/2-z
y,x,-z
-y,-x,-z
-x,-y,-z
1/2+y,1/2-x,1/2-z
x,y,-z
1/2-y,1/2+x,1/2-z
1/2-x,1/2+y,1/2+z
1/2+x,1/2-y,1/2+z
-y,-x,z
y,x,z
loop_
_atom_site_type_symbol
_atom_site_label
_atom_site_fract_x
_atom_site_fract_y
_atom_site_fract_z
Si Si1 0.459983 0.775998 0.906908
Si Si2 0.517298 0.750001 0.648901
Si Si3 0.138166 0.265958 0.248937
Si Si4 0.111852 0.761469 0.696880
Si Si5 0.573290 0.043199 0.092627
Si Si6 0.999341 0.868542 0.000000
O O1 0.391805 0.758592 0.842014
O O2 0.541867 0.750863 0.866760
O O3 0.454768 0.868700 0.910522
O O4 0.450861 0.746724 0.000000
O O5 0.436004 0.757338 0.693549
O O6 0.575563 0.716072 0.716080
O O7 0.539402 0.839170 0.626609
O O8 0.508469 0.689790 0.575857
O O9 0.198125 0.198125 0.233982
O O10 0.182199 0.343431 0.219896
O O11 0.174276 0.825725 0.670015
O O12 0.500000 0.000000 0.134003
O O13 0.580251 0.011903 0.000000
O O14 0.068601 0.931400 0.000000
O O15 0.919574 0.919574 0.000000
#
# Coordination Sequence:
#
# PCOD9569344 Si02
#       6
#    16  16  16  16  16   8
#     4  10  21  37  57  85 116 153 196 244 298 353
#     4  11  20  37  59  85 116 158 197 247 303 369
#     4  10  21  37  56  82 117 155 196 243 296 357
#     4  10  21  38  58  85 119 158 200 242 297 364
#     4  10  19  33  55  85 118 148 187 236 292 361
#     4  11  24  40  59  86 118 156 206 259 310 373
#
# _framework density 17.973192999999998
#
# number of rings (size 3 to 8) (size 9 to 14) (size 15 to 20)
#    0.000    1.727    2.727    2.182    0.000    0.727 
#    1.636    0.000    0.000    4.909    0.000    5.091 
#    0.000    0.000    0.000    0.000    0.000    0.000 
#
# Total GULP energy -490030.362302 kJ/mol
# GULP energy per Si atom -5568.526844 kJ/mol
# Density = 1.793228 g / cm^3
# Si number density = 17.973193 Si / 1000 Ang^3
#
#
#
# Elastic Constant Matrix: (Units=GPa)
#
#
# Indices 1 2 3 4 5 6 
#
# 1 49.6143 0.9192 -4.3321 0.0000 0.0000 0.0000
# 2 0.9192 49.6143 -4.3321 0.0000 0.0000 0.0000
# 3 -4.3321 -4.3321 52.4598 0.0000 0.0000 0.0000
# 4 0.0000 0.0000 0.0000 15.5703 0.0000 0.0000
# 5 0.0000 0.0000 0.0000 0.0000 15.5701 0.0000
# 6 0.0000 0.0000 0.0000 0.0000 0.0000 -1.8655
#
#
#
# Elastic Compliance Matrix: (Units=1/GPa)
#
#
# Indices 1 2 3 4 5 6 
#
# 1 0.020305 -0.000231 0.001658 0.000000 0.000000 0.000000
# 2 -0.000231 0.020304 0.001658 0.000000 0.000000 0.000000
# 3 0.001658 0.001658 0.019336 0.000000 0.000000 0.000000
# 4 0.000000 0.000000 0.000000 0.064225 0.000000 0.000000
# 5 0.000000 0.000000 0.000000 0.000000 0.064226 0.000000
# 6 0.000000 0.000000 0.000000 0.000000 0.000000 -0.536038
#
#
# Mechanical properties :
#
#
# Convention : Reuss Voigt Hill
#
# Bulk Modulus (GPa) = 15.12572 15.13316 15.12944
# Shear Modulus (GPa) = -15.07056 16.48387 0.70666
#
# Velocity S-wave (km/s) = -2.89883 3.03171 0.62772
# Velocity P-wave (km/s) = 1.66443 4.54897 2.99356
#
# Compressibility (1/GPa) = 0.06611255
#
# Stress axis : x y z
#
# Youngs Moduli (GPa) = 49.25012 49.25019 51.71707
#
# Poissons Ratio (x) = 0.01140 -0.08573
# Poissons Ratio (y) = 0.01140 -0.08573
# Poissons Ratio (z) = -0.08164 -0.08164
#
# Static dielectric constant tensor:
#      x y z
#    x 1.618490 0.000000 0.000000 
#    y 0.000000 1.618490 0.000000 
#    z 0.000000 0.000000 1.646320 
# 
# From -- ./inp_files/5026.got.cif
#   From: 2010.05.17/outbox.cif.g08.bks.cpg/sg136_3_cif.got.tgz:5026.got - 2010.05.20 12:54:53.
