data_PCOD9569441
_publ_section_title
;
Structure prediction by ZEFSAII (Michael W. Deem and Ramdas Pophale) SiO2 
 PCOD9569441
Probable space group: P 42/M N M
;
_chemical_formula_sum "Si O2"
_cell_formula_units_Z 64
_cell_length_a 20.653535
_cell_length_b 20.653535
_cell_length_c 7.578564
_cell_angle_alpha 90.000000
_cell_angle_beta 90.000000
_cell_angle_gamma 90.000000
_cell_volume 3232.776738
_symmetry_space_group_name_H-M "P 42/M N M"
_symmetry_group_IT_number 136
_symmetry_cell_setting 'tetragonal'
loop_
_space_group_symop_operation_xyz
x,y,z
1/2-y,1/2+x,1/2+z
-x,-y,z
1/2+y,1/2-x,1/2+z
1/2+x,1/2-y,1/2-z
1/2-x,1/2+y,1/2-z
y,x,-z
-y,-x,-z
-x,-y,-z
1/2+y,1/2-x,1/2-z
x,y,-z
1/2-y,1/2+x,1/2-z
1/2-x,1/2+y,1/2+z
1/2+x,1/2-y,1/2+z
-y,-x,z
y,x,z
loop_
_atom_site_type_symbol
_atom_site_label
_atom_site_fract_x
_atom_site_fract_y
_atom_site_fract_z
Si Si1 0.919272 0.679602 0.295412
Si Si2 0.829252 0.566844 0.707014
Si Si3 0.076742 0.818899 0.286313
Si Si4 0.570629 0.324568 0.216082
O O1 0.899157 0.684142 0.500000
O O2 0.876735 0.621685 0.217961
O O3 0.911451 0.752119 0.221397
O O4 0.995637 0.664461 0.289003
O O5 0.843364 0.558071 0.500000
O O6 0.754757 0.588321 0.728153
O O7 0.077458 0.818940 0.500000
O O8 0.130483 0.869518 0.224385
O O9 0.003654 0.837274 0.231027
O O10 0.621182 0.378819 0.273452
O O11 0.571100 0.323597 0.000000
#
# Coordination Sequence:
#
# PCOD9569441 Si02
#       4
#    16  16  16  16
#     4   9  19  34  50  71  98 126 159 201 247 293
#     4  10  20  33  51  73  97 128 164 204 246 291
#     4   9  18  32  49  71 101 133 163 200 245 290
#     4   8  14  27  48  71  94 122 159 200 235 273
#
# _framework density 19.797222000000001
#
# number of rings (size 3 to 8) (size 9 to 14) (size 15 to 20)
#    0.000    3.000    0.000    2.250    0.000    4.500 
#    0.000    7.500    0.000   12.000    0.000    7.000 
#    0.000    0.000    0.000    0.000    0.000    0.000 
#
# Total GULP energy -356880.730475 kJ/mol
# GULP energy per Si atom -5576.261414 kJ/mol
# Density = 1.975216 g / cm^3
# Si number density = 19.797222 Si / 1000 Ang^3
#
#
#
# Elastic Constant Matrix: (Units=GPa)
#
#
# Indices 1 2 3 4 5 6 
#
# 1 126.0479 116.5006 -12.8576 0.0000 0.0000 0.0000
# 2 116.5006 126.0479 -12.8576 0.0000 0.0000 0.0000
# 3 -12.8576 -12.8576 41.9616 0.0000 0.0000 0.0000
# 4 0.0000 0.0000 0.0000 15.0264 0.0000 0.0000
# 5 0.0000 0.0000 0.0000 0.0000 15.0264 0.0000
# 6 0.0000 0.0000 0.0000 0.0000 0.0000 49.3928
#
#
#
# Elastic Compliance Matrix: (Units=1/GPa)
#
#
# Indices 1 2 3 4 5 6 
#
# 1 0.054501 -0.050240 0.001306 0.000000 0.000000 0.000000
# 2 -0.050240 0.054501 0.001306 0.000000 0.000000 0.000000
# 3 0.001306 0.001306 0.024631 0.000000 0.000000 0.000000
# 4 0.000000 0.000000 0.000000 0.066550 0.000000 0.000000
# 5 0.000000 0.000000 0.000000 0.000000 0.066550 0.000000
# 6 0.000000 0.000000 0.000000 0.000000 0.000000 0.020246
#
#
# Mechanical properties :
#
#
# Convention : Reuss Voigt Hill
#
# Bulk Modulus (GPa) = 26.05727 52.84759 39.45243
# Shear Modulus (GPa) = 12.65735 29.44059 21.04897
#
# Velocity S-wave (km/s) = 2.53128 3.86049 3.26426
# Velocity P-wave (km/s) = 4.66196 6.82814 5.84625
#
# Compressibility (1/GPa) = 0.03837700
#
# Stress axis : x y z
#
# Youngs Moduli (GPa) = 18.34829 18.34829 40.59847
#
# Poissons Ratio (x) = 0.92181 -0.05301
# Poissons Ratio (y) = 0.92181 -0.05301
# Poissons Ratio (z) = -0.02396 -0.02396
#
# Static dielectric constant tensor:
#      x y z
#    x 1.676870 0.000000 0.000000 
#    y 0.000000 1.676870 0.000000 
#    z 0.000000 0.000000 1.773510 
# 
# From -- ./inp_files/1405.got.cif
#   From: 2010.05.17/outbox.cif.g08.bks.cpg/sg136_1_cif.got.tgz:1405.got - 2010.05.20 12:54:53.
