data_PCOD9569849
_publ_section_title
;
Structure prediction by ZEFSAII (Michael W. Deem and Ramdas Pophale) SiO2 
 PCOD9569849
Probable space group: P 42/M N M
;
_chemical_formula_sum "Si O2"
_cell_formula_units_Z 96
_cell_length_a 24.527040
_cell_length_b 24.527040
_cell_length_c 7.862912
_cell_angle_alpha 90.000000
_cell_angle_beta 90.000000
_cell_angle_gamma 90.000000
_cell_volume 4730.136721
_symmetry_space_group_name_H-M "P 42/M N M"
_symmetry_group_IT_number 136
_symmetry_cell_setting 'tetragonal'
loop_
_space_group_symop_operation_xyz
x,y,z
1/2-y,1/2+x,1/2+z
-x,-y,z
1/2+y,1/2-x,1/2+z
1/2+x,1/2-y,1/2-z
1/2-x,1/2+y,1/2-z
y,x,-z
-y,-x,-z
-x,-y,-z
1/2+y,1/2-x,1/2-z
x,y,-z
1/2-y,1/2+x,1/2-z
1/2-x,1/2+y,1/2+z
1/2+x,1/2-y,1/2+z
-y,-x,z
y,x,z
loop_
_atom_site_type_symbol
_atom_site_label
_atom_site_fract_x
_atom_site_fract_y
_atom_site_fract_z
Si Si1 0.788034 0.013111 0.208790
Si Si2 0.694047 0.932598 0.800650
Si Si3 0.722667 0.636486 0.707135
Si Si4 0.188325 0.275255 0.294026
Si Si5 0.499736 0.411937 0.707472
Si Si6 0.072561 0.541243 0.811925
O O1 0.775346 0.074650 0.263665
O O2 0.740486 0.973067 0.268500
O O3 0.849466 0.998537 0.263994
O O4 0.788365 0.011712 0.000000
O O5 0.715684 0.871570 0.774904
O O6 0.634024 0.941182 0.725076
O O7 0.688195 0.943928 0.000000
O O8 0.722742 0.636001 0.500000
O O9 0.667712 0.667712 0.759801
O O10 0.773077 0.674336 0.759075
O O11 0.185918 0.275419 0.500000
O O12 0.220175 0.220175 0.242353
O O13 0.499457 0.411414 0.500000
O O14 0.551324 0.448677 0.760349
O O15 0.445351 0.445351 0.758716
O O16 0.066189 0.475683 0.801793
O O17 0.057989 0.560263 0.000000
#
# Coordination Sequence:
#
# PCOD9569849 Si02
#       6
#    16  16  16  16  16  16
#     4   9  17  27  42  69 104 138 176 220 268 326
#     4  11  23  35  52  84 118 153 190 226 281 347
#     4   8  14  27  49  73  94 126 176 229 276 319
#     4   9  19  36  56  76 101 142 193 239 286 337
#     4   8  13  22  38  62  96 139 181 221 269 322
#     4  11  23  42  65  88 115 147 187 236 288 346
#
# _framework density 20.295397999999999
#
# number of rings (size 3 to 8) (size 9 to 14) (size 15 to 20)
#    0.000    2.667    0.000    4.500    2.333    3.000 
#    0.000    1.667    0.000    0.000    0.000    0.000 
#    0.000    8.000    0.000   14.667    0.000   12.000 
#
# Total GULP energy -535730.332059 kJ/mol
# GULP energy per Si atom -5580.524292 kJ/mol
# Density = 2.024920 g / cm^3
# Si number density = 20.295398 Si / 1000 Ang^3
#
#
#
# Elastic Constant Matrix: (Units=GPa)
#
#
# Indices 1 2 3 4 5 6 
#
# 1 91.4036 90.5203 -4.6991 0.0000 0.0000 0.0000
# 2 90.5203 91.4036 -4.6991 0.0000 0.0000 0.0000
# 3 -4.6991 -4.6991 26.9404 0.0000 0.0000 0.0000
# 4 0.0000 0.0000 0.0000 24.1626 0.0000 0.0000
# 5 0.0000 0.0000 0.0000 0.0000 24.1626 0.0000
# 6 0.0000 0.0000 0.0000 0.0000 0.0000 16.7828
#
#
#
# Elastic Compliance Matrix: (Units=1/GPa)
#
#
# Indices 1 2 3 4 5 6 
#
# 1 0.568840 -0.563293 0.000968 0.000000 0.000000 0.000000
# 2 -0.563293 0.568840 0.000968 0.000000 0.000000 0.000000
# 3 0.000968 0.000968 0.037456 0.000000 0.000000 0.000000
# 4 0.000000 0.000000 0.000000 0.041386 0.000000 0.000000
# 5 0.000000 0.000000 0.000000 0.000000 0.041386 0.000000
# 6 0.000000 0.000000 0.000000 0.000000 0.000000 0.059585
#
#
# Mechanical properties :
#
#
# Convention : Reuss Voigt Hill
#
# Bulk Modulus (GPa) = 19.07668 41.33243 30.20456
# Shear Modulus (GPa) = 2.03444 21.59663 11.81553
#
# Velocity S-wave (km/s) = 1.00229 3.26562 2.41545
# Velocity P-wave (km/s) = 3.28015 5.88461 4.76382
#
# Compressibility (1/GPa) = 0.05242001
#
# Stress axis : x y z
#
# Youngs Moduli (GPa) = 1.75796 1.75796 26.69768
#
# Poissons Ratio (x) = 0.99025 -0.02583
# Poissons Ratio (y) = 0.99025 -0.02583
# Poissons Ratio (z) = -0.00170 -0.00170
#
# Static dielectric constant tensor:
#      x y z
#    x 1.693840 0.000000 0.000000 
#    y 0.000000 1.693840 0.000000 
#    z 0.000000 0.000000 1.764250 
# 
# From -- ./inp_files/1987.got.cif
#   From: 2010.05.17/outbox.cif.g08.bks.cpg/sg136_1_cif.got.tgz:1987.got - 2010.05.20 12:54:53.
