data_PCOD9569663
_publ_section_title
;
Structure prediction by ZEFSAII (Michael W. Deem and Ramdas Pophale) SiO2 
 PCOD9569663
Probable space group: P 42/M N M
;
_chemical_formula_sum "Si O2"
_cell_formula_units_Z 96
_cell_length_a 23.370019
_cell_length_b 23.370019
_cell_length_c 7.890416
_cell_angle_alpha 90.000000
_cell_angle_beta 90.000000
_cell_angle_gamma 90.000000
_cell_volume 4309.412149
_symmetry_space_group_name_H-M "P 42/M N M"
_symmetry_group_IT_number 136
_symmetry_cell_setting 'tetragonal'
loop_
_space_group_symop_operation_xyz
x,y,z
1/2-y,1/2+x,1/2+z
-x,-y,z
1/2+y,1/2-x,1/2+z
1/2+x,1/2-y,1/2-z
1/2-x,1/2+y,1/2-z
y,x,-z
-y,-x,-z
-x,-y,-z
1/2+y,1/2-x,1/2-z
x,y,-z
1/2-y,1/2+x,1/2-z
1/2-x,1/2+y,1/2+z
1/2+x,1/2-y,1/2+z
-y,-x,z
y,x,z
loop_
_atom_site_type_symbol
_atom_site_label
_atom_site_fract_x
_atom_site_fract_y
_atom_site_fract_z
Si Si1 0.326680 0.587588 0.801827
Si Si2 0.105404 0.797480 0.691269
Si Si3 0.210666 0.304564 0.793959
Si Si4 0.089767 0.517012 0.801143
Si Si5 0.519963 0.610846 0.305211
Si Si6 0.702799 0.921530 0.701457
O O1 0.355452 0.644549 0.725054
O O2 0.372635 0.537284 0.788801
O O3 0.266392 0.566935 0.727699
O O4 0.316204 0.599379 0.000000
O O5 0.082601 0.787638 0.500000
O O6 0.158627 0.841374 0.676871
O O7 0.135883 0.740991 0.759295
O O8 0.059207 0.832342 0.795377
O O9 0.250660 0.250660 0.739631
O O10 0.146357 0.303573 0.729549
O O11 0.210669 0.304448 0.000000
O O12 0.065011 0.459795 0.716495
O O13 0.149272 0.542237 0.730605
O O14 0.096241 0.503749 0.000000
O O15 0.506457 0.598147 0.500000
O O16 0.558794 0.558794 0.236530
O O17 0.702621 0.933101 0.500000
#
# Coordination Sequence:
#
# PCOD9569663 Si02
#       6
#    16  16  16  16  16  16
#     4  10  22  40  59  79 108 148 190 228 271 330
#     4   8  15  30  51  75 105 140 178 220 267 324
#     4   9  18  32  52  80 113 150 191 234 281 333
#     4  10  21  39  62  87 116 148 183 225 274 328
#     4  10  21  36  55  81 111 142 181 233 287 329
#     4  10  22  38  57  83 113 146 184 228 277 328
#
# _framework density 22.276821000000002
#
# number of rings (size 3 to 8) (size 9 to 14) (size 15 to 20)
#    0.000    2.500    0.000    3.000    0.000    6.667 
#    0.000    8.333    0.000    0.000    0.000    0.000 
#    0.000    0.000    0.000    0.000    0.000    0.000 
#
# Total GULP energy -535608.609637 kJ/mol
# GULP energy per Si atom -5579.256350 kJ/mol
# Density = 2.222612 g / cm^3
# Si number density = 22.276821 Si / 1000 Ang^3
#
#
#
# Elastic Constant Matrix: (Units=GPa)
#
#
# Indices 1 2 3 4 5 6 
#
# 1 88.4587 53.5752 -4.8474 0.0000 0.0000 0.0000
# 2 53.5752 88.4587 -4.8474 0.0000 0.0000 0.0000
# 3 -4.8474 -4.8474 26.3457 0.0000 0.0000 0.0000
# 4 0.0000 0.0000 0.0000 12.0416 0.0000 0.0000
# 5 0.0000 0.0000 0.0000 0.0000 12.0416 0.0000
# 6 0.0000 0.0000 0.0000 0.0000 0.0000 36.1063
#
#
#
# Elastic Compliance Matrix: (Units=1/GPa)
#
#
# Indices 1 2 3 4 5 6 
#
# 1 0.017898 -0.010768 0.001312 0.000000 0.000000 0.000000
# 2 -0.010768 0.017898 0.001312 0.000000 0.000000 0.000000
# 3 0.001312 0.001312 0.038440 0.000000 0.000000 0.000000
# 4 0.000000 0.000000 0.000000 0.083046 0.000000 0.000000
# 5 0.000000 0.000000 0.000000 0.000000 0.083046 0.000000
# 6 0.000000 0.000000 0.000000 0.000000 0.000000 0.027696
#
#
# Mechanical properties :
#
#
# Convention : Reuss Voigt Hill
#
# Bulk Modulus (GPa) = 17.25702 32.33598 24.79650
# Shear Modulus (GPa) = 16.46747 22.66341 19.56544
#
# Velocity S-wave (km/s) = 2.72181 3.19306 2.96681
# Velocity P-wave (km/s) = 4.20013 5.30483 4.78447
#
# Compressibility (1/GPa) = 0.05794744
#
# Stress axis : x y z
#
# Youngs Moduli (GPa) = 55.87063 55.87063 26.01483
#
# Poissons Ratio (x) = 0.60164 -0.03413
# Poissons Ratio (y) = 0.60164 -0.03413
# Poissons Ratio (z) = -0.07330 -0.07330
#
# Static dielectric constant tensor:
#      x y z
#    x 1.854230 0.000000 0.000000 
#    y 0.000000 1.854230 0.000000 
#    z 0.000000 0.000000 1.803230 
# 
# From -- ./inp_files/1930.got.cif
#   From: 2010.05.17/outbox.cif.g08.bks.cpg/sg136_1_cif.got.tgz:1930.got - 2010.05.20 12:54:53.
