data_PCOD9569613
_publ_section_title
;
Structure prediction by ZEFSAII (Michael W. Deem and Ramdas Pophale) SiO2 
 PCOD9569613
Probable space group: P 42/M N M
;
_chemical_formula_sum "Si O2"
_cell_formula_units_Z 72
_cell_length_a 20.174718
_cell_length_b 20.174718
_cell_length_c 7.705370
_cell_angle_alpha 90.000000
_cell_angle_beta 90.000000
_cell_angle_gamma 90.000000
_cell_volume 3136.233890
_symmetry_space_group_name_H-M "P 42/M N M"
_symmetry_group_IT_number 136
_symmetry_cell_setting 'tetragonal'
loop_
_space_group_symop_operation_xyz
x,y,z
1/2-y,1/2+x,1/2+z
-x,-y,z
1/2+y,1/2-x,1/2+z
1/2+x,1/2-y,1/2-z
1/2-x,1/2+y,1/2-z
y,x,-z
-y,-x,-z
-x,-y,-z
1/2+y,1/2-x,1/2-z
x,y,-z
1/2-y,1/2+x,1/2-z
1/2-x,1/2+y,1/2+z
1/2+x,1/2-y,1/2+z
-y,-x,z
y,x,z
loop_
_atom_site_type_symbol
_atom_site_label
_atom_site_fract_x
_atom_site_fract_y
_atom_site_fract_z
Si Si1 0.337976 0.337976 0.787100
Si Si2 0.054054 0.054054 0.208130
Si Si3 0.792930 0.407079 0.206065
Si Si4 0.229694 0.229694 0.207707
Si Si5 0.486721 0.307344 0.793511
Si Si6 0.921814 0.567579 0.697103
O O1 0.283834 0.283834 0.732146
O O2 0.412233 0.319039 0.727030
O O3 0.339160 0.339160 0.000000
O O4 0.030021 0.126280 0.266467
O O5 0.053947 0.053947 0.000000
O O6 0.000000 0.000000 0.270030
O O7 0.748299 0.343174 0.231279
O O8 0.754976 0.471531 0.277319
O O9 0.866208 0.390906 0.275978
O O10 0.803098 0.417184 0.000000
O O11 0.230330 0.230330 0.000000
O O12 0.480798 0.297252 0.000000
O O13 0.899679 0.554661 0.500000
O O14 0.915466 0.500345 0.802382
#
# Coordination Sequence:
#
# PCOD9569613 Si02
#       6
#     8   8  16   8  16  16
#     4   9  20  37  61  89 112 147 200 246 284 334
#     4  11  22  35  52  82 121 148 181 236 293 336
#     4  10  23  40  61  87 119 157 194 242 298 355
#     4  11  24  40  62  88 121 159 197 248 297 358
#     4  10  20  38  62  84 109 150 201 238 277 343
#     4  10  21  38  61  88 118 153 195 247 300 352
#
# _framework density 22.957471999999999
#
# number of rings (size 3 to 8) (size 9 to 14) (size 15 to 20)
#    0.000    1.889    1.111    2.667    3.111    5.778 
#    0.000    2.222    0.000    0.000    0.000    0.000 
#    0.000    0.000    0.000    0.000    0.000    0.000 
#
# Total GULP energy -402436.422494 kJ/mol
# GULP energy per Si atom -5589.394757 kJ/mol
# Density = 2.290522 g / cm^3
# Si number density = 22.957472 Si / 1000 Ang^3
#
#
#
# Elastic Constant Matrix: (Units=GPa)
#
#
# Indices 1 2 3 4 5 6 
#
# 1 235.6888 -159.7789 1.2440 0.0000 0.0000 0.0000
# 2 -159.7789 235.6888 1.2440 0.0000 0.0000 0.0000
# 3 1.2440 1.2440 49.5913 0.0000 0.0000 0.0000
# 4 0.0000 0.0000 0.0000 23.5235 0.0000 0.0000
# 5 0.0000 0.0000 0.0000 0.0000 23.5235 0.0000
# 6 0.0000 0.0000 0.0000 0.0000 0.0000 41.0098
#
#
#
# Elastic Compliance Matrix: (Units=1/GPa)
#
#
# Indices 1 2 3 4 5 6 
#
# 1 0.007856 0.005328 -0.000331 0.000000 0.000000 0.000000
# 2 0.005328 0.007856 -0.000331 0.000000 0.000000 0.000000
# 3 -0.000331 -0.000331 0.020181 0.000000 0.000000 0.000000
# 4 0.000000 0.000000 0.000000 0.042511 0.000000 0.000000
# 5 0.000000 0.000000 0.000000 0.000000 0.042511 0.000000
# 6 0.000000 0.000000 0.000000 0.000000 0.000000 0.024384
#
#
# Mechanical properties :
#
#
# Convention : Reuss Voigt Hill
#
# Bulk Modulus (GPa) = 22.11059 22.93190 22.52125
# Shear Modulus (GPa) = 33.10313 62.82869 47.96591
#
# Velocity S-wave (km/s) = 3.80140 5.23706 4.57589
# Velocity P-wave (km/s) = 5.37769 6.82493 6.14407
#
# Compressibility (1/GPa) = 0.04522720
#
# Stress axis : x y z
#
# Youngs Moduli (GPa) = 127.28320 127.28320 49.55055
#
# Poissons Ratio (x) = -0.67815 0.01639
# Poissons Ratio (y) = -0.67815 0.01639
# Poissons Ratio (z) = 0.04210 0.04210
#
# Static dielectric constant tensor:
#      x y z
#    x 1.849370 0.000000 0.000000 
#    y 0.000000 1.849370 0.000000 
#    z 0.000000 0.000000 1.826610 
# 
# From -- ./inp_files/1621.got.cif
#   From: 2010.05.17/outbox.cif.g08.bks.cpg/sg136_1_cif.got.tgz:1621.got - 2010.05.20 12:54:53.
