data_PCOD9569206
_publ_section_title
;
Structure prediction by ZEFSAII (Michael W. Deem and Ramdas Pophale) SiO2 
 PCOD9569206
Probable space group: P 42/M N M
;
_chemical_formula_sum "Si O2"
_cell_formula_units_Z 88
_cell_length_a 18.035651
_cell_length_b 18.035651
_cell_length_c 15.304843
_cell_angle_alpha 90.000000
_cell_angle_beta 90.000000
_cell_angle_gamma 90.000000
_cell_volume 4978.431371
_symmetry_space_group_name_H-M "P 42/M N M"
_symmetry_group_IT_number 136
_symmetry_cell_setting 'tetragonal'
loop_
_space_group_symop_operation_xyz
x,y,z
1/2-y,1/2+x,1/2+z
-x,-y,z
1/2+y,1/2-x,1/2+z
1/2+x,1/2-y,1/2-z
1/2-x,1/2+y,1/2-z
y,x,-z
-y,-x,-z
-x,-y,-z
1/2+y,1/2-x,1/2-z
x,y,-z
1/2-y,1/2+x,1/2-z
1/2-x,1/2+y,1/2+z
1/2+x,1/2-y,1/2+z
-y,-x,z
y,x,z
loop_
_atom_site_type_symbol
_atom_site_label
_atom_site_fract_x
_atom_site_fract_y
_atom_site_fract_z
Si Si1 0.184290 0.184290 0.782544
Si Si2 0.467134 0.922279 0.100982
Si Si3 0.930550 0.736798 0.897807
Si Si4 0.717685 0.717685 0.908662
Si Si5 0.317946 0.899557 0.636781
Si Si6 0.257098 0.742903 0.898367
Si Si7 0.405005 0.195438 0.340324
O O1 0.106085 0.208308 0.825880
O O2 0.241968 0.241968 0.828480
O O3 0.198005 0.198005 0.678959
O O4 0.524838 0.855384 0.106973
O O5 0.392880 0.902055 0.149292
O O6 0.500000 0.000000 0.135361
O O7 0.447412 0.935905 0.000000
O O8 0.882994 0.661068 0.882748
O O9 0.017400 0.723226 0.880290
O O10 0.921369 0.758624 0.000000
O O11 0.743851 0.633505 0.906248
O O12 0.748865 0.748865 0.000000
O O13 0.294840 0.905440 0.736988
O O14 0.272180 0.830272 0.882155
O O15 0.275481 0.724520 0.000000
#
# Coordination Sequence:
#
# PCOD9569206 Si02
#       7
#     8  16  16   8  16   8  16
#     4  10  20  38  56  83 106 144 196 250 290 335
#     4  11  22  33  49  78 114 151 189 229 281 347
#     4  11  20  36  60  84 112 150 198 246 297 345
#     4  10  18  34  56  76 104 143 192 245 292 332
#     4  11  20  33  53  78 112 148 191 238 288 334
#     4  12  24  40  56  79 120 167 200 228 285 365
#     4  12  23  38  54  83 117 160 192 233 289 362
#
# _framework density 17.676251000000001
#
# number of rings (size 3 to 8) (size 9 to 14) (size 15 to 20)
#    0.000    0.909    5.455    6.273    0.000    0.000 
#    0.000    0.000    0.000    0.545    0.000    1.909 
#    0.000    0.727    0.000    5.273    0.000    0.091 
#
# Total GULP energy -490510.298102 kJ/mol
# GULP energy per Si atom -5573.980660 kJ/mol
# Density = 1.763602 g / cm^3
# Si number density = 17.676251 Si / 1000 Ang^3
#
#
#
# Elastic Constant Matrix: (Units=GPa)
#
#
# Indices 1 2 3 4 5 6 
#
# 1 78.2330 54.8210 19.4462 0.0000 0.0000 0.0000
# 2 54.8210 78.2331 19.4464 0.0000 0.0000 0.0000
# 3 19.4462 19.4464 132.8453 0.0000 0.0000 0.0000
# 4 0.0000 0.0000 0.0000 17.8728 0.0000 0.0000
# 5 0.0000 0.0000 0.0000 0.0000 17.8728 0.0000
# 6 0.0000 0.0000 0.0000 0.0000 0.0000 28.9224
#
#
#
# Elastic Compliance Matrix: (Units=1/GPa)
#
#
# Indices 1 2 3 4 5 6 
#
# 1 0.025282 -0.017431 -0.001149 0.000000 0.000000 0.000000
# 2 -0.017431 0.025282 -0.001149 0.000000 0.000000 0.000000
# 3 -0.001149 -0.001149 0.007864 0.000000 0.000000 0.000000
# 4 0.000000 0.000000 0.000000 0.055951 0.000000 0.000000
# 5 0.000000 0.000000 0.000000 0.000000 0.055951 0.000000
# 6 0.000000 0.000000 0.000000 0.000000 0.000000 0.034575
#
#
# Mechanical properties :
#
#
# Convention : Reuss Voigt Hill
#
# Bulk Modulus (GPa) = 52.71471 52.97094 52.84283
# Shear Modulus (GPa) = 19.94510 25.97346 22.95928
#
# Velocity S-wave (km/s) = 3.36275 3.83743 3.60790
# Velocity P-wave (km/s) = 6.70556 7.04747 6.87864
#
# Compressibility (1/GPa) = 0.01897004
#
# Stress axis : x y z
#
# Youngs Moduli (GPa) = 39.55322 39.55327 127.16101
#
# Poissons Ratio (x) = 0.68944 0.14615
# Poissons Ratio (y) = 0.68944 0.14616
# Poissons Ratio (z) = 0.04546 0.04546
#
# Static dielectric constant tensor:
#      x y z
#    x 1.625430 0.000000 0.000000 
#    y 0.000000 1.625430 0.000000 
#    z 0.000000 0.000000 1.697180 
# 
# From -- ./inp_files/5091.got.cif
#   From: 2010.05.17/outbox.cif.g08.bks.cpg/sg136_3_cif.got.tgz:5091.got - 2010.05.20 12:54:53.
