data_PCOD9569870
_publ_section_title
;
Structure prediction by ZEFSAII (Michael W. Deem and Ramdas Pophale) SiO2 
 PCOD9569870
Probable space group: P 42/M N M
;
_chemical_formula_sum "Si O2"
_cell_formula_units_Z 44
_cell_length_a 9.645283
_cell_length_b 9.645283
_cell_length_c 23.163764
_cell_angle_alpha 90.000000
_cell_angle_beta 90.000000
_cell_angle_gamma 90.000000
_cell_volume 2154.959343
_symmetry_space_group_name_H-M "P 42/M N M"
_symmetry_group_IT_number 136
_symmetry_cell_setting 'tetragonal'
loop_
_space_group_symop_operation_xyz
x,y,z
1/2-y,1/2+x,1/2+z
-x,-y,z
1/2+y,1/2-x,1/2+z
1/2+x,1/2-y,1/2-z
1/2-x,1/2+y,1/2-z
y,x,-z
-y,-x,-z
-x,-y,-z
1/2+y,1/2-x,1/2-z
x,y,-z
1/2-y,1/2+x,1/2-z
1/2-x,1/2+y,1/2+z
1/2+x,1/2-y,1/2+z
-y,-x,z
y,x,z
loop_
_atom_site_type_symbol
_atom_site_label
_atom_site_fract_x
_atom_site_fract_y
_atom_site_fract_z
Si Si1 0.981498 0.654906 0.351146
Si Si2 0.000000 0.000000 0.914492
Si Si3 0.713492 0.286509 0.360021
Si Si4 0.727247 0.727247 0.434751
Si Si5 0.615963 0.384038 0.761649
O O1 0.856575 0.669155 0.397042
O O2 0.955255 0.767208 0.301317
O O3 0.000000 0.500000 0.327432
O O4 0.130467 0.683993 0.378794
O O5 0.103783 0.103783 0.882604
O O6 0.890411 0.109590 0.940323
O O7 0.692135 0.307866 0.291190
O O8 0.768300 0.768300 0.500000
O O9 0.500000 0.500000 0.744948
#
# Coordination Sequence:
#
# PCOD9569870 Si02
#       5
#    16   4   8   8   8
#     4  11  25  43  66  98 139 175 222 270 326 400
#     4  12  23  46  70 106 132 164 217 296 314 404
#     4  12  25  41  65 101 141 176 218 265 333 387
#     4  11  26  48  71  97 128 171 226 287 340 387
#     4  11  25  40  66  99 142 179 219 262 320 404
#
# _framework density 20.418016999999999
#
# number of rings (size 3 to 8) (size 9 to 14) (size 15 to 20)
#    0.000    0.727    6.364    0.273    5.091    0.727 
#    0.000    1.818    0.000    0.000    0.000    0.000 
#    0.000    0.000    0.000    0.000    0.000    0.000 
#
# Total GULP energy -245533.379577 kJ/mol
# GULP energy per Si atom -5580.304081 kJ/mol
# Density = 2.037154 g / cm^3
# Si number density = 20.418017 Si / 1000 Ang^3
#
#
#
# Elastic Constant Matrix: (Units=GPa)
#
#
# Indices 1 2 3 4 5 6 
#
# 1 151.8818 57.5405 31.9937 0.0000 0.0000 0.0000
# 2 57.5405 151.8818 31.9937 0.0000 0.0000 0.0000
# 3 31.9937 31.9937 75.7866 0.0000 0.0000 0.0000
# 4 0.0000 0.0000 0.0000 -18.3998 0.0000 0.0000
# 5 0.0000 0.0000 0.0000 0.0000 -18.3998 0.0000
# 6 0.0000 0.0000 0.0000 0.0000 0.0000 46.0973
#
#
#
# Elastic Compliance Matrix: (Units=1/GPa)
#
#
# Indices 1 2 3 4 5 6 
#
# 1 0.008041 -0.002559 -0.002314 0.000000 0.000000 0.000000
# 2 -0.002559 0.008041 -0.002314 0.000000 0.000000 0.000000
# 3 -0.002314 -0.002314 0.015149 0.000000 0.000000 0.000000
# 4 0.000000 0.000000 0.000000 -0.054348 0.000000 0.000000
# 5 0.000000 0.000000 0.000000 0.000000 -0.054348 0.000000
# 6 0.000000 0.000000 0.000000 0.000000 0.000000 0.021693
#
#
# Mechanical properties :
#
#
# Convention : Reuss Voigt Hill
#
# Bulk Modulus (GPa) = 59.32610 69.17843 64.25227
# Shear Modulus (GPa) = -139.74758 19.06101 -60.34328
#
# Velocity S-wave (km/s) = -8.28202 3.05870 -5.44225
# Velocity P-wave (km/s) = 7.89538 6.81387 2.82030
#
# Compressibility (1/GPa) = 0.01685599
#
# Stress axis : x y z
#
# Youngs Moduli (GPa) = 124.36286 124.36286 66.01119
#
# Poissons Ratio (x) = 0.31822 0.15277
# Poissons Ratio (y) = 0.31822 0.15277
# Poissons Ratio (z) = 0.28782 0.28782
#
# Static dielectric constant tensor:
#      x y z
#    x 1.756960 0.000000 0.000000 
#    y 0.000000 1.756960 0.000000 
#    z 0.000000 0.000000 1.706880 
# 
# From -- ./inp_files/9318.got.cif
#   From: 2010.05.17/outbox.cif.g08.bks.cpg/sg136_5_cif.got.tgz:9318.got - 2010.05.20 12:54:53.
