data_PCOD9569557
_publ_section_title
;
Structure prediction by ZEFSAII (Michael W. Deem and Ramdas Pophale) SiO2 
 PCOD9569557
Probable space group: P 42/M N M
;
_chemical_formula_sum "Si O2"
_cell_formula_units_Z 96
_cell_length_a 25.286914
_cell_length_b 25.286914
_cell_length_c 8.840480
_cell_angle_alpha 90.000000
_cell_angle_beta 90.000000
_cell_angle_gamma 90.000000
_cell_volume 5652.850619
_symmetry_space_group_name_H-M "P 42/M N M"
_symmetry_group_IT_number 136
_symmetry_cell_setting 'tetragonal'
loop_
_space_group_symop_operation_xyz
x,y,z
1/2-y,1/2+x,1/2+z
-x,-y,z
1/2+y,1/2-x,1/2+z
1/2+x,1/2-y,1/2-z
1/2-x,1/2+y,1/2-z
y,x,-z
-y,-x,-z
-x,-y,-z
1/2+y,1/2-x,1/2-z
x,y,-z
1/2-y,1/2+x,1/2-z
1/2-x,1/2+y,1/2+z
1/2+x,1/2-y,1/2+z
-y,-x,z
y,x,z
loop_
_atom_site_type_symbol
_atom_site_label
_atom_site_fract_x
_atom_site_fract_y
_atom_site_fract_z
Si Si1 0.575671 0.424330 0.680996
Si Si2 0.835173 0.835173 0.180363
Si Si3 0.879421 0.032988 0.318925
Si Si4 0.231520 0.985949 0.818645
Si Si5 0.415648 0.867209 0.320320
Si Si6 0.461474 0.149367 0.680372
Si Si7 0.243705 0.600220 0.820030
O O1 0.570483 0.429518 0.500000
O O2 0.620137 0.379864 0.712011
O O3 0.520345 0.405036 0.750633
O O4 0.854876 0.781119 0.253317
O O5 0.830496 0.830496 0.000000
O O6 0.875819 0.027274 0.500000
O O7 0.918028 0.081973 0.284552
O O8 0.820947 0.039572 0.250226
O O9 0.287869 0.958584 0.783809
O O10 0.236373 0.044952 0.751647
O O11 0.226761 0.989639 0.000000
O O12 0.410788 0.858519 0.500000
O O13 0.385191 0.919359 0.269525
O O14 0.478442 0.868741 0.286061
O O15 0.393200 0.816524 0.232660
O O16 0.453043 0.143389 0.500000
O O17 0.247569 0.597613 0.000000
#
# Coordination Sequence:
#
# PCOD9569557 Si02
#       7
#     8   8  16  16  16  16  16
#     4  11  22  34  53  78 109 146 182 230 282 332
#     4  11  21  34  54  81 111 142 183 233 279 329
#     4  11  23  36  52  77 109 144 185 233 279 330
#     4  10  20  36  56  79 107 143 184 226 271 325
#     4  10  21  37  58  85 116 149 183 224 272 327
#     4   9  20  37  57  83 114 144 181 225 271 328
#     4  11  21  34  56  82 109 142 181 225 275 328
#
# _framework density 16.982581
#
# number of rings (size 3 to 8) (size 9 to 14) (size 15 to 20)
#    0.000    1.667    1.667    4.750    0.000    7.333 
#    0.000    1.667    1.833    0.000    0.000    0.000 
#    0.000    0.000    0.000    0.000    0.000    0.000 
#
# Total GULP energy -536210.028387 kJ/mol
# GULP energy per Si atom -5585.521129 kJ/mol
# Density = 1.694393 g / cm^3
# Si number density = 16.982581 Si / 1000 Ang^3
#
#
#
# Elastic Constant Matrix: (Units=GPa)
#
#
# Indices 1 2 3 4 5 6 
#
# 1 96.4377 69.8908 55.8755 0.0000 0.0000 0.0000
# 2 69.8908 96.4379 55.8761 0.0000 0.0000 0.0000
# 3 55.8755 55.8761 79.6959 0.0000 0.0000 0.0000
# 4 0.0000 0.0000 0.0000 29.0029 0.0000 0.0000
# 5 0.0000 0.0000 0.0000 0.0000 29.0027 0.0000
# 6 0.0000 0.0000 0.0000 0.0000 0.0000 28.3073
#
#
#
# Elastic Compliance Matrix: (Units=1/GPa)
#
#
# Indices 1 2 3 4 5 6 
#
# 1 0.024518 -0.013151 -0.007969 0.000000 0.000000 0.000000
# 2 -0.013151 0.024518 -0.007969 0.000000 0.000000 0.000000
# 3 -0.007969 -0.007969 0.023722 0.000000 0.000000 0.000000
# 4 0.000000 0.000000 0.000000 0.034479 0.000000 0.000000
# 5 0.000000 0.000000 0.000000 0.000000 0.034479 0.000000
# 6 0.000000 0.000000 0.000000 0.000000 0.000000 0.035327
#
#
# Mechanical properties :
#
#
# Convention : Reuss Voigt Hill
#
# Bulk Modulus (GPa) = 68.59412 70.65072 69.62242
# Shear Modulus (GPa) = 20.82623 23.32454 22.07538
#
# Velocity S-wave (km/s) = 3.50570 3.71001 3.60930
# Velocity P-wave (km/s) = 7.54090 7.74884 7.64557
#
# Compressibility (1/GPa) = 0.01457851
#
# Stress axis : x y z
#
# Youngs Moduli (GPa) = 40.78695 40.78657 42.15454
#
# Poissons Ratio (x) = 0.53640 0.33593
# Poissons Ratio (y) = 0.53640 0.33594
# Poissons Ratio (z) = 0.32503 0.32504
#
# Static dielectric constant tensor:
#      x y z
#    x 1.568240 0.000000 0.000000 
#    y 0.000000 1.568240 0.000000 
#    z 0.000000 0.000000 1.562800 
# 
# From -- ./inp_files/2082.got.cif
#   From: 2010.05.17/outbox.cif.g08.bks.cpg/sg136_2_cif.got.tgz:2082.got - 2010.05.20 12:54:53.
