data_PCOD9569076
_publ_section_title
;
Structure prediction by ZEFSAII (Michael W. Deem and Ramdas Pophale) SiO2 
 PCOD9569076
Probable space group: P 42/M B C
;
_chemical_formula_sum "Si O2"
_cell_formula_units_Z 112
_cell_length_a 15.000000
_cell_length_b 15.000000
_cell_length_c 24.000000
_cell_angle_alpha 90.000000
_cell_angle_beta 90.000000
_cell_angle_gamma 90.000000
_cell_volume 5400.000000
_symmetry_space_group_name_H-M "P 42/M B C"
_symmetry_group_IT_number 135
_symmetry_cell_setting 'tetragonal'
loop_
_space_group_symop_operation_xyz
x,y,z
-y,x,1/2+z
-x,-y,z
y,-x,1/2+z
1/2+x,1/2-y,-z
1/2-x,1/2+y,-z
1/2+y,1/2+x,1/2-z
1/2-y,1/2-x,1/2-z
-x,-y,-z
y,-x,1/2-z
x,y,-z
-y,x,1/2-z
1/2-x,1/2+y,z
1/2+x,1/2-y,z
1/2-y,1/2-x,1/2+z
1/2+y,1/2+x,1/2+z
loop_
_atom_site_type_symbol
_atom_site_label
_atom_site_fract_x
_atom_site_fract_y
_atom_site_fract_z
Si Si1 0.742316 0.601372 0.150131
Si Si2 0.929211 0.577853 0.815388
Si Si3 0.904877 0.955874 0.824207
Si Si4 0.844626 0.087141 0.564627
Si Si5 0.711277 0.347070 0.734263
Si Si6 0.728439 0.952375 0.630034
Si Si7 0.246928 0.718215 0.565372
O O1 0.838267 0.557094 0.152516
O O2 0.666789 0.533146 0.167262
O O3 0.737347 0.673273 0.200114
O O4 0.723750 0.655181 0.093630
O O5 0.909292 0.590709 0.750000
O O6 0.000000 0.500000 0.818875
O O7 0.977277 0.659502 0.845418
O O8 0.916712 0.915711 0.885852
O O9 0.855327 0.884778 0.782195
O O10 0.000000 0.000000 0.807778
O O11 0.873683 0.079273 0.500000
O O12 0.796731 0.183825 0.570714
O O13 0.781192 0.005220 0.582137
O O14 0.811113 0.311113 0.750000
O O15 0.718034 0.421955 0.685671
O O16 0.698175 0.859396 0.601236
O O17 0.249794 0.696231 0.500000
#
# Coordination Sequence:
#
# PCOD9569076 Si02
#       7
#    16  16  16  16  16  16  16
#     4  11  24  42  66  98 143 181 225 296 357 435
#     4  11  25  40  64  97 140 183 229 287 357 437
#     4  12  27  41  67 104 141 183 233 295 363 444
#     4  11  25  46  70  97 134 184 239 295 360 428
#     4  11  26  41  69 101 144 188 233 290 367 440
#     4  11  23  43  69  98 135 181 237 291 352 433
#     4  10  22  44  72  98 129 184 243 291 351 429
#
# _framework density 20.740741
#
# number of rings (size 3 to 8) (size 9 to 14) (size 15 to 20)
#    0.000    1.000    1.429    5.143   12.000    0.857 
#    0.000    0.000    0.000    2.143    0.000    0.000 
#    0.000    0.000    0.000    0.000    0.000    0.000 
#
# Total GULP energy -625132.074292 kJ/mol
# GULP energy per Si atom -5581.536378 kJ/mol
# Density = 2.069353 g / cm^3
# Si number density = 20.740741 Si / 1000 Ang^3
#
#
#
# Elastic Constant Matrix: (Units=GPa)
#
#
# Indices 1 2 3 4 5 6 
#
# 1 49.0119 64.7434 37.3320 0.0000 0.0000 0.0000
# 2 64.7434 49.0088 37.3322 0.0000 0.0000 0.0000
# 3 37.3320 37.3322 156.4768 0.0000 0.0000 0.0000
# 4 0.0000 0.0000 0.0000 35.0285 0.0000 0.0000
# 5 0.0000 0.0000 0.0000 0.0000 35.0281 0.0000
# 6 0.0000 0.0000 0.0000 0.0000 0.0000 38.5932
#
#
#
# Elastic Compliance Matrix: (Units=1/GPa)
#
#
# Indices 1 2 3 4 5 6 
#
# 1 -0.026568 0.036992 -0.002487 0.000000 0.000000 0.000000
# 2 0.036992 -0.026570 -0.002486 0.000000 0.000000 0.000000
# 3 -0.002487 -0.002486 0.007577 0.000000 0.000000 0.000000
# 4 0.000000 0.000000 0.000000 0.028548 0.000000 0.000000
# 5 0.000000 0.000000 0.000000 0.000000 0.028548 0.000000
# 6 0.000000 0.000000 0.000000 0.000000 0.000000 0.025911
#
#
# Mechanical properties :
#
#
# Convention : Reuss Voigt Hill
#
# Bulk Modulus (GPa) = 54.12255 59.25698 56.68976
# Shear Modulus (GPa) = -244.74497 29.40261 -107.67118
#
# Velocity S-wave (km/s) = -10.87466 3.76922 -7.21288
# Velocity P-wave (km/s) = 11.46849 6.89747 6.47885
#
# Compressibility (1/GPa) = 0.01847659
#
# Stress axis : x y z
#
# Youngs Moduli (GPa) = -37.63996 -37.63693 131.97324
#
# Poissons Ratio (x) = 1.39225 0.32822
# Poissons Ratio (y) = 1.39237 0.32814
# Poissons Ratio (z) = -0.09361 -0.09358
#
# Static dielectric constant tensor:
#      x y z
#    x 1.803070 0.000000 0.000000 
#    y 0.000000 1.803070 0.000000 
#    z 0.000000 0.000000 1.726090 
# 
# From -- ./inp_files/6127.got.cif
#   From: 2010.05.17/outbox.ucp.g08.bks.cvg/sg135_4_cif.got.tgz:6127.got - 2010.06.11 11:40:18.
