data_PCOD9569179
_publ_section_title
;
Structure prediction by ZEFSAII (Michael W. Deem and Ramdas Pophale) SiO2 
 PCOD9569179
Probable space group: P 42/M N M
;
_chemical_formula_sum "Si O2"
_cell_formula_units_Z 88
_cell_length_a 16.600848
_cell_length_b 16.600848
_cell_length_c 19.359000
_cell_angle_alpha 90.000000
_cell_angle_beta 90.000000
_cell_angle_gamma 90.000000
_cell_volume 5335.111079
_symmetry_space_group_name_H-M "P 42/M N M"
_symmetry_group_IT_number 136
_symmetry_cell_setting 'tetragonal'
loop_
_space_group_symop_operation_xyz
x,y,z
1/2-y,1/2+x,1/2+z
-x,-y,z
1/2+y,1/2-x,1/2+z
1/2+x,1/2-y,1/2-z
1/2-x,1/2+y,1/2-z
y,x,-z
-y,-x,-z
-x,-y,-z
1/2+y,1/2-x,1/2-z
x,y,-z
1/2-y,1/2+x,1/2-z
1/2-x,1/2+y,1/2+z
1/2+x,1/2-y,1/2+z
-y,-x,z
y,x,z
loop_
_atom_site_type_symbol
_atom_site_label
_atom_site_fract_x
_atom_site_fract_y
_atom_site_fract_z
Si Si1 0.922937 0.788477 0.281856
Si Si2 0.864605 0.998852 0.000000
Si Si3 0.280990 0.410834 0.845699
Si Si4 0.343819 0.211473 0.701138
Si Si5 0.751733 0.993379 0.134908
Si Si6 0.299180 0.169179 0.919158
O O1 0.862223 0.862223 0.290035
O O2 0.869758 0.707422 0.289643
O O3 0.964786 0.793611 0.206313
O O4 0.994555 0.788154 0.337004
O O5 0.811495 0.001912 0.069742
O O6 0.916662 0.916662 0.000000
O O7 0.927645 0.072356 0.000000
O O8 0.366750 0.366750 0.851266
O O9 0.238721 0.376378 0.776107
O O10 0.224197 0.376546 0.905542
O O11 0.281382 0.281382 0.677909
O O12 0.421699 0.209463 0.651828
O O13 0.695858 0.917276 0.116240
O O14 0.222387 0.222387 0.892171
O O15 0.286568 0.157029 0.000000
#
# Coordination Sequence:
#
# PCOD9569179 Si02
#       6
#    16   8  16  16  16  16
#     4  10  19  33  55  76 102 137 174 216 262 309
#     4  11  22  32  46  78 119 148 172 208 259 326
#     4   9  18  32  51  77 103 127 168 220 261 302
#     4   9  18  32  49  72 103 140 175 209 252 305
#     4  11  19  31  52  76 105 139 178 211 250 309
#     4  10  18  31  54  78 101 133 173 212 256 309
#
# _framework density 16.494503000000002
#
# number of rings (size 3 to 8) (size 9 to 14) (size 15 to 20)
#    0.000    2.091    2.727    2.182    0.000    1.091 
#    0.000    0.909    2.000    1.636    0.000    2.545 
#    0.000    0.000    0.000    0.000    0.000    0.000 
#
# Total GULP energy -490386.410391 kJ/mol
# GULP energy per Si atom -5572.572845 kJ/mol
# Density = 1.645696 g / cm^3
# Si number density = 16.494503 Si / 1000 Ang^3
#
#
#
# Elastic Constant Matrix: (Units=GPa)
#
#
# Indices 1 2 3 4 5 6 
#
# 1 100.2253 36.6063 20.7005 0.0000 0.0000 0.0000
# 2 36.6063 100.2256 20.7005 0.0000 0.0000 0.0000
# 3 20.7005 20.7005 41.0460 0.0000 0.0000 0.0000
# 4 0.0000 0.0000 0.0000 22.5017 0.0000 0.0000
# 5 0.0000 0.0000 0.0000 0.0000 22.5022 0.0000
# 6 0.0000 0.0000 0.0000 0.0000 0.0000 11.7156
#
#
#
# Elastic Compliance Matrix: (Units=1/GPa)
#
#
# Indices 1 2 3 4 5 6 
#
# 1 0.012171 -0.003547 -0.004349 0.000000 0.000000 0.000000
# 2 -0.003547 0.012171 -0.004349 0.000000 0.000000 0.000000
# 3 -0.004349 -0.004349 0.028750 0.000000 0.000000 0.000000
# 4 0.000000 0.000000 0.000000 0.044441 0.000000 0.000000
# 5 0.000000 0.000000 0.000000 0.000000 0.044440 0.000000
# 6 0.000000 0.000000 0.000000 0.000000 0.000000 0.085356
#
#
# Mechanical properties :
#
#
# Convention : Reuss Voigt Hill
#
# Bulk Modulus (GPa) = 34.96409 44.16796 39.56603
# Shear Modulus (GPa) = 19.13103 22.24322 20.68713
#
# Velocity S-wave (km/s) = 3.40934 3.67621 3.54529
# Velocity P-wave (km/s) = 6.06148 6.69738 6.38735
#
# Compressibility (1/GPa) = 0.02860077
#
# Stress axis : x y z
#
# Youngs Moduli (GPa) = 82.15980 82.16006 34.78265
#
# Poissons Ratio (x) = 0.29143 0.15128
# Poissons Ratio (y) = 0.29143 0.15128
# Poissons Ratio (z) = 0.35735 0.35735
#
# Static dielectric constant tensor:
#      x y z
#    x 1.556660 0.000000 0.000000 
#    y 0.000000 1.556660 0.000000 
#    z 0.000000 0.000000 1.560470 
# 
# From -- ./inp_files/7361.got.cif
#   From: 2010.05.17/outbox.cif.g08.bks.cpg/sg136_4_cif.got.tgz:7361.got - 2010.05.20 12:54:53.
