data_PCOD9569981
_publ_section_title
;
Structure prediction by ZEFSAII (Michael W. Deem and Ramdas Pophale) SiO2 
 PCOD9569981
Probable space group: P 42/N M C
;
_chemical_formula_sum "Si O2"
_cell_formula_units_Z 96
_cell_length_a 14.635006
_cell_length_b 14.635006
_cell_length_c 21.687920
_cell_angle_alpha 90.000000
_cell_angle_beta 90.000000
_cell_angle_gamma 90.000000
_cell_volume 4645.192458
_symmetry_space_group_name_H-M "P 42/N M C"
_symmetry_group_IT_number 137
_space_group.IT_coordinate_system_code '2'
_symmetry_cell_setting 'tetragonal'
loop_
_space_group_symop_operation_xyz
x,y,z
1/2-y,x,1/2+z
1/2-x,1/2-y,z
y,1/2-x,1/2+z
1/2+x,-y,-z
-x,1/2+y,-z
1/2+y,1/2+x,1/2-z
-y,-x,1/2-z
-x,-y,-z
1/2+y,-x,1/2-z
1/2+x,1/2+y,-z
-y,1/2+x,1/2-z
1/2-x,y,z
x,1/2-y,z
1/2-y,1/2-x,1/2+z
y,x,1/2+z
loop_
_atom_site_type_symbol
_atom_site_label
_atom_site_fract_x
_atom_site_fract_y
_atom_site_fract_z
Si Si1 0.852491 0.605492 0.858034
Si Si2 0.443213 0.856225 0.812554
Si Si3 0.468091 0.644095 0.575178
Si Si4 0.852423 0.958367 0.602368
Si Si5 0.347060 0.505560 0.265908
Si Si6 0.425155 0.853811 0.435404
O O1 0.750000 0.648371 0.870609
O O2 0.838646 0.552491 0.794719
O O3 0.867051 0.529587 0.911486
O O4 0.951481 0.648398 0.839688
O O5 0.415823 0.915823 0.750000
O O6 0.416056 0.750000 0.801593
O O7 0.391431 0.906325 0.868809
O O8 0.489361 0.750000 0.585706
O O9 0.563408 0.590011 0.569935
O O10 0.419883 0.636041 0.508913
O O11 0.750000 0.930761 0.583973
O O12 0.866412 0.942712 0.675298
O O13 0.865589 0.066863 0.594309
O O14 0.423360 0.576641 0.250000
O O15 0.250000 0.551566 0.279448
O O16 0.399725 0.750000 0.418105
#
# Coordination Sequence:
#
# PCOD9569981 Si02
#       6
#    16  16  16  16  16  16
#     4  10  20  38  65  93 128 165 204 256 320 394
#     4  12  26  44  69  96 126 169 224 281 332 383
#     4  11  24  43  64  88 127 172 216 270 331 383
#     4  11  22  36  61  93 125 162 208 254 310 383
#     4  10  18  30  51  80 115 155 192 233 290 358
#     4  10  21  39  63  91 126 169 213 261 321 396
#
# _framework density 20.666529000000001
#
# number of rings (size 3 to 8) (size 9 to 14) (size 15 to 20)
#    0.000    1.333    3.333    2.500    0.000    3.000 
#    0.000    3.333    0.000    8.000    0.000    0.000 
#    0.000    0.000    0.000    0.000    0.000    0.000 
#
# Total GULP energy -534409.580613 kJ/mol
# GULP energy per Si atom -5566.766465 kJ/mol
# Density = 2.061949 g / cm^3
# Si number density = 20.666529 Si / 1000 Ang^3
#
#
#
# Elastic Constant Matrix: (Units=GPa)
#
#
# Indices 1 2 3 4 5 6 
#
# 1 79.6484 19.2870 11.2104 0.0000 0.0000 0.0000
# 2 19.2870 79.6478 11.2103 0.0000 0.0000 0.0000
# 3 11.2104 11.2103 88.2061 0.0000 0.0000 0.0000
# 4 0.0000 0.0000 0.0000 17.8570 0.0000 0.0000
# 5 0.0000 0.0000 0.0000 0.0000 17.8532 0.0000
# 6 0.0000 0.0000 0.0000 0.0000 0.0000 4.0863
#
#
#
# Elastic Compliance Matrix: (Units=1/GPa)
#
#
# Indices 1 2 3 4 5 6 
#
# 1 0.013487 -0.003080 -0.001323 0.000000 0.000000 0.000000
# 2 -0.003080 0.013487 -0.001323 0.000000 0.000000 0.000000
# 3 -0.001323 -0.001323 0.011673 0.000000 0.000000 0.000000
# 4 0.000000 0.000000 0.000000 0.056001 0.000000 0.000000
# 5 0.000000 0.000000 0.000000 0.000000 0.056012 0.000000
# 6 0.000000 0.000000 0.000000 0.000000 0.000000 0.244719
#
#
# Mechanical properties :
#
#
# Convention : Reuss Voigt Hill
#
# Bulk Modulus (GPa) = 36.76839 36.76861 36.76850
# Shear Modulus (GPa) = 12.02225 21.67894 16.85060
#
# Velocity S-wave (km/s) = 2.41452 3.24232 2.85854
# Velocity P-wave (km/s) = 5.05995 5.64330 5.35957
#
# Compressibility (1/GPa) = 0.02719727
#
# Stress axis : x y z
#
# Youngs Moduli (GPa) = 74.14486 74.14430 85.66557
#
# Poissons Ratio (x) = 0.22835 0.11331
# Poissons Ratio (y) = 0.22835 0.11331
# Poissons Ratio (z) = 0.09807 0.09807
#
# Static dielectric constant tensor:
#      x y z
#    x 1.815740 0.000000 0.000000 
#    y 0.000000 1.815730 0.000000 
#    z 0.000000 0.000000 1.736950 
# 
# From -- ./inp_files/7796.got.cif
#   From: 2010.05.17/outbox.cif.g08.bks.cpg/sg137_4_cif.got.tgz:7796.got - 2010.05.20 13:01:12.
