data_PCOD9569790
_publ_section_title
;
Structure prediction by ZEFSAII (Michael W. Deem and Ramdas Pophale) SiO2 
 PCOD9569790
Probable space group: P 42/M N M
;
_chemical_formula_sum "Si O2"
_cell_formula_units_Z 38
_cell_length_a 11.617077
_cell_length_b 11.617077
_cell_length_c 14.028566
_cell_angle_alpha 90.000000
_cell_angle_beta 90.000000
_cell_angle_gamma 90.000000
_cell_volume 1893.245859
_symmetry_space_group_name_H-M "P 42/M N M"
_symmetry_group_IT_number 136
_symmetry_cell_setting 'tetragonal'
loop_
_space_group_symop_operation_xyz
x,y,z
1/2-y,1/2+x,1/2+z
-x,-y,z
1/2+y,1/2-x,1/2+z
1/2+x,1/2-y,1/2-z
1/2-x,1/2+y,1/2-z
y,x,-z
-y,-x,-z
-x,-y,-z
1/2+y,1/2-x,1/2-z
x,y,-z
1/2-y,1/2+x,1/2-z
1/2-x,1/2+y,1/2+z
1/2+x,1/2-y,1/2+z
-y,-x,z
y,x,z
loop_
_atom_site_type_symbol
_atom_site_label
_atom_site_fract_x
_atom_site_fract_y
_atom_site_fract_z
Si Si1 0.000000 0.000000 0.500000
Si Si2 0.708567 0.708567 0.500000
Si Si3 0.176297 0.473397 0.211034
Si Si4 0.017429 0.279374 0.500000
Si Si5 0.405079 0.405079 0.313777
O O1 0.998555 0.857795 0.500000
O O2 0.846395 0.691419 0.500000
O O3 0.651712 0.651712 0.406897
O O4 0.122939 0.595389 0.241989
O O5 0.172709 0.464184 0.097268
O O6 0.304664 0.461248 0.250067
O O7 0.500000 0.500000 0.338584
#
# Coordination Sequence:
#
# PCOD9569790 Si02
#       5
#     2   4  16   8   8
#     4  10  24  40  70 104 126 192 230 284 332 414
#     4  11  23  47  71 100 148 178 235 291 361 409
#     4  11  26  45  72 104 141 186 232 293 352 420
#     4  11  23  45  70 100 142 183 239 287 347 419
#     4  12  27  44  74 105 141 184 235 292 349 424
#
# _framework density 20.071349999999999
#
# number of rings (size 3 to 8) (size 9 to 14) (size 15 to 20)
#    0.000    0.842    4.211    1.579   11.789    5.053 
#    0.000    0.000    0.000    0.000    0.000    0.000 
#    0.000    0.000    0.000    0.000    0.000    0.000 
#
# Total GULP energy -212085.457087 kJ/mol
# GULP energy per Si atom -5581.196239 kJ/mol
# Density = 2.002567 g / cm^3
# Si number density = 20.071350 Si / 1000 Ang^3
#
#
#
# Elastic Constant Matrix: (Units=GPa)
#
#
# Indices 1 2 3 4 5 6 
#
# 1 63.6516 70.6003 26.3061 0.0000 0.0000 0.0000
# 2 70.6003 63.6516 26.3061 0.0000 0.0000 0.0000
# 3 26.3061 26.3061 171.5262 0.0000 0.0000 0.0000
# 4 0.0000 0.0000 0.0000 16.3928 0.0000 0.0000
# 5 0.0000 0.0000 0.0000 0.0000 16.3928 0.0000
# 6 0.0000 0.0000 0.0000 0.0000 0.0000 29.9130
#
#
#
# Elastic Compliance Matrix: (Units=1/GPa)
#
#
# Indices 1 2 3 4 5 6 
#
# 1 -0.067993 0.075918 -0.001215 0.000000 0.000000 0.000000
# 2 0.075918 -0.067993 -0.001215 0.000000 0.000000 0.000000
# 3 -0.001215 -0.001215 0.006203 0.000000 0.000000 0.000000
# 4 0.000000 0.000000 0.000000 0.061003 0.000000 0.000000
# 5 0.000000 0.000000 0.000000 0.000000 0.061003 0.000000
# 6 0.000000 0.000000 0.000000 0.000000 0.000000 0.033430
#
#
# Mechanical properties :
#
#
# Convention : Reuss Voigt Hill
#
# Bulk Modulus (GPa) = 58.16949 60.58384 59.37667
# Shear Modulus (GPa) = -43.25564 24.24748 -9.50408
#
# Velocity S-wave (km/s) = -4.64733 3.47949 -2.17840
# Velocity P-wave (km/s) = 0.49730 6.81119 4.82906
#
# Compressibility (1/GPa) = 0.01719114
#
# Stress axis : x y z
#
# Youngs Moduli (GPa) = -14.70739 -14.70739 161.21703
#
# Poissons Ratio (x) = 1.11656 0.19595
# Poissons Ratio (y) = 1.11656 0.19595
# Poissons Ratio (z) = -0.01788 -0.01788
#
# Static dielectric constant tensor:
#      x y z
#    x 1.681950 0.000000 0.000000 
#    y 0.000000 1.681950 0.000000 
#    z 0.000000 0.000000 1.708870 
# 
# From -- ./inp_files/4427.got.cif
#   From: 2010.05.17/outbox.cif.g08.bks.cpg/sg136_3_cif.got.tgz:4427.got - 2010.05.20 12:54:53.
