data_PCOD9569015
_publ_section_title
;
Structure prediction by ZEFSAII (Michael W. Deem and Ramdas Pophale) SiO2 
 PCOD9569015
Probable space group: P 42/M B C
;
_chemical_formula_sum "Si O2"
_cell_formula_units_Z 64
_cell_length_a 12.737406
_cell_length_b 12.737406
_cell_length_c 18.018670
_cell_angle_alpha 90.000000
_cell_angle_beta 90.000000
_cell_angle_gamma 90.000000
_cell_volume 2923.376258
_symmetry_space_group_name_H-M "P 42/M B C"
_symmetry_group_IT_number 135
_symmetry_cell_setting 'tetragonal'
loop_
_space_group_symop_operation_xyz
x,y,z
-y,x,1/2+z
-x,-y,z
y,-x,1/2+z
1/2+x,1/2-y,-z
1/2-x,1/2+y,-z
1/2+y,1/2+x,1/2-z
1/2-y,1/2-x,1/2-z
-x,-y,-z
y,-x,1/2-z
x,y,-z
-y,x,1/2-z
1/2-x,1/2+y,z
1/2+x,1/2-y,z
1/2-y,1/2-x,1/2+z
1/2+y,1/2+x,1/2+z
loop_
_atom_site_type_symbol
_atom_site_label
_atom_site_fract_x
_atom_site_fract_y
_atom_site_fract_z
Si Si1 0.069030 0.757868 0.334846
Si Si2 0.921801 0.901490 0.580718
Si Si3 0.461236 0.717002 0.818543
Si Si4 0.115776 0.545733 0.586321
O O1 0.998237 0.743224 0.261484
O O2 0.121784 0.652077 0.364712
O O3 0.990203 0.801518 0.397612
O O4 0.150120 0.853949 0.318691
O O5 0.870524 0.887283 0.500000
O O6 0.850932 0.941225 0.648336
O O7 0.000000 0.000000 0.573998
O O8 0.457853 0.809304 0.878282
O O9 0.138504 0.566231 0.500000
O O10 0.000000 0.500000 0.591702
#
# Coordination Sequence:
#
# PCOD9569015 Si02
#       4
#    16  16  16  16
#     4  11  22  41  70 102 136 178 226 290 354 420
#     4   9  18  33  60  96 130 168 218 278 337 400
#     4  11  22  41  70  99 137 177 230 287 347 420
#     4  11  27  48  66  95 142 189 236 289 349 420
#
# _framework density 21.892496999999999
#
# number of rings (size 3 to 8) (size 9 to 14) (size 15 to 20)
#    0.000    1.500    2.500    2.250    0.000    7.000 
#    4.500    2.500    0.000    0.000    0.000    0.000 
#    0.000    0.000    0.000    0.000    0.000    0.000 
#
# Total GULP energy -357343.887477 kJ/mol
# GULP energy per Si atom -5583.498242 kJ/mol
# Density = 2.184267 g / cm^3
# Si number density = 21.892497 Si / 1000 Ang^3
#
#
#
# Elastic Constant Matrix: (Units=GPa)
#
#
# Indices 1 2 3 4 5 6 
#
# 1 69.8152 16.3227 26.8104 0.0000 0.0000 0.0000
# 2 16.3227 69.8152 26.8104 0.0000 0.0000 0.0000
# 3 26.8104 26.8104 128.5117 0.0000 0.0000 0.0000
# 4 0.0000 0.0000 0.0000 -30.4338 0.0000 0.0000
# 5 0.0000 0.0000 0.0000 0.0000 -30.4338 0.0000
# 6 0.0000 0.0000 0.0000 0.0000 0.0000 23.8041
#
#
#
# Elastic Compliance Matrix: (Units=1/GPa)
#
#
# Indices 1 2 3 4 5 6 
#
# 1 0.016018 -0.002676 -0.002783 0.000000 0.000000 0.000000
# 2 -0.002676 0.016018 -0.002783 0.000000 0.000000 0.000000
# 3 -0.002783 -0.002783 0.008943 0.000000 0.000000 0.000000
# 4 0.000000 0.000000 0.000000 -0.032858 0.000000 0.000000
# 5 0.000000 0.000000 0.000000 0.000000 -0.032858 0.000000
# 6 0.000000 0.000000 0.000000 0.000000 0.000000 0.042010
#
#
# Mechanical properties :
#
#
# Convention : Reuss Voigt Hill
#
# Bulk Modulus (GPa) = 40.82799 45.33656 43.08227
# Shear Modulus (GPa) = 119.26777 5.80054 62.53415
#
# Velocity S-wave (km/s) = 7.38899 1.62951 5.35035
# Velocity P-wave (km/s) = 9.56483 4.92890 7.60855
#
# Compressibility (1/GPa) = 0.02449300
#
# Stress axis : x y z
#
# Youngs Moduli (GPa) = 62.42937 62.42937 111.82222
#
# Poissons Ratio (x) = 0.16707 0.31125
# Poissons Ratio (y) = 0.16707 0.31125
# Poissons Ratio (z) = 0.17377 0.17377
#
# Static dielectric constant tensor:
#      x y z
#    x 1.840940 0.000000 0.000000 
#    y 0.000000 1.840940 0.000000 
#    z 0.000000 0.000000 1.788820 
# 
# From -- ./inp_files/3161.got.cif
#   From: 2010.05.17/outbox.cif.g08.bks.cpg/sg135_2_cif.got.tgz:3161.got - 2010.05.20 12:50:20.
