data_PCOD9569707
_publ_section_title
;
Structure prediction by ZEFSAII (Michael W. Deem and Ramdas Pophale) SiO2 
 PCOD9569707
Probable space group: P 42/M N M
;
_chemical_formula_sum "Si O2"
_cell_formula_units_Z 72
_cell_length_a 14.654286
_cell_length_b 14.654286
_cell_length_c 17.306896
_cell_angle_alpha 90.000000
_cell_angle_beta 90.000000
_cell_angle_gamma 90.000000
_cell_volume 3716.623001
_symmetry_space_group_name_H-M "P 42/M N M"
_symmetry_group_IT_number 136
_symmetry_cell_setting 'tetragonal'
loop_
_space_group_symop_operation_xyz
x,y,z
1/2-y,1/2+x,1/2+z
-x,-y,z
1/2+y,1/2-x,1/2+z
1/2+x,1/2-y,1/2-z
1/2-x,1/2+y,1/2-z
y,x,-z
-y,-x,-z
-x,-y,-z
1/2+y,1/2-x,1/2-z
x,y,-z
1/2-y,1/2+x,1/2-z
1/2-x,1/2+y,1/2+z
1/2+x,1/2-y,1/2+z
-y,-x,z
y,x,z
loop_
_atom_site_type_symbol
_atom_site_label
_atom_site_fract_x
_atom_site_fract_y
_atom_site_fract_z
Si Si1 0.688366 0.534396 0.700355
Si Si2 0.207846 0.363447 0.914791
Si Si3 0.420900 0.579101 0.587809
Si Si4 0.075766 0.623993 0.260720
Si Si5 0.352463 0.507652 0.875061
O O1 0.616180 0.616180 0.693991
O O2 0.664178 0.463180 0.633693
O O3 0.788348 0.577079 0.705710
O O4 0.669146 0.488195 0.783637
O O5 0.281543 0.281543 0.904756
O O6 0.144328 0.370111 0.839682
O O7 0.265859 0.458427 0.912636
O O8 0.165730 0.353639 0.000000
O O9 0.500000 0.500000 0.588775
O O10 0.398943 0.601058 0.500000
O O11 0.109586 0.531518 0.221845
O O12 0.396865 0.603136 0.901197
O O13 0.432495 0.432495 0.884670
#
# Coordination Sequence:
#
# PCOD9569707 Si02
#       5
#    16  16   8  16  16
#     4   9  16  31  52  76 105 137 178 224 272 322
#     4   9  18  34  56  81 108 136 176 236 289 324
#     4   9  16  28  50  80 113 143 173 220 278 329
#     4  10  21  38  55  75 106 148 191 223 267 336
#     4   8  12  21  42  71 100 131 160 197 260 331
#
# _framework density 19.372425
#
# number of rings (size 3 to 8) (size 9 to 14) (size 15 to 20)
#    0.000    3.000    1.111    2.000    0.000    0.444 
#    4.000    6.667    0.000    0.000    0.000    0.000 
#    0.000    0.000    0.000    0.000    0.000    0.000 
#
# Total GULP energy -401132.380753 kJ/mol
# GULP energy per Si atom -5571.283066 kJ/mol
# Density = 1.932833 g / cm^3
# Si number density = 19.372425 Si / 1000 Ang^3
#
#
#
# Elastic Constant Matrix: (Units=GPa)
#
#
# Indices 1 2 3 4 5 6 
#
# 1 55.4057 3.5992 27.3525 0.0000 0.0000 0.0000
# 2 3.5992 55.4057 27.3525 0.0000 0.0000 0.0000
# 3 27.3525 27.3525 114.9423 0.0000 0.0000 0.0000
# 4 0.0000 0.0000 0.0000 2.5025 0.0000 0.0000
# 5 0.0000 0.0000 0.0000 0.0000 2.5028 0.0000
# 6 0.0000 0.0000 0.0000 0.0000 0.0000 13.0147
#
#
#
# Elastic Compliance Matrix: (Units=1/GPa)
#
#
# Indices 1 2 3 4 5 6 
#
# 1 0.020524 0.001221 -0.005175 0.000000 0.000000 0.000000
# 2 0.001221 0.020524 -0.005175 0.000000 0.000000 0.000000
# 3 -0.005175 -0.005175 0.011163 0.000000 0.000000 0.000000
# 4 0.000000 0.000000 0.000000 0.399603 0.000000 0.000000
# 5 0.000000 0.000000 0.000000 0.000000 0.399557 0.000000
# 6 0.000000 0.000000 0.000000 0.000000 0.000000 0.076836
#
#
# Mechanical properties :
#
#
# Convention : Reuss Voigt Hill
#
# Bulk Modulus (GPa) = 29.45094 38.04022 33.74558
# Shear Modulus (GPa) = 5.22040 14.76729 9.99385
#
# Velocity S-wave (km/s) = 1.64335 2.76394 2.27376
# Velocity P-wave (km/s) = 4.34008 5.46487 4.93463
#
# Compressibility (1/GPa) = 0.03395477
#
# Stress axis : x y z
#
# Youngs Moduli (GPa) = 48.72353 48.72356 89.58315
#
# Poissons Ratio (x) = -0.05951 0.46356
# Poissons Ratio (y) = -0.05951 0.46356
# Poissons Ratio (z) = 0.25213 0.25213
#
# Static dielectric constant tensor:
#      x y z
#    x 1.710440 0.000000 0.000000 
#    y 0.000000 1.710440 0.000000 
#    z 0.000000 0.000000 1.680390 
# 
# From -- ./inp_files/6036.got.cif
#   From: 2010.05.17/outbox.cif.g08.bks.cpg/sg136_4_cif.got.tgz:6036.got - 2010.05.20 12:54:53.
