data_PCOD9569742
_publ_section_title
;
Structure prediction by ZEFSAII (Michael W. Deem and Ramdas Pophale) SiO2 
 PCOD9569742
Probable space group: P 42/M N M
;
_chemical_formula_sum "Si O2"
_cell_formula_units_Z 96
_cell_length_a 24.058916
_cell_length_b 24.058916
_cell_length_c 8.897099
_cell_angle_alpha 90.000000
_cell_angle_beta 90.000000
_cell_angle_gamma 90.000000
_cell_volume 5149.920618
_symmetry_space_group_name_H-M "P 42/M N M"
_symmetry_group_IT_number 136
_symmetry_cell_setting 'tetragonal'
loop_
_space_group_symop_operation_xyz
x,y,z
1/2-y,1/2+x,1/2+z
-x,-y,z
1/2+y,1/2-x,1/2+z
1/2+x,1/2-y,1/2-z
1/2-x,1/2+y,1/2-z
y,x,-z
-y,-x,-z
-x,-y,-z
1/2+y,1/2-x,1/2-z
x,y,-z
1/2-y,1/2+x,1/2-z
1/2-x,1/2+y,1/2+z
1/2+x,1/2-y,1/2+z
-y,-x,z
y,x,z
loop_
_atom_site_type_symbol
_atom_site_label
_atom_site_fract_x
_atom_site_fract_y
_atom_site_fract_z
Si Si1 0.731188 0.483096 0.822531
Si Si2 0.898518 0.600216 0.667979
Si Si3 0.669553 0.789173 0.672376
Si Si4 0.508010 0.156162 0.328236
Si Si5 0.730636 0.360222 0.677719
Si Si6 0.101233 0.811197 0.319029
O O1 0.793864 0.502036 0.785293
O O2 0.726408 0.422417 0.745336
O O3 0.695343 0.536753 0.770183
O O4 0.722919 0.475319 0.000000
O O5 0.921639 0.611540 0.500000
O O6 0.835820 0.621848 0.667970
O O7 0.893782 0.535043 0.694280
O O8 0.931733 0.632723 0.792741
O O9 0.683981 0.775456 0.500000
O O10 0.721616 0.820913 0.748941
O O11 0.642119 0.736359 0.753216
O O12 0.502710 0.175685 0.500000
O O13 0.742181 0.364533 0.500000
O O14 0.673142 0.326859 0.699085
O O15 0.101274 0.804657 0.500000
O O16 0.130135 0.869866 0.281865
#
# Coordination Sequence:
#
# PCOD9569742 Si02
#       6
#    16  16  16  16  16  16
#     4  11  22  37  60  85 112 147 186 231 279 335
#     4  10  22  37  53  79 112 147 193 240 281 328
#     4  11  21  35  57  87 120 152 188 232 281 334
#     4  11  22  37  57  78 108 150 193 237 282 332
#     4  11  24  40  59  85 117 151 188 231 282 340
#     4  10  22  39  59  86 119 153 189 230 281 339
#
# _framework density 18.641065000000001
#
# number of rings (size 3 to 8) (size 9 to 14) (size 15 to 20)
#    0.000    1.333    3.333    2.500    0.000    6.667 
#    0.000    1.667    0.000    0.500    0.000    3.500 
#    0.000    0.000    0.000    0.000    0.000    0.000 
#
# Total GULP energy -535447.393040 kJ/mol
# GULP energy per Si atom -5577.577011 kJ/mol
# Density = 1.859864 g / cm^3
# Si number density = 18.641065 Si / 1000 Ang^3
#
#
#
# Elastic Constant Matrix: (Units=GPa)
#
#
# Indices 1 2 3 4 5 6 
#
# 1 59.1655 43.0296 28.9131 0.0000 0.0000 0.0000
# 2 43.0296 59.1655 28.9131 0.0000 0.0000 0.0000
# 3 28.9131 28.9131 54.6202 0.0000 0.0000 0.0000
# 4 0.0000 0.0000 0.0000 7.7139 0.0000 0.0000
# 5 0.0000 0.0000 0.0000 0.0000 7.7139 0.0000
# 6 0.0000 0.0000 0.0000 0.0000 0.0000 22.8831
#
#
#
# Elastic Compliance Matrix: (Units=1/GPa)
#
#
# Indices 1 2 3 4 5 6 
#
# 1 0.037972 -0.024002 -0.007395 0.000000 0.000000 0.000000
# 2 -0.024002 0.037972 -0.007395 0.000000 0.000000 0.000000
# 3 -0.007395 -0.007395 0.026137 0.000000 0.000000 0.000000
# 4 0.000000 0.000000 0.000000 0.129636 0.000000 0.000000
# 5 0.000000 0.000000 0.000000 0.000000 0.129636 0.000000
# 6 0.000000 0.000000 0.000000 0.000000 0.000000 0.043700
#
#
# Mechanical properties :
#
#
# Convention : Reuss Voigt Hill
#
# Bulk Modulus (GPa) = 40.82120 41.62918 41.22519
# Shear Modulus (GPa) = 10.18744 12.46856 11.32800
#
# Velocity S-wave (km/s) = 2.34028 2.58907 2.46781
# Velocity P-wave (km/s) = 5.40820 5.59626 5.50304
#
# Compressibility (1/GPa) = 0.02449708
#
# Stress axis : x y z
#
# Youngs Moduli (GPa) = 26.33553 26.33553 38.26000
#
# Poissons Ratio (x) = 0.63211 0.28292
# Poissons Ratio (y) = 0.63211 0.28292
# Poissons Ratio (z) = 0.19474 0.19474
#
# Static dielectric constant tensor:
#      x y z
#    x 1.666890 0.000000 0.000000 
#    y 0.000000 1.666890 0.000000 
#    z 0.000000 0.000000 1.646380 
# 
# From -- ./inp_files/1936.got.cif
#   From: 2010.05.17/outbox.cif.g08.bks.cpg/sg136_1_cif.got.tgz:1936.got - 2010.05.20 12:54:53.
