data_PCOD9569701
_publ_section_title
;
Structure prediction by ZEFSAII (Michael W. Deem and Ramdas Pophale) SiO2 
 PCOD9569701
Probable space group: P 42/M N M
;
_chemical_formula_sum "Si O2"
_cell_formula_units_Z 40
_cell_length_a 13.341484
_cell_length_b 13.341484
_cell_length_c 13.604885
_cell_angle_alpha 90.000000
_cell_angle_beta 90.000000
_cell_angle_gamma 90.000000
_cell_volume 2421.604163
_symmetry_space_group_name_H-M "P 42/M N M"
_symmetry_group_IT_number 136
_symmetry_cell_setting 'tetragonal'
loop_
_space_group_symop_operation_xyz
x,y,z
1/2-y,1/2+x,1/2+z
-x,-y,z
1/2+y,1/2-x,1/2+z
1/2+x,1/2-y,1/2-z
1/2-x,1/2+y,1/2-z
y,x,-z
-y,-x,-z
-x,-y,-z
1/2+y,1/2-x,1/2-z
x,y,-z
1/2-y,1/2+x,1/2-z
1/2-x,1/2+y,1/2+z
1/2+x,1/2-y,1/2+z
-y,-x,z
y,x,z
loop_
_atom_site_type_symbol
_atom_site_label
_atom_site_fract_x
_atom_site_fract_y
_atom_site_fract_z
Si Si1 0.119822 0.278822 0.276132
Si Si2 0.982865 0.380394 0.885912
Si Si3 0.583213 0.416788 0.882441
O O1 0.221688 0.221688 0.246583
O O2 0.140654 0.370721 0.348725
O O3 0.059200 0.322044 0.184396
O O4 0.059210 0.191584 0.334303
O O5 0.000000 0.500000 0.874574
O O6 0.995774 0.354755 0.000000
O O7 0.500000 0.500000 0.860000
O O8 0.592241 0.407760 0.000000
#
# Coordination Sequence:
#
# PCOD9569701 Si02
#       3
#    16  16   8
#     4  10  21  37  59  87 117 154 193 238 294 347
#     4  11  21  39  62  85 116 155 199 245 291 351
#     4   9  20  38  59  87 118 148 190 237 289 347
#
# _framework density 16.517976000000001
#
# number of rings (size 3 to 8) (size 9 to 14) (size 15 to 20)
#    1.200    0.600    4.000    1.200    0.000    2.400 
#    0.000    0.000    0.000    1.200    0.000    0.000 
#    0.000    0.000    0.000    0.000    0.000    0.000 
#
# Total GULP energy -222790.244264 kJ/mol
# GULP energy per Si atom -5569.756107 kJ/mol
# Density = 1.648038 g / cm^3
# Si number density = 16.517976 Si / 1000 Ang^3
#
#
#
# Elastic Constant Matrix: (Units=GPa)
#
#
# Indices 1 2 3 4 5 6 
#
# 1 90.0147 34.2851 51.7864 0.0000 0.0000 0.0000
# 2 34.2851 90.0145 51.7862 0.0000 0.0000 0.0000
# 3 51.7864 51.7862 142.5405 0.0000 0.0000 0.0000
# 4 0.0000 0.0000 0.0000 20.5054 0.0000 0.0000
# 5 0.0000 0.0000 0.0000 0.0000 20.5054 0.0000
# 6 0.0000 0.0000 0.0000 0.0000 0.0000 40.0650
#
#
#
# Elastic Compliance Matrix: (Units=1/GPa)
#
#
# Indices 1 2 3 4 5 6 
#
# 1 0.014741 -0.003203 -0.004192 0.000000 0.000000 0.000000
# 2 -0.003203 0.014741 -0.004192 0.000000 0.000000 0.000000
# 3 -0.004192 -0.004192 0.010061 0.000000 0.000000 0.000000
# 4 0.000000 0.000000 0.000000 0.048768 0.000000 0.000000
# 5 0.000000 0.000000 0.000000 0.000000 0.048768 0.000000
# 6 0.000000 0.000000 0.000000 0.000000 0.000000 0.024959
#
#
# Mechanical properties :
#
#
# Convention : Reuss Voigt Hill
#
# Bulk Modulus (GPa) = 61.08770 66.47612 63.78191
# Shear Modulus (GPa) = 26.22360 28.52927 27.37644
#
# Velocity S-wave (km/s) = 3.98877 4.16043 4.07550
# Velocity P-wave (km/s) = 7.63391 7.96310 7.80024
#
# Compressibility (1/GPa) = 0.01636991
#
# Stress axis : x y z
#
# Youngs Moduli (GPa) = 67.83868 67.83859 99.38961
#
# Poissons Ratio (x) = 0.21728 0.41663
# Poissons Ratio (y) = 0.21728 0.41662
# Poissons Ratio (z) = 0.28437 0.28437
#
# Static dielectric constant tensor:
#      x y z
#    x 1.549250 0.000000 0.000000 
#    y 0.000000 1.549250 0.000000 
#    z 0.000000 0.000000 1.540560 
# 
# From -- ./inp_files/4374.got.cif
#   From: 2010.05.17/outbox.cif.g08.bks.cpg/sg136_3_cif.got.tgz:4374.got - 2010.05.20 12:54:53.
