data_PCOD9569577
_publ_section_title
;
Structure prediction by ZEFSAII (Michael W. Deem and Ramdas Pophale) SiO2 
 PCOD9569577
Probable space group: P 42/M N M
;
_chemical_formula_sum "Si O2"
_cell_formula_units_Z 72
_cell_length_a 17.032068
_cell_length_b 17.032068
_cell_length_c 12.994077
_cell_angle_alpha 90.000000
_cell_angle_beta 90.000000
_cell_angle_gamma 90.000000
_cell_volume 3769.469214
_symmetry_space_group_name_H-M "P 42/M N M"
_symmetry_group_IT_number 136
_symmetry_cell_setting 'tetragonal'
loop_
_space_group_symop_operation_xyz
x,y,z
1/2-y,1/2+x,1/2+z
-x,-y,z
1/2+y,1/2-x,1/2+z
1/2+x,1/2-y,1/2-z
1/2-x,1/2+y,1/2-z
y,x,-z
-y,-x,-z
-x,-y,-z
1/2+y,1/2-x,1/2-z
x,y,-z
1/2-y,1/2+x,1/2-z
1/2-x,1/2+y,1/2+z
1/2+x,1/2-y,1/2+z
-y,-x,z
y,x,z
loop_
_atom_site_type_symbol
_atom_site_label
_atom_site_fract_x
_atom_site_fract_y
_atom_site_fract_z
Si Si1 0.309444 0.814776 0.876315
Si Si2 0.626856 0.505334 0.000000
Si Si3 0.235774 0.033579 0.312311
Si Si4 0.997323 0.131682 0.881597
Si Si5 0.381391 0.956383 0.248407
O O1 0.224467 0.775534 0.851672
O O2 0.375763 0.757118 0.829945
O O3 0.336035 0.898411 0.829616
O O4 0.315990 0.816601 0.000000
O O5 0.675306 0.491069 0.101825
O O6 0.591064 0.591064 0.000000
O O7 0.557575 0.442426 0.000000
O O8 0.198292 0.015663 0.201245
O O9 0.315260 0.983715 0.327819
O O10 0.918548 0.081453 0.857978
O O11 0.990923 0.160027 0.000000
O O12 0.068161 0.068161 0.877672
O O13 0.458884 0.913002 0.292119
#
# Coordination Sequence:
#
# PCOD9569577 Si02
#       5
#    16   8  16  16  16
#     4  10  20  36  61  90 115 148 198 255 308 360
#     4  11  22  34  54  87 124 164 203 244 306 378
#     4  11  20  35  57  84 119 157 198 251 302 364
#     4   9  18  32  52  81 119 162 204 248 300 359
#     4   9  21  41  58  82 115 158 206 248 302 362
#
# _framework density 19.100830999999999
#
# number of rings (size 3 to 8) (size 9 to 14) (size 15 to 20)
#    0.000    2.111    1.111    3.333    0.000    4.444 
#    2.000    4.444    2.444    0.000    0.000    0.000 
#    0.000    0.000    0.000    0.000    0.000    0.000 
#
# Total GULP energy -401256.194480 kJ/mol
# GULP energy per Si atom -5573.002701 kJ/mol
# Density = 1.905736 g / cm^3
# Si number density = 19.100831 Si / 1000 Ang^3
#
#
#
# Elastic Constant Matrix: (Units=GPa)
#
#
# Indices 1 2 3 4 5 6 
#
# 1 101.4953 50.9791 36.2325 0.0000 0.0000 0.0000
# 2 50.9791 101.4947 36.2323 0.0000 0.0000 0.0000
# 3 36.2325 36.2323 61.5939 0.0000 0.0000 0.0000
# 4 0.0000 0.0000 0.0000 106.4782 0.0000 0.0000
# 5 0.0000 0.0000 0.0000 0.0000 106.7893 0.0000
# 6 0.0000 0.0000 0.0000 0.0000 0.0000 34.5150
#
#
#
# Elastic Compliance Matrix: (Units=1/GPa)
#
#
# Indices 1 2 3 4 5 6 
#
# 1 0.014450 -0.005346 -0.005355 0.000000 0.000000 0.000000
# 2 -0.005346 0.014450 -0.005355 0.000000 0.000000 0.000000
# 3 -0.005355 -0.005355 0.022536 0.000000 0.000000 0.000000
# 4 0.000000 0.000000 0.000000 0.009392 0.000000 0.000000
# 5 0.000000 0.000000 0.000000 0.000000 0.009364 0.000000
# 6 0.000000 0.000000 0.000000 0.000000 0.000000 0.028973
#
#
# Mechanical properties :
#
#
# Convention : Reuss Voigt Hill
#
# Bulk Modulus (GPa) = 51.75389 56.83021 54.29205
# Shear Modulus (GPa) = 36.30626 58.96582 47.63604
#
# Velocity S-wave (km/s) = 4.36451 5.56218 4.99934
# Velocity P-wave (km/s) = 7.24931 8.43017 7.86194
#
# Compressibility (1/GPa) = 0.01932222
#
# Stress axis : x y z
#
# Youngs Moduli (GPa) = 69.20589 69.20556 44.37412
#
# Poissons Ratio (x) = 0.36998 0.23763
# Poissons Ratio (y) = 0.36998 0.23763
# Poissons Ratio (z) = 0.37061 0.37061
#
# Static dielectric constant tensor:
#      x y z
#    x 1.703080 0.000000 0.000000 
#    y 0.000000 1.703080 0.000000 
#    z 0.000000 0.000000 1.603160 
# 
# From -- ./inp_files/3466.got.cif
#   From: 2010.05.17/outbox.cif.g08.bks.cpg/sg136_2_cif.got.tgz:3466.got - 2010.05.20 12:54:53.
