data_PCOD9569638
_publ_section_title
;
Structure prediction by ZEFSAII (Michael W. Deem and Ramdas Pophale) SiO2 
 PCOD9569638
Probable space group: P 42/M N M
;
_chemical_formula_sum "Si O2"
_cell_formula_units_Z 80
_cell_length_a 11.947430
_cell_length_b 11.947430
_cell_length_c 30.032131
_cell_angle_alpha 90.000000
_cell_angle_beta 90.000000
_cell_angle_gamma 90.000000
_cell_volume 4286.818922
_symmetry_space_group_name_H-M "P 42/M N M"
_symmetry_group_IT_number 136
_symmetry_cell_setting 'tetragonal'
loop_
_space_group_symop_operation_xyz
x,y,z
1/2-y,1/2+x,1/2+z
-x,-y,z
1/2+y,1/2-x,1/2+z
1/2+x,1/2-y,1/2-z
1/2-x,1/2+y,1/2-z
y,x,-z
-y,-x,-z
-x,-y,-z
1/2+y,1/2-x,1/2-z
x,y,-z
1/2-y,1/2+x,1/2-z
1/2-x,1/2+y,1/2+z
1/2+x,1/2-y,1/2+z
-y,-x,z
y,x,z
loop_
_atom_site_type_symbol
_atom_site_label
_atom_site_fract_x
_atom_site_fract_y
_atom_site_fract_z
Si Si1 0.993062 0.816736 0.552299
Si Si2 0.919468 0.399363 0.604924
Si Si3 0.790864 0.973786 0.773370
Si Si4 0.379062 0.204048 0.195864
Si Si5 0.507992 0.683185 0.374395
O O1 0.976477 0.791622 0.500000
O O2 0.877814 0.877814 0.568896
O O3 0.043618 0.708329 0.576439
O O4 0.087747 0.912254 0.555644
O O5 0.938483 0.360270 0.656068
O O6 0.793400 0.452029 0.603573
O O7 0.000000 0.500000 0.592675
O O8 0.905502 0.905502 0.770393
O O9 0.690566 0.884637 0.775468
O O10 0.788201 0.030006 0.822186
O O11 0.772045 0.047279 0.730302
O O12 0.287443 0.287443 0.174268
O O13 0.410532 0.589469 0.374701
O O14 0.619990 0.619990 0.392159
#
# Coordination Sequence:
#
# PCOD9569638 Si02
#       5
#    16  16  16  16  16
#     4   9  19  39  66  89 112 147 186 226 277 340
#     4  11  23  35  53  85 116 146 178 229 284 343
#     4   9  19  32  49  71  97 140 189 236 284 329
#     4  10  21  34  49  72 104 142 185 231 275 326
#     4   9  18  35  56  74 101 145 194 236 275 331
#
# _framework density 18.661857999999999
#
# number of rings (size 3 to 8) (size 9 to 14) (size 15 to 20)
#    0.000    2.400    0.000    4.200    5.600    3.200 
#    0.000    0.000    0.000    0.600    0.000    2.800 
#    0.000    0.000    0.000    0.000    0.000    0.000 
#
# Total GULP energy -445479.648647 kJ/mol
# GULP energy per Si atom -5568.495608 kJ/mol
# Density = 1.861938 g / cm^3
# Si number density = 18.661858 Si / 1000 Ang^3
#
#
#
# Elastic Constant Matrix: (Units=GPa)
#
#
# Indices 1 2 3 4 5 6 
#
# 1 106.3043 46.9020 38.5430 0.0000 0.0000 0.0000
# 2 46.9020 106.3043 38.5430 0.0000 0.0000 0.0000
# 3 38.5430 38.5430 39.4169 0.0000 0.0000 0.0000
# 4 0.0000 0.0000 0.0000 -17.5325 0.0000 0.0000
# 5 0.0000 0.0000 0.0000 0.0000 -17.5325 0.0000
# 6 0.0000 0.0000 0.0000 0.0000 0.0000 28.2358
#
#
#
# Elastic Compliance Matrix: (Units=1/GPa)
#
#
# Indices 1 2 3 4 5 6 
#
# 1 0.014841 -0.001993 -0.012564 0.000000 0.000000 0.000000
# 2 -0.001993 0.014841 -0.012564 0.000000 0.000000 0.000000
# 3 -0.012564 -0.012564 0.049940 0.000000 0.000000 0.000000
# 4 0.000000 0.000000 0.000000 -0.057037 0.000000 0.000000
# 5 0.000000 0.000000 0.000000 0.000000 -0.057037 0.000000
# 6 0.000000 0.000000 0.000000 0.000000 0.000000 0.035416
#
#
# Mechanical properties :
#
#
# Convention : Reuss Voigt Hill
#
# Bulk Modulus (GPa) = 39.39727 55.55574 47.47650
# Shear Modulus (GPa) = 78.53394 7.17001 42.85198
#
# Velocity S-wave (km/s) = 6.49415 1.96225 4.79710
# Velocity P-wave (km/s) = 8.79710 5.91339 7.49523
#
# Compressibility (1/GPa) = 0.02538247
#
# Stress axis : x y z
#
# Youngs Moduli (GPa) = 67.37870 67.37870 20.02393
#
# Poissons Ratio (x) = 0.13428 0.25158
# Poissons Ratio (y) = 0.13428 0.25158
# Poissons Ratio (z) = 0.84653 0.84653
#
# Static dielectric constant tensor:
#      x y z
#    x 1.683030 0.000000 0.000000 
#    y 0.000000 1.683030 0.000000 
#    z 0.000000 0.000000 1.624720 
# 
# From -- ./inp_files/9570.got.cif
#   From: 2010.05.17/outbox.cif.g08.bks.cpg/sg136_5_cif.got.tgz:9570.got - 2010.05.20 12:54:53.
