data_PCOD9569953
_publ_section_title
;
Structure prediction by ZEFSAII (Michael W. Deem and Ramdas Pophale) SiO2 
 PCOD9569953
Probable space group: P 42/N M C
;
_chemical_formula_sum "Si O2"
_cell_formula_units_Z 42
_cell_length_a 9.470059
_cell_length_b 9.470059
_cell_length_c 19.637480
_cell_angle_alpha 90.000000
_cell_angle_beta 90.000000
_cell_angle_gamma 90.000000
_cell_volume 1761.128824
_symmetry_space_group_name_H-M "P 42/N M C"
_symmetry_group_IT_number 137
_space_group.IT_coordinate_system_code '2'
_symmetry_cell_setting 'tetragonal'
loop_
_space_group_symop_operation_xyz
x,y,z
1/2-y,x,1/2+z
1/2-x,1/2-y,z
y,1/2-x,1/2+z
1/2+x,-y,-z
-x,1/2+y,-z
1/2+y,1/2+x,1/2-z
-y,-x,1/2-z
-x,-y,-z
1/2+y,-x,1/2-z
1/2+x,1/2+y,-z
-y,1/2+x,1/2-z
1/2-x,y,z
x,1/2-y,z
1/2-y,1/2-x,1/2+z
y,x,1/2+z
loop_
_atom_site_type_symbol
_atom_site_label
_atom_site_fract_x
_atom_site_fract_y
_atom_site_fract_z
Si Si1 0.920145 0.250000 0.385552
Si Si2 0.414081 0.047024 0.641459
Si Si3 0.916136 0.750000 0.232514
Si Si4 0.250000 0.750000 0.250000
Si Si5 0.918406 0.250000 0.545868
O O1 0.750000 0.250000 0.377036
O O2 0.973094 0.390894 0.351800
O O3 0.950176 0.250000 0.465768
O O4 0.250000 0.047176 0.617316
O O5 0.414503 0.122462 0.713071
O O6 0.508436 0.120855 0.584552
O O7 0.750000 0.750000 0.201190
O O8 0.091472 0.750000 0.211057
O O9 0.750000 0.250000 0.553465
#
# Coordination Sequence:
#
# PCOD9569953 Si02
#       5
#     8  16   8   2   8
#     4   9  17  30  49  79 109 151 189 231 274 322
#     4   9  18  34  54  73 109 148 185 233 283 337
#     4   9  21  41  64  89 109 150 189 231 308 370
#     4  12  24  44  76  84 128 148 184 264 312 356
#     4  10  18  27  47  75 111 151 195 225 265 332
#
# _framework density 23.848341000000001
#
# number of rings (size 3 to 8) (size 9 to 14) (size 15 to 20)
#    0.000    2.667    0.000    2.857    5.333    0.000 
#    3.429    2.857    0.000    0.000    0.000    0.000 
#    0.000    0.000    0.000    0.000    0.000    0.000 
#
# Total GULP energy -234022.085020 kJ/mol
# GULP energy per Si atom -5571.954405 kJ/mol
# Density = 2.379406 g / cm^3
# Si number density = 23.848341 Si / 1000 Ang^3
#
#
#
# Elastic Constant Matrix: (Units=GPa)
#
#
# Indices 1 2 3 4 5 6 
#
# 1 165.2946 32.2521 40.6043 0.0000 0.0000 0.0000
# 2 32.2521 165.2946 40.6043 0.0000 0.0000 0.0000
# 3 40.6043 40.6043 58.8173 0.0000 0.0000 0.0000
# 4 0.0000 0.0000 0.0000 19.7617 0.0000 0.0000
# 5 0.0000 0.0000 0.0000 0.0000 19.7617 0.0000
# 6 0.0000 0.0000 0.0000 0.0000 0.0000 101.6900
#
#
#
# Elastic Compliance Matrix: (Units=1/GPa)
#
#
# Indices 1 2 3 4 5 6 
#
# 1 0.007292 -0.000224 -0.004879 0.000000 0.000000 0.000000
# 2 -0.000224 0.007292 -0.004879 0.000000 0.000000 0.000000
# 3 -0.004879 -0.004879 0.023739 0.000000 0.000000 0.000000
# 4 0.000000 0.000000 0.000000 0.050603 0.000000 0.000000
# 5 0.000000 0.000000 0.000000 0.000000 0.050603 0.000000
# 6 0.000000 0.000000 0.000000 0.000000 0.000000 0.009834
#
#
# Mechanical properties :
#
#
# Convention : Reuss Voigt Hill
#
# Bulk Modulus (GPa) = 54.47448 68.48086 61.47767
# Shear Modulus (GPa) = 28.49861 46.63909 37.56885
#
# Velocity S-wave (km/s) = 3.46062 4.42707 3.97334
# Velocity P-wave (km/s) = 6.23374 7.41009 6.84722
#
# Compressibility (1/GPa) = 0.01835722
#
# Stress axis : x y z
#
# Youngs Moduli (GPa) = 137.13379 137.13379 42.12547
#
# Poissons Ratio (x) = 0.03075 0.20554
# Poissons Ratio (y) = 0.03075 0.20554
# Poissons Ratio (z) = 0.66912 0.66912
#
# Static dielectric constant tensor:
#      x y z
#    x 2.013420 0.000000 0.000000 
#    y 0.000000 2.013420 0.000000 
#    z 0.000000 0.000000 1.795230 
# 
# From -- ./inp_files/9344.got.cif
#   From: 2010.05.17/outbox.cif.g08.bks.cpg/sg137_5_cif.got.tgz:9344.got - 2010.05.20 13:01:12.
