data_PCOD9569975
_publ_section_title
;
Structure prediction by ZEFSAII (Michael W. Deem and Ramdas Pophale) SiO2 
 PCOD9569975
Probable space group: P 42/N M C
;
_chemical_formula_sum "Si O2"
_cell_formula_units_Z 112
_cell_length_a 14.803176
_cell_length_b 14.803176
_cell_length_c 29.044855
_cell_angle_alpha 90.000000
_cell_angle_beta 90.000000
_cell_angle_gamma 90.000000
_cell_volume 6364.715827
_symmetry_space_group_name_H-M "P 42/N M C"
_symmetry_group_IT_number 137
_space_group.IT_coordinate_system_code '2'
_symmetry_cell_setting 'tetragonal'
loop_
_space_group_symop_operation_xyz
x,y,z
1/2-y,x,1/2+z
1/2-x,1/2-y,z
y,1/2-x,1/2+z
1/2+x,-y,-z
-x,1/2+y,-z
1/2+y,1/2+x,1/2-z
-y,-x,1/2-z
-x,-y,-z
1/2+y,-x,1/2-z
1/2+x,1/2+y,-z
-y,1/2+x,1/2-z
1/2-x,y,z
x,1/2-y,z
1/2-y,1/2-x,1/2+z
y,x,1/2+z
loop_
_atom_site_type_symbol
_atom_site_label
_atom_site_fract_x
_atom_site_fract_y
_atom_site_fract_z
Si Si1 0.402474 0.649772 0.608284
Si Si2 0.143853 0.493526 0.743350
Si Si3 0.906567 0.852074 0.662142
Si Si4 0.643804 0.492850 0.918195
Si Si5 0.046381 0.350627 0.138217
Si Si6 0.512104 0.647782 0.086191
Si Si7 0.531352 0.853195 0.526238
O O1 0.360620 0.750000 0.613492
O O2 0.493070 0.649904 0.639571
O O3 0.352338 0.559032 0.622680
O O4 0.439576 0.639775 0.556220
O O5 0.250000 0.519045 0.746848
O O6 0.126500 0.422502 0.784380
O O7 0.128962 0.453926 0.692628
O O8 0.079326 0.579326 0.750000
O O9 0.869386 0.750000 0.657349
O O10 0.856275 0.927190 0.632515
O O11 0.750000 0.479214 0.908555
O O12 0.602267 0.575898 0.889732
O O13 0.579488 0.408218 0.907613
O O14 0.634359 0.514122 0.972571
O O15 0.082475 0.250000 0.130639
O O16 0.493713 0.750000 0.073129
O O17 0.573715 0.598564 0.047702
O O18 0.564910 0.750000 0.534129
#
# Coordination Sequence:
#
# PCOD9569975 Si02
#       7
#    16  16  16  16  16  16  16
#     4   9  16  31  53  78 109 140 173 219 269 321
#     4  10  18  30  49  76 110 147 183 220 266 328
#     4   9  17  32  54  78 110 142 171 218 280 331
#     4  11  23  41  57  74 111 153 187 227 272 318
#     4  11  22  34  54  81 110 148 193 225 261 323
#     4  11  21  35  60  88 108 133 179 234 284 329
#     4   9  19  36  59  81 109 145 176 214 272 330
#
# _framework density 17.597014999999999
#
# number of rings (size 3 to 8) (size 9 to 14) (size 15 to 20)
#    0.000    2.000    4.286    1.714    0.000    2.714 
#    0.000    3.571    0.000    5.143    0.000    0.000 
#    0.000    3.429    0.000    0.000    0.000    0.000 
#
# Total GULP energy -624598.822319 kJ/mol
# GULP energy per Si atom -5576.775199 kJ/mol
# Density = 1.755696 g / cm^3
# Si number density = 17.597015 Si / 1000 Ang^3
#
#
#
# Elastic Constant Matrix: (Units=GPa)
#
#
# Indices 1 2 3 4 5 6 
#
# 1 85.6414 46.4630 29.8124 0.0000 0.0000 0.0000
# 2 46.4630 85.6414 29.8124 0.0000 0.0000 0.0000
# 3 29.8124 29.8124 90.7812 0.0000 0.0000 0.0000
# 4 0.0000 0.0000 0.0000 13.6506 0.0000 0.0000
# 5 0.0000 0.0000 0.0000 0.0000 13.6506 0.0000
# 6 0.0000 0.0000 0.0000 0.0000 0.0000 -9.6152
#
#
#
# Elastic Compliance Matrix: (Units=1/GPa)
#
#
# Indices 1 2 3 4 5 6 
#
# 1 0.017206 -0.008319 -0.002918 0.000000 0.000000 0.000000
# 2 -0.008319 0.017206 -0.002918 0.000000 0.000000 0.000000
# 3 -0.002918 -0.002918 0.012932 0.000000 0.000000 0.000000
# 4 0.000000 0.000000 0.000000 0.073257 0.000000 0.000000
# 5 0.000000 0.000000 0.000000 0.000000 0.073257 0.000000
# 6 0.000000 0.000000 0.000000 0.000000 0.000000 -0.104002
#
#
# Mechanical properties :
#
#
# Convention : Reuss Voigt Hill
#
# Bulk Modulus (GPa) = 52.54182 52.69327 52.61755
# Shear Modulus (GPa) = 40.15713 13.93560 27.04636
#
# Velocity S-wave (km/s) = 4.78225 2.81718 3.92469
# Velocity P-wave (km/s) = 7.77280 6.37114 7.10661
#
# Compressibility (1/GPa) = 0.01903246
#
# Stress axis : x y z
#
# Youngs Moduli (GPa) = 58.12042 58.12042 77.32550
#
# Poissons Ratio (x) = 0.48348 0.22567
# Poissons Ratio (y) = 0.48348 0.22567
# Poissons Ratio (z) = 0.16962 0.16962
#
# Static dielectric constant tensor:
#      x y z
#    x 1.600210 0.000000 0.000000 
#    y 0.000000 1.600210 0.000000 
#    z 0.000000 0.000000 1.612680 
# 
# From -- ./inp_files/9754.got.cif
#   From: 2010.05.17/outbox.cif.g08.bks.cpg/sg137_5_cif.got.tgz:9754.got - 2010.05.20 13:01:12.
