data_PCOD9569539
_publ_section_title
;
Structure prediction by ZEFSAII (Michael W. Deem and Ramdas Pophale) SiO2 
 PCOD9569539
Probable space group: P 42/M N M
;
_chemical_formula_sum "Si O2"
_cell_formula_units_Z 88
_cell_length_a 13.226952
_cell_length_b 13.226952
_cell_length_c 26.939552
_cell_angle_alpha 90.000000
_cell_angle_beta 90.000000
_cell_angle_gamma 90.000000
_cell_volume 4713.135485
_symmetry_space_group_name_H-M "P 42/M N M"
_symmetry_group_IT_number 136
_symmetry_cell_setting 'tetragonal'
loop_
_space_group_symop_operation_xyz
x,y,z
1/2-y,1/2+x,1/2+z
-x,-y,z
1/2+y,1/2-x,1/2+z
1/2+x,1/2-y,1/2-z
1/2-x,1/2+y,1/2-z
y,x,-z
-y,-x,-z
-x,-y,-z
1/2+y,1/2-x,1/2-z
x,y,-z
1/2-y,1/2+x,1/2-z
1/2-x,1/2+y,1/2+z
1/2+x,1/2-y,1/2+z
-y,-x,z
y,x,z
loop_
_atom_site_type_symbol
_atom_site_label
_atom_site_fract_x
_atom_site_fract_y
_atom_site_fract_z
Si Si1 0.994269 0.168844 0.500000
Si Si2 0.515458 0.879189 0.557699
Si Si3 0.003179 0.336494 0.236899
Si Si4 0.399576 0.763007 0.089129
Si Si5 0.873573 0.708142 0.861116
Si Si6 0.955364 0.206710 0.673083
O O1 0.886891 0.113110 0.500000
O O2 0.015426 0.237103 0.452165
O O3 0.078203 0.078203 0.500000
O O4 0.522282 0.848123 0.500000
O O5 0.621640 0.867637 0.585964
O O6 0.428759 0.821916 0.588028
O O7 0.500000 0.000000 0.558722
O O8 0.089970 0.405311 0.263642
O O9 0.046006 0.303946 0.183739
O O10 0.977431 0.240845 0.270938
O O11 0.303861 0.696140 0.075423
O O12 0.445624 0.723986 0.140415
O O13 0.814886 0.814886 0.862042
O O14 0.788506 0.624395 0.848406
O O15 0.902026 0.097975 0.668942
#
# Coordination Sequence:
#
# PCOD9569539 Si02
#       6
#     8  16  16  16  16  16
#     4   9  18  32  49  76 119 159 187 224 285 355
#     4  11  22  38  61  86 113 153 200 246 288 343
#     4   9  18  33  57  81 111 159 203 242 286 344
#     4  11  21  35  56  84 116 154 194 237 291 352
#     4  10  21  37  58  85 120 153 193 247 300 346
#     4  10  20  35  56  87 123 154 189 238 296 356
#
# _framework density 18.671222
#
# number of rings (size 3 to 8) (size 9 to 14) (size 15 to 20)
#    0.000    1.909    2.727    1.636    2.545    2.182 
#    0.000    4.545    0.000    1.636    0.000    1.273 
#    0.000    0.000    0.000    0.000    0.000    0.000 
#
# Total GULP energy -491060.132936 kJ/mol
# GULP energy per Si atom -5580.228783 kJ/mol
# Density = 1.862873 g / cm^3
# Si number density = 18.671222 Si / 1000 Ang^3
#
#
#
# Elastic Constant Matrix: (Units=GPa)
#
#
# Indices 1 2 3 4 5 6 
#
# 1 52.2989 35.8750 30.6745 0.0000 0.0000 0.0000
# 2 35.8750 52.2987 30.6744 0.0000 0.0000 0.0000
# 3 30.6745 30.6744 71.1527 0.0000 0.0000 0.0000
# 4 0.0000 0.0000 0.0000 16.7784 0.0000 0.0000
# 5 0.0000 0.0000 0.0000 0.0000 16.7805 0.0000
# 6 0.0000 0.0000 0.0000 0.0000 0.0000 19.4880
#
#
#
# Elastic Compliance Matrix: (Units=1/GPa)
#
#
# Indices 1 2 3 4 5 6 
#
# 1 0.038544 -0.022343 -0.006984 0.000000 0.000000 0.000000
# 2 -0.022343 0.038544 -0.006984 0.000000 0.000000 0.000000
# 3 -0.006984 -0.006984 0.020076 0.000000 0.000000 0.000000
# 4 0.000000 0.000000 0.000000 0.059600 0.000000 0.000000
# 5 0.000000 0.000000 0.000000 0.000000 0.059593 0.000000
# 6 0.000000 0.000000 0.000000 0.000000 0.000000 0.051314
#
#
# Mechanical properties :
#
#
# Convention : Reuss Voigt Hill
#
# Bulk Modulus (GPa) = 40.74878 41.13312 40.94095
# Shear Modulus (GPa) = 14.34826 15.84448 15.09637
#
# Velocity S-wave (km/s) = 2.77514 2.91624 2.84656
# Velocity P-wave (km/s) = 5.66924 5.78077 5.72528
#
# Compressibility (1/GPa) = 0.02454061
#
# Stress axis : x y z
#
# Youngs Moduli (GPa) = 25.94456 25.94444 49.81030
#
# Poissons Ratio (x) = 0.57968 0.34789
# Poissons Ratio (y) = 0.57968 0.34789
# Poissons Ratio (z) = 0.18120 0.18120
#
# Static dielectric constant tensor:
#      x y z
#    x 1.638130 0.000000 0.000000 
#    y 0.000000 1.638130 0.000000 
#    z 0.000000 0.000000 1.651190 
# 
# From -- ./inp_files/9737.got.cif
#   From: 2010.05.17/outbox.cif.g08.bks.cpg/sg136_5_cif.got.tgz:9737.got - 2010.05.20 12:54:53.
