data_PCOD9569586
_publ_section_title
;
Structure prediction by ZEFSAII (Michael W. Deem and Ramdas Pophale) SiO2 
 PCOD9569586
Probable space group: P 42/M N M
;
_chemical_formula_sum "Si O2"
_cell_formula_units_Z 72
_cell_length_a 19.192699
_cell_length_b 19.192699
_cell_length_c 11.875178
_cell_angle_alpha 90.000000
_cell_angle_beta 90.000000
_cell_angle_gamma 90.000000
_cell_volume 4374.336945
_symmetry_space_group_name_H-M "P 42/M N M"
_symmetry_group_IT_number 136
_symmetry_cell_setting 'tetragonal'
loop_
_space_group_symop_operation_xyz
x,y,z
1/2-y,1/2+x,1/2+z
-x,-y,z
1/2+y,1/2-x,1/2+z
1/2+x,1/2-y,1/2-z
1/2-x,1/2+y,1/2-z
y,x,-z
-y,-x,-z
-x,-y,-z
1/2+y,1/2-x,1/2-z
x,y,-z
1/2-y,1/2+x,1/2-z
1/2-x,1/2+y,1/2+z
1/2+x,1/2-y,1/2+z
-y,-x,z
y,x,z
loop_
_atom_site_type_symbol
_atom_site_label
_atom_site_fract_x
_atom_site_fract_y
_atom_site_fract_z
Si Si1 0.080012 0.193384 0.000000
Si Si2 0.981691 0.213446 0.634396
Si Si3 0.086123 0.799150 0.000000
Si Si4 0.758859 0.874556 0.243719
Si Si5 0.355742 0.238971 0.268521
Si Si6 0.443464 0.443464 0.137100
O O1 0.106224 0.232174 0.887630
O O2 0.996569 0.190003 0.000000
O O3 0.118063 0.118063 0.000000
O O4 0.984710 0.214016 0.500000
O O5 0.918233 0.259502 0.679838
O O6 0.964457 0.134089 0.673213
O O7 0.054840 0.235967 0.686178
O O8 0.111395 0.757514 0.889533
O O9 0.127955 0.872046 0.000000
O O10 0.823203 0.823203 0.273919
O O11 0.688908 0.831338 0.266860
O O12 0.300697 0.300697 0.240369
O O13 0.500000 0.500000 0.175188
O O14 0.443581 0.443581 0.000000
#
# Coordination Sequence:
#
# PCOD9569586 Si02
#       6
#     8  16   8  16  16   8
#     4  10  20  37  56  83 115 147 186 228 281 337
#     4  11  21  34  55  83 112 145 188 226 279 333
#     4  10  20  37  58  81 113 150 187 225 276 342
#     4  10  22  37  56  82 113 149 187 233 276 329
#     4  10  21  37  57  80 111 149 191 232 276 328
#     4   9  18  32  50  77 115 149 171 217 275 336
#
# _framework density 16.459637000000001
#
# number of rings (size 3 to 8) (size 9 to 14) (size 15 to 20)
#    0.000    1.889    3.333    0.667    3.111    1.556 
#    0.000    0.000    0.000    0.667    0.000    3.111 
#    0.000    0.000    0.000    0.000    0.000    0.000 
#
# Total GULP energy -401913.814133 kJ/mol
# GULP energy per Si atom -5582.136307 kJ/mol
# Density = 1.642217 g / cm^3
# Si number density = 16.459637 Si / 1000 Ang^3
#
#
#
# Elastic Constant Matrix: (Units=GPa)
#
#
# Indices 1 2 3 4 5 6 
#
# 1 122.8824 83.5847 45.9919 0.0000 0.0000 0.0000
# 2 83.5847 122.8827 45.9927 0.0000 0.0000 0.0000
# 3 45.9919 45.9927 79.0932 0.0000 0.0000 0.0000
# 4 0.0000 0.0000 0.0000 17.3691 0.0000 0.0000
# 5 0.0000 0.0000 0.0000 0.0000 17.3693 0.0000
# 6 0.0000 0.0000 0.0000 0.0000 0.0000 21.4797
#
#
#
# Elastic Compliance Matrix: (Units=1/GPa)
#
#
# Indices 1 2 3 4 5 6 
#
# 1 0.015992 -0.009455 -0.003801 0.000000 0.000000 0.000000
# 2 -0.009455 0.015992 -0.003801 0.000000 0.000000 0.000000
# 3 -0.003801 -0.003801 0.017064 0.000000 0.000000 0.000000
# 4 0.000000 0.000000 0.000000 0.057573 0.000000 0.000000
# 5 0.000000 0.000000 0.000000 0.000000 0.057573 0.000000
# 6 0.000000 0.000000 0.000000 0.000000 0.000000 0.046556
#
#
# Mechanical properties :
#
#
# Convention : Reuss Voigt Hill
#
# Bulk Modulus (GPa) = 66.96520 75.11076 71.03798
# Shear Modulus (GPa) = 20.01269 21.19622 20.60445
#
# Velocity S-wave (km/s) = 3.49071 3.59244 3.54194
# Velocity P-wave (km/s) = 7.55113 7.93347 7.74466
#
# Compressibility (1/GPa) = 0.01493313
#
# Stress axis : x y z
#
# Youngs Moduli (GPa) = 62.53231 62.53189 58.60286
#
# Poissons Ratio (x) = 0.59123 0.22275
# Poissons Ratio (y) = 0.59124 0.22277
# Poissons Ratio (z) = 0.23768 0.23770
#
# Static dielectric constant tensor:
#      x y z
#    x 1.532230 0.000000 0.000000 
#    y 0.000000 1.532230 0.000000 
#    z 0.000000 0.000000 1.556920 
# 
# From -- ./inp_files/3502.got.cif
#   From: 2010.05.17/outbox.cif.g08.bks.cpg/sg136_2_cif.got.tgz:3502.got - 2010.05.20 12:54:53.
