data_PCOD9569491
_publ_section_title
;
Structure prediction by ZEFSAII (Michael W. Deem and Ramdas Pophale) SiO2 
 PCOD9569491
Probable space group: P 42/M N M
;
_chemical_formula_sum "Si O2"
_cell_formula_units_Z 96
_cell_length_a 14.941011
_cell_length_b 14.941011
_cell_length_c 22.824318
_cell_angle_alpha 90.000000
_cell_angle_beta 90.000000
_cell_angle_gamma 90.000000
_cell_volume 5095.159461
_symmetry_space_group_name_H-M "P 42/M N M"
_symmetry_group_IT_number 136
_symmetry_cell_setting 'tetragonal'
loop_
_space_group_symop_operation_xyz
x,y,z
1/2-y,1/2+x,1/2+z
-x,-y,z
1/2+y,1/2-x,1/2+z
1/2+x,1/2-y,1/2-z
1/2-x,1/2+y,1/2-z
y,x,-z
-y,-x,-z
-x,-y,-z
1/2+y,1/2-x,1/2-z
x,y,-z
1/2-y,1/2+x,1/2-z
1/2-x,1/2+y,1/2+z
1/2+x,1/2-y,1/2+z
-y,-x,z
y,x,z
loop_
_atom_site_type_symbol
_atom_site_label
_atom_site_fract_x
_atom_site_fract_y
_atom_site_fract_z
Si Si1 0.859486 0.552416 0.432580
Si Si2 0.784774 0.063643 0.169224
Si Si3 0.824226 0.024354 0.563590
Si Si4 0.076903 0.076903 0.793627
Si Si5 0.922705 0.922705 0.658672
Si Si6 0.635763 0.053323 0.265345
Si Si7 0.367137 0.947714 0.402657
O O1 0.837800 0.573666 0.500000
O O2 0.779406 0.566850 0.387109
O O3 0.948027 0.607282 0.413217
O O4 0.890637 0.449088 0.427463
O O5 0.857393 0.142607 0.167373
O O6 0.722508 0.072690 0.226686
O O7 0.838920 0.970009 0.175375
O O8 0.830768 0.978243 0.500000
O O9 0.901441 0.098560 0.565122
O O10 0.842057 0.961978 0.619700
O O11 0.727746 0.068370 0.568209
O O12 0.099162 0.099162 0.725687
O O13 0.000000 0.000000 0.791868
O O14 0.000000 0.000000 0.660358
O O15 0.550787 0.109131 0.242213
O O16 0.643095 0.071213 0.333927
#
# Coordination Sequence:
#
# PCOD9569491 Si02
#       7
#    16  16  16   8   8  16  16
#     4  11  22  40  63  87 117 161 206 249 302 360
#     4  11  23  42  62  91 123 158 204 254 305 359
#     4  10  20  34  54  85 124 161 196 234 284 356
#     4   9  20  39  61  81 115 156 195 247 305 353
#     4   9  17  34  57  81 114 159 193 227 287 360
#     4  11  19  38  62  88 120 153 192 246 307 363
#     4  11  20  38  64  87 120 157 199 247 308 362
#
# _framework density 18.841412999999999
#
# number of rings (size 3 to 8) (size 9 to 14) (size 15 to 20)
#    0.000    1.500    3.333    4.250    0.000    3.333 
#    4.500    0.417    0.000    1.500    0.000    0.000 
#    0.000    0.000    0.000    0.000    0.000    0.000 
#
# Total GULP energy -535962.103061 kJ/mol
# GULP energy per Si atom -5582.938574 kJ/mol
# Density = 1.879853 g / cm^3
# Si number density = 18.841413 Si / 1000 Ang^3
#
#
#
# Elastic Constant Matrix: (Units=GPa)
#
#
# Indices 1 2 3 4 5 6 
#
# 1 53.5001 2.6242 13.1843 0.0000 0.0000 0.0000
# 2 2.6242 53.5001 13.1843 0.0000 0.0000 0.0000
# 3 13.1843 13.1843 111.7931 0.0000 0.0000 0.0000
# 4 0.0000 0.0000 0.0000 18.9340 0.0000 0.0000
# 5 0.0000 0.0000 0.0000 0.0000 18.9340 0.0000
# 6 0.0000 0.0000 0.0000 0.0000 0.0000 8.9419
#
#
#
# Elastic Compliance Matrix: (Units=1/GPa)
#
#
# Indices 1 2 3 4 5 6 
#
# 1 0.019259 -0.000396 -0.002225 0.000000 0.000000 0.000000
# 2 -0.000396 0.019259 -0.002225 0.000000 0.000000 0.000000
# 3 -0.002225 -0.002225 0.009470 0.000000 0.000000 0.000000
# 4 0.000000 0.000000 0.000000 0.052815 0.000000 0.000000
# 5 0.000000 0.000000 0.000000 0.000000 0.052815 0.000000
# 6 0.000000 0.000000 0.000000 0.000000 0.000000 0.111833
#
#
# Mechanical properties :
#
#
# Convention : Reuss Voigt Hill
#
# Bulk Modulus (GPa) = 26.11168 30.75320 28.43244
# Shear Modulus (GPa) = 17.36666 22.01536 19.69101
#
# Velocity S-wave (km/s) = 3.03929 3.42198 3.23630
# Velocity P-wave (km/s) = 5.11910 5.65427 5.39333
#
# Compressibility (1/GPa) = 0.03829704
#
# Stress axis : x y z
#
# Youngs Moduli (GPa) = 51.92317 51.92317 105.59875
#
# Poissons Ratio (x) = 0.02059 0.23491
# Poissons Ratio (y) = 0.02059 0.23491
# Poissons Ratio (z) = 0.11551 0.11551
#
# Static dielectric constant tensor:
#      x y z
#    x 1.649840 0.000000 0.000000 
#    y 0.000000 1.649840 0.000000 
#    z 0.000000 0.000000 1.679270 
# 
# From -- ./inp_files/8440.got.cif
#   From: 2010.05.17/outbox.cif.g08.bks.cpg/sg136_5_cif.got.tgz:8440.got - 2010.05.20 12:54:53.
