data_PCOD9569987
_publ_section_title
;
Structure prediction by ZEFSAII (Michael W. Deem and Ramdas Pophale) SiO2 
 PCOD9569987
Probable space group: P 42/N M C
;
_chemical_formula_sum "Si O2"
_cell_formula_units_Z 128
_cell_length_a 23.232173
_cell_length_b 23.232173
_cell_length_c 15.415893
_cell_angle_alpha 90.000000
_cell_angle_beta 90.000000
_cell_angle_gamma 90.000000
_cell_volume 8320.479470
_symmetry_space_group_name_H-M "P 42/N M C"
_symmetry_group_IT_number 137
_space_group.IT_coordinate_system_code '2'
_symmetry_cell_setting 'tetragonal'
loop_
_space_group_symop_operation_xyz
x,y,z
1/2-y,x,1/2+z
1/2-x,1/2-y,z
y,1/2-x,1/2+z
1/2+x,-y,-z
-x,1/2+y,-z
1/2+y,1/2+x,1/2-z
-y,-x,1/2-z
-x,-y,-z
1/2+y,-x,1/2-z
1/2+x,1/2+y,-z
-y,1/2+x,1/2-z
1/2-x,y,z
x,1/2-y,z
1/2-y,1/2-x,1/2+z
y,x,1/2+z
loop_
_atom_site_type_symbol
_atom_site_label
_atom_site_fract_x
_atom_site_fract_y
_atom_site_fract_z
Si Si1 0.567103 0.487986 0.488759
Si Si2 0.685009 0.812222 0.500278
Si Si3 0.961046 0.683375 0.621057
Si Si4 0.182155 0.061161 0.220853
Si Si5 0.617977 0.585569 0.950948
Si Si6 0.185361 0.339964 0.796169
Si Si7 0.498476 0.577447 0.184461
Si Si8 0.584348 0.033357 0.166073
O O1 0.500000 0.500000 0.500000
O O2 0.587159 0.549325 0.450831
O O3 0.588355 0.476178 0.586258
O O4 0.568120 0.438091 0.417812
O O5 0.750000 0.811096 0.472131
O O6 0.656914 0.750000 0.481582
O O7 0.650898 0.861309 0.453523
O O8 0.682821 0.818756 0.604404
O O9 0.969441 0.750000 0.596809
O O10 0.941380 0.644541 0.538879
O O11 0.908778 0.681908 0.690001
O O12 0.015662 0.650372 0.657973
O O13 0.250000 0.043752 0.221806
O O14 0.150170 0.055414 0.128352
O O15 0.180482 0.129215 0.245696
O O16 0.137251 0.026798 0.282806
O O17 0.250000 0.324757 0.764255
O O18 0.450942 0.549059 0.250000
O O19 0.547656 0.527106 0.175930
O O20 0.569523 0.069523 0.250000
#
# Coordination Sequence:
#
# PCOD9569987 Si02
#       8
#    16  16  16  16  16  16  16  16
#     4  10  18  31  50  69  92 120 163 205 241 300
#     4   9  17  30  44  56  78 120 168 207 243 282
#     4  10  18  31  49  67  95 126 157 197 248 292
#     4  12  22  30  44  67  94 127 169 209 245 290
#     4  11  19  31  43  65  93 121 162 206 248 284
#     4   9  18  31  43  59  86 124 166 204 241 282
#     4  10  19  33  50  68  94 127 160 205 251 297
#     4  10  18  31  53  75  92 124 163 200 243 296
#
# _framework density 15.383729000000001
#
# number of rings (size 3 to 8) (size 9 to 14) (size 15 to 20)
#    0.000    1.875    3.750    5.250    0.000    1.250 
#    0.000    0.000    0.000    0.750    0.000    0.000 
#    0.000    0.500    0.000    0.000    0.000    0.250 
#
# Total GULP energy -712763.863657 kJ/mol
# GULP energy per Si atom -5568.467685 kJ/mol
# Density = 1.534872 g / cm^3
# Si number density = 15.383729 Si / 1000 Ang^3
#
#
#
# Elastic Constant Matrix: (Units=GPa)
#
#
# Indices 1 2 3 4 5 6 
#
# 1 54.7614 41.2396 17.2155 0.0000 0.0000 0.0000
# 2 41.2396 54.7621 17.2150 0.0000 0.0000 0.0000
# 3 17.2155 17.2150 60.8709 0.0000 0.0000 0.0000
# 4 0.0000 0.0000 0.0000 6.2851 0.0000 0.0000
# 5 0.0000 0.0000 0.0000 0.0000 6.2851 0.0000
# 6 0.0000 0.0000 0.0000 0.0000 0.0000 23.4753
#
#
#
# Elastic Compliance Matrix: (Units=1/GPa)
#
#
# Indices 1 2 3 4 5 6 
#
# 1 0.042773 -0.031180 -0.003279 0.000000 0.000000 0.000000
# 2 -0.031180 0.042772 -0.003278 0.000000 0.000000 0.000000
# 3 -0.003279 -0.003278 0.018283 0.000000 0.000000 0.000000
# 4 0.000000 0.000000 0.000000 0.159107 0.000000 0.000000
# 5 0.000000 0.000000 0.000000 0.000000 0.159107 0.000000
# 6 0.000000 0.000000 0.000000 0.000000 0.000000 0.042598
#
#
# Mechanical properties :
#
#
# Convention : Reuss Voigt Hill
#
# Bulk Modulus (GPa) = 35.26922 35.74828 35.50875
# Shear Modulus (GPa) = 9.09810 13.52405 11.31108
#
# Velocity S-wave (km/s) = 2.43453 2.96820 2.71451
# Velocity P-wave (km/s) = 5.55686 5.91905 5.74081
#
# Compressibility (1/GPa) = 0.02835333
#
# Stress axis : x y z
#
# Youngs Moduli (GPa) = 23.37925 23.37974 54.69677
#
# Poissons Ratio (x) = 0.72898 0.17935
# Poissons Ratio (y) = 0.72897 0.17930
# Poissons Ratio (z) = 0.07666 0.07664
#
# Static dielectric constant tensor:
#      x y z
#    x 1.503490 0.000000 0.000000 
#    y 0.000000 1.503490 0.000000 
#    z 0.000000 0.000000 1.560250 
# 
# From -- ./inp_files/6862.got.cif
#   From: 2010.05.17/outbox.cif.g08.bks.cpg/sg137_4_cif.got.tgz:6862.got - 2010.05.20 13:01:12.
