data_PCOD9569552
_publ_section_title
;
Structure prediction by ZEFSAII (Michael W. Deem and Ramdas Pophale) SiO2 
 PCOD9569552
Probable space group: P 42/M N M
;
_chemical_formula_sum "Si O2"
_cell_formula_units_Z 112
_cell_length_a 14.788843
_cell_length_b 14.788843
_cell_length_c 24.394173
_cell_angle_alpha 90.000000
_cell_angle_beta 90.000000
_cell_angle_gamma 90.000000
_cell_volume 5335.246583
_symmetry_space_group_name_H-M "P 42/M N M"
_symmetry_group_IT_number 136
_symmetry_cell_setting 'tetragonal'
loop_
_space_group_symop_operation_xyz
x,y,z
1/2-y,1/2+x,1/2+z
-x,-y,z
1/2+y,1/2-x,1/2+z
1/2+x,1/2-y,1/2-z
1/2-x,1/2+y,1/2-z
y,x,-z
-y,-x,-z
-x,-y,-z
1/2+y,1/2-x,1/2-z
x,y,-z
1/2-y,1/2+x,1/2-z
1/2-x,1/2+y,1/2+z
1/2+x,1/2-y,1/2+z
-y,-x,z
y,x,z
loop_
_atom_site_type_symbol
_atom_site_label
_atom_site_fract_x
_atom_site_fract_y
_atom_site_fract_z
Si Si1 0.771803 0.369896 0.439269
Si Si2 0.769746 0.560550 0.250673
Si Si3 0.319760 0.177949 0.352902
Si Si4 0.435374 0.917843 0.937331
Si Si5 0.831006 0.978323 0.664634
Si Si6 0.709806 0.870808 0.813991
Si Si7 0.059817 0.759655 0.441080
O O1 0.784802 0.414215 0.500000
O O2 0.672232 0.327769 0.439855
O O3 0.785354 0.404766 0.377259
O O4 0.843627 0.287877 0.439265
O O5 0.780967 0.630999 0.299955
O O6 0.678760 0.538039 0.218524
O O7 0.826285 0.612808 0.202338
O O8 0.789973 0.461608 0.276854
O O9 0.253549 0.253549 0.377522
O O10 0.394226 0.143511 0.395511
O O11 0.253578 0.094310 0.336450
O O12 0.493569 0.826553 0.938909
O O13 0.500000 0.000000 0.919421
O O14 0.407694 0.935817 0.000000
O O15 0.920004 0.920004 0.664115
O O16 0.820005 0.036502 0.610181
O O17 0.792594 0.792594 0.806392
O O18 0.047145 0.804972 0.500000
#
# Coordination Sequence:
#
# PCOD9569552 Si02
#       7
#    16  16  16  16  16  16  16
#     4   9  18  34  57  82 111 148 190 244 314 372
#     4  12  22  36  59  84 118 162 205 251 315 376
#     4  10  22  38  56  81 121 162 204 252 309 379
#     4   9  19  34  56  86 122 157 197 246 302 373
#     4  10  20  36  54  78 113 154 199 248 300 366
#     4  11  24  41  61  90 124 160 206 265 319 381
#     4   9  17  31  53  81 111 146 189 236 296 370
#
# _framework density 20.992469
#
# number of rings (size 3 to 8) (size 9 to 14) (size 15 to 20)
#    0.000    2.000    2.857    0.857    2.000    0.857 
#    0.000    2.857    0.000    9.000    0.000    2.000 
#    0.000    0.000    0.000   19.429    0.000    0.571 
#
# Total GULP energy -623484.680481 kJ/mol
# GULP energy per Si atom -5566.827504 kJ/mol
# Density = 2.094469 g / cm^3
# Si number density = 20.992469 Si / 1000 Ang^3
#
#
#
# Elastic Constant Matrix: (Units=GPa)
#
#
# Indices 1 2 3 4 5 6 
#
# 1 88.7510 40.1688 38.8717 0.0000 0.0000 0.0000
# 2 40.1688 88.7510 38.8717 0.0000 0.0000 0.0000
# 3 38.8717 38.8717 127.7742 0.0000 0.0000 0.0000
# 4 0.0000 0.0000 0.0000 28.9013 0.0000 0.0000
# 5 0.0000 0.0000 0.0000 0.0000 28.9013 0.0000
# 6 0.0000 0.0000 0.0000 0.0000 0.0000 40.1599
#
#
#
# Elastic Compliance Matrix: (Units=1/GPa)
#
#
# Indices 1 2 3 4 5 6 
#
# 1 0.015042 -0.005542 -0.002890 0.000000 0.000000 0.000000
# 2 -0.005542 0.015042 -0.002890 0.000000 0.000000 0.000000
# 3 -0.002890 -0.002890 0.009585 0.000000 0.000000 0.000000
# 4 0.000000 0.000000 0.000000 0.034601 0.000000 0.000000
# 5 0.000000 0.000000 0.000000 0.000000 0.034601 0.000000
# 6 0.000000 0.000000 0.000000 0.000000 0.000000 0.024900
#
#
# Mechanical properties :
#
#
# Convention : Reuss Voigt Hill
#
# Bulk Modulus (GPa) = 58.74107 60.12232 59.43169
# Shear Modulus (GPa) = 30.84743 32.08342 31.46543
#
# Velocity S-wave (km/s) = 3.83750 3.91363 3.87575
# Velocity P-wave (km/s) = 6.90492 7.00886 6.95708
#
# Compressibility (1/GPa) = 0.01702387
#
# Stress axis : x y z
#
# Youngs Moduli (GPa) = 66.48234 66.48234 104.33312
#
# Poissons Ratio (x) = 0.36845 0.30152
# Poissons Ratio (y) = 0.36845 0.30152
# Poissons Ratio (z) = 0.19213 0.19213
#
# Static dielectric constant tensor:
#      x y z
#    x 1.763280 0.000000 0.000000 
#    y 0.000000 1.763280 0.000000 
#    z 0.000000 0.000000 1.809750 
# 
# From -- ./inp_files/8519.got.cif
#   From: 2010.05.17/outbox.cif.g08.bks.cpg/sg136_5_cif.got.tgz:8519.got - 2010.05.20 12:54:53.
