data_PCOD9569383
_publ_section_title
;
Structure prediction by ZEFSAII (Michael W. Deem and Ramdas Pophale) SiO2 
 PCOD9569383
Probable space group: P 42/M N M
;
_chemical_formula_sum "Si O2"
_cell_formula_units_Z 120
_cell_length_a 27.181412
_cell_length_b 27.181412
_cell_length_c 7.686172
_cell_angle_alpha 90.000000
_cell_angle_beta 90.000000
_cell_angle_gamma 90.000000
_cell_volume 5678.767989
_symmetry_space_group_name_H-M "P 42/M N M"
_symmetry_group_IT_number 136
_symmetry_cell_setting 'tetragonal'
loop_
_space_group_symop_operation_xyz
x,y,z
1/2-y,1/2+x,1/2+z
-x,-y,z
1/2+y,1/2-x,1/2+z
1/2+x,1/2-y,1/2-z
1/2-x,1/2+y,1/2-z
y,x,-z
-y,-x,-z
-x,-y,-z
1/2+y,1/2-x,1/2-z
x,y,-z
1/2-y,1/2+x,1/2-z
1/2-x,1/2+y,1/2+z
1/2+x,1/2-y,1/2+z
-y,-x,z
y,x,z
loop_
_atom_site_type_symbol
_atom_site_label
_atom_site_fract_x
_atom_site_fract_y
_atom_site_fract_z
Si Si1 0.541037 0.729837 0.798768
Si Si2 0.957703 0.957703 0.203663
Si Si3 0.864696 0.295030 0.207751
Si Si4 0.323104 0.756593 0.786563
Si Si5 0.384339 0.928991 0.210434
Si Si6 0.239665 0.566374 0.197473
Si Si7 0.638595 0.963584 0.202398
Si Si8 0.035562 0.883583 0.211661
O O1 0.592681 0.754033 0.738085
O O2 0.487201 0.745842 0.721822
O O3 0.543163 0.671285 0.775905
O O4 0.538190 0.743848 0.000000
O O5 0.984768 0.909375 0.274930
O O6 0.947830 0.947830 0.000000
O O7 0.000000 0.000000 0.209784
O O8 0.808111 0.297082 0.270496
O O9 0.889058 0.345323 0.272769
O O10 0.860947 0.297149 0.000000
O O11 0.288477 0.711524 0.736268
O O12 0.379686 0.749214 0.725322
O O13 0.325476 0.758049 0.000000
O O14 0.437005 0.913190 0.277032
O O15 0.365642 0.981492 0.269356
O O16 0.385187 0.929627 0.000000
O O17 0.180510 0.564942 0.195395
O O18 0.259690 0.566277 0.000000
O O19 0.652677 0.963942 0.000000
O O20 0.080385 0.919616 0.261945
O O21 0.034179 0.882923 0.000000
#
# Coordination Sequence:
#
# PCOD9569383 Si02
#       8
#    16   8  16  16  16  16  16  16
#     4  11  23  35  53  85 120 151 183 230 291 345
#     4   7  12  28  55  81 101 133 183 227 265 317
#     4  10  19  35  58  80 106 144 190 235 274 326
#     4   9  18  35  60  84 105 140 191 237 277 330
#     4  10  21  37  55  79 110 142 179 225 275 327
#     4  10  20  37  57  80 112 149 186 229 280 336
#     4  11  22  35  57  83 107 144 186 226 276 333
#     4   9  18  35  59  82 108 146 189 231 276 334
#
# _framework density 21.131345
#
# number of rings (size 3 to 8) (size 9 to 14) (size 15 to 20)
#    0.000    2.200    2.667    1.600    0.000    3.200 
#    1.200    3.000    0.000    2.400    0.000    0.000 
#    0.000    0.000    0.000    0.000    0.000    0.000 
#
# Total GULP energy -668642.270505 kJ/mol
# GULP energy per Si atom -5572.018921 kJ/mol
# Density = 2.108325 g / cm^3
# Si number density = 21.131345 Si / 1000 Ang^3
#
#
#
# Elastic Constant Matrix: (Units=GPa)
#
#
# Indices 1 2 3 4 5 6 
#
# 1 104.3670 26.8108 1.6763 0.0000 0.0000 0.0000
# 2 26.8108 104.3670 1.6763 0.0000 0.0000 0.0000
# 3 1.6763 1.6763 37.2912 0.0000 0.0000 0.0000
# 4 0.0000 0.0000 0.0000 -92.6395 0.0000 0.0000
# 5 0.0000 0.0000 0.0000 0.0000 -92.6395 0.0000
# 6 0.0000 0.0000 0.0000 0.0000 0.0000 27.9876
#
#
#
# Elastic Compliance Matrix: (Units=1/GPa)
#
#
# Indices 1 2 3 4 5 6 
#
# 1 0.010263 -0.002631 -0.000343 0.000000 0.000000 0.000000
# 2 -0.002631 0.010263 -0.000343 0.000000 0.000000 0.000000
# 3 -0.000343 -0.000343 0.026847 0.000000 0.000000 0.000000
# 4 0.000000 0.000000 0.000000 -0.010795 0.000000 0.000000
# 5 0.000000 0.000000 0.000000 0.000000 -0.010795 0.000000
# 6 0.000000 0.000000 0.000000 0.000000 0.000000 0.035730
#
#
# Mechanical properties :
#
#
# Convention : Reuss Voigt Hill
#
# Bulk Modulus (GPa) = 24.54679 34.03915 29.29297
# Shear Modulus (GPa) = 61.17898 -17.06749 22.05574
#
# Velocity S-wave (km/s) = 5.38652 -2.84507 3.23421
# Velocity P-wave (km/s) = 7.09420 2.31318 5.27629
#
# Compressibility (1/GPa) = 0.04073852
#
# Stress axis : x y z
#
# Youngs Moduli (GPa) = 97.43797 97.43797 37.24835
#
# Poissons Ratio (x) = 0.25635 0.01278
# Poissons Ratio (y) = 0.25635 0.01278
# Poissons Ratio (z) = 0.03343 0.03343
#
# Static dielectric constant tensor:
#      x y z
#    x 1.774060 0.000000 0.000000 
#    y 0.000000 1.774060 0.000000 
#    z 0.000000 0.000000 1.384600 
# 
# From -- ./inp_files/2286.got.cif
#   From: 2010.05.17/outbox.cif.g08.bks.cpg/sg136_2_cif.got.tgz:2286.got - 2010.05.20 12:54:53.
