data_PCOD9569393
_publ_section_title
;
Structure prediction by ZEFSAII (Michael W. Deem and Ramdas Pophale) SiO2 
 PCOD9569393
Probable space group: P 42/M N M
;
_chemical_formula_sum "Si O2"
_cell_formula_units_Z 72
_cell_length_a 20.440099
_cell_length_b 20.440099
_cell_length_c 7.909797
_cell_angle_alpha 90.000000
_cell_angle_beta 90.000000
_cell_angle_gamma 90.000000
_cell_volume 3304.694576
_symmetry_space_group_name_H-M "P 42/M N M"
_symmetry_group_IT_number 136
_symmetry_cell_setting 'tetragonal'
loop_
_space_group_symop_operation_xyz
x,y,z
1/2-y,1/2+x,1/2+z
-x,-y,z
1/2+y,1/2-x,1/2+z
1/2+x,1/2-y,1/2-z
1/2-x,1/2+y,1/2-z
y,x,-z
-y,-x,-z
-x,-y,-z
1/2+y,1/2-x,1/2-z
x,y,-z
1/2-y,1/2+x,1/2-z
1/2-x,1/2+y,1/2+z
1/2+x,1/2-y,1/2+z
-y,-x,z
y,x,z
loop_
_atom_site_type_symbol
_atom_site_label
_atom_site_fract_x
_atom_site_fract_y
_atom_site_fract_z
Si Si1 0.350705 0.859213 0.801227
Si Si2 0.164305 0.164305 0.816844
Si Si3 0.520813 0.323326 0.196086
Si Si4 0.239162 0.760838 0.810805
Si Si5 0.445815 0.445815 0.795108
Si Si6 0.996323 0.673842 0.304047
O O1 0.284116 0.821634 0.735642
O O2 0.422611 0.837365 0.733254
O O3 0.351699 0.937729 0.781901
O O4 0.351158 0.841656 0.000000
O O5 0.175377 0.088017 0.795205
O O6 0.205073 0.205073 0.683661
O O7 0.187166 0.187166 0.000000
O O8 0.470578 0.376258 0.265296
O O9 0.493301 0.251380 0.196983
O O10 0.536858 0.340571 0.000000
O O11 0.218363 0.781638 0.000000
O O12 0.500000 0.500000 0.753191
O O13 0.441832 0.441832 0.000000
O O14 0.996056 0.650659 0.500000
#
# Coordination Sequence:
#
# PCOD9569393 Si02
#       6
#    16   8  16   8   8  16
#     4  10  22  40  64  90 118 156 198 244 297 354
#     4  12  22  31  54  89 115 146 193 247 295 333
#     4  10  19  36  57  80 113 153 198 237 286 358
#     4  10  20  41  66  86 115 159 203 239 292 363
#     4   9  16  27  54  84 105 146 195 235 277 341
#     4  10  22  39  61  87 116 155 197 248 303 351
#
# _framework density 21.787189000000001
#
# number of rings (size 3 to 8) (size 9 to 14) (size 15 to 20)
#    0.000    1.889    3.333    1.000    0.000    4.000 
#    0.000    4.444    0.000    0.000    0.000    0.000 
#    0.000    0.000    0.000    0.000    0.000    0.000 
#
# Total GULP energy -401034.365839 kJ/mol
# GULP energy per Si atom -5569.921748 kJ/mol
# Density = 2.173760 g / cm^3
# Si number density = 21.787189 Si / 1000 Ang^3
#
#
#
# Elastic Constant Matrix: (Units=GPa)
#
#
# Indices 1 2 3 4 5 6 
#
# 1 80.9342 39.8589 4.6284 0.0000 0.0000 0.0000
# 2 39.8589 80.9339 4.6282 0.0000 0.0000 0.0000
# 3 4.6284 4.6282 36.6253 0.0000 0.0000 0.0000
# 4 0.0000 0.0000 0.0000 -3.0231 0.0000 0.0000
# 5 0.0000 0.0000 0.0000 0.0000 -3.0245 0.0000
# 6 0.0000 0.0000 0.0000 0.0000 0.0000 33.5667
#
#
#
# Elastic Compliance Matrix: (Units=1/GPa)
#
#
# Indices 1 2 3 4 5 6 
#
# 1 0.016353 -0.007993 -0.001056 0.000000 0.000000 0.000000
# 2 -0.007993 0.016353 -0.001056 0.000000 0.000000 0.000000
# 3 -0.001056 -0.001056 0.027571 0.000000 0.000000 0.000000
# 4 0.000000 0.000000 0.000000 -0.330784 0.000000 0.000000
# 5 0.000000 0.000000 0.000000 0.000000 -0.330628 0.000000
# 6 0.000000 0.000000 0.000000 0.000000 0.000000 0.029791
#
#
# Mechanical properties :
#
#
# Convention : Reuss Voigt Hill
#
# Bulk Modulus (GPa) = 24.95997 32.96937 28.96467
# Shear Modulus (GPa) = -9.29751 15.46232 3.08241
#
# Velocity S-wave (km/s) = -2.06801 2.66691 1.19074
# Velocity P-wave (km/s) = 2.40393 4.96472 3.90047
#
# Compressibility (1/GPa) = 0.04006415
#
# Stress axis : x y z
#
# Youngs Moduli (GPa) = 61.15242 61.15221 36.27058
#
# Poissons Ratio (x) = 0.48879 0.03832
# Poissons Ratio (y) = 0.48879 0.03831
# Poissons Ratio (z) = 0.06460 0.06460
#
# Static dielectric constant tensor:
#      x y z
#    x 1.804080 0.000000 0.000000 
#    y 0.000000 1.804080 0.000000 
#    z 0.000000 0.000000 1.858640 
# 
# From -- ./inp_files/1646.got.cif
#   From: 2010.05.17/outbox.cif.g08.bks.cpg/sg136_1_cif.got.tgz:1646.got - 2010.05.20 12:54:53.
