data_PCOD9569334
_publ_section_title
;
Structure prediction by ZEFSAII (Michael W. Deem and Ramdas Pophale) SiO2 
 PCOD9569334
Probable space group: P 42/M N M
;
_chemical_formula_sum "Si O2"
_cell_formula_units_Z 88
_cell_length_a 19.721558
_cell_length_b 19.721558
_cell_length_c 13.665469
_cell_angle_alpha 90.000000
_cell_angle_beta 90.000000
_cell_angle_gamma 90.000000
_cell_volume 5315.045462
_symmetry_space_group_name_H-M "P 42/M N M"
_symmetry_group_IT_number 136
_symmetry_cell_setting 'tetragonal'
loop_
_space_group_symop_operation_xyz
x,y,z
1/2-y,1/2+x,1/2+z
-x,-y,z
1/2+y,1/2-x,1/2+z
1/2+x,1/2-y,1/2-z
1/2-x,1/2+y,1/2-z
y,x,-z
-y,-x,-z
-x,-y,-z
1/2+y,1/2-x,1/2-z
x,y,-z
1/2-y,1/2+x,1/2-z
1/2-x,1/2+y,1/2+z
1/2+x,1/2-y,1/2+z
-y,-x,z
y,x,z
loop_
_atom_site_type_symbol
_atom_site_label
_atom_site_fract_x
_atom_site_fract_y
_atom_site_fract_z
Si Si1 0.558254 0.441747 0.885477
Si Si2 0.737453 0.996548 0.883450
Si Si3 0.838248 0.730668 0.881357
Si Si4 0.584979 0.784503 0.884140
Si Si5 0.980870 0.387199 0.753251
Si Si6 0.040660 0.845768 0.726873
O O1 0.500000 0.500000 0.889407
O O2 0.524750 0.380445 0.824043
O O3 0.574478 0.425523 0.000000
O O4 0.736397 0.916788 0.857123
O O5 0.664888 0.023850 0.844459
O O6 0.800798 0.026530 0.823336
O O7 0.743907 0.004808 0.000000
O O8 0.792910 0.792910 0.845427
O O9 0.807139 0.659424 0.848164
O O10 0.834805 0.730532 0.000000
O O11 0.532288 0.837398 0.837807
O O12 0.569997 0.708909 0.849294
O O13 0.583441 0.788732 0.000000
O O14 0.924814 0.446722 0.752107
O O15 0.095151 0.904849 0.745841
#
# Coordination Sequence:
#
# PCOD9569334 Si02
#       6
#     8  16  16  16  16  16
#     4   9  18  34  55  81 113 143 174 218 271 318
#     4  10  21  36  53  76 108 143 181 222 267 320
#     4   9  17  30  50  74 100 132 171 218 263 300
#     4  10  19  33  54  81 105 132 176 222 264 314
#     4  10  20  34  53  78 108 140 173 215 269 326
#     4  10  21  35  54  80 107 141 181 220 265 320
#
# _framework density 16.556771999999999
#
# number of rings (size 3 to 8) (size 9 to 14) (size 15 to 20)
#    0.000    2.273    1.818    1.091    1.273    2.909 
#    0.000    1.818    0.000    1.636    0.000    0.000 
#    0.000    0.000    0.000    0.000    0.000    0.000 
#
# Total GULP energy -490284.918406 kJ/mol
# GULP energy per Si atom -5571.419527 kJ/mol
# Density = 1.651909 g / cm^3
# Si number density = 16.556772 Si / 1000 Ang^3
#
#
#
# Elastic Constant Matrix: (Units=GPa)
#
#
# Indices 1 2 3 4 5 6 
#
# 1 89.6073 38.8983 37.8633 0.0000 0.0000 0.0000
# 2 38.8983 89.6073 37.8633 0.0000 0.0000 0.0000
# 3 37.8633 37.8633 91.3953 0.0000 0.0000 0.0000
# 4 0.0000 0.0000 0.0000 11.9731 0.0000 0.0000
# 5 0.0000 0.0000 0.0000 0.0000 11.9731 0.0000
# 6 0.0000 0.0000 0.0000 0.0000 0.0000 14.4112
#
#
#
# Elastic Compliance Matrix: (Units=1/GPa)
#
#
# Indices 1 2 3 4 5 6 
#
# 1 0.015008 -0.004713 -0.004265 0.000000 0.000000 0.000000
# 2 -0.004713 0.015008 -0.004265 0.000000 0.000000 0.000000
# 3 -0.004265 -0.004265 0.014475 0.000000 0.000000 0.000000
# 4 0.000000 0.000000 0.000000 0.083521 0.000000 0.000000
# 5 0.000000 0.000000 0.000000 0.000000 0.083521 0.000000
# 6 0.000000 0.000000 0.000000 0.000000 0.000000 0.069390
#
#
# Mechanical properties :
#
#
# Convention : Reuss Voigt Hill
#
# Bulk Modulus (GPa) = 55.53917 55.53996 55.53956
# Shear Modulus (GPa) = 15.95354 18.07047 17.01200
#
# Velocity S-wave (km/s) = 3.10750 3.30726 3.20893
# Velocity P-wave (km/s) = 6.81857 6.94276 6.88095
#
# Compressibility (1/GPa) = 0.01800531
#
# Stress axis : x y z
#
# Youngs Moduli (GPa) = 66.63230 66.63232 69.08297
#
# Poissons Ratio (x) = 0.31401 0.29464
# Poissons Ratio (y) = 0.31401 0.29464
# Poissons Ratio (z) = 0.28419 0.28419
#
# Static dielectric constant tensor:
#      x y z
#    x 1.561640 0.000000 0.000000 
#    y 0.000000 1.561640 0.000000 
#    z 0.000000 0.000000 1.545150 
# 
# From -- ./inp_files/5043.got.cif
#   From: 2010.05.17/outbox.cif.g08.bks.cpg/sg136_3_cif.got.tgz:5043.got - 2010.05.20 12:54:53.
