data_PCOD9569993
_publ_section_title
;
Structure prediction by ZEFSAII (Michael W. Deem and Ramdas Pophale) SiO2 
 PCOD9569993
Probable space group: P 42/N M C
;
_chemical_formula_sum "Si O2"
_cell_formula_units_Z 112
_cell_length_a 15.162772
_cell_length_b 15.162772
_cell_length_c 26.479172
_cell_angle_alpha 90.000000
_cell_angle_beta 90.000000
_cell_angle_gamma 90.000000
_cell_volume 6087.817292
_symmetry_space_group_name_H-M "P 42/N M C"
_symmetry_group_IT_number 137
_space_group.IT_coordinate_system_code '2'
_symmetry_cell_setting 'tetragonal'
loop_
_space_group_symop_operation_xyz
x,y,z
1/2-y,x,1/2+z
1/2-x,1/2-y,z
y,1/2-x,1/2+z
1/2+x,-y,-z
-x,1/2+y,-z
1/2+y,1/2+x,1/2-z
-y,-x,1/2-z
-x,-y,-z
1/2+y,-x,1/2-z
1/2+x,1/2+y,-z
-y,1/2+x,1/2-z
1/2-x,y,z
x,1/2-y,z
1/2-y,1/2-x,1/2+z
y,x,1/2+z
loop_
_atom_site_type_symbol
_atom_site_label
_atom_site_fract_x
_atom_site_fract_y
_atom_site_fract_z
Si Si1 0.973806 0.352136 0.783923
Si Si2 0.355670 0.097934 0.130005
Si Si3 0.572383 0.469092 0.609078
Si Si4 0.842778 0.856216 0.479280
Si Si5 0.993013 0.855669 0.558859
Si Si6 0.643446 0.843427 0.758269
Si Si7 0.353527 0.645314 0.016517
O O1 0.904111 0.404111 0.750000
O O2 0.968963 0.250000 0.769228
O O3 0.965895 0.361046 0.844000
O O4 0.070081 0.389137 0.769471
O O5 0.250000 0.082687 0.128021
O O6 0.381827 0.147695 0.078839
O O7 0.373958 0.146956 0.182148
O O8 0.408532 0.007830 0.127949
O O9 0.536209 0.568251 0.597972
O O10 0.611647 0.421024 0.559428
O O11 0.750000 0.890570 0.500664
O O12 0.839173 0.750000 0.479851
O O13 0.927402 0.876897 0.512041
O O14 0.982596 0.750000 0.572255
O O15 0.090033 0.868309 0.534983
O O16 0.750000 0.842644 0.752512
O O17 0.608998 0.750000 0.739111
O O18 0.250000 0.626926 0.031209
O O19 0.362583 0.750000 0.009637
#
# Coordination Sequence:
#
# PCOD9569993 Si02
#       7
#    16  16  16  16  16  16  16
#     4  11  24  40  58  82 117 153 190 235 284 344
#     4  10  18  31  54  81 110 139 177 233 289 337
#     4  12  22  36  57  84 114 151 192 237 285 335
#     4   9  17  30  50  77 109 143 179 225 281 334
#     4  10  22  39  56  80 116 156 195 238 281 330
#     4   9  18  35  58  81 107 142 183 232 290 344
#     4  10  21  38  59  83 116 158 196 231 279 342
#
# _framework density 18.397397999999999
#
# number of rings (size 3 to 8) (size 9 to 14) (size 15 to 20)
#    0.000    1.857    2.857    1.714    0.000    4.143 
#    0.000    0.714    0.000    0.000    0.000    0.000 
#    0.000    0.286    0.000    0.000    0.000    0.000 
#
# Total GULP energy -624217.569289 kJ/mol
# GULP energy per Si atom -5573.371154 kJ/mol
# Density = 1.835552 g / cm^3
# Si number density = 18.397398 Si / 1000 Ang^3
#
#
#
# Elastic Constant Matrix: (Units=GPa)
#
#
# Indices 1 2 3 4 5 6 
#
# 1 83.2024 32.4097 15.2967 0.0000 0.0000 0.0000
# 2 32.4097 83.2024 15.2967 0.0000 0.0000 0.0000
# 3 15.2967 15.2967 39.6503 0.0000 0.0000 0.0000
# 4 0.0000 0.0000 0.0000 -51.4670 0.0000 0.0000
# 5 0.0000 0.0000 0.0000 0.0000 -51.4670 0.0000
# 6 0.0000 0.0000 0.0000 0.0000 0.0000 12.5655
#
#
#
# Elastic Compliance Matrix: (Units=1/GPa)
#
#
# Indices 1 2 3 4 5 6 
#
# 1 0.014660 -0.005027 -0.003716 0.000000 0.000000 0.000000
# 2 -0.005027 0.014660 -0.003716 0.000000 0.000000 0.000000
# 3 -0.003716 -0.003716 0.028088 0.000000 0.000000 0.000000
# 4 0.000000 0.000000 0.000000 -0.019430 0.000000 0.000000
# 5 0.000000 0.000000 0.000000 0.000000 -0.019430 0.000000
# 6 0.000000 0.000000 0.000000 0.000000 0.000000 0.079583
#
#
# Mechanical properties :
#
#
# Convention : Reuss Voigt Hill
#
# Bulk Modulus (GPa) = 30.77995 36.89571 33.83783
# Shear Modulus (GPa) = 37.34643 -8.53690 14.40476
#
# Velocity S-wave (km/s) = 4.51042 -2.15647 2.80121
# Velocity P-wave (km/s) = 6.62511 3.72799 5.37541
#
# Compressibility (1/GPa) = 0.03248868
#
# Stress axis : x y z
#
# Youngs Moduli (GPa) = 68.21077 68.21077 35.60245
#
# Poissons Ratio (x) = 0.34292 0.13231
# Poissons Ratio (y) = 0.34292 0.13231
# Poissons Ratio (z) = 0.25349 0.25349
#
# Static dielectric constant tensor:
#      x y z
#    x 1.665980 0.000000 0.000000 
#    y 0.000000 1.665980 0.000000 
#    z 0.000000 0.000000 1.636030 
# 
# From -- ./inp_files/9804.got.cif
#   From: 2010.05.17/outbox.cif.g08.bks.cpg/sg137_5_cif.got.tgz:9804.got - 2010.05.20 13:01:12.
