data_PCOD9569153
_publ_section_title
;
Structure prediction by ZEFSAII (Michael W. Deem and Ramdas Pophale) SiO2 
 PCOD9569153
Probable space group: P 42/M N M
;
_chemical_formula_sum "Si O2"
_cell_formula_units_Z 128
_cell_length_a 20.640430
_cell_length_b 20.640430
_cell_length_c 18.738285
_cell_angle_alpha 90.000000
_cell_angle_beta 90.000000
_cell_angle_gamma 90.000000
_cell_volume 7983.021913
_symmetry_space_group_name_H-M "P 42/M N M"
_symmetry_group_IT_number 136
_symmetry_cell_setting 'tetragonal'
loop_
_space_group_symop_operation_xyz
x,y,z
1/2-y,1/2+x,1/2+z
-x,-y,z
1/2+y,1/2-x,1/2+z
1/2+x,1/2-y,1/2-z
1/2-x,1/2+y,1/2-z
y,x,-z
-y,-x,-z
-x,-y,-z
1/2+y,1/2-x,1/2-z
x,y,-z
1/2-y,1/2+x,1/2-z
1/2-x,1/2+y,1/2+z
1/2+x,1/2-y,1/2+z
-y,-x,z
y,x,z
loop_
_atom_site_type_symbol
_atom_site_label
_atom_site_fract_x
_atom_site_fract_y
_atom_site_fract_z
Si Si1 0.239505 0.505410 0.319695
Si Si2 0.573551 0.022109 0.579473
Si Si3 0.328995 0.103139 0.080653
Si Si4 0.500663 0.106447 0.231098
Si Si5 0.702240 0.194845 0.302129
Si Si6 0.290360 0.603962 0.217066
Si Si7 0.139539 0.751553 0.841073
Si Si8 0.344510 0.767283 0.081496
O O1 0.222146 0.554564 0.383563
O O2 0.171916 0.498720 0.275775
O O3 0.288213 0.538790 0.263182
O O4 0.261118 0.436509 0.350456
O O5 0.593587 0.000361 0.500000
O O6 0.572104 0.099824 0.579526
O O7 0.615609 0.997518 0.645780
O O8 0.500000 0.000000 0.592729
O O9 0.335331 0.164424 0.132593
O O10 0.310862 0.120161 0.000000
O O11 0.562522 0.062701 0.252817
O O12 0.760412 0.239589 0.328501
O O13 0.652315 0.241885 0.260064
O O14 0.729644 0.148250 0.241339
O O15 0.359096 0.640904 0.213826
O O16 0.258416 0.602773 0.138311
O O17 0.185960 0.814041 0.852457
O O18 0.169556 0.693248 0.888623
O O19 0.288936 0.711065 0.082937
O O20 0.366056 0.775677 0.000000
#
# Coordination Sequence:
#
# PCOD9569153 Si02
#       8
#    16  16  16  16  16  16  16  16
#     4  11  20  29  50  65  89 123 157 196 233 277
#     4  10  18  30  41  54  85 123 152 184 214 247
#     4  10  19  29  42  65  89 113 151 193 228 270
#     4  11  19  30  44  62  85 120 159 185 215 274
#     4   8  15  30  48  64  84 113 148 193 235 270
#     4   8  16  30  46  66  89 118 155 191 230 272
#     4   9  18  30  47  69  92 120 159 195 234 283
#     4   8  14  27  47  69  96 124 148 185 237 289
#
# _framework density 16.034027999999999
#
# number of rings (size 3 to 8) (size 9 to 14) (size 15 to 20)
#    0.000    2.625    2.500    2.250    3.500    0.750 
#    0.000    0.625    0.000    1.125    0.000    0.000 
#    0.000    0.000    0.000   12.500    0.000    0.000 
#
# Total GULP energy -713175.527201 kJ/mol
# GULP energy per Si atom -5571.683806 kJ/mol
# Density = 1.599753 g / cm^3
# Si number density = 16.034028 Si / 1000 Ang^3
#
#
#
# Elastic Constant Matrix: (Units=GPa)
#
#
# Indices 1 2 3 4 5 6 
#
# 1 27.8320 -9.1971 -0.7731 0.0000 0.0000 0.0000
# 2 -9.1971 27.8320 -0.7731 0.0000 0.0000 0.0000
# 3 -0.7731 -0.7731 89.0750 0.0000 0.0000 0.0000
# 4 0.0000 0.0000 0.0000 13.1244 0.0000 0.0000
# 5 0.0000 0.0000 0.0000 0.0000 13.1244 0.0000
# 6 0.0000 0.0000 0.0000 0.0000 0.0000 11.6152
#
#
#
# Elastic Compliance Matrix: (Units=1/GPa)
#
#
# Indices 1 2 3 4 5 6 
#
# 1 0.040354 0.013348 0.000466 0.000000 0.000000 0.000000
# 2 0.013348 0.040354 0.000466 0.000000 0.000000 0.000000
# 3 0.000466 0.000466 0.011235 0.000000 0.000000 0.000000
# 4 0.000000 0.000000 0.000000 0.076194 0.000000 0.000000
# 5 0.000000 0.000000 0.000000 0.000000 0.076194 0.000000
# 6 0.000000 0.000000 0.000000 0.000000 0.000000 0.086094
#
#
# Mechanical properties :
#
#
# Convention : Reuss Voigt Hill
#
# Bulk Modulus (GPa) = 8.29862 13.69469 10.99666
# Shear Modulus (GPa) = 14.61857 17.93830 16.27844
#
# Velocity S-wave (km/s) = 3.02275 3.34842 3.18974
# Velocity P-wave (km/s) = 4.16768 4.84859 4.52097
#
# Compressibility (1/GPa) = 0.12050202
#
# Stress axis : x y z
#
# Youngs Moduli (GPa) = 24.78091 24.78091 89.01084
#
# Poissons Ratio (x) = -0.33077 -0.04149
# Poissons Ratio (y) = -0.33077 -0.04149
# Poissons Ratio (z) = -0.01155 -0.01155
#
# Static dielectric constant tensor:
#      x y z
#    x 1.548060 0.000000 0.000000 
#    y 0.000000 1.548060 0.000000 
#    z 0.000000 0.000000 1.576120 
# 
# From -- ./inp_files/6665.got.cif
#   From: 2010.05.17/outbox.cif.g08.bks.cpg/sg136_4_cif.got.tgz:6665.got - 2010.05.20 12:54:53.
