data_PCOD9569580
_publ_section_title
;
Structure prediction by ZEFSAII (Michael W. Deem and Ramdas Pophale) SiO2 
 PCOD9569580
Probable space group: P 42/M N M
;
_chemical_formula_sum "Si O2"
_cell_formula_units_Z 64
_cell_length_a 19.607766
_cell_length_b 19.607766
_cell_length_c 7.847596
_cell_angle_alpha 90.000000
_cell_angle_beta 90.000000
_cell_angle_gamma 90.000000
_cell_volume 3017.121974
_symmetry_space_group_name_H-M "P 42/M N M"
_symmetry_group_IT_number 136
_symmetry_cell_setting 'tetragonal'
loop_
_space_group_symop_operation_xyz
x,y,z
1/2-y,1/2+x,1/2+z
-x,-y,z
1/2+y,1/2-x,1/2+z
1/2+x,1/2-y,1/2-z
1/2-x,1/2+y,1/2-z
y,x,-z
-y,-x,-z
-x,-y,-z
1/2+y,1/2-x,1/2-z
x,y,-z
1/2-y,1/2+x,1/2-z
1/2-x,1/2+y,1/2+z
1/2+x,1/2-y,1/2+z
-y,-x,z
y,x,z
loop_
_atom_site_type_symbol
_atom_site_label
_atom_site_fract_x
_atom_site_fract_y
_atom_site_fract_z
Si Si1 0.838484 0.273118 0.000000
Si Si2 0.342245 0.452424 0.500000
Si Si3 0.279941 0.164751 0.191330
Si Si4 0.006602 0.611062 0.701618
Si Si5 0.480327 0.735078 0.201427
O O1 0.893400 0.214643 0.000000
O O2 0.837700 0.315681 0.826816
O O3 0.765706 0.234295 0.000000
O O4 0.415398 0.415398 0.500000
O O5 0.323665 0.493036 0.672393
O O6 0.227521 0.227521 0.176561
O O7 0.241145 0.100468 0.269820
O O8 0.305224 0.149705 0.000000
O O9 0.069610 0.561177 0.742697
O O10 0.002443 0.616962 0.500000
O O11 0.006462 0.689578 0.762695
O O12 0.496358 0.725240 0.000000
#
# Coordination Sequence:
#
# PCOD9569580 Si02
#       5
#     8   8  16  16  16
#     4   9  20  38  60  86 122 157 194 250 306 361
#     4  11  26  44  61  86 127 170 204 251 315 370
#     4  10  20  36  62  93 120 152 202 258 311 361
#     4  10  22  35  53  82 120 162 198 242 291 352
#     4  11  24  38  62  91 116 163 206 252 306 364
#
# _framework density 21.212268999999999
#
# number of rings (size 3 to 8) (size 9 to 14) (size 15 to 20)
#    0.000    1.750    2.500    1.500    7.000    1.500 
#    0.000    2.500    0.000    1.500    0.000    1.750 
#    0.000    0.000    0.000    0.000    0.000    0.000 
#
# Total GULP energy -357330.427092 kJ/mol
# GULP energy per Si atom -5583.287923 kJ/mol
# Density = 2.116399 g / cm^3
# Si number density = 21.212269 Si / 1000 Ang^3
#
#
#
# Elastic Constant Matrix: (Units=GPa)
#
#
# Indices 1 2 3 4 5 6 
#
# 1 32.9034 -10.3736 9.4058 0.0000 0.0000 0.0000
# 2 -10.3736 32.9026 9.4060 0.0000 0.0000 0.0000
# 3 9.4058 9.4060 103.6932 0.0000 0.0000 0.0000
# 4 0.0000 0.0000 0.0000 -0.2180 0.0000 0.0000
# 5 0.0000 0.0000 0.0000 0.0000 -0.2165 0.0000
# 6 0.0000 0.0000 0.0000 0.0000 0.0000 34.1711
#
#
#
# Elastic Compliance Matrix: (Units=1/GPa)
#
#
# Indices 1 2 3 4 5 6 
#
# 1 0.035565 0.012458 -0.004356 0.000000 0.000000 0.000000
# 2 0.012458 0.035566 -0.004356 0.000000 0.000000 0.000000
# 3 -0.004356 -0.004356 0.010434 0.000000 0.000000 0.000000
# 4 0.000000 0.000000 0.000000 -4.586191 0.000000 0.000000
# 5 0.000000 0.000000 0.000000 0.000000 -4.619077 0.000000
# 6 0.000000 0.000000 0.000000 0.000000 0.000000 0.029264
#
#
# Mechanical properties :
#
#
# Convention : Reuss Voigt Hill
#
# Bulk Modulus (GPa) = 11.22878 20.70841 15.96859
# Shear Modulus (GPa) = -0.55113 17.48472 8.46679
#
# Velocity S-wave (km/s) = -0.51028 2.87413 2.00003
# Velocity P-wave (km/s) = 2.22662 4.56046 3.58857
#
# Compressibility (1/GPa) = 0.08905690
#
# Stress axis : x y z
#
# Youngs Moduli (GPa) = 28.11752 28.11681 95.83940
#
# Poissons Ratio (x) = -0.35029 0.41749
# Poissons Ratio (y) = -0.35030 0.41750
# Poissons Ratio (z) = 0.12248 0.12248
#
# Static dielectric constant tensor:
#      x y z
#    x 1.798610 0.000000 0.000000 
#    y 0.000000 1.798610 0.000000 
#    z 0.000000 0.000000 1.811110 
# 
# From -- ./inp_files/1489.got.cif
#   From: 2010.05.17/outbox.cif.g08.bks.cpg/sg136_1_cif.got.tgz:1489.got - 2010.05.20 12:54:53.
