data_PCOD9569215
_publ_section_title
;
Structure prediction by ZEFSAII (Michael W. Deem and Ramdas Pophale) SiO2 
 PCOD9569215
Probable space group: P 42/M N M
;
_chemical_formula_sum "Si O2"
_cell_formula_units_Z 96
_cell_length_a 23.831962
_cell_length_b 23.831962
_cell_length_c 8.769557
_cell_angle_alpha 90.000000
_cell_angle_beta 90.000000
_cell_angle_gamma 90.000000
_cell_volume 4980.778753
_symmetry_space_group_name_H-M "P 42/M N M"
_symmetry_group_IT_number 136
_symmetry_cell_setting 'tetragonal'
loop_
_space_group_symop_operation_xyz
x,y,z
1/2-y,1/2+x,1/2+z
-x,-y,z
1/2+y,1/2-x,1/2+z
1/2+x,1/2-y,1/2-z
1/2-x,1/2+y,1/2-z
y,x,-z
-y,-x,-z
-x,-y,-z
1/2+y,1/2-x,1/2-z
x,y,-z
1/2-y,1/2+x,1/2-z
1/2-x,1/2+y,1/2+z
1/2+x,1/2-y,1/2+z
-y,-x,z
y,x,z
loop_
_atom_site_type_symbol
_atom_site_label
_atom_site_fract_x
_atom_site_fract_y
_atom_site_fract_z
Si Si1 0.956592 0.435315 0.168560
Si Si2 0.062320 0.062320 0.179208
Si Si3 0.225125 0.608301 0.184250
Si Si4 0.627220 0.540922 0.183495
Si Si5 0.148250 0.148250 0.681403
Si Si6 0.880882 0.327218 0.825073
Si Si7 0.744929 0.019117 0.684278
O O1 0.928052 0.494104 0.209961
O O2 0.912446 0.386634 0.170875
O O3 0.982019 0.437113 0.000000
O O4 0.108836 0.108836 0.219521
O O5 0.005544 0.085341 0.252262
O O6 0.055279 0.055279 0.000000
O O7 0.287389 0.631949 0.211156
O O8 0.179223 0.653495 0.242102
O O9 0.222583 0.542707 0.236824
O O10 0.216693 0.606338 0.000000
O O11 0.601722 0.601722 0.225314
O O12 0.690285 0.526810 0.233820
O O13 0.627233 0.537062 0.000000
O O14 0.137513 0.137513 0.500000
O O15 0.925635 0.287719 0.740896
O O16 0.873646 0.306666 0.000000
O O17 0.743114 0.018112 0.500000
#
# Coordination Sequence:
#
# PCOD9569215 Si02
#       7
#    16   8  16  16   8  16  16
#     4  10  19  31  49  72 104 139 177 229 282 334
#     4  12  23  35  58  93 128 150 176 232 299 343
#     4   9  18  35  60  82 105 143 195 239 276 331
#     4  10  21  39  63  87 113 152 198 233 271 339
#     4  10  18  37  65  84 106 151 204 239 269 328
#     4  10  21  35  51  79 112 143 182 233 284 338
#     4  10  20  37  60  83 110 150 194 239 283 333
#
# _framework density 19.274093000000001
#
# number of rings (size 3 to 8) (size 9 to 14) (size 15 to 20)
#    0.000    2.000    1.667    3.000    0.000    4.667 
#    1.500    1.667    0.000    0.000    0.000    0.000 
#    0.000    0.000    0.000    0.000    0.000    0.000 
#
# Total GULP energy -535129.576141 kJ/mol
# GULP energy per Si atom -5574.266418 kJ/mol
# Density = 1.923022 g / cm^3
# Si number density = 19.274093 Si / 1000 Ang^3
#
#
#
# Elastic Constant Matrix: (Units=GPa)
#
#
# Indices 1 2 3 4 5 6 
#
# 1 146.9467 -27.5204 6.7932 0.0000 0.0000 0.0000
# 2 -27.5204 146.9467 6.7932 0.0000 0.0000 0.0000
# 3 6.7932 6.7932 7.5673 0.0000 0.0000 0.0000
# 4 0.0000 0.0000 0.0000 16.1069 0.0000 0.0000
# 5 0.0000 0.0000 0.0000 0.0000 16.1069 0.0000
# 6 0.0000 0.0000 0.0000 0.0000 0.0000 34.0919
#
#
#
# Elastic Compliance Matrix: (Units=1/GPa)
#
#
# Indices 1 2 3 4 5 6 
#
# 1 0.007529 0.001797 -0.008372 0.000000 0.000000 0.000000
# 2 0.001797 0.007529 -0.008372 0.000000 0.000000 0.000000
# 3 -0.008372 -0.008372 0.147178 0.000000 0.000000 0.000000
# 4 0.000000 0.000000 0.000000 0.062085 0.000000 0.000000
# 5 0.000000 0.000000 0.000000 0.000000 0.062085 0.000000
# 6 0.000000 0.000000 0.000000 0.000000 0.000000 0.029332
#
#
# Mechanical properties :
#
#
# Convention : Reuss Voigt Hill
#
# Bulk Modulus (GPa) = 7.55614 30.39919 18.97766
# Shear Modulus (GPa) = 12.82886 34.28745 23.55816
#
# Velocity S-wave (km/s) = 2.58272 4.22232 3.49989
# Velocity P-wave (km/s) = 3.58090 6.29102 5.11858
#
# Compressibility (1/GPa) = 0.13234277
#
# Stress axis : x y z
#
# Youngs Moduli (GPa) = 132.82408 132.82408 6.79448
#
# Poissons Ratio (x) = -0.23869 0.05688
# Poissons Ratio (y) = -0.23869 0.05688
# Poissons Ratio (z) = 1.11197 1.11197
#
# Static dielectric constant tensor:
#      x y z
#    x 1.693330 0.000000 0.000000 
#    y 0.000000 1.693330 0.000000 
#    z 0.000000 0.000000 1.676580 
# 
# From -- ./inp_files/2033.got.cif
#   From: 2010.05.17/outbox.cif.g08.bks.cpg/sg136_2_cif.got.tgz:2033.got - 2010.05.20 12:54:53.
