data_PCOD9569680
_publ_section_title
;
Structure prediction by ZEFSAII (Michael W. Deem and Ramdas Pophale) SiO2 
 PCOD9569680
Probable space group: P 42/M N M
;
_chemical_formula_sum "Si O2"
_cell_formula_units_Z 96
_cell_length_a 24.543823
_cell_length_b 24.543823
_cell_length_c 7.423901
_cell_angle_alpha 90.000000
_cell_angle_beta 90.000000
_cell_angle_gamma 90.000000
_cell_volume 4472.152376
_symmetry_space_group_name_H-M "P 42/M N M"
_symmetry_group_IT_number 136
_symmetry_cell_setting 'tetragonal'
loop_
_space_group_symop_operation_xyz
x,y,z
1/2-y,1/2+x,1/2+z
-x,-y,z
1/2+y,1/2-x,1/2+z
1/2+x,1/2-y,1/2-z
1/2-x,1/2+y,1/2-z
y,x,-z
-y,-x,-z
-x,-y,-z
1/2+y,1/2-x,1/2-z
x,y,-z
1/2-y,1/2+x,1/2-z
1/2-x,1/2+y,1/2+z
1/2+x,1/2-y,1/2+z
-y,-x,z
y,x,z
loop_
_atom_site_type_symbol
_atom_site_label
_atom_site_fract_x
_atom_site_fract_y
_atom_site_fract_z
Si Si1 0.513499 0.288340 0.220850
Si Si2 0.999740 0.912053 0.719416
Si Si3 0.566239 0.805413 0.790617
Si Si4 0.575047 0.045224 0.705505
Si Si5 0.774912 0.688355 0.717774
Si Si6 0.776636 0.863075 0.280890
O O1 0.498833 0.349663 0.278883
O O2 0.473329 0.240973 0.284613
O O3 0.575020 0.275481 0.277622
O O4 0.511943 0.288925 0.000000
O O5 0.999471 0.911617 0.500000
O O6 0.051349 0.948652 0.775106
O O7 0.945481 0.945481 0.773621
O O8 0.561368 0.866518 0.713769
O O9 0.627417 0.783297 0.781448
O O10 0.550253 0.812119 0.000000
O O11 0.572679 0.065164 0.500000
O O12 0.520395 0.068658 0.794415
O O13 0.774732 0.687443 0.500000
O O14 0.720177 0.720177 0.775009
O O15 0.825744 0.725989 0.775427
O O16 0.776314 0.863369 0.500000
O O17 0.831301 0.831301 0.226018
#
# Coordination Sequence:
#
# PCOD9569680 Si02
#       6
#    16  16  16  16  16  16
#     4   9  16  26  41  65  97 128 159 197 242 295
#     4   8  13  21  35  58  90 127 161 192 233 286
#     4  10  22  34  49  78 107 135 170 207 259 317
#     4  10  21  37  56  78 103 135 176 219 269 324
#     4   9  19  35  54  74  97 133 177 213 254 306
#     4   8  14  26  47  71  91 120 164 208 246 287
#
# _framework density 21.466172
#
# number of rings (size 3 to 8) (size 9 to 14) (size 15 to 20)
#    0.000    3.000    0.000    3.000    2.333    4.333 
#    0.000    1.667    0.000    0.000    0.000    0.000 
#    0.000    2.000    0.000    9.167    0.000    7.000 
#
# Total GULP energy -535869.905494 kJ/mol
# GULP energy per Si atom -5581.978182 kJ/mol
# Density = 2.141731 g / cm^3
# Si number density = 21.466172 Si / 1000 Ang^3
#
#
#
# Elastic Constant Matrix: (Units=GPa)
#
#
# Indices 1 2 3 4 5 6 
#
# 1 99.6321 111.1682 -8.9730 0.0000 0.0000 0.0000
# 2 111.1682 99.6321 -8.9730 0.0000 0.0000 0.0000
# 3 -8.9730 -8.9730 65.4143 0.0000 0.0000 0.0000
# 4 0.0000 0.0000 0.0000 -5.5694 0.0000 0.0000
# 5 0.0000 0.0000 0.0000 0.0000 -5.5694 0.0000
# 6 0.0000 0.0000 0.0000 0.0000 0.0000 15.8310
#
#
#
# Elastic Compliance Matrix: (Units=1/GPa)
#
#
# Indices 1 2 3 4 5 6 
#
# 1 -0.040942 0.045742 0.000658 0.000000 0.000000 0.000000
# 2 0.045742 -0.040942 0.000658 0.000000 0.000000 0.000000
# 3 0.000658 0.000658 0.015468 0.000000 0.000000 0.000000
# 4 0.000000 0.000000 0.000000 -0.179552 0.000000 0.000000
# 5 0.000000 0.000000 0.000000 0.000000 -0.179552 0.000000
# 6 0.000000 0.000000 0.000000 0.000000 0.000000 0.063167
#
#
# Mechanical properties :
#
#
# Convention : Reuss Voigt Hill
#
# Bulk Modulus (GPa) = 36.09957 50.12481 43.11219
# Shear Modulus (GPa) = -11.17977 12.36884 0.59454
#
# Velocity S-wave (km/s) = -2.28460 2.40302 0.52685
# Velocity P-wave (km/s) = 3.14552 5.57680 4.52741
#
# Compressibility (1/GPa) = 0.02770116
#
# Stress axis : x y z
#
# Youngs Moduli (GPa) = -24.42467 -24.42467 64.65046
#
# Poissons Ratio (x) = 1.11724 -0.04257
# Poissons Ratio (y) = 1.11724 -0.04257
# Poissons Ratio (z) = 0.01608 0.01608
#
# Static dielectric constant tensor:
#      x y z
#    x 1.742700 0.000000 0.000000 
#    y 0.000000 1.742700 0.000000 
#    z 0.000000 0.000000 1.835260 
# 
# From -- ./inp_files/2010.got.cif
#   From: 2010.05.17/outbox.cif.g08.bks.cpg/sg136_2_cif.got.tgz:2010.got - 2010.05.20 12:54:53.
