data_PCOD9569319
_publ_section_title
;
Structure prediction by ZEFSAII (Michael W. Deem and Ramdas Pophale) SiO2 
 PCOD9569319
Probable space group: P 42/M N M
;
_chemical_formula_sum "Si O2"
_cell_formula_units_Z 84
_cell_length_a 25.265069
_cell_length_b 25.265069
_cell_length_c 7.889970
_cell_angle_alpha 90.000000
_cell_angle_beta 90.000000
_cell_angle_gamma 90.000000
_cell_volume 5036.354935
_symmetry_space_group_name_H-M "P 42/M N M"
_symmetry_group_IT_number 136
_symmetry_cell_setting 'tetragonal'
loop_
_space_group_symop_operation_xyz
x,y,z
1/2-y,1/2+x,1/2+z
-x,-y,z
1/2+y,1/2-x,1/2+z
1/2+x,1/2-y,1/2-z
1/2-x,1/2+y,1/2-z
y,x,-z
-y,-x,-z
-x,-y,-z
1/2+y,1/2-x,1/2-z
x,y,-z
1/2-y,1/2+x,1/2-z
1/2-x,1/2+y,1/2+z
1/2+x,1/2-y,1/2+z
-y,-x,z
y,x,z
loop_
_atom_site_type_symbol
_atom_site_label
_atom_site_fract_x
_atom_site_fract_y
_atom_site_fract_z
Si Si1 0.000000 0.500000 0.250000
Si Si2 0.204780 0.444275 0.703426
Si Si3 0.084011 0.418001 0.708682
Si Si4 0.327490 0.756045 0.300412
Si Si5 0.757012 0.159785 0.800594
Si Si6 0.562729 0.203590 0.200957
O O1 0.956305 0.456477 0.305938
O O2 0.204903 0.440020 0.500000
O O3 0.143984 0.433045 0.754133
O O4 0.242337 0.397533 0.771886
O O5 0.219940 0.503727 0.749735
O O6 0.076840 0.424423 0.500000
O O7 0.072544 0.357324 0.755429
O O8 0.318857 0.762933 0.500000
O O9 0.298093 0.701908 0.247426
O O10 0.295511 0.803840 0.212940
O O11 0.389433 0.760709 0.267234
O O12 0.805004 0.194997 0.726616
O O13 0.768286 0.152859 0.000000
O O14 0.566811 0.203411 0.000000
#
# Coordination Sequence:
#
# PCOD9569319 Si02
#       6
#     4  16  16  16  16  16
#     4  12  18  32  40  54  88 128 170 204 234 268
#     4  10  19  33  47  65  92 122 158 201 243 282
#     4  10  20  30  41  59  85 120 161 201 237 273
#     4  10  20  33  50  72  95 122 158 200 248 295
#     4   9  17  31  51  71  93 124 160 200 246 295
#     4  11  21  34  48  68  93 123 163 201 243 289
#
# _framework density 16.678729000000001
#
# number of rings (size 3 to 8) (size 9 to 14) (size 15 to 20)
#    0.000    1.905    3.810    1.429    0.000    1.905 
#    0.000    0.000    0.000    0.000    0.000    0.000 
#    0.000    0.762    0.000    8.762    0.000    2.476 
#
# Total GULP energy -468060.322919 kJ/mol
# GULP energy per Si atom -5572.146701 kJ/mol
# Density = 1.664077 g / cm^3
# Si number density = 16.678729 Si / 1000 Ang^3
#
#
#
# Elastic Constant Matrix: (Units=GPa)
#
#
# Indices 1 2 3 4 5 6 
#
# 1 95.2332 79.1118 9.3485 0.0000 0.0000 0.0000
# 2 79.1118 95.2332 9.3485 0.0000 0.0000 0.0000
# 3 9.3485 9.3485 19.8146 0.0000 0.0000 0.0000
# 4 0.0000 0.0000 0.0000 15.5446 0.0000 0.0000
# 5 0.0000 0.0000 0.0000 0.0000 15.5446 0.0000
# 6 0.0000 0.0000 0.0000 0.0000 0.0000 30.5527
#
#
#
# Elastic Compliance Matrix: (Units=1/GPa)
#
#
# Indices 1 2 3 4 5 6 
#
# 1 0.034035 -0.027994 -0.002850 0.000000 0.000000 0.000000
# 2 -0.027994 0.034035 -0.002850 0.000000 0.000000 0.000000
# 3 -0.002850 -0.002850 0.053158 0.000000 0.000000 0.000000
# 4 0.000000 0.000000 0.000000 0.064331 0.000000 0.000000
# 5 0.000000 0.000000 0.000000 0.000000 0.064331 0.000000
# 6 0.000000 0.000000 0.000000 0.000000 0.000000 0.032730
#
#
# Mechanical properties :
#
#
# Convention : Reuss Voigt Hill
#
# Bulk Modulus (GPa) = 18.57389 45.09985 31.83687
# Shear Modulus (GPa) = 13.58858 19.82654 16.70756
#
# Velocity S-wave (km/s) = 2.85744 3.45154 3.16844
# Velocity P-wave (km/s) = 4.69543 6.55616 5.70220
#
# Compressibility (1/GPa) = 0.05383902
#
# Stress axis : x y z
#
# Youngs Moduli (GPa) = 29.38118 29.38118 18.81201
#
# Poissons Ratio (x) = 0.82250 0.05362
# Poissons Ratio (y) = 0.82250 0.05362
# Poissons Ratio (z) = 0.08375 0.08375
#
# Static dielectric constant tensor:
#      x y z
#    x 1.598690 0.000000 0.000000 
#    y 0.000000 1.598690 0.000000 
#    z 0.000000 0.000000 1.625500 
# 
# From -- ./inp_files/1867.got.cif
#   From: 2010.05.17/outbox.cif.g08.bks.cpg/sg136_1_cif.got.tgz:1867.got - 2010.05.20 12:54:53.
