data_PCOD9569749
_publ_section_title
;
Structure prediction by ZEFSAII (Michael W. Deem and Ramdas Pophale) SiO2 
 PCOD9569749
Probable space group: P 42/M N M
;
_chemical_formula_sum "Si O2"
_cell_formula_units_Z 88
_cell_length_a 13.267358
_cell_length_b 13.267358
_cell_length_c 24.270007
_cell_angle_alpha 90.000000
_cell_angle_beta 90.000000
_cell_angle_gamma 90.000000
_cell_volume 4272.074304
_symmetry_space_group_name_H-M "P 42/M N M"
_symmetry_group_IT_number 136
_symmetry_cell_setting 'tetragonal'
loop_
_space_group_symop_operation_xyz
x,y,z
1/2-y,1/2+x,1/2+z
-x,-y,z
1/2+y,1/2-x,1/2+z
1/2+x,1/2-y,1/2-z
1/2-x,1/2+y,1/2-z
y,x,-z
-y,-x,-z
-x,-y,-z
1/2+y,1/2-x,1/2-z
x,y,-z
1/2-y,1/2+x,1/2-z
1/2-x,1/2+y,1/2+z
1/2+x,1/2-y,1/2+z
-y,-x,z
y,x,z
loop_
_atom_site_type_symbol
_atom_site_label
_atom_site_fract_x
_atom_site_fract_y
_atom_site_fract_z
Si Si1 0.550780 0.900468 0.434579
Si Si2 0.412803 0.412803 0.861051
Si Si3 0.259698 0.574981 0.622862
Si Si4 0.308985 0.308985 0.246386
Si Si5 0.075058 0.924943 0.161808
Si Si6 0.945849 0.775687 0.435503
Si Si7 0.877911 0.408936 0.731229
O O1 0.558520 0.909452 0.500000
O O2 0.472965 0.810488 0.423511
O O3 0.667308 0.903441 0.415707
O O4 0.500000 0.000000 0.410253
O O5 0.500000 0.500000 0.848863
O O6 0.358682 0.358682 0.808846
O O7 0.325997 0.468233 0.897327
O O8 0.315671 0.684330 0.617985
O O9 0.349869 0.495058 0.628429
O O10 0.186513 0.568612 0.676456
O O11 0.362452 0.362452 0.296035
O O12 0.191336 0.327065 0.252407
O O13 0.000000 0.000000 0.193611
O O14 0.980434 0.767908 0.500000
O O15 0.854107 0.854107 0.434958
O O16 0.879378 0.503859 0.772570
#
# Coordination Sequence:
#
# PCOD9569749 Si02
#       7
#    16   8  16   8   8  16  16
#     4  10  24  42  64  96 131 168 212 266 325 388
#     4  10  22  38  62  99 126 169 213 261 324 388
#     4  11  24  43  68  92 128 172 216 269 325 384
#     4  12  23  41  62  90 129 166 208 262 315 378
#     4  10  23  44  64  92 127 169 212 262 323 375
#     4   9  19  38  63  92 130 170 213 263 317 382
#     4  11  25  41  63  94 122 166 211 257 312 380
#
# _framework density 20.598894000000001
#
# number of rings (size 3 to 8) (size 9 to 14) (size 15 to 20)
#    0.000    1.636    2.727    0.545    6.364    1.455 
#    1.636    0.000    0.000    1.636    0.000    0.000 
#    0.000    0.000    0.000    0.000    0.000    0.000 
#
# Total GULP energy -490343.159580 kJ/mol
# GULP energy per Si atom -5572.081359 kJ/mol
# Density = 2.055201 g / cm^3
# Si number density = 20.598894 Si / 1000 Ang^3
#
#
#
# Elastic Constant Matrix: (Units=GPa)
#
#
# Indices 1 2 3 4 5 6 
#
# 1 125.7103 44.9844 18.3203 0.0000 0.0000 0.0000
# 2 44.9844 125.7103 18.3203 0.0000 0.0000 0.0000
# 3 18.3203 18.3203 8.8690 0.0000 0.0000 0.0000
# 4 0.0000 0.0000 0.0000 5.8930 0.0000 0.0000
# 5 0.0000 0.0000 0.0000 0.0000 5.8930 0.0000
# 6 0.0000 0.0000 0.0000 0.0000 0.0000 34.6618
#
#
#
# Elastic Compliance Matrix: (Units=1/GPa)
#
#
# Indices 1 2 3 4 5 6 
#
# 1 0.011456 -0.000931 -0.021742 0.000000 0.000000 0.000000
# 2 -0.000931 0.011456 -0.021742 0.000000 0.000000 0.000000
# 3 -0.021742 -0.021742 0.202573 0.000000 0.000000 0.000000
# 4 0.000000 0.000000 0.000000 0.169692 0.000000 0.000000
# 5 0.000000 0.000000 0.000000 0.000000 0.169692 0.000000
# 6 0.000000 0.000000 0.000000 0.000000 0.000000 0.028850
#
#
# Mechanical properties :
#
#
# Convention : Reuss Voigt Hill
#
# Bulk Modulus (GPa) = 7.31760 47.05994 27.18877
# Shear Modulus (GPa) = 6.86718 21.20056 14.03387
#
# Velocity S-wave (km/s) = 1.82784 3.21161 2.61299
# Velocity P-wave (km/s) = 2.83104 6.05376 4.72561
#
# Compressibility (1/GPa) = 0.13665679
#
# Stress axis : x y z
#
# Youngs Moduli (GPa) = 87.28682 87.28682 4.93650
#
# Poissons Ratio (x) = 0.08127 0.10733
# Poissons Ratio (y) = 0.08127 0.10733
# Poissons Ratio (z) = 1.89776 1.89776
#
# Static dielectric constant tensor:
#      x y z
#    x 1.889540 0.000000 0.000000 
#    y 0.000000 1.889540 0.000000 
#    z 0.000000 0.000000 1.734580 
# 
# From -- ./inp_files/9783.got.cif
#   From: 2010.05.17/outbox.cif.g08.bks.cpg/sg136_5_cif.got.tgz:9783.got - 2010.05.20 12:54:53.
