data_PCOD9569574
_publ_section_title
;
Structure prediction by ZEFSAII (Michael W. Deem and Ramdas Pophale) SiO2 
 PCOD9569574
Probable space group: P 42/M N M
;
_chemical_formula_sum "Si O2"
_cell_formula_units_Z 96
_cell_length_a 15.446236
_cell_length_b 15.446236
_cell_length_c 19.539736
_cell_angle_alpha 90.000000
_cell_angle_beta 90.000000
_cell_angle_gamma 90.000000
_cell_volume 4661.911490
_symmetry_space_group_name_H-M "P 42/M N M"
_symmetry_group_IT_number 136
_symmetry_cell_setting 'tetragonal'
loop_
_space_group_symop_operation_xyz
x,y,z
1/2-y,1/2+x,1/2+z
-x,-y,z
1/2+y,1/2-x,1/2+z
1/2+x,1/2-y,1/2-z
1/2-x,1/2+y,1/2-z
y,x,-z
-y,-x,-z
-x,-y,-z
1/2+y,1/2-x,1/2-z
x,y,-z
1/2-y,1/2+x,1/2-z
1/2-x,1/2+y,1/2+z
1/2+x,1/2-y,1/2+z
-y,-x,z
y,x,z
loop_
_atom_site_type_symbol
_atom_site_label
_atom_site_fract_x
_atom_site_fract_y
_atom_site_fract_z
Si Si1 0.765350 0.097375 0.807143
Si Si2 0.527230 0.338043 0.582561
Si Si3 0.002987 0.140790 0.686786
Si Si4 0.283816 0.990750 0.418643
Si Si5 0.050814 0.582284 0.856998
Si Si6 0.330944 0.115621 0.080498
O O1 0.807297 0.192704 0.798416
O O2 0.661735 0.086151 0.811326
O O3 0.807958 0.056386 0.875957
O O4 0.801242 0.036441 0.747007
O O5 0.514281 0.333947 0.500000
O O6 0.569167 0.430834 0.598626
O O7 0.598871 0.266035 0.603767
O O8 0.086416 0.086416 0.709374
O O9 0.022469 0.201293 0.622538
O O10 0.929089 0.070912 0.668509
O O11 0.270975 0.990655 0.500000
O O12 0.367879 0.047000 0.399430
O O13 0.308985 0.893308 0.392812
O O14 0.000000 0.500000 0.824842
O O15 0.976045 0.622562 0.904951
O O16 0.326357 0.130683 0.000000
#
# Coordination Sequence:
#
# PCOD9569574 Si02
#       6
#    16  16  16  16  16  16
#     4  10  21  39  59  82 116 160 202 245 303 371
#     4   9  17  30  52  84 117 151 195 244 295 354
#     4  10  23  43  61  79 112 159 207 253 303 360
#     4  10  20  36  60  88 117 152 199 253 307 362
#     4   9  18  36  59  89 121 152 190 243 303 370
#     4   8  15  30  53  82 115 151 183 228 295 361
#
# _framework density 20.592410999999998
#
# number of rings (size 3 to 8) (size 9 to 14) (size 15 to 20)
#    0.000    2.667    0.000    1.000    0.000    6.000 
#    9.000    3.333    0.000    0.000    0.000    0.000 
#    0.000    0.000    0.000    0.000    0.000    0.000 
#
# Total GULP energy -534989.511513 kJ/mol
# GULP energy per Si atom -5572.807412 kJ/mol
# Density = 2.054554 g / cm^3
# Si number density = 20.592411 Si / 1000 Ang^3
#
#
#
# Elastic Constant Matrix: (Units=GPa)
#
#
# Indices 1 2 3 4 5 6 
#
# 1 37.8584 82.6959 20.8550 0.0000 0.0000 0.0000
# 2 82.6959 37.8584 20.8550 0.0000 0.0000 0.0000
# 3 20.8550 20.8550 56.2106 0.0000 0.0000 0.0000
# 4 0.0000 0.0000 0.0000 10.7157 0.0000 0.0000
# 5 0.0000 0.0000 0.0000 0.0000 10.7157 0.0000
# 6 0.0000 0.0000 0.0000 0.0000 0.0000 15.7326
#
#
#
# Elastic Compliance Matrix: (Units=1/GPa)
#
#
# Indices 1 2 3 4 5 6 
#
# 1 -0.006393 0.015910 -0.003531 0.000000 0.000000 0.000000
# 2 0.015910 -0.006393 -0.003531 0.000000 0.000000 0.000000
# 3 -0.003531 -0.003531 0.020410 0.000000 0.000000 0.000000
# 4 0.000000 0.000000 0.000000 0.093321 0.000000 0.000000
# 5 0.000000 0.000000 0.000000 0.000000 0.093321 0.000000
# 6 0.000000 0.000000 0.000000 0.000000 0.000000 0.063562
#
#
# Mechanical properties :
#
#
# Convention : Reuss Voigt Hill
#
# Bulk Modulus (GPa) = 39.49416 42.30436 40.89926
# Shear Modulus (GPa) = 20.11484 7.93422 14.02453
#
# Velocity S-wave (km/s) = 3.12878 1.96503 2.61253
# Velocity P-wave (km/s) = 5.68093 5.07314 5.38562
#
# Compressibility (1/GPa) = 0.02532020
#
# Stress axis : x y z
#
# Youngs Moduli (GPa) = -156.41989 -156.41989 48.99502
#
# Poissons Ratio (x) = 2.48859 0.17299
# Poissons Ratio (y) = 2.48859 0.17299
# Poissons Ratio (z) = -0.55229 -0.55229
#
# Static dielectric constant tensor:
#      x y z
#    x 1.998650 0.000000 0.000000 
#    y 0.000000 1.998650 0.000000 
#    z 0.000000 0.000000 1.708330 
# 
# From -- ./inp_files/7514.got.cif
#   From: 2010.05.17/outbox.cif.g08.bks.cpg/sg136_4_cif.got.tgz:7514.got - 2010.05.20 12:54:53.
