data_PCOD9569375
_publ_section_title
;
Structure prediction by ZEFSAII (Michael W. Deem and Ramdas Pophale) SiO2 
 PCOD9569375
Probable space group: P 42/M N M
;
_chemical_formula_sum "Si O2"
_cell_formula_units_Z 56
_cell_length_a 17.202620
_cell_length_b 17.202620
_cell_length_c 8.118096
_cell_angle_alpha 90.000000
_cell_angle_beta 90.000000
_cell_angle_gamma 90.000000
_cell_volume 2402.389244
_symmetry_space_group_name_H-M "P 42/M N M"
_symmetry_group_IT_number 136
_symmetry_cell_setting 'tetragonal'
loop_
_space_group_symop_operation_xyz
x,y,z
1/2-y,1/2+x,1/2+z
-x,-y,z
1/2+y,1/2-x,1/2+z
1/2+x,1/2-y,1/2-z
1/2-x,1/2+y,1/2-z
y,x,-z
-y,-x,-z
-x,-y,-z
1/2+y,1/2-x,1/2-z
x,y,-z
1/2-y,1/2+x,1/2-z
1/2-x,1/2+y,1/2+z
1/2+x,1/2-y,1/2+z
-y,-x,z
y,x,z
loop_
_atom_site_type_symbol
_atom_site_label
_atom_site_fract_x
_atom_site_fract_y
_atom_site_fract_z
Si Si1 0.695007 0.182778 0.697239
Si Si2 0.565429 0.303965 0.817993
Si Si3 0.369134 0.496179 0.500000
Si Si4 0.388969 0.959430 0.813779
O O1 0.687562 0.185675 0.500000
O O2 0.776010 0.223991 0.743264
O O3 0.626948 0.236657 0.773165
O O4 0.679776 0.096185 0.757831
O O5 0.618511 0.381490 0.828172
O O6 0.509212 0.318970 0.664531
O O7 0.530861 0.290635 0.000000
O O8 0.416275 0.416275 0.500000
O O9 0.434551 0.565450 0.500000
O O10 0.467187 0.907374 0.799816
O O11 0.378647 0.987117 0.000000
#
# Coordination Sequence:
#
# PCOD9569375 Si02
#       4
#    16  16   8  16
#     4  10  19  34  58  87 119 155 197 248 305 364
#     4   9  16  27  44  69 100 136 183 235 287 342
#     4   9  16  26  40  62  96 135 178 234 291 346
#     4  11  22  38  60  89 125 162 203 250 310 372
#
# _framework density 23.310127999999999
#
# number of rings (size 3 to 8) (size 9 to 14) (size 15 to 20)
#    0.000    2.143    1.429    4.286    0.000    2.286 
#    0.000    2.857    0.000    1.714    0.000    0.000 
#    0.000    0.000    0.000    0.000    0.000    0.000 
#
# Total GULP energy -313242.432085 kJ/mol
# GULP energy per Si atom -5593.614859 kJ/mol
# Density = 2.325707 g / cm^3
# Si number density = 23.310128 Si / 1000 Ang^3
#
#
#
# Elastic Constant Matrix: (Units=GPa)
#
#
# Indices 1 2 3 4 5 6 
#
# 1 59.8094 60.2321 18.3972 0.0000 0.0000 0.0000
# 2 60.2321 59.8092 18.3971 0.0000 0.0000 0.0000
# 3 18.3972 18.3971 132.8679 0.0000 0.0000 0.0000
# 4 0.0000 0.0000 0.0000 16.2349 0.0000 0.0000
# 5 0.0000 0.0000 0.0000 0.0000 16.2350 0.0000
# 6 0.0000 0.0000 0.0000 0.0000 0.0000 31.0718
#
#
#
# Elastic Compliance Matrix: (Units=1/GPa)
#
#
# Indices 1 2 3 4 5 6 
#
# 1 -1.178300 1.187002 -0.001204 0.000000 0.000000 0.000000
# 2 1.187002 -1.178303 -0.001205 0.000000 0.000000 0.000000
# 3 -0.001204 -0.001205 0.007860 0.000000 0.000000 0.000000
# 4 0.000000 0.000000 0.000000 0.061596 0.000000 0.000000
# 5 0.000000 0.000000 0.000000 0.000000 0.061595 0.000000
# 6 0.000000 0.000000 0.000000 0.000000 0.000000 0.032184
#
#
# Mechanical properties :
#
#
# Convention : Reuss Voigt Hill
#
# Bulk Modulus (GPa) = 48.92152 49.61549 49.26851
# Shear Modulus (GPa) = -1.09752 23.07235 10.98741
#
# Velocity S-wave (km/s) = -0.68692 3.14952 2.17343
# Velocity P-wave (km/s) = 4.51704 5.87853 5.24217
#
# Compressibility (1/GPa) = 0.02044090
#
# Stress axis : x y z
#
# Youngs Moduli (GPa) = -0.84868 -0.84868 127.22891
#
# Poissons Ratio (x) = 1.00738 0.15316
# Poissons Ratio (y) = 1.00738 0.15336
# Poissons Ratio (z) = -0.00102 -0.00102
#
# Static dielectric constant tensor:
#      x y z
#    x 1.881520 0.000000 0.000000 
#    y 0.000000 1.881520 0.000000 
#    z 0.000000 0.000000 1.828520 
# 
# From -- ./inp_files/1123.got.cif
#   From: 2010.05.17/outbox.cif.g08.bks.cpg/sg136_1_cif.got.tgz:1123.got - 2010.05.20 12:54:53.
