data_PCOD9569238
_publ_section_title
;
Structure prediction by ZEFSAII (Michael W. Deem and Ramdas Pophale) SiO2 
 PCOD9569238
Probable space group: P 42/M N M
;
_chemical_formula_sum "Si O2"
_cell_formula_units_Z 112
_cell_length_a 29.969103
_cell_length_b 29.969103
_cell_length_c 8.166382
_cell_angle_alpha 90.000000
_cell_angle_beta 90.000000
_cell_angle_gamma 90.000000
_cell_volume 7334.612594
_symmetry_space_group_name_H-M "P 42/M N M"
_symmetry_group_IT_number 136
_symmetry_cell_setting 'tetragonal'
loop_
_space_group_symop_operation_xyz
x,y,z
1/2-y,1/2+x,1/2+z
-x,-y,z
1/2+y,1/2-x,1/2+z
1/2+x,1/2-y,1/2-z
1/2-x,1/2+y,1/2-z
y,x,-z
-y,-x,-z
-x,-y,-z
1/2+y,1/2-x,1/2-z
x,y,-z
1/2-y,1/2+x,1/2-z
1/2-x,1/2+y,1/2+z
1/2+x,1/2-y,1/2+z
-y,-x,z
y,x,z
loop_
_atom_site_type_symbol
_atom_site_label
_atom_site_fract_x
_atom_site_fract_y
_atom_site_fract_z
Si Si1 0.334807 0.738994 0.694245
Si Si2 0.466100 0.397369 0.691140
Si Si3 0.890754 0.890754 0.814338
Si Si4 0.543085 0.456916 0.813088
Si Si5 0.302911 0.477219 0.187773
Si Si6 0.203703 0.076198 0.305280
Si Si7 0.767038 0.690859 0.686946
Si Si8 0.876631 0.196340 0.304944
O O1 0.339688 0.733348 0.500000
O O2 0.302036 0.697965 0.752732
O O3 0.383590 0.738180 0.774821
O O4 0.308794 0.784903 0.730131
O O5 0.465374 0.384496 0.500000
O O6 0.418321 0.418321 0.736780
O O7 0.501956 0.435677 0.719325
O O8 0.481147 0.356438 0.801162
O O9 0.919323 0.919323 0.690323
O O10 0.904160 0.839884 0.784550
O O11 0.902991 0.902991 0.000000
O O12 0.532543 0.467458 0.000000
O O13 0.286002 0.525398 0.253723
O O14 0.297834 0.427182 0.262702
O O15 0.287142 0.474574 0.000000
O O16 0.194990 0.072848 0.500000
O O17 0.777608 0.678798 0.500000
O O18 0.729434 0.729434 0.684727
O O19 0.742082 0.650234 0.774616
O O20 0.880934 0.188762 0.500000
O O21 0.844512 0.155489 0.241445
#
# Coordination Sequence:
#
# PCOD9569238 Si02
#       8
#    16  16   8   8  16  16  16  16
#     4  10  19  30  46  67  90 115 142 175 219 268
#     4  11  23  35  46  60  77  98 131 178 226 268
#     4  12  22  33  47  62  82 109 138 176 222 268
#     4  12  23  35  48  59  72  98 134 176 224 272
#     4  10  21  34  48  64  84 113 146 177 215 264
#     4  11  21  32  47  66  88 114 145 179 217 264
#     4   9  17  29  46  68  90 110 137 176 221 266
#     4   9  17  31  49  66  86 113 146 184 223 264
#
# _framework density 15.270064
#
# number of rings (size 3 to 8) (size 9 to 14) (size 15 to 20)
#    0.000    1.714    2.143    3.643    0.000    6.000 
#    0.000    1.429    0.000    0.000    0.000    0.000 
#    0.000    0.000    0.000    0.000    0.000    0.714 
#
# Total GULP energy -623928.769073 kJ/mol
# GULP energy per Si atom -5570.792581 kJ/mol
# Density = 1.523531 g / cm^3
# Si number density = 15.270064 Si / 1000 Ang^3
#
#
#
# Elastic Constant Matrix: (Units=GPa)
#
#
# Indices 1 2 3 4 5 6 
#
# 1 69.0874 52.9461 4.3643 0.0000 0.0000 0.0000
# 2 52.9461 69.0871 4.3641 0.0000 0.0000 0.0000
# 3 4.3643 4.3641 35.6745 0.0000 0.0000 0.0000
# 4 0.0000 0.0000 0.0000 21.6387 0.0000 0.0000
# 5 0.0000 0.0000 0.0000 0.0000 21.6383 0.0000
# 6 0.0000 0.0000 0.0000 0.0000 0.0000 29.3425
#
#
#
# Elastic Compliance Matrix: (Units=1/GPa)
#
#
# Indices 1 2 3 4 5 6 
#
# 1 0.035110 -0.026843 -0.001011 0.000000 0.000000 0.000000
# 2 -0.026843 0.035110 -0.001011 0.000000 0.000000 0.000000
# 3 -0.001011 -0.001011 0.028279 0.000000 0.000000 0.000000
# 4 0.000000 0.000000 0.000000 0.046214 0.000000 0.000000
# 5 0.000000 0.000000 0.000000 0.000000 0.046214 0.000000
# 6 0.000000 0.000000 0.000000 0.000000 0.000000 0.034080
#
#
# Mechanical properties :
#
#
# Convention : Reuss Voigt Hill
#
# Bulk Modulus (GPa) = 24.52965 33.02201 28.77583
# Shear Modulus (GPa) = 16.87321 22.00220 19.43770
#
# Velocity S-wave (km/s) = 3.32774 3.80000 3.57168
# Velocity P-wave (km/s) = 5.55553 6.39731 5.99122
#
# Compressibility (1/GPa) = 0.04076699
#
# Stress axis : x y z
#
# Youngs Moduli (GPa) = 28.48191 28.48179 35.36239
#
# Poissons Ratio (x) = 0.76454 0.03577
# Poissons Ratio (y) = 0.76455 0.03576
# Poissons Ratio (z) = 0.02881 0.02880
#
# Static dielectric constant tensor:
#      x y z
#    x 1.537200 0.000000 0.000000 
#    y 0.000000 1.537200 0.000000 
#    z 0.000000 0.000000 1.538860 
# 
# From -- ./inp_files/2408.got.cif
#   From: 2010.05.17/outbox.cif.g08.bks.cpg/sg136_2_cif.got.tgz:2408.got - 2010.05.20 12:54:53.
