data_PCOD9569961
_publ_section_title
;
Structure prediction by ZEFSAII (Michael W. Deem and Ramdas Pophale) SiO2 
 PCOD9569961
Probable space group: P 42/N M C
;
_chemical_formula_sum "Si O2"
_cell_formula_units_Z 88
_cell_length_a 14.510015
_cell_length_b 14.510015
_cell_length_c 25.617596
_cell_angle_alpha 90.000000
_cell_angle_beta 90.000000
_cell_angle_gamma 90.000000
_cell_volume 5393.542375
_symmetry_space_group_name_H-M "P 42/N M C"
_symmetry_group_IT_number 137
_space_group.IT_coordinate_system_code '2'
_symmetry_cell_setting 'tetragonal'
loop_
_space_group_symop_operation_xyz
x,y,z
1/2-y,x,1/2+z
1/2-x,1/2-y,z
y,1/2-x,1/2+z
1/2+x,-y,-z
-x,1/2+y,-z
1/2+y,1/2+x,1/2-z
-y,-x,1/2-z
-x,-y,-z
1/2+y,-x,1/2-z
1/2+x,1/2+y,-z
-y,1/2+x,1/2-z
1/2-x,y,z
x,1/2-y,z
1/2-y,1/2-x,1/2+z
y,x,1/2+z
loop_
_atom_site_type_symbol
_atom_site_label
_atom_site_fract_x
_atom_site_fract_y
_atom_site_fract_z
Si Si1 0.356159 0.512080 0.651855
Si Si2 0.359116 0.640885 0.750000
Si Si3 0.387902 0.644790 0.553938
Si Si4 0.146721 0.100297 0.979209
Si Si5 0.533647 0.859043 0.402617
Si Si6 0.347800 0.946415 0.443815
O O1 0.250000 0.484561 0.657871
O O2 0.381600 0.574377 0.701666
O O3 0.364432 0.578973 0.601701
O O4 0.415465 0.421476 0.639928
O O5 0.250000 0.629207 0.763133
O O6 0.357378 0.750000 0.562231
O O7 0.497717 0.646594 0.544833
O O8 0.350482 0.603037 0.500201
O O9 0.250000 0.139241 0.970448
O O10 0.055770 0.145255 0.955119
O O11 0.133613 0.088012 0.041738
O O12 0.526083 0.750000 0.391126
O O13 0.434693 0.905630 0.413385
O O14 0.250000 0.926038 0.417968
#
# Coordination Sequence:
#
# PCOD9569961 Si02
#       6
#    16   8  16  16  16  16
#     4  11  20  33  53  75 100 132 167 205 257 308
#     4   9  20  36  54  80 106 123 152 206 264 317
#     4  10  18  29  47  70  99 136 173 207 245 297
#     4   9  17  30  46  68 103 140 174 210 246 290
#     4  10  20  34  50  72 103 133 171 215 250 293
#     4  11  19  30  47  71 106 142 175 209 247 290
#
# _framework density 16.315809000000002
#
# number of rings (size 3 to 8) (size 9 to 14) (size 15 to 20)
#    0.000    1.909    3.636    3.818    0.000    4.000 
#    0.000    1.818    0.000    1.091    0.000    0.000 
#    0.000    0.000    0.000    0.000    0.000    0.000 
#
# Total GULP energy -490628.450776 kJ/mol
# GULP energy per Si atom -5575.323304 kJ/mol
# Density = 1.627867 g / cm^3
# Si number density = 16.315809 Si / 1000 Ang^3
#
#
#
# Elastic Constant Matrix: (Units=GPa)
#
#
# Indices 1 2 3 4 5 6 
#
# 1 112.0248 53.6829 36.7023 0.0000 0.0000 0.0000
# 2 53.6829 112.0250 36.7020 0.0000 0.0000 0.0000
# 3 36.7023 36.7020 58.4274 0.0000 0.0000 0.0000
# 4 0.0000 0.0000 0.0000 39.6922 0.0000 0.0000
# 5 0.0000 0.0000 0.0000 0.0000 39.6931 0.0000
# 6 0.0000 0.0000 0.0000 0.0000 0.0000 -25.0685
#
#
#
# Elastic Compliance Matrix: (Units=1/GPa)
#
#
# Indices 1 2 3 4 5 6 
#
# 1 0.012751 -0.004389 -0.005252 0.000000 0.000000 0.000000
# 2 -0.004389 0.012751 -0.005252 0.000000 0.000000 0.000000
# 3 -0.005252 -0.005252 0.023714 0.000000 0.000000 0.000000
# 4 0.000000 0.000000 0.000000 0.025194 0.000000 0.000000
# 5 0.000000 0.000000 0.000000 0.000000 0.025193 0.000000
# 6 0.000000 0.000000 0.000000 0.000000 0.000000 -0.039891
#
#
# Mechanical properties :
#
#
# Convention : Reuss Voigt Hill
#
# Bulk Modulus (GPa) = 51.47384 59.62795 55.55089
# Shear Modulus (GPa) = 52.09623 21.22267 36.65945
#
# Velocity S-wave (km/s) = 5.65679 3.61049 4.74526
# Velocity P-wave (km/s) = 8.61873 7.34890 8.00902
#
# Compressibility (1/GPa) = 0.01942735
#
# Stress axis : x y z
#
# Youngs Moduli (GPa) = 78.42595 78.42642 42.16930
#
# Poissons Ratio (x) = 0.34425 0.22149
# Poissons Ratio (y) = 0.34425 0.22148
# Poissons Ratio (z) = 0.41192 0.41192
#
# Static dielectric constant tensor:
#      x y z
#    x 1.575930 0.000000 0.000000 
#    y 0.000000 1.575930 0.000000 
#    z 0.000000 0.000000 1.504090 
# 
# From -- ./inp_files/8754.got.cif
#   From: 2010.05.17/outbox.cif.g08.bks.cpg/sg137_5_cif.got.tgz:8754.got - 2010.05.20 13:01:12.
