data_PCOD9569636
_publ_section_title
;
Structure prediction by ZEFSAII (Michael W. Deem and Ramdas Pophale) SiO2 
 PCOD9569636
Probable space group: P 42/M N M
;
_chemical_formula_sum "Si O2"
_cell_formula_units_Z 88
_cell_length_a 10.693494
_cell_length_b 10.693494
_cell_length_c 34.582464
_cell_angle_alpha 90.000000
_cell_angle_beta 90.000000
_cell_angle_gamma 90.000000
_cell_volume 3954.532906
_symmetry_space_group_name_H-M "P 42/M N M"
_symmetry_group_IT_number 136
_symmetry_cell_setting 'tetragonal'
loop_
_space_group_symop_operation_xyz
x,y,z
1/2-y,1/2+x,1/2+z
-x,-y,z
1/2+y,1/2-x,1/2+z
1/2+x,1/2-y,1/2-z
1/2-x,1/2+y,1/2-z
y,x,-z
-y,-x,-z
-x,-y,-z
1/2+y,1/2-x,1/2-z
x,y,-z
1/2-y,1/2+x,1/2-z
1/2-x,1/2+y,1/2+z
1/2+x,1/2-y,1/2+z
-y,-x,z
y,x,z
loop_
_atom_site_type_symbol
_atom_site_label
_atom_site_fract_x
_atom_site_fract_y
_atom_site_fract_z
Si Si1 0.749142 0.443636 0.778076
Si Si2 0.005813 0.792541 0.107868
Si Si3 0.253354 0.453345 0.303786
Si Si4 0.609627 0.826976 0.074494
Si Si5 0.004371 0.211244 0.500000
Si Si6 0.999097 0.796371 0.355793
O O1 0.609513 0.390488 0.778366
O O2 0.843731 0.344469 0.795993
O O3 0.775634 0.461919 0.733247
O O4 0.749145 0.541198 0.813008
O O5 0.903263 0.903263 0.104920
O O6 0.957751 0.683171 0.079609
O O7 0.999893 0.746163 0.152552
O O8 0.140138 0.859863 0.101506
O O9 0.390329 0.390329 0.299117
O O10 0.720899 0.720899 0.074447
O O11 0.526114 0.795616 0.037362
O O12 0.522639 0.806642 0.112049
O O13 0.899806 0.100195 0.500000
O O14 0.136945 0.136945 0.500000
O O15 0.861064 0.861064 0.356577
O O16 0.092298 0.907703 0.366218
#
# Coordination Sequence:
#
# PCOD9569636 Si02
#       6
#    16  16  16  16   8  16
#     4  10  21  34  49  71  99 132 174 222 274 324
#     4   9  18  33  51  70  97 138 185 227 270 327
#     4  10  21  35  50  70  99 135 177 226 276 323
#     4   9  17  29  49  75 104 138 175 217 276 343
#     4   9  16  28  49  81 116 141 168 220 290 355
#     4   9  17  30  48  71 100 134 171 214 267 330
#
# _framework density 22.252942000000001
#
# number of rings (size 3 to 8) (size 9 to 14) (size 15 to 20)
#    0.000    2.636    0.000    1.636    2.545    4.364 
#    0.000    0.455    0.000    2.727    0.000    2.545 
#    0.000    5.818    0.000    0.000    0.000    0.000 
#
# Total GULP energy -489940.380651 kJ/mol
# GULP energy per Si atom -5567.504326 kJ/mol
# Density = 2.220229 g / cm^3
# Si number density = 22.252942 Si / 1000 Ang^3
#
#
#
# Elastic Constant Matrix: (Units=GPa)
#
#
# Indices 1 2 3 4 5 6 
#
# 1 35.7763 58.3774 47.5379 0.0000 0.0000 0.0000
# 2 58.3774 35.7763 47.5378 0.0000 0.0000 0.0000
# 3 47.5379 47.5378 129.8713 0.0000 0.0000 0.0000
# 4 0.0000 0.0000 0.0000 -12.5096 0.0000 0.0000
# 5 0.0000 0.0000 0.0000 0.0000 -12.5111 0.0000
# 6 0.0000 0.0000 0.0000 0.0000 0.0000 24.5303
#
#
#
# Elastic Compliance Matrix: (Units=1/GPa)
#
#
# Indices 1 2 3 4 5 6 
#
# 1 -0.013699 0.030547 -0.006167 0.000000 0.000000 0.000000
# 2 0.030547 -0.013699 -0.006167 0.000000 0.000000 0.000000
# 3 -0.006167 -0.006167 0.012215 0.000000 0.000000 0.000000
# 4 0.000000 0.000000 0.000000 -0.079938 0.000000 0.000000
# 5 0.000000 0.000000 0.000000 0.000000 -0.079929 0.000000
# 6 0.000000 0.000000 0.000000 0.000000 0.000000 0.040766
#
#
# Mechanical properties :
#
#
# Convention : Reuss Voigt Hill
#
# Bulk Modulus (GPa) = 47.07426 56.48112 51.77769
# Shear Modulus (GPa) = -30.55706 3.09997 -13.72854
#
# Velocity S-wave (km/s) = -3.70965 1.18156 -2.48651
# Velocity P-wave (km/s) = 1.68862 5.22475 3.88261
#
# Compressibility (1/GPa) = 0.02124303
#
# Stress axis : x y z
#
# Youngs Moduli (GPa) = -73.00025 -73.00050 81.86791
#
# Poissons Ratio (x) = 2.22995 0.50490
# Poissons Ratio (y) = 2.22995 0.50490
# Poissons Ratio (z) = -0.45021 -0.45021
#
# Static dielectric constant tensor:
#      x y z
#    x 1.934620 0.000000 0.000000 
#    y 0.000000 1.934620 0.000000 
#    z 0.000000 0.000000 1.875720 
# 
# From -- ./inp_files/9763.got.cif
#   From: 2010.05.17/outbox.cif.g08.bks.cpg/sg136_5_cif.got.tgz:9763.got - 2010.05.20 12:54:53.
