data_PCOD9569880
_publ_section_title
;
Structure prediction by ZEFSAII (Michael W. Deem and Ramdas Pophale) SiO2 
 PCOD9569880
Probable space group: P 42/M N M
;
_chemical_formula_sum "Si O2"
_cell_formula_units_Z 36
_cell_length_a 13.672065
_cell_length_b 13.672065
_cell_length_c 8.528201
_cell_angle_alpha 90.000000
_cell_angle_beta 90.000000
_cell_angle_gamma 90.000000
_cell_volume 1594.137054
_symmetry_space_group_name_H-M "P 42/M N M"
_symmetry_group_IT_number 136
_symmetry_cell_setting 'tetragonal'
loop_
_space_group_symop_operation_xyz
x,y,z
1/2-y,1/2+x,1/2+z
-x,-y,z
1/2+y,1/2-x,1/2+z
1/2+x,1/2-y,1/2-z
1/2-x,1/2+y,1/2-z
y,x,-z
-y,-x,-z
-x,-y,-z
1/2+y,1/2-x,1/2-z
x,y,-z
1/2-y,1/2+x,1/2-z
1/2-x,1/2+y,1/2+z
1/2+x,1/2-y,1/2+z
-y,-x,z
y,x,z
loop_
_atom_site_type_symbol
_atom_site_label
_atom_site_fract_x
_atom_site_fract_y
_atom_site_fract_z
Si Si1 0.000000 0.500000 0.250000
Si Si2 0.639150 0.360851 0.178422
Si Si3 0.774688 0.225313 0.674334
Si Si4 0.027872 0.727115 0.177707
O O1 0.997702 0.611776 0.180889
O O2 0.721790 0.278211 0.182603
O O3 0.554027 0.305240 0.271452
O O4 0.612280 0.387720 0.000000
O O5 0.742876 0.257125 0.500000
O O6 0.886781 0.252437 0.698486
O O7 0.058564 0.748287 0.000000
#
# Coordination Sequence:
#
# PCOD9569880 Si02
#       4
#     4   8   8  16
#     4  12  26  40  76 106 146 176 238 280 354 400
#     4  12  26  45  70 103 144 185 233 289 351 415
#     4  12  26  45  70 103 144 185 233 289 351 415
#     4  12  26  46  73 105 142 185 237 290 350 415
#
# _framework density 22.582750999999998
#
# number of rings (size 3 to 8) (size 9 to 14) (size 15 to 20)
#    0.000    0.000    4.444    6.000    0.000    4.444 
#    0.000    4.444    0.000    0.000    0.000    0.000 
#    0.000    0.000    0.000    0.000    0.000    0.000 
#
# Total GULP energy -200588.962754 kJ/mol
# GULP energy per Si atom -5571.915632 kJ/mol
# Density = 2.253135 g / cm^3
# Si number density = 22.582751 Si / 1000 Ang^3
#
#
#
# Elastic Constant Matrix: (Units=GPa)
#
#
# Indices 1 2 3 4 5 6 
#
# 1 60.6452 -2.8303 5.0009 0.0000 0.0000 0.0000
# 2 -2.8303 60.6449 5.0007 0.0000 0.0000 0.0000
# 3 5.0009 5.0007 128.6554 0.0000 0.0000 0.0000
# 4 0.0000 0.0000 0.0000 68.5211 0.0000 0.0000
# 5 0.0000 0.0000 0.0000 0.0000 68.5223 0.0000
# 6 0.0000 0.0000 0.0000 0.0000 0.0000 44.6019
#
#
#
# Elastic Compliance Matrix: (Units=1/GPa)
#
#
# Indices 1 2 3 4 5 6 
#
# 1 0.016584 0.000830 -0.000677 0.000000 0.000000 0.000000
# 2 0.000830 0.016584 -0.000677 0.000000 0.000000 0.000000
# 3 -0.000677 -0.000677 0.007825 0.000000 0.000000 0.000000
# 4 0.000000 0.000000 0.000000 0.014594 0.000000 0.000000
# 5 0.000000 0.000000 0.000000 0.000000 0.014594 0.000000
# 6 0.000000 0.000000 0.000000 0.000000 0.000000 0.022421
#
#
# Mechanical properties :
#
#
# Convention : Reuss Voigt Hill
#
# Bulk Modulus (GPa) = 25.03424 29.36534 27.19979
# Shear Modulus (GPa) = 46.74445 52.51401 49.62923
#
# Velocity S-wave (km/s) = 4.55457 4.82748 4.69301
# Velocity P-wave (km/s) = 6.22643 6.64111 6.43711
#
# Compressibility (1/GPa) = 0.03994529
#
# Stress axis : x y z
#
# Youngs Moduli (GPa) = 60.29946 60.29918 127.79032
#
# Poissons Ratio (x) = -0.05004 0.08650
# Poissons Ratio (y) = -0.05004 0.08650
# Poissons Ratio (z) = 0.04082 0.04081
#
# Static dielectric constant tensor:
#      x y z
#    x 1.450360 0.000000 0.000000 
#    y 0.000000 1.450370 0.000000 
#    z 0.000000 0.000000 1.746500 
# 
# From -- ./inp_files/600.got.cif
#   From: 2010.05.17/outbox.cif.g08.bks.cpg/sg136_1_cif.got.tgz:600.got - 2010.05.20 12:54:53.
