data_PCOD9569951
_publ_section_title
;
Structure prediction by ZEFSAII (Michael W. Deem and Ramdas Pophale) SiO2 
 PCOD9569951
Probable space group: P 42/N M C
;
_chemical_formula_sum "Si O2"
_cell_formula_units_Z 96
_cell_length_a 14.016989
_cell_length_b 14.016989
_cell_length_c 32.495186
_cell_angle_alpha 90.000000
_cell_angle_beta 90.000000
_cell_angle_gamma 90.000000
_cell_volume 6384.523535
_symmetry_space_group_name_H-M "P 42/N M C"
_symmetry_group_IT_number 137
_space_group.IT_coordinate_system_code '2'
_symmetry_cell_setting 'tetragonal'
loop_
_space_group_symop_operation_xyz
x,y,z
1/2-y,x,1/2+z
1/2-x,1/2-y,z
y,1/2-x,1/2+z
1/2+x,-y,-z
-x,1/2+y,-z
1/2+y,1/2+x,1/2-z
-y,-x,1/2-z
-x,-y,-z
1/2+y,-x,1/2-z
1/2+x,1/2+y,-z
-y,1/2+x,1/2-z
1/2-x,y,z
x,1/2-y,z
1/2-y,1/2-x,1/2+z
y,x,1/2+z
loop_
_atom_site_type_symbol
_atom_site_label
_atom_site_fract_x
_atom_site_fract_y
_atom_site_fract_z
Si Si1 0.865959 0.641855 0.831659
Si Si2 0.019898 0.635645 0.040826
Si Si3 0.364994 0.358088 0.076068
Si Si4 0.858074 0.136010 0.877617
Si Si5 0.456333 0.635406 0.289880
Si Si6 0.986740 0.636162 0.502951
O O1 0.750000 0.641288 0.831991
O O2 0.896713 0.750000 0.824088
O O3 0.896576 0.613485 0.878034
O O4 0.895116 0.565059 0.798174
O O5 0.006543 0.750000 0.036115
O O6 0.071455 0.617440 0.084593
O O7 0.922329 0.575044 0.036312
O O8 0.090025 0.590060 0.006065
O O9 0.250000 0.353512 0.077741
O O10 0.399091 0.250000 0.067739
O O11 0.386220 0.428606 0.039205
O O12 0.750000 0.099171 0.887168
O O13 0.852232 0.250000 0.874051
O O14 0.886330 0.096268 0.833081
O O15 0.411866 0.588135 0.250000
O O16 0.451192 0.750000 0.284890
O O17 0.990037 0.750000 0.509347
#
# Coordination Sequence:
#
# PCOD9569951 Si02
#       6
#    16  16  16  16  16  16
#     4   8  14  24  38  57  81 108 135 164 203 249
#     4  10  20  31  44  64  89 119 154 186 220 266
#     4   8  13  23  41  63  84 106 134 170 212 253
#     4   9  17  29  44  62  87 117 144 172 211 260
#     4  10  18  27  42  64  88 111 137 172 212 257
#     4  10  19  30  45  65  89 117 151 190 225 257
#
# _framework density 15.036360999999999
#
# number of rings (size 3 to 8) (size 9 to 14) (size 15 to 20)
#    0.000    2.833    0.000    3.500    0.000    5.500 
#    0.000    0.000    0.000    1.000    0.000    2.333 
#    0.000    0.333    0.000    0.000    0.000    0.000 
#
# Total GULP energy -534448.709665 kJ/mol
# GULP energy per Si atom -5567.174059 kJ/mol
# Density = 1.500214 g / cm^3
# Si number density = 15.036361 Si / 1000 Ang^3
#
#
#
# Elastic Constant Matrix: (Units=GPa)
#
#
# Indices 1 2 3 4 5 6 
#
# 1 62.6553 24.9352 37.7831 0.0000 0.0000 0.0000
# 2 24.9352 62.6552 37.7830 0.0000 0.0000 0.0000
# 3 37.7831 37.7830 78.4367 0.0000 0.0000 0.0000
# 4 0.0000 0.0000 0.0000 23.6075 0.0000 0.0000
# 5 0.0000 0.0000 0.0000 0.0000 23.6075 0.0000
# 6 0.0000 0.0000 0.0000 0.0000 0.0000 14.3742
#
#
#
# Elastic Compliance Matrix: (Units=1/GPa)
#
#
# Indices 1 2 3 4 5 6 
#
# 1 0.023023 -0.003488 -0.009410 0.000000 0.000000 0.000000
# 2 -0.003488 0.023023 -0.009410 0.000000 0.000000 0.000000
# 3 -0.009410 -0.009410 0.021815 0.000000 0.000000 0.000000
# 4 0.000000 0.000000 0.000000 0.042359 0.000000 0.000000
# 5 0.000000 0.000000 0.000000 0.000000 0.042359 0.000000
# 6 0.000000 0.000000 0.000000 0.000000 0.000000 0.069569
#
#
# Mechanical properties :
#
#
# Convention : Reuss Voigt Hill
#
# Bulk Modulus (GPa) = 43.02065 44.97219 43.99642
# Shear Modulus (GPa) = 18.21407 19.20091 18.70749
#
# Velocity S-wave (km/s) = 3.48420 3.57734 3.53108
# Velocity P-wave (km/s) = 6.69771 6.85836 6.77851
#
# Compressibility (1/GPa) = 0.02324465
#
# Stress axis : x y z
#
# Youngs Moduli (GPa) = 43.43473 43.43474 45.84047
#
# Poissons Ratio (x) = 0.15150 0.43136
# Poissons Ratio (y) = 0.15150 0.43136
# Poissons Ratio (z) = 0.40872 0.40872
#
# Static dielectric constant tensor:
#      x y z
#    x 1.526940 0.000000 0.000000 
#    y 0.000000 1.526940 0.000000 
#    z 0.000000 0.000000 1.495260 
# 
# From -- ./inp_files/10614.got.cif
#   From: 2010.05.17/outbox.cif.g08.bks.cpg/sg137_6_cif.got.tgz:10614.got - 2010.05.20 13:01:12.
