data_PCOD9569898
_publ_section_title
;
Structure prediction by ZEFSAII (Michael W. Deem and Ramdas Pophale) SiO2 
 PCOD9569898
Probable space group: P 42/M N M
;
_chemical_formula_sum "Si O2"
_cell_formula_units_Z 64
_cell_length_a 12.025600
_cell_length_b 12.025600
_cell_length_c 23.013311
_cell_angle_alpha 90.000000
_cell_angle_beta 90.000000
_cell_angle_gamma 90.000000
_cell_volume 3328.071244
_symmetry_space_group_name_H-M "P 42/M N M"
_symmetry_group_IT_number 136
_symmetry_cell_setting 'tetragonal'
loop_
_space_group_symop_operation_xyz
x,y,z
1/2-y,1/2+x,1/2+z
-x,-y,z
1/2+y,1/2-x,1/2+z
1/2+x,1/2-y,1/2-z
1/2-x,1/2+y,1/2-z
y,x,-z
-y,-x,-z
-x,-y,-z
1/2+y,1/2-x,1/2-z
x,y,-z
1/2-y,1/2+x,1/2-z
1/2-x,1/2+y,1/2+z
1/2+x,1/2-y,1/2+z
-y,-x,z
y,x,z
loop_
_atom_site_type_symbol
_atom_site_label
_atom_site_fract_x
_atom_site_fract_y
_atom_site_fract_z
Si Si1 0.994459 0.186095 0.500000
Si Si2 0.903481 0.903481 0.067209
Si Si3 0.684935 0.014025 0.258361
Si Si4 0.741382 0.557845 0.364114
Si Si5 0.231951 0.576815 0.879777
O O1 0.878215 0.121786 0.500000
O O2 0.013617 0.252622 0.440378
O O3 0.090943 0.090943 0.500000
O O4 0.952238 0.795753 0.099132
O O5 0.882618 0.882618 0.000000
O O6 0.000000 0.000000 0.070929
O O7 0.614928 0.902947 0.242787
O O8 0.737113 0.997157 0.321633
O O9 0.765902 0.033352 0.204356
O O10 0.654343 0.654343 0.379176
O O11 0.860515 0.612691 0.377359
O O12 0.329104 0.670897 0.875857
#
# Coordination Sequence:
#
# PCOD9569898 Si02
#       5
#     8   8  16  16  16
#     4   9  18  32  50  74 101 133 172 212 253 300
#     4   9  18  30  48  74 104 129 158 208 259 303
#     4   9  18  33  52  71  99 133 164 202 248 298
#     4   9  18  31  49  75  97 127 168 206 252 302
#     4   9  18  31  51  73  97 132 168 206 250 301
#
# _framework density 19.230359
#
# number of rings (size 3 to 8) (size 9 to 14) (size 15 to 20)
#    0.000    3.000    0.000    0.000    3.500    1.000 
#    0.000    0.000    2.750    3.000    0.000    0.000 
#    0.000    0.000    0.000    0.000    0.000    0.000 
#
# Total GULP energy -356654.338699 kJ/mol
# GULP energy per Si atom -5572.724042 kJ/mol
# Density = 1.918659 g / cm^3
# Si number density = 19.230359 Si / 1000 Ang^3
#
#
#
# Elastic Constant Matrix: (Units=GPa)
#
#
# Indices 1 2 3 4 5 6 
#
# 1 29.5501 10.0234 38.7293 0.0000 0.0000 0.0000
# 2 10.0234 29.5498 38.7291 0.0000 0.0000 0.0000
# 3 38.7293 38.7291 164.8086 0.0000 0.0000 0.0000
# 4 0.0000 0.0000 0.0000 14.3171 0.0000 0.0000
# 5 0.0000 0.0000 0.0000 0.0000 14.3170 0.0000
# 6 0.0000 0.0000 0.0000 0.0000 0.0000 8.1469
#
#
#
# Elastic Compliance Matrix: (Units=1/GPa)
#
#
# Indices 1 2 3 4 5 6 
#
# 1 0.049002 -0.002210 -0.010996 0.000000 0.000000 0.000000
# 2 -0.002210 0.049003 -0.010996 0.000000 0.000000 0.000000
# 3 -0.010996 -0.010996 0.011236 0.000000 0.000000 0.000000
# 4 0.000000 0.000000 0.000000 0.069847 0.000000 0.000000
# 5 0.000000 0.000000 0.000000 0.000000 0.069847 0.000000
# 6 0.000000 0.000000 0.000000 0.000000 0.000000 0.122746
#
#
# Mechanical properties :
#
#
# Convention : Reuss Voigt Hill
#
# Bulk Modulus (GPa) = 16.43751 44.31912 30.37831
# Shear Modulus (GPa) = 11.35428 16.45131 13.90279
#
# Velocity S-wave (km/s) = 2.43252 2.92804 2.69171
# Velocity P-wave (km/s) = 4.05658 5.87603 5.04894
#
# Compressibility (1/GPa) = 0.06083647
#
# Stress axis : x y z
#
# Youngs Moduli (GPa) = 20.40725 20.40707 89.00247
#
# Poissons Ratio (x) = 0.04510 0.97867
# Poissons Ratio (y) = 0.04510 0.97867
# Poissons Ratio (z) = 0.22440 0.22440
#
# Static dielectric constant tensor:
#      x y z
#    x 1.687590 0.000000 0.000000 
#    y 0.000000 1.687590 0.000000 
#    z 0.000000 0.000000 1.646710 
# 
# From -- ./inp_files/8176.got.cif
#   From: 2010.05.17/outbox.cif.g08.bks.cpg/sg136_5_cif.got.tgz:8176.got - 2010.05.20 12:54:53.
