data_PCOD9569122
_publ_section_title
;
Structure prediction by ZEFSAII (Michael W. Deem and Ramdas Pophale) SiO2 
 PCOD9569122
Probable space group: P 42/M N M
;
_chemical_formula_sum "Si O2"
_cell_formula_units_Z 48
_cell_length_a 12.459363
_cell_length_b 12.459363
_cell_length_c 18.717353
_cell_angle_alpha 90.000000
_cell_angle_beta 90.000000
_cell_angle_gamma 90.000000
_cell_volume 2905.601889
_symmetry_space_group_name_H-M "P 42/M N M"
_symmetry_group_IT_number 136
_symmetry_cell_setting 'tetragonal'
loop_
_space_group_symop_operation_xyz
x,y,z
1/2-y,1/2+x,1/2+z
-x,-y,z
1/2+y,1/2-x,1/2+z
1/2+x,1/2-y,1/2-z
1/2-x,1/2+y,1/2-z
y,x,-z
-y,-x,-z
-x,-y,-z
1/2+y,1/2-x,1/2-z
x,y,-z
1/2-y,1/2+x,1/2-z
1/2-x,1/2+y,1/2+z
1/2+x,1/2-y,1/2+z
-y,-x,z
y,x,z
loop_
_atom_site_type_symbol
_atom_site_label
_atom_site_fract_x
_atom_site_fract_y
_atom_site_fract_z
Si Si1 0.870146 0.485896 0.165705
Si Si2 0.100063 0.720343 0.083460
Si Si3 0.715644 0.894721 0.183882
O O1 0.855081 0.397000 0.105055
O O2 0.818171 0.438396 0.237706
O O3 0.834756 0.608353 0.155013
O O4 0.000000 0.500000 0.171928
O O5 0.189680 0.810321 0.097278
O O6 0.996214 0.738849 0.133039
O O7 0.071474 0.722731 0.000000
O O8 0.814616 0.814616 0.188106
#
# Coordination Sequence:
#
# PCOD9569122 Si02
#       3
#    16  16  16
#     4  10  17  34  55  78 103 141 184 225 256 310
#     4  10  21  37  57  80 108 144 182 220 267 321
#     4  11  20  32  54  81 110 142 177 221 271 319
#
# _framework density 16.519812999999999
#
# number of rings (size 3 to 8) (size 9 to 14) (size 15 to 20)
#    0.000    1.667    6.667    1.000    0.000    7.333 
#    0.000    1.667    0.000    3.000    0.000    2.333 
#    0.000    0.000    0.000    0.000    0.000    0.000 
#
# Total GULP energy -267329.544156 kJ/mol
# GULP energy per Si atom -5569.365503 kJ/mol
# Density = 1.648221 g / cm^3
# Si number density = 16.519813 Si / 1000 Ang^3
#
#
#
# Elastic Constant Matrix: (Units=GPa)
#
#
# Indices 1 2 3 4 5 6 
#
# 1 77.2110 49.0266 45.7238 0.0000 0.0000 0.0000
# 2 49.0266 77.2110 45.7238 0.0000 0.0000 0.0000
# 3 45.7238 45.7238 71.6293 0.0000 0.0000 0.0000
# 4 0.0000 0.0000 0.0000 19.1583 0.0000 0.0000
# 5 0.0000 0.0000 0.0000 0.0000 19.1583 0.0000
# 6 0.0000 0.0000 0.0000 0.0000 0.0000 32.0721
#
#
#
# Elastic Compliance Matrix: (Units=1/GPa)
#
#
# Indices 1 2 3 4 5 6 
#
# 1 0.025108 -0.010373 -0.009406 0.000000 0.000000 0.000000
# 2 -0.010373 0.025108 -0.009406 0.000000 0.000000 0.000000
# 3 -0.009406 -0.009406 0.025970 0.000000 0.000000 0.000000
# 4 0.000000 0.000000 0.000000 0.052197 0.000000 0.000000
# 5 0.000000 0.000000 0.000000 0.000000 0.052197 0.000000
# 6 0.000000 0.000000 0.000000 0.000000 0.000000 0.031180
#
#
# Mechanical properties :
#
#
# Convention : Reuss Voigt Hill
#
# Bulk Modulus (GPa) = 56.13075 56.33330 56.23202
# Shear Modulus (GPa) = 18.11150 19.78288 18.94719
#
# Velocity S-wave (km/s) = 3.31471 3.46428 3.39032
# Velocity P-wave (km/s) = 6.97863 7.08351 7.03127
#
# Compressibility (1/GPa) = 0.01781555
#
# Stress axis : x y z
#
# Youngs Moduli (GPa) = 39.82783 39.82783 38.50663
#
# Poissons Ratio (x) = 0.41311 0.36220
# Poissons Ratio (y) = 0.41311 0.36220
# Poissons Ratio (z) = 0.37463 0.37463
#
# Static dielectric constant tensor:
#      x y z
#    x 1.576740 0.000000 0.000000 
#    y 0.000000 1.576740 0.000000 
#    z 0.000000 0.000000 1.559850 
# 
# From -- ./inp_files/4472.got.cif
#   From: 2010.05.17/outbox.cif.g08.bks.cpg/sg136_3_cif.got.tgz:4472.got - 2010.05.20 12:54:53.
