data_PCOD9569272
_publ_section_title
;
Structure prediction by ZEFSAII (Michael W. Deem and Ramdas Pophale) SiO2 
 PCOD9569272
Probable space group: P 42/M N M
;
_chemical_formula_sum "Si O2"
_cell_formula_units_Z 96
_cell_length_a 16.734362
_cell_length_b 16.734362
_cell_length_c 18.594366
_cell_angle_alpha 90.000000
_cell_angle_beta 90.000000
_cell_angle_gamma 90.000000
_cell_volume 5207.145272
_symmetry_space_group_name_H-M "P 42/M N M"
_symmetry_group_IT_number 136
_symmetry_cell_setting 'tetragonal'
loop_
_space_group_symop_operation_xyz
x,y,z
1/2-y,1/2+x,1/2+z
-x,-y,z
1/2+y,1/2-x,1/2+z
1/2+x,1/2-y,1/2-z
1/2-x,1/2+y,1/2-z
y,x,-z
-y,-x,-z
-x,-y,-z
1/2+y,1/2-x,1/2-z
x,y,-z
1/2-y,1/2+x,1/2-z
1/2-x,1/2+y,1/2+z
1/2+x,1/2-y,1/2+z
-y,-x,z
y,x,z
loop_
_atom_site_type_symbol
_atom_site_label
_atom_site_fract_x
_atom_site_fract_y
_atom_site_fract_z
Si Si1 0.372389 0.499305 0.652325
Si Si2 0.975348 0.714598 0.916968
Si Si3 0.226987 0.097748 0.340598
Si Si4 0.073240 0.797834 0.702973
Si Si5 0.664048 0.204713 0.309301
Si Si6 0.342424 0.215380 0.414594
O O1 0.428078 0.571923 0.677450
O O2 0.430812 0.430812 0.623359
O O3 0.310323 0.528465 0.593453
O O4 0.325968 0.463300 0.720657
O O5 0.904138 0.683346 0.866839
O O6 0.066674 0.698403 0.891206
O O7 0.966530 0.691100 0.000000
O O8 0.141889 0.141889 0.346603
O O9 0.263256 0.121297 0.262588
O O10 0.286162 0.141101 0.395920
O O11 0.219723 0.003225 0.345970
O O12 0.129635 0.870366 0.677410
O O13 0.130206 0.721011 0.709158
O O14 0.723742 0.276259 0.334328
O O15 0.348031 0.227080 0.500000
O O16 0.293806 0.293806 0.384649
#
# Coordination Sequence:
#
# PCOD9569272 Si02
#       6
#    16  16  16  16  16  16
#     4  10  19  31  50  79 113 144 177 223 280 336
#     4  11  21  34  53  78 114 154 187 221 265 326
#     4  10  19  34  59  84 107 140 184 234 278 324
#     4  10  20  35  55  78 109 144 183 235 282 324
#     4  10  21  35  51  76 109 150 193 225 267 321
#     4   9  19  36  59  86 113 145 184 226 278 334
#
# _framework density 18.436205999999999
#
# number of rings (size 3 to 8) (size 9 to 14) (size 15 to 20)
#    0.000    2.000    1.667    2.500    0.000    6.000 
#    0.000    2.500    0.000    3.500    0.000    2.333 
#    0.000    0.000    0.000    0.000    0.000    0.000 
#
# Total GULP energy -535387.514849 kJ/mol
# GULP energy per Si atom -5576.953280 kJ/mol
# Density = 1.839424 g / cm^3
# Si number density = 18.436206 Si / 1000 Ang^3
#
#
#
# Elastic Constant Matrix: (Units=GPa)
#
#
# Indices 1 2 3 4 5 6 
#
# 1 101.3230 47.3748 5.4845 0.0000 0.0000 0.0000
# 2 47.3748 101.3230 5.4845 0.0000 0.0000 0.0000
# 3 5.4845 5.4845 12.6251 0.0000 0.0000 0.0000
# 4 0.0000 0.0000 0.0000 21.6257 0.0000 0.0000
# 5 0.0000 0.0000 0.0000 0.0000 21.6257 0.0000
# 6 0.0000 0.0000 0.0000 0.0000 0.0000 29.5182
#
#
#
# Elastic Compliance Matrix: (Units=1/GPa)
#
#
# Indices 1 2 3 4 5 6 
#
# 1 0.012742 -0.005794 -0.003018 0.000000 0.000000 0.000000
# 2 -0.005794 0.012742 -0.003018 0.000000 0.000000 0.000000
# 3 -0.003018 -0.003018 0.081829 0.000000 0.000000 0.000000
# 4 0.000000 0.000000 0.000000 0.046241 0.000000 0.000000
# 5 0.000000 0.000000 0.000000 0.000000 0.046241 0.000000
# 6 0.000000 0.000000 0.000000 0.000000 0.000000 0.033877
#
#
# Mechanical properties :
#
#
# Convention : Reuss Voigt Hill
#
# Bulk Modulus (GPa) = 11.95427 36.88431 24.41929
# Shear Modulus (GPa) = 17.53041 25.01573 21.27307
#
# Velocity S-wave (km/s) = 3.08696 3.68758 3.40056
# Velocity P-wave (km/s) = 4.38223 6.17907 5.35653
#
# Compressibility (1/GPa) = 0.08365213
#
# Stress axis : x y z
#
# Youngs Moduli (GPa) = 78.48060 78.48060 12.22055
#
# Poissons Ratio (x) = 0.45474 0.03688
# Poissons Ratio (y) = 0.45474 0.03688
# Poissons Ratio (z) = 0.23687 0.23687
#
# Static dielectric constant tensor:
#      x y z
#    x 1.659010 0.000000 0.000000 
#    y 0.000000 1.659010 0.000000 
#    z 0.000000 0.000000 1.652920 
# 
# From -- ./inp_files/7491.got.cif
#   From: 2010.05.17/outbox.cif.g08.bks.cpg/sg136_4_cif.got.tgz:7491.got - 2010.05.20 12:54:53.
