data_PCOD9569276
_publ_section_title
;
Structure prediction by ZEFSAII (Michael W. Deem and Ramdas Pophale) SiO2 
 PCOD9569276
Probable space group: P 42/M N M
;
_chemical_formula_sum "Si O2"
_cell_formula_units_Z 88
_cell_length_a 17.905813
_cell_length_b 17.905813
_cell_length_c 15.935415
_cell_angle_alpha 90.000000
_cell_angle_beta 90.000000
_cell_angle_gamma 90.000000
_cell_volume 5109.183105
_symmetry_space_group_name_H-M "P 42/M N M"
_symmetry_group_IT_number 136
_symmetry_cell_setting 'tetragonal'
loop_
_space_group_symop_operation_xyz
x,y,z
1/2-y,1/2+x,1/2+z
-x,-y,z
1/2+y,1/2-x,1/2+z
1/2+x,1/2-y,1/2-z
1/2-x,1/2+y,1/2-z
y,x,-z
-y,-x,-z
-x,-y,-z
1/2+y,1/2-x,1/2-z
x,y,-z
1/2-y,1/2+x,1/2-z
1/2-x,1/2+y,1/2+z
1/2+x,1/2-y,1/2+z
-y,-x,z
y,x,z
loop_
_atom_site_type_symbol
_atom_site_label
_atom_site_fract_x
_atom_site_fract_y
_atom_site_fract_z
Si Si1 0.538840 0.765528 0.096038
Si Si2 0.875170 0.000391 0.670154
Si Si3 0.003362 0.872915 0.000000
Si Si4 0.524838 0.278968 0.335831
Si Si5 0.813879 0.813879 0.900440
Si Si6 0.873863 0.502291 0.244090
Si Si7 0.689268 0.689268 0.902884
O O1 0.489362 0.690798 0.103083
O O2 0.510211 0.830786 0.155484
O O3 0.616451 0.730894 0.131918
O O4 0.548768 0.789537 0.000000
O O5 0.933550 0.933550 0.668602
O O6 0.832213 0.998967 0.758926
O O7 0.924551 0.075450 0.657352
O O8 0.004428 0.818958 0.919602
O O9 0.933591 0.933591 0.000000
O O10 0.075293 0.924708 0.000000
O O11 0.613562 0.284072 0.352340
O O12 0.502783 0.193950 0.312036
O O13 0.751679 0.751679 0.901724
O O14 0.828887 0.828887 0.000000
O O15 0.926692 0.428984 0.245443
O O16 0.669349 0.669349 0.000000
#
# Coordination Sequence:
#
# PCOD9569276 Si02
#       7
#    16  16   8  16   8  16   8
#     4  10  20  37  57  83 111 144 186 231 283 334
#     4  10  19  31  52  81 114 148 183 222 272 336
#     4  11  20  34  58  91 128 158 190 235 290 358
#     4  11  19  34  56  82 115 152 192 235 288 343
#     4  11  18  30  50  83 113 143 190 237 288 340
#     4  10  23  43  60  83 112 149 197 246 291 339
#     4   9  18  30  51  78 107 138 182 238 280 325
#
# _framework density 17.223887999999999
#
# number of rings (size 3 to 8) (size 9 to 14) (size 15 to 20)
#    0.000    1.727    3.636    1.636    0.000    1.818 
#    3.273    1.818    0.000    0.000    0.000    0.000 
#    0.000    0.000    0.000    0.000    0.000    0.000 
#
# Total GULP energy -489951.713670 kJ/mol
# GULP energy per Si atom -5567.633110 kJ/mol
# Density = 1.718469 g / cm^3
# Si number density = 17.223888 Si / 1000 Ang^3
#
#
#
# Elastic Constant Matrix: (Units=GPa)
#
#
# Indices 1 2 3 4 5 6 
#
# 1 118.3053 56.7926 41.6033 0.0000 0.0000 0.0000
# 2 56.7926 118.3066 41.6037 0.0000 0.0000 0.0000
# 3 41.6033 41.6037 88.1401 0.0000 0.0000 0.0000
# 4 0.0000 0.0000 0.0000 5.8740 0.0000 0.0000
# 5 0.0000 0.0000 0.0000 0.0000 5.8888 0.0000
# 6 0.0000 0.0000 0.0000 0.0000 0.0000 24.6674
#
#
#
# Elastic Compliance Matrix: (Units=1/GPa)
#
#
# Indices 1 2 3 4 5 6 
#
# 1 0.011810 -0.004447 -0.003475 0.000000 0.000000 0.000000
# 2 -0.004447 0.011810 -0.003475 0.000000 0.000000 0.000000
# 3 -0.003475 -0.003475 0.014626 0.000000 0.000000 0.000000
# 4 0.000000 0.000000 0.000000 0.170240 0.000000 0.000000
# 5 0.000000 0.000000 0.000000 0.000000 0.169813 0.000000
# 6 0.000000 0.000000 0.000000 0.000000 0.000000 0.040539
#
#
# Mechanical properties :
#
#
# Convention : Reuss Voigt Hill
#
# Bulk Modulus (GPa) = 64.72314 67.19457 65.95886
# Shear Modulus (GPa) = 11.19110 19.60289 15.39700
#
# Velocity S-wave (km/s) = 2.55177 3.37727 2.99311
# Velocity P-wave (km/s) = 6.80743 7.36919 7.09388
#
# Compressibility (1/GPa) = 0.01545042
#
# Stress axis : x y z
#
# Youngs Moduli (GPa) = 84.67672 84.67757 68.37016
#
# Poissons Ratio (x) = 0.37657 0.23760
# Poissons Ratio (y) = 0.37656 0.23760
# Poissons Ratio (z) = 0.29427 0.29427
#
# Static dielectric constant tensor:
#      x y z
#    x 1.602070 0.000000 0.000000 
#    y 0.000000 1.602070 0.000000 
#    z 0.000000 0.000000 1.616780 
# 
# From -- ./inp_files/5081.got.cif
#   From: 2010.05.17/outbox.cif.g08.bks.cpg/sg136_3_cif.got.tgz:5081.got - 2010.05.20 12:54:53.
