data_PCOD9569387
_publ_section_title
;
Structure prediction by ZEFSAII (Michael W. Deem and Ramdas Pophale) SiO2 
 PCOD9569387
Probable space group: P 42/M N M
;
_chemical_formula_sum "Si O2"
_cell_formula_units_Z 120
_cell_length_a 27.586879
_cell_length_b 27.586879
_cell_length_c 7.766412
_cell_angle_alpha 90.000000
_cell_angle_beta 90.000000
_cell_angle_gamma 90.000000
_cell_volume 5910.518292
_symmetry_space_group_name_H-M "P 42/M N M"
_symmetry_group_IT_number 136
_symmetry_cell_setting 'tetragonal'
loop_
_space_group_symop_operation_xyz
x,y,z
1/2-y,1/2+x,1/2+z
-x,-y,z
1/2+y,1/2-x,1/2+z
1/2+x,1/2-y,1/2-z
1/2-x,1/2+y,1/2-z
y,x,-z
-y,-x,-z
-x,-y,-z
1/2+y,1/2-x,1/2-z
x,y,-z
1/2-y,1/2+x,1/2-z
1/2-x,1/2+y,1/2+z
1/2+x,1/2-y,1/2+z
-y,-x,z
y,x,z
loop_
_atom_site_type_symbol
_atom_site_label
_atom_site_fract_x
_atom_site_fract_y
_atom_site_fract_z
Si Si1 0.251132 0.671664 0.789897
Si Si2 0.356187 0.025937 0.707295
Si Si3 0.581275 0.500867 0.000000
Si Si4 0.685777 0.606889 0.202621
Si Si5 0.250298 0.059505 0.709246
Si Si6 0.353376 0.209362 0.708840
Si Si7 0.583143 0.881898 0.706846
Si Si8 0.843196 0.002017 0.809758
O O1 0.297556 0.702445 0.732813
O O2 0.250285 0.615733 0.736519
O O3 0.201575 0.698126 0.736742
O O4 0.251304 0.671385 0.000000
O O5 0.354726 0.029210 0.500000
O O6 0.300849 0.034951 0.766878
O O7 0.390975 0.069191 0.771152
O O8 0.376117 0.973180 0.751930
O O9 0.615764 0.496844 0.165707
O O10 0.551427 0.551427 0.000000
O O11 0.541885 0.458116 0.000000
O O12 0.647452 0.647452 0.259209
O O13 0.739589 0.626922 0.228029
O O14 0.676685 0.556774 0.297854
O O15 0.678180 0.597328 0.000000
O O16 0.249409 0.057989 0.500000
O O17 0.202797 0.032225 0.773754
O O18 0.354012 0.210323 0.500000
O O19 0.387432 0.165245 0.768319
O O20 0.587764 0.882373 0.500000
O O21 0.862675 0.992422 0.000000
#
# Coordination Sequence:
#
# PCOD9569387 Si02
#       8
#    16  16   8  16  16  16  16  16
#     4   9  17  31  57  89 121 165 213 256 314 386
#     4  10  21  37  58  82 117 163 209 266 327 382
#     4  11  26  50  76 102 138 180 224 281 344 404
#     4  11  23  39  60  90 130 171 210 260 324 394
#     4  10  19  38  62  90 129 171 217 267 325 392
#     4  10  19  35  58  89 125 162 209 262 316 386
#     4  10  21  37  56  81 115 154 207 266 318 382
#     4  12  25  43  70 103 135 174 226 279 333 397
#
# _framework density 20.302786999999999
#
# number of rings (size 3 to 8) (size 9 to 14) (size 15 to 20)
#    0.000    1.667    2.667    2.000    0.000    7.200 
#    0.000    2.667    0.000    0.800    0.000    0.000 
#    0.000    0.000    0.000    0.000    0.000    0.000 
#
# Total GULP energy -670918.365503 kJ/mol
# GULP energy per Si atom -5590.986379 kJ/mol
# Density = 2.025658 g / cm^3
# Si number density = 20.302787 Si / 1000 Ang^3
#
#
#
# Elastic Constant Matrix: (Units=GPa)
#
#
# Indices 1 2 3 4 5 6 
#
# 1 127.1287 47.8599 26.8219 0.0000 0.0000 0.0000
# 2 47.8599 127.1261 26.8215 0.0000 0.0000 0.0000
# 3 26.8219 26.8215 68.8607 0.0000 0.0000 0.0000
# 4 0.0000 0.0000 0.0000 13.5326 0.0000 0.0000
# 5 0.0000 0.0000 0.0000 0.0000 13.5322 0.0000
# 6 0.0000 0.0000 0.0000 0.0000 0.0000 16.8514
#
#
#
# Elastic Compliance Matrix: (Units=1/GPa)
#
#
# Indices 1 2 3 4 5 6 
#
# 1 0.009552 -0.003063 -0.002528 0.000000 0.000000 0.000000
# 2 -0.003063 0.009553 -0.002528 0.000000 0.000000 0.000000
# 3 -0.002528 -0.002528 0.016491 0.000000 0.000000 0.000000
# 4 0.000000 0.000000 0.000000 0.073896 0.000000 0.000000
# 5 0.000000 0.000000 0.000000 0.000000 0.073898 0.000000
# 6 0.000000 0.000000 0.000000 0.000000 0.000000 0.059342
#
#
# Mechanical properties :
#
#
# Convention : Reuss Voigt Hill
#
# Bulk Modulus (GPa) = 51.65439 58.45802 55.05620
# Shear Modulus (GPa) = 18.83790 23.55737 21.19764
#
# Velocity S-wave (km/s) = 3.04936 3.41002 3.23472
# Velocity P-wave (km/s) = 6.15593 6.66032 6.41308
#
# Compressibility (1/GPa) = 0.01935944
#
# Stress axis : x y z
#
# Youngs Moduli (GPa) = 104.68512 104.68309 60.63831
#
# Poissons Ratio (x) = 0.32064 0.15328
# Poissons Ratio (y) = 0.32065 0.15328
# Poissons Ratio (z) = 0.26462 0.26461
#
# Static dielectric constant tensor:
#      x y z
#    x 1.687520 0.000000 0.000000 
#    y 0.000000 1.687520 0.000000 
#    z 0.000000 0.000000 1.696280 
# 
# From -- ./inp_files/2331.got.cif
#   From: 2010.05.17/outbox.cif.g08.bks.cpg/sg136_2_cif.got.tgz:2331.got - 2010.05.20 12:54:53.
