data_PCOD9569718
_publ_section_title
;
Structure prediction by ZEFSAII (Michael W. Deem and Ramdas Pophale) SiO2 
 PCOD9569718
Probable space group: P 42/M N M
;
_chemical_formula_sum "Si O2"
_cell_formula_units_Z 120
_cell_length_a 26.456578
_cell_length_b 26.456578
_cell_length_c 9.257565
_cell_angle_alpha 90.000000
_cell_angle_beta 90.000000
_cell_angle_gamma 90.000000
_cell_volume 6479.837431
_symmetry_space_group_name_H-M "P 42/M N M"
_symmetry_group_IT_number 136
_symmetry_cell_setting 'tetragonal'
loop_
_space_group_symop_operation_xyz
x,y,z
1/2-y,1/2+x,1/2+z
-x,-y,z
1/2+y,1/2-x,1/2+z
1/2+x,1/2-y,1/2-z
1/2-x,1/2+y,1/2-z
y,x,-z
-y,-x,-z
-x,-y,-z
1/2+y,1/2-x,1/2-z
x,y,-z
1/2-y,1/2+x,1/2-z
1/2-x,1/2+y,1/2+z
1/2+x,1/2-y,1/2+z
-y,-x,z
y,x,z
loop_
_atom_site_type_symbol
_atom_site_label
_atom_site_fract_x
_atom_site_fract_y
_atom_site_fract_z
Si Si1 0.542509 0.457492 0.327035
Si Si2 0.382061 0.918761 0.170098
Si Si3 0.176022 0.258088 0.169783
Si Si4 0.979389 0.647030 0.673466
Si Si5 0.251741 0.569290 0.173186
Si Si6 0.647426 0.780875 0.330406
Si Si7 0.313159 0.398724 0.831354
Si Si8 0.509721 0.354431 0.827035
O O1 0.500000 0.500000 0.295053
O O2 0.546937 0.453064 0.500000
O O3 0.595775 0.474114 0.258147
O O4 0.430851 0.886500 0.216142
O O5 0.332254 0.884564 0.186633
O O6 0.373977 0.970213 0.255602
O O7 0.387785 0.930019 0.000000
O O8 0.205143 0.205143 0.185479
O O9 0.122120 0.255969 0.247040
O O10 0.210138 0.301074 0.243472
O O11 0.170412 0.269097 0.000000
O O12 0.983890 0.645028 0.500000
O O13 0.967804 0.705381 0.712748
O O14 0.306081 0.545011 0.205229
O O15 0.248450 0.577569 0.000000
O O16 0.657661 0.773195 0.500000
O O17 0.616554 0.734222 0.265343
O O18 0.355489 0.355489 0.819337
O O19 0.337624 0.452487 0.792815
O O20 0.297129 0.401884 0.000000
O O21 0.512471 0.364139 0.000000
#
# Coordination Sequence:
#
# PCOD9569718 Si02
#       8
#     8  16  16  16  16  16  16  16
#     4  11  25  43  63  89 127 169 209 261 319 367
#     4  10  22  39  59  85 117 153 198 245 294 349
#     4  11  24  39  58  87 122 158 198 244 297 357
#     4  10  21  40  62  86 119 155 195 244 293 351
#     4  10  21  40  63  88 119 155 199 246 299 360
#     4  11  22  39  61  87 121 159 198 244 297 358
#     4  10  21  38  61  90 123 155 195 247 299 359
#     4  10  22  40  65  92 118 160 209 253 304 366
#
# _framework density 18.518984
#
# number of rings (size 3 to 8) (size 9 to 14) (size 15 to 20)
#    0.000    1.667    1.333    2.600    0.933    8.533 
#    0.000    1.333    0.000    0.000    0.000    0.000 
#    0.000    0.000    0.000    0.000    0.000    0.000 
#
# Total GULP energy -670639.067625 kJ/mol
# GULP energy per Si atom -5588.658897 kJ/mol
# Density = 1.847683 g / cm^3
# Si number density = 18.518984 Si / 1000 Ang^3
#
#
#
# Elastic Constant Matrix: (Units=GPa)
#
#
# Indices 1 2 3 4 5 6 
#
# 1 107.9592 43.9777 53.2241 0.0000 0.0000 0.0000
# 2 43.9777 107.9589 53.2241 0.0000 0.0000 0.0000
# 3 53.2241 53.2241 52.7050 0.0000 0.0000 0.0000
# 4 0.0000 0.0000 0.0000 23.4623 0.0000 0.0000
# 5 0.0000 0.0000 0.0000 0.0000 23.4625 0.0000
# 6 0.0000 0.0000 0.0000 0.0000 0.0000 17.6981
#
#
#
# Elastic Compliance Matrix: (Units=1/GPa)
#
#
# Indices 1 2 3 4 5 6 
#
# 1 0.019066 0.003436 -0.022724 0.000000 0.000000 0.000000
# 2 0.003436 0.019066 -0.022724 0.000000 0.000000 0.000000
# 3 -0.022724 -0.022724 0.064869 0.000000 0.000000 0.000000
# 4 0.000000 0.000000 0.000000 0.042622 0.000000 0.000000
# 5 0.000000 0.000000 0.000000 0.000000 0.042621 0.000000
# 6 0.000000 0.000000 0.000000 0.000000 0.000000 0.056503
#
#
# Mechanical properties :
#
#
# Convention : Reuss Voigt Hill
#
# Bulk Modulus (GPa) = 52.69285 63.27499 57.98392
# Shear Modulus (GPa) = 14.92112 20.80438 17.86275
#
# Velocity S-wave (km/s) = 2.84160 3.35536 3.10911
# Velocity P-wave (km/s) = 6.26749 7.01806 6.65337
#
# Compressibility (1/GPa) = 0.01897791
#
# Stress axis : x y z
#
# Youngs Moduli (GPa) = 52.44979 52.44961 15.41571
#
# Poissons Ratio (x) = -0.18023 0.35030
# Poissons Ratio (y) = -0.18023 0.35030
# Poissons Ratio (z) = 1.19186 1.19186
#
# Static dielectric constant tensor:
#      x y z
#    x 1.616120 0.000000 0.000000 
#    y 0.000000 1.616120 0.000000 
#    z 0.000000 0.000000 1.619820 
# 
# From -- ./inp_files/2341.got.cif
#   From: 2010.05.17/outbox.cif.g08.bks.cpg/sg136_2_cif.got.tgz:2341.got - 2010.05.20 12:54:53.
