data_PCOD9569373
_publ_section_title
;
Structure prediction by ZEFSAII (Michael W. Deem and Ramdas Pophale) SiO2 
 PCOD9569373
Probable space group: P 42/M N M
;
_chemical_formula_sum "Si O2"
_cell_formula_units_Z 52
_cell_length_a 16.731111
_cell_length_b 16.731111
_cell_length_c 7.353604
_cell_angle_alpha 90.000000
_cell_angle_beta 90.000000
_cell_angle_gamma 90.000000
_cell_volume 2058.494921
_symmetry_space_group_name_H-M "P 42/M N M"
_symmetry_group_IT_number 136
_symmetry_cell_setting 'tetragonal'
loop_
_space_group_symop_operation_xyz
x,y,z
1/2-y,1/2+x,1/2+z
-x,-y,z
1/2+y,1/2-x,1/2+z
1/2+x,1/2-y,1/2-z
1/2-x,1/2+y,1/2-z
y,x,-z
-y,-x,-z
-x,-y,-z
1/2+y,1/2-x,1/2-z
x,y,-z
1/2-y,1/2+x,1/2-z
1/2-x,1/2+y,1/2+z
1/2+x,1/2-y,1/2+z
-y,-x,z
y,x,z
loop_
_atom_site_type_symbol
_atom_site_label
_atom_site_fract_x
_atom_site_fract_y
_atom_site_fract_z
Si Si1 0.394712 0.394712 0.000000
Si Si2 0.339424 0.787719 0.721769
Si Si3 0.474722 0.660875 0.284049
Si Si4 0.949013 0.385303 0.297050
O O1 0.449161 0.349963 0.158409
O O2 0.337110 0.791979 0.500000
O O3 0.265539 0.734462 0.780987
O O4 0.419193 0.737197 0.765444
O O5 0.333480 0.878586 0.786307
O O6 0.491682 0.664974 0.500000
O O7 0.416891 0.583110 0.255470
O O8 0.903937 0.471189 0.308682
O O9 0.970449 0.359819 0.500000
#
# Coordination Sequence:
#
# PCOD9569373 Si02
#       4
#     4  16  16  16
#     4  12  19  26  44  74 106 138 190 236 274 324
#     4   8  16  33  56  77 104 146 187 223 278 344
#     4   9  17  29  45  68 100 142 186 227 272 328
#     4  10  19  34  58  85 111 140 181 232 282 332
#
# _framework density 25.261175999999999
#
# number of rings (size 3 to 8) (size 9 to 14) (size 15 to 20)
#    0.000    2.769    0.000    5.538    0.000    1.231 
#    5.538    0.000    3.385    0.000    0.000    0.000 
#    0.000    0.000    0.000    0.000    0.000    0.000 
#
# Total GULP energy -289734.878338 kJ/mol
# GULP energy per Si atom -5571.824583 kJ/mol
# Density = 2.520368 g / cm^3
# Si number density = 25.261176 Si / 1000 Ang^3
#
#
#
# Elastic Constant Matrix: (Units=GPa)
#
#
# Indices 1 2 3 4 5 6 
#
# 1 20.1808 48.6967 16.7490 0.0000 0.0000 0.0000
# 2 48.6967 20.1808 16.7490 0.0000 0.0000 0.0000
# 3 16.7490 16.7490 126.0572 0.0000 0.0000 0.0000
# 4 0.0000 0.0000 0.0000 19.9315 0.0000 0.0000
# 5 0.0000 0.0000 0.0000 0.0000 19.9315 0.0000
# 6 0.0000 0.0000 0.0000 0.0000 0.0000 -2.4803
#
#
#
# Elastic Compliance Matrix: (Units=1/GPa)
#
#
# Indices 1 2 3 4 5 6 
#
# 1 -0.009773 0.025295 -0.002062 0.000000 0.000000 0.000000
# 2 0.025295 -0.009773 -0.002062 0.000000 0.000000 0.000000
# 3 -0.002062 -0.002062 0.008481 0.000000 0.000000 0.000000
# 4 0.000000 0.000000 0.000000 0.050172 0.000000 0.000000
# 5 0.000000 0.000000 0.000000 0.000000 0.050172 0.000000
# 6 0.000000 0.000000 0.000000 0.000000 0.000000 -0.403178
#
#
# Mechanical properties :
#
#
# Convention : Reuss Voigt Hill
#
# Bulk Modulus (GPa) = 31.97472 36.75646 34.36559
# Shear Modulus (GPa) = -14.45860 13.09146 -0.68357
#
# Velocity S-wave (km/s) = -2.39501 2.27897 -0.52076
# Velocity P-wave (km/s) = 2.24433 4.63757 3.64308
#
# Compressibility (1/GPa) = 0.03127471
#
# Stress axis : x y z
#
# Youngs Moduli (GPa) = -102.31987 -102.31987 117.91146
#
# Poissons Ratio (x) = 2.58816 0.24317
# Poissons Ratio (y) = 2.58816 0.24317
# Poissons Ratio (z) = -0.21102 -0.21102
#
# Static dielectric constant tensor:
#      x y z
#    x 2.104470 0.000000 0.000000 
#    y 0.000000 2.104470 0.000000 
#    z 0.000000 0.000000 1.815980 
# 
# From -- ./inp_files/980.got.cif
#   From: 2010.05.17/outbox.cif.g08.bks.cpg/sg136_1_cif.got.tgz:980.got - 2010.05.20 12:54:53.
