data_PCOD9569516
_publ_section_title
;
Structure prediction by ZEFSAII (Michael W. Deem and Ramdas Pophale) SiO2 
 PCOD9569516
Probable space group: P 42/M N M
;
_chemical_formula_sum "Si O2"
_cell_formula_units_Z 112
_cell_length_a 14.827218
_cell_length_b 14.827218
_cell_length_c 24.506246
_cell_angle_alpha 90.000000
_cell_angle_beta 90.000000
_cell_angle_gamma 90.000000
_cell_volume 5387.609804
_symmetry_space_group_name_H-M "P 42/M N M"
_symmetry_group_IT_number 136
_symmetry_cell_setting 'tetragonal'
loop_
_space_group_symop_operation_xyz
x,y,z
1/2-y,1/2+x,1/2+z
-x,-y,z
1/2+y,1/2-x,1/2+z
1/2+x,1/2-y,1/2-z
1/2-x,1/2+y,1/2-z
y,x,-z
-y,-x,-z
-x,-y,-z
1/2+y,1/2-x,1/2-z
x,y,-z
1/2-y,1/2+x,1/2-z
1/2-x,1/2+y,1/2+z
1/2+x,1/2-y,1/2+z
-y,-x,z
y,x,z
loop_
_atom_site_type_symbol
_atom_site_label
_atom_site_fract_x
_atom_site_fract_y
_atom_site_fract_z
Si Si1 0.399976 0.959006 0.437589
Si Si2 0.868758 0.571409 0.252006
Si Si3 0.096856 0.245572 0.405920
Si Si4 0.319709 0.175234 0.849875
Si Si5 0.329377 0.527638 0.320708
Si Si6 0.495575 0.350879 0.805776
Si Si7 0.630866 0.764333 0.647248
O O1 0.411461 0.927932 0.500000
O O2 0.370976 0.879453 0.396697
O O3 0.500000 0.000000 0.421520
O O4 0.312516 0.026586 0.436474
O O5 0.883182 0.466338 0.245579
O O6 0.812961 0.616053 0.202855
O O7 0.832024 0.587164 0.311516
O O8 0.152910 0.152910 0.423933
O O9 0.040167 0.215368 0.351406
O O10 0.177939 0.316917 0.396667
O O11 0.265704 0.265704 0.865931
O O12 0.243897 0.104852 0.830698
O O13 0.425860 0.574141 0.327092
O O14 0.320971 0.492938 0.257989
O O15 0.306347 0.448302 0.363092
O O16 0.570280 0.429721 0.804133
O O17 0.401983 0.401983 0.820825
O O18 0.709567 0.709567 0.677626
#
# Coordination Sequence:
#
# PCOD9569516 Si02
#       7
#    16  16  16  16  16  16  16
#     4  11  26  46  68  90 117 153 201 263 321 373
#     4  11  22  34  54  84 120 170 206 240 281 353
#     4  10  22  40  63  90 121 158 201 251 308 369
#     4  11  23  39  61  87 122 160 202 252 303 360
#     4  10  20  35  53  80 120 167 210 242 285 353
#     4   9  18  34  55  84 126 169 206 242 286 352
#     4  11  21  34  52  81 122 160 202 247 293 352
#
# _framework density 20.788440000000001
#
# number of rings (size 3 to 8) (size 9 to 14) (size 15 to 20)
#    0.000    1.571    1.429    3.429    4.000    4.286 
#    0.000    0.000    0.000    0.000    0.000    3.000 
#    0.000    0.000    0.000   39.286    0.000    0.000 
#
# Total GULP energy -623814.505885 kJ/mol
# GULP energy per Si atom -5569.772374 kJ/mol
# Density = 2.074112 g / cm^3
# Si number density = 20.788440 Si / 1000 Ang^3
#
#
#
# Elastic Constant Matrix: (Units=GPa)
#
#
# Indices 1 2 3 4 5 6 
#
# 1 89.3618 34.9277 25.0067 0.0000 0.0000 0.0000
# 2 34.9277 89.3618 25.0067 0.0000 0.0000 0.0000
# 3 25.0067 25.0067 51.0582 0.0000 0.0000 0.0000
# 4 0.0000 0.0000 0.0000 9.9514 0.0000 0.0000
# 5 0.0000 0.0000 0.0000 0.0000 9.9514 0.0000
# 6 0.0000 0.0000 0.0000 0.0000 0.0000 57.7851
#
#
#
# Elastic Compliance Matrix: (Units=1/GPa)
#
#
# Indices 1 2 3 4 5 6 
#
# 1 0.014196 -0.004175 -0.004908 0.000000 0.000000 0.000000
# 2 -0.004175 0.014196 -0.004908 0.000000 0.000000 0.000000
# 3 -0.004908 -0.004908 0.024393 0.000000 0.000000 0.000000
# 4 0.000000 0.000000 0.000000 0.100488 0.000000 0.000000
# 5 0.000000 0.000000 0.000000 0.000000 0.100488 0.000000
# 6 0.000000 0.000000 0.000000 0.000000 0.000000 0.017305
#
#
# Mechanical properties :
#
#
# Convention : Reuss Voigt Hill
#
# Bulk Modulus (GPa) = 40.31782 44.40712 42.36247
# Shear Modulus (GPa) = 16.26996 25.19365 20.73181
#
# Velocity S-wave (km/s) = 2.80061 3.48502 3.16139
# Velocity P-wave (km/s) = 5.46757 6.13202 5.80930
#
# Compressibility (1/GPa) = 0.02480293
#
# Stress axis : x y z
#
# Youngs Moduli (GPa) = 70.44385 70.44385 40.99567
#
# Poissons Ratio (x) = 0.29411 0.20120
# Poissons Ratio (y) = 0.29411 0.20120
# Poissons Ratio (z) = 0.34572 0.34572
#
# Static dielectric constant tensor:
#      x y z
#    x 1.868640 0.000000 0.000000 
#    y 0.000000 1.868640 0.000000 
#    z 0.000000 0.000000 1.703350 
# 
# From -- ./inp_files/8507.got.cif
#   From: 2010.05.17/outbox.cif.g08.bks.cpg/sg136_5_cif.got.tgz:8507.got - 2010.05.20 12:54:53.
