data_PCOD9569292
_publ_section_title
;
Structure prediction by ZEFSAII (Michael W. Deem and Ramdas Pophale) SiO2 
 PCOD9569292
Probable space group: P 42/M N M
;
_chemical_formula_sum "Si O2"
_cell_formula_units_Z 80
_cell_length_a 18.555079
_cell_length_b 18.555079
_cell_length_c 15.568061
_cell_angle_alpha 90.000000
_cell_angle_beta 90.000000
_cell_angle_gamma 90.000000
_cell_volume 5359.942616
_symmetry_space_group_name_H-M "P 42/M N M"
_symmetry_group_IT_number 136
_symmetry_cell_setting 'tetragonal'
loop_
_space_group_symop_operation_xyz
x,y,z
1/2-y,1/2+x,1/2+z
-x,-y,z
1/2+y,1/2-x,1/2+z
1/2+x,1/2-y,1/2-z
1/2-x,1/2+y,1/2-z
y,x,-z
-y,-x,-z
-x,-y,-z
1/2+y,1/2-x,1/2-z
x,y,-z
1/2-y,1/2+x,1/2-z
1/2-x,1/2+y,1/2+z
1/2+x,1/2-y,1/2+z
-y,-x,z
y,x,z
loop_
_atom_site_type_symbol
_atom_site_label
_atom_site_fract_x
_atom_site_fract_y
_atom_site_fract_z
Si Si1 0.894993 0.438513 0.500000
Si Si2 0.352238 0.873351 0.329997
Si Si3 0.595435 0.934518 0.500000
Si Si4 0.953695 0.677428 0.674525
Si Si5 0.289677 0.289677 0.103304
Si Si6 0.449132 0.668936 0.100011
Si Si7 0.587786 0.587786 0.899928
O O1 0.866268 0.399835 0.584190
O O2 0.886264 0.524063 0.500000
O O3 0.981069 0.425668 0.500000
O O4 0.403565 0.848688 0.252197
O O5 0.280216 0.825445 0.349398
O O6 0.336029 0.959521 0.317248
O O7 0.638908 0.925885 0.412312
O O8 0.944008 0.761477 0.657639
O O9 0.351265 0.351265 0.104745
O O10 0.275560 0.275560 0.000000
O O11 0.376933 0.623068 0.098620
O O12 0.513727 0.619138 0.134423
O O13 0.466699 0.689835 0.000000
O O14 0.571832 0.571832 0.000000
#
# Coordination Sequence:
#
# PCOD9569292 Si02
#       7
#     8  16   8  16   8  16   8
#     4   9  18  33  50  70  95 135 173 218 250 294
#     4  11  22  34  53  76 106 137 179 221 263 317
#     4   9  18  32  51  70  98 133 174 205 254 309
#     4  11  21  34  51  76 105 142 173 216 264 314
#     4  11  20  35  56  78 103 140 180 224 274 316
#     4  10  19  32  50  76 105 134 169 210 262 323
#     4   9  17  30  55  74  99 133 168 208 263 323
#
# _framework density 14.925533
#
# number of rings (size 3 to 8) (size 9 to 14) (size 15 to 20)
#    0.000    1.800    4.000    1.500    1.400    3.200 
#    0.000    0.000    0.000    0.000    0.000    0.000 
#    0.000    0.100    0.000    4.100    0.000    0.000 
#
# Total GULP energy -445505.847795 kJ/mol
# GULP energy per Si atom -5568.823097 kJ/mol
# Density = 1.489156 g / cm^3
# Si number density = 14.925533 Si / 1000 Ang^3
#
#
#
# Elastic Constant Matrix: (Units=GPa)
#
#
# Indices 1 2 3 4 5 6 
#
# 1 90.5810 51.0168 49.8862 0.0000 0.0000 0.0000
# 2 51.0168 90.5810 49.8862 0.0000 0.0000 0.0000
# 3 49.8862 49.8862 107.2658 0.0000 0.0000 0.0000
# 4 0.0000 0.0000 0.0000 21.4040 0.0000 0.0000
# 5 0.0000 0.0000 0.0000 0.0000 21.4040 0.0000
# 6 0.0000 0.0000 0.0000 0.0000 0.0000 21.1294
#
#
#
# Elastic Compliance Matrix: (Units=1/GPa)
#
#
# Indices 1 2 3 4 5 6 
#
# 1 0.017890 -0.007385 -0.004885 0.000000 0.000000 0.000000
# 2 -0.007385 0.017890 -0.004885 0.000000 0.000000 0.000000
# 3 -0.004885 -0.004885 0.013867 0.000000 0.000000 0.000000
# 4 0.000000 0.000000 0.000000 0.046720 0.000000 0.000000
# 5 0.000000 0.000000 0.000000 0.000000 0.046720 0.000000
# 6 0.000000 0.000000 0.000000 0.000000 0.000000 0.047327
#
#
# Mechanical properties :
#
#
# Convention : Reuss Voigt Hill
#
# Bulk Modulus (GPa) = 65.21292 65.55627 65.38460
# Shear Modulus (GPa) = 21.75443 21.96339 21.85891
#
# Velocity S-wave (km/s) = 3.82190 3.84022 3.83107
# Velocity P-wave (km/s) = 7.95380 7.98001 7.96692
#
# Compressibility (1/GPa) = 0.01533438
#
# Stress axis : x y z
#
# Youngs Moduli (GPa) = 55.89723 55.89723 72.11507
#
# Poissons Ratio (x) = 0.41282 0.35231
# Poissons Ratio (y) = 0.41282 0.35231
# Poissons Ratio (z) = 0.27308 0.27308
#
# Static dielectric constant tensor:
#      x y z
#    x 1.505880 0.000000 0.000000 
#    y 0.000000 1.505880 0.000000 
#    z 0.000000 0.000000 1.487050 
# 
# From -- ./inp_files/4988.got.cif
#   From: 2010.05.17/outbox.cif.g08.bks.cpg/sg136_3_cif.got.tgz:4988.got - 2010.05.20 12:54:53.
