data_PCOD9569783
_publ_section_title
;
Structure prediction by ZEFSAII (Michael W. Deem and Ramdas Pophale) SiO2 
 PCOD9569783
Probable space group: P 42/M N M
;
_chemical_formula_sum "Si O2"
_cell_formula_units_Z 64
_cell_length_a 11.587634
_cell_length_b 11.587634
_cell_length_c 23.627064
_cell_angle_alpha 90.000000
_cell_angle_beta 90.000000
_cell_angle_gamma 90.000000
_cell_volume 3172.482948
_symmetry_space_group_name_H-M "P 42/M N M"
_symmetry_group_IT_number 136
_symmetry_cell_setting 'tetragonal'
loop_
_space_group_symop_operation_xyz
x,y,z
1/2-y,1/2+x,1/2+z
-x,-y,z
1/2+y,1/2-x,1/2+z
1/2+x,1/2-y,1/2-z
1/2-x,1/2+y,1/2-z
y,x,-z
-y,-x,-z
-x,-y,-z
1/2+y,1/2-x,1/2-z
x,y,-z
1/2-y,1/2+x,1/2-z
1/2-x,1/2+y,1/2+z
1/2+x,1/2-y,1/2+z
-y,-x,z
y,x,z
loop_
_atom_site_type_symbol
_atom_site_label
_atom_site_fract_x
_atom_site_fract_y
_atom_site_fract_z
Si Si1 0.952819 0.760385 0.723357
Si Si2 0.207192 0.392015 0.123896
Si Si3 0.670908 0.044600 0.828975
Si Si4 0.309241 0.124773 0.437038
O O1 0.845913 0.845913 0.718014
O O2 0.905820 0.629990 0.710812
O O3 0.009016 0.770119 0.785092
O O4 0.044456 0.776914 0.673996
O O5 0.275240 0.275240 0.108954
O O6 0.078860 0.373412 0.148563
O O7 0.197471 0.488736 0.075487
O O8 0.682650 0.117628 0.886473
O O9 0.356684 0.145779 0.500000
O O10 0.183837 0.183837 0.434560
#
# Coordination Sequence:
#
# PCOD9569783 Si02
#       4
#    16  16  16  16
#     4  11  22  36  58  88 122 158 195 239 296 356
#     4  11  23  36  58  92 124 154 193 244 300 357
#     4  11  21  36  61  88 119 157 196 240 290 349
#     4  10  23  42  63  85 113 157 207 251 298 351
#
# _framework density 20.173473999999999
#
# number of rings (size 3 to 8) (size 9 to 14) (size 15 to 20)
#    0.000    1.250    2.500    6.750    0.000    5.500 
#    0.000    1.250    0.000   11.250    0.000    7.000 
#    0.000    0.000    0.000    0.000    0.000    0.000 
#
# Total GULP energy -356615.504757 kJ/mol
# GULP energy per Si atom -5572.117262 kJ/mol
# Density = 2.012756 g / cm^3
# Si number density = 20.173474 Si / 1000 Ang^3
#
#
#
# Elastic Constant Matrix: (Units=GPa)
#
#
# Indices 1 2 3 4 5 6 
#
# 1 60.2148 49.0456 13.6168 0.0000 0.0000 0.0000
# 2 49.0456 60.2148 13.6168 0.0000 0.0000 0.0000
# 3 13.6168 13.6168 134.1166 0.0000 0.0000 0.0000
# 4 0.0000 0.0000 0.0000 13.2229 0.0000 0.0000
# 5 0.0000 0.0000 0.0000 0.0000 13.2229 0.0000
# 6 0.0000 0.0000 0.0000 0.0000 0.0000 23.7584
#
#
#
# Elastic Compliance Matrix: (Units=1/GPa)
#
#
# Indices 1 2 3 4 5 6 
#
# 1 0.049461 -0.040071 -0.000953 0.000000 0.000000 0.000000
# 2 -0.040071 0.049461 -0.000953 0.000000 0.000000 0.000000
# 3 -0.000953 -0.000953 0.007650 0.000000 0.000000 0.000000
# 4 0.000000 0.000000 0.000000 0.075627 0.000000 0.000000
# 5 0.000000 0.000000 0.000000 0.000000 0.075627 0.000000
# 6 0.000000 0.000000 0.000000 0.000000 0.000000 0.042090
#
#
# Mechanical properties :
#
#
# Convention : Reuss Voigt Hill
#
# Bulk Modulus (GPa) = 44.21557 45.23383 44.72470
# Shear Modulus (GPa) = 12.77437 21.92529 17.34983
#
# Velocity S-wave (km/s) = 2.51913 3.30030 2.93581
# Velocity P-wave (km/s) = 5.51603 6.08225 5.80605
#
# Compressibility (1/GPa) = 0.02261647
#
# Stress axis : x y z
#
# Youngs Moduli (GPa) = 20.21801 20.21801 130.72251
#
# Poissons Ratio (x) = 0.81015 0.12463
# Poissons Ratio (y) = 0.81015 0.12463
# Poissons Ratio (z) = 0.01928 0.01928
#
# Static dielectric constant tensor:
#      x y z
#    x 1.750280 0.000000 0.000000 
#    y 0.000000 1.750280 0.000000 
#    z 0.000000 0.000000 1.735120 
# 
# From -- ./inp_files/8828.got.cif
#   From: 2010.05.17/outbox.cif.g08.bks.cpg/sg136_5_cif.got.tgz:8828.got - 2010.05.20 12:54:53.
