data_PCOD9569949
_publ_section_title
;
Structure prediction by ZEFSAII (Michael W. Deem and Ramdas Pophale) SiO2 
 PCOD9569949
Probable space group: P 42/N M C
;
_chemical_formula_sum "Si O2"
_cell_formula_units_Z 96
_cell_length_a 18.009758
_cell_length_b 18.009758
_cell_length_c 17.116618
_cell_angle_alpha 90.000000
_cell_angle_beta 90.000000
_cell_angle_gamma 90.000000
_cell_volume 5551.798724
_symmetry_space_group_name_H-M "P 42/N M C"
_symmetry_group_IT_number 137
_space_group.IT_coordinate_system_code '2'
_symmetry_cell_setting 'tetragonal'
loop_
_space_group_symop_operation_xyz
x,y,z
1/2-y,x,1/2+z
1/2-x,1/2-y,z
y,1/2-x,1/2+z
1/2+x,-y,-z
-x,1/2+y,-z
1/2+y,1/2+x,1/2-z
-y,-x,1/2-z
-x,-y,-z
1/2+y,-x,1/2-z
1/2+x,1/2+y,-z
-y,1/2+x,1/2-z
1/2-x,y,z
x,1/2-y,z
1/2-y,1/2-x,1/2+z
y,x,1/2+z
loop_
_atom_site_type_symbol
_atom_site_label
_atom_site_fract_x
_atom_site_fract_y
_atom_site_fract_z
Si Si1 0.664637 0.956442 0.909284
Si Si2 0.118499 0.664307 0.838200
Si Si3 0.936342 0.547873 0.203841
Si Si4 0.164127 0.058901 0.652596
Si Si5 0.524849 0.334139 0.423091
Si Si6 0.045317 0.835708 0.246476
O O1 0.750000 0.928118 0.909720
O O2 0.605322 0.890027 0.903647
O O3 0.656774 0.006754 0.831824
O O4 0.654412 0.005405 0.986650
O O5 0.135478 0.635478 0.750000
O O6 0.141291 0.750000 0.842199
O O7 0.158866 0.610696 0.898964
O O8 0.030337 0.660087 0.855602
O O9 0.870428 0.572691 0.261639
O O10 0.897208 0.514769 0.128385
O O11 0.986521 0.486521 0.250000
O O12 0.992073 0.615943 0.190464
O O13 0.250000 0.080899 0.646272
O O14 0.500458 0.250000 0.401725
O O15 0.124317 0.875684 0.250000
O O16 0.049061 0.750000 0.225479
#
# Coordination Sequence:
#
# PCOD9569949 Si02
#       6
#    16  16  16  16  16  16
#     4   9  21  37  54  77 105 140 180 224 268 314
#     4  11  21  33  52  84 116 142 173 212 260 320
#     4  10  17  32  54  80 107 137 172 218 259 317
#     4  10  18  32  53  77 105 140 180 216 256 312
#     4  11  20  34  55  78 108 146 177 210 266 323
#     4   9  19  37  57  78 102 134 181 228 271 312
#
# _framework density 17.291694
#
# number of rings (size 3 to 8) (size 9 to 14) (size 15 to 20)
#    0.000    2.000    3.333    1.000    0.000    2.333 
#    0.000    1.667    0.000    5.500    0.000    0.000 
#    0.000    0.000    0.000    0.000    0.000    0.000 
#
# Total GULP energy -535172.024075 kJ/mol
# GULP energy per Si atom -5574.708584 kJ/mol
# Density = 1.725234 g / cm^3
# Si number density = 17.291694 Si / 1000 Ang^3
#
#
#
# Elastic Constant Matrix: (Units=GPa)
#
#
# Indices 1 2 3 4 5 6 
#
# 1 110.7735 56.6618 28.8309 0.0000 0.0000 0.0000
# 2 56.6618 110.7739 28.8302 0.0000 0.0000 0.0000
# 3 28.8309 28.8302 43.2789 0.0000 0.0000 0.0000
# 4 0.0000 0.0000 0.0000 16.9432 0.0000 0.0000
# 5 0.0000 0.0000 0.0000 0.0000 16.9432 0.0000
# 6 0.0000 0.0000 0.0000 0.0000 0.0000 22.6698
#
#
#
# Elastic Compliance Matrix: (Units=1/GPa)
#
#
# Indices 1 2 3 4 5 6 
#
# 1 0.013115 -0.005365 -0.005163 0.000000 0.000000 0.000000
# 2 -0.005365 0.013115 -0.005163 0.000000 0.000000 0.000000
# 3 -0.005163 -0.005163 0.029985 0.000000 0.000000 0.000000
# 4 0.000000 0.000000 0.000000 0.059021 0.000000 0.000000
# 5 0.000000 0.000000 0.000000 0.000000 0.059021 0.000000
# 6 0.000000 0.000000 0.000000 0.000000 0.000000 0.044112
#
#
# Mechanical properties :
#
#
# Convention : Reuss Voigt Hill
#
# Bulk Modulus (GPa) = 40.26815 54.83026 47.54921
# Shear Modulus (GPa) = 19.37773 21.34480 20.36127
#
# Velocity S-wave (km/s) = 3.35123 3.51721 3.43522
# Velocity P-wave (km/s) = 6.18970 6.94782 6.57969
#
# Compressibility (1/GPa) = 0.02483352
#
# Stress axis : x y z
#
# Youngs Moduli (GPa) = 76.24597 76.24710 33.35031
#
# Poissons Ratio (x) = 0.40906 0.17220
# Poissons Ratio (y) = 0.40905 0.17218
# Poissons Ratio (z) = 0.39368 0.39365
#
# Static dielectric constant tensor:
#      x y z
#    x 1.606310 0.000000 0.000000 
#    y 0.000000 1.606310 0.000000 
#    z 0.000000 0.000000 1.569660 
# 
# From -- ./inp_files/6500.got.cif
#   From: 2010.05.17/outbox.cif.g08.bks.cpg/sg137_4_cif.got.tgz:6500.got - 2010.05.20 13:01:12.
