data_PCOD9569349
_publ_section_title
;
Structure prediction by ZEFSAII (Michael W. Deem and Ramdas Pophale) SiO2 
 PCOD9569349
Probable space group: P 42/M N M
;
_chemical_formula_sum "Si O2"
_cell_formula_units_Z 112
_cell_length_a 18.986104
_cell_length_b 18.986104
_cell_length_c 20.583461
_cell_angle_alpha 90.000000
_cell_angle_beta 90.000000
_cell_angle_gamma 90.000000
_cell_volume 7419.764340
_symmetry_space_group_name_H-M "P 42/M N M"
_symmetry_group_IT_number 136
_symmetry_cell_setting 'tetragonal'
loop_
_space_group_symop_operation_xyz
x,y,z
1/2-y,1/2+x,1/2+z
-x,-y,z
1/2+y,1/2-x,1/2+z
1/2+x,1/2-y,1/2-z
1/2-x,1/2+y,1/2-z
y,x,-z
-y,-x,-z
-x,-y,-z
1/2+y,1/2-x,1/2-z
x,y,-z
1/2-y,1/2+x,1/2-z
1/2-x,1/2+y,1/2+z
1/2+x,1/2-y,1/2+z
-y,-x,z
y,x,z
loop_
_atom_site_type_symbol
_atom_site_label
_atom_site_fract_x
_atom_site_fract_y
_atom_site_fract_z
Si Si1 0.794145 0.676333 0.185282
Si Si2 0.760094 0.876091 0.298294
Si Si3 0.697287 0.814171 0.428183
Si Si4 0.512350 0.079578 0.158896
Si Si5 0.124698 0.602596 0.425366
Si Si6 0.169798 0.451140 0.617103
Si Si7 0.284594 0.976446 0.739186
O O1 0.730487 0.730487 0.173664
O O2 0.840732 0.708513 0.244390
O O3 0.844021 0.664687 0.122910
O O4 0.768390 0.599015 0.207466
O O5 0.833022 0.833022 0.294648
O O6 0.726763 0.861579 0.369186
O O7 0.763818 0.958651 0.282708
O O8 0.707513 0.846164 0.500000
O O9 0.743663 0.743663 0.424663
O O10 0.615137 0.796938 0.419052
O O11 0.454799 0.095465 0.102905
O O12 0.498874 0.137426 0.213831
O O13 0.500000 0.000000 0.180673
O O14 0.591757 0.078251 0.133976
O O15 0.124676 0.625259 0.500000
O O16 0.158610 0.524747 0.419325
O O17 0.210019 0.467332 0.683882
#
# Coordination Sequence:
#
# PCOD9569349 Si02
#       7
#    16  16  16  16  16  16  16
#     4  10  20  34  52  71  95 129 169 207 243 289
#     4  10  19  34  51  71  98 128 166 207 245 294
#     4  10  20  32  47  69  98 129 159 200 253 297
#     4   9  20  26  41  67  98 129 162 195 232 284
#     4  10  21  33  44  66  99 133 166 199 240 288
#     4  11  19  29  47  68  98 129 165 199 240 293
#     4  11  18  31  49  74  92 129 165 206 245 292
#
# _framework density 15.094818999999999
#
# number of rings (size 3 to 8) (size 9 to 14) (size 15 to 20)
#    0.000    1.857    4.286    0.429    4.000    3.429 
#    0.000    0.000    0.000    0.429    0.000    0.000 
#    0.000    0.571    0.000   12.143    0.000    0.000 
#
# Total GULP energy -624436.908325 kJ/mol
# GULP energy per Si atom -5575.329539 kJ/mol
# Density = 1.506046 g / cm^3
# Si number density = 15.094819 Si / 1000 Ang^3
#
#
#
# Elastic Constant Matrix: (Units=GPa)
#
#
# Indices 1 2 3 4 5 6 
#
# 1 58.0483 23.5129 19.8975 0.0000 0.0000 0.0000
# 2 23.5129 58.0483 19.8975 0.0000 0.0000 0.0000
# 3 19.8975 19.8975 109.2324 0.0000 0.0000 0.0000
# 4 0.0000 0.0000 0.0000 12.3686 0.0000 0.0000
# 5 0.0000 0.0000 0.0000 0.0000 12.3686 0.0000
# 6 0.0000 0.0000 0.0000 0.0000 0.0000 24.1751
#
#
#
# Elastic Compliance Matrix: (Units=1/GPa)
#
#
# Indices 1 2 3 4 5 6 
#
# 1 0.021206 -0.007750 -0.002451 0.000000 0.000000 0.000000
# 2 -0.007750 0.021206 -0.002451 0.000000 0.000000 0.000000
# 3 -0.002451 -0.002451 0.010048 0.000000 0.000000 0.000000
# 4 0.000000 0.000000 0.000000 0.080850 0.000000 0.000000
# 5 0.000000 0.000000 0.000000 0.000000 0.080850 0.000000
# 6 0.000000 0.000000 0.000000 0.000000 0.000000 0.041365
#
#
# Mechanical properties :
#
#
# Convention : Reuss Voigt Hill
#
# Bulk Modulus (GPa) = 36.82387 39.10498 37.96442
# Shear Modulus (GPa) = 17.24845 20.58387 18.91616
#
# Velocity S-wave (km/s) = 3.38401 3.69675 3.54383
# Velocity P-wave (km/s) = 6.30212 6.64709 6.47690
#
# Compressibility (1/GPa) = 0.02715630
#
# Stress axis : x y z
#
# Youngs Moduli (GPa) = 47.15590 47.15590 99.52417
#
# Poissons Ratio (x) = 0.36544 0.24396
# Poissons Ratio (y) = 0.36544 0.24396
# Poissons Ratio (z) = 0.11559 0.11559
#
# Static dielectric constant tensor:
#      x y z
#    x 1.510840 0.000000 0.000000 
#    y 0.000000 1.510840 0.000000 
#    z 0.000000 0.000000 1.523500 
# 
# From -- ./inp_files/7753.got.cif
#   From: 2010.05.17/outbox.cif.g08.bks.cpg/sg136_4_cif.got.tgz:7753.got - 2010.05.20 12:54:53.
