data_PCOD9569561
_publ_section_title
;
Structure prediction by ZEFSAII (Michael W. Deem and Ramdas Pophale) SiO2 
 PCOD9569561
Probable space group: P 42/M N M
;
_chemical_formula_sum "Si O2"
_cell_formula_units_Z 48
_cell_length_a 13.366517
_cell_length_b 13.366517
_cell_length_c 15.419506
_cell_angle_alpha 90.000000
_cell_angle_beta 90.000000
_cell_angle_gamma 90.000000
_cell_volume 2754.907177
_symmetry_space_group_name_H-M "P 42/M N M"
_symmetry_group_IT_number 136
_symmetry_cell_setting 'tetragonal'
loop_
_space_group_symop_operation_xyz
x,y,z
1/2-y,1/2+x,1/2+z
-x,-y,z
1/2+y,1/2-x,1/2+z
1/2+x,1/2-y,1/2-z
1/2-x,1/2+y,1/2-z
y,x,-z
-y,-x,-z
-x,-y,-z
1/2+y,1/2-x,1/2-z
x,y,-z
1/2-y,1/2+x,1/2-z
1/2-x,1/2+y,1/2+z
1/2+x,1/2-y,1/2+z
-y,-x,z
y,x,z
loop_
_atom_site_type_symbol
_atom_site_label
_atom_site_fract_x
_atom_site_fract_y
_atom_site_fract_z
Si Si1 0.905083 0.742440 0.323270
Si Si2 0.367088 0.200430 0.163843
Si Si3 0.315548 0.845586 0.000000
Si Si4 0.444387 0.892303 0.500000
O O1 0.848905 0.848905 0.318238
O O2 0.859644 0.674175 0.246925
O O3 0.873493 0.693211 0.414846
O O4 0.024047 0.746060 0.316925
O O5 0.287089 0.287089 0.143455
O O6 0.379691 0.124281 0.084166
O O7 0.208304 0.791697 0.000000
O O8 0.313685 0.964742 0.000000
O O9 0.500000 0.000000 0.500000
#
# Coordination Sequence:
#
# PCOD9569561 Si02
#       4
#    16  16   8   8
#     4  10  21  36  57  84 116 155 194 237 291 347
#     4  11  23  37  57  87 119 150 194 248 293 347
#     4  10  20  36  56  84 115 147 196 238 279 343
#     4  12  21  36  61  88 111 155 198 241 291 341
#
# _framework density 17.423454
#
# number of rings (size 3 to 8) (size 9 to 14) (size 15 to 20)
#    0.000    1.333    3.333    2.500    0.000    0.667 
#    0.000    0.000    0.000    9.000    0.000    0.000 
#    0.000    0.000    0.000    0.000    0.000    0.000 
#
# Total GULP energy -268111.107274 kJ/mol
# GULP energy per Si atom -5585.648068 kJ/mol
# Density = 1.738380 g / cm^3
# Si number density = 17.423454 Si / 1000 Ang^3
#
#
#
# Elastic Constant Matrix: (Units=GPa)
#
#
# Indices 1 2 3 4 5 6 
#
# 1 138.0900 85.0376 57.6953 0.0000 0.0000 0.0000
# 2 85.0376 138.0902 57.6951 0.0000 0.0000 0.0000
# 3 57.6953 57.6951 131.5933 0.0000 0.0000 0.0000
# 4 0.0000 0.0000 0.0000 19.8836 0.0000 0.0000
# 5 0.0000 0.0000 0.0000 0.0000 19.8835 0.0000
# 6 0.0000 0.0000 0.0000 0.0000 0.0000 23.2143
#
#
#
# Elastic Compliance Matrix: (Units=1/GPa)
#
#
# Indices 1 2 3 4 5 6 
#
# 1 0.012323 -0.006527 -0.002541 0.000000 0.000000 0.000000
# 2 -0.006527 0.012323 -0.002541 0.000000 0.000000 0.000000
# 3 -0.002541 -0.002541 0.009827 0.000000 0.000000 0.000000
# 4 0.000000 0.000000 0.000000 0.050293 0.000000 0.000000
# 5 0.000000 0.000000 0.000000 0.000000 0.050293 0.000000
# 6 0.000000 0.000000 0.000000 0.000000 0.000000 0.043077
#
#
# Mechanical properties :
#
#
# Convention : Reuss Voigt Hill
#
# Bulk Modulus (GPa) = 88.85188 89.84770 89.34979
# Shear Modulus (GPa) = 24.37784 26.41933 25.39859
#
# Velocity S-wave (km/s) = 3.74456 3.89821 3.82216
# Velocity P-wave (km/s) = 8.35476 8.48177 8.41850
#
# Compressibility (1/GPa) = 0.01125469
#
# Stress axis : x y z
#
# Youngs Moduli (GPa) = 81.15187 81.15216 101.75627
#
# Poissons Ratio (x) = 0.52965 0.25858
# Poissons Ratio (y) = 0.52965 0.25857
# Poissons Ratio (z) = 0.20622 0.20622
#
# Static dielectric constant tensor:
#      x y z
#    x 1.581610 0.000000 0.000000 
#    y 0.000000 1.581610 0.000000 
#    z 0.000000 0.000000 1.581790 
# 
# From -- ./inp_files/3015.got.cif
#   From: 2010.05.17/outbox.cif.g08.bks.cpg/sg136_2_cif.got.tgz:3015.got - 2010.05.20 12:54:53.
