data_PCOD9569023
_publ_section_title
;
Structure prediction by ZEFSAII (Michael W. Deem and Ramdas Pophale) SiO2 
 PCOD9569023
Probable space group: P 42/M B C
;
_chemical_formula_sum "Si O2"
_cell_formula_units_Z 96
_cell_length_a 13.599993
_cell_length_b 13.599993
_cell_length_c 21.971957
_cell_angle_alpha 90.000000
_cell_angle_beta 90.000000
_cell_angle_gamma 90.000000
_cell_volume 4063.928983
_symmetry_space_group_name_H-M "P 42/M B C"
_symmetry_group_IT_number 135
_symmetry_cell_setting 'tetragonal'
loop_
_space_group_symop_operation_xyz
x,y,z
-y,x,1/2+z
-x,-y,z
y,-x,1/2+z
1/2+x,1/2-y,-z
1/2-x,1/2+y,-z
1/2+y,1/2+x,1/2-z
1/2-y,1/2-x,1/2-z
-x,-y,-z
y,-x,1/2-z
x,y,-z
-y,x,1/2-z
1/2-x,1/2+y,z
1/2+x,1/2-y,z
1/2-y,1/2-x,1/2+z
1/2+y,1/2+x,1/2+z
loop_
_atom_site_type_symbol
_atom_site_label
_atom_site_fract_x
_atom_site_fract_y
_atom_site_fract_z
Si Si1 0.789223 0.305619 0.069248
Si Si2 0.087793 0.121854 0.431690
Si Si3 0.560940 0.301475 0.099047
Si Si4 0.989905 0.275950 0.352867
Si Si5 0.426940 0.908586 0.932701
Si Si6 0.839992 0.016914 0.262108
O O1 0.830303 0.196200 0.079240
O O2 0.670905 0.300673 0.074176
O O3 0.813979 0.386325 0.120716
O O4 0.815640 0.337268 0.000000
O O5 0.056148 0.145033 0.500000
O O6 0.013255 0.171305 0.385071
O O7 0.111514 0.007093 0.425486
O O8 0.520822 0.195250 0.077651
O O9 0.554181 0.309086 0.171758
O O10 0.071310 0.349311 0.379510
O O11 0.998080 0.252051 0.282148
O O12 0.500000 0.000000 0.932107
O O13 0.379428 0.906467 0.000000
O O14 0.915594 0.097779 0.234731
#
# Coordination Sequence:
#
# PCOD9569023 Si02
#       6
#    16  16  16  16  16  16
#     4  11  23  40  64  98 135 167 217 281 339 401
#     4  11  23  40  64  98 135 167 217 281 339 401
#     4  12  23  42  67  97 129 179 226 268 336 399
#     4  12  23  42  67  97 129 179 226 268 336 399
#     4  11  24  45  71 101 141 179 215 272 343 407
#     4  11  24  45  64  91 135 180 220 275 335 398
#
# _framework density 23.62246
#
# number of rings (size 3 to 8) (size 9 to 14) (size 15 to 20)
#    0.000    0.667    5.000    4.000    0.000    4.000 
#    0.000    7.500    0.000    0.000    0.000    0.000 
#    0.000    0.000    0.000    0.000    0.000    0.000 
#
# Total GULP energy -537707.750497 kJ/mol
# GULP energy per Si atom -5601.122401 kJ/mol
# Density = 2.356869 g / cm^3
# Si number density = 23.622460 Si / 1000 Ang^3
#
#
#
# Elastic Constant Matrix: (Units=GPa)
#
#
# Indices 1 2 3 4 5 6 
#
# 1 74.2951 -6.6860 7.9237 0.0000 0.0000 0.0000
# 2 -6.6860 74.2951 7.9237 0.0000 0.0000 0.0000
# 3 7.9237 7.9237 126.2280 0.0000 0.0000 0.0000
# 4 0.0000 0.0000 0.0000 -39.4015 0.0000 0.0000
# 5 0.0000 0.0000 0.0000 0.0000 -39.4015 0.0000
# 6 0.0000 0.0000 0.0000 0.0000 0.0000 43.6869
#
#
#
# Elastic Compliance Matrix: (Units=1/GPa)
#
#
# Indices 1 2 3 4 5 6 
#
# 1 0.013680 0.001332 -0.000942 0.000000 0.000000 0.000000
# 2 0.001332 0.013680 -0.000942 0.000000 0.000000 0.000000
# 3 -0.000942 -0.000942 0.008040 0.000000 0.000000 0.000000
# 4 0.000000 0.000000 0.000000 -0.025380 0.000000 0.000000
# 5 0.000000 0.000000 0.000000 0.000000 -0.025380 0.000000
# 6 0.000000 0.000000 0.000000 0.000000 0.000000 0.022890
#
#
# Mechanical properties :
#
#
# Convention : Reuss Voigt Hill
#
# Bulk Modulus (GPa) = 29.15899 32.57121 30.86510
# Shear Modulus (GPa) = 249.13923 10.68726 129.91324
#
# Velocity S-wave (km/s) = 10.28086 2.12932 7.42395
# Velocity P-wave (km/s) = 12.38138 4.45685 9.30490
#
# Compressibility (1/GPa) = 0.03429474
#
# Stress axis : x y z
#
# Youngs Moduli (GPa) = 73.09845 73.09845 124.37072
#
# Poissons Ratio (x) = -0.09734 0.11720
# Poissons Ratio (y) = -0.09734 0.11720
# Poissons Ratio (z) = 0.06888 0.06888
#
# Static dielectric constant tensor:
#      x y z
#    x 1.942860 0.000000 0.000000 
#    y 0.000000 1.942860 0.000000 
#    z 0.000000 0.000000 1.822410 
# 
# From -- ./inp_files/5408.got.cif
#   From: 2010.05.17/outbox.cif.g08.bks.cpg/sg135_3_cif.got.tgz:5408.got - 2010.05.20 12:50:20.
