data_PCOD9569782
_publ_section_title
;
Structure prediction by ZEFSAII (Michael W. Deem and Ramdas Pophale) SiO2 
 PCOD9569782
Probable space group: P 42/M N M
;
_chemical_formula_sum "Si O2"
_cell_formula_units_Z 116
_cell_length_a 18.784068
_cell_length_b 18.784068
_cell_length_c 15.185926
_cell_angle_alpha 90.000000
_cell_angle_beta 90.000000
_cell_angle_gamma 90.000000
_cell_volume 5358.220514
_symmetry_space_group_name_H-M "P 42/M N M"
_symmetry_group_IT_number 136
_symmetry_cell_setting 'tetragonal'
loop_
_space_group_symop_operation_xyz
x,y,z
1/2-y,1/2+x,1/2+z
-x,-y,z
1/2+y,1/2-x,1/2+z
1/2+x,1/2-y,1/2-z
1/2-x,1/2+y,1/2-z
y,x,-z
-y,-x,-z
-x,-y,-z
1/2+y,1/2-x,1/2-z
x,y,-z
1/2-y,1/2+x,1/2-z
1/2-x,1/2+y,1/2+z
1/2+x,1/2-y,1/2+z
-y,-x,z
y,x,z
loop_
_atom_site_type_symbol
_atom_site_label
_atom_site_fract_x
_atom_site_fract_y
_atom_site_fract_z
Si Si1 0.207015 0.097390 0.338385
Si Si2 0.265390 0.436291 0.848565
Si Si3 0.076142 0.809807 0.854405
Si Si4 0.846048 0.334688 0.897074
Si Si5 0.648577 0.648577 0.000000
Si Si6 0.579806 0.018214 0.107398
Si Si7 0.586342 0.302371 0.370511
Si Si8 0.354730 0.127545 0.897297
O O1 0.136320 0.136320 0.375933
O O2 0.272688 0.150824 0.349075
O O3 0.194828 0.086740 0.235155
O O4 0.230872 0.020133 0.373066
O O5 0.299382 0.428428 0.751559
O O6 0.187374 0.399656 0.847317
O O7 0.307632 0.394274 0.922811
O O8 0.116623 0.883378 0.874004
O O9 0.123798 0.744323 0.887673
O O10 0.996959 0.802246 0.894331
O O11 0.907276 0.388150 0.862593
O O12 0.833686 0.349687 0.000000
O O13 0.627346 0.951615 0.135858
O O14 0.500000 0.000000 0.134355
O O15 0.581684 0.020781 0.000000
O O16 0.629502 0.370499 0.402849
O O17 0.629425 0.230710 0.394693
O O18 0.376947 0.132905 0.000000
#
# Coordination Sequence:
#
# PCOD9569782 Si02
#       8
#    16  16  16  16   4  16  16  16
#     4  10  23  43  63  89 127 170 211 257 312 376
#     4  11  24  41  66  95 127 162 210 261 320 382
#     4  11  23  42  64  89 127 168 208 264 318 373
#     4  11  22  38  62  92 126 168 216 253 308 380
#     4  12  24  44  65 104 120 160 217 254 316 390
#     4   9  18  33  55  85 121 162 204 251 308 368
#     4  10  23  41  63  89 120 164 216 264 316 380
#     4  11  21  36  62  92 126 160 203 264 319 376
#
# _framework density 21.648979000000001
#
# number of rings (size 3 to 8) (size 9 to 14) (size 15 to 20)
#    0.000    1.517    2.759    2.069    1.931    3.862 
#    0.000    0.690    0.000    0.000    0.000    1.931 
#    0.000    0.000    0.000    0.000    0.000    0.000 
#
# Total GULP energy -647167.352270 kJ/mol
# GULP energy per Si atom -5579.028899 kJ/mol
# Density = 2.159971 g / cm^3
# Si number density = 21.648979 Si / 1000 Ang^3
#
#
#
# Elastic Constant Matrix: (Units=GPa)
#
#
# Indices 1 2 3 4 5 6 
#
# 1 69.8813 76.2410 -0.2667 0.0000 0.0000 0.0000
# 2 76.2410 69.8813 -0.2667 0.0000 0.0000 0.0000
# 3 -0.2667 -0.2667 56.2737 0.0000 0.0000 0.0000
# 4 0.0000 0.0000 0.0000 11.4568 0.0000 0.0000
# 5 0.0000 0.0000 0.0000 0.0000 11.4568 0.0000
# 6 0.0000 0.0000 0.0000 0.0000 0.0000 37.8666
#
#
#
# Elastic Compliance Matrix: (Units=1/GPa)
#
#
# Indices 1 2 3 4 5 6 
#
# 1 -0.075198 0.082042 0.000032 0.000000 0.000000 0.000000
# 2 0.082042 -0.075198 0.000032 0.000000 0.000000 0.000000
# 3 0.000032 0.000032 0.017771 0.000000 0.000000 0.000000
# 4 0.000000 0.000000 0.000000 0.087285 0.000000 0.000000
# 5 0.000000 0.000000 0.000000 0.000000 0.087285 0.000000
# 6 0.000000 0.000000 0.000000 0.000000 0.000000 0.026408
#
#
# Mechanical properties :
#
#
# Convention : Reuss Voigt Hill
#
# Bulk Modulus (GPa) = 31.65786 38.60572 35.13179
# Shear Modulus (GPa) = -58.59414 20.17796 -19.20809
#
# Velocity S-wave (km/s) = -5.20810 3.05626 -2.98191
# Velocity P-wave (km/s) = 4.63797 5.50687 2.09939
#
# Compressibility (1/GPa) = 0.03158774
#
# Stress axis : x y z
#
# Youngs Moduli (GPa) = -13.29818 -13.29818 56.27277
#
# Poissons Ratio (x) = 1.09101 -0.00183
# Poissons Ratio (y) = 1.09101 -0.00183
# Poissons Ratio (z) = 0.00043 0.00043
#
# Static dielectric constant tensor:
#      x y z
#    x 1.794520 0.000000 0.000000 
#    y 0.000000 1.794520 0.000000 
#    z 0.000000 0.000000 1.793770 
# 
# From -- ./inp_files/6485.got.cif
#   From: 2010.05.17/outbox.cif.g08.bks.cpg/sg136_4_cif.got.tgz:6485.got - 2010.05.20 12:54:53.
