data_PCOD9569505
_publ_section_title
;
Structure prediction by ZEFSAII (Michael W. Deem and Ramdas Pophale) SiO2 
 PCOD9569505
Probable space group: P 42/M N M
;
_chemical_formula_sum "Si O2"
_cell_formula_units_Z 88
_cell_length_a 13.299190
_cell_length_b 13.299190
_cell_length_c 23.762165
_cell_angle_alpha 90.000000
_cell_angle_beta 90.000000
_cell_angle_gamma 90.000000
_cell_volume 4202.777403
_symmetry_space_group_name_H-M "P 42/M N M"
_symmetry_group_IT_number 136
_symmetry_cell_setting 'tetragonal'
loop_
_space_group_symop_operation_xyz
x,y,z
1/2-y,1/2+x,1/2+z
-x,-y,z
1/2+y,1/2-x,1/2+z
1/2+x,1/2-y,1/2-z
1/2-x,1/2+y,1/2-z
y,x,-z
-y,-x,-z
-x,-y,-z
1/2+y,1/2-x,1/2-z
x,y,-z
1/2-y,1/2+x,1/2-z
1/2-x,1/2+y,1/2+z
1/2+x,1/2-y,1/2+z
-y,-x,z
y,x,z
loop_
_atom_site_type_symbol
_atom_site_label
_atom_site_fract_x
_atom_site_fract_y
_atom_site_fract_z
Si Si1 0.406365 0.943703 0.434217
Si Si2 0.420413 0.420413 0.842086
Si Si3 0.256839 0.574353 0.630436
Si Si4 0.308728 0.308728 0.259530
Si Si5 0.915289 0.084712 0.136711
Si Si6 0.956129 0.801166 0.435886
Si Si7 0.872871 0.413193 0.739398
O O1 0.426611 0.926401 0.500000
O O2 0.390235 0.834260 0.408623
O O3 0.500000 0.000000 0.407013
O O4 0.314796 0.020599 0.430180
O O5 0.500000 0.500000 0.814713
O O6 0.355086 0.355086 0.798537
O O7 0.352231 0.483490 0.885308
O O8 0.335008 0.664993 0.638620
O O9 0.322819 0.478633 0.609597
O O10 0.200168 0.553176 0.689116
O O11 0.367517 0.367517 0.307808
O O12 0.189538 0.327795 0.263267
O O13 0.000000 0.000000 0.149204
O O14 0.990722 0.829309 0.500000
O O15 0.842887 0.842887 0.431892
O O16 0.884529 0.512277 0.778006
#
# Coordination Sequence:
#
# PCOD9569505 Si02
#       7
#    16   8  16   8   8  16  16
#     4  10  23  41  64  94 127 163 206 258 314 379
#     4  10  20  34  56  91 122 156 201 254 303 360
#     4  11  23  43  68  90 122 163 212 262 315 377
#     4  12  21  39  60  86 123 163 208 249 314 370
#     4  10  23  42  62  88 121 167 212 264 319 371
#     4   9  18  35  59  89 126 162 199 248 313 376
#     4  11  24  39  62  92 121 161 205 258 307 374
#
# _framework density 20.938535000000002
#
# number of rings (size 3 to 8) (size 9 to 14) (size 15 to 20)
#    0.000    1.636    2.727    1.636    3.818    1.455 
#    3.273    0.455    2.000    1.636    0.000    0.000 
#    0.000    0.000    0.000    0.000    0.000    0.000 
#
# Total GULP energy -490607.578053 kJ/mol
# GULP energy per Si atom -5575.086114 kJ/mol
# Density = 2.089088 g / cm^3
# Si number density = 20.938535 Si / 1000 Ang^3
#
#
#
# Elastic Constant Matrix: (Units=GPa)
#
#
# Indices 1 2 3 4 5 6 
#
# 1 100.9161 67.6115 10.1344 0.0000 0.0000 0.0000
# 2 67.6115 100.9161 10.1344 0.0000 0.0000 0.0000
# 3 10.1344 10.1344 16.9075 0.0000 0.0000 0.0000
# 4 0.0000 0.0000 0.0000 17.7820 0.0000 0.0000
# 5 0.0000 0.0000 0.0000 0.0000 17.7820 0.0000
# 6 0.0000 0.0000 0.0000 0.0000 0.0000 30.4570
#
#
#
# Elastic Compliance Matrix: (Units=1/GPa)
#
#
# Indices 1 2 3 4 5 6 
#
# 1 0.018210 -0.011816 -0.003833 0.000000 0.000000 0.000000
# 2 -0.011816 0.018210 -0.003833 0.000000 0.000000 0.000000
# 3 -0.003833 -0.003833 0.063740 0.000000 0.000000 0.000000
# 4 0.000000 0.000000 0.000000 0.056237 0.000000 0.000000
# 5 0.000000 0.000000 0.000000 0.000000 0.056237 0.000000
# 6 0.000000 0.000000 0.000000 0.000000 0.000000 0.032833
#
#
# Mechanical properties :
#
#
# Convention : Reuss Voigt Hill
#
# Bulk Modulus (GPa) = 16.34046 43.83337 30.08692
# Shear Modulus (GPa) = 16.40259 21.92817 19.16538
#
# Velocity S-wave (km/s) = 2.80191 3.23966 3.02870
# Velocity P-wave (km/s) = 4.27651 5.91385 5.16053
#
# Compressibility (1/GPa) = 0.06119777
#
# Stress axis : x y z
#
# Youngs Moduli (GPa) = 54.91402 54.91402 15.68863
#
# Poissons Ratio (x) = 0.64884 0.06014
# Poissons Ratio (y) = 0.64884 0.06014
# Poissons Ratio (z) = 0.21049 0.21049
#
# Static dielectric constant tensor:
#      x y z
#    x 0.991730 0.000000 0.000000 
#    y 0.000000 0.991730 0.000000 
#    z 0.000000 0.000000 1.761230 
# 
# From -- ./inp_files/9784.got.cif
#   From: 2010.05.17/outbox.cif.g08.bks.cpg/sg136_5_cif.got.tgz:9784.got - 2010.05.20 12:54:53.
