data_PCOD9569759
_publ_section_title
;
Structure prediction by ZEFSAII (Michael W. Deem and Ramdas Pophale) SiO2 
 PCOD9569759
Probable space group: P 42/M N M
;
_chemical_formula_sum "Si O2"
_cell_formula_units_Z 36
_cell_length_a 10.304001
_cell_length_b 10.304001
_cell_length_c 12.658258
_cell_angle_alpha 90.000000
_cell_angle_beta 90.000000
_cell_angle_gamma 90.000000
_cell_volume 1343.958095
_symmetry_space_group_name_H-M "P 42/M N M"
_symmetry_group_IT_number 136
_symmetry_cell_setting 'tetragonal'
loop_
_space_group_symop_operation_xyz
x,y,z
1/2-y,1/2+x,1/2+z
-x,-y,z
1/2+y,1/2-x,1/2+z
1/2+x,1/2-y,1/2-z
1/2-x,1/2+y,1/2-z
y,x,-z
-y,-x,-z
-x,-y,-z
1/2+y,1/2-x,1/2-z
x,y,-z
1/2-y,1/2+x,1/2-z
1/2-x,1/2+y,1/2+z
1/2+x,1/2-y,1/2+z
-y,-x,z
y,x,z
loop_
_atom_site_type_symbol
_atom_site_label
_atom_site_fract_x
_atom_site_fract_y
_atom_site_fract_z
Si Si1 0.188334 0.188334 0.500000
Si Si2 0.746732 0.045576 0.648392
Si Si3 0.747312 0.471809 0.386702
O O1 0.092294 0.251846 0.407146
O O2 0.876427 0.123574 0.616528
O O3 0.624333 0.130410 0.614116
O O4 0.747532 0.041759 0.775305
O O5 0.743571 0.544324 0.500000
O O6 0.619887 0.380114 0.384073
#
# Coordination Sequence:
#
# PCOD9569759 Si02
#       3
#     4  16  16
#     4  12  21  40  74  92 114 171 226 253 294 378
#     4  11  22  40  65  93 121 163 212 252 308 374
#     4  10  22  40  60  90 129 157 201 266 308 362
#
# _framework density 26.786549999999998
#
# number of rings (size 3 to 8) (size 9 to 14) (size 15 to 20)
#    0.000    1.333    4.444    2.000    0.000    1.778 
#    4.000    4.444    0.000    0.000    0.000    0.000 
#    0.000    0.000    0.000    0.000    0.000    0.000 
#
# Total GULP energy -200945.352448 kJ/mol
# GULP energy per Si atom -5581.815346 kJ/mol
# Density = 2.672558 g / cm^3
# Si number density = 26.786550 Si / 1000 Ang^3
#
#
#
# Elastic Constant Matrix: (Units=GPa)
#
#
# Indices 1 2 3 4 5 6 
#
# 1 26.0709 60.5910 32.6301 0.0000 0.0000 0.0000
# 2 60.5910 26.0709 32.6301 0.0000 0.0000 0.0000
# 3 32.6301 32.6301 319.3959 0.0000 0.0000 0.0000
# 4 0.0000 0.0000 0.0000 27.4689 0.0000 0.0000
# 5 0.0000 0.0000 0.0000 0.0000 27.4689 0.0000
# 6 0.0000 0.0000 0.0000 0.0000 0.0000 45.5112
#
#
#
# Elastic Compliance Matrix: (Units=1/GPa)
#
#
# Indices 1 2 3 4 5 6 
#
# 1 -0.008234 0.020735 -0.001277 0.000000 0.000000 0.000000
# 2 0.020735 -0.008234 -0.001277 0.000000 0.000000 0.000000
# 3 -0.001277 -0.001277 0.003392 0.000000 0.000000 0.000000
# 4 0.000000 0.000000 0.000000 0.036405 0.000000 0.000000
# 5 0.000000 0.000000 0.000000 0.000000 0.036405 0.000000
# 6 0.000000 0.000000 0.000000 0.000000 0.000000 0.021973
#
#
# Mechanical properties :
#
#
# Convention : Reuss Voigt Hill
#
# Bulk Modulus (GPa) = 42.94601 69.24891 56.09746
# Shear Modulus (GPa) = 94.14951 36.46890 65.30920
#
# Velocity S-wave (km/s) = 5.93501 3.69380 4.94310
# Velocity P-wave (km/s) = 7.93935 6.64082 7.31894
#
# Compressibility (1/GPa) = 0.02328505
#
# Stress axis : x y z
#
# Youngs Moduli (GPa) = -121.44959 -121.44959 294.82395
#
# Poissons Ratio (x) = 2.51822 0.37652
# Poissons Ratio (y) = 2.51822 0.37652
# Poissons Ratio (z) = -0.15510 -0.15510
#
# Static dielectric constant tensor:
#      x y z
#    x 2.090150 0.000000 0.000000 
#    y 0.000000 2.090150 0.000000 
#    z 0.000000 0.000000 2.040040 
# 
# From -- ./inp_files/561.got.cif
#   From: 2010.05.17/outbox.cif.g08.bks.cpg/sg136_1_cif.got.tgz:561.got - 2010.05.20 12:54:53.
