data_PCOD9569140
_publ_section_title
;
Structure prediction by ZEFSAII (Michael W. Deem and Ramdas Pophale) SiO2 
 PCOD9569140
Probable space group: P 42/M N M
;
_chemical_formula_sum "Si O2"
_cell_formula_units_Z 72
_cell_length_a 19.071517
_cell_length_b 19.071517
_cell_length_c 8.300227
_cell_angle_alpha 90.000000
_cell_angle_beta 90.000000
_cell_angle_gamma 90.000000
_cell_volume 3018.981479
_symmetry_space_group_name_H-M "P 42/M N M"
_symmetry_group_IT_number 136
_symmetry_cell_setting 'tetragonal'
loop_
_space_group_symop_operation_xyz
x,y,z
1/2-y,1/2+x,1/2+z
-x,-y,z
1/2+y,1/2-x,1/2+z
1/2+x,1/2-y,1/2-z
1/2-x,1/2+y,1/2-z
y,x,-z
-y,-x,-z
-x,-y,-z
1/2+y,1/2-x,1/2-z
x,y,-z
1/2-y,1/2+x,1/2-z
1/2-x,1/2+y,1/2+z
1/2+x,1/2-y,1/2+z
-y,-x,z
y,x,z
loop_
_atom_site_type_symbol
_atom_site_label
_atom_site_fract_x
_atom_site_fract_y
_atom_site_fract_z
Si Si1 0.082938 0.810849 0.500000
Si Si2 0.074072 0.579969 0.310101
Si Si3 0.586426 0.299179 0.000000
Si Si4 0.554878 0.445123 0.310007
Si Si5 0.939074 0.780455 0.823807
Si Si6 0.772415 0.595676 0.681115
O O1 0.109388 0.890613 0.500000
O O2 0.112410 0.774801 0.337197
O O3 0.998796 0.801130 0.500000
O O4 0.090037 0.509647 0.211883
O O5 0.090467 0.572393 0.500000
O O6 0.108633 0.647922 0.232650
O O7 0.605690 0.262043 0.832684
O O8 0.626287 0.373714 0.000000
O O9 0.500000 0.500000 0.233102
O O10 0.547099 0.452902 0.500000
O O11 0.637607 0.458717 0.288127
O O12 0.011014 0.738227 0.830565
O O13 0.905157 0.777016 0.000000
O O14 0.755603 0.622425 0.500000
#
# Coordination Sequence:
#
# PCOD9569140 Si02
#       6
#     8  16   8   8  16  16
#     4  10  22  37  52  79 117 164 211 256 300 353
#     4  11  21  37  63  99 131 153 185 235 303 383
#     4  10  18  29  44  70 101 140 191 246 301 347
#     4   9  16  27  43  67 100 139 189 244 293 335
#     4   9  18  30  44  64  99 143 185 230 282 342
#     4  10  20  37  56  82 119 158 195 239 299 361
#
# _framework density 23.849104000000001
#
# number of rings (size 3 to 8) (size 9 to 14) (size 15 to 20)
#    0.000    2.111    2.222    2.667    0.000    4.222 
#    0.000    4.444    0.000    0.000    2.889    0.000 
#    0.000    0.000    0.000    0.000    0.000    0.000 
#
# Total GULP energy -401524.967709 kJ/mol
# GULP energy per Si atom -5576.735663 kJ/mol
# Density = 2.379482 g / cm^3
# Si number density = 23.849104 Si / 1000 Ang^3
#
#
#
# Elastic Constant Matrix: (Units=GPa)
#
#
# Indices 1 2 3 4 5 6 
#
# 1 -220.2873 320.3881 10.9296 0.0000 0.0000 0.0000
# 2 320.3881 -220.2976 10.9351 0.0000 0.0000 0.0000
# 3 10.9296 10.9351 249.5254 0.0000 0.0000 0.0000
# 4 0.0000 0.0000 0.0000 2.8958 0.0000 0.0000
# 5 0.0000 0.0000 0.0000 0.0000 2.8976 0.0000
# 6 0.0000 0.0000 0.0000 0.0000 0.0000 -14.1357
#
#
#
# Elastic Compliance Matrix: (Units=1/GPa)
#
#
# Indices 1 2 3 4 5 6 
#
# 1 0.004119 0.005968 -0.000442 0.000000 0.000000 0.000000
# 2 0.005968 0.004119 -0.000442 0.000000 0.000000 0.000000
# 3 -0.000442 -0.000442 0.004046 0.000000 0.000000 0.000000
# 4 0.000000 0.000000 0.000000 0.345332 0.000000 0.000000
# 5 0.000000 0.000000 0.000000 0.000000 0.345118 0.000000
# 6 0.000000 0.000000 0.000000 0.000000 0.000000 -0.070743
#
#
# Mechanical properties :
#
#
# Convention : Reuss Voigt Hill
#
# Bulk Modulus (GPa) = 44.53836 54.82735 49.68286
# Shear Modulus (GPa) = 7.94526 -37.22262 -14.63868
#
# Velocity S-wave (km/s) = 1.82721 -3.95493 -2.48019
# Velocity P-wave (km/s) = 4.81323 1.47781 3.56028
#
# Compressibility (1/GPa) = 0.02245255
#
# Stress axis : x y z
#
# Youngs Moduli (GPa) = 242.78727 242.79904 247.13740
#
# Poissons Ratio (x) = -1.44909 0.10923
# Poissons Ratio (y) = -1.44902 0.10921
# Poissons Ratio (z) = 0.10730 0.10730
#
# Static dielectric constant tensor:
#      x y z
#    x 1.901890 0.000000 0.000000 
#    y 0.000000 1.901890 0.000000 
#    z 0.000000 0.000000 1.996600 
# 
# From -- ./inp_files/1630.got.cif
#   From: 2010.05.17/outbox.cif.g08.bks.cpg/sg136_1_cif.got.tgz:1630.got - 2010.05.20 12:54:53.
