data_PCOD9569571
_publ_section_title
;
Structure prediction by ZEFSAII (Michael W. Deem and Ramdas Pophale) SiO2 
 PCOD9569571
Probable space group: P 42/M N M
;
_chemical_formula_sum "Si O2"
_cell_formula_units_Z 72
_cell_length_a 19.856263
_cell_length_b 19.856263
_cell_length_c 7.541704
_cell_angle_alpha 90.000000
_cell_angle_beta 90.000000
_cell_angle_gamma 90.000000
_cell_volume 2973.476538
_symmetry_space_group_name_H-M "P 42/M N M"
_symmetry_group_IT_number 136
_symmetry_cell_setting 'tetragonal'
loop_
_space_group_symop_operation_xyz
x,y,z
1/2-y,1/2+x,1/2+z
-x,-y,z
1/2+y,1/2-x,1/2+z
1/2+x,1/2-y,1/2-z
1/2-x,1/2+y,1/2-z
y,x,-z
-y,-x,-z
-x,-y,-z
1/2+y,1/2-x,1/2-z
x,y,-z
1/2-y,1/2+x,1/2-z
1/2-x,1/2+y,1/2+z
1/2+x,1/2-y,1/2+z
-y,-x,z
y,x,z
loop_
_atom_site_type_symbol
_atom_site_label
_atom_site_fract_x
_atom_site_fract_y
_atom_site_fract_z
Si Si1 0.752133 0.645582 0.786312
Si Si2 0.775362 0.381305 0.300243
Si Si3 0.030018 0.396305 0.295713
Si Si4 0.555250 0.555250 0.716400
Si Si5 0.495793 0.300932 0.288296
O O1 0.683608 0.683608 0.729540
O O2 0.814390 0.691347 0.718775
O O3 0.750230 0.566967 0.737885
O O4 0.755845 0.647280 0.000000
O O5 0.753604 0.362876 0.500000
O O6 0.837340 0.433320 0.305874
O O7 0.719652 0.430571 0.216077
O O8 0.018709 0.376891 0.500000
O O9 0.078979 0.460759 0.287860
O O10 0.500000 0.500000 0.761892
O O11 0.558965 0.558965 0.500000
O O12 0.628086 0.531497 0.780786
O O13 0.505223 0.306234 0.500000
#
# Coordination Sequence:
#
# PCOD9569571 Si02
#       5
#    16  16  16   8  16
#     4  10  21  37  57  81 114 156 197 240 298 363
#     4  10  21  35  53  81 113 147 191 240 290 349
#     4  11  21  34  52  75 107 146 186 229 279 337
#     4   9  18  34  59  89 115 145 191 248 303 350
#     4  10  20  36  59  85 115 151 195 244 296 353
#
# _framework density 24.214082000000001
#
# number of rings (size 3 to 8) (size 9 to 14) (size 15 to 20)
#    0.000    1.889    1.111    4.000    0.000    6.222 
#    0.000    4.444    0.000    1.333    0.000    3.111 
#    0.000    0.000    0.000    0.000    0.000    0.000 
#
# Total GULP energy -402246.223881 kJ/mol
# GULP energy per Si atom -5586.753109 kJ/mol
# Density = 2.415897 g / cm^3
# Si number density = 24.214082 Si / 1000 Ang^3
#
#
#
# Elastic Constant Matrix: (Units=GPa)
#
#
# Indices 1 2 3 4 5 6 
#
# 1 95.1250 33.2036 -6.4861 0.0000 0.0000 0.0000
# 2 33.2036 95.1250 -6.4861 0.0000 0.0000 0.0000
# 3 -6.4861 -6.4861 84.9521 0.0000 0.0000 0.0000
# 4 0.0000 0.0000 0.0000 9.7815 0.0000 0.0000
# 5 0.0000 0.0000 0.0000 0.0000 9.7815 0.0000
# 6 0.0000 0.0000 0.0000 0.0000 0.0000 34.9049
#
#
#
# Elastic Compliance Matrix: (Units=1/GPa)
#
#
# Indices 1 2 3 4 5 6 
#
# 1 0.012001 -0.004148 0.000600 0.000000 0.000000 0.000000
# 2 -0.004148 0.012001 0.000600 0.000000 0.000000 0.000000
# 3 0.000600 0.000600 0.011863 0.000000 0.000000 0.000000
# 4 0.000000 0.000000 0.000000 0.102234 0.000000 0.000000
# 5 0.000000 0.000000 0.000000 0.000000 0.102234 0.000000
# 6 0.000000 0.000000 0.000000 0.000000 0.000000 0.028649
#
#
# Mechanical properties :
#
#
# Convention : Reuss Voigt Hill
#
# Bulk Modulus (GPa) = 33.36956 35.07390 34.22173
# Shear Modulus (GPa) = 17.55184 27.89161 22.72173
#
# Velocity S-wave (km/s) = 2.69524 3.39761 3.06660
# Velocity P-wave (km/s) = 4.84735 5.46882 5.16744
#
# Compressibility (1/GPa) = 0.02996743
#
# Stress axis : x y z
#
# Youngs Moduli (GPa) = 83.32428 83.32428 84.29648
#
# Poissons Ratio (x) = 0.34565 -0.05054
# Poissons Ratio (y) = 0.34565 -0.05054
# Poissons Ratio (z) = -0.04996 -0.04996
#
# Static dielectric constant tensor:
#      x y z
#    x 1.935240 0.000000 0.000000 
#    y 0.000000 1.935240 0.000000 
#    z 0.000000 0.000000 1.924650 
# 
# From -- ./inp_files/1551.got.cif
#   From: 2010.05.17/outbox.cif.g08.bks.cpg/sg136_1_cif.got.tgz:1551.got - 2010.05.20 12:54:53.
