data_PCOD9569960
_publ_section_title
;
Structure prediction by ZEFSAII (Michael W. Deem and Ramdas Pophale) SiO2 
 PCOD9569960
Probable space group: P 42/N M C
;
_chemical_formula_sum "Si O2"
_cell_formula_units_Z 112
_cell_length_a 14.266191
_cell_length_b 14.266191
_cell_length_c 31.123680
_cell_angle_alpha 90.000000
_cell_angle_beta 90.000000
_cell_angle_gamma 90.000000
_cell_volume 6334.422249
_symmetry_space_group_name_H-M "P 42/N M C"
_symmetry_group_IT_number 137
_space_group.IT_coordinate_system_code '2'
_symmetry_cell_setting 'tetragonal'
loop_
_space_group_symop_operation_xyz
x,y,z
1/2-y,x,1/2+z
1/2-x,1/2-y,z
y,1/2-x,1/2+z
1/2+x,-y,-z
-x,1/2+y,-z
1/2+y,1/2+x,1/2-z
-y,-x,1/2-z
-x,-y,-z
1/2+y,-x,1/2-z
1/2+x,1/2+y,-z
-y,1/2+x,1/2-z
1/2-x,y,z
x,1/2-y,z
1/2-y,1/2-x,1/2+z
y,x,1/2+z
loop_
_atom_site_type_symbol
_atom_site_label
_atom_site_fract_x
_atom_site_fract_y
_atom_site_fract_z
Si Si1 0.020253 0.362646 0.338925
Si Si2 0.638783 0.855473 0.081202
Si Si3 0.636807 0.643310 0.244245
Si Si4 0.650270 0.143156 0.046805
Si Si5 0.058459 0.358540 0.082472
Si Si6 0.529736 0.893105 0.495891
Si Si7 0.361689 0.010765 0.676987
O O1 0.004668 0.250000 0.339695
O O2 0.068671 0.394426 0.383737
O O3 0.095445 0.383622 0.301380
O O4 0.926186 0.419228 0.327959
O O5 0.750000 0.849174 0.089029
O O6 0.599646 0.750000 0.085794
O O7 0.626395 0.894925 0.033267
O O8 0.750000 0.648371 0.247198
O O9 0.601098 0.750000 0.247565
O O10 0.608317 0.573686 0.282586
O O11 0.750000 0.133032 0.071575
O O12 0.646124 0.250000 0.030876
O O13 0.553787 0.129173 0.072731
O O14 0.654615 0.066855 0.009368
O O15 0.080035 0.250000 0.072388
O O16 0.069304 0.373999 0.132929
O O17 0.116729 0.424774 0.050742
O O18 0.500000 0.000000 0.500000
O O19 0.250000 0.988249 0.680300
#
# Coordination Sequence:
#
# PCOD9569960 Si02
#       7
#    16  16  16  16  16  16  16
#     4  10  19  32  52  78 106 133 162 201 251 305
#     4  10  20  33  50  73  99 127 164 211 257 299
#     4   9  18  34  53  70  94 131 170 207 244 281
#     4   9  17  29  45  65  90 123 162 199 240 295
#     4   9  18  31  46  65  93 129 164 198 238 287
#     4  10  18  29  45  65  92 126 162 201 244 288
#     4  10  20  33  50  75 105 136 169 201 239 297
#
# _framework density 17.681170000000002
#
# number of rings (size 3 to 8) (size 9 to 14) (size 15 to 20)
#    0.000    2.429    0.000    3.429    0.000    4.286 
#    0.000    2.857    0.000    6.000    0.000    0.000 
#    0.000    9.714    0.000    0.000    0.000    0.000 
#
# Total GULP energy -623716.162931 kJ/mol
# GULP energy per Si atom -5568.894312 kJ/mol
# Density = 1.764093 g / cm^3
# Si number density = 17.681170 Si / 1000 Ang^3
#
#
#
# Elastic Constant Matrix: (Units=GPa)
#
#
# Indices 1 2 3 4 5 6 
#
# 1 66.9909 24.6491 23.0818 0.0000 0.0000 0.0000
# 2 24.6491 66.9909 23.0818 0.0000 0.0000 0.0000
# 3 23.0818 23.0818 73.7559 0.0000 0.0000 0.0000
# 4 0.0000 0.0000 0.0000 17.2110 0.0000 0.0000
# 5 0.0000 0.0000 0.0000 0.0000 17.2110 0.0000
# 6 0.0000 0.0000 0.0000 0.0000 0.0000 28.8646
#
#
#
# Elastic Compliance Matrix: (Units=1/GPa)
#
#
# Indices 1 2 3 4 5 6 
#
# 1 0.018286 -0.005331 -0.004054 0.000000 0.000000 0.000000
# 2 -0.005331 0.018286 -0.004054 0.000000 0.000000 0.000000
# 3 -0.004054 -0.004054 0.016096 0.000000 0.000000 0.000000
# 4 0.000000 0.000000 0.000000 0.058102 0.000000 0.000000
# 5 0.000000 0.000000 0.000000 0.000000 0.058102 0.000000
# 6 0.000000 0.000000 0.000000 0.000000 0.000000 0.034644
#
#
# Mechanical properties :
#
#
# Convention : Reuss Voigt Hill
#
# Bulk Modulus (GPa) = 38.77723 38.81811 38.79767
# Shear Modulus (GPa) = 20.92121 21.78567 21.35344
#
# Velocity S-wave (km/s) = 3.44357 3.51399 3.47896
# Velocity P-wave (km/s) = 6.14735 6.20212 6.17480
#
# Compressibility (1/GPa) = 0.02578833
#
# Stress axis : x y z
#
# Youngs Moduli (GPa) = 54.68687 54.68687 62.12846
#
# Poissons Ratio (x) = 0.29156 0.25187
# Poissons Ratio (y) = 0.29156 0.25187
# Poissons Ratio (z) = 0.22171 0.22171
#
# Static dielectric constant tensor:
#      x y z
#    x 1.623280 0.000000 0.000000 
#    y 0.000000 1.623280 0.000000 
#    z 0.000000 0.000000 1.614640 
# 
# From -- ./inp_files/10661.got.cif
#   From: 2010.05.17/outbox.cif.g08.bks.cpg/sg137_6_cif.got.tgz:10661.got - 2010.05.20 13:01:12.
