data_PCOD9569004
_publ_section_title
;
Structure prediction by ZEFSAII (Michael W. Deem and Ramdas Pophale) SiO2 
 PCOD9569004
Probable space group: P 42/M B C
;
_chemical_formula_sum "Si O2"
_cell_formula_units_Z 52
_cell_length_a 16.431452
_cell_length_b 16.431452
_cell_length_c 8.664629
_cell_angle_alpha 90.000000
_cell_angle_beta 90.000000
_cell_angle_gamma 90.000000
_cell_volume 2339.385840
_symmetry_space_group_name_H-M "P 42/M B C"
_symmetry_group_IT_number 135
_symmetry_cell_setting 'tetragonal'
loop_
_space_group_symop_operation_xyz
x,y,z
-y,x,1/2+z
-x,-y,z
y,-x,1/2+z
1/2+x,1/2-y,-z
1/2-x,1/2+y,-z
1/2+y,1/2+x,1/2-z
1/2-y,1/2-x,1/2-z
-x,-y,-z
y,-x,1/2-z
x,y,-z
-y,x,1/2-z
1/2-x,1/2+y,z
1/2+x,1/2-y,z
1/2-y,1/2-x,1/2+z
1/2+y,1/2+x,1/2+z
loop_
_atom_site_type_symbol
_atom_site_label
_atom_site_fract_x
_atom_site_fract_y
_atom_site_fract_z
Si Si1 0.668670 0.055140 0.168610
Si Si2 0.260283 0.110243 0.187274
Si Si3 0.000000 0.500000 0.750000
Si Si4 0.093812 0.083266 0.683463
O O1 0.637856 0.137856 0.250000
O O2 0.721255 0.983131 0.242589
O O3 0.582630 0.006396 0.156082
O O4 0.701790 0.074696 0.000000
O O5 0.328085 0.171916 0.250000
O O6 0.171610 0.131534 0.253317
O O7 0.260336 0.109546 0.000000
O O8 0.083852 0.091828 0.500000
O O9 0.011250 0.106098 0.771129
#
# Coordination Sequence:
#
# PCOD9569004 Si02
#       4
#    16  16   4  16
#     4   9  17  27  45  72 110 153 195 234 280 340
#     4  11  21  36  58  90 125 160 198 247 303 361
#     4   8  14  24  42  68 102 152 194 228 272 328
#     4  11  23  43  68  92 116 154 201 251 299 357
#
# _framework density 22.228057
#
# number of rings (size 3 to 8) (size 9 to 14) (size 15 to 20)
#    0.923    0.923    1.538    5.077    0.000    2.462 
#    0.000    1.538    0.000    3.692    0.000    0.000 
#    0.000    0.000    0.000    0.000    0.000    0.000 
#
# Total GULP energy -289605.784689 kJ/mol
# GULP energy per Si atom -5569.342013 kJ/mol
# Density = 2.217746 g / cm^3
# Si number density = 22.228057 Si / 1000 Ang^3
#
#
#
# Elastic Constant Matrix: (Units=GPa)
#
#
# Indices 1 2 3 4 5 6 
#
# 1 85.2245 -1.0381 2.4157 0.0000 0.0000 0.0000
# 2 -1.0381 85.2263 2.4154 0.0000 0.0000 0.0000
# 3 2.4157 2.4154 82.3746 0.0000 0.0000 0.0000
# 4 0.0000 0.0000 0.0000 17.1343 0.0000 0.0000
# 5 0.0000 0.0000 0.0000 0.0000 17.1345 0.0000
# 6 0.0000 0.0000 0.0000 0.0000 0.0000 -5.2053
#
#
#
# Elastic Compliance Matrix: (Units=1/GPa)
#
#
# Indices 1 2 3 4 5 6 
#
# 1 0.011745 0.000153 -0.000349 0.000000 0.000000 0.000000
# 2 0.000153 0.011745 -0.000349 0.000000 0.000000 0.000000
# 3 -0.000349 -0.000349 0.012160 0.000000 0.000000 0.000000
# 4 0.000000 0.000000 0.000000 0.058362 0.000000 0.000000
# 5 0.000000 0.000000 0.000000 0.000000 0.058362 0.000000
# 6 0.000000 0.000000 0.000000 0.000000 0.000000 -0.192113
#
#
# Mechanical properties :
#
#
# Convention : Reuss Voigt Hill
#
# Bulk Modulus (GPa) = 28.93428 28.93462 28.93445
# Shear Modulus (GPa) = -184.31324 22.41485 -80.94920
#
# Velocity S-wave (km/s) = -9.11588 3.17898 -6.04124
# Velocity P-wave (km/s) = 9.88705 5.14976 5.96798
#
# Compressibility (1/GPa) = 0.03456108
#
# Stress axis : x y z
#
# Youngs Moduli (GPa) = 85.13922 85.14106 82.23596
#
# Poissons Ratio (x) = -0.01302 0.02870
# Poissons Ratio (y) = -0.01302 0.02869
# Poissons Ratio (z) = 0.02971 0.02970
#
# Static dielectric constant tensor:
#      x y z
#    x 1.889770 0.000000 0.000000 
#    y 0.000000 1.889770 0.000000 
#    z 0.000000 0.000000 1.810460 
# 
# From -- ./inp_files/680.got.cif
#   From: 2010.05.17/outbox.cif.g08.bks.cpg/sg135_1_cif.got.tgz:680.got - 2010.05.20 12:50:20.
