data_PCOD9569653
_publ_section_title
;
Structure prediction by ZEFSAII (Michael W. Deem and Ramdas Pophale) SiO2 
 PCOD9569653
Probable space group: P 42/M N M
;
_chemical_formula_sum "Si O2"
_cell_formula_units_Z 80
_cell_length_a 12.186980
_cell_length_b 12.186980
_cell_length_c 28.695755
_cell_angle_alpha 90.000000
_cell_angle_beta 90.000000
_cell_angle_gamma 90.000000
_cell_volume 4261.964742
_symmetry_space_group_name_H-M "P 42/M N M"
_symmetry_group_IT_number 136
_symmetry_cell_setting 'tetragonal'
loop_
_space_group_symop_operation_xyz
x,y,z
1/2-y,1/2+x,1/2+z
-x,-y,z
1/2+y,1/2-x,1/2+z
1/2+x,1/2-y,1/2-z
1/2-x,1/2+y,1/2-z
y,x,-z
-y,-x,-z
-x,-y,-z
1/2+y,1/2-x,1/2-z
x,y,-z
1/2-y,1/2+x,1/2-z
1/2-x,1/2+y,1/2+z
1/2+x,1/2-y,1/2+z
-y,-x,z
y,x,z
loop_
_atom_site_type_symbol
_atom_site_label
_atom_site_fract_x
_atom_site_fract_y
_atom_site_fract_z
Si Si1 0.321054 0.491275 0.418287
Si Si2 0.904221 0.409580 0.449926
Si Si3 0.220220 0.036462 0.815509
Si Si4 0.496187 0.318273 0.787503
Si Si5 0.445667 0.121230 0.152561
O O1 0.407629 0.592372 0.419660
O O2 0.385715 0.385715 0.436688
O O3 0.211691 0.528333 0.444009
O O4 0.289295 0.471108 0.364005
O O5 0.904851 0.350345 0.500000
O O6 0.923367 0.346942 0.401322
O O7 0.000000 0.500000 0.451220
O O8 0.114224 0.114224 0.814861
O O9 0.329377 0.108181 0.821563
O O10 0.219932 0.977282 0.765961
O O11 0.601295 0.398706 0.788339
O O12 0.392166 0.392166 0.802263
O O13 0.511783 0.213745 0.820314
O O14 0.500000 0.000000 0.153578
#
# Coordination Sequence:
#
# PCOD9569653 Si02
#       5
#    16  16  16  16  16
#     4   9  17  31  53  82 111 133 163 213 270 326
#     4   9  19  37  55  73 103 142 180 217 265 320
#     4   9  18  32  51  76 107 143 174 207 259 318
#     4  10  21  36  54  76 106 146 183 214 255 310
#     4  10  21  35  53  79 107 137 178 224 264 308
#
# _framework density 18.770686000000001
#
# number of rings (size 3 to 8) (size 9 to 14) (size 15 to 20)
#    0.000    2.600    0.000    1.200    2.800    4.000 
#    0.000   10.000    0.000    1.800    0.000    1.400 
#    0.000    0.000    0.000    0.000    0.000    0.000 
#
# Total GULP energy -445778.372323 kJ/mol
# GULP energy per Si atom -5572.229654 kJ/mol
# Density = 1.872796 g / cm^3
# Si number density = 18.770686 Si / 1000 Ang^3
#
#
#
# Elastic Constant Matrix: (Units=GPa)
#
#
# Indices 1 2 3 4 5 6 
#
# 1 50.6938 2.0693 29.2338 0.0000 0.0000 0.0000
# 2 2.0693 50.6938 29.2338 0.0000 0.0000 0.0000
# 3 29.2338 29.2338 116.1321 0.0000 0.0000 0.0000
# 4 0.0000 0.0000 0.0000 11.1283 0.0000 0.0000
# 5 0.0000 0.0000 0.0000 0.0000 11.1283 0.0000
# 6 0.0000 0.0000 0.0000 0.0000 0.0000 10.4638
#
#
#
# Elastic Compliance Matrix: (Units=1/GPa)
#
#
# Indices 1 2 3 4 5 6 
#
# 1 0.023425 0.002859 -0.006617 0.000000 0.000000 0.000000
# 2 0.002859 0.023425 -0.006617 0.000000 0.000000 0.000000
# 3 -0.006617 -0.006617 0.011942 0.000000 0.000000 0.000000
# 4 0.000000 0.000000 0.000000 0.089861 0.000000 0.000000
# 5 0.000000 0.000000 0.000000 0.000000 0.089861 0.000000
# 6 0.000000 0.000000 0.000000 0.000000 0.000000 0.095567
#
#
# Mechanical properties :
#
#
# Convention : Reuss Voigt Hill
#
# Bulk Modulus (GPa) = 26.28478 37.62154 31.95316
# Shear Modulus (GPa) = 13.60503 17.00959 15.30731
#
# Velocity S-wave (km/s) = 2.69513 3.01355 2.85878
# Velocity P-wave (km/s) = 4.87016 5.67405 5.28741
#
# Compressibility (1/GPa) = 0.03804483
#
# Stress axis : x y z
#
# Youngs Moduli (GPa) = 42.68911 42.68911 83.73763
#
# Poissons Ratio (x) = -0.12207 0.55406
# Poissons Ratio (y) = -0.12207 0.55406
# Poissons Ratio (z) = 0.28246 0.28246
#
# Static dielectric constant tensor:
#      x y z
#    x 1.658810 0.000000 0.000000 
#    y 0.000000 1.658810 0.000000 
#    z 0.000000 0.000000 1.696560 
# 
# From -- ./inp_files/9519.got.cif
#   From: 2010.05.17/outbox.cif.g08.bks.cpg/sg136_5_cif.got.tgz:9519.got - 2010.05.20 12:54:53.
