data_PCOD9569582
_publ_section_title
;
Structure prediction by ZEFSAII (Michael W. Deem and Ramdas Pophale) SiO2 
 PCOD9569582
Probable space group: P 42/M N M
;
_chemical_formula_sum "Si O2"
_cell_formula_units_Z 72
_cell_length_a 13.185649
_cell_length_b 13.185649
_cell_length_c 19.459867
_cell_angle_alpha 90.000000
_cell_angle_beta 90.000000
_cell_angle_gamma 90.000000
_cell_volume 3383.318544
_symmetry_space_group_name_H-M "P 42/M N M"
_symmetry_group_IT_number 136
_symmetry_cell_setting 'tetragonal'
loop_
_space_group_symop_operation_xyz
x,y,z
1/2-y,1/2+x,1/2+z
-x,-y,z
1/2+y,1/2-x,1/2+z
1/2+x,1/2-y,1/2-z
1/2-x,1/2+y,1/2-z
y,x,-z
-y,-x,-z
-x,-y,-z
1/2+y,1/2-x,1/2-z
x,y,-z
1/2-y,1/2+x,1/2-z
1/2-x,1/2+y,1/2+z
1/2+x,1/2-y,1/2+z
-y,-x,z
y,x,z
loop_
_atom_site_type_symbol
_atom_site_label
_atom_site_fract_x
_atom_site_fract_y
_atom_site_fract_z
Si Si1 0.760457 0.239544 0.846845
Si Si2 0.133252 0.445252 0.145551
Si Si3 0.770380 0.229621 0.643912
Si Si4 0.017228 0.707100 0.789551
Si Si5 0.775312 0.224688 0.500000
Si Si6 0.812151 0.498914 0.000000
Si Si7 0.781034 0.781034 0.500000
Si Si8 0.141865 0.141865 0.249251
O O1 0.868944 0.273981 0.815537
O O2 0.764210 0.235791 0.929306
O O3 0.675725 0.324276 0.825496
O O4 0.241123 0.386423 0.146165
O O5 0.144295 0.501089 0.218162
O O6 0.046907 0.359431 0.155449
O O7 0.126475 0.499867 0.072444
O O8 0.731259 0.268742 0.570134
O O9 0.715313 0.284688 0.704957
O O10 0.966750 0.816721 0.773336
O O11 0.894398 0.250971 0.500000
O O12 0.743223 0.400163 0.000000
#
# Coordination Sequence:
#
# PCOD9569582 Si02
#       8
#     8  16   8  16   4   8   4   8
#     4  12  24  45  63  93 140 179 220 283 344 405
#     4  10  20  36  62  95 126 174 220 275 326 405
#     4   8  14  32  53  84 122 157 192 259 329 364
#     4  11  21  40  68  92 131 174 225 278 339 397
#     4   8  16  31  62  90 122 157 212 264 314 405
#     4  10  22  40  63  96 136 174 224 273 356 408
#     4  12  28  45  58  89 144 184 200 288 360 406
#     4  10  20  39  63  95 125 166 219 278 327 387
#
# _framework density 21.280881000000001
#
# number of rings (size 3 to 8) (size 9 to 14) (size 15 to 20)
#    0.000    1.778    4.444    1.333    0.000    2.000 
#    0.000    2.222    0.000    6.000    0.000    0.000 
#    0.000    0.000    0.000    0.000    0.000    0.000 
#
# Total GULP energy -401053.137518 kJ/mol
# GULP energy per Si atom -5570.182466 kJ/mol
# Density = 2.123244 g / cm^3
# Si number density = 21.280881 Si / 1000 Ang^3
#
#
#
# Elastic Constant Matrix: (Units=GPa)
#
#
# Indices 1 2 3 4 5 6 
#
# 1 79.3886 27.4361 30.6661 0.0000 0.0000 0.0000
# 2 27.4361 79.3880 30.6660 0.0000 0.0000 0.0000
# 3 30.6661 30.6660 166.4760 0.0000 0.0000 0.0000
# 4 0.0000 0.0000 0.0000 22.3690 0.0000 0.0000
# 5 0.0000 0.0000 0.0000 0.0000 22.3691 0.0000
# 6 0.0000 0.0000 0.0000 0.0000 0.0000 34.8575
#
#
#
# Elastic Compliance Matrix: (Units=1/GPa)
#
#
# Indices 1 2 3 4 5 6 
#
# 1 0.014858 -0.004390 -0.001928 0.000000 0.000000 0.000000
# 2 -0.004390 0.014858 -0.001928 0.000000 0.000000 0.000000
# 3 -0.001928 -0.001928 0.006717 0.000000 0.000000 0.000000
# 4 0.000000 0.000000 0.000000 0.044705 0.000000 0.000000
# 5 0.000000 0.000000 0.000000 0.000000 0.044704 0.000000
# 6 0.000000 0.000000 0.000000 0.000000 0.000000 0.028688
#
#
# Mechanical properties :
#
#
# Convention : Reuss Voigt Hill
#
# Bulk Modulus (GPa) = 50.14907 55.86543 53.00725
# Shear Modulus (GPa) = 28.14177 31.68475 29.91326
#
# Velocity S-wave (km/s) = 3.64042 3.86279 3.75325
# Velocity P-wave (km/s) = 6.42547 6.79730 6.61400
#
# Compressibility (1/GPa) = 0.01994055
#
# Stress axis : x y z
#
# Youngs Moduli (GPa) = 67.30238 67.30188 148.86941
#
# Poissons Ratio (x) = 0.29546 0.28707
# Poissons Ratio (y) = 0.29546 0.28707
# Poissons Ratio (z) = 0.12978 0.12978
#
# Static dielectric constant tensor:
#      x y z
#    x 1.811960 0.000000 0.000000 
#    y 0.000000 1.811960 0.000000 
#    z 0.000000 0.000000 1.892000 
# 
# From -- ./inp_files/6162.got.cif
#   From: 2010.05.17/outbox.cif.g08.bks.cpg/sg136_4_cif.got.tgz:6162.got - 2010.05.20 12:54:53.
