data_PCOD9569001
_publ_section_title
;
Structure prediction by ZEFSAII (Michael W. Deem and Ramdas Pophale) SiO2 
 PCOD9569001
Probable space group: P 42/M B C
;
_chemical_formula_sum "Si O2"
_cell_formula_units_Z 84
_cell_length_a 22.868972
_cell_length_b 22.868972
_cell_length_c 9.315047
_cell_angle_alpha 90.000000
_cell_angle_beta 90.000000
_cell_angle_gamma 90.000000
_cell_volume 4871.675316
_symmetry_space_group_name_H-M "P 42/M B C"
_symmetry_group_IT_number 135
_symmetry_cell_setting 'tetragonal'
loop_
_space_group_symop_operation_xyz
x,y,z
-y,x,1/2+z
-x,-y,z
y,-x,1/2+z
1/2+x,1/2-y,-z
1/2-x,1/2+y,-z
1/2+y,1/2+x,1/2-z
1/2-y,1/2-x,1/2-z
-x,-y,-z
y,-x,1/2-z
x,y,-z
-y,x,1/2-z
1/2-x,1/2+y,z
1/2+x,1/2-y,z
1/2-y,1/2-x,1/2+z
1/2+y,1/2+x,1/2+z
loop_
_atom_site_type_symbol
_atom_site_label
_atom_site_fract_x
_atom_site_fract_y
_atom_site_fract_z
Si Si1 0.634542 0.217757 0.172460
Si Si2 0.994981 0.755470 0.174900
Si Si3 0.670121 0.675610 0.168321
Si Si4 0.624928 0.449802 0.668144
Si Si5 0.196491 0.612190 0.666932
Si Si6 0.500000 0.500000 0.750000
O O1 0.661706 0.161706 0.250000
O O2 0.567847 0.231377 0.215904
O O3 0.669053 0.273952 0.232295
O O4 0.639051 0.213322 0.000000
O O5 0.009821 0.821849 0.225377
O O6 0.047626 0.713256 0.221550
O O7 0.995620 0.756556 0.000000
O O8 0.616460 0.634447 0.223231
O O9 0.646517 0.741752 0.173859
O O10 0.683906 0.662268 0.000000
O O11 0.637275 0.443245 0.500000
O O12 0.560551 0.476717 0.680440
O O13 0.147196 0.647196 0.750000
O O14 0.180069 0.607850 0.500000
#
# Coordination Sequence:
#
# PCOD9569001 Si02
#       6
#    16  16  16  16  16   4
#     4  11  21  33  51  73  98 128 162 197 236 286
#     4   8  17  34  50  65  93 131 161 190 239 295
#     4   9  18  33  50  70  99 131 163 202 245 282
#     4   9  18  31  46  66  95 131 169 207 243 281
#     4   9  17  31  52  74  95 121 155 196 242 289
#     4  12  18  24  44  70  96 132 178 212 240 278
#
# _framework density 17.242529999999999
#
# number of rings (size 3 to 8) (size 9 to 14) (size 15 to 20)
#    0.000    2.667    0.000    4.857    0.000    2.286 
#    0.000    2.857    0.000    5.143    0.000    4.000 
#    0.000    0.000    0.000    0.000    0.000    0.000 
#
# Total GULP energy -467658.964513 kJ/mol
# GULP energy per Si atom -5567.368625 kJ/mol
# Density = 1.720328 g / cm^3
# Si number density = 17.242530 Si / 1000 Ang^3
#
#
#
# Elastic Constant Matrix: (Units=GPa)
#
#
# Indices 1 2 3 4 5 6 
#
# 1 66.6398 32.7248 18.8942 0.0000 0.0000 0.0000
# 2 32.7248 66.6398 18.8942 0.0000 0.0000 0.0000
# 3 18.8942 18.8942 32.9262 0.0000 0.0000 0.0000
# 4 0.0000 0.0000 0.0000 16.1702 0.0000 0.0000
# 5 0.0000 0.0000 0.0000 0.0000 16.1702 0.0000
# 6 0.0000 0.0000 0.0000 0.0000 0.0000 27.3182
#
#
#
# Elastic Compliance Matrix: (Units=1/GPa)
#
#
# Indices 1 2 3 4 5 6 
#
# 1 0.021179 -0.008306 -0.007387 0.000000 0.000000 0.000000
# 2 -0.008306 0.021179 -0.007387 0.000000 0.000000 0.000000
# 3 -0.007387 -0.007387 0.038849 0.000000 0.000000 0.000000
# 4 0.000000 0.000000 0.000000 0.061842 0.000000 0.000000
# 5 0.000000 0.000000 0.000000 0.000000 0.061842 0.000000
# 6 0.000000 0.000000 0.000000 0.000000 0.000000 0.036606
#
#
# Mechanical properties :
#
#
# Convention : Reuss Voigt Hill
#
# Bulk Modulus (GPa) = 28.53314 34.13692 31.33503
# Shear Modulus (GPa) = 16.70336 18.31122 17.50729
#
# Velocity S-wave (km/s) = 3.11582 3.26234 3.18992
# Velocity P-wave (km/s) = 5.43401 5.83366 5.63738
#
# Compressibility (1/GPa) = 0.03504697
#
# Stress axis : x y z
#
# Youngs Moduli (GPa) = 47.21571 47.21571 25.74069
#
# Poissons Ratio (x) = 0.39218 0.19015
# Poissons Ratio (y) = 0.39218 0.19015
# Poissons Ratio (z) = 0.34879 0.34879
#
# Static dielectric constant tensor:
#      x y z
#    x 1.602010 0.000000 0.000000 
#    y 0.000000 1.602010 0.000000 
#    z 0.000000 0.000000 1.582960 
# 
# From -- ./inp_files/2497.got.cif
#   From: 2010.05.17/outbox.cif.g08.bks.cpg/sg135_2_cif.got.tgz:2497.got - 2010.05.20 12:50:20.
