data_PCOD9569432
_publ_section_title
;
Structure prediction by ZEFSAII (Michael W. Deem and Ramdas Pophale) SiO2 
 PCOD9569432
Probable space group: P 42/M N M
;
_chemical_formula_sum "Si O2"
_cell_formula_units_Z 72
_cell_length_a 23.278045
_cell_length_b 23.278045
_cell_length_c 8.996149
_cell_angle_alpha 90.000000
_cell_angle_beta 90.000000
_cell_angle_gamma 90.000000
_cell_volume 4874.719680
_symmetry_space_group_name_H-M "P 42/M N M"
_symmetry_group_IT_number 136
_symmetry_cell_setting 'tetragonal'
loop_
_space_group_symop_operation_xyz
x,y,z
1/2-y,1/2+x,1/2+z
-x,-y,z
1/2+y,1/2-x,1/2+z
1/2+x,1/2-y,1/2-z
1/2-x,1/2+y,1/2-z
y,x,-z
-y,-x,-z
-x,-y,-z
1/2+y,1/2-x,1/2-z
x,y,-z
1/2-y,1/2+x,1/2-z
1/2-x,1/2+y,1/2+z
1/2+x,1/2-y,1/2+z
-y,-x,z
y,x,z
loop_
_atom_site_type_symbol
_atom_site_label
_atom_site_fract_x
_atom_site_fract_y
_atom_site_fract_z
Si Si1 0.104394 0.798327 0.824789
Si Si2 0.221039 0.124547 0.178818
Si Si3 0.285298 0.813244 0.671084
Si Si4 0.485230 0.669058 0.177236
Si Si5 0.451319 0.548682 0.325431
O O1 0.148986 0.851015 0.799076
O O2 0.136893 0.740802 0.771614
O O3 0.046743 0.809406 0.734016
O O4 0.091947 0.796395 0.000000
O O5 0.168362 0.168362 0.212309
O O6 0.280196 0.157061 0.218991
O O7 0.209646 0.065589 0.262382
O O8 0.221053 0.116295 0.000000
O O9 0.291552 0.832705 0.500000
O O10 0.237148 0.762853 0.670188
O O11 0.472939 0.606649 0.248274
O O12 0.483808 0.665429 0.000000
O O13 0.500000 0.500000 0.314944
O O14 0.439905 0.560096 0.500000
#
# Coordination Sequence:
#
# PCOD9569432 Si02
#       5
#    16  16  16  16   8
#     4  10  20  33  48  66  90 124 159 194 236 280
#     4   9  17  31  50  68  91 122 152 188 236 286
#     4   8  15  29  49  70  89 114 148 188 235 282
#     4  12  23  32  46  68  93 122 159 201 235 274
#     4  11  23  37  49  61  85 125 167 203 239 280
#
# _framework density 14.770080999999999
#
# number of rings (size 3 to 8) (size 9 to 14) (size 15 to 20)
#    0.000    2.111    1.111    5.000    0.000    5.778 
#    0.000    2.222    0.000    0.000    0.000    0.000 
#    0.000    0.889    0.000    9.333    0.000    4.000 
#
# Total GULP energy -401669.345606 kJ/mol
# GULP energy per Si atom -5578.740911 kJ/mol
# Density = 1.473646 g / cm^3
# Si number density = 14.770081 Si / 1000 Ang^3
#
#
#
# Elastic Constant Matrix: (Units=GPa)
#
#
# Indices 1 2 3 4 5 6 
#
# 1 65.9057 65.3873 58.4413 0.0000 0.0000 0.0000
# 2 65.3873 65.9052 58.4414 0.0000 0.0000 0.0000
# 3 58.4413 58.4414 92.8472 0.0000 0.0000 0.0000
# 4 0.0000 0.0000 0.0000 15.8469 0.0000 0.0000
# 5 0.0000 0.0000 0.0000 0.0000 15.8469 0.0000
# 6 0.0000 0.0000 0.0000 0.0000 0.0000 20.9526
#
#
#
# Elastic Compliance Matrix: (Units=1/GPa)
#
#
# Indices 1 2 3 4 5 6 
#
# 1 0.973678 -0.956364 -0.010896 0.000000 0.000000 0.000000
# 2 -0.956364 0.973699 -0.010913 0.000000 0.000000 0.000000
# 3 -0.010896 -0.010913 0.024498 0.000000 0.000000 0.000000
# 4 0.000000 0.000000 0.000000 0.063104 0.000000 0.000000
# 5 0.000000 0.000000 0.000000 0.000000 0.063104 0.000000
# 6 0.000000 0.000000 0.000000 0.000000 0.000000 0.047727
#
#
# Mechanical properties :
#
#
# Convention : Reuss Voigt Hill
#
# Bulk Modulus (GPa) = 64.39882 65.46647 64.93264
# Shear Modulus (GPa) = 1.21734 13.35514 7.28624
#
# Velocity S-wave (km/s) = 0.90883 3.01026 2.22347
# Velocity P-wave (km/s) = 6.69304 7.51679 7.11684
#
# Compressibility (1/GPa) = 0.01552824
#
# Stress axis : x y z
#
# Youngs Moduli (GPa) = 1.02703 1.02701 40.82006
#
# Poissons Ratio (x) = 0.98220 0.44479
# Poissons Ratio (y) = 0.98222 0.44545
# Poissons Ratio (z) = 0.01119 0.01121
#
# Static dielectric constant tensor:
#      x y z
#    x 1.480500 0.000000 0.000000 
#    y 0.000000 1.480500 0.000000 
#    z 0.000000 0.000000 1.489750 
# 
# From -- ./inp_files/1568.got.cif
#   From: 2010.05.17/outbox.cif.g08.bks.cpg/sg136_1_cif.got.tgz:1568.got - 2010.05.20 12:54:53.
