data_PCOD9569284
_publ_section_title
;
Structure prediction by ZEFSAII (Michael W. Deem and Ramdas Pophale) SiO2 
 PCOD9569284
Probable space group: P 42/M N M
;
_chemical_formula_sum "Si O2"
_cell_formula_units_Z 96
_cell_length_a 16.241579
_cell_length_b 16.241579
_cell_length_c 19.985812
_cell_angle_alpha 90.000000
_cell_angle_beta 90.000000
_cell_angle_gamma 90.000000
_cell_volume 5272.035132
_symmetry_space_group_name_H-M "P 42/M N M"
_symmetry_group_IT_number 136
_symmetry_cell_setting 'tetragonal'
loop_
_space_group_symop_operation_xyz
x,y,z
1/2-y,1/2+x,1/2+z
-x,-y,z
1/2+y,1/2-x,1/2+z
1/2+x,1/2-y,1/2-z
1/2-x,1/2+y,1/2-z
y,x,-z
-y,-x,-z
-x,-y,-z
1/2+y,1/2-x,1/2-z
x,y,-z
1/2-y,1/2+x,1/2-z
1/2-x,1/2+y,1/2+z
1/2+x,1/2-y,1/2+z
-y,-x,z
y,x,z
loop_
_atom_site_type_symbol
_atom_site_label
_atom_site_fract_x
_atom_site_fract_y
_atom_site_fract_z
Si Si1 0.543355 0.238129 0.075824
Si Si2 0.785644 0.646355 0.573817
Si Si3 0.896467 0.242776 0.787632
Si Si4 0.066498 0.574052 0.574016
Si Si5 0.410426 0.911673 0.722395
Si Si6 0.502260 0.363369 0.192992
O O1 0.632404 0.198202 0.089317
O O2 0.480071 0.161856 0.077024
O O3 0.520473 0.307078 0.128948
O O4 0.545191 0.271555 0.000000
O O5 0.796686 0.608737 0.500000
O O6 0.710783 0.710783 0.570289
O O7 0.766846 0.587434 0.635526
O O8 0.820114 0.179887 0.785832
O O9 0.873698 0.326274 0.748785
O O10 0.971524 0.196614 0.751814
O O11 0.107249 0.569757 0.500000
O O12 0.110927 0.569539 0.645877
O O13 0.000000 0.500000 0.575256
O O14 0.489329 0.895930 0.769423
O O15 0.581675 0.418326 0.209874
O O16 0.427708 0.427708 0.179779
#
# Coordination Sequence:
#
# PCOD9569284 Si02
#       6
#    16  16  16  16  16  16
#     4  10  19  33  53  78 108 139 178 226 273 320
#     4   9  18  32  51  75 101 130 169 224 282 327
#     4  10  21  36  53  76 109 144 179 222 274 332
#     4  10  19  32  49  73 107 140 169 211 269 325
#     4  11  20  33  53  80 104 134 177 232 275 322
#     4  10  21  36  53  75 109 151 190 226 266 322
#
# _framework density 18.209287
#
# number of rings (size 3 to 8) (size 9 to 14) (size 15 to 20)
#    0.000    2.000    3.333    1.500    0.000    1.333 
#    0.000    0.833    0.000    1.000    0.000    3.500 
#    0.000    2.667    0.000    0.167    0.000    0.000 
#
# Total GULP energy -535393.863388 kJ/mol
# GULP energy per Si atom -5577.019410 kJ/mol
# Density = 1.816784 g / cm^3
# Si number density = 18.209287 Si / 1000 Ang^3
#
#
#
# Elastic Constant Matrix: (Units=GPa)
#
#
# Indices 1 2 3 4 5 6 
#
# 1 63.8368 14.0980 46.2914 0.0000 0.0000 0.0000
# 2 14.0980 63.8368 46.2914 0.0000 0.0000 0.0000
# 3 46.2914 46.2914 158.1794 0.0000 0.0000 0.0000
# 4 0.0000 0.0000 0.0000 11.5561 0.0000 0.0000
# 5 0.0000 0.0000 0.0000 0.0000 11.5561 0.0000
# 6 0.0000 0.0000 0.0000 0.0000 0.0000 9.3804
#
#
#
# Elastic Compliance Matrix: (Units=1/GPa)
#
#
# Indices 1 2 3 4 5 6 
#
# 1 0.019887 -0.000218 -0.005756 0.000000 0.000000 0.000000
# 2 -0.000218 0.019887 -0.005756 0.000000 0.000000 0.000000
# 3 -0.005756 -0.005756 0.009691 0.000000 0.000000 0.000000
# 4 0.000000 0.000000 0.000000 0.086535 0.000000 0.000000
# 5 0.000000 0.000000 0.000000 0.000000 0.086535 0.000000
# 6 0.000000 0.000000 0.000000 0.000000 0.000000 0.106606
#
#
# Mechanical properties :
#
#
# Convention : Reuss Voigt Hill
#
# Bulk Modulus (GPa) = 38.45438 55.46827 46.96132
# Shear Modulus (GPa) = 13.84009 18.44332 16.14170
#
# Velocity S-wave (km/s) = 2.75990 3.18599 2.98057
# Velocity P-wave (km/s) = 5.59642 6.63790 6.13928
#
# Compressibility (1/GPa) = 0.02600484
#
# Stress axis : x y z
#
# Youngs Moduli (GPa) = 50.28351 50.28351 103.18745
#
# Poissons Ratio (x) = 0.01095 0.59398
# Poissons Ratio (y) = 0.01095 0.59398
# Poissons Ratio (z) = 0.28945 0.28945
#
# Static dielectric constant tensor:
#      x y z
#    x 1.625720 0.000000 0.000000 
#    y 0.000000 1.625720 0.000000 
#    z 0.000000 0.000000 1.676880 
# 
# From -- ./inp_files/7496.got.cif
#   From: 2010.05.17/outbox.cif.g08.bks.cpg/sg136_4_cif.got.tgz:7496.got - 2010.05.20 12:54:53.
