data_PCOD9569815
_publ_section_title
;
Structure prediction by ZEFSAII (Michael W. Deem and Ramdas Pophale) SiO2 
 PCOD9569815
Probable space group: P 42/M N M
;
_chemical_formula_sum "Si O2"
_cell_formula_units_Z 56
_cell_length_a 12.544243
_cell_length_b 12.544243
_cell_length_c 18.746943
_cell_angle_alpha 90.000000
_cell_angle_beta 90.000000
_cell_angle_gamma 90.000000
_cell_volume 2949.982065
_symmetry_space_group_name_H-M "P 42/M N M"
_symmetry_group_IT_number 136
_symmetry_cell_setting 'tetragonal'
loop_
_space_group_symop_operation_xyz
x,y,z
1/2-y,1/2+x,1/2+z
-x,-y,z
1/2+y,1/2-x,1/2+z
1/2+x,1/2-y,1/2-z
1/2-x,1/2+y,1/2-z
y,x,-z
-y,-x,-z
-x,-y,-z
1/2+y,1/2-x,1/2-z
x,y,-z
1/2-y,1/2+x,1/2-z
1/2-x,1/2+y,1/2+z
1/2+x,1/2-y,1/2+z
-y,-x,z
y,x,z
loop_
_atom_site_type_symbol
_atom_site_label
_atom_site_fract_x
_atom_site_fract_y
_atom_site_fract_z
Si Si1 0.886534 0.437289 0.419524
Si Si2 0.222943 0.398779 0.325019
Si Si3 0.221700 0.501575 0.822137
Si Si4 0.089863 0.089863 0.419071
O O1 0.862459 0.401417 0.500000
O O2 0.798507 0.517323 0.388122
O O3 0.000000 0.500000 0.422502
O O4 0.910155 0.343528 0.363748
O O5 0.303623 0.303623 0.343381
O O6 0.104877 0.352369 0.308054
O O7 0.261150 0.457592 0.253310
O O8 0.312080 0.542512 0.875220
O O9 0.120618 0.120618 0.500000
O O10 0.000000 0.000000 0.422991
#
# Coordination Sequence:
#
# PCOD9569815 Si02
#       4
#    16  16  16   8
#     4   9  19  33  54  83 117 154 193 244 302 357
#     4  11  21  35  59  86 117 159 202 252 303 359
#     4  11  20  38  59  85 121 160 205 250 301 368
#     4  11  24  40  60  90 129 164 201 258 319 372
#
# _framework density 18.983167000000002
#
# number of rings (size 3 to 8) (size 9 to 14) (size 15 to 20)
#    0.000    1.571    4.286    1.714    0.000    1.714 
#    0.000    0.000    0.000    0.000    0.000    0.000 
#    0.000    5.714    0.000    0.000    0.000    0.000 
#
# Total GULP energy -312553.279899 kJ/mol
# GULP energy per Si atom -5581.308570 kJ/mol
# Density = 1.893996 g / cm^3
# Si number density = 18.983167 Si / 1000 Ang^3
#
#
#
# Elastic Constant Matrix: (Units=GPa)
#
#
# Indices 1 2 3 4 5 6 
#
# 1 49.0480 21.8088 26.7122 0.0000 0.0000 0.0000
# 2 21.8088 49.0480 26.7122 0.0000 0.0000 0.0000
# 3 26.7122 26.7122 125.1524 0.0000 0.0000 0.0000
# 4 0.0000 0.0000 0.0000 20.8498 0.0000 0.0000
# 5 0.0000 0.0000 0.0000 0.0000 20.8498 0.0000
# 6 0.0000 0.0000 0.0000 0.0000 0.0000 35.0928
#
#
#
# Elastic Compliance Matrix: (Units=1/GPa)
#
#
# Indices 1 2 3 4 5 6 
#
# 1 0.026766 -0.009946 -0.003590 0.000000 0.000000 0.000000
# 2 -0.009946 0.026766 -0.003590 0.000000 0.000000 0.000000
# 3 -0.003590 -0.003590 0.009523 0.000000 0.000000 0.000000
# 4 0.000000 0.000000 0.000000 0.047962 0.000000 0.000000
# 5 0.000000 0.000000 0.000000 0.000000 0.047962 0.000000
# 6 0.000000 0.000000 0.000000 0.000000 0.000000 0.028496
#
#
# Mechanical properties :
#
#
# Convention : Reuss Voigt Hill
#
# Bulk Modulus (GPa) = 34.71940 41.52387 38.12164
# Shear Modulus (GPa) = 21.61440 25.22613 23.42026
#
# Velocity S-wave (km/s) = 3.37799 3.64932 3.51627
# Velocity P-wave (km/s) = 5.79169 6.29907 6.05070
#
# Compressibility (1/GPa) = 0.02880234
#
# Stress axis : x y z
#
# Youngs Moduli (GPa) = 37.36113 37.36113 105.01188
#
# Poissons Ratio (x) = 0.37160 0.37699
# Poissons Ratio (y) = 0.37160 0.37699
# Poissons Ratio (z) = 0.13413 0.13413
#
# Static dielectric constant tensor:
#      x y z
#    x 1.677180 0.000000 0.000000 
#    y 0.000000 1.677180 0.000000 
#    z 0.000000 0.000000 1.647480 
# 
# From -- ./inp_files/6918.got.cif
#   From: 2010.05.17/outbox.cif.g08.bks.cpg/sg136_4_cif.got.tgz:6918.got - 2010.05.20 12:54:53.
