data_PCOD9569058
_publ_section_title
;
Structure prediction by ZEFSAII (Michael W. Deem and Ramdas Pophale) SiO2 
 PCOD9569058
Probable space group: P 42/M B C
;
_chemical_formula_sum "Si O2"
_cell_formula_units_Z 48
_cell_length_a 9.062791
_cell_length_b 9.062791
_cell_length_c 22.791627
_cell_angle_alpha 90.000000
_cell_angle_beta 90.000000
_cell_angle_gamma 90.000000
_cell_volume 1871.971611
_symmetry_space_group_name_H-M "P 42/M B C"
_symmetry_group_IT_number 135
_symmetry_cell_setting 'tetragonal'
loop_
_space_group_symop_operation_xyz
x,y,z
-y,x,1/2+z
-x,-y,z
y,-x,1/2+z
1/2+x,1/2-y,-z
1/2-x,1/2+y,-z
1/2+y,1/2+x,1/2-z
1/2-y,1/2-x,1/2-z
-x,-y,-z
y,-x,1/2-z
x,y,-z
-y,x,1/2-z
1/2-x,1/2+y,z
1/2+x,1/2-y,z
1/2-y,1/2-x,1/2+z
1/2+y,1/2+x,1/2+z
loop_
_atom_site_type_symbol
_atom_site_label
_atom_site_fract_x
_atom_site_fract_y
_atom_site_fract_z
Si Si1 0.396368 0.369530 0.107295
Si Si2 0.834384 0.445422 0.935456
Si Si3 0.049770 0.221639 0.772610
O O1 0.500000 0.500000 0.082131
O O2 0.340672 0.229690 0.071382
O O3 0.249515 0.466684 0.115522
O O4 0.482464 0.296791 0.162113
O O5 0.000000 0.500000 0.935029
O O6 0.770776 0.481648 0.000000
O O7 0.130812 0.369189 0.750000
O O8 0.909736 0.169975 0.734045
#
# Coordination Sequence:
#
# PCOD9569058 Si02
#       3
#    16  16  16
#     4  12  26  47  80 119 160 218 275 344 426 504
#     4  11  27  49  79 117 161 213 274 347 426 509
#     4  11  27  50  76 115 160 212 272 339 413 495
#
# _framework density 25.641413
#
# number of rings (size 3 to 8) (size 9 to 14) (size 15 to 20)
#    0.000    0.667    3.333    3.000    9.333    6.000 
#    0.000    0.000    0.000    0.000    0.000    0.000 
#    0.000    0.000    0.000    0.000    0.000    0.000 
#
# Total GULP energy -268178.671399 kJ/mol
# GULP energy per Si atom -5587.055654 kJ/mol
# Density = 2.558305 g / cm^3
# Si number density = 25.641413 Si / 1000 Ang^3
#
#
#
# Elastic Constant Matrix: (Units=GPa)
#
#
# Indices 1 2 3 4 5 6 
#
# 1 132.4381 64.9779 48.3687 0.0000 0.0000 0.0000
# 2 64.9779 132.4347 48.3677 0.0000 0.0000 0.0000
# 3 48.3687 48.3677 85.1841 0.0000 0.0000 0.0000
# 4 0.0000 0.0000 0.0000 -33.6845 0.0000 0.0000
# 5 0.0000 0.0000 0.0000 0.0000 -33.6868 0.0000
# 6 0.0000 0.0000 0.0000 0.0000 0.0000 69.0195
#
#
#
# Elastic Compliance Matrix: (Units=1/GPa)
#
#
# Indices 1 2 3 4 5 6 
#
# 1 0.010921 -0.003903 -0.003985 0.000000 0.000000 0.000000
# 2 -0.003903 0.010921 -0.003985 0.000000 0.000000 0.000000
# 3 -0.003985 -0.003985 0.016265 0.000000 0.000000 0.000000
# 4 0.000000 0.000000 0.000000 -0.029687 0.000000 0.000000
# 5 0.000000 0.000000 0.000000 0.000000 -0.029685 0.000000
# 6 0.000000 0.000000 0.000000 0.000000 0.000000 0.014489
#
#
# Mechanical properties :
#
#
# Convention : Reuss Voigt Hill
#
# Bulk Modulus (GPa) = 69.63235 74.83172 72.23204
# Shear Modulus (GPa) = 229.82407 12.88581 121.35494
#
# Velocity S-wave (km/s) = 9.47758 2.24417 6.88698
# Velocity P-wave (km/s) = 12.12358 5.99686 9.56409
#
# Compressibility (1/GPa) = 0.01436114
#
# Stress axis : x y z
#
# Youngs Moduli (GPa) = 91.56706 91.56520 61.48287
#
# Poissons Ratio (x) = 0.35737 0.24501
# Poissons Ratio (y) = 0.35737 0.24501
# Poissons Ratio (z) = 0.36490 0.36488
#
# Static dielectric constant tensor:
#      x y z
#    x 1.623830 0.000000 0.000000 
#    y 0.000000 1.623850 0.000000 
#    z 0.000000 0.000000 2.093460 
# 
# From -- ./inp_files/6601.got.cif
#   From: 2010.05.17/outbox.cif.g08.bks.cpg/sg135_4_cif.got.tgz:6601.got - 2010.05.20 12:50:20.
