data_PCOD9569192
_publ_section_title
;
Structure prediction by ZEFSAII (Michael W. Deem and Ramdas Pophale) SiO2 
 PCOD9569192
Probable space group: P 42/M N M
;
_chemical_formula_sum "Si O2"
_cell_formula_units_Z 96
_cell_length_a 24.391060
_cell_length_b 24.391060
_cell_length_c 7.409980
_cell_angle_alpha 90.000000
_cell_angle_beta 90.000000
_cell_angle_gamma 90.000000
_cell_volume 4408.373518
_symmetry_space_group_name_H-M "P 42/M N M"
_symmetry_group_IT_number 136
_symmetry_cell_setting 'tetragonal'
loop_
_space_group_symop_operation_xyz
x,y,z
1/2-y,1/2+x,1/2+z
-x,-y,z
1/2+y,1/2-x,1/2+z
1/2+x,1/2-y,1/2-z
1/2-x,1/2+y,1/2-z
y,x,-z
-y,-x,-z
-x,-y,-z
1/2+y,1/2-x,1/2-z
x,y,-z
1/2-y,1/2+x,1/2-z
1/2-x,1/2+y,1/2+z
1/2+x,1/2-y,1/2+z
-y,-x,z
y,x,z
loop_
_atom_site_type_symbol
_atom_site_label
_atom_site_fract_x
_atom_site_fract_y
_atom_site_fract_z
Si Si1 0.766885 0.640055 0.718474
Si Si2 0.127998 0.427696 0.205324
Si Si3 0.459897 0.710705 0.278273
Si Si4 0.953106 0.663220 0.206333
Si Si5 0.353827 0.646174 0.705880
Si Si6 0.764619 0.764619 0.718527
Si Si7 0.924773 0.159343 0.780580
O O1 0.769804 0.637877 0.500000
O O2 0.812815 0.600477 0.793381
O O3 0.776933 0.702397 0.773477
O O4 0.707344 0.617804 0.768746
O O5 0.087563 0.382087 0.288663
O O6 0.136915 0.486535 0.293798
O O7 0.109666 0.438636 0.000000
O O8 0.460424 0.712489 0.500000
O O9 0.455924 0.774609 0.218636
O O10 0.407953 0.674893 0.216827
O O11 0.515755 0.680393 0.221278
O O12 0.933597 0.670215 0.000000
O O13 0.368476 0.631525 0.500000
O O14 0.307413 0.692588 0.707067
O O15 0.767052 0.767052 0.500000
O O16 0.898301 0.101699 0.720916
O O17 0.926927 0.157593 0.000000
#
# Coordination Sequence:
#
# PCOD9569192 Si02
#       7
#    16  16  16  16   8   8  16
#     4  10  18  32  54  77 106 141 177 221 275 331
#     4  11  23  36  54  81 106 138 186 231 272 323
#     4   9  17  32  54  77 106 145 180 215 270 330
#     4  10  21  38  56  73 104 147 182 218 275 335
#     4  10  20  34  53  78 110 148 183 223 277 327
#     4  10  20  32  52  83 109 138 182 227 273 332
#     4   9  15  27  52  81 104 136 179 217 261 323
#
# _framework density 21.77674
#
# number of rings (size 3 to 8) (size 9 to 14) (size 15 to 20)
#    0.000    2.167    2.500    1.500    0.000    3.667 
#    0.000    2.917    0.000    2.500    0.000    0.000 
#    0.000    0.667    0.000    0.000    0.000    0.000 
#
# Total GULP energy -535969.865614 kJ/mol
# GULP energy per Si atom -5583.019433 kJ/mol
# Density = 2.172717 g / cm^3
# Si number density = 21.776740 Si / 1000 Ang^3
#
#
#
# Elastic Constant Matrix: (Units=GPa)
#
#
# Indices 1 2 3 4 5 6 
#
# 1 156.4980 68.2501 1.3415 0.0000 0.0000 0.0000
# 2 68.2501 156.4985 1.3417 0.0000 0.0000 0.0000
# 3 1.3415 1.3417 67.9027 0.0000 0.0000 0.0000
# 4 0.0000 0.0000 0.0000 15.9890 0.0000 0.0000
# 5 0.0000 0.0000 0.0000 0.0000 15.9896 0.0000
# 6 0.0000 0.0000 0.0000 0.0000 0.0000 41.7605
#
#
#
# Elastic Compliance Matrix: (Units=1/GPa)
#
#
# Indices 1 2 3 4 5 6 
#
# 1 0.007891 -0.003441 -0.000088 0.000000 0.000000 0.000000
# 2 -0.003441 0.007891 -0.000088 0.000000 0.000000 0.000000
# 3 -0.000088 -0.000088 0.014730 0.000000 0.000000 0.000000
# 4 0.000000 0.000000 0.000000 0.062543 0.000000 0.000000
# 5 0.000000 0.000000 0.000000 0.000000 0.062541 0.000000
# 6 0.000000 0.000000 0.000000 0.000000 0.000000 0.023946
#
#
# Mechanical properties :
#
#
# Convention : Reuss Voigt Hill
#
# Bulk Modulus (GPa) = 42.95598 58.08509 50.52054
# Shear Modulus (GPa) = 25.70229 35.41220 30.55724
#
# Velocity S-wave (km/s) = 3.43922 4.03693 3.75000
# Velocity P-wave (km/s) = 5.96150 6.96132 6.48072
#
# Compressibility (1/GPa) = 0.02327964
#
# Stress axis : x y z
#
# Youngs Moduli (GPa) = 126.72521 126.72559 67.88670
#
# Poissons Ratio (x) = 0.43601 0.00597
# Poissons Ratio (y) = 0.43601 0.00597
# Poissons Ratio (z) = 0.01114 0.01115
#
# Static dielectric constant tensor:
#      x y z
#    x 1.771540 0.000000 0.000000 
#    y 0.000000 1.771540 0.000000 
#    z 0.000000 0.000000 1.863320 
# 
# From -- ./inp_files/2078.got.cif
#   From: 2010.05.17/outbox.cif.g08.bks.cpg/sg136_2_cif.got.tgz:2078.got - 2010.05.20 12:54:53.
