data_PCOD9569020
_publ_section_title
;
Structure prediction by ZEFSAII (Michael W. Deem and Ramdas Pophale) SiO2 
 PCOD9569020
Probable space group: P 42/M B C
;
_chemical_formula_sum "Si O2"
_cell_formula_units_Z 112
_cell_length_a 14.036748
_cell_length_b 14.036748
_cell_length_c 28.139074
_cell_angle_alpha 90.000000
_cell_angle_beta 90.000000
_cell_angle_gamma 90.000000
_cell_volume 5544.250035
_symmetry_space_group_name_H-M "P 42/M B C"
_symmetry_group_IT_number 135
_symmetry_cell_setting 'tetragonal'
loop_
_space_group_symop_operation_xyz
x,y,z
-y,x,1/2+z
-x,-y,z
y,-x,1/2+z
1/2+x,1/2-y,-z
1/2-x,1/2+y,-z
1/2+y,1/2+x,1/2-z
1/2-y,1/2-x,1/2-z
-x,-y,-z
y,-x,1/2-z
x,y,-z
-y,x,1/2-z
1/2-x,1/2+y,z
1/2+x,1/2-y,z
1/2-y,1/2-x,1/2+z
1/2+y,1/2+x,1/2+z
loop_
_atom_site_type_symbol
_atom_site_label
_atom_site_fract_x
_atom_site_fract_y
_atom_site_fract_z
Si Si1 0.016730 0.162374 0.300479
Si Si2 0.345331 0.491038 0.692507
Si Si3 0.068651 0.409759 0.947250
Si Si4 0.380685 0.394792 0.944515
Si Si5 0.226594 0.506447 0.891277
Si Si6 0.267353 0.196239 0.943625
Si Si7 0.215712 0.950047 0.590807
O O1 0.017180 0.194964 0.245752
O O2 0.000019 0.248622 0.336213
O O3 0.931239 0.086107 0.307059
O O4 0.109733 0.097407 0.311911
O O5 0.281287 0.464684 0.647479
O O6 0.148513 0.431345 0.908539
O O7 0.015708 0.312515 0.934609
O O8 0.000000 0.500000 0.948267
O O9 0.112996 0.400141 0.000000
O O10 0.325337 0.476242 0.916577
O O11 0.322659 0.295546 0.936954
O O12 0.486377 0.372394 0.926619
O O13 0.381034 0.416774 0.000000
O O14 0.196083 0.608512 0.911796
O O15 0.158337 0.207576 0.926353
O O16 0.271267 0.172387 0.000000
#
# Coordination Sequence:
#
# PCOD9569020 Si02
#       7
#    16  16  16  16  16  16  16
#     4   9  18  35  58  86 118 151 189 237 300 366
#     4   9  18  35  58  86 118 151 189 237 300 366
#     4  11  24  42  61  83 119 172 211 226 276 367
#     4  11  23  37  55  84 121 157 194 242 296 354
#     4  12  21  37  61  86 118 152 198 250 294 350
#     4  11  23  37  55  84 121 157 194 242 296 354
#     4  12  21  37  61  86 118 152 198 250 294 350
#
# _framework density 20.201108000000001
#
# number of rings (size 3 to 8) (size 9 to 14) (size 15 to 20)
#    0.000    1.286    4.286    4.286    0.000    2.857 
#    0.000    2.143    0.000    6.000    0.000    0.000 
#    0.000    0.000    0.000    0.000    0.000    0.000 
#
# Total GULP energy -625916.242685 kJ/mol
# GULP energy per Si atom -5588.537881 kJ/mol
# Density = 2.015513 g / cm^3
# Si number density = 20.201108 Si / 1000 Ang^3
#
#
#
# Elastic Constant Matrix: (Units=GPa)
#
#
# Indices 1 2 3 4 5 6 
#
# 1 41.9221 -16.8634 6.8123 0.0000 0.0000 0.0000
# 2 -16.8634 41.9221 6.8123 0.0000 0.0000 0.0000
# 3 6.8123 6.8123 130.9260 0.0000 0.0000 0.0000
# 4 0.0000 0.0000 0.0000 12.2355 0.0000 0.0000
# 5 0.0000 0.0000 0.0000 0.0000 12.2355 0.0000
# 6 0.0000 0.0000 0.0000 0.0000 0.0000 27.5539
#
#
#
# Elastic Compliance Matrix: (Units=1/GPa)
#
#
# Indices 1 2 3 4 5 6 
#
# 1 0.029039 0.012029 -0.002137 0.000000 0.000000 0.000000
# 2 0.012029 0.029039 -0.002137 0.000000 0.000000 0.000000
# 3 -0.002137 -0.002137 0.007860 0.000000 0.000000 0.000000
# 4 0.000000 0.000000 0.000000 0.081729 0.000000 0.000000
# 5 0.000000 0.000000 0.000000 0.000000 0.081729 0.000000
# 6 0.000000 0.000000 0.000000 0.000000 0.000000 0.036293
#
#
# Mechanical properties :
#
#
# Convention : Reuss Voigt Hill
#
# Bulk Modulus (GPa) = 12.27764 23.14365 17.71064
# Shear Modulus (GPa) = 18.02905 24.93892 21.48399
#
# Velocity S-wave (km/s) = 2.99068 3.51740 3.26468
# Velocity P-wave (km/s) = 4.24458 5.28939 4.79552
#
# Compressibility (1/GPa) = 0.08144890
#
# Stress axis : x y z
#
# Youngs Moduli (GPa) = 34.43586 34.43586 127.22206
#
# Poissons Ratio (x) = -0.41421 0.27185
# Poissons Ratio (y) = -0.41421 0.27185
# Poissons Ratio (z) = 0.07358 0.07358
#
# Static dielectric constant tensor:
#      x y z
#    x 1.739720 0.000000 0.000000 
#    y 0.000000 1.739720 0.000000 
#    z 0.000000 0.000000 1.704700 
# 
# From -- ./inp_files/6161.got.cif
#   From: 2010.05.17/outbox.cif.g08.bks.cpg/sg135_4_cif.got.tgz:6161.got - 2010.05.20 12:50:20.
