data_PCOD9569161
_publ_section_title
;
Structure prediction by ZEFSAII (Michael W. Deem and Ramdas Pophale) SiO2 
 PCOD9569161
Probable space group: P 42/M N M
;
_chemical_formula_sum "Si O2"
_cell_formula_units_Z 128
_cell_length_a 17.898681
_cell_length_b 17.898681
_cell_length_c 24.634908
_cell_angle_alpha 90.000000
_cell_angle_beta 90.000000
_cell_angle_gamma 90.000000
_cell_volume 7892.107650
_symmetry_space_group_name_H-M "P 42/M N M"
_symmetry_group_IT_number 136
_symmetry_cell_setting 'tetragonal'
loop_
_space_group_symop_operation_xyz
x,y,z
1/2-y,1/2+x,1/2+z
-x,-y,z
1/2+y,1/2-x,1/2+z
1/2+x,1/2-y,1/2-z
1/2-x,1/2+y,1/2-z
y,x,-z
-y,-x,-z
-x,-y,-z
1/2+y,1/2-x,1/2-z
x,y,-z
1/2-y,1/2+x,1/2-z
1/2-x,1/2+y,1/2+z
1/2+x,1/2-y,1/2+z
-y,-x,z
y,x,z
loop_
_atom_site_type_symbol
_atom_site_label
_atom_site_fract_x
_atom_site_fract_y
_atom_site_fract_z
Si Si1 0.558980 0.225873 0.103830
Si Si2 0.334053 0.207104 0.559233
Si Si3 0.373282 0.887862 0.249723
Si Si4 0.895954 0.774630 0.723629
Si Si5 0.879669 0.999230 0.211213
Si Si6 0.498931 0.379206 0.934548
Si Si7 0.110176 0.764322 0.829651
Si Si8 0.996967 0.584360 0.659418
O O1 0.629224 0.209728 0.065519
O O2 0.592561 0.249687 0.162065
O O3 0.508606 0.294860 0.085014
O O4 0.518245 0.147445 0.114797
O O5 0.372214 0.209053 0.500000
O O6 0.273464 0.273464 0.559883
O O7 0.383074 0.219797 0.613509
O O8 0.392813 0.800998 0.257946
O O9 0.292267 0.894634 0.221245
O O10 0.430060 0.916945 0.203628
O O11 0.387775 0.933473 0.304205
O O12 0.819634 0.819634 0.729113
O O13 0.961476 0.829788 0.742351
O O14 0.936461 0.063540 0.231221
O O15 0.821676 0.040705 0.171641
O O16 0.933004 0.933004 0.188527
O O17 0.570703 0.429298 0.917066
O O18 0.425447 0.425447 0.916677
O O19 0.498806 0.379149 0.000000
O O20 0.184386 0.815615 0.824051
O O21 0.000000 0.500000 0.638025
#
# Coordination Sequence:
#
# PCOD9569161 Si02
#       8
#    16  16  16  16  16  16  16  16
#     4  11  20  30  49  71 100 133 166 204 252 296
#     4  10  19  30  48  75 101 125 158 201 252 302
#     4  11  18  31  49  68  96 131 163 198 245 292
#     4  10  19  29  46  71 101 130 162 197 235 290
#     4   9  19  33  48  69  99 134 164 194 241 301
#     4   9  18  33  53  76 102 133 167 201 242 300
#     4  10  18  30  49  73  98 126 161 202 243 295
#     4  11  21  32  47  69  93 129 168 207 247 294
#
# _framework density 16.218734999999999
#
# number of rings (size 3 to 8) (size 9 to 14) (size 15 to 20)
#    0.000    1.875    3.750    3.750    0.000    1.500 
#    0.000    2.500    0.000    1.875    0.000    2.625 
#    0.000    0.000    0.000    0.000    0.000    0.000 
#
# Total GULP energy -713206.284804 kJ/mol
# GULP energy per Si atom -5571.924100 kJ/mol
# Density = 1.618182 g / cm^3
# Si number density = 16.218735 Si / 1000 Ang^3
#
#
#
# Elastic Constant Matrix: (Units=GPa)
#
#
# Indices 1 2 3 4 5 6 
#
# 1 77.7106 19.7462 14.7363 0.0000 0.0000 0.0000
# 2 19.7462 77.7106 14.7363 0.0000 0.0000 0.0000
# 3 14.7363 14.7363 40.3377 0.0000 0.0000 0.0000
# 4 0.0000 0.0000 0.0000 12.9281 0.0000 0.0000
# 5 0.0000 0.0000 0.0000 0.0000 12.9281 0.0000
# 6 0.0000 0.0000 0.0000 0.0000 0.0000 23.1979
#
#
#
# Elastic Compliance Matrix: (Units=1/GPa)
#
#
# Indices 1 2 3 4 5 6 
#
# 1 0.014394 -0.002858 -0.004214 0.000000 0.000000 0.000000
# 2 -0.002858 0.014394 -0.004214 0.000000 0.000000 0.000000
# 3 -0.004214 -0.004214 0.027870 0.000000 0.000000 0.000000
# 4 0.000000 0.000000 0.000000 0.077351 0.000000 0.000000
# 5 0.000000 0.000000 0.000000 0.000000 0.077351 0.000000
# 6 0.000000 0.000000 0.000000 0.000000 0.000000 0.043107
#
#
# Mechanical properties :
#
#
# Convention : Reuss Voigt Hill
#
# Bulk Modulus (GPa) = 29.33931 32.68850 31.01390
# Shear Modulus (GPa) = 17.33699 19.58016 18.45857
#
# Velocity S-wave (km/s) = 3.27302 3.47833 3.37724
# Velocity P-wave (km/s) = 5.69321 6.02746 5.86271
#
# Compressibility (1/GPa) = 0.03408396
#
# Stress axis : x y z
#
# Youngs Moduli (GPa) = 69.47501 69.47501 35.88119
#
# Poissons Ratio (x) = 0.19858 0.15121
# Poissons Ratio (y) = 0.19858 0.15121
# Poissons Ratio (z) = 0.29278 0.29278
#
# Static dielectric constant tensor:
#      x y z
#    x 1.575540 0.000000 0.000000 
#    y 0.000000 1.575540 0.000000 
#    z 0.000000 0.000000 1.509670 
# 
# From -- ./inp_files/8660.got.cif
#   From: 2010.05.17/outbox.cif.g08.bks.cpg/sg136_5_cif.got.tgz:8660.got - 2010.05.20 12:54:53.
