data_PCOD9569369
_publ_section_title
;
Structure prediction by ZEFSAII (Michael W. Deem and Ramdas Pophale) SiO2 
 PCOD9569369
Probable space group: P 42/M N M
;
_chemical_formula_sum "Si O2"
_cell_formula_units_Z 120
_cell_length_a 26.698051
_cell_length_b 26.698051
_cell_length_c 9.371398
_cell_angle_alpha 90.000000
_cell_angle_beta 90.000000
_cell_angle_gamma 90.000000
_cell_volume 6679.800613
_symmetry_space_group_name_H-M "P 42/M N M"
_symmetry_group_IT_number 136
_symmetry_cell_setting 'tetragonal'
loop_
_space_group_symop_operation_xyz
x,y,z
1/2-y,1/2+x,1/2+z
-x,-y,z
1/2+y,1/2-x,1/2+z
1/2+x,1/2-y,1/2-z
1/2-x,1/2+y,1/2-z
y,x,-z
-y,-x,-z
-x,-y,-z
1/2+y,1/2-x,1/2-z
x,y,-z
1/2-y,1/2+x,1/2-z
1/2-x,1/2+y,1/2+z
1/2+x,1/2-y,1/2+z
-y,-x,z
y,x,z
loop_
_atom_site_type_symbol
_atom_site_label
_atom_site_fract_x
_atom_site_fract_y
_atom_site_fract_z
Si Si1 0.040944 0.040944 0.673330
Si Si2 0.697457 0.841438 0.335133
Si Si3 0.897317 0.590586 0.335792
Si Si4 0.003356 0.150943 0.672761
Si Si5 0.818495 0.095923 0.836022
Si Si6 0.664348 0.748865 0.839434
Si Si7 0.353604 0.002558 0.327914
Si Si8 0.557888 0.247337 0.173089
O O1 0.040178 0.040178 0.500000
O O2 0.025699 0.097144 0.715506
O O3 0.000000 0.000000 0.722152
O O4 0.709230 0.827900 0.500000
O O5 0.642354 0.866402 0.334221
O O6 0.693674 0.793760 0.235245
O O7 0.734577 0.885315 0.283841
O O8 0.899391 0.573070 0.500000
O O9 0.871285 0.548865 0.240662
O O10 0.953186 0.607117 0.290549
O O11 0.997458 0.151168 0.500000
O O12 0.038193 0.198121 0.713067
O O13 0.950438 0.160354 0.747390
O O14 0.860673 0.139328 0.837297
O O15 0.769806 0.118445 0.757631
O O16 0.807533 0.082584 0.000000
O O17 0.702245 0.702245 0.848137
O O18 0.647897 0.761826 0.000000
O O19 0.352707 0.998829 0.500000
O O20 0.298298 0.021538 0.281010
O O21 0.558516 0.245004 0.000000
#
# Coordination Sequence:
#
# PCOD9569369 Si02
#       8
#     8  16  16  16  16  16  16  16
#     4   9  18  32  53  83 117 147 179 225 279 329
#     4   9  18  35  54  74 104 139 174 217 269 320
#     4   9  19  33  49  71 101 134 170 215 265 314
#     4  10  19  34  57  83 110 144 187 230 271 322
#     4  10  21  36  54  80 113 143 176 219 271 329
#     4  10  21  36  54  79 108 138 174 214 262 319
#     4   9  18  33  50  70 100 136 173 217 267 316
#     4   8  17  34  53  76 106 138 177 224 268 314
#
# _framework density 17.964607999999998
#
# number of rings (size 3 to 8) (size 9 to 14) (size 15 to 20)
#    0.000    2.733    0.000    2.800    1.867    3.467 
#    1.200    4.333    0.000    1.200    0.000    0.000 
#    0.000    0.000    0.000    0.000    0.000    0.000 
#
# Total GULP energy -669046.437417 kJ/mol
# GULP energy per Si atom -5575.386978 kJ/mol
# Density = 1.792372 g / cm^3
# Si number density = 17.964608 Si / 1000 Ang^3
#
#
#
# Elastic Constant Matrix: (Units=GPa)
#
#
# Indices 1 2 3 4 5 6 
#
# 1 94.0981 44.3269 34.5608 0.0000 0.0000 0.0000
# 2 44.3269 94.0981 34.5608 0.0000 0.0000 0.0000
# 3 34.5608 34.5608 54.9719 0.0000 0.0000 0.0000
# 4 0.0000 0.0000 0.0000 23.2485 0.0000 0.0000
# 5 0.0000 0.0000 0.0000 0.0000 23.2485 0.0000
# 6 0.0000 0.0000 0.0000 0.0000 0.0000 15.5519
#
#
#
# Elastic Compliance Matrix: (Units=1/GPa)
#
#
# Indices 1 2 3 4 5 6 
#
# 1 0.015311 -0.004781 -0.006620 0.000000 0.000000 0.000000
# 2 -0.004781 0.015311 -0.006620 0.000000 0.000000 0.000000
# 3 -0.006620 -0.006620 0.026515 0.000000 0.000000 0.000000
# 4 0.000000 0.000000 0.000000 0.043014 0.000000 0.000000
# 5 0.000000 0.000000 0.000000 0.000000 0.043014 0.000000
# 6 0.000000 0.000000 0.000000 0.000000 0.000000 0.064301
#
#
# Mechanical properties :
#
#
# Convention : Reuss Voigt Hill
#
# Bulk Modulus (GPa) = 47.40575 52.22946 49.81760
# Shear Modulus (GPa) = 19.95697 21.05773 20.50735
#
# Velocity S-wave (km/s) = 3.33664 3.42742 3.38234
# Velocity P-wave (km/s) = 6.42572 6.69325 6.56085
#
# Compressibility (1/GPa) = 0.02109449
#
# Stress axis : x y z
#
# Youngs Moduli (GPa) = 65.31297 65.31297 37.71417
#
# Poissons Ratio (x) = 0.31227 0.24967
# Poissons Ratio (y) = 0.31227 0.24967
# Poissons Ratio (z) = 0.43238 0.43238
#
# Static dielectric constant tensor:
#      x y z
#    x 1.615140 0.000000 0.000000 
#    y 0.000000 1.615140 0.000000 
#    z 0.000000 0.000000 1.612510 
# 
# From -- ./inp_files/2351.got.cif
#   From: 2010.05.17/outbox.cif.g08.bks.cpg/sg136_2_cif.got.tgz:2351.got - 2010.05.20 12:54:53.
