data_PCOD9569861
_publ_section_title
;
Structure prediction by ZEFSAII (Michael W. Deem and Ramdas Pophale) SiO2 
 PCOD9569861
Probable space group: P 42/M N M
;
_chemical_formula_sum "Si O2"
_cell_formula_units_Z 96
_cell_length_a 24.059131
_cell_length_b 24.059131
_cell_length_c 8.771952
_cell_angle_alpha 90.000000
_cell_angle_beta 90.000000
_cell_angle_gamma 90.000000
_cell_volume 5077.572349
_symmetry_space_group_name_H-M "P 42/M N M"
_symmetry_group_IT_number 136
_symmetry_cell_setting 'tetragonal'
loop_
_space_group_symop_operation_xyz
x,y,z
1/2-y,1/2+x,1/2+z
-x,-y,z
1/2+y,1/2-x,1/2+z
1/2+x,1/2-y,1/2-z
1/2-x,1/2+y,1/2-z
y,x,-z
-y,-x,-z
-x,-y,-z
1/2+y,1/2-x,1/2-z
x,y,-z
1/2-y,1/2+x,1/2-z
1/2-x,1/2+y,1/2+z
1/2+x,1/2-y,1/2+z
-y,-x,z
y,x,z
loop_
_atom_site_type_symbol
_atom_site_label
_atom_site_fract_x
_atom_site_fract_y
_atom_site_fract_z
Si Si1 0.212424 0.989602 0.321102
Si Si2 0.591687 0.500896 0.317542
Si Si3 0.968058 0.579542 0.317804
Si Si4 0.930739 0.695886 0.820417
Si Si5 0.313425 0.777066 0.181068
Si Si6 0.720495 0.629151 0.679787
O O1 0.218922 0.999639 0.500000
O O2 0.149591 0.001993 0.268465
O O3 0.223529 0.925451 0.279844
O O4 0.255981 0.027201 0.230452
O O5 0.601591 0.502962 0.500000
O O6 0.551587 0.448414 0.287274
O O7 0.555742 0.555742 0.277392
O O8 0.968692 0.574546 0.500000
O O9 0.930995 0.529917 0.247450
O O10 0.945648 0.639155 0.267152
O O11 0.869039 0.715029 0.774869
O O12 0.934980 0.685897 0.000000
O O13 0.277676 0.722325 0.220473
O O14 0.272147 0.829347 0.203205
O O15 0.326240 0.774468 0.000000
O O16 0.719271 0.613870 0.500000
O O17 0.665236 0.665236 0.710996
#
# Coordination Sequence:
#
# PCOD9569861 Si02
#       6
#    16  16  16  16  16  16
#     4  12  25  38  56  87 124 159 200 251 301 357
#     4   9  19  38  63  88 117 157 203 250 304 367
#     4  11  23  43  68  95 126 161 203 252 308 368
#     4  12  26  42  62  89 123 166 209 255 306 361
#     4   9  20  41  66  90 119 156 198 248 306 364
#     4   9  19  38  64  90 119 157 197 241 299 361
#
# _framework density 18.906673999999999
#
# number of rings (size 3 to 8) (size 9 to 14) (size 15 to 20)
#    0.000    1.667    0.000    7.000    2.333    4.667 
#    0.000    2.500    0.000    0.000    0.000    0.000 
#    0.000    0.000    0.000    0.000    0.000    0.000 
#
# Total GULP energy -536772.730665 kJ/mol
# GULP energy per Si atom -5591.382611 kJ/mol
# Density = 1.886364 g / cm^3
# Si number density = 18.906674 Si / 1000 Ang^3
#
#
#
# Elastic Constant Matrix: (Units=GPa)
#
#
# Indices 1 2 3 4 5 6 
#
# 1 95.5329 26.7737 45.6284 0.0000 0.0000 0.0000
# 2 26.7737 95.5329 45.6284 0.0000 0.0000 0.0000
# 3 45.6284 45.6284 110.7944 0.0000 0.0000 0.0000
# 4 0.0000 0.0000 0.0000 21.6480 0.0000 0.0000
# 5 0.0000 0.0000 0.0000 0.0000 21.6480 0.0000
# 6 0.0000 0.0000 0.0000 0.0000 0.0000 10.5995
#
#
#
# Elastic Compliance Matrix: (Units=1/GPa)
#
#
# Indices 1 2 3 4 5 6 
#
# 1 0.013173 -0.001370 -0.004861 0.000000 0.000000 0.000000
# 2 -0.001370 0.013173 -0.004861 0.000000 0.000000 0.000000
# 3 -0.004861 -0.004861 0.013029 0.000000 0.000000 0.000000
# 4 0.000000 0.000000 0.000000 0.046194 0.000000 0.000000
# 5 0.000000 0.000000 0.000000 0.000000 0.046194 0.000000
# 6 0.000000 0.000000 0.000000 0.000000 0.000000 0.094344
#
#
# Mechanical properties :
#
#
# Convention : Reuss Voigt Hill
#
# Bulk Modulus (GPa) = 58.16630 59.76901 58.96765
# Shear Modulus (GPa) = 19.68334 23.03440 21.35887
#
# Velocity S-wave (km/s) = 3.23008 3.49423 3.36475
# Velocity P-wave (km/s) = 6.68902 6.92538 6.80822
#
# Compressibility (1/GPa) = 0.01719209
#
# Stress axis : x y z
#
# Youngs Moduli (GPa) = 75.91141 75.91141 76.74967
#
# Poissons Ratio (x) = 0.10402 0.37307
# Poissons Ratio (y) = 0.10402 0.37307
# Poissons Ratio (z) = 0.36899 0.36899
#
# Static dielectric constant tensor:
#      x y z
#    x 1.632790 0.000000 0.000000 
#    y 0.000000 1.632790 0.000000 
#    z 0.000000 0.000000 1.634920 
# 
# From -- ./inp_files/2019.got.cif
#   From: 2010.05.17/outbox.cif.g08.bks.cpg/sg136_2_cif.got.tgz:2019.got - 2010.05.20 12:54:53.
