data_PCOD9569959
_publ_section_title
;
Structure prediction by ZEFSAII (Michael W. Deem and Ramdas Pophale) SiO2 
 PCOD9569959
Probable space group: P 42/N M C
;
_chemical_formula_sum "Si O2"
_cell_formula_units_Z 112
_cell_length_a 14.741466
_cell_length_b 14.741466
_cell_length_c 26.842929
_cell_angle_alpha 90.000000
_cell_angle_beta 90.000000
_cell_angle_gamma 90.000000
_cell_volume 5833.258908
_symmetry_space_group_name_H-M "P 42/N M C"
_symmetry_group_IT_number 137
_space_group.IT_coordinate_system_code '2'
_symmetry_cell_setting 'tetragonal'
loop_
_space_group_symop_operation_xyz
x,y,z
1/2-y,x,1/2+z
1/2-x,1/2-y,z
y,1/2-x,1/2+z
1/2+x,-y,-z
-x,1/2+y,-z
1/2+y,1/2+x,1/2-z
-y,-x,1/2-z
-x,-y,-z
1/2+y,-x,1/2-z
1/2+x,1/2+y,-z
-y,1/2+x,1/2-z
1/2-x,y,z
x,1/2-y,z
1/2-y,1/2-x,1/2+z
y,x,1/2+z
loop_
_atom_site_type_symbol
_atom_site_label
_atom_site_fract_x
_atom_site_fract_y
_atom_site_fract_z
Si Si1 0.139374 0.354660 0.595602
Si Si2 0.353765 0.355736 0.906611
Si Si3 0.638869 0.967843 0.501462
Si Si4 0.855842 0.948407 0.304315
Si Si5 0.639745 0.351121 0.450302
Si Si6 0.647409 0.599173 0.199672
Si Si7 0.891458 0.149100 0.332772
O O1 0.250000 0.357285 0.596397
O O2 0.111882 0.250000 0.596939
O O3 0.113161 0.403908 0.544798
O O4 0.106343 0.408594 0.644353
O O5 0.250000 0.394607 0.907438
O O6 0.343741 0.250000 0.919156
O O7 0.392756 0.359947 0.850648
O O8 0.421487 0.394928 0.947753
O O9 0.750000 0.971367 0.503395
O O10 0.608730 0.068957 0.486755
O O11 0.750000 0.922911 0.302410
O O12 0.896595 0.903761 0.254278
O O13 0.856103 0.057915 0.306578
O O14 0.750000 0.352313 0.450049
O O15 0.609678 0.250000 0.464689
O O16 0.613490 0.366338 0.392398
O O17 0.750000 0.637946 0.203081
O O18 0.654657 0.494011 0.185341
O O19 0.851220 0.250000 0.323232
#
# Coordination Sequence:
#
# PCOD9569959 Si02
#       7
#    16  16  16  16  16  16  16
#     4   9  16  25  40  64  90 116 152 200 246 280
#     4   9  17  30  48  66  86 115 151 194 239 283
#     4   9  15  26  44  67  90 114 153 200 238 283
#     4  10  18  29  44  63  90 124 159 195 232 276
#     4   9  16  26  43  66  92 123 156 192 234 279
#     4   9  19  31  42  60  86 115 151 191 231 280
#     4  10  18  29  44  63  90 122 155 192 232 277
#
# _framework density 19.200244999999999
#
# number of rings (size 3 to 8) (size 9 to 14) (size 15 to 20)
#    0.000    2.714    1.429    1.286    0.000    3.143 
#    0.000    4.286    0.000    5.143    0.000    0.000 
#    0.000    1.143    0.000    0.000    0.000    0.000 
#
# Total GULP energy -623729.244570 kJ/mol
# GULP energy per Si atom -5569.011112 kJ/mol
# Density = 1.915654 g / cm^3
# Si number density = 19.200245 Si / 1000 Ang^3
#
#
#
# Elastic Constant Matrix: (Units=GPa)
#
#
# Indices 1 2 3 4 5 6 
#
# 1 51.5169 6.1439 31.1207 0.0000 0.0000 0.0000
# 2 6.1439 51.5169 31.1207 0.0000 0.0000 0.0000
# 3 31.1207 31.1207 143.5050 0.0000 0.0000 0.0000
# 4 0.0000 0.0000 0.0000 138.7635 0.0000 0.0000
# 5 0.0000 0.0000 0.0000 0.0000 138.7635 0.0000
# 6 0.0000 0.0000 0.0000 0.0000 0.0000 3.4546
#
#
#
# Elastic Compliance Matrix: (Units=1/GPa)
#
#
# Indices 1 2 3 4 5 6 
#
# 1 0.022341 0.000302 -0.004910 0.000000 0.000000 0.000000
# 2 0.000302 0.022341 -0.004910 0.000000 0.000000 0.000000
# 3 -0.004910 -0.004910 0.009098 0.000000 0.000000 0.000000
# 4 0.000000 0.000000 0.000000 0.007207 0.000000 0.000000
# 5 0.000000 0.000000 0.000000 0.000000 0.007207 0.000000
# 6 0.000000 0.000000 0.000000 0.000000 0.000000 0.289472
#
#
# Mechanical properties :
#
#
# Convention : Reuss Voigt Hill
#
# Bulk Modulus (GPa) = 28.78279 42.58996 35.68637
# Shear Modulus (GPa) = 12.87712 68.07320 40.47516
#
# Velocity S-wave (km/s) = 2.59255 5.96081 4.59634
# Velocity P-wave (km/s) = 4.89746 8.34297 6.84070
#
# Compressibility (1/GPa) = 0.03474299
#
# Stress axis : x y z
#
# Youngs Moduli (GPa) = 44.75988 44.75988 109.91207
#
# Poissons Ratio (x) = -0.01351 0.53972
# Poissons Ratio (y) = -0.01351 0.53972
# Poissons Ratio (z) = 0.21979 0.21979
#
# Static dielectric constant tensor:
#      x y z
#    x 1.710350 0.000000 0.000000 
#    y 0.000000 1.710350 0.000000 
#    z 0.000000 0.000000 1.721180 
# 
# From -- ./inp_files/10689.got.cif
#   From: 2010.05.17/outbox.cif.g08.bks.cpg/sg137_6_cif.got.tgz:10689.got - 2010.05.20 13:01:12.
