data_PCOD9569469
_publ_section_title
;
Structure prediction by ZEFSAII (Michael W. Deem and Ramdas Pophale) SiO2 
 PCOD9569469
Probable space group: P 42/M N M
;
_chemical_formula_sum "Si O2"
_cell_formula_units_Z 72
_cell_length_a 22.007086
_cell_length_b 22.007086
_cell_length_c 7.653248
_cell_angle_alpha 90.000000
_cell_angle_beta 90.000000
_cell_angle_gamma 90.000000
_cell_volume 3706.558577
_symmetry_space_group_name_H-M "P 42/M N M"
_symmetry_group_IT_number 136
_symmetry_cell_setting 'tetragonal'
loop_
_space_group_symop_operation_xyz
x,y,z
1/2-y,1/2+x,1/2+z
-x,-y,z
1/2+y,1/2-x,1/2+z
1/2+x,1/2-y,1/2-z
1/2-x,1/2+y,1/2-z
y,x,-z
-y,-x,-z
-x,-y,-z
1/2+y,1/2-x,1/2-z
x,y,-z
1/2-y,1/2+x,1/2-z
1/2-x,1/2+y,1/2+z
1/2+x,1/2-y,1/2+z
-y,-x,z
y,x,z
loop_
_atom_site_type_symbol
_atom_site_label
_atom_site_fract_x
_atom_site_fract_y
_atom_site_fract_z
Si Si1 0.278544 0.625127 0.285771
Si Si2 0.949240 0.050761 0.785928
Si Si3 0.853597 0.394857 0.294200
Si Si4 0.531532 0.821826 0.207934
Si Si5 0.491080 0.315305 0.289722
O O1 0.277625 0.624197 0.500000
O O2 0.320256 0.679745 0.228603
O O3 0.209851 0.629975 0.221751
O O4 0.306798 0.560785 0.231245
O O5 0.880316 0.034507 0.728739
O O6 0.949766 0.050235 0.000000
O O7 0.000000 0.000000 0.733495
O O8 0.854283 0.380628 0.500000
O O9 0.913188 0.362527 0.221230
O O10 0.846670 0.467392 0.278332
O O11 0.539351 0.749629 0.243644
O O12 0.527574 0.828771 0.000000
O O13 0.490745 0.318172 0.500000
#
# Coordination Sequence:
#
# PCOD9569469 Si02
#       5
#    16   8  16  16  16
#     4   8  13  25  47  70  90 118 160 204 236 268
#     4   9  16  28  51  81 105 135 181 215 239 288
#     4   9  19  34  51  73  97 126 165 205 248 301
#     4  10  20  34  51  73 100 130 165 205 256 307
#     4   9  17  30  49  73 102 133 165 207 249 287
#
# _framework density 19.425027
#
# number of rings (size 3 to 8) (size 9 to 14) (size 15 to 20)
#    0.000    3.000    0.000    2.667    0.000    4.889 
#    2.000    2.778    0.000   17.333    0.000    0.000 
#    0.000    0.000    0.000    0.000    0.000    0.000 
#
# Total GULP energy -401158.954804 kJ/mol
# GULP energy per Si atom -5571.652150 kJ/mol
# Density = 1.938081 g / cm^3
# Si number density = 19.425027 Si / 1000 Ang^3
#
#
#
# Elastic Constant Matrix: (Units=GPa)
#
#
# Indices 1 2 3 4 5 6 
#
# 1 120.5691 105.1394 -15.0459 0.0000 0.0000 0.0000
# 2 105.1394 120.5694 -15.0459 0.0000 0.0000 0.0000
# 3 -15.0459 -15.0459 26.8660 0.0000 0.0000 0.0000
# 4 0.0000 0.0000 0.0000 13.4092 0.0000 0.0000
# 5 0.0000 0.0000 0.0000 0.0000 13.4092 0.0000
# 6 0.0000 0.0000 0.0000 0.0000 0.0000 38.3512
#
#
#
# Elastic Compliance Matrix: (Units=1/GPa)
#
#
# Indices 1 2 3 4 5 6 
#
# 1 0.034799 -0.030011 0.002681 0.000000 0.000000 0.000000
# 2 -0.030011 0.034799 0.002681 0.000000 0.000000 0.000000
# 3 0.002681 0.002681 0.040225 0.000000 0.000000 0.000000
# 4 0.000000 0.000000 0.000000 0.074576 0.000000 0.000000
# 5 0.000000 0.000000 0.000000 0.000000 0.074576 0.000000
# 6 0.000000 0.000000 0.000000 0.000000 0.000000 0.026075
#
#
# Mechanical properties :
#
#
# Convention : Reuss Voigt Hill
#
# Bulk Modulus (GPa) = 16.52158 46.45550 31.48854
# Shear Modulus (GPa) = 14.10357 25.89772 20.00065
#
# Velocity S-wave (km/s) = 2.69746 3.65528 3.21227
# Velocity P-wave (km/s) = 4.26913 6.46390 5.47757
#
# Compressibility (1/GPa) = 0.06052691
#
# Stress axis : x y z
#
# Youngs Moduli (GPa) = 28.73666 28.73672 24.86006
#
# Poissons Ratio (x) = 0.86241 -0.06666
# Poissons Ratio (y) = 0.86241 -0.06666
# Poissons Ratio (z) = -0.07706 -0.07706
#
# Static dielectric constant tensor:
#      x y z
#    x 1.676160 0.000000 0.000000 
#    y 0.000000 1.676160 0.000000 
#    z 0.000000 0.000000 1.717890 
# 
# From -- ./inp_files/1546.got.cif
#   From: 2010.05.17/outbox.cif.g08.bks.cpg/sg136_1_cif.got.tgz:1546.got - 2010.05.20 12:54:53.
