data_PCOD9569005
_publ_section_title
;
Structure prediction by ZEFSAII (Michael W. Deem and Ramdas Pophale) SiO2 
 PCOD9569005
Probable space group: P 42/M B C
;
_chemical_formula_sum "Si O2"
_cell_formula_units_Z 112
_cell_length_a 14.275789
_cell_length_b 14.275789
_cell_length_c 26.786670
_cell_angle_alpha 90.000000
_cell_angle_beta 90.000000
_cell_angle_gamma 90.000000
_cell_volume 5459.073833
_symmetry_space_group_name_H-M "P 42/M B C"
_symmetry_group_IT_number 135
_symmetry_cell_setting 'tetragonal'
loop_
_space_group_symop_operation_xyz
x,y,z
-y,x,1/2+z
-x,-y,z
y,-x,1/2+z
1/2+x,1/2-y,-z
1/2-x,1/2+y,-z
1/2+y,1/2+x,1/2-z
1/2-y,1/2-x,1/2-z
-x,-y,-z
y,-x,1/2-z
x,y,-z
-y,x,1/2-z
1/2-x,1/2+y,z
1/2+x,1/2-y,z
1/2-y,1/2-x,1/2+z
1/2+y,1/2+x,1/2+z
loop_
_atom_site_type_symbol
_atom_site_label
_atom_site_fract_x
_atom_site_fract_y
_atom_site_fract_z
Si Si1 0.317168 0.253430 0.801622
Si Si2 0.147544 0.027058 0.754613
Si Si3 0.103984 0.661385 0.615554
Si Si4 0.202388 0.237427 0.943145
Si Si5 0.727307 0.559321 0.145508
Si Si6 0.999488 0.706366 0.058973
Si Si7 0.385736 0.629134 0.554840
O O1 0.262379 0.237622 0.750000
O O2 0.418919 0.290588 0.785380
O O3 0.331415 0.158907 0.832152
O O4 0.269277 0.332664 0.836286
O O5 0.064476 0.098883 0.768073
O O6 0.199316 0.995360 0.804324
O O7 0.152428 0.745654 0.584120
O O8 0.133865 0.565220 0.588617
O O9 0.994841 0.683421 0.623103
O O10 0.276418 0.322469 0.945898
O O11 0.105461 0.277285 0.922092
O O12 0.182124 0.207240 0.000000
O O13 0.645646 0.552265 0.103570
O O14 0.049206 0.808168 0.062102
O O15 0.998257 0.679827 0.000000
O O16 0.430664 0.618351 0.500000
#
# Coordination Sequence:
#
# PCOD9569005 Si02
#       7
#    16  16  16  16  16  16  16
#     4  11  21  40  58  81 116 155 197 247 295 348
#     4   9  20  37  59  88 114 148 200 246 294 356
#     4  11  21  36  60  88 111 153 197 241 300 352
#     4   9  18  36  60  86 118 157 197 236 291 358
#     4  11  21  37  60  87 118 154 195 243 302 351
#     4   9  18  36  60  85 118 157 195 241 293 352
#     4   9  18  35  58  87 122 154 191 239 296 359
#
# _framework density 20.516299
#
# number of rings (size 3 to 8) (size 9 to 14) (size 15 to 20)
#    0.000    2.143    4.286    1.286    0.000    2.286 
#    5.143    0.714    0.000    5.143    0.000    0.000 
#    0.000    0.000    0.000    0.000    0.000    0.000 
#
# Total GULP energy -624600.552948 kJ/mol
# GULP energy per Si atom -5576.790651 kJ/mol
# Density = 2.046960 g / cm^3
# Si number density = 20.516299 Si / 1000 Ang^3
#
#
#
# Elastic Constant Matrix: (Units=GPa)
#
#
# Indices 1 2 3 4 5 6 
#
# 1 56.0106 -4.3747 -1.3497 0.0000 0.0000 0.0000
# 2 -4.3747 56.0104 -1.3494 0.0000 0.0000 0.0000
# 3 -1.3497 -1.3494 64.9104 0.0000 0.0000 0.0000
# 4 0.0000 0.0000 0.0000 29.7621 0.0000 0.0000
# 5 0.0000 0.0000 0.0000 0.0000 29.7597 0.0000
# 6 0.0000 0.0000 0.0000 0.0000 0.0000 7.7717
#
#
#
# Elastic Compliance Matrix: (Units=1/GPa)
#
#
# Indices 1 2 3 4 5 6 
#
# 1 0.017974 0.001414 0.000403 0.000000 0.000000 0.000000
# 2 0.001414 0.017974 0.000403 0.000000 0.000000 0.000000
# 3 0.000403 0.000403 0.015423 0.000000 0.000000 0.000000
# 4 0.000000 0.000000 0.000000 0.033600 0.000000 0.000000
# 5 0.000000 0.000000 0.000000 0.000000 0.033602 0.000000
# 6 0.000000 0.000000 0.000000 0.000000 0.000000 0.128671
#
#
# Mechanical properties :
#
#
# Convention : Reuss Voigt Hill
#
# Bulk Modulus (GPa) = 17.91798 18.08710 18.00254
# Shear Modulus (GPa) = 19.12720 25.72573 22.42646
#
# Velocity S-wave (km/s) = 3.05666 3.54491 3.30980
# Velocity P-wave (km/s) = 4.60544 5.05868 4.83737
#
# Compressibility (1/GPa) = 0.05580987
#
# Stress axis : x y z
#
# Youngs Moduli (GPa) = 55.63628 55.63612 64.83982
#
# Poissons Ratio (x) = -0.07864 -0.02614
# Poissons Ratio (y) = -0.07864 -0.02613
# Poissons Ratio (z) = -0.02243 -0.02242
#
# Static dielectric constant tensor:
#      x y z
#    x 1.743670 0.000000 0.000000 
#    y 0.000000 1.743670 0.000000 
#    z 0.000000 0.000000 1.766630 
# 
# From -- ./inp_files/6533.got.cif
#   From: 2010.05.17/outbox.cif.g08.bks.cpg/sg135_4_cif.got.tgz:6533.got - 2010.05.20 12:50:20.
