data_PCOD9569465
_publ_section_title
;
Structure prediction by ZEFSAII (Michael W. Deem and Ramdas Pophale) SiO2 
 PCOD9569465
Probable space group: P 42/M N M
;
_chemical_formula_sum "Si O2"
_cell_formula_units_Z 112
_cell_length_a 29.994576
_cell_length_b 29.994576
_cell_length_c 8.546160
_cell_angle_alpha 90.000000
_cell_angle_beta 90.000000
_cell_angle_gamma 90.000000
_cell_volume 7688.762989
_symmetry_space_group_name_H-M "P 42/M N M"
_symmetry_group_IT_number 136
_symmetry_cell_setting 'tetragonal'
loop_
_space_group_symop_operation_xyz
x,y,z
1/2-y,1/2+x,1/2+z
-x,-y,z
1/2+y,1/2-x,1/2+z
1/2+x,1/2-y,1/2-z
1/2-x,1/2+y,1/2-z
y,x,-z
-y,-x,-z
-x,-y,-z
1/2+y,1/2-x,1/2-z
x,y,-z
1/2-y,1/2+x,1/2-z
1/2-x,1/2+y,1/2+z
1/2+x,1/2-y,1/2+z
-y,-x,z
y,x,z
loop_
_atom_site_type_symbol
_atom_site_label
_atom_site_fract_x
_atom_site_fract_y
_atom_site_fract_z
Si Si1 0.305007 0.524360 0.819364
Si Si2 0.757823 0.168511 0.312549
Si Si3 0.265554 0.189428 0.322632
Si Si4 0.967777 0.898254 0.181632
Si Si5 0.891147 0.108854 0.817006
Si Si6 0.075904 0.797329 0.690091
Si Si7 0.957317 0.042684 0.681588
Si Si8 0.376185 0.696707 0.684825
O O1 0.358121 0.520474 0.794912
O O2 0.287186 0.475606 0.762993
O O3 0.297495 0.573030 0.743207
O O4 0.292519 0.528148 0.000000
O O5 0.756343 0.172609 0.500000
O O6 0.801087 0.198914 0.261781
O O7 0.713515 0.190848 0.243779
O O8 0.762949 0.116137 0.276203
O O9 0.272456 0.174035 0.500000
O O10 0.229066 0.229066 0.323980
O O11 0.241678 0.150900 0.224632
O O12 0.918390 0.918390 0.201307
O O13 0.001533 0.936936 0.226225
O O14 0.973001 0.884904 0.000000
O O15 0.905876 0.158861 0.777510
O O16 0.920000 0.080001 0.698268
O O17 0.900729 0.099272 0.000000
O O18 0.075402 0.804706 0.500000
O O19 0.966351 0.033650 0.500000
O O20 0.378581 0.690176 0.500000
O O21 0.344890 0.655111 0.747732
#
# Coordination Sequence:
#
# PCOD9569465 Si02
#       8
#    16  16  16  16   8  16   8  16
#     4  11  22  33  48  65  84 112 145 179 217 261
#     4   9  16  28  47  67  89 116 142 170 213 265
#     4   9  17  29  46  69  92 109 135 177 220 263
#     4  11  23  36  47  60  77  98 131 177 225 269
#     4  12  22  31  47  64  82 109 140 178 222 264
#     4  10  20  34  48  64  88 117 145 176 216 268
#     4  12  23  35  48  59  74  98 134 176 224 272
#     4  10  20  34  50  65  85 114 147 185 228 270
#
# _framework density 14.566713
#
# number of rings (size 3 to 8) (size 9 to 14) (size 15 to 20)
#    0.000    1.714    2.143    3.643    0.000    7.429 
#    0.000    0.000    0.000    0.000    0.000    0.000 
#    0.000    0.000    0.000    0.000    0.000    0.714 
#
# Total GULP energy -623689.550420 kJ/mol
# GULP energy per Si atom -5568.656700 kJ/mol
# Density = 1.453356 g / cm^3
# Si number density = 14.566713 Si / 1000 Ang^3
#
#
#
# Elastic Constant Matrix: (Units=GPa)
#
#
# Indices 1 2 3 4 5 6 
#
# 1 -84.1176 203.9086 18.8315 0.0000 0.0000 0.0000
# 2 203.9086 -84.1101 18.8330 0.0000 0.0000 0.0000
# 3 18.8315 18.8330 31.3509 0.0000 0.0000 0.0000
# 4 0.0000 0.0000 0.0000 16.6563 0.0000 0.0000
# 5 0.0000 0.0000 0.0000 0.0000 16.6562 0.0000
# 6 0.0000 0.0000 0.0000 0.0000 0.0000 27.8896
#
#
#
# Elastic Compliance Matrix: (Units=1/GPa)
#
#
# Indices 1 2 3 4 5 6 
#
# 1 0.003410 0.006882 -0.006182 0.000000 0.000000 0.000000
# 2 0.006882 0.003410 -0.006182 0.000000 0.000000 0.000000
# 3 -0.006182 -0.006182 0.039324 0.000000 0.000000 0.000000
# 4 0.000000 0.000000 0.000000 0.060037 0.000000 0.000000
# 5 0.000000 0.000000 0.000000 0.000000 0.060038 0.000000
# 6 0.000000 0.000000 0.000000 0.000000 0.000000 0.035856
#
#
# Mechanical properties :
#
#
# Convention : Reuss Voigt Hill
#
# Bulk Modulus (GPa) = 28.42621 38.47439 33.45030
# Shear Modulus (GPa) = 22.24553 -12.98957 4.62798
#
# Velocity S-wave (km/s) = 3.91211 -2.98942 1.78437
# Velocity P-wave (km/s) = 6.32163 3.81501 5.22099
#
# Compressibility (1/GPa) = 0.03517880
#
# Stress axis : x y z
#
# Youngs Moduli (GPa) = 293.29417 293.27675 25.42989
#
# Poissons Ratio (x) = -2.01821 0.15720
# Poissons Ratio (y) = -2.01833 0.15720
# Poissons Ratio (z) = 1.81311 1.81299
#
# Static dielectric constant tensor:
#      x y z
#    x 1.506310 0.000000 0.000000 
#    y 0.000000 1.506310 0.000000 
#    z 0.000000 0.000000 1.497350 
# 
# From -- ./inp_files/2414.got.cif
#   From: 2010.05.17/outbox.cif.g08.bks.cpg/sg136_2_cif.got.tgz:2414.got - 2010.05.20 12:54:53.
