data_PCOD9569458
_publ_section_title
;
Structure prediction by ZEFSAII (Michael W. Deem and Ramdas Pophale) SiO2 
 PCOD9569458
Probable space group: P 42/M N M
;
_chemical_formula_sum "Si O2"
_cell_formula_units_Z 80
_cell_length_a 14.158601
_cell_length_b 14.158601
_cell_length_c 17.876630
_cell_angle_alpha 90.000000
_cell_angle_beta 90.000000
_cell_angle_gamma 90.000000
_cell_volume 3583.656193
_symmetry_space_group_name_H-M "P 42/M N M"
_symmetry_group_IT_number 136
_symmetry_cell_setting 'tetragonal'
loop_
_space_group_symop_operation_xyz
x,y,z
1/2-y,1/2+x,1/2+z
-x,-y,z
1/2+y,1/2-x,1/2+z
1/2+x,1/2-y,1/2-z
1/2-x,1/2+y,1/2-z
y,x,-z
-y,-x,-z
-x,-y,-z
1/2+y,1/2-x,1/2-z
x,y,-z
1/2-y,1/2+x,1/2-z
1/2-x,1/2+y,1/2+z
1/2+x,1/2-y,1/2+z
-y,-x,z
y,x,z
loop_
_atom_site_type_symbol
_atom_site_label
_atom_site_fract_x
_atom_site_fract_y
_atom_site_fract_z
Si Si1 0.007441 0.639913 0.915518
Si Si2 0.004115 0.145549 0.879958
Si Si3 0.275707 0.124663 0.410662
Si Si4 0.331043 0.173248 0.182921
Si Si5 0.222158 0.019017 0.277336
O O1 0.015127 0.752757 0.911347
O O2 0.907739 0.626479 0.872726
O O3 0.113060 0.609784 0.889111
O O4 0.996343 0.606951 0.000000
O O5 0.105641 0.105641 0.902906
O O6 0.003598 0.148237 0.789284
O O7 0.926083 0.073918 0.906505
O O8 0.270726 0.109031 0.500000
O O9 0.229003 0.229003 0.397204
O O10 0.210910 0.052680 0.362640
O O11 0.253871 0.253871 0.157571
O O12 0.278970 0.107937 0.243375
O O13 0.420252 0.224318 0.218418
#
# Coordination Sequence:
#
# PCOD9569458 Si02
#       5
#    16  16  16  16  16
#     4  10  21  37  57  82 116 152 187 231 281 337
#     4  10  20  33  54  83 110 144 190 235 285 339
#     4  10  21  37  59  85 111 145 189 234 281 331
#     4  11  24  38  57  85 113 149 191 230 283 342
#     4  11  21  37  58  80 113 149 185 234 280 331
#
# _framework density 22.323571000000001
#
# number of rings (size 3 to 8) (size 9 to 14) (size 15 to 20)
#    0.000    1.600    0.000    7.200    0.000    6.400 
#    0.000    3.000    0.000    1.800    0.000    7.000 
#    0.000    0.000    0.000    0.000    0.000    0.000 
#
# Total GULP energy -445498.777682 kJ/mol
# GULP energy per Si atom -5568.734721 kJ/mol
# Density = 2.227276 g / cm^3
# Si number density = 22.323571 Si / 1000 Ang^3
#
#
#
# Elastic Constant Matrix: (Units=GPa)
#
#
# Indices 1 2 3 4 5 6 
#
# 1 71.2224 43.9556 12.8533 0.0000 0.0000 0.0000
# 2 43.9556 71.2224 12.8533 0.0000 0.0000 0.0000
# 3 12.8533 12.8533 78.9630 0.0000 0.0000 0.0000
# 4 0.0000 0.0000 0.0000 89.8741 0.0000 0.0000
# 5 0.0000 0.0000 0.0000 0.0000 89.8741 0.0000
# 6 0.0000 0.0000 0.0000 0.0000 0.0000 33.7599
#
#
#
# Elastic Compliance Matrix: (Units=1/GPa)
#
#
# Indices 1 2 3 4 5 6 
#
# 1 0.022842 -0.013833 -0.001467 0.000000 0.000000 0.000000
# 2 -0.013833 0.022842 -0.001467 0.000000 0.000000 0.000000
# 3 -0.001467 -0.001467 0.013142 0.000000 0.000000 0.000000
# 4 0.000000 0.000000 0.000000 0.011127 0.000000 0.000000
# 5 0.000000 0.000000 0.000000 0.000000 0.011127 0.000000
# 6 0.000000 0.000000 0.000000 0.000000 0.000000 0.029621
#
#
# Mechanical properties :
#
#
# Convention : Reuss Voigt Hill
#
# Bulk Modulus (GPa) = 39.53428 40.08136 39.80782
# Shear Modulus (GPa) = 32.75191 52.81797 42.78494
#
# Velocity S-wave (km/s) = 3.83449 4.86945 4.38263
# Velocity P-wave (km/s) = 6.11167 7.04337 6.59400
#
# Compressibility (1/GPa) = 0.02529450
#
# Stress axis : x y z
#
# Youngs Moduli (GPa) = 43.77884 43.77884 76.09420
#
# Poissons Ratio (x) = 0.60557 0.11160
# Poissons Ratio (y) = 0.60557 0.11160
# Poissons Ratio (z) = 0.06420 0.06420
#
# Static dielectric constant tensor:
#      x y z
#    x 1.831970 0.000000 0.000000 
#    y 0.000000 1.831970 0.000000 
#    z 0.000000 0.000000 1.898890 
# 
# From -- ./inp_files/7258.got.cif
#   From: 2010.05.17/outbox.cif.g08.bks.cpg/sg136_4_cif.got.tgz:7258.got - 2010.05.20 12:54:53.
