data_PCOD9569769
_publ_section_title
;
Structure prediction by ZEFSAII (Michael W. Deem and Ramdas Pophale) SiO2 
 PCOD9569769
Probable space group: P 42/M N M
;
_chemical_formula_sum "Si O2"
_cell_formula_units_Z 52
_cell_length_a 17.840255
_cell_length_b 17.840255
_cell_length_c 7.307442
_cell_angle_alpha 90.000000
_cell_angle_beta 90.000000
_cell_angle_gamma 90.000000
_cell_volume 2325.773899
_symmetry_space_group_name_H-M "P 42/M N M"
_symmetry_group_IT_number 136
_symmetry_cell_setting 'tetragonal'
loop_
_space_group_symop_operation_xyz
x,y,z
1/2-y,1/2+x,1/2+z
-x,-y,z
1/2+y,1/2-x,1/2+z
1/2+x,1/2-y,1/2-z
1/2-x,1/2+y,1/2-z
y,x,-z
-y,-x,-z
-x,-y,-z
1/2+y,1/2-x,1/2-z
x,y,-z
1/2-y,1/2+x,1/2-z
1/2-x,1/2+y,1/2+z
1/2+x,1/2-y,1/2+z
-y,-x,z
y,x,z
loop_
_atom_site_type_symbol
_atom_site_label
_atom_site_fract_x
_atom_site_fract_y
_atom_site_fract_z
Si Si1 0.799372 0.200629 0.000000
Si Si2 0.788772 0.473624 0.720941
Si Si3 0.879741 0.003307 0.222482
Si Si4 0.318869 0.863574 0.710751
O O1 0.749993 0.156734 0.841087
O O2 0.788762 0.472994 0.500000
O O3 0.703424 0.486426 0.785310
O O4 0.832751 0.547299 0.781902
O O5 0.820810 0.393495 0.777037
O O6 0.936330 0.936330 0.271435
O O7 0.877414 0.006482 0.000000
O O8 0.919563 0.080438 0.281420
O O9 0.304195 0.841980 0.500000
#
# Coordination Sequence:
#
# PCOD9569769 Si02
#       4
#     4  16  16  16
#     4  12  26  48  72 104 142 192 234 308 358 404
#     4  10  22  41  65  99 139 185 233 295 354 420
#     4   8  15  29  54  87 125 171 218 270 340 416
#     4  11  26  44  71 105 141 186 242 293 359 427
#
# _framework density 22.358149000000001
#
# number of rings (size 3 to 8) (size 9 to 14) (size 15 to 20)
#    0.000    2.154    1.538    1.385    6.462    0.615 
#    0.000    3.077    0.000    0.000    0.000    3.231 
#    0.000    0.000    0.000    0.000    0.000    0.000 
#
# Total GULP energy -289725.663652 kJ/mol
# GULP energy per Si atom -5571.647378 kJ/mol
# Density = 2.230726 g / cm^3
# Si number density = 22.358149 Si / 1000 Ang^3
#
#
#
# Elastic Constant Matrix: (Units=GPa)
#
#
# Indices 1 2 3 4 5 6 
#
# 1 60.1405 45.3463 1.0714 0.0000 0.0000 0.0000
# 2 45.3463 60.1419 1.0722 0.0000 0.0000 0.0000
# 3 1.0714 1.0722 127.3875 0.0000 0.0000 0.0000
# 4 0.0000 0.0000 0.0000 -20.1944 0.0000 0.0000
# 5 0.0000 0.0000 0.0000 0.0000 -20.1896 0.0000
# 6 0.0000 0.0000 0.0000 0.0000 0.0000 32.5612
#
#
#
# Elastic Compliance Matrix: (Units=1/GPa)
#
#
# Indices 1 2 3 4 5 6 
#
# 1 0.038537 -0.029055 -0.000080 0.000000 0.000000 0.000000
# 2 -0.029055 0.038536 -0.000080 0.000000 0.000000 0.000000
# 3 -0.000080 -0.000080 0.007851 0.000000 0.000000 0.000000
# 4 0.000000 0.000000 0.000000 -0.049519 0.000000 0.000000
# 5 0.000000 0.000000 0.000000 0.000000 -0.049530 0.000000
# 6 0.000000 0.000000 0.000000 0.000000 0.000000 0.030711
#
#
# Mechanical properties :
#
#
# Convention : Reuss Voigt Hill
#
# Bulk Modulus (GPa) = 37.74276 38.07218 37.90747
# Shear Modulus (GPa) = 59.63306 11.78077 35.70692
#
# Velocity S-wave (km/s) = 5.17007 2.29795 4.00064
# Velocity P-wave (km/s) = 7.24963 4.90979 6.19125
#
# Compressibility (1/GPa) = 0.02649515
#
# Stress axis : x y z
#
# Youngs Moduli (GPa) = 25.94939 25.94999 127.36571
#
# Poissons Ratio (x) = 0.75397 0.01014
# Poissons Ratio (y) = 0.75395 0.01018
# Poissons Ratio (z) = 0.00207 0.00208
#
# Static dielectric constant tensor:
#      x y z
#    x 1.810370 0.000000 0.000000 
#    y 0.000000 1.810370 0.000000 
#    z 0.000000 0.000000 1.883590 
# 
# From -- ./inp_files/1004.got.cif
#   From: 2010.05.17/outbox.cif.g08.bks.cpg/sg136_1_cif.got.tgz:1004.got - 2010.05.20 12:54:53.
