data_PCOD9569283
_publ_section_title
;
Structure prediction by ZEFSAII (Michael W. Deem and Ramdas Pophale) SiO2 
 PCOD9569283
Probable space group: P 42/M N M
;
_chemical_formula_sum "Si O2"
_cell_formula_units_Z 80
_cell_length_a 14.126966
_cell_length_b 14.126966
_cell_length_c 25.051215
_cell_angle_alpha 90.000000
_cell_angle_beta 90.000000
_cell_angle_gamma 90.000000
_cell_volume 4999.500247
_symmetry_space_group_name_H-M "P 42/M N M"
_symmetry_group_IT_number 136
_symmetry_cell_setting 'tetragonal'
loop_
_space_group_symop_operation_xyz
x,y,z
1/2-y,1/2+x,1/2+z
-x,-y,z
1/2+y,1/2-x,1/2+z
1/2+x,1/2-y,1/2-z
1/2-x,1/2+y,1/2-z
y,x,-z
-y,-x,-z
-x,-y,-z
1/2+y,1/2-x,1/2-z
x,y,-z
1/2-y,1/2+x,1/2-z
1/2-x,1/2+y,1/2+z
1/2+x,1/2-y,1/2+z
-y,-x,z
y,x,z
loop_
_atom_site_type_symbol
_atom_site_label
_atom_site_fract_x
_atom_site_fract_y
_atom_site_fract_z
Si Si1 0.346014 0.195821 0.437217
Si Si2 0.876672 0.405044 0.749557
Si Si3 0.631045 0.786810 0.857023
Si Si4 0.540665 0.104964 0.563262
Si Si5 0.735504 0.417802 0.151986
O O1 0.334255 0.172373 0.500000
O O2 0.299255 0.299255 0.428759
O O3 0.456232 0.179292 0.425037
O O4 0.286527 0.125114 0.400270
O O5 0.879792 0.515888 0.733182
O O6 0.852971 0.340210 0.699198
O O7 0.803643 0.394346 0.797877
O O8 0.714452 0.714452 0.868243
O O9 0.530551 0.733035 0.852933
O O10 0.622631 0.867507 0.901737
O O11 0.561299 0.107811 0.500000
O O12 0.500000 0.000000 0.575548
O O13 0.636361 0.363640 0.158304
#
# Coordination Sequence:
#
# PCOD9569283 Si02
#       5
#    16  16  16  16  16
#     4   9  17  30  52  79 100 124 165 214 257 299
#     4   9  18  31  52  76  98 128 169 219 259 297
#     4  11  22  33  49  75 106 136 171 211 252 305
#     4  10  19  33  54  76 101 133 170 214 258 302
#     4  10  19  32  49  70 102 138 171 207 254 305
#
# _framework density 16.001598999999999
#
# number of rings (size 3 to 8) (size 9 to 14) (size 15 to 20)
#    0.000    2.200    2.000    1.800    2.800    0.800 
#    0.000    0.000    0.000    0.600    0.000    7.000 
#    0.000    0.000    0.000    0.000    0.000    0.000 
#
# Total GULP energy -446095.953998 kJ/mol
# GULP energy per Si atom -5576.199425 kJ/mol
# Density = 1.596518 g / cm^3
# Si number density = 16.001599 Si / 1000 Ang^3
#
#
#
# Elastic Constant Matrix: (Units=GPa)
#
#
# Indices 1 2 3 4 5 6 
#
# 1 102.5598 77.6344 53.8655 0.0000 0.0000 0.0000
# 2 77.6344 102.5598 53.8655 0.0000 0.0000 0.0000
# 3 53.8655 53.8655 57.8037 0.0000 0.0000 0.0000
# 4 0.0000 0.0000 0.0000 13.1859 0.0000 0.0000
# 5 0.0000 0.0000 0.0000 0.0000 13.1859 0.0000
# 6 0.0000 0.0000 0.0000 0.0000 0.0000 32.6272
#
#
#
# Elastic Compliance Matrix: (Units=1/GPa)
#
#
# Indices 1 2 3 4 5 6 
#
# 1 0.026325 -0.013794 -0.011677 0.000000 0.000000 0.000000
# 2 -0.013794 0.026325 -0.011677 0.000000 0.000000 0.000000
# 3 -0.011677 -0.011677 0.039063 0.000000 0.000000 0.000000
# 4 0.000000 0.000000 0.000000 0.075839 0.000000 0.000000
# 5 0.000000 0.000000 0.000000 0.000000 0.075839 0.000000
# 6 0.000000 0.000000 0.000000 0.000000 0.000000 0.030649
#
#
# Mechanical properties :
#
#
# Convention : Reuss Voigt Hill
#
# Bulk Modulus (GPa) = 57.41763 70.40601 63.91182
# Shear Modulus (GPa) = 14.11860 16.97033 15.54446
#
# Velocity S-wave (km/s) = 2.97362 3.26013 3.12016
# Velocity P-wave (km/s) = 6.91015 7.63322 7.28067
#
# Compressibility (1/GPa) = 0.01741625
#
# Stress axis : x y z
#
# Youngs Moduli (GPa) = 37.98626 37.98626 25.59972
#
# Poissons Ratio (x) = 0.52400 0.29893
# Poissons Ratio (y) = 0.52400 0.29893
# Poissons Ratio (z) = 0.44357 0.44357
#
# Static dielectric constant tensor:
#      x y z
#    x 1.525520 0.000000 0.000000 
#    y 0.000000 1.525520 0.000000 
#    z 0.000000 0.000000 1.532700 
# 
# From -- ./inp_files/7269.got.cif
#   From: 2010.05.17/outbox.cif.g08.bks.cpg/sg136_4_cif.got.tgz:7269.got - 2010.05.20 12:54:53.
