data_PCOD9569594
_publ_section_title
;
Structure prediction by ZEFSAII (Michael W. Deem and Ramdas Pophale) SiO2 
 PCOD9569594
Probable space group: P 42/M N M
;
_chemical_formula_sum "Si O2"
_cell_formula_units_Z 80
_cell_length_a 12.152978
_cell_length_b 12.152978
_cell_length_c 28.882768
_cell_angle_alpha 90.000000
_cell_angle_beta 90.000000
_cell_angle_gamma 90.000000
_cell_volume 4265.836788
_symmetry_space_group_name_H-M "P 42/M N M"
_symmetry_group_IT_number 136
_symmetry_cell_setting 'tetragonal'
loop_
_space_group_symop_operation_xyz
x,y,z
1/2-y,1/2+x,1/2+z
-x,-y,z
1/2+y,1/2-x,1/2+z
1/2+x,1/2-y,1/2-z
1/2-x,1/2+y,1/2-z
y,x,-z
-y,-x,-z
-x,-y,-z
1/2+y,1/2-x,1/2-z
x,y,-z
1/2-y,1/2+x,1/2-z
1/2-x,1/2+y,1/2+z
1/2+x,1/2-y,1/2+z
-y,-x,z
y,x,z
loop_
_atom_site_type_symbol
_atom_site_label
_atom_site_fract_x
_atom_site_fract_y
_atom_site_fract_z
Si Si1 0.626730 0.029163 0.625619
Si Si2 0.234050 0.057216 0.896960
Si Si3 0.733531 0.909454 0.294843
Si Si4 0.833420 0.651466 0.445778
Si Si5 0.045097 0.776755 0.795445
O O1 0.627293 0.153796 0.608442
O O2 0.500000 0.000000 0.638907
O O3 0.702885 0.005575 0.669564
O O4 0.655056 0.942164 0.585494
O O5 0.133056 0.133056 0.911925
O O6 0.263861 0.955272 0.929897
O O7 0.211286 0.008101 0.845887
O O8 0.841492 0.841492 0.308978
O O9 0.632968 0.822875 0.296776
O O10 0.750127 0.956331 0.243634
O O11 0.859666 0.643875 0.500000
O O12 0.757544 0.757544 0.437397
O O13 0.113733 0.886268 0.783770
#
# Coordination Sequence:
#
# PCOD9569594 Si02
#       5
#    16  16  16  16  16
#     4  10  20  37  59  82 113 151 197 244 289 343
#     4  11  23  38  58  87 122 157 191 240 302 359
#     4  11  22  35  55  80 109 150 200 242 285 344
#     4  10  21  39  64  91 117 153 200 248 299 353
#     4  11  23  37  55  82 117 156 198 245 297 352
#
# _framework density 18.753647999999998
#
# number of rings (size 3 to 8) (size 9 to 14) (size 15 to 20)
#    0.000    1.400    4.000    3.000    0.000    9.200 
#    0.000    1.000    0.000    1.800    0.000    1.400 
#    0.000    0.000    0.000    0.000    0.000    0.000 
#
# Total GULP energy -447112.008055 kJ/mol
# GULP energy per Si atom -5588.900101 kJ/mol
# Density = 1.871096 g / cm^3
# Si number density = 18.753648 Si / 1000 Ang^3
#
#
#
# Elastic Constant Matrix: (Units=GPa)
#
#
# Indices 1 2 3 4 5 6 
#
# 1 211.2815 -164.5813 6.9543 0.0000 0.0000 0.0000
# 2 -164.5813 211.2815 6.9543 0.0000 0.0000 0.0000
# 3 6.9543 6.9543 50.0101 0.0000 0.0000 0.0000
# 4 0.0000 0.0000 0.0000 15.8326 0.0000 0.0000
# 5 0.0000 0.0000 0.0000 0.0000 15.8326 0.0000
# 6 0.0000 0.0000 0.0000 0.0000 0.0000 18.4355
#
#
#
# Elastic Compliance Matrix: (Units=1/GPa)
#
#
# Indices 1 2 3 4 5 6 
#
# 1 0.012499 0.009839 -0.003106 0.000000 0.000000 0.000000
# 2 0.009839 0.012499 -0.003106 0.000000 0.000000 0.000000
# 3 -0.003106 -0.003106 0.020860 0.000000 0.000000 0.000000
# 4 0.000000 0.000000 0.000000 0.063161 0.000000 0.000000
# 5 0.000000 0.000000 0.000000 0.000000 0.063161 0.000000
# 6 0.000000 0.000000 0.000000 0.000000 0.000000 0.054243
#
#
# Mechanical properties :
#
#
# Convention : Reuss Voigt Hill
#
# Bulk Modulus (GPa) = 18.82841 19.02531 18.92686
# Shear Modulus (GPa) = 21.10819 51.56985 36.33902
#
# Velocity S-wave (km/s) = 3.35856 5.24960 4.40671
# Velocity P-wave (km/s) = 5.01015 6.84918 6.00053
#
# Compressibility (1/GPa) = 0.05311124
#
# Stress axis : x y z
#
# Youngs Moduli (GPa) = 80.00360 80.00360 47.93893
#
# Poissons Ratio (x) = -0.78715 0.14891
# Poissons Ratio (y) = -0.78715 0.14891
# Poissons Ratio (z) = 0.24852 0.24852
#
# Static dielectric constant tensor:
#      x y z
#    x 1.655510 0.000000 0.000000 
#    y 0.000000 1.655510 0.000000 
#    z 0.000000 0.000000 1.623020 
# 
# From -- ./inp_files/9507.got.cif
#   From: 2010.05.17/outbox.cif.g08.bks.cpg/sg136_5_cif.got.tgz:9507.got - 2010.05.20 12:54:53.
