data_PCOD9569999
_publ_section_title
;
Structure prediction by ZEFSAII (Michael W. Deem and Ramdas Pophale) SiO2 
 PCOD9569999
Probable space group: P 42/N M C
;
_chemical_formula_sum "Si O2"
_cell_formula_units_Z 56
_cell_length_a 10.174304
_cell_length_b 10.174304
_cell_length_c 33.826797
_cell_angle_alpha 90.000000
_cell_angle_beta 90.000000
_cell_angle_gamma 90.000000
_cell_volume 3501.630342
_symmetry_space_group_name_H-M "P 42/N M C"
_symmetry_group_IT_number 137
_space_group.IT_coordinate_system_code '2'
_symmetry_cell_setting 'tetragonal'
loop_
_space_group_symop_operation_xyz
x,y,z
1/2-y,x,1/2+z
1/2-x,1/2-y,z
y,1/2-x,1/2+z
1/2+x,-y,-z
-x,1/2+y,-z
1/2+y,1/2+x,1/2-z
-y,-x,1/2-z
-x,-y,-z
1/2+y,-x,1/2-z
1/2+x,1/2+y,-z
-y,1/2+x,1/2-z
1/2-x,y,z
x,1/2-y,z
1/2-y,1/2-x,1/2+z
y,x,1/2+z
loop_
_atom_site_type_symbol
_atom_site_label
_atom_site_fract_x
_atom_site_fract_y
_atom_site_fract_z
Si Si1 0.589950 0.750000 0.033742
Si Si2 0.512178 0.907538 0.591200
Si Si3 0.905329 0.405329 0.750000
Si Si4 0.096638 0.092164 0.823092
Si Si5 0.250000 0.592150 0.543369
O O1 0.750000 0.750000 0.026391
O O2 0.553811 0.625663 0.060806
O O3 0.502570 0.750000 0.994452
O O4 0.524789 0.750000 0.594976
O O5 0.529746 0.954806 0.635996
O O6 0.375784 0.936148 0.570335
O O7 0.922907 0.250000 0.740170
O O8 0.936616 0.500971 0.713419
O O9 0.250000 0.054071 0.815706
O O10 0.096565 0.250000 0.829102
O O11 0.250000 0.750000 0.533242
#
# Coordination Sequence:
#
# PCOD9569999 Si02
#       5
#     8  16   8  16   8
#     4  10  18  32  52  70  92 128 172 196 224 284
#     4   9  17  31  51  70  92 129 164 194 232 286
#     4   9  18  32  50  73  98 120 148 199 246 280
#     4   9  16  31  53  71  90 125 166 189 225 290
#     4  10  20  32  46  72 102 126 152 204 252 270
#
# _framework density 15.992549
#
# number of rings (size 3 to 8) (size 9 to 14) (size 15 to 20)
#    0.000    2.714    1.429    0.857    0.000    0.000 
#    2.571    2.857    0.000    0.000    0.000    0.000 
#    0.000    0.000    0.000    0.000    0.000    0.000 
#
# Total GULP energy -311777.293342 kJ/mol
# GULP energy per Si atom -5567.451667 kJ/mol
# Density = 1.595615 g / cm^3
# Si number density = 15.992549 Si / 1000 Ang^3
#
#
#
# Elastic Constant Matrix: (Units=GPa)
#
#
# Indices 1 2 3 4 5 6 
#
# 1 77.9421 39.6506 76.8911 0.0000 0.0000 0.0000
# 2 39.6506 77.9421 76.8911 0.0000 0.0000 0.0000
# 3 76.8911 76.8911 184.1402 0.0000 0.0000 0.0000
# 4 0.0000 0.0000 0.0000 -11.1196 0.0000 0.0000
# 5 0.0000 0.0000 0.0000 0.0000 -11.1196 0.0000
# 6 0.0000 0.0000 0.0000 0.0000 0.0000 -23.1892
#
#
#
# Elastic Compliance Matrix: (Units=1/GPa)
#
#
# Indices 1 2 3 4 5 6 
#
# 1 0.022425 -0.003691 -0.007823 0.000000 0.000000 0.000000
# 2 -0.003691 0.022425 -0.007823 0.000000 0.000000 0.000000
# 3 -0.007823 -0.007823 0.011964 0.000000 0.000000 0.000000
# 4 0.000000 0.000000 0.000000 -0.089931 0.000000 0.000000
# 5 0.000000 0.000000 0.000000 0.000000 -0.089931 0.000000
# 6 0.000000 0.000000 0.000000 0.000000 0.000000 -0.043123
#
#
# Mechanical properties :
#
#
# Convention : Reuss Voigt Hill
#
# Bulk Modulus (GPa) = 55.12379 80.76555 67.94467
# Shear Modulus (GPa) = -41.16845 0.68707 -20.24069
#
# Velocity S-wave (km/s) = -5.07919 0.65616 -3.56143
# Velocity P-wave (km/s) = 0.38173 7.15442 5.06613
#
# Compressibility (1/GPa) = 0.01814099
#
# Stress axis : x y z
#
# Youngs Moduli (GPa) = 44.59335 44.59335 83.58555
#
# Poissons Ratio (x) = 0.16458 0.65388
# Poissons Ratio (y) = 0.16458 0.65388
# Poissons Ratio (z) = 0.34885 0.34885
#
# Static dielectric constant tensor:
#      x y z
#    x 1.653590 0.000000 0.000000 
#    y 0.000000 1.653590 0.000000 
#    z 0.000000 0.000000 1.527200 
# 
# From -- ./inp_files/8470.got.cif
#   From: 2010.05.17/outbox.cif.g08.bks.cpg/sg137_5_cif.got.tgz:8470.got - 2010.05.20 13:01:12.
