data_PCOD9569236
_publ_section_title
;
Structure prediction by ZEFSAII (Michael W. Deem and Ramdas Pophale) SiO2 
 PCOD9569236
Probable space group: P 42/M N M
;
_chemical_formula_sum "Si O2"
_cell_formula_units_Z 96
_cell_length_a 25.385522
_cell_length_b 25.385522
_cell_length_c 9.148894
_cell_angle_alpha 90.000000
_cell_angle_beta 90.000000
_cell_angle_gamma 90.000000
_cell_volume 5895.773520
_symmetry_space_group_name_H-M "P 42/M N M"
_symmetry_group_IT_number 136
_symmetry_cell_setting 'tetragonal'
loop_
_space_group_symop_operation_xyz
x,y,z
1/2-y,1/2+x,1/2+z
-x,-y,z
1/2+y,1/2-x,1/2+z
1/2+x,1/2-y,1/2-z
1/2-x,1/2+y,1/2-z
y,x,-z
-y,-x,-z
-x,-y,-z
1/2+y,1/2-x,1/2-z
x,y,-z
1/2-y,1/2+x,1/2-z
1/2-x,1/2+y,1/2+z
1/2+x,1/2-y,1/2+z
-y,-x,z
y,x,z
loop_
_atom_site_type_symbol
_atom_site_label
_atom_site_fract_x
_atom_site_fract_y
_atom_site_fract_z
Si Si1 0.250858 0.450533 0.174500
Si Si2 0.124321 0.549052 0.838536
Si Si3 0.246606 0.842873 0.828811
Si Si4 0.265235 0.175531 0.169917
Si Si5 0.642068 0.045081 0.165973
Si Si6 0.068136 0.250593 0.667895
O O1 0.270825 0.397618 0.253375
O O2 0.189814 0.449414 0.222437
O O3 0.270198 0.509982 0.216754
O O4 0.256387 0.446447 0.000000
O O5 0.093216 0.602769 0.822950
O O6 0.111892 0.507683 0.712882
O O7 0.186237 0.560856 0.833934
O O8 0.111867 0.526953 0.000000
O O9 0.199434 0.800567 0.817512
O O10 0.297376 0.814672 0.753964
O O11 0.258320 0.851897 0.000000
O O12 0.218534 0.218534 0.178519
O O13 0.244135 0.120746 0.237372
O O14 0.279491 0.167818 0.000000
O O15 0.662036 0.040705 0.000000
O O16 0.077024 0.233195 0.500000
#
# Coordination Sequence:
#
# PCOD9569236 Si02
#       6
#    16  16  16  16  16  16
#     4  10  20  33  49  68  91 118 150 190 231 274
#     4   9  19  32  42  57  81 107 142 187 229 271
#     4  10  20  33  50  72  98 128 160 194 234 281
#     4  10  20  32  48  72  99 127 160 197 237 280
#     4  10  19  30  45  61  79 109 147 186 229 274
#     4   9  18  32  48  66  90 120 152 188 232 279
#
# _framework density 16.282851000000001
#
# number of rings (size 3 to 8) (size 9 to 14) (size 15 to 20)
#    0.000    2.333    0.000    4.000    0.000    8.333 
#    0.000    1.667    0.000    0.000    0.000    0.000 
#    0.000    0.667    0.000    7.333    0.000    5.333 
#
# Total GULP energy -534612.089598 kJ/mol
# GULP energy per Si atom -5568.875933 kJ/mol
# Density = 1.624579 g / cm^3
# Si number density = 16.282851 Si / 1000 Ang^3
#
#
#
# Elastic Constant Matrix: (Units=GPa)
#
#
# Indices 1 2 3 4 5 6 
#
# 1 58.8831 -4.0752 28.4252 0.0000 0.0000 0.0000
# 2 -4.0752 58.8831 28.4252 0.0000 0.0000 0.0000
# 3 28.4252 28.4252 70.2812 0.0000 0.0000 0.0000
# 4 0.0000 0.0000 0.0000 24.5272 0.0000 0.0000
# 5 0.0000 0.0000 0.0000 0.0000 24.5272 0.0000
# 6 0.0000 0.0000 0.0000 0.0000 0.0000 13.3919
#
#
#
# Elastic Compliance Matrix: (Units=1/GPa)
#
#
# Indices 1 2 3 4 5 6 
#
# 1 0.023658 0.007774 -0.012713 0.000000 0.000000 0.000000
# 2 0.007774 0.023658 -0.012713 0.000000 0.000000 0.000000
# 3 -0.012713 -0.012713 0.024512 0.000000 0.000000 0.000000
# 4 0.000000 0.000000 0.000000 0.040771 0.000000 0.000000
# 5 0.000000 0.000000 0.000000 0.000000 0.040771 0.000000
# 6 0.000000 0.000000 0.000000 0.000000 0.000000 0.074672
#
#
# Mechanical properties :
#
#
# Convention : Reuss Voigt Hill
#
# Bulk Modulus (GPa) = 27.37842 32.62196 30.00019
# Shear Modulus (GPa) = 18.14762 21.50741 19.82751
#
# Velocity S-wave (km/s) = 3.34207 3.63831 3.49333
# Velocity P-wave (km/s) = 5.63412 6.14229 5.89369
#
# Compressibility (1/GPa) = 0.03652512
#
# Stress axis : x y z
#
# Youngs Moduli (GPa) = 42.26954 42.26954 40.79673
#
# Poissons Ratio (x) = -0.32861 0.51863
# Poissons Ratio (y) = -0.32861 0.51863
# Poissons Ratio (z) = 0.53736 0.53736
#
# Static dielectric constant tensor:
#      x y z
#    x 1.573310 0.000000 0.000000 
#    y 0.000000 1.573310 0.000000 
#    z 0.000000 0.000000 1.579010 
# 
# From -- ./inp_files/2011.got.cif
#   From: 2010.05.17/outbox.cif.g08.bks.cpg/sg136_2_cif.got.tgz:2011.got - 2010.05.20 12:54:53.
