data_PCOD9569788
_publ_section_title
;
Structure prediction by ZEFSAII (Michael W. Deem and Ramdas Pophale) SiO2 
 PCOD9569788
Probable space group: P 42/M N M
;
_chemical_formula_sum "Si O2"
_cell_formula_units_Z 60
_cell_length_a 12.690549
_cell_length_b 12.690549
_cell_length_c 19.026302
_cell_angle_alpha 90.000000
_cell_angle_beta 90.000000
_cell_angle_gamma 90.000000
_cell_volume 3064.186582
_symmetry_space_group_name_H-M "P 42/M N M"
_symmetry_group_IT_number 136
_symmetry_cell_setting 'tetragonal'
loop_
_space_group_symop_operation_xyz
x,y,z
1/2-y,1/2+x,1/2+z
-x,-y,z
1/2+y,1/2-x,1/2+z
1/2+x,1/2-y,1/2-z
1/2-x,1/2+y,1/2-z
y,x,-z
-y,-x,-z
-x,-y,-z
1/2+y,1/2-x,1/2-z
x,y,-z
1/2-y,1/2+x,1/2-z
1/2-x,1/2+y,1/2+z
1/2+x,1/2-y,1/2+z
-y,-x,z
y,x,z
loop_
_atom_site_type_symbol
_atom_site_label
_atom_site_fract_x
_atom_site_fract_y
_atom_site_fract_z
Si Si1 0.431512 0.264425 0.626120
Si Si2 0.233904 0.233904 0.711007
Si Si3 0.339539 0.660462 0.353507
Si Si4 0.747724 0.252277 0.500000
Si Si5 0.390400 0.939439 0.000000
Si Si6 0.224683 0.993509 0.500000
Si Si7 0.081599 0.081599 0.377194
O O1 0.357131 0.357131 0.594503
O O2 0.352930 0.213614 0.683562
O O3 0.537285 0.314729 0.655641
O O4 0.461739 0.179438 0.568078
O O5 0.222945 0.222945 0.793641
O O6 0.153104 0.153104 0.673457
O O7 0.303036 0.696965 0.430717
O O8 0.733115 0.125543 0.500000
O O9 0.420606 0.816651 0.000000
O O10 0.500000 0.000000 0.000000
O O11 0.156125 0.015826 0.430500
O O12 0.000000 0.000000 0.341960
#
# Coordination Sequence:
#
# PCOD9569788 Si02
#       7
#    16   8   8   4   8   8   8
#     4  10  23  45  69  96 132 182 231 280 330 416
#     4  10  25  43  70  98 131 179 227 286 334 414
#     4  12  25  46  66  99 132 182 234 276 349 394
#     4  12  26  39  63  96 144 168 222 294 328 408
#     4  12  22  39  69 101 144 178 221 280 343 401
#     4  11  19  38  63  99 133 165 222 270 341 393
#     4  11  20  38  69  98 126 173 217 276 334 394
#
# _framework density 19.581054000000002
#
# number of rings (size 3 to 8) (size 9 to 14) (size 15 to 20)
#    0.800    0.267    4.000    3.600    1.867    3.200 
#    4.800    2.000    0.000    0.000    0.000    0.000 
#    0.000    0.000    0.000    0.000    0.000    0.000 
#
# Total GULP energy -334960.245123 kJ/mol
# GULP energy per Si atom -5582.670752 kJ/mol
# Density = 1.953649 g / cm^3
# Si number density = 19.581054 Si / 1000 Ang^3
#
#
#
# Elastic Constant Matrix: (Units=GPa)
#
#
# Indices 1 2 3 4 5 6 
#
# 1 111.0849 39.5542 35.9247 0.0000 0.0000 0.0000
# 2 39.5542 111.0844 35.9246 0.0000 0.0000 0.0000
# 3 35.9247 35.9246 109.6104 0.0000 0.0000 0.0000
# 4 0.0000 0.0000 0.0000 35.8903 0.0000 0.0000
# 5 0.0000 0.0000 0.0000 0.0000 35.8975 0.0000
# 6 0.0000 0.0000 0.0000 0.0000 0.0000 54.6770
#
#
#
# Elastic Compliance Matrix: (Units=1/GPa)
#
#
# Indices 1 2 3 4 5 6 
#
# 1 0.010924 -0.003056 -0.002579 0.000000 0.000000 0.000000
# 2 -0.003056 0.010924 -0.002579 0.000000 0.000000 0.000000
# 3 -0.002579 -0.002579 0.010814 0.000000 0.000000 0.000000
# 4 0.000000 0.000000 0.000000 0.027863 0.000000 0.000000
# 5 0.000000 0.000000 0.000000 0.000000 0.027857 0.000000
# 6 0.000000 0.000000 0.000000 0.000000 0.000000 0.018289
#
#
# Mechanical properties :
#
#
# Convention : Reuss Voigt Hill
#
# Bulk Modulus (GPa) = 61.59517 61.62077 61.60797
# Shear Modulus (GPa) = 38.90750 39.98470 39.44610
#
# Velocity S-wave (km/s) = 4.46241 4.52376 4.49319
# Velocity P-wave (km/s) = 7.62074 7.66967 7.64524
#
# Compressibility (1/GPa) = 0.01623504
#
# Stress axis : x y z
#
# Youngs Moduli (GPa) = 91.53975 91.53932 92.47557
#
# Poissons Ratio (x) = 0.27973 0.23848
# Poissons Ratio (y) = 0.27973 0.23848
# Poissons Ratio (z) = 0.23607 0.23607
#
# Static dielectric constant tensor:
#      x y z
#    x 1.695550 0.000000 0.000000 
#    y 0.000000 1.695560 0.000000 
#    z 0.000000 0.000000 1.661060 
# 
# From -- ./inp_files/7134.got.cif
#   From: 2010.05.17/outbox.cif.g08.bks.cpg/sg136_4_cif.got.tgz:7134.got - 2010.05.20 12:54:53.
