data_PCOD9569513
_publ_section_title
;
Structure prediction by ZEFSAII (Michael W. Deem and Ramdas Pophale) SiO2 
 PCOD9569513
Probable space group: P 42/M N M
;
_chemical_formula_sum "Si O2"
_cell_formula_units_Z 96
_cell_length_a 24.705158
_cell_length_b 24.705158
_cell_length_c 7.443720
_cell_angle_alpha 90.000000
_cell_angle_beta 90.000000
_cell_angle_gamma 90.000000
_cell_volume 4543.236031
_symmetry_space_group_name_H-M "P 42/M N M"
_symmetry_group_IT_number 136
_symmetry_cell_setting 'tetragonal'
loop_
_space_group_symop_operation_xyz
x,y,z
1/2-y,1/2+x,1/2+z
-x,-y,z
1/2+y,1/2-x,1/2+z
1/2+x,1/2-y,1/2-z
1/2-x,1/2+y,1/2-z
y,x,-z
-y,-x,-z
-x,-y,-z
1/2+y,1/2-x,1/2-z
x,y,-z
1/2-y,1/2+x,1/2-z
1/2-x,1/2+y,1/2+z
1/2+x,1/2-y,1/2+z
-y,-x,z
y,x,z
loop_
_atom_site_type_symbol
_atom_site_label
_atom_site_fract_x
_atom_site_fract_y
_atom_site_fract_z
Si Si1 0.514000 0.290089 0.219460
Si Si2 0.999849 0.912763 0.718922
Si Si3 0.569762 0.802442 0.779725
Si Si4 0.478821 0.084411 0.794636
Si Si5 0.774652 0.689206 0.788289
Si Si6 0.777874 0.863800 0.283264
O O1 0.499670 0.350903 0.278170
O O2 0.471704 0.244471 0.274296
O O3 0.574775 0.276423 0.279146
O O4 0.513910 0.290453 0.000000
O O5 0.999783 0.912327 0.500000
O O6 0.946203 0.946203 0.772826
O O7 0.051332 0.948669 0.774824
O O8 0.548310 0.861266 0.720413
O O9 0.629884 0.787361 0.715824
O O10 0.571502 0.804266 0.000000
O O11 0.534051 0.062801 0.707393
O O12 0.493998 0.095846 0.000000
O O13 0.724334 0.724334 0.713104
O O14 0.827346 0.726980 0.769945
O O15 0.763760 0.682360 0.000000
O O16 0.779203 0.864889 0.500000
O O17 0.831354 0.831354 0.222950
#
# Coordination Sequence:
#
# PCOD9569513 Si02
#       6
#    16  16  16  16  16  16
#     4   9  16  26  41  64  94 123 151 187 230 273
#     4   8  13  21  35  58  90 126 157 185 223 271
#     4   9  19  31  45  68  94 123 157 194 234 280
#     4  10  20  35  53  72  95 123 158 200 244 290
#     4   9  18  33  50  67  92 125 157 191 232 276
#     4   9  17  29  48  72  94 120 155 193 231 272
#
# _framework density 21.130312
#
# number of rings (size 3 to 8) (size 9 to 14) (size 15 to 20)
#    0.000    3.000    0.000    2.000    2.333    2.667 
#    0.000    4.167    0.000    1.000    0.000    0.000 
#    0.000    0.667    0.000    6.167    0.000    7.333 
#
# Total GULP energy -535831.368024 kJ/mol
# GULP energy per Si atom -5581.576750 kJ/mol
# Density = 2.108222 g / cm^3
# Si number density = 21.130312 Si / 1000 Ang^3
#
#
#
# Elastic Constant Matrix: (Units=GPa)
#
#
# Indices 1 2 3 4 5 6 
#
# 1 -1099.9848 1428.0750 -1.0759 0.0000 0.0000 0.0000
# 2 1428.0750-1099.9848 -1.0759 0.0000 0.0000 0.0000
# 3 -1.0759 -1.0759 61.9675 0.0000 0.0000 0.0000
# 4 0.0000 0.0000 0.0000 -3.1789 0.0000 0.0000
# 5 0.0000 0.0000 0.0000 0.0000 -3.1789 0.0000
# 6 0.0000 0.0000 0.0000 0.0000 0.0000 13.8358
#
#
#
# Elastic Compliance Matrix: (Units=1/GPa)
#
#
# Indices 1 2 3 4 5 6 
#
# 1 0.001326 0.001722 0.000053 0.000000 0.000000 0.000000
# 2 0.001722 0.001326 0.000053 0.000000 0.000000 0.000000
# 3 0.000053 0.000053 0.016139 0.000000 0.000000 0.000000
# 4 0.000000 0.000000 0.000000 -0.314572 0.000000 0.000000
# 5 0.000000 0.000000 0.000000 0.000000 -0.314572 0.000000
# 6 0.000000 0.000000 0.000000 0.000000 0.000000 0.072277
#
#
# Mechanical properties :
#
#
# Convention : Reuss Voigt Hill
#
# Bulk Modulus (GPa) = 44.54817 79.31603 61.93210
# Shear Modulus (GPa) = -9.35895 -236.09943 -122.72919
#
# Velocity S-wave (km/s) = -2.10684 -10.58194 -7.62943
# Velocity P-wave (km/s) = 3.90000 10.56812 6.94533
#
# Compressibility (1/GPa) = 0.02244761
#
# Stress axis : x y z
#
# Youngs Moduli (GPa) = 753.94062 753.94062 61.96046
#
# Poissons Ratio (x) = -1.29823 -0.00328
# Poissons Ratio (y) = -1.29823 -0.00328
# Poissons Ratio (z) = -0.03990 -0.03990
#
# Static dielectric constant tensor:
#      x y z
#    x 1.723290 0.000000 0.000000 
#    y 0.000000 1.723290 0.000000 
#    z 0.000000 0.000000 1.830790 
# 
# From -- ./inp_files/2009.got.cif
#   From: 2010.05.17/outbox.cif.g08.bks.cpg/sg136_2_cif.got.tgz:2009.got - 2010.05.20 12:54:53.
