data_PCOD9569090
_publ_section_title
;
Structure prediction by ZEFSAII (Michael W. Deem and Ramdas Pophale) SiO2 
 PCOD9569090
Probable space group: P 42/M N M
;
_chemical_formula_sum "Si O2"
_cell_formula_units_Z 104
_cell_length_a 27.196465
_cell_length_b 27.196465
_cell_length_c 7.498993
_cell_angle_alpha 90.000000
_cell_angle_beta 90.000000
_cell_angle_gamma 90.000000
_cell_volume 5546.612988
_symmetry_space_group_name_H-M "P 42/M N M"
_symmetry_group_IT_number 136
_symmetry_cell_setting 'tetragonal'
loop_
_space_group_symop_operation_xyz
x,y,z
1/2-y,1/2+x,1/2+z
-x,-y,z
1/2+y,1/2-x,1/2+z
1/2+x,1/2-y,1/2-z
1/2-x,1/2+y,1/2-z
y,x,-z
-y,-x,-z
-x,-y,-z
1/2+y,1/2-x,1/2-z
x,y,-z
1/2-y,1/2+x,1/2-z
1/2-x,1/2+y,1/2+z
1/2+x,1/2-y,1/2+z
-y,-x,z
y,x,z
loop_
_atom_site_type_symbol
_atom_site_label
_atom_site_fract_x
_atom_site_fract_y
_atom_site_fract_z
Si Si1 0.018006 0.751920 0.217796
Si Si2 0.198943 0.801058 0.793716
Si Si3 0.540555 0.459446 0.280984
Si Si4 0.853886 0.486882 0.713732
Si Si5 0.384862 0.906872 0.212756
Si Si6 0.219933 0.372603 0.717952
Si Si7 0.117999 0.882002 0.286965
Si Si8 0.641352 0.504923 0.709526
O O1 0.075324 0.744934 0.268405
O O2 0.997396 0.803849 0.283188
O O3 0.989825 0.702733 0.275991
O O4 0.017455 0.753032 0.000000
O O5 0.247480 0.827027 0.716328
O O6 0.156902 0.843099 0.788143
O O7 0.210218 0.789783 0.000000
O O8 0.500000 0.500000 0.227855
O O9 0.540394 0.459607 0.500000
O O10 0.524167 0.405589 0.218120
O O11 0.852116 0.490229 0.500000
O O12 0.881635 0.436713 0.753778
O O13 0.880349 0.536860 0.779591
O O14 0.336774 0.876865 0.276556
O O15 0.379315 0.909400 0.000000
O O16 0.220980 0.370994 0.500000
O O17 0.120395 0.879606 0.500000
O O18 0.062910 0.869564 0.227169
O O19 0.643431 0.492832 0.500000
#
# Coordination Sequence:
#
# PCOD9569090 Si02
#       8
#    16   8   8  16  16  16   8  16
#     4   8  14  26  47  68  84 111 151 189 221 263
#     4  10  16  28  51  70  87 121 158 188 233 276
#     4   9  16  24  42  71  88 104 153 208 229 253
#     4   9  18  32  49  70  94 121 154 188 227 279
#     4   9  18  32  48  70  98 122 152 192 228 272
#     4   8  14  25  46  72  89 109 148 190 221 262
#     4  12  22  27  37  66 100 123 148 188 236 288
#     4  10  17  30  48  63  86 122 159 194 233 272
#
# _framework density 18.75018
#
# number of rings (size 3 to 8) (size 9 to 14) (size 15 to 20)
#    0.000    2.846    2.308    2.538    0.000    0.923 
#    0.000    3.846    0.000    0.923    0.000    1.077 
#    0.000    0.000    0.000    0.000    0.000    0.000 
#
# Total GULP energy -579724.579449 kJ/mol
# GULP energy per Si atom -5574.274802 kJ/mol
# Density = 1.870750 g / cm^3
# Si number density = 18.750180 Si / 1000 Ang^3
#
#
#
# Elastic Constant Matrix: (Units=GPa)
#
#
# Indices 1 2 3 4 5 6 
#
# 1 173.7171 93.1464 2.6894 0.0000 0.0000 0.0000
# 2 93.1464 173.7151 2.6927 0.0000 0.0000 0.0000
# 3 2.6894 2.6927 51.0263 0.0000 0.0000 0.0000
# 4 0.0000 0.0000 0.0000 4.6730 0.0000 0.0000
# 5 0.0000 0.0000 0.0000 0.0000 4.6729 0.0000
# 6 0.0000 0.0000 0.0000 0.0000 0.0000 31.7335
#
#
#
# Elastic Compliance Matrix: (Units=1/GPa)
#
#
# Indices 1 2 3 4 5 6 
#
# 1 0.008081 -0.004330 -0.000197 0.000000 0.000000 0.000000
# 2 -0.004330 0.008081 -0.000198 0.000000 0.000000 0.000000
# 3 -0.000197 -0.000198 0.019619 0.000000 0.000000 0.000000
# 4 0.000000 0.000000 0.000000 0.213993 0.000000 0.000000
# 5 0.000000 0.000000 0.000000 0.000000 0.213999 0.000000
# 6 0.000000 0.000000 0.000000 0.000000 0.000000 0.031512
#
#
# Mechanical properties :
#
#
# Convention : Reuss Voigt Hill
#
# Bulk Modulus (GPa) = 37.97985 66.16839 52.07412
# Shear Modulus (GPa) = 9.73682 28.21123 18.97402
#
# Velocity S-wave (km/s) = 2.28127 3.88311 3.18455
# Velocity P-wave (km/s) = 5.21906 7.44787 6.43076
#
# Compressibility (1/GPa) = 0.02632975
#
# Stress axis : x y z
#
# Youngs Moduli (GPa) = 123.74136 123.73972 50.97201
#
# Poissons Ratio (x) = 0.53582 0.01006
# Poissons Ratio (y) = 0.53582 0.01010
# Poissons Ratio (z) = 0.02443 0.02453
#
# Static dielectric constant tensor:
#      x y z
#    x 1.652820 0.000000 0.000000 
#    y 0.000000 1.652820 0.000000 
#    z 0.000000 0.000000 1.741960 
# 
# From -- ./inp_files/2284.got.cif
#   From: 2010.05.17/outbox.cif.g08.bks.cpg/sg136_2_cif.got.tgz:2284.got - 2010.05.20 12:54:53.
