data_PCOD9569952
_publ_section_title
;
Structure prediction by ZEFSAII (Michael W. Deem and Ramdas Pophale) SiO2 
 PCOD9569952
Probable space group: P 42/N M C
;
_chemical_formula_sum "Si O2"
_cell_formula_units_Z 128
_cell_length_a 18.468684
_cell_length_b 18.468684
_cell_length_c 22.552888
_cell_angle_alpha 90.000000
_cell_angle_beta 90.000000
_cell_angle_gamma 90.000000
_cell_volume 7692.616185
_symmetry_space_group_name_H-M "P 42/N M C"
_symmetry_group_IT_number 137
_space_group.IT_coordinate_system_code '2'
_symmetry_cell_setting 'tetragonal'
loop_
_space_group_symop_operation_xyz
x,y,z
1/2-y,x,1/2+z
1/2-x,1/2-y,z
y,1/2-x,1/2+z
1/2+x,-y,-z
-x,1/2+y,-z
1/2+y,1/2+x,1/2-z
-y,-x,1/2-z
-x,-y,-z
1/2+y,-x,1/2-z
1/2+x,1/2+y,-z
-y,1/2+x,1/2-z
1/2-x,y,z
x,1/2-y,z
1/2-y,1/2-x,1/2+z
y,x,1/2+z
loop_
_atom_site_type_symbol
_atom_site_label
_atom_site_fract_x
_atom_site_fract_y
_atom_site_fract_z
Si Si1 0.331941 0.378527 0.996630
Si Si2 0.889339 0.981494 0.367980
Si Si3 0.168367 0.049028 0.405433
Si Si4 0.918651 0.979298 0.152199
Si Si5 0.555112 0.164271 0.014311
Si Si6 0.830168 0.833855 0.868682
Si Si7 0.664376 0.034777 0.037469
Si Si8 0.052053 0.832646 0.754875
O O1 0.250000 0.378967 0.972909
O O2 0.383741 0.339455 0.950741
O O3 0.353121 0.463774 0.002808
O O4 0.330764 0.340440 0.059936
O O5 0.880845 0.898363 0.350183
O O6 0.860650 0.998510 0.434229
O O7 0.840351 0.027217 0.322577
O O8 0.969748 0.011977 0.359295
O O9 0.250000 0.045794 0.381415
O O10 0.103643 0.060478 0.359054
O O11 0.156091 0.981131 0.449631
O O12 0.862222 0.006891 0.101858
O O13 0.882096 0.999475 0.214426
O O14 0.571985 0.250000 0.022591
O O15 0.620521 0.107180 0.021284
O O16 0.750000 0.856272 0.848346
O O17 0.841695 0.750000 0.852173
O O18 0.750000 0.047885 0.036109
O O19 0.130645 0.869356 0.750000
O O20 0.050684 0.750000 0.735428
#
# Coordination Sequence:
#
# PCOD9569952 Si02
#       8
#    16  16  16  16  16  16  16  16
#     4   9  17  27  42  64  90 120 151 185 226 276
#     4  10  19  32  51  69  94 125 160 203 244 287
#     4  10  19  31  48  70  97 125 159 199 236 283
#     4   9  20  33  50  68  93 129 168 198 240 291
#     4  10  19  29  46  70  94 125 161 196 242 289
#     4  10  18  27  42  66  93 118 147 189 238 282
#     4   9  18  30  44  64  92 124 159 196 237 284
#     4  10  20  35  53  74  98 129 166 204 242 282
#
# _framework density 16.639334000000002
#
# number of rings (size 3 to 8) (size 9 to 14) (size 15 to 20)
#    0.000    2.375    1.250    1.875    1.750    3.125 
#    0.000    0.625    0.000    5.250    0.000    0.000 
#    0.000    0.000    0.000    0.000    0.000    7.125 
#
# Total GULP energy -713145.924304 kJ/mol
# GULP energy per Si atom -5571.452534 kJ/mol
# Density = 1.660146 g / cm^3
# Si number density = 16.639334 Si / 1000 Ang^3
#
#
#
# Elastic Constant Matrix: (Units=GPa)
#
#
# Indices 1 2 3 4 5 6 
#
# 1 97.0933 49.5944 7.1309 0.0000 0.0000 0.0000
# 2 49.5944 97.0948 7.1320 0.0000 0.0000 0.0000
# 3 7.1309 7.1320 21.7898 0.0000 0.0000 0.0000
# 4 0.0000 0.0000 0.0000 12.4170 0.0000 0.0000
# 5 0.0000 0.0000 0.0000 0.0000 12.4164 0.0000
# 6 0.0000 0.0000 0.0000 0.0000 0.0000 17.0670
#
#
#
# Elastic Compliance Matrix: (Units=1/GPa)
#
#
# Indices 1 2 3 4 5 6 
#
# 1 0.014047 -0.007006 -0.002304 0.000000 0.000000 0.000000
# 2 -0.007006 0.014047 -0.002305 0.000000 0.000000 0.000000
# 3 -0.002304 -0.002305 0.047401 0.000000 0.000000 0.000000
# 4 0.000000 0.000000 0.000000 0.080535 0.000000 0.000000
# 5 0.000000 0.000000 0.000000 0.000000 0.080539 0.000000
# 6 0.000000 0.000000 0.000000 0.000000 0.000000 0.058593
#
#
# Mechanical properties :
#
#
# Convention : Reuss Voigt Hill
#
# Bulk Modulus (GPa) = 19.13291 38.18806 28.66049
# Shear Modulus (GPa) = 14.88926 18.52146 16.70536
#
# Velocity S-wave (km/s) = 2.99460 3.33995 3.17198
# Velocity P-wave (km/s) = 4.84566 6.15419 5.53870
#
# Compressibility (1/GPa) = 0.05226596
#
# Stress axis : x y z
#
# Youngs Moduli (GPa) = 71.18921 71.18980 21.09640
#
# Poissons Ratio (x) = 0.49874 0.04861
# Poissons Ratio (y) = 0.49874 0.04863
# Poissons Ratio (z) = 0.16402 0.16409
#
# Static dielectric constant tensor:
#      x y z
#    x 1.577550 0.000000 0.000000 
#    y 0.000000 1.577550 0.000000 
#    z 0.000000 0.000000 1.567600 
# 
# From -- ./inp_files/9183.got.cif
#   From: 2010.05.17/outbox.cif.g08.bks.cpg/sg137_5_cif.got.tgz:9183.got - 2010.05.20 13:01:12.
