data_PCOD9569615
_publ_section_title
;
Structure prediction by ZEFSAII (Michael W. Deem and Ramdas Pophale) SiO2 
 PCOD9569615
Probable space group: P 42/M N M
;
_chemical_formula_sum "Si O2"
_cell_formula_units_Z 64
_cell_length_a 13.234200
_cell_length_b 13.234200
_cell_length_c 19.987047
_cell_angle_alpha 90.000000
_cell_angle_beta 90.000000
_cell_angle_gamma 90.000000
_cell_volume 3500.612352
_symmetry_space_group_name_H-M "P 42/M N M"
_symmetry_group_IT_number 136
_symmetry_cell_setting 'tetragonal'
loop_
_space_group_symop_operation_xyz
x,y,z
1/2-y,1/2+x,1/2+z
-x,-y,z
1/2+y,1/2-x,1/2+z
1/2+x,1/2-y,1/2-z
1/2-x,1/2+y,1/2-z
y,x,-z
-y,-x,-z
-x,-y,-z
1/2+y,1/2-x,1/2-z
x,y,-z
1/2-y,1/2+x,1/2-z
1/2-x,1/2+y,1/2+z
1/2+x,1/2-y,1/2+z
-y,-x,z
y,x,z
loop_
_atom_site_type_symbol
_atom_site_label
_atom_site_fract_x
_atom_site_fract_y
_atom_site_fract_z
Si Si1 0.062752 0.228799 0.203457
Si Si2 0.882814 0.472055 0.078631
Si Si3 0.395683 0.229297 0.186599
Si Si4 0.926115 0.243795 0.077717
O O1 0.129382 0.129382 0.214960
O O2 0.136967 0.324610 0.210532
O O3 0.970486 0.237896 0.254434
O O4 0.017425 0.229307 0.128761
O O5 0.810961 0.537788 0.125114
O O6 0.874748 0.352297 0.091567
O O7 0.000000 0.500000 0.092444
O O8 0.864329 0.490942 0.000000
O O9 0.320547 0.320547 0.168443
O O10 0.845209 0.154792 0.086208
O O11 0.959364 0.245928 0.000000
#
# Coordination Sequence:
#
# PCOD9569615 Si02
#       4
#    16  16  16  16
#     4  11  24  40  59  86 121 159 200 247 298 354
#     4  10  20  38  63  87 115 153 195 240 292 350
#     4  11  24  38  58  88 118 155 201 246 294 353
#     4  10  21  38  62  91 120 154 198 246 298 357
#
# _framework density 18.282513999999999
#
# number of rings (size 3 to 8) (size 9 to 14) (size 15 to 20)
#    0.000    1.500    2.500    2.250    0.000    6.000 
#    0.000    3.750    0.000    0.000    0.000    5.250 
#    0.000    0.000    0.000    0.000    0.000    0.000 
#
# Total GULP energy -357662.686214 kJ/mol
# GULP energy per Si atom -5588.479472 kJ/mol
# Density = 1.824090 g / cm^3
# Si number density = 18.282514 Si / 1000 Ang^3
#
#
#
# Elastic Constant Matrix: (Units=GPa)
#
#
# Indices 1 2 3 4 5 6 
#
# 1 74.4759 62.8625 49.6661 0.0000 0.0000 0.0000
# 2 62.8625 74.4759 49.6661 0.0000 0.0000 0.0000
# 3 49.6661 49.6661 75.5153 0.0000 0.0000 0.0000
# 4 0.0000 0.0000 0.0000 20.1376 0.0000 0.0000
# 5 0.0000 0.0000 0.0000 0.0000 20.1376 0.0000
# 6 0.0000 0.0000 0.0000 0.0000 0.0000 23.9240
#
#
#
# Elastic Compliance Matrix: (Units=1/GPa)
#
#
# Indices 1 2 3 4 5 6 
#
# 1 0.049997 -0.036110 -0.009134 0.000000 0.000000 0.000000
# 2 -0.036110 0.049997 -0.009134 0.000000 0.000000 0.000000
# 3 -0.009134 -0.009134 0.025257 0.000000 0.000000 0.000000
# 4 0.000000 0.000000 0.000000 0.049658 0.000000 0.000000
# 5 0.000000 0.000000 0.000000 0.000000 0.049658 0.000000
# 6 0.000000 0.000000 0.000000 0.000000 0.000000 0.041799
#
#
# Mechanical properties :
#
#
# Convention : Reuss Voigt Hill
#
# Bulk Modulus (GPa) = 60.61791 60.98404 60.80097
# Shear Modulus (GPa) = 13.13644 16.99134 15.06389
#
# Velocity S-wave (km/s) = 2.68344 3.05188 2.87357
# Velocity P-wave (km/s) = 6.54441 6.77108 6.65871
#
# Compressibility (1/GPa) = 0.01649677
#
# Stress axis : x y z
#
# Youngs Moduli (GPa) = 20.00106 20.00106 39.59354
#
# Poissons Ratio (x) = 0.72224 0.36163
# Poissons Ratio (y) = 0.72224 0.36163
# Poissons Ratio (z) = 0.18268 0.18268
#
# Static dielectric constant tensor:
#      x y z
#    x 1.611630 0.000000 0.000000 
#    y 0.000000 1.611630 0.000000 
#    z 0.000000 0.000000 1.619630 
# 
# From -- ./inp_files/7014.got.cif
#   From: 2010.05.17/outbox.cif.g08.bks.cpg/sg136_4_cif.got.tgz:7014.got - 2010.05.20 12:54:53.
