data_PCOD9569584
_publ_section_title
;
Structure prediction by ZEFSAII (Michael W. Deem and Ramdas Pophale) SiO2 
 PCOD9569584
Probable space group: P 42/M N M
;
_chemical_formula_sum "Si O2"
_cell_formula_units_Z 50
_cell_length_a 13.770410
_cell_length_b 13.770410
_cell_length_c 11.190905
_cell_angle_alpha 90.000000
_cell_angle_beta 90.000000
_cell_angle_gamma 90.000000
_cell_volume 2122.066314
_symmetry_space_group_name_H-M "P 42/M N M"
_symmetry_group_IT_number 136
_symmetry_cell_setting 'tetragonal'
loop_
_space_group_symop_operation_xyz
x,y,z
1/2-y,1/2+x,1/2+z
-x,-y,z
1/2+y,1/2-x,1/2+z
1/2+x,1/2-y,1/2-z
1/2-x,1/2+y,1/2-z
y,x,-z
-y,-x,-z
-x,-y,-z
1/2+y,1/2-x,1/2-z
x,y,-z
1/2-y,1/2+x,1/2-z
1/2-x,1/2+y,1/2+z
1/2+x,1/2-y,1/2+z
-y,-x,z
y,x,z
loop_
_atom_site_type_symbol
_atom_site_label
_atom_site_fract_x
_atom_site_fract_y
_atom_site_fract_z
Si Si1 0.500000 0.000000 0.750000
Si Si2 0.257825 0.257825 0.000000
Si Si3 0.726467 0.726467 0.641037
Si Si4 0.500000 0.500000 0.000000
Si Si5 0.785630 0.516172 0.733899
Si Si6 0.651127 0.348874 0.709581
Si Si7 0.015454 0.760816 0.500000
O O1 0.606313 0.989846 0.813751
O O2 0.210805 0.210805 0.886172
O O3 0.242633 0.370468 0.000000
O O4 0.712633 0.712633 0.500000
O O5 0.762589 0.627039 0.702296
O O6 0.807830 0.807830 0.665572
O O7 0.500061 0.622006 0.000000
O O8 0.689346 0.457353 0.692122
O O9 0.788331 0.487963 0.874560
#
# Coordination Sequence:
#
# PCOD9569584 Si02
#       7
#     4   4   8   2  16   8   8
#     4  12  24  46  72 108 142 192 242 288 372 454
#     4  11  20  45  66  91 140 187 226 290 346 431
#     4  12  27  49  70 107 153 186 239 314 372 430
#     4  10  20  36  68 104 126 194 232 300 356 404
#     4  12  26  46  71 108 141 192 241 300 367 435
#     4  12  26  45  73 103 145 188 242 297 366 424
#     4  11  21  41  70  99 141 179 245 297 348 429
#
# _framework density 23.561941999999998
#
# number of rings (size 3 to 8) (size 9 to 14) (size 15 to 20)
#    0.000    0.320    6.400    1.920    4.480    1.280 
#    2.880    0.800    0.000    0.000    0.000    0.000 
#    0.000    0.000    0.000    0.000    0.000    0.000 
#
# Total GULP energy -278358.077512 kJ/mol
# GULP energy per Si atom -5567.161550 kJ/mol
# Density = 2.350831 g / cm^3
# Si number density = 23.561942 Si / 1000 Ang^3
#
#
#
# Elastic Constant Matrix: (Units=GPa)
#
#
# Indices 1 2 3 4 5 6 
#
# 1 240.6661 -110.9407 10.7145 0.0000 0.0000 0.0000
# 2 -110.9407 240.6661 10.7145 0.0000 0.0000 0.0000
# 3 10.7145 10.7145 86.1844 0.0000 0.0000 0.0000
# 4 0.0000 0.0000 0.0000 19.4232 0.0000 0.0000
# 5 0.0000 0.0000 0.0000 0.0000 19.4232 0.0000
# 6 0.0000 0.0000 0.0000 0.0000 0.0000 45.0835
#
#
#
# Elastic Compliance Matrix: (Units=1/GPa)
#
#
# Indices 1 2 3 4 5 6 
#
# 1 0.005357 0.002513 -0.000978 0.000000 0.000000 0.000000
# 2 0.002513 0.005357 -0.000978 0.000000 0.000000 0.000000
# 3 -0.000978 -0.000978 0.011846 0.000000 0.000000 0.000000
# 4 0.000000 0.000000 0.000000 0.051485 0.000000 0.000000
# 5 0.000000 0.000000 0.000000 0.000000 0.051485 0.000000
# 6 0.000000 0.000000 0.000000 0.000000 0.000000 0.022181
#
#
# Mechanical properties :
#
#
# Convention : Reuss Voigt Hill
#
# Bulk Modulus (GPa) = 42.24216 43.16589 42.70403
# Shear Modulus (GPa) = 32.36456 60.58787 46.47621
#
# Velocity S-wave (km/s) = 3.71022 5.07643 4.44612
# Velocity P-wave (km/s) = 6.02672 7.26086 6.67239
#
# Compressibility (1/GPa) = 0.02367303
#
# Stress axis : x y z
#
# Youngs Moduli (GPa) = 186.66636 186.66636 84.41448
#
# Poissons Ratio (x) = -0.46910 0.08259
# Poissons Ratio (y) = -0.46910 0.08259
# Poissons Ratio (z) = 0.18264 0.18264
#
# Static dielectric constant tensor:
#      x y z
#    x 1.893740 0.000000 0.000000 
#    y 0.000000 1.893740 0.000000 
#    z 0.000000 0.000000 1.981360 
# 
# From -- ./inp_files/3068.got.cif
#   From: 2010.05.17/outbox.cif.g08.bks.cpg/sg136_2_cif.got.tgz:3068.got - 2010.05.20 12:54:53.
