data_PCOD9569430
_publ_section_title
;
Structure prediction by ZEFSAII (Michael W. Deem and Ramdas Pophale) SiO2 
 PCOD9569430
Probable space group: P 42/M N M
;
_chemical_formula_sum "Si O2"
_cell_formula_units_Z 72
_cell_length_a 25.930014
_cell_length_b 25.930014
_cell_length_c 7.687833
_cell_angle_alpha 90.000000
_cell_angle_beta 90.000000
_cell_angle_gamma 90.000000
_cell_volume 5169.034648
_symmetry_space_group_name_H-M "P 42/M N M"
_symmetry_group_IT_number 136
_symmetry_cell_setting 'tetragonal'
loop_
_space_group_symop_operation_xyz
x,y,z
1/2-y,1/2+x,1/2+z
-x,-y,z
1/2+y,1/2-x,1/2+z
1/2+x,1/2-y,1/2-z
1/2-x,1/2+y,1/2-z
y,x,-z
-y,-x,-z
-x,-y,-z
1/2+y,1/2-x,1/2-z
x,y,-z
1/2-y,1/2+x,1/2-z
1/2-x,1/2+y,1/2+z
1/2+x,1/2-y,1/2+z
-y,-x,z
y,x,z
loop_
_atom_site_type_symbol
_atom_site_label
_atom_site_fract_x
_atom_site_fract_y
_atom_site_fract_z
Si Si1 0.254171 0.165507 0.500000
Si Si2 0.919511 0.831072 0.500000
Si Si3 0.458960 0.458960 0.710514
Si Si4 0.198396 0.885718 0.790329
Si Si5 0.494848 0.343911 0.710723
Si Si6 0.693693 0.782331 0.192748
O O1 0.210797 0.210797 0.500000
O O2 0.221415 0.113616 0.500000
O O3 0.289908 0.175957 0.333734
O O4 0.879229 0.879229 0.500000
O O5 0.955711 0.833077 0.670884
O O6 0.500000 0.500000 0.778154
O O7 0.460209 0.460209 0.500000
O O8 0.475503 0.401538 0.756393
O O9 0.150132 0.849869 0.729455
O O10 0.191352 0.945357 0.743836
O O11 0.250734 0.858445 0.730186
O O12 0.197195 0.883405 0.000000
O O13 0.504146 0.341373 0.500000
O O14 0.737732 0.737732 0.200186
O O15 0.692876 0.804167 0.000000
#
# Coordination Sequence:
#
# PCOD9569430 Si02
#       6
#     8   8   8  16  16  16
#     4   9  18  34  45  60  85 112 149 192 225 269
#     4  11  24  35  46  61  86 126 171 200 221 261
#     4   9  16  29  45  57  80 117 161 200 233 263
#     4   9  15  27  46  67  92 112 136 185 245 285
#     4  10  20  33  46  64  87 120 156 198 240 272
#     4   9  16  26  45  68  85 105 133 180 238 284
#
# _framework density 13.9291
#
# number of rings (size 3 to 8) (size 9 to 14) (size 15 to 20)
#    0.000    2.556    2.222    0.667    1.556    2.667 
#    0.000    3.333    0.000    0.000    0.000    0.000 
#    0.000    0.000    0.000    0.000    0.000    3.333 
#
# Total GULP energy -401123.469682 kJ/mol
# GULP energy per Si atom -5571.159301 kJ/mol
# Density = 1.389740 g / cm^3
# Si number density = 13.929100 Si / 1000 Ang^3
#
#
#
# Elastic Constant Matrix: (Units=GPa)
#
#
# Indices 1 2 3 4 5 6 
#
# 1 65.5640 63.6413 50.1053 0.0000 0.0000 0.0000
# 2 63.6413 65.5640 50.1053 0.0000 0.0000 0.0000
# 3 50.1053 50.1053 86.6317 0.0000 0.0000 0.0000
# 4 0.0000 0.0000 0.0000 7.1416 0.0000 0.0000
# 5 0.0000 0.0000 0.0000 0.0000 7.1416 0.0000
# 6 0.0000 0.0000 0.0000 0.0000 0.0000 29.2688
#
#
#
# Elastic Compliance Matrix: (Units=1/GPa)
#
#
# Indices 1 2 3 4 5 6 
#
# 1 0.267063 -0.253027 -0.008118 0.000000 0.000000 0.000000
# 2 -0.253027 0.267063 -0.008118 0.000000 0.000000 0.000000
# 3 -0.008118 -0.008118 0.020933 0.000000 0.000000 0.000000
# 4 0.000000 0.000000 0.000000 0.140024 0.000000 0.000000
# 5 0.000000 0.000000 0.000000 0.000000 0.140024 0.000000
# 6 0.000000 0.000000 0.000000 0.000000 0.000000 0.034166
#
#
# Mechanical properties :
#
#
# Convention : Reuss Voigt Hill
#
# Bulk Modulus (GPa) = 60.48349 60.60702 60.54526
# Shear Modulus (GPa) = 3.53779 12.30426 7.92103
#
# Velocity S-wave (km/s) = 1.59542 2.97534 2.38726
# Velocity P-wave (km/s) = 6.84912 7.44373 7.15261
#
# Compressibility (1/GPa) = 0.01653344
#
# Stress axis : x y z
#
# Youngs Moduli (GPa) = 3.74444 3.74444 47.77045
#
# Poissons Ratio (x) = 0.94744 0.38780
# Poissons Ratio (y) = 0.94744 0.38780
# Poissons Ratio (z) = 0.03040 0.03040
#
# Static dielectric constant tensor:
#      x y z
#    x 1.443890 0.000000 0.000000 
#    y 0.000000 1.443890 0.000000 
#    z 0.000000 0.000000 1.499620 
# 
# From -- ./inp_files/1767.got.cif
#   From: 2010.05.17/outbox.cif.g08.bks.cpg/sg136_1_cif.got.tgz:1767.got - 2010.05.20 12:54:53.
