data_PCOD9569869
_publ_section_title
;
Structure prediction by ZEFSAII (Michael W. Deem and Ramdas Pophale) SiO2 
 PCOD9569869
Probable space group: P 42/M N M
;
_chemical_formula_sum "Si O2"
_cell_formula_units_Z 48
_cell_length_a 13.724210
_cell_length_b 13.724210
_cell_length_c 10.478864
_cell_angle_alpha 90.000000
_cell_angle_beta 90.000000
_cell_angle_gamma 90.000000
_cell_volume 1973.735322
_symmetry_space_group_name_H-M "P 42/M N M"
_symmetry_group_IT_number 136
_symmetry_cell_setting 'tetragonal'
loop_
_space_group_symop_operation_xyz
x,y,z
1/2-y,1/2+x,1/2+z
-x,-y,z
1/2+y,1/2-x,1/2+z
1/2+x,1/2-y,1/2-z
1/2-x,1/2+y,1/2-z
y,x,-z
-y,-x,-z
-x,-y,-z
1/2+y,1/2-x,1/2-z
x,y,-z
1/2-y,1/2+x,1/2-z
1/2-x,1/2+y,1/2+z
1/2+x,1/2-y,1/2+z
-y,-x,z
y,x,z
loop_
_atom_site_type_symbol
_atom_site_label
_atom_site_fract_x
_atom_site_fract_y
_atom_site_fract_z
Si Si1 0.118049 0.516064 0.500000
Si Si2 0.266647 0.733354 0.847732
Si Si3 0.769519 0.605354 0.000000
Si Si4 0.479281 0.760582 0.745597
Si Si5 0.601103 0.601103 0.352503
O O1 0.157181 0.627025 0.500000
O O2 0.166397 0.482625 0.366431
O O3 0.000000 0.500000 0.500000
O O4 0.366011 0.767025 0.780161
O O5 0.184466 0.815535 0.835181
O O6 0.282931 0.717070 0.000000
O O7 0.774416 0.537687 0.876208
O O8 0.678383 0.678383 0.000000
O O9 0.506700 0.650978 0.704948
O O10 0.585133 0.585133 0.500000
#
# Coordination Sequence:
#
# PCOD9569869 Si02
#       5
#     8   8   8  16   8
#     4  12  32  47  77 118 159 209 266 324 399 477
#     4  11  26  48  77 110 156 207 256 317 403 472
#     4  12  28  49  78 115 157 205 261 331 393 479
#     4  12  26  49  76 111 153 201 260 326 391 470
#     4  11  24  48  71 104 154 199 250 317 389 472
#
# _framework density 24.319371
#
# number of rings (size 3 to 8) (size 9 to 14) (size 15 to 20)
#    0.000    0.333    5.000    2.000   11.667    0.667 
#    0.000    2.500    0.000    0.000    0.000    0.000 
#    0.000    0.000    0.000    0.000    0.000    0.000 
#
# Total GULP energy -268736.722078 kJ/mol
# GULP energy per Si atom -5598.681710 kJ/mol
# Density = 2.426402 g / cm^3
# Si number density = 24.319371 Si / 1000 Ang^3
#
#
#
# Elastic Constant Matrix: (Units=GPa)
#
#
# Indices 1 2 3 4 5 6 
#
# 1 112.6782 64.1010 58.3762 0.0000 0.0000 0.0000
# 2 64.1010 112.6787 58.3761 0.0000 0.0000 0.0000
# 3 58.3762 58.3761 216.9329 0.0000 0.0000 0.0000
# 4 0.0000 0.0000 0.0000 -24.9134 0.0000 0.0000
# 5 0.0000 0.0000 0.0000 0.0000 -24.9134 0.0000
# 6 0.0000 0.0000 0.0000 0.0000 0.0000 37.0520
#
#
#
# Elastic Compliance Matrix: (Units=1/GPa)
#
#
# Indices 1 2 3 4 5 6 
#
# 1 0.013733 -0.006853 -0.001851 0.000000 0.000000 0.000000
# 2 -0.006853 0.013732 -0.001851 0.000000 0.000000 0.000000
# 3 -0.001851 -0.001851 0.005606 0.000000 0.000000 0.000000
# 4 0.000000 0.000000 0.000000 -0.040139 0.000000 0.000000
# 5 0.000000 0.000000 0.000000 0.000000 -0.040139 0.000000
# 6 0.000000 0.000000 0.000000 0.000000 0.000000 0.026989
#
#
# Mechanical properties :
#
#
# Convention : Reuss Voigt Hill
#
# Bulk Modulus (GPa) = 83.61263 89.33292 86.47277
# Shear Modulus (GPa) = 1024.60058 14.87415 519.73736
#
# Velocity S-wave (km/s) = 20.54812 2.47577 14.63480
# Velocity P-wave (km/s) = 24.44223 6.70713 17.92217
#
# Compressibility (1/GPa) = 0.01195992
#
# Stress axis : x y z
#
# Youngs Moduli (GPa) = 72.81956 72.82002 178.37898
#
# Poissons Ratio (x) = 0.49905 0.33022
# Poissons Ratio (y) = 0.49904 0.33022
# Poissons Ratio (z) = 0.13481 0.13481
#
# Static dielectric constant tensor:
#      x y z
#    x 2.290170 0.000000 0.000000 
#    y 0.000000 2.290160 0.000000 
#    z 0.000000 0.000000 2.052500 
# 
# From -- ./inp_files/3039.got.cif
#   From: 2010.05.17/outbox.cif.g08.bks.cpg/sg136_2_cif.got.tgz:3039.got - 2010.05.20 12:54:53.
