data_PCOD9569038
_publ_section_title
;
Structure prediction by ZEFSAII (Michael W. Deem and Ramdas Pophale) SiO2 
 PCOD9569038
Probable space group: P 42/M B C
;
_chemical_formula_sum "Si O2"
_cell_formula_units_Z 48
_cell_length_a 9.051104
_cell_length_b 9.051104
_cell_length_c 24.445797
_cell_angle_alpha 90.000000
_cell_angle_beta 90.000000
_cell_angle_gamma 90.000000
_cell_volume 2002.660404
_symmetry_space_group_name_H-M "P 42/M B C"
_symmetry_group_IT_number 135
_symmetry_cell_setting 'tetragonal'
loop_
_space_group_symop_operation_xyz
x,y,z
-y,x,1/2+z
-x,-y,z
y,-x,1/2+z
1/2+x,1/2-y,-z
1/2-x,1/2+y,-z
1/2+y,1/2+x,1/2-z
1/2-y,1/2-x,1/2-z
-x,-y,-z
y,-x,1/2-z
x,y,-z
-y,x,1/2-z
1/2-x,1/2+y,z
1/2+x,1/2-y,z
1/2-y,1/2-x,1/2+z
1/2+y,1/2+x,1/2+z
loop_
_atom_site_type_symbol
_atom_site_label
_atom_site_fract_x
_atom_site_fract_y
_atom_site_fract_z
Si Si1 0.958250 0.225722 0.269193
Si Si2 0.572159 0.343622 0.616988
Si Si3 0.383036 0.126515 0.562375
O O1 0.870007 0.370007 0.250000
O O2 0.090943 0.162236 0.231272
O O3 0.034536 0.246506 0.328069
O O4 0.500000 0.500000 0.627338
O O5 0.481212 0.272390 0.567561
O O6 0.742808 0.358197 0.601655
O O7 0.333457 0.100290 0.500000
O O8 0.500000 0.000000 0.577516
#
# Coordination Sequence:
#
# PCOD9569038 Si02
#       3
#    16  16  16
#     4  11  24  47  71 103 144 188 245 307 373 456
#     4  12  24  44  74 106 146 196 246 312 380 456
#     4  11  26  47  73 108 150 196 251 310 380 458
#
# _framework density 23.968115000000001
#
# number of rings (size 3 to 8) (size 9 to 14) (size 15 to 20)
#    0.000    0.667    3.333    5.000    0.000    6.000 
#    0.000    0.000    0.000    0.000    0.000    0.000 
#    0.000    0.000    0.000    0.000    0.000    0.000 
#
# Total GULP energy -268643.527586 kJ/mol
# GULP energy per Si atom -5596.740158 kJ/mol
# Density = 2.391356 g / cm^3
# Si number density = 23.968115 Si / 1000 Ang^3
#
#
#
# Elastic Constant Matrix: (Units=GPa)
#
#
# Indices 1 2 3 4 5 6 
#
# 1 127.1082 57.5758 69.8729 0.0000 0.0000 0.0000
# 2 57.5758 127.1082 69.8729 0.0000 0.0000 0.0000
# 3 69.8729 69.8729 125.0724 0.0000 0.0000 0.0000
# 4 0.0000 0.0000 0.0000 52.6593 0.0000 0.0000
# 5 0.0000 0.0000 0.0000 0.0000 52.6593 0.0000
# 6 0.0000 0.0000 0.0000 0.0000 0.0000 43.8377
#
#
#
# Elastic Compliance Matrix: (Units=1/GPa)
#
#
# Indices 1 2 3 4 5 6 
#
# 1 0.011881 -0.002501 -0.005240 0.000000 0.000000 0.000000
# 2 -0.002501 0.011881 -0.005240 0.000000 0.000000 0.000000
# 3 -0.005240 -0.005240 0.013850 0.000000 0.000000 0.000000
# 4 0.000000 0.000000 0.000000 0.018990 0.000000 0.000000
# 5 0.000000 0.000000 0.000000 0.000000 0.018990 0.000000
# 6 0.000000 0.000000 0.000000 0.000000 0.000000 0.022811
#
#
# Mechanical properties :
#
#
# Convention : Reuss Voigt Hill
#
# Bulk Modulus (GPa) = 85.84183 85.99247 85.91715
# Shear Modulus (GPa) = 38.98682 41.96240 40.47461
#
# Velocity S-wave (km/s) = 4.03750 4.18875 4.11382
# Velocity P-wave (km/s) = 7.59131 7.70389 7.64781
#
# Compressibility (1/GPa) = 0.01164933
#
# Stress axis : x y z
#
# Youngs Moduli (GPa) = 84.16988 84.16988 72.20128
#
# Poissons Ratio (x) = 0.21051 0.37834
# Poissons Ratio (y) = 0.21051 0.37834
# Poissons Ratio (z) = 0.44105 0.44105
#
# Static dielectric constant tensor:
#      x y z
#    x 1.786300 0.000000 0.000000 
#    y 0.000000 1.786300 0.000000 
#    z 0.000000 0.000000 1.982010 
# 
# From -- ./inp_files/6571.got.cif
#   From: 2010.05.17/outbox.cif.g08.bks.cpg/sg135_4_cif.got.tgz:6571.got - 2010.05.20 12:50:20.
