data_PCOD9569894
_publ_section_title
;
Structure prediction by ZEFSAII (Michael W. Deem and Ramdas Pophale) SiO2 
 PCOD9569894
Probable space group: P 42/M N M
;
_chemical_formula_sum "Si O2"
_cell_formula_units_Z 96
_cell_length_a 25.618934
_cell_length_b 25.618934
_cell_length_c 7.505129
_cell_angle_alpha 90.000000
_cell_angle_beta 90.000000
_cell_angle_gamma 90.000000
_cell_volume 4925.839660
_symmetry_space_group_name_H-M "P 42/M N M"
_symmetry_group_IT_number 136
_symmetry_cell_setting 'tetragonal'
loop_
_space_group_symop_operation_xyz
x,y,z
1/2-y,1/2+x,1/2+z
-x,-y,z
1/2+y,1/2-x,1/2+z
1/2+x,1/2-y,1/2-z
1/2-x,1/2+y,1/2-z
y,x,-z
-y,-x,-z
-x,-y,-z
1/2+y,1/2-x,1/2-z
x,y,-z
1/2-y,1/2+x,1/2-z
1/2-x,1/2+y,1/2+z
1/2+x,1/2-y,1/2+z
-y,-x,z
y,x,z
loop_
_atom_site_type_symbol
_atom_site_label
_atom_site_fract_x
_atom_site_fract_y
_atom_site_fract_z
Si Si1 0.810188 0.353880 0.781761
Si Si2 0.799295 0.584070 0.714121
Si Si3 0.029863 0.284368 0.287607
Si Si4 0.616951 0.383050 0.782291
Si Si5 0.682487 0.601905 0.710249
Si Si6 0.989353 0.833346 0.284893
Si Si7 0.796731 0.796731 0.717152
O O1 0.866642 0.332862 0.723905
O O2 0.803518 0.413933 0.722328
O O3 0.760655 0.317633 0.727077
O O4 0.809413 0.353214 0.000000
O O5 0.798212 0.586749 0.500000
O O6 0.814856 0.524296 0.755186
O O7 0.740358 0.593123 0.784611
O O8 0.035270 0.280682 0.500000
O O9 0.020470 0.225693 0.218829
O O10 0.632668 0.440720 0.723867
O O11 0.660054 0.339947 0.729187
O O12 0.617617 0.382384 0.000000
O O13 0.689123 0.611628 0.500000
O O14 0.649639 0.649639 0.786371
O O15 0.651876 0.547551 0.730412
O O16 0.988436 0.832618 0.500000
O O17 0.795847 0.795847 0.500000
#
# Coordination Sequence:
#
# PCOD9569894 Si02
#       7
#    16  16  16   8  16  16   8
#     4   9  16  26  45  72  97 117 146 187 227 267
#     4   9  18  30  46  70  94 118 148 184 222 264
#     4   9  16  29  47  67  91 120 150 179 218 271
#     4   9  14  24  42  68  93 110 138 186 233 267
#     4   9  18  31  44  60  87 121 152 181 217 264
#     4   9  16  27  45  66  86 112 147 185 224 265
#     4   9  14  22  42  72  98 115 138 183 235 268
#
# _framework density 19.489063999999999
#
# number of rings (size 3 to 8) (size 9 to 14) (size 15 to 20)
#    0.000    3.000    1.667    0.000    1.167    0.333 
#    0.000    1.667    0.000    3.000    0.000    5.250 
#    0.000    0.000    0.000    0.000    0.000    0.000 
#
# Total GULP energy -534902.019472 kJ/mol
# GULP energy per Si atom -5571.896036 kJ/mol
# Density = 1.944471 g / cm^3
# Si number density = 19.489064 Si / 1000 Ang^3
#
#
#
# Elastic Constant Matrix: (Units=GPa)
#
#
# Indices 1 2 3 4 5 6 
#
# 1 111.7038 79.3476 0.2775 0.0000 0.0000 0.0000
# 2 79.3476 111.7039 0.2774 0.0000 0.0000 0.0000
# 3 0.2775 0.2774 50.6711 0.0000 0.0000 0.0000
# 4 0.0000 0.0000 0.0000 13.0371 0.0000 0.0000
# 5 0.0000 0.0000 0.0000 0.0000 13.0371 0.0000
# 6 0.0000 0.0000 0.0000 0.0000 0.0000 29.3436
#
#
#
# Elastic Compliance Matrix: (Units=1/GPa)
#
#
# Indices 1 2 3 4 5 6 
#
# 1 0.018070 -0.012836 -0.000029 0.000000 0.000000 0.000000
# 2 -0.012836 0.018070 -0.000029 0.000000 0.000000 0.000000
# 3 -0.000029 -0.000029 0.019735 0.000000 0.000000 0.000000
# 4 0.000000 0.000000 0.000000 0.076704 0.000000 0.000000
# 5 0.000000 0.000000 0.000000 0.000000 0.076704 0.000000
# 6 0.000000 0.000000 0.000000 0.000000 0.000000 0.034079
#
#
# Mechanical properties :
#
#
# Convention : Reuss Voigt Hill
#
# Bulk Modulus (GPa) = 33.23436 48.20931 40.72183
# Shear Modulus (GPa) = 17.90967 24.02865 20.96916
#
# Velocity S-wave (km/s) = 3.03472 3.51512 3.28372
# Velocity P-wave (km/s) = 5.41934 6.42379 5.94282
#
# Compressibility (1/GPa) = 0.03008935
#
# Stress axis : x y z
#
# Youngs Moduli (GPa) = 55.34005 55.34011 50.67028
#
# Poissons Ratio (x) = 0.71034 0.00145
# Poissons Ratio (y) = 0.71033 0.00145
# Poissons Ratio (z) = 0.00159 0.00159
#
# Static dielectric constant tensor:
#      x y z
#    x 1.683860 0.000000 0.000000 
#    y 0.000000 1.683860 0.000000 
#    z 0.000000 0.000000 1.760530 
# 
# From -- ./inp_files/3939.got.cif
#   From: 2010.05.17/outbox.cif.g08.bks.cpg/sg136_2_cif.got.tgz:3939.got - 2010.05.20 12:54:53.
