data_PCOD9569070
_publ_section_title
;
Structure prediction by ZEFSAII (Michael W. Deem and Ramdas Pophale) SiO2 
 PCOD9569070
Probable space group: P 42/M B C
;
_chemical_formula_sum "Si O2"
_cell_formula_units_Z 96
_cell_length_a 15.000000
_cell_length_b 15.000000
_cell_length_c 21.000000
_cell_angle_alpha 90.000000
_cell_angle_beta 90.000000
_cell_angle_gamma 90.000000
_cell_volume 4725.000000
_symmetry_space_group_name_H-M "P 42/M B C"
_symmetry_group_IT_number 135
_symmetry_cell_setting 'tetragonal'
loop_
_space_group_symop_operation_xyz
x,y,z
-y,x,1/2+z
-x,-y,z
y,-x,1/2+z
1/2+x,1/2-y,-z
1/2-x,1/2+y,-z
1/2+y,1/2+x,1/2-z
1/2-y,1/2-x,1/2-z
-x,-y,-z
y,-x,1/2-z
x,y,-z
-y,x,1/2-z
1/2-x,1/2+y,z
1/2+x,1/2-y,z
1/2-y,1/2-x,1/2+z
1/2+y,1/2+x,1/2+z
loop_
_atom_site_type_symbol
_atom_site_label
_atom_site_fract_x
_atom_site_fract_y
_atom_site_fract_z
Si Si1 0.403360 0.604060 0.757040
Si Si2 0.053982 0.411442 0.073248
Si Si3 0.027337 0.242279 0.572946
Si Si4 0.724454 0.566253 0.621778
Si Si5 0.249900 0.170119 0.926591
Si Si6 0.317242 0.626424 0.630022
O O1 0.500773 0.606546 0.722733
O O2 0.406146 0.676796 0.812429
O O3 0.327001 0.620969 0.705845
O O4 0.157247 0.437557 0.072697
O O5 0.042886 0.328905 0.120649
O O6 0.000000 0.500000 0.090241
O O7 0.028147 0.386148 0.000000
O O8 0.018880 0.211216 0.500000
O O9 0.099334 0.181966 0.606026
O O10 0.928696 0.242049 0.601216
O O11 0.712804 0.651792 0.577187
O O12 0.678809 0.473514 0.602630
O O13 0.321077 0.229980 0.890808
O O14 0.278843 0.163922 0.000000
#
# Coordination Sequence:
#
# PCOD9569070 Si02
#       6
#    16  16  16  16  16  16
#     4   9  20  39  62  90 122 161 209 260 315 370
#     4  10  20  37  60  89 127 167 204 248 311 376
#     4  10  21  37  57  86 126 162 197 252 313 368
#     4  11  22  38  63  91 119 161 214 257 306 377
#     4  11  23  38  59  92 127 162 207 254 314 385
#     4  11  22  39  62  87 122 162 206 260 311 366
#
# _framework density 20.317460000000001
#
# number of rings (size 3 to 8) (size 9 to 14) (size 15 to 20)
#    0.000    1.667    1.667    3.000    0.000    6.667 
#    0.000    1.667    0.000    4.000    0.000    0.000 
#    0.000    0.000    0.000    0.000    0.000    0.000 
#
# Total GULP energy -535574.055246 kJ/mol
# GULP energy per Si atom -5578.896409 kJ/mol
# Density = 2.027122 g / cm^3
# Si number density = 20.317460 Si / 1000 Ang^3
#
#
#
# Elastic Constant Matrix: (Units=GPa)
#
#
# Indices 1 2 3 4 5 6 
#
# 1 53.9703 -20.3013 -13.5947 0.0000 0.0000 0.0000
# 2 -20.3013 53.9703 -13.5947 0.0000 0.0000 0.0000
# 3 -13.5947 -13.5947 -15.6700 0.0000 0.0000 0.0000
# 4 0.0000 0.0000 0.0000 43.0445 0.0000 0.0000
# 5 0.0000 0.0000 0.0000 0.0000 43.0445 0.0000
# 6 0.0000 0.0000 0.0000 0.0000 0.0000 38.2091
#
#
#
# Elastic Compliance Matrix: (Units=1/GPa)
#
#
# Indices 1 2 3 4 5 6 
#
# 1 0.015465 0.002000 -0.015152 0.000000 0.000000 0.000000
# 2 0.002000 0.015465 -0.015152 0.000000 0.000000 0.000000
# 3 -0.015152 -0.015152 -0.037526 0.000000 0.000000 0.000000
# 4 0.000000 0.000000 0.000000 0.023232 0.000000 0.000000
# 5 0.000000 0.000000 0.000000 0.000000 0.023232 0.000000
# 6 0.000000 0.000000 0.000000 0.000000 0.000000 0.026172
#
#
# Mechanical properties :
#
#
# Convention : Reuss Voigt Hill
#
# Bulk Modulus (GPa) = -15.82191 -0.30121 -8.06156
# Shear Modulus (GPa) = 49.22335 34.17703 41.70019
#
# Velocity S-wave (km/s) = 4.92744 4.10585 4.53529
# Velocity P-wave (km/s) = 4.95668 4.72534 4.84239
#
# Compressibility (1/GPa) = -0.06320349
#
# Stress axis : x y z
#
# Youngs Moduli (GPa) = 64.66409 64.66409 -26.64843
#
# Poissons Ratio (x) = -0.12936 -0.40378
# Poissons Ratio (y) = -0.12936 -0.40378
# Poissons Ratio (z) = 0.97979 0.97979
#
# Static dielectric constant tensor:
#      x y z
#    x 1.719880 0.000000 0.000000 
#    y 0.000000 1.719880 0.000000 
#    z 0.000000 0.000000 1.758270 
# 
# From -- ./inp_files/5446.got.cif
#   From: 2010.05.17/outbox.ucp.g08.bks.cvg/sg135_3_cif.got.tgz:5446.got - 2010.06.11 11:40:18.
