data_PCOD9569042
_publ_section_title
;
Structure prediction by ZEFSAII (Michael W. Deem and Ramdas Pophale) SiO2 
 PCOD9569042
Probable space group: P 42/M B C
;
_chemical_formula_sum "Si O2"
_cell_formula_units_Z 48
_cell_length_a 10.525180
_cell_length_b 10.525180
_cell_length_c 17.928120
_cell_angle_alpha 90.000000
_cell_angle_beta 90.000000
_cell_angle_gamma 90.000000
_cell_volume 1986.066628
_symmetry_space_group_name_H-M "P 42/M B C"
_symmetry_group_IT_number 135
_symmetry_cell_setting 'tetragonal'
loop_
_space_group_symop_operation_xyz
x,y,z
-y,x,1/2+z
-x,-y,z
y,-x,1/2+z
1/2+x,1/2-y,-z
1/2-x,1/2+y,-z
1/2+y,1/2+x,1/2-z
1/2-y,1/2-x,1/2-z
-x,-y,-z
y,-x,1/2-z
x,y,-z
-y,x,1/2-z
1/2-x,1/2+y,z
1/2+x,1/2-y,z
1/2-y,1/2-x,1/2+z
1/2+y,1/2+x,1/2+z
loop_
_atom_site_type_symbol
_atom_site_label
_atom_site_fract_x
_atom_site_fract_y
_atom_site_fract_z
Si Si1 0.519360 0.298179 0.230762
Si Si2 0.486018 0.149082 0.374250
Si Si3 0.755338 0.176370 0.582540
O O1 0.389681 0.377198 0.229729
O O2 0.498369 0.182662 0.286781
O O3 0.575119 0.271530 0.149614
O O4 0.355125 0.210932 0.401846
O O5 0.607784 0.214747 0.412637
O O6 0.500000 0.000000 0.389131
O O7 0.780576 0.124192 0.500000
#
# Coordination Sequence:
#
# PCOD9569042 Si02
#       3
#    16  16  16
#     4   9  21  45  73 105 141 191 247 296 359 447
#     4  11  26  49  75 106 150 199 248 303 373 453
#     4  11  25  46  74 109 148 191 245 311 372 432
#
# _framework density 24.168372999999999
#
# number of rings (size 3 to 8) (size 9 to 14) (size 15 to 20)
#    0.000    1.667    0.000    2.000    4.667    5.333 
#    6.000   13.333    0.000    0.000    0.000    0.000 
#    0.000    0.000    0.000    0.000    0.000    0.000 
#
# Total GULP energy -268820.483370 kJ/mol
# GULP energy per Si atom -5600.426737 kJ/mol
# Density = 2.411336 g / cm^3
# Si number density = 24.168373 Si / 1000 Ang^3
#
#
#
# Elastic Constant Matrix: (Units=GPa)
#
#
# Indices 1 2 3 4 5 6 
#
# 1 124.9865 48.1882 42.3493 0.0000 0.0000 0.0000
# 2 48.1882 124.9865 42.3493 0.0000 0.0000 0.0000
# 3 42.3493 42.3493 173.1693 0.0000 0.0000 0.0000
# 4 0.0000 0.0000 0.0000 9.0529 0.0000 0.0000
# 5 0.0000 0.0000 0.0000 0.0000 9.0529 0.0000
# 6 0.0000 0.0000 0.0000 0.0000 0.0000 30.1131
#
#
#
# Elastic Compliance Matrix: (Units=1/GPa)
#
#
# Indices 1 2 3 4 5 6 
#
# 1 0.009790 -0.003231 -0.001604 0.000000 0.000000 0.000000
# 2 -0.003231 0.009790 -0.001604 0.000000 0.000000 0.000000
# 3 -0.001604 -0.001604 0.006559 0.000000 0.000000 0.000000
# 4 0.000000 0.000000 0.000000 0.110462 0.000000 0.000000
# 5 0.000000 0.000000 0.000000 0.000000 0.110462 0.000000
# 6 0.000000 0.000000 0.000000 0.000000 0.000000 0.033208
#
#
# Mechanical properties :
#
#
# Convention : Reuss Voigt Hill
#
# Bulk Modulus (GPa) = 75.40819 76.54623 75.97721
# Shear Modulus (GPa) = 16.80278 28.99414 22.89846
#
# Velocity S-wave (km/s) = 2.63960 3.46739 3.08142
# Velocity P-wave (km/s) = 6.36859 6.91167 6.64568
#
# Compressibility (1/GPa) = 0.01326116
#
# Stress axis : x y z
#
# Youngs Moduli (GPa) = 102.14420 102.14420 152.45651
#
# Poissons Ratio (x) = 0.33003 0.24455
# Poissons Ratio (y) = 0.33003 0.24455
# Poissons Ratio (z) = 0.16384 0.16384
#
# Static dielectric constant tensor:
#      x y z
#    x 1.939360 0.000000 0.000000 
#    y 0.000000 1.939360 0.000000 
#    z 0.000000 0.000000 1.922900 
# 
# From -- ./inp_files/3993.got.cif
#   From: 2010.05.17/outbox.cif.g08.bks.cpg/sg135_2_cif.got.tgz:3993.got - 2010.05.20 12:50:20.
