data_PCOD9569925
_publ_section_title
;
Structure prediction by ZEFSAII (Michael W. Deem and Ramdas Pophale) SiO2 
 PCOD9569925
Probable space group: P 42/M N M
;
_chemical_formula_sum "Si O2"
_cell_formula_units_Z 96
_cell_length_a 15.000000
_cell_length_b 15.000000
_cell_length_c 21.000000
_cell_angle_alpha 90.000000
_cell_angle_beta 90.000000
_cell_angle_gamma 90.000000
_cell_volume 4725.000000
_symmetry_space_group_name_H-M "P 42/M N M"
_symmetry_group_IT_number 136
_symmetry_cell_setting 'tetragonal'
loop_
_space_group_symop_operation_xyz
x,y,z
1/2-y,1/2+x,1/2+z
-x,-y,z
1/2+y,1/2-x,1/2+z
1/2+x,1/2-y,1/2-z
1/2-x,1/2+y,1/2-z
y,x,-z
-y,-x,-z
-x,-y,-z
1/2+y,1/2-x,1/2-z
x,y,-z
1/2-y,1/2+x,1/2-z
1/2-x,1/2+y,1/2+z
1/2+x,1/2-y,1/2+z
-y,-x,z
y,x,z
loop_
_atom_site_type_symbol
_atom_site_label
_atom_site_fract_x
_atom_site_fract_y
_atom_site_fract_z
Si Si1 0.537117 0.319443 0.664924
Si Si2 0.647764 0.496734 0.000000
Si Si3 0.891007 0.255236 0.253833
Si Si4 0.675935 0.934378 0.072948
Si Si5 0.956382 0.284898 0.608895
Si Si6 0.076559 0.923442 0.070609
Si Si7 0.919939 0.570252 0.334610
O O1 0.596247 0.403754 0.681614
O O2 0.480366 0.288707 0.724546
O O3 0.595097 0.248523 0.625755
O O4 0.465390 0.345101 0.611005
O O5 0.708031 0.511940 0.937768
O O6 0.572454 0.572454 0.000000
O O7 0.597753 0.402248 0.000000
O O8 0.804146 0.195855 0.235474
O O9 0.900509 0.255042 0.329501
O O10 0.900269 0.354222 0.222834
O O11 0.602562 0.857318 0.071563
O O12 0.633874 0.020317 0.108670
O O13 0.707023 0.949874 0.000000
O O14 0.037700 0.340717 0.637953
O O15 0.102183 0.897818 0.000000
O O16 0.000000 0.000000 0.067013
O O17 0.000000 0.500000 0.318675
#
# Coordination Sequence:
#
# PCOD9569925 Si02
#       7
#    16   8  16  16  16   8  16
#     4  10  21  37  58  90 129 172 210 251 313 390
#     4  11  26  48  67  88 120 165 223 276 328 380
#     4  11  24  41  62  95 133 169 218 272 320 383
#     4  10  21  39  64  99 128 159 206 263 321 390
#     4  11  24  42  67  92 125 166 213 271 327 385
#     4   9  16  30  54  82 120 165 201 233 289 374
#     4   9  23  39  70  97 130 169 212 258 328 401
#
# _framework density 20.317460000000001
#
# number of rings (size 3 to 8) (size 9 to 14) (size 15 to 20)
#    0.000    1.833    1.667    1.000    8.167    4.667 
#    0.000    0.000    0.000    0.000    0.000    0.000 
#    0.000    0.000    0.000    0.000    0.000    0.000 
#
# Total GULP energy -535439.952744 kJ/mol
# GULP energy per Si atom -5577.499508 kJ/mol
# Density = 2.027122 g / cm^3
# Si number density = 20.317460 Si / 1000 Ang^3
#
#
#
# Elastic Constant Matrix: (Units=GPa)
#
#
# Indices 1 2 3 4 5 6 
#
# 1 80.0923 52.5127 36.5484 0.0000 0.0000 0.0000
# 2 52.5127 80.0945 36.5491 0.0000 0.0000 0.0000
# 3 36.5484 36.5491 122.3389 0.0000 0.0000 0.0000
# 4 0.0000 0.0000 0.0000 10.3563 0.0000 0.0000
# 5 0.0000 0.0000 0.0000 0.0000 10.3569 0.0000
# 6 0.0000 0.0000 0.0000 0.0000 0.0000 28.8950
#
#
#
# Elastic Compliance Matrix: (Units=1/GPa)
#
#
# Indices 1 2 3 4 5 6 
#
# 1 0.022643 -0.013615 -0.002697 0.000000 0.000000 0.000000
# 2 -0.013615 0.022642 -0.002697 0.000000 0.000000 0.000000
# 3 -0.002697 -0.002697 0.009786 0.000000 0.000000 0.000000
# 4 0.000000 0.000000 0.000000 0.096559 0.000000 0.000000
# 5 0.000000 0.000000 0.000000 0.000000 0.096554 0.000000
# 6 0.000000 0.000000 0.000000 0.000000 0.000000 0.034608
#
#
# Mechanical properties :
#
#
# Convention : Reuss Voigt Hill
#
# Bulk Modulus (GPa) = 58.64089 59.30511 58.97300
# Shear Modulus (GPa) = 15.31422 20.38268 17.84845
#
# Velocity S-wave (km/s) = 2.74842 3.17079 2.96713
# Velocity P-wave (km/s) = 6.24474 6.53129 6.38962
#
# Compressibility (1/GPa) = 0.01705295
#
# Stress axis : x y z
#
# Youngs Moduli (GPa) = 44.16407 44.16527 102.19189
#
# Poissons Ratio (x) = 0.60130 0.27562
# Poissons Ratio (y) = 0.60128 0.27562
# Poissons Ratio (z) = 0.11911 0.11912
#
# Static dielectric constant tensor:
#      x y z
#    x 1.885400 0.000000 0.000000 
#    y 0.000000 1.885400 0.000000 
#    z 0.000000 0.000000 1.720050 
# 
# From -- ./inp_files/7538.got.cif
#   From: 2010.05.17/outbox.ucp.g08.bks.cvg/sg136_4_cif.got.tgz:7538.got - 2010.06.11 11:40:42.
