data_PCOD9569486
_publ_section_title
;
Structure prediction by ZEFSAII (Michael W. Deem and Ramdas Pophale) SiO2 
 PCOD9569486
Probable space group: P 42/M N M
;
_chemical_formula_sum "Si O2"
_cell_formula_units_Z 112
_cell_length_a 13.989313
_cell_length_b 13.989313
_cell_length_c 32.106000
_cell_angle_alpha 90.000000
_cell_angle_beta 90.000000
_cell_angle_gamma 90.000000
_cell_volume 6283.172396
_symmetry_space_group_name_H-M "P 42/M N M"
_symmetry_group_IT_number 136
_symmetry_cell_setting 'tetragonal'
loop_
_space_group_symop_operation_xyz
x,y,z
1/2-y,1/2+x,1/2+z
-x,-y,z
1/2+y,1/2-x,1/2+z
1/2+x,1/2-y,1/2-z
1/2-x,1/2+y,1/2-z
y,x,-z
-y,-x,-z
-x,-y,-z
1/2+y,1/2-x,1/2-z
x,y,-z
1/2-y,1/2+x,1/2-z
1/2-x,1/2+y,1/2+z
1/2+x,1/2-y,1/2+z
-y,-x,z
y,x,z
loop_
_atom_site_type_symbol
_atom_site_label
_atom_site_fract_x
_atom_site_fract_y
_atom_site_fract_z
Si Si1 0.462920 0.898938 0.047429
Si Si2 0.399459 0.879662 0.743336
Si Si3 0.109196 0.732389 0.336604
Si Si4 0.540105 0.303967 0.547703
Si Si5 0.799561 0.650225 0.068176
Si Si6 0.123818 0.717551 0.898159
Si Si7 0.618838 0.224591 0.826825
O O1 0.546974 0.822547 0.050428
O O2 0.370580 0.865508 0.070979
O O3 0.500000 0.000000 0.065975
O O4 0.437119 0.918999 0.000000
O O5 0.514173 0.876763 0.738890
O O6 0.341216 0.867483 0.700701
O O7 0.373488 0.803345 0.778497
O O8 0.168810 0.831191 0.329906
O O9 0.142242 0.693603 0.381667
O O10 0.993320 0.739774 0.337328
O O11 0.500386 0.303820 0.500000
O O12 0.596131 0.403870 0.553970
O O13 0.620649 0.221696 0.550491
O O14 0.467288 0.276049 0.584431
O O15 0.697674 0.697674 0.058315
O O16 0.210070 0.789931 0.901642
O O17 0.137400 0.666840 0.853200
O O18 0.681074 0.318927 0.835559
#
# Coordination Sequence:
#
# PCOD9569486 Si02
#       7
#    16  16  16  16  16  16  16
#     4  11  21  34  55  80 105 140 185 230 272 320
#     4   9  19  33  55  85 112 136 168 217 274 328
#     4  10  20  35  56  81 108 142 183 225 271 322
#     4  10  21  37  57  82 111 144 184 228 279 340
#     4  10  20  34  54  81 109 139 179 228 277 323
#     4  11  23  37  55  80 112 149 184 223 276 332
#     4  10  21  37  55  78 109 145 182 223 269 322
#
# _framework density 17.825389999999999
#
# number of rings (size 3 to 8) (size 9 to 14) (size 15 to 20)
#    0.000    1.857    2.857    1.286    2.000    2.571 
#    0.000    0.714    0.000    0.429    0.000    3.000 
#    0.000    0.000    0.000    0.000    0.000    0.000 
#
# Total GULP energy -624138.996328 kJ/mol
# GULP energy per Si atom -5572.669610 kJ/mol
# Density = 1.778482 g / cm^3
# Si number density = 17.825390 Si / 1000 Ang^3
#
#
#
# Elastic Constant Matrix: (Units=GPa)
#
#
# Indices 1 2 3 4 5 6 
#
# 1 58.2465 20.8379 15.7454 0.0000 0.0000 0.0000
# 2 20.8379 58.2465 15.7454 0.0000 0.0000 0.0000
# 3 15.7454 15.7454 60.1742 0.0000 0.0000 0.0000
# 4 0.0000 0.0000 0.0000 33.1656 0.0000 0.0000
# 5 0.0000 0.0000 0.0000 0.0000 33.1656 0.0000
# 6 0.0000 0.0000 0.0000 0.0000 0.0000 16.3506
#
#
#
# Elastic Compliance Matrix: (Units=1/GPa)
#
#
# Indices 1 2 3 4 5 6 
#
# 1 0.020424 -0.006308 -0.003694 0.000000 0.000000 0.000000
# 2 -0.006308 0.020424 -0.003694 0.000000 0.000000 0.000000
# 3 -0.003694 -0.003694 0.018551 0.000000 0.000000 0.000000
# 4 0.000000 0.000000 0.000000 0.030152 0.000000 0.000000
# 5 0.000000 0.000000 0.000000 0.000000 0.030152 0.000000
# 6 0.000000 0.000000 0.000000 0.000000 0.000000 0.061160
#
#
# Mechanical properties :
#
#
# Convention : Reuss Voigt Hill
#
# Bulk Modulus (GPa) = 31.24199 31.25830 31.25014
# Shear Modulus (GPa) = 22.83919 24.82556 23.83238
#
# Velocity S-wave (km/s) = 3.58337 3.73595 3.66046
# Velocity P-wave (km/s) = 5.88944 6.01528 5.95269
#
# Compressibility (1/GPa) = 0.03200821
#
# Stress axis : x y z
#
# Youngs Moduli (GPa) = 48.96285 48.96285 53.90449
#
# Poissons Ratio (x) = 0.30887 0.19910
# Poissons Ratio (y) = 0.30887 0.19910
# Poissons Ratio (z) = 0.18084 0.18084
#
# Static dielectric constant tensor:
#      x y z
#    x 1.615330 0.000000 0.000000 
#    y 0.000000 1.615330 0.000000 
#    z 0.000000 0.000000 1.614220 
# 
# From -- ./inp_files/9936.got.cif
#   From: 2010.05.17/outbox.cif.g08.bks.cpg/sg136_5_cif.got.tgz:9936.got - 2010.05.20 12:54:53.
