data_PCOD9569608
_publ_section_title
;
Structure prediction by ZEFSAII (Michael W. Deem and Ramdas Pophale) SiO2 
 PCOD9569608
Probable space group: P 42/M N M
;
_chemical_formula_sum "Si O2"
_cell_formula_units_Z 36
_cell_length_a 13.264302
_cell_length_b 13.264302
_cell_length_c 12.250925
_cell_angle_alpha 90.000000
_cell_angle_beta 90.000000
_cell_angle_gamma 90.000000
_cell_volume 2155.448664
_symmetry_space_group_name_H-M "P 42/M N M"
_symmetry_group_IT_number 136
_symmetry_cell_setting 'tetragonal'
loop_
_space_group_symop_operation_xyz
x,y,z
1/2-y,1/2+x,1/2+z
-x,-y,z
1/2+y,1/2-x,1/2+z
1/2+x,1/2-y,1/2-z
1/2-x,1/2+y,1/2-z
y,x,-z
-y,-x,-z
-x,-y,-z
1/2+y,1/2-x,1/2-z
x,y,-z
1/2-y,1/2+x,1/2-z
1/2-x,1/2+y,1/2+z
1/2+x,1/2-y,1/2+z
-y,-x,z
y,x,z
loop_
_atom_site_type_symbol
_atom_site_label
_atom_site_fract_x
_atom_site_fract_y
_atom_site_fract_z
Si Si1 0.426408 0.740278 0.500000
Si Si2 0.428433 0.849669 0.730375
Si Si3 0.781012 0.781012 0.375619
Si Si4 0.140245 0.859756 0.000000
O O1 0.326713 0.673288 0.500000
O O2 0.429846 0.807244 0.608266
O O3 0.523816 0.667751 0.500000
O O4 0.543137 0.871262 0.765892
O O5 0.370958 0.770968 0.808922
O O6 0.810892 0.810892 0.500000
O O7 0.695477 0.695477 0.398061
#
# Coordination Sequence:
#
# PCOD9569608 Si02
#       4
#     8  16   8   4
#     4  12  23  38  61  90 118 158 202 245 299 356
#     4  11  23  37  61  89 117 153 202 250 297 357
#     4  10  20  38  57  82 121 159 184 240 312 346
#     4  10  21  40  58  84 120 157 194 244 296 355
#
# _framework density 16.701858999999999
#
# number of rings (size 3 to 8) (size 9 to 14) (size 15 to 20)
#    0.667    0.444    6.667    0.333    3.111    1.778 
#    0.000    0.000    0.000    0.000    0.000    4.667 
#    0.000    0.000    0.000    0.000    0.000    0.000 
#
# Total GULP energy -200802.397068 kJ/mol
# GULP energy per Si atom -5577.844363 kJ/mol
# Density = 1.666385 g / cm^3
# Si number density = 16.701859 Si / 1000 Ang^3
#
#
#
# Elastic Constant Matrix: (Units=GPa)
#
#
# Indices 1 2 3 4 5 6 
#
# 1 95.6461 70.0122 81.8163 0.0000 0.0000 0.0000
# 2 70.0122 95.6450 81.8144 0.0000 0.0000 0.0000
# 3 81.8163 81.8144 163.1715 0.0000 0.0000 0.0000
# 4 0.0000 0.0000 0.0000 10.7429 0.0000 0.0000
# 5 0.0000 0.0000 0.0000 0.0000 10.7313 0.0000
# 6 0.0000 0.0000 0.0000 0.0000 0.0000 42.1802
#
#
#
# Elastic Compliance Matrix: (Units=1/GPa)
#
#
# Indices 1 2 3 4 5 6 
#
# 1 0.025486 -0.013526 -0.005997 0.000000 0.000000 0.000000
# 2 -0.013526 0.025486 -0.005997 0.000000 0.000000 0.000000
# 3 -0.005997 -0.005997 0.012142 0.000000 0.000000 0.000000
# 4 0.000000 0.000000 0.000000 0.093084 0.000000 0.000000
# 5 0.000000 0.000000 0.000000 0.000000 0.093186 0.000000
# 6 0.000000 0.000000 0.000000 0.000000 0.000000 0.023708
#
#
# Mechanical properties :
#
#
# Convention : Reuss Voigt Hill
#
# Bulk Modulus (GPa) = 82.81641 91.30539 87.06090
# Shear Modulus (GPa) = 15.23667 20.78552 18.01109
#
# Velocity S-wave (km/s) = 3.02366 3.53158 3.28745
# Velocity P-wave (km/s) = 7.86656 8.45079 8.16391
#
# Compressibility (1/GPa) = 0.01207490
#
# Stress axis : x y z
#
# Youngs Moduli (GPa) = 39.23717 39.23771 82.35721
#
# Poissons Ratio (x) = 0.53072 0.49391
# Poissons Ratio (y) = 0.53072 0.49386
# Poissons Ratio (z) = 0.23531 0.23529
#
# Static dielectric constant tensor:
#      x y z
#    x 1.544290 0.000000 0.000000 
#    y 0.000000 1.544290 0.000000 
#    z 0.000000 0.000000 1.546800 
# 
# From -- ./inp_files/2733.got.cif
#   From: 2010.05.17/outbox.cif.g08.bks.cpg/sg136_2_cif.got.tgz:2733.got - 2010.05.20 12:54:53.
