data_PCOD9569511
_publ_section_title
;
Structure prediction by ZEFSAII (Michael W. Deem and Ramdas Pophale) SiO2 
 PCOD9569511
Probable space group: P 42/M N M
;
_chemical_formula_sum "Si O2"
_cell_formula_units_Z 96
_cell_length_a 25.107128
_cell_length_b 25.107128
_cell_length_c 7.524591
_cell_angle_alpha 90.000000
_cell_angle_beta 90.000000
_cell_angle_gamma 90.000000
_cell_volume 4743.260450
_symmetry_space_group_name_H-M "P 42/M N M"
_symmetry_group_IT_number 136
_symmetry_cell_setting 'tetragonal'
loop_
_space_group_symop_operation_xyz
x,y,z
1/2-y,1/2+x,1/2+z
-x,-y,z
1/2+y,1/2-x,1/2+z
1/2+x,1/2-y,1/2-z
1/2-x,1/2+y,1/2-z
y,x,-z
-y,-x,-z
-x,-y,-z
1/2+y,1/2-x,1/2-z
x,y,-z
1/2-y,1/2+x,1/2-z
1/2-x,1/2+y,1/2+z
1/2+x,1/2-y,1/2+z
-y,-x,z
y,x,z
loop_
_atom_site_type_symbol
_atom_site_label
_atom_site_fract_x
_atom_site_fract_y
_atom_site_fract_z
Si Si1 0.147783 0.647735 0.781880
Si Si2 0.852207 0.232109 0.210584
Si Si3 0.060474 0.855249 0.714540
Si Si4 0.437807 0.062024 0.290967
Si Si5 0.353964 0.730635 0.783626
Si Si6 0.643968 0.440248 0.783145
O O1 0.137563 0.708504 0.722399
O O2 0.104794 0.604434 0.716362
O O3 0.208873 0.637629 0.727058
O O4 0.146468 0.646664 0.000000
O O5 0.801689 0.198312 0.283225
O O6 0.903480 0.195079 0.236100
O O7 0.842416 0.237704 0.000000
O O8 0.058725 0.857211 0.500000
O O9 0.092726 0.907275 0.776244
O O10 0.000398 0.852292 0.780326
O O11 0.499876 0.073186 0.249607
O O12 0.433302 0.066706 0.500000
O O13 0.299232 0.700769 0.728519
O O14 0.402488 0.692688 0.728128
O O15 0.352862 0.731083 0.000000
O O16 0.590000 0.410001 0.730671
O O17 0.644878 0.441035 0.000000
#
# Coordination Sequence:
#
# PCOD9569511 Si02
#       6
#    16  16  16  16  16  16
#     4   9  17  28  45  68  89 114 148 183 221 268
#     4   9  17  30  47  66  90 118 147 181 222 266
#     4   9  17  28  42  63  92 122 150 182 220 260
#     4  10  20  35  52  69  93 121 151 187 227 270
#     4   8  13  23  40  63  91 117 144 184 228 264
#     4   8  14  24  39  61  88 117 148 183 221 257
#
# _framework density 20.239242999999998
#
# number of rings (size 3 to 8) (size 9 to 14) (size 15 to 20)
#    0.000    3.167    0.000    2.500    0.000    3.667 
#    0.000    5.000    0.000    0.500    0.000    3.500 
#    0.000    4.000    0.000    0.000    0.000    0.000 
#
# Total GULP energy -535238.923532 kJ/mol
# GULP energy per Si atom -5575.405453 kJ/mol
# Density = 2.019318 g / cm^3
# Si number density = 20.239243 Si / 1000 Ang^3
#
#
#
# Elastic Constant Matrix: (Units=GPa)
#
#
# Indices 1 2 3 4 5 6 
#
# 1 188.3923 130.6311 5.3656 0.0000 0.0000 0.0000
# 2 130.6311 188.3923 5.3656 0.0000 0.0000 0.0000
# 3 5.3656 5.3656 50.8584 0.0000 0.0000 0.0000
# 4 0.0000 0.0000 0.0000 7.8943 0.0000 0.0000
# 5 0.0000 0.0000 0.0000 0.0000 7.8943 0.0000
# 6 0.0000 0.0000 0.0000 0.0000 0.0000 23.8032
#
#
#
# Elastic Compliance Matrix: (Units=1/GPa)
#
#
# Indices 1 2 3 4 5 6 
#
# 1 0.010229 -0.007083 -0.000332 0.000000 0.000000 0.000000
# 2 -0.007083 0.010229 -0.000332 0.000000 0.000000 0.000000
# 3 -0.000332 -0.000332 0.019732 0.000000 0.000000 0.000000
# 4 0.000000 0.000000 0.000000 0.126674 0.000000 0.000000
# 5 0.000000 0.000000 0.000000 0.000000 0.126674 0.000000
# 6 0.000000 0.000000 0.000000 0.000000 0.000000 0.042011
#
#
# Mechanical properties :
#
#
# Convention : Reuss Voigt Hill
#
# Bulk Modulus (GPa) = 40.49170 78.92972 59.71071
# Shear Modulus (GPa) = 13.91683 27.00374 20.46029
#
# Velocity S-wave (km/s) = 2.62509 3.65667 3.18295
# Velocity P-wave (km/s) = 5.40722 7.54396 6.56313
#
# Compressibility (1/GPa) = 0.02469642
#
# Stress axis : x y z
#
# Youngs Moduli (GPa) = 97.75947 97.75947 50.67792
#
# Poissons Ratio (x) = 0.69248 0.01682
# Poissons Ratio (y) = 0.69248 0.01682
# Poissons Ratio (z) = 0.03244 0.03244
#
# Static dielectric constant tensor:
#      x y z
#    x 1.724660 0.000000 0.000000 
#    y 0.000000 1.724660 0.000000 
#    z 0.000000 0.000000 1.776960 
# 
# From -- ./inp_files/1945.got.cif
#   From: 2010.05.17/outbox.cif.g08.bks.cpg/sg136_1_cif.got.tgz:1945.got - 2010.05.20 12:54:53.
