data_PCOD9569847
_publ_section_title
;
Structure prediction by ZEFSAII (Michael W. Deem and Ramdas Pophale) SiO2 
 PCOD9569847
Probable space group: P 42/M N M
;
_chemical_formula_sum "Si O2"
_cell_formula_units_Z 96
_cell_length_a 14.603627
_cell_length_b 14.603627
_cell_length_c 20.909405
_cell_angle_alpha 90.000000
_cell_angle_beta 90.000000
_cell_angle_gamma 90.000000
_cell_volume 4459.263526
_symmetry_space_group_name_H-M "P 42/M N M"
_symmetry_group_IT_number 136
_symmetry_cell_setting 'tetragonal'
loop_
_space_group_symop_operation_xyz
x,y,z
1/2-y,1/2+x,1/2+z
-x,-y,z
1/2+y,1/2-x,1/2+z
1/2+x,1/2-y,1/2-z
1/2-x,1/2+y,1/2-z
y,x,-z
-y,-x,-z
-x,-y,-z
1/2+y,1/2-x,1/2-z
x,y,-z
1/2-y,1/2+x,1/2-z
1/2-x,1/2+y,1/2+z
1/2+x,1/2-y,1/2+z
-y,-x,z
y,x,z
loop_
_atom_site_type_symbol
_atom_site_label
_atom_site_fract_x
_atom_site_fract_y
_atom_site_fract_z
Si Si1 0.143148 0.000077 0.138165
Si Si2 0.916807 0.228656 0.398377
Si Si3 0.907636 0.554789 0.666987
Si Si4 0.118454 0.271635 0.427304
Si Si5 0.748212 0.106185 0.750585
Si Si6 0.690065 0.916011 0.072688
O O1 0.081907 0.918094 0.107947
O O2 0.199198 0.953255 0.195729
O O3 0.205265 0.057604 0.089100
O O4 0.072333 0.072333 0.167253
O O5 0.861931 0.138070 0.415042
O O6 0.925846 0.235011 0.321315
O O7 0.851395 0.314287 0.418224
O O8 0.017423 0.228025 0.427410
O O9 0.898124 0.643361 0.620401
O O10 0.856613 0.591104 0.730218
O O11 0.857622 0.477930 0.625208
O O12 0.000000 0.500000 0.679550
O O13 0.139786 0.302909 0.500000
O O14 0.198851 0.198851 0.408963
O O15 0.791644 0.208357 0.754949
O O16 0.669488 0.942729 0.000000
#
# Coordination Sequence:
#
# PCOD9569847 Si02
#       6
#    16  16  16  16  16  16
#     4   9  19  37  61  90 123 162 208 258 317 385
#     4  11  24  42  63  92 129 171 218 267 324 387
#     4  11  22  41  67  93 126 164 215 269 330 388
#     4  11  25  44  65  93 130 175 223 270 323 385
#     4   9  21  41  62  92 130 167 208 262 324 388
#     4  11  23  39  61  91 128 167 209 260 321 386
#
# _framework density 21.528219
#
# number of rings (size 3 to 8) (size 9 to 14) (size 15 to 20)
#    0.000    1.667    1.667    2.000    0.000    7.667 
#    3.000    3.333    0.000    0.000    0.000    0.000 
#    0.000    0.000    0.000    0.000    0.000    0.000 
#
# Total GULP energy -535216.604896 kJ/mol
# GULP energy per Si atom -5575.172968 kJ/mol
# Density = 2.147922 g / cm^3
# Si number density = 21.528219 Si / 1000 Ang^3
#
#
#
# Elastic Constant Matrix: (Units=GPa)
#
#
# Indices 1 2 3 4 5 6 
#
# 1 93.9981 18.0284 1.0775 0.0000 0.0000 0.0000
# 2 18.0284 93.9981 1.0775 0.0000 0.0000 0.0000
# 3 1.0775 1.0775 58.7569 0.0000 0.0000 0.0000
# 4 0.0000 0.0000 0.0000 17.1633 0.0000 0.0000
# 5 0.0000 0.0000 0.0000 0.0000 17.1633 0.0000
# 6 0.0000 0.0000 0.0000 0.0000 0.0000 21.1903
#
#
#
# Elastic Compliance Matrix: (Units=1/GPa)
#
#
# Indices 1 2 3 4 5 6 
#
# 1 0.011046 -0.002117 -0.000164 0.000000 0.000000 0.000000
# 2 -0.002117 0.011046 -0.000164 0.000000 0.000000 0.000000
# 3 -0.000164 -0.000164 0.017025 0.000000 0.000000 0.000000
# 4 0.000000 0.000000 0.000000 0.058264 0.000000 0.000000
# 5 0.000000 0.000000 0.000000 0.000000 0.058264 0.000000
# 6 0.000000 0.000000 0.000000 0.000000 0.000000 0.047191
#
#
# Mechanical properties :
#
#
# Convention : Reuss Voigt Hill
#
# Bulk Modulus (GPa) = 29.21458 31.90221 30.55839
# Shear Modulus (GPa) = 22.81690 26.20800 24.51245
#
# Velocity S-wave (km/s) = 3.25908 3.49288 3.37800
# Velocity P-wave (km/s) = 5.26896 5.57834 5.42586
#
# Compressibility (1/GPa) = 0.03422948
#
# Stress axis : x y z
#
# Youngs Moduli (GPa) = 90.52738 90.52738 58.73621
#
# Poissons Ratio (x) = 0.19163 0.00962
# Poissons Ratio (y) = 0.19163 0.00962
# Poissons Ratio (z) = 0.01482 0.01482
#
# Static dielectric constant tensor:
#      x y z
#    x 1.852750 0.000000 0.000000 
#    y 0.000000 1.852750 0.000000 
#    z 0.000000 0.000000 1.793030 
# 
# From -- ./inp_files/7478.got.cif
#   From: 2010.05.17/outbox.cif.g08.bks.cpg/sg136_4_cif.got.tgz:7478.got - 2010.05.20 12:54:53.
