data_PCOD9569622
_publ_section_title
;
Structure prediction by ZEFSAII (Michael W. Deem and Ramdas Pophale) SiO2 
 PCOD9569622
Probable space group: P 42/M N M
;
_chemical_formula_sum "Si O2"
_cell_formula_units_Z 96
_cell_length_a 24.175812
_cell_length_b 24.175812
_cell_length_c 8.287996
_cell_angle_alpha 90.000000
_cell_angle_beta 90.000000
_cell_angle_gamma 90.000000
_cell_volume 4844.084076
_symmetry_space_group_name_H-M "P 42/M N M"
_symmetry_group_IT_number 136
_symmetry_cell_setting 'tetragonal'
loop_
_space_group_symop_operation_xyz
x,y,z
1/2-y,1/2+x,1/2+z
-x,-y,z
1/2+y,1/2-x,1/2+z
1/2+x,1/2-y,1/2-z
1/2-x,1/2+y,1/2-z
y,x,-z
-y,-x,-z
-x,-y,-z
1/2+y,1/2-x,1/2-z
x,y,-z
1/2-y,1/2+x,1/2-z
1/2-x,1/2+y,1/2+z
1/2+x,1/2-y,1/2+z
-y,-x,z
y,x,z
loop_
_atom_site_type_symbol
_atom_site_label
_atom_site_fract_x
_atom_site_fract_y
_atom_site_fract_z
Si Si1 0.744732 0.744732 0.693198
Si Si2 0.345792 0.345792 0.696975
Si Si3 0.919473 0.639997 0.691212
Si Si4 0.152988 0.067517 0.688392
Si Si5 0.712017 0.542417 0.306882
Si Si6 0.634250 0.247654 0.314181
Si Si7 0.340806 0.962543 0.195444
O O1 0.747105 0.747105 0.500000
O O2 0.699775 0.699775 0.739915
O O3 0.730452 0.804783 0.761012
O O4 0.348543 0.348543 0.500000
O O5 0.404822 0.322792 0.754288
O O6 0.912791 0.650298 0.500000
O O7 0.904658 0.695443 0.786944
O O8 0.876949 0.591444 0.736582
O O9 0.983509 0.629992 0.730731
O O10 0.144698 0.055814 0.500000
O O11 0.097139 0.097139 0.752394
O O12 0.201674 0.112433 0.709170
O O13 0.177704 0.012874 0.769350
O O14 0.716263 0.547782 0.500000
O O15 0.776230 0.540785 0.249172
O O16 0.633711 0.265085 0.500000
O O17 0.340682 0.967258 0.000000
#
# Coordination Sequence:
#
# PCOD9569622 Si02
#       7
#     8   8  16  16  16  16  16
#     4  11  21  37  61  90 124 160 199 250 310 376
#     4   9  20  39  64  92 123 164 205 245 306 372
#     4  11  23  39  60  85 117 161 207 253 310 368
#     4  11  23  39  61  89 121 158 200 247 306 367
#     4  10  20  39  65  90 121 160 203 253 304 365
#     4  12  23  36  57  87 122 156 197 252 309 366
#     4  10  22  39  59  86 120 159 206 258 307 361
#
# _framework density 19.817986999999999
#
# number of rings (size 3 to 8) (size 9 to 14) (size 15 to 20)
#    0.000    1.333    2.500    3.750    0.000    5.333 
#    0.000    5.833    0.000    2.500    0.000    0.000 
#    0.000    0.000    0.000    0.000    0.000    0.000 
#
# Total GULP energy -536205.614452 kJ/mol
# GULP energy per Si atom -5585.475151 kJ/mol
# Density = 1.977288 g / cm^3
# Si number density = 19.817987 Si / 1000 Ang^3
#
#
#
# Elastic Constant Matrix: (Units=GPa)
#
#
# Indices 1 2 3 4 5 6 
#
# 1 116.8436 40.3061 1.1034 0.0000 0.0000 0.0000
# 2 40.3061 116.8436 1.1034 0.0000 0.0000 0.0000
# 3 1.1034 1.1034 20.0564 0.0000 0.0000 0.0000
# 4 0.0000 0.0000 0.0000 24.4101 0.0000 0.0000
# 5 0.0000 0.0000 0.0000 0.0000 24.4101 0.0000
# 6 0.0000 0.0000 0.0000 0.0000 0.0000 33.1502
#
#
#
# Elastic Compliance Matrix: (Units=1/GPa)
#
#
# Indices 1 2 3 4 5 6 
#
# 1 0.009717 -0.003349 -0.000350 0.000000 0.000000 0.000000
# 2 -0.003349 0.009717 -0.000350 0.000000 0.000000 0.000000
# 3 -0.000350 -0.000350 0.049898 0.000000 0.000000 0.000000
# 4 0.000000 0.000000 0.000000 0.040967 0.000000 0.000000
# 5 0.000000 0.000000 0.000000 0.000000 0.040967 0.000000
# 6 0.000000 0.000000 0.000000 0.000000 0.000000 0.030166
#
#
# Mechanical properties :
#
#
# Convention : Reuss Voigt Hill
#
# Bulk Modulus (GPa) = 16.33107 37.64105 26.98606
# Shear Modulus (GPa) = 23.81630 30.47613 27.14621
#
# Velocity S-wave (km/s) = 3.47039 3.92574 3.70506
# Velocity P-wave (km/s) = 4.93118 6.29151 5.65242
#
# Compressibility (1/GPa) = 0.06123298
#
# Stress axis : x y z
#
# Youngs Moduli (GPa) = 102.91367 102.91367 20.04094
#
# Poissons Ratio (x) = 0.34462 0.00702
# Poissons Ratio (y) = 0.34462 0.00702
# Poissons Ratio (z) = 0.03606 0.03606
#
# Static dielectric constant tensor:
#      x y z
#    x 1.713670 0.000000 0.000000 
#    y 0.000000 1.713670 0.000000 
#    z 0.000000 0.000000 1.692500 
# 
# From -- ./inp_files/2087.got.cif
#   From: 2010.05.17/outbox.cif.g08.bks.cpg/sg136_2_cif.got.tgz:2087.got - 2010.05.20 12:54:53.
