data_PCOD9569489
_publ_section_title
;
Structure prediction by ZEFSAII (Michael W. Deem and Ramdas Pophale) SiO2 
 PCOD9569489
Probable space group: P 42/M N M
;
_chemical_formula_sum "Si O2"
_cell_formula_units_Z 80
_cell_length_a 11.712232
_cell_length_b 11.712232
_cell_length_c 29.040595
_cell_angle_alpha 90.000000
_cell_angle_beta 90.000000
_cell_angle_gamma 90.000000
_cell_volume 3983.683649
_symmetry_space_group_name_H-M "P 42/M N M"
_symmetry_group_IT_number 136
_symmetry_cell_setting 'tetragonal'
loop_
_space_group_symop_operation_xyz
x,y,z
1/2-y,1/2+x,1/2+z
-x,-y,z
1/2+y,1/2-x,1/2+z
1/2+x,1/2-y,1/2-z
1/2-x,1/2+y,1/2-z
y,x,-z
-y,-x,-z
-x,-y,-z
1/2+y,1/2-x,1/2-z
x,y,-z
1/2-y,1/2+x,1/2-z
1/2-x,1/2+y,1/2+z
1/2+x,1/2-y,1/2+z
-y,-x,z
y,x,z
loop_
_atom_site_type_symbol
_atom_site_label
_atom_site_fract_x
_atom_site_fract_y
_atom_site_fract_z
Si Si1 0.392435 0.088159 0.948072
Si Si2 0.589655 0.219267 0.307605
Si Si3 0.993201 0.181356 0.275799
Si Si4 0.316356 0.991904 0.638109
Si Si5 0.261750 0.924998 0.115142
O O1 0.429797 0.184708 0.911453
O O2 0.500000 0.000000 0.949163
O O3 0.290960 0.014367 0.925450
O O4 0.369872 0.126237 0.000000
O O5 0.705685 0.294316 0.308788
O O6 0.534923 0.216909 0.256950
O O7 0.610123 0.095907 0.330369
O O8 0.497769 0.278950 0.341004
O O9 0.083549 0.083549 0.264338
O O10 0.001651 0.206608 0.329808
O O11 0.868816 0.131185 0.264596
O O12 0.367360 0.117313 0.629756
O O13 0.171524 0.828477 0.102376
#
# Coordination Sequence:
#
# PCOD9569489 Si02
#       5
#    16  16  16  16  16
#     4   8  16  33  54  79 109 140 179 228 281 336
#     4  10  21  36  54  77 108 150 189 226 275 331
#     4  10  21  35  52  77 111 150 189 231 283 343
#     4  10  20  35  55  81 109 144 186 234 281 328
#     4  10  20  34  54  83 114 143 182 230 279 337
#
# _framework density 20.081917000000001
#
# number of rings (size 3 to 8) (size 9 to 14) (size 15 to 20)
#    0.000    2.400    0.000    3.600    2.800    1.600 
#    0.000    0.000    0.000   16.800    0.000    7.000 
#    0.000    0.000    0.000    1.200    0.000    0.000 
#
# Total GULP energy -445674.534293 kJ/mol
# GULP energy per Si atom -5570.931679 kJ/mol
# Density = 2.003621 g / cm^3
# Si number density = 20.081917 Si / 1000 Ang^3
#
#
#
# Elastic Constant Matrix: (Units=GPa)
#
#
# Indices 1 2 3 4 5 6 
#
# 1 45.3749 7.9521 19.6001 0.0000 0.0000 0.0000
# 2 7.9521 45.3749 19.6001 0.0000 0.0000 0.0000
# 3 19.6001 19.6001 133.0748 0.0000 0.0000 0.0000
# 4 0.0000 0.0000 0.0000 13.3042 0.0000 0.0000
# 5 0.0000 0.0000 0.0000 0.0000 13.3042 0.0000
# 6 0.0000 0.0000 0.0000 0.0000 0.0000 22.4444
#
#
#
# Elastic Compliance Matrix: (Units=1/GPa)
#
#
# Indices 1 2 3 4 5 6 
#
# 1 0.023875 -0.002846 -0.003097 0.000000 0.000000 0.000000
# 2 -0.002846 0.023875 -0.003097 0.000000 0.000000 0.000000
# 3 -0.003097 -0.003097 0.008427 0.000000 0.000000 0.000000
# 4 0.000000 0.000000 0.000000 0.075164 0.000000 0.000000
# 5 0.000000 0.000000 0.000000 0.000000 0.075164 0.000000
# 6 0.000000 0.000000 0.000000 0.000000 0.000000 0.044555
#
#
# Mechanical properties :
#
#
# Convention : Reuss Voigt Hill
#
# Bulk Modulus (GPa) = 26.24960 35.34771 30.79866
# Shear Modulus (GPa) = 17.74050 21.58871 19.66460
#
# Velocity S-wave (km/s) = 2.97544 3.28233 3.13264
# Velocity P-wave (km/s) = 4.99039 5.65728 5.33427
#
# Compressibility (1/GPa) = 0.03809581
#
# Stress axis : x y z
#
# Youngs Moduli (GPa) = 41.88417 41.88417 118.66695
#
# Poissons Ratio (x) = 0.11922 0.36755
# Poissons Ratio (y) = 0.11922 0.36755
# Poissons Ratio (z) = 0.12973 0.12973
#
# Static dielectric constant tensor:
#      x y z
#    x 1.761550 0.000000 0.000000 
#    y 0.000000 1.761550 0.000000 
#    z 0.000000 0.000000 1.731350 
# 
# From -- ./inp_files/9511.got.cif
#   From: 2010.05.17/outbox.cif.g08.bks.cpg/sg136_5_cif.got.tgz:9511.got - 2010.05.20 12:54:53.
