data_PCOD9569299
_publ_section_title
;
Structure prediction by ZEFSAII (Michael W. Deem and Ramdas Pophale) SiO2 
 PCOD9569299
Probable space group: P 42/M N M
;
_chemical_formula_sum "Si O2"
_cell_formula_units_Z 88
_cell_length_a 13.756959
_cell_length_b 13.756959
_cell_length_c 25.523429
_cell_angle_alpha 90.000000
_cell_angle_beta 90.000000
_cell_angle_gamma 90.000000
_cell_volume 4830.409014
_symmetry_space_group_name_H-M "P 42/M N M"
_symmetry_group_IT_number 136
_symmetry_cell_setting 'tetragonal'
loop_
_space_group_symop_operation_xyz
x,y,z
1/2-y,1/2+x,1/2+z
-x,-y,z
1/2+y,1/2-x,1/2+z
1/2+x,1/2-y,1/2-z
1/2-x,1/2+y,1/2-z
y,x,-z
-y,-x,-z
-x,-y,-z
1/2+y,1/2-x,1/2-z
x,y,-z
1/2-y,1/2+x,1/2-z
1/2-x,1/2+y,1/2+z
1/2+x,1/2-y,1/2+z
-y,-x,z
y,x,z
loop_
_atom_site_type_symbol
_atom_site_label
_atom_site_fract_x
_atom_site_fract_y
_atom_site_fract_z
Si Si1 0.678621 0.832827 0.559429
Si Si2 0.300254 0.856101 0.358072
Si Si3 0.085207 0.363371 0.752113
Si Si4 0.920721 0.920721 0.063520
Si Si5 0.804188 0.452323 0.438199
Si Si6 0.719381 0.435351 0.156409
O O1 0.697519 0.867910 0.500000
O O2 0.723818 0.723818 0.561860
O O3 0.564072 0.833596 0.568503
O O4 0.733521 0.892786 0.603504
O O5 0.233608 0.766393 0.373499
O O6 0.357178 0.835427 0.304219
O O7 0.380590 0.868487 0.403198
O O8 0.232425 0.949393 0.348343
O O9 0.123355 0.470475 0.735918
O O10 0.096286 0.286417 0.705561
O O11 0.809364 0.943744 0.078204
O O12 0.924230 0.924230 0.000000
O O13 0.000000 0.000000 0.082525
O O14 0.810919 0.428077 0.500000
O O15 0.613638 0.386363 0.162162
#
# Coordination Sequence:
#
# PCOD9569299 Si02
#       6
#    16  16  16   8  16  16
#     4   9  18  33  54  80 107 135 171 215 265 321
#     4  11  22  35  53  77 105 141 180 220 263 311
#     4   9  18  34  57  83 105 128 165 215 271 328
#     4   9  16  28  48  74 107 145 173 195 243 317
#     4  10  19  32  51  78 110 141 172 213 262 317
#     4  10  21  37  55  75 102 139 180 223 266 311
#
# _framework density 18.217918000000001
#
# number of rings (size 3 to 8) (size 9 to 14) (size 15 to 20)
#    0.000    2.273    0.909    2.182    0.000    5.455 
#    0.000    1.818    0.000    1.091    0.000    3.818 
#    0.000    0.000    0.000    0.000    0.000    0.000 
#
# Total GULP energy -490757.448170 kJ/mol
# GULP energy per Si atom -5576.789184 kJ/mol
# Density = 1.817645 g / cm^3
# Si number density = 18.217918 Si / 1000 Ang^3
#
#
#
# Elastic Constant Matrix: (Units=GPa)
#
#
# Indices 1 2 3 4 5 6 
#
# 1 31.3045 17.4309 18.9893 0.0000 0.0000 0.0000
# 2 17.4309 31.3045 18.9893 0.0000 0.0000 0.0000
# 3 18.9893 18.9893 62.6004 0.0000 0.0000 0.0000
# 4 0.0000 0.0000 0.0000 23.4594 0.0000 0.0000
# 5 0.0000 0.0000 0.0000 0.0000 23.4594 0.0000
# 6 0.0000 0.0000 0.0000 0.0000 0.0000 25.5670
#
#
#
# Elastic Compliance Matrix: (Units=1/GPa)
#
#
# Indices 1 2 3 4 5 6 
#
# 1 0.049475 -0.022604 -0.008151 0.000000 0.000000 0.000000
# 2 -0.022604 0.049475 -0.008151 0.000000 0.000000 0.000000
# 3 -0.008151 -0.008151 0.020919 0.000000 0.000000 0.000000
# 4 0.000000 0.000000 0.000000 0.042627 0.000000 0.000000
# 5 0.000000 0.000000 0.000000 0.000000 0.042627 0.000000
# 6 0.000000 0.000000 0.000000 0.000000 0.000000 0.039113
#
#
# Mechanical properties :
#
#
# Convention : Reuss Voigt Hill
#
# Bulk Modulus (GPa) = 23.77720 26.22535 25.00128
# Shear Modulus (GPa) = 14.87793 19.15048 17.01420
#
# Velocity S-wave (km/s) = 2.86083 3.24572 3.05934
# Velocity P-wave (km/s) = 4.89820 5.33600 5.12178
#
# Compressibility (1/GPa) = 0.04205710
#
# Stress axis : x y z
#
# Youngs Moduli (GPa) = 20.21214 20.21214 47.80245
#
# Poissons Ratio (x) = 0.45688 0.38964
# Poissons Ratio (y) = 0.45688 0.38964
# Poissons Ratio (z) = 0.16475 0.16475
#
# Static dielectric constant tensor:
#      x y z
#    x 1.627320 0.000000 0.000000 
#    y 0.000000 1.627320 0.000000 
#    z 0.000000 0.000000 1.604450 
# 
# From -- ./inp_files/7388.got.cif
#   From: 2010.05.17/outbox.cif.g08.bks.cpg/sg136_4_cif.got.tgz:7388.got - 2010.05.20 12:54:53.
