data_PCOD9569170
_publ_section_title
;
Structure prediction by ZEFSAII (Michael W. Deem and Ramdas Pophale) SiO2 
 PCOD9569170
Probable space group: P 42/M N M
;
_chemical_formula_sum "Si O2"
_cell_formula_units_Z 96
_cell_length_a 16.076078
_cell_length_b 16.076078
_cell_length_c 19.660865
_cell_angle_alpha 90.000000
_cell_angle_beta 90.000000
_cell_angle_gamma 90.000000
_cell_volume 5081.159532
_symmetry_space_group_name_H-M "P 42/M N M"
_symmetry_group_IT_number 136
_symmetry_cell_setting 'tetragonal'
loop_
_space_group_symop_operation_xyz
x,y,z
1/2-y,1/2+x,1/2+z
-x,-y,z
1/2+y,1/2-x,1/2+z
1/2+x,1/2-y,1/2-z
1/2-x,1/2+y,1/2-z
y,x,-z
-y,-x,-z
-x,-y,-z
1/2+y,1/2-x,1/2-z
x,y,-z
1/2-y,1/2+x,1/2-z
1/2-x,1/2+y,1/2+z
1/2+x,1/2-y,1/2+z
-y,-x,z
y,x,z
loop_
_atom_site_type_symbol
_atom_site_label
_atom_site_fract_x
_atom_site_fract_y
_atom_site_fract_z
Si Si1 0.164978 0.027475 0.424976
Si Si2 0.093437 0.225946 0.187250
Si Si3 0.505548 0.637724 0.420682
Si Si4 0.668946 0.192430 0.074473
Si Si5 0.040399 0.829094 0.282386
Si Si6 0.835310 0.305745 0.224189
O O1 0.164145 0.989494 0.500000
O O2 0.080409 0.080409 0.415967
O O3 0.239304 0.095113 0.423064
O O4 0.175361 0.965769 0.363123
O O5 0.175612 0.175612 0.164824
O O6 0.026847 0.212251 0.126702
O O7 0.122714 0.311996 0.221210
O O8 0.049658 0.178603 0.249916
O O9 0.512042 0.660671 0.500000
O O10 0.434905 0.565096 0.415639
O O11 0.592271 0.592271 0.400559
O O12 0.754564 0.245437 0.073265
O O13 0.665751 0.146362 0.146968
O O14 0.663157 0.149412 0.000000
O O15 0.086315 0.913686 0.262490
O O16 0.093570 0.753030 0.253198
O O17 0.752031 0.247970 0.219501
#
# Coordination Sequence:
#
# PCOD9569170 Si02
#       6
#    16  16  16  16  16  16
#     4   9  17  30  49  73 101 135 170 201 244 305
#     4  10  18  31  49  66  91 130 165 196 247 309
#     4   8  14  25  42  65  90 116 152 195 234 282
#     4   8  13  26  49  70  89 122 166 203 241 292
#     4  11  21  30  45  73 103 128 161 208 253 294
#     4   9  18  31  45  67  98 129 163 205 248 298
#
# _framework density 18.893324
#
# number of rings (size 3 to 8) (size 9 to 14) (size 15 to 20)
#    0.000    2.833    1.667    2.500    0.000    2.333 
#    0.000    2.500    0.000    6.500    0.000    0.000 
#    0.000    2.667    0.000    0.000    0.000    0.000 
#
# Total GULP energy -534655.019131 kJ/mol
# GULP energy per Si atom -5569.323116 kJ/mol
# Density = 1.885032 g / cm^3
# Si number density = 18.893324 Si / 1000 Ang^3
#
#
#
# Elastic Constant Matrix: (Units=GPa)
#
#
# Indices 1 2 3 4 5 6 
#
# 1 32.2033 7.9941 18.8701 0.0000 0.0000 0.0000
# 2 7.9941 32.2033 18.8701 0.0000 0.0000 0.0000
# 3 18.8701 18.8701 154.3327 0.0000 0.0000 0.0000
# 4 0.0000 0.0000 0.0000 17.7845 0.0000 0.0000
# 5 0.0000 0.0000 0.0000 0.0000 17.7845 0.0000
# 6 0.0000 0.0000 0.0000 0.0000 0.0000 16.7010
#
#
#
# Elastic Compliance Matrix: (Units=1/GPa)
#
#
# Indices 1 2 3 4 5 6 
#
# 1 0.034705 -0.006602 -0.003436 0.000000 0.000000 0.000000
# 2 -0.006602 0.034705 -0.003436 0.000000 0.000000 0.000000
# 3 -0.003436 -0.003436 0.007320 0.000000 0.000000 0.000000
# 4 0.000000 0.000000 0.000000 0.056229 0.000000 0.000000
# 5 0.000000 0.000000 0.000000 0.000000 0.056229 0.000000
# 6 0.000000 0.000000 0.000000 0.000000 0.000000 0.059877
#
#
# Mechanical properties :
#
#
# Convention : Reuss Voigt Hill
#
# Bulk Modulus (GPa) = 20.08767 34.46755 27.27761
# Shear Modulus (GPa) = 17.08784 21.98766 19.53775
#
# Velocity S-wave (km/s) = 3.01065 3.41512 3.21924
# Velocity P-wave (km/s) = 4.76871 5.81667 5.31856
#
# Compressibility (1/GPa) = 0.04978177
#
# Stress axis : x y z
#
# Youngs Moduli (GPa) = 28.81436 28.81436 136.61605
#
# Poissons Ratio (x) = 0.19022 0.46944
# Poissons Ratio (y) = 0.19022 0.46944
# Poissons Ratio (z) = 0.09901 0.09901
#
# Static dielectric constant tensor:
#      x y z
#    x 1.658230 0.000000 0.000000 
#    y 0.000000 1.658230 0.000000 
#    z 0.000000 0.000000 1.712980 
# 
# From -- ./inp_files/7477.got.cif
#   From: 2010.05.17/outbox.cif.g08.bks.cpg/sg136_4_cif.got.tgz:7477.got - 2010.05.20 12:54:53.
