data_PCOD9569541
_publ_section_title
;
Structure prediction by ZEFSAII (Michael W. Deem and Ramdas Pophale) SiO2 
 PCOD9569541
Probable space group: P 42/M N M
;
_chemical_formula_sum "Si O2"
_cell_formula_units_Z 64
_cell_length_a 18.001471
_cell_length_b 18.001471
_cell_length_c 7.565074
_cell_angle_alpha 90.000000
_cell_angle_beta 90.000000
_cell_angle_gamma 90.000000
_cell_volume 2451.484608
_symmetry_space_group_name_H-M "P 42/M N M"
_symmetry_group_IT_number 136
_symmetry_cell_setting 'tetragonal'
loop_
_space_group_symop_operation_xyz
x,y,z
1/2-y,1/2+x,1/2+z
-x,-y,z
1/2+y,1/2-x,1/2+z
1/2+x,1/2-y,1/2-z
1/2-x,1/2+y,1/2-z
y,x,-z
-y,-x,-z
-x,-y,-z
1/2+y,1/2-x,1/2-z
x,y,-z
1/2-y,1/2+x,1/2-z
1/2-x,1/2+y,1/2+z
1/2+x,1/2-y,1/2+z
-y,-x,z
y,x,z
loop_
_atom_site_type_symbol
_atom_site_label
_atom_site_fract_x
_atom_site_fract_y
_atom_site_fract_z
Si Si1 0.386785 0.955479 0.707646
Si Si2 0.117354 0.994608 0.284692
Si Si3 0.730381 0.395002 0.200940
Si Si4 0.656795 0.774062 0.798698
O O1 0.373572 0.960553 0.500000
O O2 0.461995 0.907122 0.730609
O O3 0.314489 0.914377 0.785712
O O4 0.120137 0.995011 0.500000
O O5 0.085571 0.914430 0.230042
O O6 0.195417 0.028944 0.226455
O O7 0.053651 0.053651 0.232608
O O8 0.659024 0.340977 0.186592
O O9 0.788049 0.345299 0.305450
O O10 0.758639 0.406201 0.000000
O O11 0.707361 0.707361 0.720340
O O12 0.638185 0.750897 0.000000
#
# Coordination Sequence:
#
# PCOD9569541 Si02
#       4
#    16  16  16  16
#     4  10  20  35  57  83 111 142 178 223 273 326
#     4   7   9  14  26  46  73 105 144 193 244 288
#     4   8  13  21  36  60  87 117 157 202 244 289
#     4   9  18  32  50  74 105 139 171 207 259 320
#
# _framework density 26.106631
#
# number of rings (size 3 to 8) (size 9 to 14) (size 15 to 20)
#    0.000    3.500    0.000    3.750    0.000    2.000 
#    0.000    0.000    0.000    2.250    0.000   15.750 
#    0.000    0.000    0.000    0.000    0.000    0.000 
#
# Total GULP energy -356845.130884 kJ/mol
# GULP energy per Si atom -5575.705170 kJ/mol
# Density = 2.604721 g / cm^3
# Si number density = 26.106631 Si / 1000 Ang^3
#
#
#
# Elastic Constant Matrix: (Units=GPa)
#
#
# Indices 1 2 3 4 5 6 
#
# 1 90.9646 139.6975 3.5891 0.0000 0.0000 0.0000
# 2 139.6975 90.9646 3.5891 0.0000 0.0000 0.0000
# 3 3.5891 3.5891 67.3281 0.0000 0.0000 0.0000
# 4 0.0000 0.0000 0.0000 32.0330 0.0000 0.0000
# 5 0.0000 0.0000 0.0000 0.0000 32.0330 0.0000
# 6 0.0000 0.0000 0.0000 0.0000 0.0000 97.1244
#
#
#
# Elastic Compliance Matrix: (Units=1/GPa)
#
#
# Indices 1 2 3 4 5 6 
#
# 1 -0.008089 0.012431 -0.000231 0.000000 0.000000 0.000000
# 2 0.012431 -0.008089 -0.000231 0.000000 0.000000 0.000000
# 3 -0.000231 -0.000231 0.014877 0.000000 0.000000 0.000000
# 4 0.000000 0.000000 0.000000 0.031218 0.000000 0.000000
# 5 0.000000 0.000000 0.000000 0.000000 0.031218 0.000000
# 6 0.000000 0.000000 0.000000 0.000000 0.000000 0.010296
#
#
# Mechanical properties :
#
#
# Convention : Reuss Voigt Hill
#
# Bulk Modulus (GPa) = 44.17652 60.33431 52.25542
# Shear Modulus (GPa) = 90.84254 39.06354 64.95304
#
# Velocity S-wave (km/s) = 5.90527 3.87241 4.99339
# Velocity P-wave (km/s) = 7.96584 6.56924 7.30101
#
# Compressibility (1/GPa) = 0.02263646
#
# Stress axis : x y z
#
# Youngs Moduli (GPa) = -123.62850 -123.62850 67.21636
#
# Poissons Ratio (x) = 1.53686 0.01556
# Poissons Ratio (y) = 1.53686 0.01556
# Poissons Ratio (z) = -0.02862 -0.02862
#
# Static dielectric constant tensor:
#      x y z
#    x 2.207360 0.000000 0.000000 
#    y 0.000000 2.207360 0.000000 
#    z 0.000000 0.000000 2.035000 
# 
# From -- ./inp_files/1404.got.cif
#   From: 2010.05.17/outbox.cif.g08.bks.cpg/sg136_1_cif.got.tgz:1404.got - 2010.05.20 12:54:53.
