data_PCOD9569199
_publ_section_title
;
Structure prediction by ZEFSAII (Michael W. Deem and Ramdas Pophale) SiO2 
 PCOD9569199
Probable space group: P 42/M N M
;
_chemical_formula_sum "Si O2"
_cell_formula_units_Z 96
_cell_length_a 14.396079
_cell_length_b 14.396079
_cell_length_c 25.995825
_cell_angle_alpha 90.000000
_cell_angle_beta 90.000000
_cell_angle_gamma 90.000000
_cell_volume 5387.559098
_symmetry_space_group_name_H-M "P 42/M N M"
_symmetry_group_IT_number 136
_symmetry_cell_setting 'tetragonal'
loop_
_space_group_symop_operation_xyz
x,y,z
1/2-y,1/2+x,1/2+z
-x,-y,z
1/2+y,1/2-x,1/2+z
1/2+x,1/2-y,1/2-z
1/2-x,1/2+y,1/2-z
y,x,-z
-y,-x,-z
-x,-y,-z
1/2+y,1/2-x,1/2-z
x,y,-z
1/2-y,1/2+x,1/2-z
1/2-x,1/2+y,1/2+z
1/2+x,1/2-y,1/2+z
-y,-x,z
y,x,z
loop_
_atom_site_type_symbol
_atom_site_label
_atom_site_fract_x
_atom_site_fract_y
_atom_site_fract_z
Si Si1 0.551167 0.145965 0.254381
Si Si2 0.349104 0.807569 0.943287
Si Si3 0.920209 0.079792 0.212192
Si Si4 0.933471 0.773937 0.345693
Si Si5 0.787880 0.940328 0.161433
Si Si6 0.920416 0.079585 0.330873
Si Si7 0.536373 0.690508 0.440935
O O1 0.444543 0.113136 0.254861
O O2 0.564574 0.219128 0.208094
O O3 0.574456 0.192366 0.309082
O O4 0.283660 0.716341 0.944824
O O5 0.413104 0.793497 0.893749
O O6 0.276975 0.892265 0.937313
O O7 0.394161 0.815971 0.000000
O O8 0.899622 0.100379 0.271241
O O9 0.964816 0.167983 0.184718
O O10 0.000000 0.000000 0.210364
O O11 0.850767 0.850767 0.342572
O O12 0.029474 0.830364 0.353816
O O13 0.856686 0.856686 0.174998
O O14 0.791424 0.957495 0.100705
O O15 0.000000 0.000000 0.331439
O O16 0.504846 0.683350 0.500000
O O17 0.597173 0.597173 0.429738
#
# Coordination Sequence:
#
# PCOD9569199 Si02
#       7
#    16  16   8  16  16   8  16
#     4  11  24  39  52  72 105 138 173 218 259 306
#     4   8  15  28  47  73 105 138 173 212 251 301
#     4   9  16  28  47  71 105 135 158 203 253 305
#     4  10  18  33  54  78 104 134 171 213 264 313
#     4  11  20  34  53  78 107 138 174 213 259 311
#     4   9  16  28  47  73 105 133 162 209 262 312
#     4   9  17  29  48  77 110 143 176 211 257 309
#
# _framework density 17.818829000000001
#
# number of rings (size 3 to 8) (size 9 to 14) (size 15 to 20)
#    0.000    2.333    2.500    2.500    0.000    0.333 
#    6.000    1.250    0.000    3.500    0.000    4.667 
#    0.000    0.000    0.000    0.000    0.000    0.000 
#
# Total GULP energy -535123.391581 kJ/mol
# GULP energy per Si atom -5574.201996 kJ/mol
# Density = 1.777827 g / cm^3
# Si number density = 17.818829 Si / 1000 Ang^3
#
#
#
# Elastic Constant Matrix: (Units=GPa)
#
#
# Indices 1 2 3 4 5 6 
#
# 1 44.3787 19.2251 24.4492 0.0000 0.0000 0.0000
# 2 19.2251 44.3787 24.4492 0.0000 0.0000 0.0000
# 3 24.4492 24.4492 80.6600 0.0000 0.0000 0.0000
# 4 0.0000 0.0000 0.0000 20.3790 0.0000 0.0000
# 5 0.0000 0.0000 0.0000 0.0000 20.3790 0.0000
# 6 0.0000 0.0000 0.0000 0.0000 0.0000 5.9407
#
#
#
# Elastic Compliance Matrix: (Units=1/GPa)
#
#
# Indices 1 2 3 4 5 6 
#
# 1 0.030128 -0.009628 -0.006214 0.000000 0.000000 0.000000
# 2 -0.009628 0.030128 -0.006214 0.000000 0.000000 0.000000
# 3 -0.006214 -0.006214 0.016165 0.000000 0.000000 0.000000
# 4 0.000000 0.000000 0.000000 0.049070 0.000000 0.000000
# 5 0.000000 0.000000 0.000000 0.000000 0.049070 0.000000
# 6 0.000000 0.000000 0.000000 0.000000 0.000000 0.168329
#
#
# Mechanical properties :
#
#
# Convention : Reuss Voigt Hill
#
# Bulk Modulus (GPa) = 30.95136 33.96272 32.45704
# Shear Modulus (GPa) = 12.57007 16.09267 14.33137
#
# Velocity S-wave (km/s) = 2.65889 3.00847 2.83906
# Velocity P-wave (km/s) = 5.18015 5.58294 5.38531
#
# Compressibility (1/GPa) = 0.03230876
#
# Stress axis : x y z
#
# Youngs Moduli (GPa) = 33.19217 33.19217 61.86350
#
# Poissons Ratio (x) = 0.31958 0.38440
# Poissons Ratio (y) = 0.31958 0.38440
# Poissons Ratio (z) = 0.20625 0.20625
#
# Static dielectric constant tensor:
#      x y z
#    x 1.615610 0.000000 0.000000 
#    y 0.000000 1.615610 0.000000 
#    z 0.000000 0.000000 1.627920 
# 
# From -- ./inp_files/8428.got.cif
#   From: 2010.05.17/outbox.cif.g08.bks.cpg/sg136_5_cif.got.tgz:8428.got - 2010.05.20 12:54:53.
