data_PCOD9569360
_publ_section_title
;
Structure prediction by ZEFSAII (Michael W. Deem and Ramdas Pophale) SiO2 
 PCOD9569360
Probable space group: P 42/M N M
;
_chemical_formula_sum "Si O2"
_cell_formula_units_Z 96
_cell_length_a 24.471185
_cell_length_b 24.471185
_cell_length_c 7.912585
_cell_angle_alpha 90.000000
_cell_angle_beta 90.000000
_cell_angle_gamma 90.000000
_cell_volume 4738.363660
_symmetry_space_group_name_H-M "P 42/M N M"
_symmetry_group_IT_number 136
_symmetry_cell_setting 'tetragonal'
loop_
_space_group_symop_operation_xyz
x,y,z
1/2-y,1/2+x,1/2+z
-x,-y,z
1/2+y,1/2-x,1/2+z
1/2+x,1/2-y,1/2-z
1/2-x,1/2+y,1/2-z
y,x,-z
-y,-x,-z
-x,-y,-z
1/2+y,1/2-x,1/2-z
x,y,-z
1/2-y,1/2+x,1/2-z
1/2-x,1/2+y,1/2+z
1/2+x,1/2-y,1/2+z
-y,-x,z
y,x,z
loop_
_atom_site_type_symbol
_atom_site_label
_atom_site_fract_x
_atom_site_fract_y
_atom_site_fract_z
Si Si1 0.502630 0.841715 0.693085
Si Si2 0.161209 0.296661 0.700352
Si Si3 0.224384 0.984209 0.693402
Si Si4 0.271122 0.359411 0.797029
Si Si5 0.098155 0.398518 0.808318
Si Si6 0.314160 0.600352 0.793559
O O1 0.487724 0.828328 0.500000
O O2 0.498306 0.787848 0.802876
O O3 0.463564 0.890761 0.750711
O O4 0.563491 0.863892 0.698887
O O5 0.151219 0.300824 0.500000
O O6 0.222108 0.320411 0.731278
O O7 0.122550 0.338245 0.798412
O O8 0.141406 0.236051 0.751179
O O9 0.205081 0.978076 0.500000
O O10 0.194385 0.037864 0.767658
O O11 0.225222 0.922292 0.767905
O O12 0.327221 0.327221 0.764998
O O13 0.262009 0.362995 0.000000
O O14 0.100203 0.419204 0.000000
O O15 0.369836 0.630165 0.740800
O O16 0.313641 0.597639 0.000000
#
# Coordination Sequence:
#
# PCOD9569360 Si02
#       6
#    16  16  16  16  16  16
#     4  11  23  37  55  78 105 141 185 229 266 314
#     4  11  20  32  54  82 109 140 179 225 273 321
#     4  10  19  34  56  77 105 144 178 219 272 323
#     4  10  21  35  52  78 111 146 182 221 271 327
#     4  11  23  37  54  77 108 143 182 226 273 319
#     4   9  18  32  52  80 109 139 179 222 268 323
#
# _framework density 20.260159000000002
#
# number of rings (size 3 to 8) (size 9 to 14) (size 15 to 20)
#    0.000    1.667    3.333    2.000    0.000    3.333 
#    0.000    1.667    0.000    2.000    0.000    3.500 
#    0.000    0.000    0.000    3.000    0.000    3.333 
#
# Total GULP energy -535132.510723 kJ/mol
# GULP energy per Si atom -5574.296987 kJ/mol
# Density = 2.021405 g / cm^3
# Si number density = 20.260159 Si / 1000 Ang^3
#
#
#
# Elastic Constant Matrix: (Units=GPa)
#
#
# Indices 1 2 3 4 5 6 
#
# 1 42.3303 52.6875 11.9682 0.0000 0.0000 0.0000
# 2 52.6875 42.3303 11.9682 0.0000 0.0000 0.0000
# 3 11.9682 11.9682 33.1008 0.0000 0.0000 0.0000
# 4 0.0000 0.0000 0.0000 10.5336 0.0000 0.0000
# 5 0.0000 0.0000 0.0000 0.0000 10.5336 0.0000
# 6 0.0000 0.0000 0.0000 0.0000 0.0000 33.0956
#
#
#
# Elastic Compliance Matrix: (Units=1/GPa)
#
#
# Indices 1 2 3 4 5 6 
#
# 1 -0.042486 0.054065 -0.004187 0.000000 0.000000 0.000000
# 2 0.054065 -0.042486 -0.004187 0.000000 0.000000 0.000000
# 3 -0.004187 -0.004187 0.033238 0.000000 0.000000 0.000000
# 4 0.000000 0.000000 0.000000 0.094934 0.000000 0.000000
# 5 0.000000 0.000000 0.000000 0.000000 0.094934 0.000000
# 6 0.000000 0.000000 0.000000 0.000000 0.000000 0.030216
#
#
# Mechanical properties :
#
#
# Convention : Reuss Voigt Hill
#
# Bulk Modulus (GPa) = 25.22077 30.11211 27.66644
# Shear Modulus (GPa) = 55.44273 13.57505 34.50889
#
# Velocity S-wave (km/s) = 5.23687 2.59131 4.13157
# Velocity P-wave (km/s) = 7.00299 4.88346 6.03697
#
# Compressibility (1/GPa) = 0.03964985
#
# Stress axis : x y z
#
# Youngs Moduli (GPa) = -23.53711 -23.53711 30.08587
#
# Poissons Ratio (x) = 1.27254 0.12596
# Poissons Ratio (y) = 1.27254 0.12596
# Poissons Ratio (z) = -0.09854 -0.09854
#
# Static dielectric constant tensor:
#      x y z
#    x 1.753930 0.000000 0.000000 
#    y 0.000000 1.753930 0.000000 
#    z 0.000000 0.000000 1.759760 
# 
# From -- ./inp_files/1921.got.cif
#   From: 2010.05.17/outbox.cif.g08.bks.cpg/sg136_1_cif.got.tgz:1921.got - 2010.05.20 12:54:53.
