data_PCOD9569041
_publ_section_title
;
Structure prediction by ZEFSAII (Michael W. Deem and Ramdas Pophale) SiO2 
 PCOD9569041
Probable space group: P 42/M B C
;
_chemical_formula_sum "Si O2"
_cell_formula_units_Z 64
_cell_length_a 13.328656
_cell_length_b 13.328656
_cell_length_c 17.324024
_cell_angle_alpha 90.000000
_cell_angle_beta 90.000000
_cell_angle_gamma 90.000000
_cell_volume 3077.666062
_symmetry_space_group_name_H-M "P 42/M B C"
_symmetry_group_IT_number 135
_symmetry_cell_setting 'tetragonal'
loop_
_space_group_symop_operation_xyz
x,y,z
-y,x,1/2+z
-x,-y,z
y,-x,1/2+z
1/2+x,1/2-y,-z
1/2-x,1/2+y,-z
1/2+y,1/2+x,1/2-z
1/2-y,1/2-x,1/2-z
-x,-y,-z
y,-x,1/2-z
x,y,-z
-y,x,1/2-z
1/2-x,1/2+y,z
1/2+x,1/2-y,z
1/2-y,1/2-x,1/2+z
1/2+y,1/2+x,1/2+z
loop_
_atom_site_type_symbol
_atom_site_label
_atom_site_fract_x
_atom_site_fract_y
_atom_site_fract_z
Si Si1 0.724897 0.629423 0.585328
Si Si2 0.389279 0.551887 0.645715
Si Si3 0.400353 0.249531 0.289941
Si Si4 0.435065 0.775781 0.411280
O O1 0.697712 0.667311 0.500000
O O2 0.682618 0.517973 0.594492
O O3 0.671572 0.691195 0.652030
O O4 0.842808 0.647380 0.594053
O O5 0.500000 0.500000 0.650038
O O6 0.330713 0.560435 0.727378
O O7 0.399874 0.661942 0.608640
O O8 0.336600 0.163401 0.250000
O O9 0.485939 0.203944 0.344075
O O10 0.472083 0.777812 0.500000
#
# Coordination Sequence:
#
# PCOD9569041 Si02
#       4
#    16  16  16  16
#     4  11  25  43  66 101 140 180 229 286 346 406
#     4  12  25  40  70 106 136 172 231 289 339 403
#     4  12  25  42  68 102 137 182 227 283 345 417
#     4  11  25  45  69  99 139 183 226 283 350 410
#
# _framework density 20.794979000000001
#
# number of rings (size 3 to 8) (size 9 to 14) (size 15 to 20)
#    0.000    0.500    5.000    3.000    3.500    1.000 
#    0.000    2.500    0.000    3.000    0.000    0.000 
#    0.000    0.000    0.000    0.000    0.000    0.000 
#
# Total GULP energy -357897.953757 kJ/mol
# GULP energy per Si atom -5592.155527 kJ/mol
# Density = 2.074765 g / cm^3
# Si number density = 20.794979 Si / 1000 Ang^3
#
#
#
# Elastic Constant Matrix: (Units=GPa)
#
#
# Indices 1 2 3 4 5 6 
#
# 1 71.6246 36.5417 34.3700 0.0000 0.0000 0.0000
# 2 36.5417 71.6209 34.3687 0.0000 0.0000 0.0000
# 3 34.3700 34.3687 139.9070 0.0000 0.0000 0.0000
# 4 0.0000 0.0000 0.0000 32.3557 0.0000 0.0000
# 5 0.0000 0.0000 0.0000 0.0000 32.3528 0.0000
# 6 0.0000 0.0000 0.0000 0.0000 0.0000 -51.2715
#
#
#
# Elastic Compliance Matrix: (Units=1/GPa)
#
#
# Indices 1 2 3 4 5 6 
#
# 1 0.019730 -0.008775 -0.002691 0.000000 0.000000 0.000000
# 2 -0.008775 0.019731 -0.002691 0.000000 0.000000 0.000000
# 3 -0.002691 -0.002691 0.008470 0.000000 0.000000 0.000000
# 4 0.000000 0.000000 0.000000 0.030906 0.000000 0.000000
# 5 0.000000 0.000000 0.000000 0.000000 0.030909 0.000000
# 6 0.000000 0.000000 0.000000 0.000000 0.000000 -0.019504
#
#
# Mechanical properties :
#
#
# Convention : Reuss Voigt Hill
#
# Bulk Modulus (GPa) = 50.97965 54.85703 52.91834
# Shear Modulus (GPa) = 39.96924 14.54554 27.25739
#
# Velocity S-wave (km/s) = 4.38889 2.64763 3.62438
# Velocity P-wave (km/s) = 7.08884 5.98195 6.55879
#
# Compressibility (1/GPa) = 0.01961567
#
# Stress axis : x y z
#
# Youngs Moduli (GPa) = 50.68430 50.68182 118.06523
#
# Poissons Ratio (x) = 0.44473 0.31775
# Poissons Ratio (y) = 0.44475 0.31775
# Poissons Ratio (z) = 0.13641 0.13640
#
# Static dielectric constant tensor:
#      x y z
#    x 1.749100 0.000000 0.000000 
#    y 0.000000 1.749100 0.000000 
#    z 0.000000 0.000000 1.729540 
# 
# From -- ./inp_files/3169.got.cif
#   From: 2010.05.17/outbox.cif.g08.bks.cpg/sg135_2_cif.got.tgz:3169.got - 2010.05.20 12:50:20.
