data_PCOD9569979
_publ_section_title
;
Structure prediction by ZEFSAII (Michael W. Deem and Ramdas Pophale) SiO2 
 PCOD9569979
Probable space group: P 42/N M C
;
_chemical_formula_sum "Si O2"
_cell_formula_units_Z 80
_cell_length_a 15.436292
_cell_length_b 15.436292
_cell_length_c 18.641632
_cell_angle_alpha 90.000000
_cell_angle_beta 90.000000
_cell_angle_gamma 90.000000
_cell_volume 4441.911495
_symmetry_space_group_name_H-M "P 42/N M C"
_symmetry_group_IT_number 137
_space_group.IT_coordinate_system_code '2'
_symmetry_cell_setting 'tetragonal'
loop_
_space_group_symop_operation_xyz
x,y,z
1/2-y,x,1/2+z
1/2-x,1/2-y,z
y,1/2-x,1/2+z
1/2+x,-y,-z
-x,1/2+y,-z
1/2+y,1/2+x,1/2-z
-y,-x,1/2-z
-x,-y,-z
1/2+y,-x,1/2-z
1/2+x,1/2+y,-z
-y,1/2+x,1/2-z
1/2-x,y,z
x,1/2-y,z
1/2-y,1/2-x,1/2+z
y,x,1/2+z
loop_
_atom_site_type_symbol
_atom_site_label
_atom_site_fract_x
_atom_site_fract_y
_atom_site_fract_z
Si Si1 0.153130 0.978983 0.920546
Si Si2 0.851706 0.997210 0.433247
Si Si3 0.154731 0.618402 0.331843
Si Si4 0.976341 0.656580 0.410592
Si Si5 0.346218 0.437699 0.400260
O O1 0.250000 0.956688 0.897178
O O2 0.084761 0.901681 0.912325
O O3 0.121355 0.070299 0.887668
O O4 0.154419 0.000052 0.005423
O O5 0.750000 0.996765 0.414885
O O6 0.908320 0.920086 0.398483
O O7 0.856623 0.981429 0.520143
O O8 0.146537 0.646537 0.250000
O O9 0.250000 0.646738 0.360018
O O10 0.153453 0.515023 0.343052
O O11 0.068259 0.649109 0.371219
O O12 0.936748 0.750000 0.393409
O O13 0.250000 0.396202 0.400148
#
# Coordination Sequence:
#
# PCOD9569979 Si02
#       5
#    16  16  16  16  16
#     4  10  18  30  51  77 102 131 168 210 263 312
#     4  10  18  32  51  73 103 134 168 212 262 307
#     4  11  21  33  50  74 107 143 173 200 239 297
#     4  10  19  32  50  73 104 137 170 209 253 303
#     4   9  17  32  51  71 103 139 168 207 255 304
#
# _framework density 18.010263999999999
#
# number of rings (size 3 to 8) (size 9 to 14) (size 15 to 20)
#    0.000    2.000    4.000    1.800    0.000    2.600 
#    0.000    6.000    0.000    1.200    0.000    2.800 
#    0.000    1.600    0.000    0.000    0.000    0.000 
#
# Total GULP energy -445631.262830 kJ/mol
# GULP energy per Si atom -5570.390785 kJ/mol
# Density = 1.796927 g / cm^3
# Si number density = 18.010264 Si / 1000 Ang^3
#
#
#
# Elastic Constant Matrix: (Units=GPa)
#
#
# Indices 1 2 3 4 5 6 
#
# 1 154.9222 99.2763 11.9914 0.0000 0.0000 0.0000
# 2 99.2763 154.9222 11.9914 0.0000 0.0000 0.0000
# 3 11.9914 11.9914 11.4870 0.0000 0.0000 0.0000
# 4 0.0000 0.0000 0.0000 5.5326 0.0000 0.0000
# 5 0.0000 0.0000 0.0000 0.0000 5.5326 0.0000
# 6 0.0000 0.0000 0.0000 0.0000 0.0000 0.3680
#
#
#
# Elastic Compliance Matrix: (Units=1/GPa)
#
#
# Indices 1 2 3 4 5 6 
#
# 1 0.011167 -0.006804 -0.004555 0.000000 0.000000 0.000000
# 2 -0.006804 0.011167 -0.004555 0.000000 0.000000 0.000000
# 3 -0.004555 -0.004555 0.096566 0.000000 0.000000 0.000000
# 4 0.000000 0.000000 0.000000 0.180747 0.000000 0.000000
# 5 0.000000 0.000000 0.000000 0.000000 0.180747 0.000000
# 6 0.000000 0.000000 0.000000 0.000000 0.000000 2.717470
#
#
# Mechanical properties :
#
#
# Convention : Reuss Voigt Hill
#
# Bulk Modulus (GPa) = 11.48479 63.09440 37.28959
# Shear Modulus (GPa) = 1.53435 15.49146 8.51290
#
# Velocity S-wave (km/s) = 0.92400 2.93601 2.17646
# Velocity P-wave (km/s) = 2.74391 6.82657 5.20245
#
# Compressibility (1/GPa) = 0.08707169
#
# Stress axis : x y z
#
# Youngs Moduli (GPa) = 89.54759 89.54759 10.35566
#
# Poissons Ratio (x) = 0.60924 0.04717
# Poissons Ratio (y) = 0.60924 0.04717
# Poissons Ratio (z) = 0.40792 0.40792
#
# Static dielectric constant tensor:
#      x y z
#    x 1.647420 0.000000 0.000000 
#    y 0.000000 1.647420 0.000000 
#    z 0.000000 0.000000 1.598350 
# 
# From -- ./inp_files/7574.got.cif
#   From: 2010.05.17/outbox.cif.g08.bks.cpg/sg137_4_cif.got.tgz:7574.got - 2010.05.20 13:01:12.
