data_PCOD9569213
_publ_section_title
;
Structure prediction by ZEFSAII (Michael W. Deem and Ramdas Pophale) SiO2 
 PCOD9569213
Probable space group: P 42/M N M
;
_chemical_formula_sum "Si O2"
_cell_formula_units_Z 112
_cell_length_a 14.987226
_cell_length_b 14.987226
_cell_length_c 27.398097
_cell_angle_alpha 90.000000
_cell_angle_beta 90.000000
_cell_angle_gamma 90.000000
_cell_volume 6154.076797
_symmetry_space_group_name_H-M "P 42/M N M"
_symmetry_group_IT_number 136
_symmetry_cell_setting 'tetragonal'
loop_
_space_group_symop_operation_xyz
x,y,z
1/2-y,1/2+x,1/2+z
-x,-y,z
1/2+y,1/2-x,1/2+z
1/2+x,1/2-y,1/2-z
1/2-x,1/2+y,1/2-z
y,x,-z
-y,-x,-z
-x,-y,-z
1/2+y,1/2-x,1/2-z
x,y,-z
1/2-y,1/2+x,1/2-z
1/2-x,1/2+y,1/2+z
1/2+x,1/2-y,1/2+z
-y,-x,z
y,x,z
loop_
_atom_site_type_symbol
_atom_site_label
_atom_site_fract_x
_atom_site_fract_y
_atom_site_fract_z
Si Si1 0.074778 0.925223 0.444929
Si Si2 0.714066 0.135177 0.207742
Si Si3 0.507811 0.185106 0.791410
Si Si4 0.757332 0.532705 0.105265
Si Si5 0.854449 0.703146 0.942084
Si Si6 0.036495 0.688746 0.107172
Si Si7 0.150209 0.295361 0.556210
Si Si8 0.000000 0.500000 0.156308
O O1 0.100870 0.899131 0.500000
O O2 0.160141 0.960781 0.417254
O O3 0.000000 0.000000 0.447156
O O4 0.792482 0.207519 0.216480
O O5 0.710047 0.051205 0.244824
O O6 0.616080 0.183347 0.212149
O O7 0.725185 0.089527 0.154462
O O8 0.472707 0.243956 0.836572
O O9 0.485341 0.084782 0.809165
O O10 0.813483 0.614687 0.083301
O O11 0.796322 0.438976 0.087541
O O12 0.780511 0.780511 0.938781
O O13 0.943792 0.727864 0.912311
O O14 0.872101 0.686571 0.000000
O O15 0.108108 0.692601 0.063844
O O16 0.014447 0.586905 0.123318
O O17 0.127584 0.278483 0.500000
O O18 0.218274 0.218274 0.572538
#
# Coordination Sequence:
#
# PCOD9569213 Si02
#       8
#     8  16  16  16  16  16  16   8
#     4  11  24  40  58  84 128 180 215 245 296 374
#     4  11  24  42  67  92 122 158 203 254 312 375
#     4  11  23  39  64  91 120 157 199 249 307 371
#     4  12  22  37  61  88 124 164 207 253 304 365
#     4  11  23  39  61  90 127 166 208 258 310 368
#     4  11  20  38  60  89 119 160 199 257 313 363
#     4  11  22  36  58  87 121 158 199 245 300 366
#     4  10  18  37  57  88 118 152 187 244 305 368
#
# _framework density 18.199318000000002
#
# number of rings (size 3 to 8) (size 9 to 14) (size 15 to 20)
#    0.000    0.929    5.000    4.286    1.000    2.286 
#    0.000    2.143    0.000    2.571    0.000    5.000 
#    0.000    0.000    0.000    0.000    0.000    0.000 
#
# Total GULP energy -625120.050595 kJ/mol
# GULP energy per Si atom -5581.429023 kJ/mol
# Density = 1.815790 g / cm^3
# Si number density = 18.199318 Si / 1000 Ang^3
#
#
#
# Elastic Constant Matrix: (Units=GPa)
#
#
# Indices 1 2 3 4 5 6 
#
# 1 75.3846 30.0298 19.1666 0.0000 0.0000 0.0000
# 2 30.0298 75.3846 19.1667 0.0000 0.0000 0.0000
# 3 19.1666 19.1667 75.7269 0.0000 0.0000 0.0000
# 4 0.0000 0.0000 0.0000 24.5166 0.0000 0.0000
# 5 0.0000 0.0000 0.0000 0.0000 24.5167 0.0000
# 6 0.0000 0.0000 0.0000 0.0000 0.0000 18.1173
#
#
#
# Elastic Compliance Matrix: (Units=1/GPa)
#
#
# Indices 1 2 3 4 5 6 
#
# 1 0.016248 -0.005800 -0.002644 0.000000 0.000000 0.000000
# 2 -0.005800 0.016248 -0.002644 0.000000 0.000000 0.000000
# 3 -0.002644 -0.002644 0.014544 0.000000 0.000000 0.000000
# 4 0.000000 0.000000 0.000000 0.040789 0.000000 0.000000
# 5 0.000000 0.000000 0.000000 0.000000 0.040789 0.000000
# 6 0.000000 0.000000 0.000000 0.000000 0.000000 0.055196
#
#
# Mechanical properties :
#
#
# Convention : Reuss Voigt Hill
#
# Bulk Modulus (GPa) = 40.22153 40.35802 40.28978
# Shear Modulus (GPa) = 23.33406 23.97231 23.65318
#
# Velocity S-wave (km/s) = 3.58458 3.63327 3.60901
# Velocity P-wave (km/s) = 6.26744 6.31068 6.28910
#
# Compressibility (1/GPa) = 0.02486231
#
# Stress axis : x y z
#
# Youngs Moduli (GPa) = 61.54536 61.54529 68.75711
#
# Poissons Ratio (x) = 0.35697 0.18182
# Poissons Ratio (y) = 0.35697 0.18182
# Poissons Ratio (z) = 0.16275 0.16275
#
# Static dielectric constant tensor:
#      x y z
#    x 1.614150 0.000000 0.000000 
#    y 0.000000 1.614150 0.000000 
#    z 0.000000 0.000000 1.644610 
# 
# From -- ./inp_files/9236.got.cif
#   From: 2010.05.17/outbox.cif.g08.bks.cpg/sg136_5_cif.got.tgz:9236.got - 2010.05.20 12:54:53.
