data_PCOD9569838
_publ_section_title
;
Structure prediction by ZEFSAII (Michael W. Deem and Ramdas Pophale) SiO2 
 PCOD9569838
Probable space group: P 42/M N M
;
_chemical_formula_sum "Si O2"
_cell_formula_units_Z 56
_cell_length_a 16.914407
_cell_length_b 16.914407
_cell_length_c 8.983708
_cell_angle_alpha 90.000000
_cell_angle_beta 90.000000
_cell_angle_gamma 90.000000
_cell_volume 2570.213382
_symmetry_space_group_name_H-M "P 42/M N M"
_symmetry_group_IT_number 136
_symmetry_cell_setting 'tetragonal'
loop_
_space_group_symop_operation_xyz
x,y,z
1/2-y,1/2+x,1/2+z
-x,-y,z
1/2+y,1/2-x,1/2+z
1/2+x,1/2-y,1/2-z
1/2-x,1/2+y,1/2-z
y,x,-z
-y,-x,-z
-x,-y,-z
1/2+y,1/2-x,1/2-z
x,y,-z
1/2-y,1/2+x,1/2-z
1/2-x,1/2+y,1/2+z
1/2+x,1/2-y,1/2+z
-y,-x,z
y,x,z
loop_
_atom_site_type_symbol
_atom_site_label
_atom_site_fract_x
_atom_site_fract_y
_atom_site_fract_z
Si Si1 0.675525 0.194159 0.821922
Si Si2 0.544510 0.320435 0.832346
Si Si3 0.431436 0.431436 0.331279
Si Si4 0.556008 0.896451 0.175907
O O1 0.752957 0.247044 0.798408
O O2 0.600057 0.249233 0.777397
O O3 0.672196 0.114364 0.728481
O O4 0.668369 0.179096 0.000000
O O5 0.606593 0.393408 0.840450
O O6 0.470739 0.354988 0.743592
O O7 0.519575 0.300431 0.000000
O O8 0.500000 0.500000 0.329230
O O9 0.412399 0.412399 0.500000
O O10 0.477293 0.900296 0.274505
O O11 0.539279 0.895761 0.000000
#
# Coordination Sequence:
#
# PCOD9569838 Si02
#       4
#    16  16   8  16
#     4   9  18  34  57  85 117 151 188 235 292 351
#     4   8  14  25  42  64  93 134 178 216 262 323
#     4   9  15  21  33  57  91 129 173 225 269 311
#     4  11  22  38  62  89 118 152 195 244 294 348
#
# _framework density 21.788074000000002
#
# number of rings (size 3 to 8) (size 9 to 14) (size 15 to 20)
#    0.000    2.714    0.000    5.571    0.000    3.429 
#    0.000    2.857    3.143    0.000    0.000    0.000 
#    0.000    0.000    0.000    0.000    0.000    0.000 
#
# Total GULP energy -312566.707806 kJ/mol
# GULP energy per Si atom -5581.548354 kJ/mol
# Density = 2.173848 g / cm^3
# Si number density = 21.788074 Si / 1000 Ang^3
#
#
#
# Elastic Constant Matrix: (Units=GPa)
#
#
# Indices 1 2 3 4 5 6 
#
# 1 45.6160 19.2460 15.0631 0.0000 0.0000 0.0000
# 2 19.2460 45.6160 15.0631 0.0000 0.0000 0.0000
# 3 15.0631 15.0631 51.3341 0.0000 0.0000 0.0000
# 4 0.0000 0.0000 0.0000 11.7616 0.0000 0.0000
# 5 0.0000 0.0000 0.0000 0.0000 11.7616 0.0000
# 6 0.0000 0.0000 0.0000 0.0000 0.0000 -5.1664
#
#
#
# Elastic Compliance Matrix: (Units=1/GPa)
#
#
# Indices 1 2 3 4 5 6 
#
# 1 0.027886 -0.010036 -0.005238 0.000000 0.000000 0.000000
# 2 -0.010036 0.027886 -0.005238 0.000000 0.000000 0.000000
# 3 -0.005238 -0.005238 0.022554 0.000000 0.000000 0.000000
# 4 0.000000 0.000000 0.000000 0.085022 0.000000 0.000000
# 5 0.000000 0.000000 0.000000 0.000000 0.085022 0.000000
# 6 0.000000 0.000000 0.000000 0.000000 0.000000 -0.193557
#
#
# Mechanical properties :
#
#
# Convention : Reuss Voigt Hill
#
# Bulk Modulus (GPa) = 26.80740 26.81228 26.80984
# Shear Modulus (GPa) = 46.18017 9.88428 28.03222
#
# Velocity S-wave (km/s) = 4.60881 2.13223 3.59079
# Velocity P-wave (km/s) = 6.37589 4.28888 5.43353
#
# Compressibility (1/GPa) = 0.03730313
#
# Stress axis : x y z
#
# Youngs Moduli (GPa) = 35.86024 35.86024 44.33771
#
# Poissons Ratio (x) = 0.35989 0.23223
# Poissons Ratio (y) = 0.35989 0.23223
# Poissons Ratio (z) = 0.18783 0.18783
#
# Static dielectric constant tensor:
#      x y z
#    x 1.839580 0.000000 0.000000 
#    y 0.000000 1.839580 0.000000 
#    z 0.000000 0.000000 1.746070 
# 
# From -- ./inp_files/1120.got.cif
#   From: 2010.05.17/outbox.cif.g08.bks.cpg/sg136_1_cif.got.tgz:1120.got - 2010.05.20 12:54:53.
