data_PCOD9569472
_publ_section_title
;
Structure prediction by ZEFSAII (Michael W. Deem and Ramdas Pophale) SiO2 
 PCOD9569472
Probable space group: P 42/M N M
;
_chemical_formula_sum "Si O2"
_cell_formula_units_Z 96
_cell_length_a 16.258135
_cell_length_b 16.258135
_cell_length_c 19.274553
_cell_angle_alpha 90.000000
_cell_angle_beta 90.000000
_cell_angle_gamma 90.000000
_cell_volume 5094.783878
_symmetry_space_group_name_H-M "P 42/M N M"
_symmetry_group_IT_number 136
_symmetry_cell_setting 'tetragonal'
loop_
_space_group_symop_operation_xyz
x,y,z
1/2-y,1/2+x,1/2+z
-x,-y,z
1/2+y,1/2-x,1/2+z
1/2+x,1/2-y,1/2-z
1/2-x,1/2+y,1/2-z
y,x,-z
-y,-x,-z
-x,-y,-z
1/2+y,1/2-x,1/2-z
x,y,-z
1/2-y,1/2+x,1/2-z
1/2-x,1/2+y,1/2+z
1/2+x,1/2-y,1/2+z
-y,-x,z
y,x,z
loop_
_atom_site_type_symbol
_atom_site_label
_atom_site_fract_x
_atom_site_fract_y
_atom_site_fract_z
Si Si1 0.537958 0.888060 0.287625
Si Si2 0.465428 0.672483 0.578157
Si Si3 0.885249 0.248567 0.582735
Si Si4 0.801381 0.067170 0.211982
Si Si5 0.433382 0.866521 0.580289
Si Si6 0.866081 0.993697 0.347460
O O1 0.459439 0.900276 0.236370
O O2 0.573368 0.796550 0.283643
O O3 0.501588 0.897383 0.365545
O O4 0.496463 0.656239 0.500000
O O5 0.391562 0.608439 0.591181
O O6 0.532959 0.669784 0.637875
O O7 0.434925 0.766887 0.579754
O O8 0.876702 0.252907 0.500000
O O9 0.808540 0.191461 0.607961
O O10 0.887949 0.342247 0.607348
O O11 0.969173 0.202853 0.602790
O O12 0.847911 0.152090 0.226535
O O13 0.831773 0.002377 0.269816
O O14 0.445100 0.893599 0.500000
O O15 0.940173 0.059828 0.352672
O O16 0.905601 0.905601 0.362581
#
# Coordination Sequence:
#
# PCOD9569472 Si02
#       6
#    16  16  16  16  16  16
#     4  10  21  38  58  80 107 134 171 220 263 307
#     4   9  17  29  48  77 112 147 180 214 255 309
#     4   9  16  26  44  71 102 137 177 222 271 319
#     4  10  20  34  52  74 104 142 179 215 259 311
#     4   9  17  31  52  77 104 135 173 218 267 316
#     4   9  17  28  42  64  98 139 180 219 259 306
#
# _framework density 18.842801999999999
#
# number of rings (size 3 to 8) (size 9 to 14) (size 15 to 20)
#    0.000    2.667    0.000    2.000    0.000    3.667 
#    0.000    8.333    0.000    1.000    0.000    0.000 
#    0.000   13.333    0.000    0.167    0.000    0.000 
#
# Total GULP energy -535126.959141 kJ/mol
# GULP energy per Si atom -5574.239158 kJ/mol
# Density = 1.879992 g / cm^3
# Si number density = 18.842802 Si / 1000 Ang^3
#
#
#
# Elastic Constant Matrix: (Units=GPa)
#
#
# Indices 1 2 3 4 5 6 
#
# 1 57.6270 21.8254 14.6299 0.0000 0.0000 0.0000
# 2 21.8254 57.6270 14.6299 0.0000 0.0000 0.0000
# 3 14.6299 14.6299 58.2799 0.0000 0.0000 0.0000
# 4 0.0000 0.0000 0.0000 20.4946 0.0000 0.0000
# 5 0.0000 0.0000 0.0000 0.0000 20.4946 0.0000
# 6 0.0000 0.0000 0.0000 0.0000 0.0000 24.2482
#
#
#
# Elastic Compliance Matrix: (Units=1/GPa)
#
#
# Indices 1 2 3 4 5 6 
#
# 1 0.020900 -0.007032 -0.003481 0.000000 0.000000 0.000000
# 2 -0.007032 0.020900 -0.003481 0.000000 0.000000 0.000000
# 3 -0.003481 -0.003481 0.018906 0.000000 0.000000 0.000000
# 4 0.000000 0.000000 0.000000 0.048793 0.000000 0.000000
# 5 0.000000 0.000000 0.000000 0.000000 0.048793 0.000000
# 6 0.000000 0.000000 0.000000 0.000000 0.000000 0.041240
#
#
# Mechanical properties :
#
#
# Convention : Reuss Voigt Hill
#
# Bulk Modulus (GPa) = 30.56464 30.63383 30.59923
# Shear Modulus (GPa) = 20.97069 21.21070 21.09069
#
# Velocity S-wave (km/s) = 3.33968 3.35873 3.34922
# Velocity P-wave (km/s) = 5.57919 5.59771 5.58846
#
# Compressibility (1/GPa) = 0.03271754
#
# Stress axis : x y z
#
# Youngs Moduli (GPa) = 47.84691 47.84691 52.89217
#
# Poissons Ratio (x) = 0.33645 0.18413
# Poissons Ratio (y) = 0.33645 0.18413
# Poissons Ratio (z) = 0.16657 0.16657
#
# Static dielectric constant tensor:
#      x y z
#    x 1.655140 0.000000 0.000000 
#    y 0.000000 1.655140 0.000000 
#    z 0.000000 0.000000 1.681990 
# 
# From -- ./inp_files/6346.got.cif
#   From: 2010.05.17/outbox.cif.g08.bks.cpg/sg136_4_cif.got.tgz:6346.got - 2010.05.20 12:54:53.
