data_PCOD9569674
_publ_section_title
;
Structure prediction by ZEFSAII (Michael W. Deem and Ramdas Pophale) SiO2 
 PCOD9569674
Probable space group: P 42/M N M
;
_chemical_formula_sum "Si O2"
_cell_formula_units_Z 84
_cell_length_a 12.248140
_cell_length_b 12.248140
_cell_length_c 29.353395
_cell_angle_alpha 90.000000
_cell_angle_beta 90.000000
_cell_angle_gamma 90.000000
_cell_volume 4403.506305
_symmetry_space_group_name_H-M "P 42/M N M"
_symmetry_group_IT_number 136
_symmetry_cell_setting 'tetragonal'
loop_
_space_group_symop_operation_xyz
x,y,z
1/2-y,1/2+x,1/2+z
-x,-y,z
1/2+y,1/2-x,1/2+z
1/2+x,1/2-y,1/2-z
1/2-x,1/2+y,1/2-z
y,x,-z
-y,-x,-z
-x,-y,-z
1/2+y,1/2-x,1/2-z
x,y,-z
1/2-y,1/2+x,1/2-z
1/2-x,1/2+y,1/2+z
1/2+x,1/2-y,1/2+z
-y,-x,z
y,x,z
loop_
_atom_site_type_symbol
_atom_site_label
_atom_site_fract_x
_atom_site_fract_y
_atom_site_fract_z
Si Si1 0.839502 0.540248 0.772534
Si Si2 0.760236 0.501147 0.575294
Si Si3 0.287834 0.103650 0.448889
Si Si4 0.409994 0.409994 0.749052
Si Si5 0.397320 0.602681 0.500000
Si Si6 0.410380 0.410380 0.359203
Si Si7 0.443853 0.119203 0.879856
O O1 0.879733 0.419414 0.756677
O O2 0.712113 0.558463 0.763786
O O3 0.857360 0.561531 0.826273
O O4 0.833667 0.596205 0.553458
O O5 0.670727 0.463539 0.539541
O O6 0.703392 0.554494 0.619125
O O7 0.830704 0.399750 0.593687
O O8 0.276797 0.055925 0.500000
O O9 0.191862 0.191862 0.442445
O O10 0.295426 0.015734 0.408583
O O11 0.500000 0.500000 0.763688
O O12 0.407691 0.407691 0.694495
O O13 0.500000 0.500000 0.372983
O O14 0.500000 0.000000 0.883071
#
# Coordination Sequence:
#
# PCOD9569674 Si02
#       7
#    16  16  16   8   4   8  16
#     4  11  23  44  69  98 127 171 222 275 329 396
#     4  11  22  35  57  84 124 158 199 243 309 377
#     4  10  21  36  58  88 120 156 202 255 308 371
#     4  11  28  43  65  96 135 171 215 271 340 385
#     4  12  24  35  54  88 117 172 196 246 311 384
#     4  11  22  38  55  87 126 163 193 240 310 391
#     4  10  22  39  62  91 122 158 213 261 316 381
#
# _framework density 19.075707999999999
#
# number of rings (size 3 to 8) (size 9 to 14) (size 15 to 20)
#    0.000    1.333    4.762    1.143    5.333    3.429 
#    0.000    0.000    0.000    0.000    0.000    0.667 
#    0.000    0.000    0.000    0.000    0.000    0.000 
#
# Total GULP energy -467751.147148 kJ/mol
# GULP energy per Si atom -5568.466037 kJ/mol
# Density = 1.903229 g / cm^3
# Si number density = 19.075708 Si / 1000 Ang^3
#
#
#
# Elastic Constant Matrix: (Units=GPa)
#
#
# Indices 1 2 3 4 5 6 
#
# 1 65.7480 48.4213 24.6016 0.0000 0.0000 0.0000
# 2 48.4213 65.7486 24.6022 0.0000 0.0000 0.0000
# 3 24.6016 24.6022 105.1564 0.0000 0.0000 0.0000
# 4 0.0000 0.0000 0.0000 -60.6197 0.0000 0.0000
# 5 0.0000 0.0000 0.0000 0.0000 -60.6263 0.0000
# 6 0.0000 0.0000 0.0000 0.0000 0.0000 17.7859
#
#
#
# Elastic Compliance Matrix: (Units=1/GPa)
#
#
# Indices 1 2 3 4 5 6 
#
# 1 0.033727 -0.023986 -0.002279 0.000000 0.000000 0.000000
# 2 -0.023986 0.033727 -0.002279 0.000000 0.000000 0.000000
# 3 -0.002279 -0.002279 0.010576 0.000000 0.000000 0.000000
# 4 0.000000 0.000000 0.000000 -0.016496 0.000000 0.000000
# 5 0.000000 0.000000 0.000000 0.000000 -0.016494 0.000000
# 6 0.000000 0.000000 0.000000 0.000000 0.000000 0.056224
#
#
# Mechanical properties :
#
#
# Convention : Reuss Voigt Hill
#
# Bulk Modulus (GPa) = 47.75037 47.98924 47.86981
# Shear Modulus (GPa) = 30.24204 -11.42350 9.40927
#
# Velocity S-wave (km/s) = 3.98599 -2.44980 2.22335
# Velocity P-wave (km/s) = 6.80224 4.14848 5.63384
#
# Compressibility (1/GPa) = 0.02094224
#
# Stress axis : x y z
#
# Youngs Moduli (GPa) = 29.64958 29.64979 94.55366
#
# Poissons Ratio (x) = 0.71118 0.21547
# Poissons Ratio (y) = 0.71118 0.21550
# Poissons Ratio (z) = 0.06757 0.06757
#
# Static dielectric constant tensor:
#      x y z
#    x 1.685150 0.000000 0.000000 
#    y 0.000000 1.685150 0.000000 
#    z 0.000000 0.000000 1.649600 
# 
# From -- ./inp_files/9800.got.cif
#   From: 2010.05.17/outbox.cif.g08.bks.cpg/sg136_5_cif.got.tgz:9800.got - 2010.05.20 12:54:53.
