data_PCOD9569607
_publ_section_title
;
Structure prediction by ZEFSAII (Michael W. Deem and Ramdas Pophale) SiO2 
 PCOD9569607
Probable space group: P 42/M N M
;
_chemical_formula_sum "Si O2"
_cell_formula_units_Z 116
_cell_length_a 20.205194
_cell_length_b 20.205194
_cell_length_c 15.344993
_cell_angle_alpha 90.000000
_cell_angle_beta 90.000000
_cell_angle_gamma 90.000000
_cell_volume 6264.591314
_symmetry_space_group_name_H-M "P 42/M N M"
_symmetry_group_IT_number 136
_symmetry_cell_setting 'tetragonal'
loop_
_space_group_symop_operation_xyz
x,y,z
1/2-y,1/2+x,1/2+z
-x,-y,z
1/2+y,1/2-x,1/2+z
1/2+x,1/2-y,1/2-z
1/2-x,1/2+y,1/2-z
y,x,-z
-y,-x,-z
-x,-y,-z
1/2+y,1/2-x,1/2-z
x,y,-z
1/2-y,1/2+x,1/2-z
1/2-x,1/2+y,1/2+z
1/2+x,1/2-y,1/2+z
-y,-x,z
y,x,z
loop_
_atom_site_type_symbol
_atom_site_label
_atom_site_fract_x
_atom_site_fract_y
_atom_site_fract_z
Si Si1 0.260477 0.156338 0.369518
Si Si2 0.460301 0.065880 0.606409
Si Si3 0.736694 0.631687 0.353991
Si Si4 0.242746 0.650803 0.339357
Si Si5 0.681949 0.979365 0.400099
Si Si6 0.161919 0.838082 0.500000
Si Si7 0.882648 0.262158 0.350370
Si Si8 0.708782 0.992343 0.897764
O O1 0.196611 0.196611 0.400472
O O2 0.324647 0.201624 0.390052
O O3 0.257932 0.155348 0.264923
O O4 0.267195 0.081521 0.400006
O O5 0.459376 0.069741 0.500000
O O6 0.385318 0.053096 0.636159
O O7 0.491032 0.135004 0.638401
O O8 0.500000 0.000000 0.630625
O O9 0.670558 0.670558 0.380800
O O10 0.739709 0.631853 0.248494
O O11 0.746754 0.557056 0.383623
O O12 0.304697 0.695304 0.371236
O O13 0.175270 0.685158 0.372825
O O14 0.240925 0.573907 0.361096
O O15 0.668988 0.000103 0.500000
O O16 0.706037 0.044574 0.351778
O O17 0.123852 0.794671 0.422609
O O18 0.700496 0.980972 0.000000
#
# Coordination Sequence:
#
# PCOD9569607 Si02
#       8
#    16  16  16  16  16   4  16  16
#     4   9  19  36  55  76 107 147 187 230 280 336
#     4   9  18  32  46  73 114 152 184 215 266 332
#     4  10  20  38  57  77 111 150 188 236 284 328
#     4  10  21  37  56  79 111 148 190 240 284 329
#     4  11  20  31  53  81 112 147 183 229 277 335
#     4  12  20  36  56  92 109 140 201 238 274 346
#     4  11  21  35  58  84 113 147 187 235 283 335
#     4  11  22  34  55  82 112 151 191 232 280 337
#
# _framework density 18.516770000000001
#
# number of rings (size 3 to 8) (size 9 to 14) (size 15 to 20)
#    0.000    1.793    3.448    2.483    0.966    1.931 
#    0.000    1.379    0.000    0.414    0.000    1.931 
#    0.000    0.000    0.000    0.000    0.000    0.000 
#
# Total GULP energy -646489.259190 kJ/mol
# GULP energy per Si atom -5573.183269 kJ/mol
# Density = 1.847463 g / cm^3
# Si number density = 18.516770 Si / 1000 Ang^3
#
#
#
# Elastic Constant Matrix: (Units=GPa)
#
#
# Indices 1 2 3 4 5 6 
#
# 1 117.6906 85.0491 2.4676 0.0000 0.0000 0.0000
# 2 85.0491 117.6906 2.4674 0.0000 0.0000 0.0000
# 3 2.4676 2.4674 42.7063 0.0000 0.0000 0.0000
# 4 0.0000 0.0000 0.0000 16.9196 0.0000 0.0000
# 5 0.0000 0.0000 0.0000 0.0000 16.9202 0.0000
# 6 0.0000 0.0000 0.0000 0.0000 0.0000 21.4012
#
#
#
# Elastic Compliance Matrix: (Units=1/GPa)
#
#
# Indices 1 2 3 4 5 6 
#
# 1 0.017788 -0.012848 -0.000285 0.000000 0.000000 0.000000
# 2 -0.012848 0.017788 -0.000285 0.000000 0.000000 0.000000
# 3 -0.000285 -0.000285 0.023449 0.000000 0.000000 0.000000
# 4 0.000000 0.000000 0.000000 0.059103 0.000000 0.000000
# 5 0.000000 0.000000 0.000000 0.000000 0.059101 0.000000
# 6 0.000000 0.000000 0.000000 0.000000 0.000000 0.046726
#
#
# Mechanical properties :
#
#
# Convention : Reuss Voigt Hill
#
# Bulk Modulus (GPa) = 31.06950 50.89507 40.98228
# Shear Modulus (GPa) = 19.11893 23.58843 21.35368
#
# Velocity S-wave (km/s) = 3.21677 3.57304 3.39958
# Velocity P-wave (km/s) = 5.53284 6.67591 6.13107
#
# Compressibility (1/GPa) = 0.03218591
#
# Stress axis : x y z
#
# Youngs Moduli (GPa) = 56.21888 56.21890 42.64629
#
# Poissons Ratio (x) = 0.72231 0.01217
# Poissons Ratio (y) = 0.72231 0.01217
# Poissons Ratio (z) = 0.01605 0.01604
#
# Static dielectric constant tensor:
#      x y z
#    x 1.643380 0.000000 0.000000 
#    y 0.000000 1.643380 0.000000 
#    z 0.000000 0.000000 1.689760 
# 
# From -- ./inp_files/6470.got.cif
#   From: 2010.05.17/outbox.cif.g08.bks.cpg/sg136_4_cif.got.tgz:6470.got - 2010.05.20 12:54:53.
