data_PCOD9569073
_publ_section_title
;
Structure prediction by ZEFSAII (Michael W. Deem and Ramdas Pophale) SiO2 
 PCOD9569073
Probable space group: P 42/M B C
;
_chemical_formula_sum "Si O2"
_cell_formula_units_Z 96
_cell_length_a 24.000000
_cell_length_b 24.000000
_cell_length_c 9.000000
_cell_angle_alpha 90.000000
_cell_angle_beta 90.000000
_cell_angle_gamma 90.000000
_cell_volume 5184.000000
_symmetry_space_group_name_H-M "P 42/M B C"
_symmetry_group_IT_number 135
_symmetry_cell_setting 'tetragonal'
loop_
_space_group_symop_operation_xyz
x,y,z
-y,x,1/2+z
-x,-y,z
y,-x,1/2+z
1/2+x,1/2-y,-z
1/2-x,1/2+y,-z
1/2+y,1/2+x,1/2-z
1/2-y,1/2-x,1/2-z
-x,-y,-z
y,-x,1/2-z
x,y,-z
-y,x,1/2-z
1/2-x,1/2+y,z
1/2+x,1/2-y,z
1/2-y,1/2-x,1/2+z
1/2+y,1/2+x,1/2+z
loop_
_atom_site_type_symbol
_atom_site_label
_atom_site_fract_x
_atom_site_fract_y
_atom_site_fract_z
Si Si1 0.367939 0.212252 0.177151
Si Si2 0.526372 0.420575 0.322295
Si Si3 0.302777 0.722041 0.678129
Si Si4 0.796371 0.069045 0.822464
Si Si5 0.504529 0.797344 0.823137
Si Si6 0.002381 0.583896 0.321549
O O1 0.342805 0.157196 0.250000
O O2 0.329063 0.263315 0.227108
O O3 0.432162 0.220419 0.211375
O O4 0.362579 0.207244 0.000000
O O5 0.466486 0.432859 0.249384
O O6 0.523625 0.429014 0.500000
O O7 0.547369 0.358504 0.292824
O O8 0.277361 0.777361 0.750000
O O9 0.298691 0.726601 0.500000
O O10 0.366103 0.709583 0.715649
O O11 0.751327 0.035437 0.729845
O O12 0.786097 0.062634 0.000000
O O13 0.493544 0.853505 0.732180
O O14 0.499848 0.807740 0.000000
O O15 0.954157 0.545844 0.250000
O O16 0.003426 0.578852 0.500000
O O17 0.058817 0.558817 0.250000
#
# Coordination Sequence:
#
# PCOD9569073 Si02
#       6
#    16  16  16  16  16  16
#     4   9  19  35  58  84 110 145 184 231 281 335
#     4  10  21  38  61  86 115 152 194 243 302 359
#     4   9  19  38  59  80 109 146 187 230 281 336
#     4  10  23  39  57  83 117 156 194 240 296 348
#     4  11  23  37  57  86 118 153 194 237 292 347
#     4  11  22  39  62  87 119 155 198 243 293 350
#
# _framework density 18.518519000000001
#
# number of rings (size 3 to 8) (size 9 to 14) (size 15 to 20)
#    0.000    2.000    0.000    4.000    2.333    5.333 
#    0.000    1.667    0.000    0.000    0.000    0.000 
#    0.000    0.000    0.000    0.000    0.000    0.000 
#
# Total GULP energy -536043.109279 kJ/mol
# GULP energy per Si atom -5583.782388 kJ/mol
# Density = 1.847637 g / cm^3
# Si number density = 18.518519 Si / 1000 Ang^3
#
#
#
# Elastic Constant Matrix: (Units=GPa)
#
#
# Indices 1 2 3 4 5 6 
#
# 1 109.6291 77.1026 62.1699 0.0000 0.0000 0.0000
# 2 77.1026 109.6333 62.1650 0.0000 0.0000 0.0000
# 3 62.1699 62.1650 85.4043 0.0000 0.0000 0.0000
# 4 0.0000 0.0000 0.0000 -73.1226 0.0000 0.0000
# 5 0.0000 0.0000 0.0000 0.0000 -73.1018 0.0000
# 6 0.0000 0.0000 0.0000 0.0000 0.0000 14.1134
#
#
#
# Elastic Compliance Matrix: (Units=1/GPa)
#
#
# Indices 1 2 3 4 5 6 
#
# 1 0.020569 -0.010175 -0.007567 0.000000 0.000000 0.000000
# 2 -0.010175 0.020565 -0.007562 0.000000 0.000000 0.000000
# 3 -0.007567 -0.007562 0.022722 0.000000 0.000000 0.000000
# 4 0.000000 0.000000 0.000000 -0.013676 0.000000 0.000000
# 5 0.000000 0.000000 0.000000 0.000000 -0.013680 0.000000
# 6 0.000000 0.000000 0.000000 0.000000 0.000000 0.070855
#
#
# Mechanical properties :
#
#
# Convention : Reuss Voigt Hill
#
# Bulk Modulus (GPa) = 75.48535 78.61575 77.05055
# Shear Modulus (GPa) = 30.79209 -19.54025 5.62592
#
# Velocity S-wave (km/s) = 4.08214 -3.25187 1.74488
# Velocity P-wave (km/s) = 7.94160 5.33340 6.76440
#
# Compressibility (1/GPa) = 0.01324760
#
# Stress axis : x y z
#
# Youngs Moduli (GPa) = 48.61714 48.62568 44.01077
#
# Poissons Ratio (x) = 0.49477 0.33302
# Poissons Ratio (y) = 0.49468 0.33282
# Poissons Ratio (z) = 0.36787 0.36772
#
# Static dielectric constant tensor:
#      x y z
#    x 1.628410 0.000000 0.000000 
#    y 0.000000 1.628410 0.000000 
#    z 0.000000 0.000000 1.618370 
# 
# From -- ./inp_files/1253.got.cif
#   From: 2010.05.17/outbox.ucp.g08.bks.cvg/sg135_1_cif.got.tgz:1253.got - 2010.06.11 11:40:18.
