data_PCOD9569133
_publ_section_title
;
Structure prediction by ZEFSAII (Michael W. Deem and Ramdas Pophale) SiO2 
 PCOD9569133
Probable space group: P 42/M N M
;
_chemical_formula_sum "Si O2"
_cell_formula_units_Z 128
_cell_length_a 17.541570
_cell_length_b 17.541570
_cell_length_c 23.032060
_cell_angle_alpha 90.000000
_cell_angle_beta 90.000000
_cell_angle_gamma 90.000000
_cell_volume 7087.118672
_symmetry_space_group_name_H-M "P 42/M N M"
_symmetry_group_IT_number 136
_symmetry_cell_setting 'tetragonal'
loop_
_space_group_symop_operation_xyz
x,y,z
1/2-y,1/2+x,1/2+z
-x,-y,z
1/2+y,1/2-x,1/2+z
1/2+x,1/2-y,1/2-z
1/2-x,1/2+y,1/2-z
y,x,-z
-y,-x,-z
-x,-y,-z
1/2+y,1/2-x,1/2-z
x,y,-z
1/2-y,1/2+x,1/2-z
1/2-x,1/2+y,1/2+z
1/2+x,1/2-y,1/2+z
-y,-x,z
y,x,z
loop_
_atom_site_type_symbol
_atom_site_label
_atom_site_fract_x
_atom_site_fract_y
_atom_site_fract_z
Si Si1 0.941946 0.601206 0.875016
Si Si2 0.576232 0.303536 0.761809
Si Si3 0.567242 0.110283 0.118945
Si Si4 0.096048 0.220064 0.598753
Si Si5 0.406700 0.282911 0.772421
Si Si6 0.320000 0.800849 0.434223
Si Si7 0.425147 0.304942 0.911314
Si Si8 0.633744 0.891561 0.752391
O O1 0.901871 0.522222 0.895030
O O2 0.890299 0.670476 0.896553
O O3 0.939811 0.598946 0.804980
O O4 0.029015 0.604715 0.895927
O O5 0.625246 0.374755 0.742166
O O6 0.586078 0.295396 0.831878
O O7 0.487340 0.310236 0.747589
O O8 0.608095 0.224451 0.737864
O O9 0.601565 0.187991 0.092409
O O10 0.574995 0.119922 0.188670
O O11 0.166796 0.166796 0.579517
O O12 0.013617 0.198134 0.572745
O O13 0.335888 0.335888 0.754931
O O14 0.416283 0.290000 0.842012
O O15 0.395174 0.194934 0.756528
O O16 0.344133 0.783640 0.500000
O O17 0.270257 0.729744 0.411039
O O18 0.260548 0.871438 0.436909
O O19 0.385368 0.385368 0.924457
#
# Coordination Sequence:
#
# PCOD9569133 Si02
#       8
#    16  16  16  16  16  16  16  16
#     4  11  19  32  49  68  99 127 162 202 247 296
#     4   9  18  28  40  62  90 122 159 196 231 275
#     4  10  20  30  45  71  98 131 165 196 237 289
#     4   9  16  29  45  65  96 127 161 198 234 282
#     4  10  18  28  44  63  88 123 160 195 235 281
#     4  10  20  34  53  75  98 126 162 208 258 299
#     4   9  16  29  47  68  92 123 163 203 246 287
#     4  11  18  29  44  68  97 127 162 198 236 283
#
# _framework density 18.060936000000002
#
# number of rings (size 3 to 8) (size 9 to 14) (size 15 to 20)
#    0.000    2.125    2.500    3.375    0.000    2.500 
#    0.000    3.750    0.000    0.375    0.000    1.750 
#    0.000    0.500    0.000    1.375    0.000    1.250 
#
# Total GULP energy -713776.133218 kJ/mol
# GULP energy per Si atom -5576.376041 kJ/mol
# Density = 1.801983 g / cm^3
# Si number density = 18.060936 Si / 1000 Ang^3
#
#
#
# Elastic Constant Matrix: (Units=GPa)
#
#
# Indices 1 2 3 4 5 6 
#
# 1 78.5658 71.7960 11.4859 0.0000 0.0000 0.0000
# 2 71.7960 78.5658 11.4859 0.0000 0.0000 0.0000
# 3 11.4859 11.4859 18.9525 0.0000 0.0000 0.0000
# 4 0.0000 0.0000 0.0000 2.4197 0.0000 0.0000
# 5 0.0000 0.0000 0.0000 0.0000 2.4197 0.0000
# 6 0.0000 0.0000 0.0000 0.0000 0.0000 25.9962
#
#
#
# Elastic Compliance Matrix: (Units=1/GPa)
#
#
# Indices 1 2 3 4 5 6 
#
# 1 0.077522 -0.070193 -0.004442 0.000000 0.000000 0.000000
# 2 -0.070193 0.077522 -0.004442 0.000000 0.000000 0.000000
# 3 -0.004442 -0.004442 0.058147 0.000000 0.000000 0.000000
# 4 0.000000 0.000000 0.000000 0.413277 0.000000 0.000000
# 5 0.000000 0.000000 0.000000 0.000000 0.413277 0.000000
# 6 0.000000 0.000000 0.000000 0.000000 0.000000 0.038467
#
#
# Mechanical properties :
#
#
# Convention : Reuss Voigt Hill
#
# Bulk Modulus (GPa) = 18.16904 40.62444 29.39674
# Shear Modulus (GPa) = 3.98498 11.58818 7.78658
#
# Velocity S-wave (km/s) = 1.48701 2.53576 2.07862
# Velocity P-wave (km/s) = 3.60970 5.57811 4.69815
#
# Compressibility (1/GPa) = 0.05503868
#
# Stress axis : x y z
#
# Youngs Moduli (GPa) = 12.89957 12.89957 17.19766
#
# Poissons Ratio (x) = 0.90546 0.07639
# Poissons Ratio (y) = 0.90546 0.07639
# Poissons Ratio (z) = 0.05730 0.05730
#
# Static dielectric constant tensor:
#      x y z
#    x 1.629040 0.000000 0.000000 
#    y 0.000000 1.629040 0.000000 
#    z 0.000000 0.000000 1.644490 
# 
# From -- ./inp_files/8669.got.cif
#   From: 2010.05.17/outbox.cif.g08.bks.cpg/sg136_5_cif.got.tgz:8669.got - 2010.05.20 12:54:53.
