data_PCOD9569802
_publ_section_title
;
Structure prediction by ZEFSAII (Michael W. Deem and Ramdas Pophale) SiO2 
 PCOD9569802
Probable space group: P 42/M N M
;
_chemical_formula_sum "Si O2"
_cell_formula_units_Z 72
_cell_length_a 24.018835
_cell_length_b 24.018835
_cell_length_c 7.990734
_cell_angle_alpha 90.000000
_cell_angle_beta 90.000000
_cell_angle_gamma 90.000000
_cell_volume 4609.889882
_symmetry_space_group_name_H-M "P 42/M N M"
_symmetry_group_IT_number 136
_symmetry_cell_setting 'tetragonal'
loop_
_space_group_symop_operation_xyz
x,y,z
1/2-y,1/2+x,1/2+z
-x,-y,z
1/2+y,1/2-x,1/2+z
1/2+x,1/2-y,1/2-z
1/2-x,1/2+y,1/2-z
y,x,-z
-y,-x,-z
-x,-y,-z
1/2+y,1/2-x,1/2-z
x,y,-z
1/2-y,1/2+x,1/2-z
1/2-x,1/2+y,1/2+z
1/2+x,1/2-y,1/2+z
-y,-x,z
y,x,z
loop_
_atom_site_type_symbol
_atom_site_label
_atom_site_fract_x
_atom_site_fract_y
_atom_site_fract_z
Si Si1 0.301449 0.607118 0.294511
Si Si2 0.544792 0.544792 0.800041
Si Si3 0.829264 0.016078 0.199170
Si Si4 0.191032 0.286786 0.805798
Si Si5 0.630640 0.720997 0.798187
O O1 0.299854 0.607568 0.500000
O O2 0.353601 0.646400 0.247472
O O3 0.310533 0.544337 0.235863
O O4 0.244926 0.637481 0.233964
O O5 0.500000 0.500000 0.733745
O O6 0.529209 0.607170 0.747604
O O7 0.543202 0.543202 0.000000
O O8 0.790969 0.067287 0.255031
O O9 0.826978 0.013434 0.000000
O O10 0.239297 0.239297 0.806266
O O11 0.222151 0.340717 0.732965
O O12 0.177860 0.299415 0.000000
O O13 0.668982 0.668982 0.739681
O O14 0.635340 0.722247 0.000000
#
# Coordination Sequence:
#
# PCOD9569802 Si02
#       5
#    16   8  16  16  16
#     4   8  14  25  40  59  81 104 136 175 208 240
#     4  11  23  35  43  53  77 117 157 185 203 234
#     4  11  20  28  42  63  86 110 137 175 215 248
#     4   7  11  22  41  60  75  98 134 172 205 240
#     4   9  16  27  43  60  80 107 138 170 203 246
#
# _framework density 15.618594999999999
#
# number of rings (size 3 to 8) (size 9 to 14) (size 15 to 20)
#    0.000    3.000    1.111    4.333    0.000    1.778 
#    0.000    0.000    0.000    2.667    0.000    6.222 
#    0.000    0.889    0.000   11.111    0.000    0.000 
#
# Total GULP energy -400827.812929 kJ/mol
# GULP energy per Si atom -5567.052957 kJ/mol
# Density = 1.558305 g / cm^3
# Si number density = 15.618595 Si / 1000 Ang^3
#
#
#
# Elastic Constant Matrix: (Units=GPa)
#
#
# Indices 1 2 3 4 5 6 
#
# 1 114.1392 99.0014 7.8965 0.0000 0.0000 0.0000
# 2 99.0014 114.1392 7.8965 0.0000 0.0000 0.0000
# 3 7.8965 7.8965 14.9060 0.0000 0.0000 0.0000
# 4 0.0000 0.0000 0.0000 -20.6666 0.0000 0.0000
# 5 0.0000 0.0000 0.0000 0.0000 -20.6666 0.0000
# 6 0.0000 0.0000 0.0000 0.0000 0.0000 29.2517
#
#
#
# Elastic Compliance Matrix: (Units=1/GPa)
#
#
# Indices 1 2 3 4 5 6 
#
# 1 0.035471 -0.030588 -0.002587 0.000000 0.000000 0.000000
# 2 -0.030588 0.035471 -0.002587 0.000000 0.000000 0.000000
# 3 -0.002587 -0.002587 0.069828 0.000000 0.000000 0.000000
# 4 0.000000 0.000000 0.000000 -0.048387 0.000000 0.000000
# 5 0.000000 0.000000 0.000000 0.000000 -0.048387 0.000000
# 6 0.000000 0.000000 0.000000 0.000000 0.000000 0.034186
#
#
# Mechanical properties :
#
#
# Convention : Reuss Voigt Hill
#
# Bulk Modulus (GPa) = 14.44109 52.53035 33.48572
# Shear Modulus (GPa) = 28.93702 6.14302 17.54002
#
# Velocity S-wave (km/s) = 4.30900 1.98537 3.35479
# Velocity P-wave (km/s) = 5.83291 6.24194 6.04089
#
# Compressibility (1/GPa) = 0.06924684
#
# Stress axis : x y z
#
# Youngs Moduli (GPa) = 28.19167 28.19167 14.32091
#
# Poissons Ratio (x) = 0.86233 0.03705
# Poissons Ratio (y) = 0.86233 0.03705
# Poissons Ratio (z) = 0.07293 0.07293
#
# Static dielectric constant tensor:
#      x y z
#    x 1.537030 0.000000 0.000000 
#    y 0.000000 1.537030 0.000000 
#    z 0.000000 0.000000 1.569920 
# 
# From -- ./inp_files/1711.got.cif
#   From: 2010.05.17/outbox.cif.g08.bks.cpg/sg136_1_cif.got.tgz:1711.got - 2010.05.20 12:54:53.
