data_PCOD9569201
_publ_section_title
;
Structure prediction by ZEFSAII (Michael W. Deem and Ramdas Pophale) SiO2 
 PCOD9569201
Probable space group: P 42/M N M
;
_chemical_formula_sum "Si O2"
_cell_formula_units_Z 112
_cell_length_a 22.192184
_cell_length_b 22.192184
_cell_length_c 13.037377
_cell_angle_alpha 90.000000
_cell_angle_beta 90.000000
_cell_angle_gamma 90.000000
_cell_volume 6420.817311
_symmetry_space_group_name_H-M "P 42/M N M"
_symmetry_group_IT_number 136
_symmetry_cell_setting 'tetragonal'
loop_
_space_group_symop_operation_xyz
x,y,z
1/2-y,1/2+x,1/2+z
-x,-y,z
1/2+y,1/2-x,1/2+z
1/2+x,1/2-y,1/2-z
1/2-x,1/2+y,1/2-z
y,x,-z
-y,-x,-z
-x,-y,-z
1/2+y,1/2-x,1/2-z
x,y,-z
1/2-y,1/2+x,1/2-z
1/2-x,1/2+y,1/2+z
1/2+x,1/2-y,1/2+z
-y,-x,z
y,x,z
loop_
_atom_site_type_symbol
_atom_site_label
_atom_site_fract_x
_atom_site_fract_y
_atom_site_fract_z
Si Si1 0.085833 0.572613 0.890313
Si Si2 0.674730 0.188502 0.112806
Si Si3 0.852036 0.755203 0.179753
Si Si4 0.215043 0.364565 0.882309
Si Si5 0.709607 0.615120 0.688193
Si Si6 0.637539 0.032168 0.717841
Si Si7 0.261671 0.009529 0.878664
O O1 0.133239 0.627548 0.887836
O O2 0.122962 0.512375 0.873540
O O3 0.046900 0.581217 0.789396
O O4 0.053796 0.573290 0.000000
O O5 0.655197 0.234272 0.201477
O O6 0.738844 0.156892 0.135109
O O7 0.675085 0.216156 0.000000
O O8 0.817682 0.817682 0.163370
O O9 0.813134 0.702292 0.124916
O O10 0.921421 0.757257 0.144074
O O11 0.271896 0.376149 0.807897
O O12 0.165069 0.407999 0.831601
O O13 0.227309 0.379183 0.000000
O O14 0.645596 0.645596 0.667963
O O15 0.717351 0.546488 0.649892
O O16 0.683623 0.003343 0.800078
O O17 0.276854 0.004292 0.000000
#
# Coordination Sequence:
#
# PCOD9569201 Si02
#       7
#    16  16  16  16  16  16  16
#     4  11  21  35  55  75 103 144 186 227 266 307
#     4  10  18  33  56  81 106 135 168 216 272 312
#     4  11  22  36  53  80 109 137 177 221 265 322
#     4  10  19  33  54  80 111 144 176 218 269 318
#     4  10  21  35  54  82 109 135 177 223 264 317
#     4  11  20  37  53  77 107 143 186 228 262 313
#     4  11  21  35  54  76 105 142 176 215 270 326
#
# _framework density 17.443262000000001
#
# number of rings (size 3 to 8) (size 9 to 14) (size 15 to 20)
#    0.000    1.429    5.714    3.429    0.000    4.286 
#    0.000    2.857    0.000    0.429    0.000    1.000 
#    0.000    0.000    0.000    5.000    0.000    0.000 
#
# Total GULP energy -624529.470081 kJ/mol
# GULP energy per Si atom -5576.155983 kJ/mol
# Density = 1.740356 g / cm^3
# Si number density = 17.443262 Si / 1000 Ang^3
#
#
#
# Elastic Constant Matrix: (Units=GPa)
#
#
# Indices 1 2 3 4 5 6 
#
# 1 52.4475 44.3482 12.4800 0.0000 0.0000 0.0000
# 2 44.3482 52.4475 12.4800 0.0000 0.0000 0.0000
# 3 12.4800 12.4800 110.7775 0.0000 0.0000 0.0000
# 4 0.0000 0.0000 0.0000 -9.5412 0.0000 0.0000
# 5 0.0000 0.0000 0.0000 0.0000 -9.5412 0.0000
# 6 0.0000 0.0000 0.0000 0.0000 0.0000 13.4888
#
#
#
# Elastic Compliance Matrix: (Units=1/GPa)
#
#
# Indices 1 2 3 4 5 6 
#
# 1 0.067054 -0.056414 -0.001199 0.000000 0.000000 0.000000
# 2 -0.056414 0.067054 -0.001199 0.000000 0.000000 0.000000
# 3 -0.001199 -0.001199 0.009297 0.000000 0.000000 0.000000
# 4 0.000000 0.000000 0.000000 -0.104808 0.000000 0.000000
# 5 0.000000 0.000000 0.000000 0.000000 -0.104808 0.000000
# 6 0.000000 0.000000 0.000000 0.000000 0.000000 0.074136
#
#
# Mechanical properties :
#
#
# Convention : Reuss Voigt Hill
#
# Bulk Modulus (GPa) = 38.78576 39.36545 39.07561
# Shear Modulus (GPa) = 37.27387 8.63887 22.95637
#
# Velocity S-wave (km/s) = 4.62764 2.22785 3.63169
# Velocity P-wave (km/s) = 7.13001 5.40689 6.32738
#
# Compressibility (1/GPa) = 0.02578266
#
# Stress axis : x y z
#
# Youngs Moduli (GPa) = 14.91328 14.91328 107.55931
#
# Poissons Ratio (x) = 0.84132 0.12893
# Poissons Ratio (y) = 0.84132 0.12893
# Poissons Ratio (z) = 0.01788 0.01788
#
# Static dielectric constant tensor:
#      x y z
#    x 1.603460 0.000000 0.000000 
#    y 0.000000 1.603460 0.000000 
#    z 0.000000 0.000000 1.637730 
# 
# From -- ./inp_files/4032.got.cif
#   From: 2010.05.17/outbox.cif.g08.bks.cpg/sg136_3_cif.got.tgz:4032.got - 2010.05.20 12:54:53.
