data_PCOD9569717
_publ_section_title
;
Structure prediction by ZEFSAII (Michael W. Deem and Ramdas Pophale) SiO2 
 PCOD9569717
Probable space group: P 42/M N M
;
_chemical_formula_sum "Si O2"
_cell_formula_units_Z 80
_cell_length_a 11.160919
_cell_length_b 11.160919
_cell_length_c 29.358794
_cell_angle_alpha 90.000000
_cell_angle_beta 90.000000
_cell_angle_gamma 90.000000
_cell_volume 3657.110849
_symmetry_space_group_name_H-M "P 42/M N M"
_symmetry_group_IT_number 136
_symmetry_cell_setting 'tetragonal'
loop_
_space_group_symop_operation_xyz
x,y,z
1/2-y,1/2+x,1/2+z
-x,-y,z
1/2+y,1/2-x,1/2+z
1/2+x,1/2-y,1/2-z
1/2-x,1/2+y,1/2-z
y,x,-z
-y,-x,-z
-x,-y,-z
1/2+y,1/2-x,1/2-z
x,y,-z
1/2-y,1/2+x,1/2-z
1/2-x,1/2+y,1/2+z
1/2+x,1/2-y,1/2+z
-y,-x,z
y,x,z
loop_
_atom_site_type_symbol
_atom_site_label
_atom_site_fract_x
_atom_site_fract_y
_atom_site_fract_z
Si Si1 0.698818 0.494748 0.607014
Si Si2 0.946747 0.759549 0.287119
Si Si3 0.863815 0.657821 0.448683
Si Si4 0.643243 0.024599 0.807696
Si Si5 0.195291 0.988251 0.381641
O O1 0.620816 0.379185 0.594509
O O2 0.602121 0.602121 0.615858
O O3 0.789655 0.544211 0.569096
O O4 0.778394 0.472281 0.651804
O O5 0.885463 0.885463 0.276680
O O6 0.851070 0.668124 0.308988
O O7 0.037633 0.771739 0.329050
O O8 0.987993 0.698415 0.240766
O O9 0.908979 0.642503 0.500000
O O10 0.767555 0.767555 0.449302
O O11 0.964955 0.696857 0.412572
O O12 0.500000 0.000000 0.810466
O O13 0.097161 0.097161 0.379068
O O14 0.125118 0.874883 0.401387
#
# Coordination Sequence:
#
# PCOD9569717 Si02
#       5
#    16  16  16  16  16
#     4  10  21  38  61  89 121 159 206 259 315 377
#     4  11  21  36  56  80 114 153 199 250 303 370
#     4   9  17  31  55  87 122 157 197 257 324 378
#     4  12  22  39  55  83 118 156 202 245 305 370
#     4   9  18  32  51  79 117 158 203 258 317 378
#
# _framework density 21.875191000000001
#
# number of rings (size 3 to 8) (size 9 to 14) (size 15 to 20)
#    0.000    1.800    4.000    1.200    0.000    2.400 
#    0.000    6.000    0.000    0.600    0.000    0.000 
#    0.000    0.000    0.000    0.000    0.000    0.000 
#
# Total GULP energy -446545.782236 kJ/mol
# GULP energy per Si atom -5581.822278 kJ/mol
# Density = 2.182540 g / cm^3
# Si number density = 21.875191 Si / 1000 Ang^3
#
#
#
# Elastic Constant Matrix: (Units=GPa)
#
#
# Indices 1 2 3 4 5 6 
#
# 1 71.3757 39.4795 33.7648 0.0000 0.0000 0.0000
# 2 39.4795 71.3757 33.7648 0.0000 0.0000 0.0000
# 3 33.7648 33.7648 112.8101 0.0000 0.0000 0.0000
# 4 0.0000 0.0000 0.0000 15.6866 0.0000 0.0000
# 5 0.0000 0.0000 0.0000 0.0000 15.6866 0.0000
# 6 0.0000 0.0000 0.0000 0.0000 0.0000 40.5222
#
#
#
# Elastic Compliance Matrix: (Units=1/GPa)
#
#
# Indices 1 2 3 4 5 6 
#
# 1 0.021192 -0.010160 -0.003302 0.000000 0.000000 0.000000
# 2 -0.010160 0.021192 -0.003302 0.000000 0.000000 0.000000
# 3 -0.003302 -0.003302 0.010841 0.000000 0.000000 0.000000
# 4 0.000000 0.000000 0.000000 0.063749 0.000000 0.000000
# 5 0.000000 0.000000 0.000000 0.000000 0.063749 0.000000
# 6 0.000000 0.000000 0.000000 0.000000 0.000000 0.024678
#
#
# Mechanical properties :
#
#
# Convention : Reuss Voigt Hill
#
# Bulk Modulus (GPa) = 50.76784 52.17554 51.47169
# Shear Modulus (GPa) = 20.36712 24.28256 22.32484
#
# Velocity S-wave (km/s) = 3.05464 3.33536 3.19808
# Velocity P-wave (km/s) = 5.97490 6.22383 6.10063
#
# Compressibility (1/GPa) = 0.01969751
#
# Stress axis : x y z
#
# Youngs Moduli (GPa) = 47.18771 47.18771 92.24162
#
# Poissons Ratio (x) = 0.47941 0.30458
# Poissons Ratio (y) = 0.47941 0.30458
# Poissons Ratio (z) = 0.15582 0.15582
#
# Static dielectric constant tensor:
#      x y z
#    x 1.846710 0.000000 0.000000 
#    y 0.000000 1.846710 0.000000 
#    z 0.000000 0.000000 1.791230 
# 
# From -- ./inp_files/9552.got.cif
#   From: 2010.05.17/outbox.cif.g08.bks.cpg/sg136_5_cif.got.tgz:9552.got - 2010.05.20 12:54:53.
