data_PCOD9569686
_publ_section_title
;
Structure prediction by ZEFSAII (Michael W. Deem and Ramdas Pophale) SiO2 
 PCOD9569686
Probable space group: P 42/M N M
;
_chemical_formula_sum "Si O2"
_cell_formula_units_Z 104
_cell_length_a 18.573990
_cell_length_b 18.573990
_cell_length_c 16.385240
_cell_angle_alpha 90.000000
_cell_angle_beta 90.000000
_cell_angle_gamma 90.000000
_cell_volume 5652.794816
_symmetry_space_group_name_H-M "P 42/M N M"
_symmetry_group_IT_number 136
_symmetry_cell_setting 'tetragonal'
loop_
_space_group_symop_operation_xyz
x,y,z
1/2-y,1/2+x,1/2+z
-x,-y,z
1/2+y,1/2-x,1/2+z
1/2+x,1/2-y,1/2-z
1/2-x,1/2+y,1/2-z
y,x,-z
-y,-x,-z
-x,-y,-z
1/2+y,1/2-x,1/2-z
x,y,-z
1/2-y,1/2+x,1/2-z
1/2-x,1/2+y,1/2+z
1/2+x,1/2-y,1/2+z
-y,-x,z
y,x,z
loop_
_atom_site_type_symbol
_atom_site_label
_atom_site_fract_x
_atom_site_fract_y
_atom_site_fract_z
Si Si1 0.383330 0.495711 0.000000
Si Si2 0.166083 0.557271 0.907263
Si Si3 0.355371 0.240111 0.092261
Si Si4 0.401925 0.908674 0.347165
Si Si5 0.845552 0.559303 0.666678
Si Si6 0.179842 0.060468 0.336533
Si Si7 0.692551 0.573537 0.744776
O O1 0.343671 0.518385 0.918229
O O2 0.415050 0.415050 0.000000
O O3 0.450950 0.549051 0.000000
O O4 0.118165 0.486988 0.884857
O O5 0.116196 0.626610 0.898522
O O6 0.234011 0.566893 0.846769
O O7 0.191751 0.549664 0.000000
O O8 0.278424 0.278424 0.094677
O O9 0.355948 0.156061 0.111661
O O10 0.399878 0.275026 0.167137
O O11 0.384753 0.251586 0.000000
O O12 0.481141 0.876758 0.355964
O O13 0.384630 0.917932 0.251491
O O14 0.760818 0.565486 0.685141
O O15 0.134303 0.134303 0.332035
O O16 0.162485 0.006007 0.263038
O O17 0.631842 0.631842 0.721653
#
# Coordination Sequence:
#
# PCOD9569686 Si02
#       7
#     8  16  16  16  16  16  16
#     4   9  18  30  48  76 111 152 188 222 271 330
#     4  12  24  37  57  86 118 156 201 244 291 353
#     4   9  18  32  53  80 111 143 181 233 287 342
#     4  11  20  35  57  77 113 153 195 242 291 348
#     4  11  22  38  57  80 109 154 196 246 294 340
#     4  11  21  35  54  81 120 155 190 236 284 346
#     4  10  21  37  57  82 113 152 195 237 288 348
#
# _framework density 18.39798
#
# number of rings (size 3 to 8) (size 9 to 14) (size 15 to 20)
#    0.000    1.462    5.385    1.385    1.077    3.385 
#    0.000    3.846    0.000    0.000    0.000    0.000 
#    0.000    0.000    0.000    3.077    0.000    0.000 
#
# Total GULP energy -580021.112911 kJ/mol
# GULP energy per Si atom -5577.126086 kJ/mol
# Density = 1.835611 g / cm^3
# Si number density = 18.397980 Si / 1000 Ang^3
#
#
#
# Elastic Constant Matrix: (Units=GPa)
#
#
# Indices 1 2 3 4 5 6 
#
# 1 112.6439 76.9459 20.3956 0.0000 0.0000 0.0000
# 2 76.9459 112.6443 20.3955 0.0000 0.0000 0.0000
# 3 20.3956 20.3955 28.7742 0.0000 0.0000 0.0000
# 4 0.0000 0.0000 0.0000 21.5600 0.0000 0.0000
# 5 0.0000 0.0000 0.0000 0.0000 21.5608 0.0000
# 6 0.0000 0.0000 0.0000 0.0000 0.0000 27.8457
#
#
#
# Elastic Compliance Matrix: (Units=1/GPa)
#
#
# Indices 1 2 3 4 5 6 
#
# 1 0.017118 -0.010894 -0.004411 0.000000 0.000000 0.000000
# 2 -0.010894 0.017118 -0.004411 0.000000 0.000000 0.000000
# 3 -0.004411 -0.004411 0.041007 0.000000 0.000000 0.000000
# 4 0.000000 0.000000 0.000000 0.046382 0.000000 0.000000
# 5 0.000000 0.000000 0.000000 0.000000 0.046380 0.000000
# 6 0.000000 0.000000 0.000000 0.000000 0.000000 0.035912
#
#
# Mechanical properties :
#
#
# Convention : Reuss Voigt Hill
#
# Bulk Modulus (GPa) = 27.92611 54.39292 41.15952
# Shear Modulus (GPa) = 19.58564 23.28167 21.43366
#
# Velocity S-wave (km/s) = 3.26629 3.56117 3.41691
# Velocity P-wave (km/s) = 5.42556 6.82188 6.16339
#
# Compressibility (1/GPa) = 0.03580878
#
# Stress axis : x y z
#
# Youngs Moduli (GPa) = 58.41738 58.41762 24.38600
#
# Poissons Ratio (x) = 0.63643 0.10758
# Poissons Ratio (y) = 0.63643 0.10758
# Poissons Ratio (z) = 0.25771 0.25770
#
# Static dielectric constant tensor:
#      x y z
#    x 1.667000 0.000000 0.000000 
#    y 0.000000 1.667000 0.000000 
#    z 0.000000 0.000000 1.645950 
# 
# From -- ./inp_files/6419.got.cif
#   From: 2010.05.17/outbox.cif.g08.bks.cpg/sg136_4_cif.got.tgz:6419.got - 2010.05.20 12:54:53.
