data_PCOD9569103
_publ_section_title
;
Structure prediction by ZEFSAII (Michael W. Deem and Ramdas Pophale) SiO2 
 PCOD9569103
Probable space group: P 42/M N M
;
_chemical_formula_sum "Si O2"
_cell_formula_units_Z 52
_cell_length_a 10.198038
_cell_length_b 10.198038
_cell_length_c 18.595471
_cell_angle_alpha 90.000000
_cell_angle_beta 90.000000
_cell_angle_gamma 90.000000
_cell_volume 1933.928594
_symmetry_space_group_name_H-M "P 42/M N M"
_symmetry_group_IT_number 136
_symmetry_cell_setting 'tetragonal'
loop_
_space_group_symop_operation_xyz
x,y,z
1/2-y,1/2+x,1/2+z
-x,-y,z
1/2+y,1/2-x,1/2+z
1/2+x,1/2-y,1/2-z
1/2-x,1/2+y,1/2-z
y,x,-z
-y,-x,-z
-x,-y,-z
1/2+y,1/2-x,1/2-z
x,y,-z
1/2-y,1/2+x,1/2-z
1/2-x,1/2+y,1/2+z
1/2+x,1/2-y,1/2+z
-y,-x,z
y,x,z
loop_
_atom_site_type_symbol
_atom_site_label
_atom_site_fract_x
_atom_site_fract_y
_atom_site_fract_z
Si Si1 0.473022 0.252715 0.423349
Si Si2 0.314386 0.314386 0.000000
Si Si3 0.239112 0.540839 0.108473
Si Si4 0.286895 0.495262 0.265141
O O1 0.547690 0.254060 0.500000
O O2 0.388369 0.388369 0.421634
O O3 0.369918 0.135556 0.423653
O O4 0.533380 0.239312 0.344530
O O5 0.410614 0.250822 0.936884
O O6 0.375964 0.624037 0.102615
O O7 0.206112 0.515147 0.192541
O O8 0.407473 0.592528 0.253769
O O9 0.347245 0.347245 0.267446
#
# Coordination Sequence:
#
# PCOD9569103 Si02
#       4
#    16   4  16  16
#     4   9  17  28  43  68 100 133 170 211 257 309
#     4  12  17  24  48  80 108 126 164 229 278 319
#     4  10  17  26  44  73 103 131 163 212 272 317
#     4   9  17  28  43  68 100 133 171 210 253 309
#
# _framework density 26.888275
#
# number of rings (size 3 to 8) (size 9 to 14) (size 15 to 20)
#    0.000    2.462    3.077    1.385    0.000    0.615 
#    0.000    3.077    0.000    0.923    4.000    2.154 
#    0.000    0.000    0.000    0.000    0.000    0.000 
#
# Total GULP energy -289807.292287 kJ/mol
# GULP energy per Si atom -5573.217159 kJ/mol
# Density = 2.682708 g / cm^3
# Si number density = 26.888275 Si / 1000 Ang^3
#
#
#
# Elastic Constant Matrix: (Units=GPa)
#
#
# Indices 1 2 3 4 5 6 
#
# 1 11.2970 68.5437 27.2241 0.0000 0.0000 0.0000
# 2 68.5437 11.2970 27.2241 0.0000 0.0000 0.0000
# 3 27.2241 27.2241 324.5136 0.0000 0.0000 0.0000
# 4 0.0000 0.0000 0.0000 17.0342 0.0000 0.0000
# 5 0.0000 0.0000 0.0000 0.0000 17.0342 0.0000
# 6 0.0000 0.0000 0.0000 0.0000 0.0000 46.7580
#
#
#
# Elastic Compliance Matrix: (Units=1/GPa)
#
#
# Indices 1 2 3 4 5 6 
#
# 1 -0.002092 0.015377 -0.001115 0.000000 0.000000 0.000000
# 2 0.015377 -0.002092 -0.001115 0.000000 0.000000 0.000000
# 3 -0.001115 -0.001115 0.003269 0.000000 0.000000 0.000000
# 4 0.000000 0.000000 0.000000 0.058705 0.000000 0.000000
# 5 0.000000 0.000000 0.000000 0.000000 0.058705 0.000000
# 6 0.000000 0.000000 0.000000 0.000000 0.000000 0.021387
#
#
# Mechanical properties :
#
#
# Convention : Reuss Voigt Hill
#
# Bulk Modulus (GPa) = 39.40035 65.89905 52.64970
# Shear Modulus (GPa) = 41.65017 31.10633 36.37825
#
# Velocity S-wave (km/s) = 3.94001 3.40497 3.68223
# Velocity P-wave (km/s) = 5.94840 6.32615 6.14018
#
# Compressibility (1/GPa) = 0.02538049
#
# Stress axis : x y z
#
# Youngs Moduli (GPa) = -478.09581 -478.09581 305.94784
#
# Poissons Ratio (x) = 7.35150 0.34098
# Poissons Ratio (y) = 7.35150 0.34098
# Poissons Ratio (z) = -0.53284 -0.53284
#
# Static dielectric constant tensor:
#      x y z
#    x 2.132900 0.000000 0.000000 
#    y 0.000000 2.132900 0.000000 
#    z 0.000000 0.000000 2.081290 
# 
# From -- ./inp_files/6937.got.cif
#   From: 2010.05.17/outbox.cif.g08.bks.cpg/sg136_4_cif.got.tgz:6937.got - 2010.05.20 12:54:53.
