data_PCOD9569143
_publ_section_title
;
Structure prediction by ZEFSAII (Michael W. Deem and Ramdas Pophale) SiO2 
 PCOD9569143
Probable space group: P 42/M N M
;
_chemical_formula_sum "Si O2"
_cell_formula_units_Z 96
_cell_length_a 13.612389
_cell_length_b 13.612389
_cell_length_c 33.030392
_cell_angle_alpha 90.000000
_cell_angle_beta 90.000000
_cell_angle_gamma 90.000000
_cell_volume 6120.436982
_symmetry_space_group_name_H-M "P 42/M N M"
_symmetry_group_IT_number 136
_symmetry_cell_setting 'tetragonal'
loop_
_space_group_symop_operation_xyz
x,y,z
1/2-y,1/2+x,1/2+z
-x,-y,z
1/2+y,1/2-x,1/2+z
1/2+x,1/2-y,1/2-z
1/2-x,1/2+y,1/2-z
y,x,-z
-y,-x,-z
-x,-y,-z
1/2+y,1/2-x,1/2-z
x,y,-z
1/2-y,1/2+x,1/2-z
1/2-x,1/2+y,1/2+z
1/2+x,1/2-y,1/2+z
-y,-x,z
y,x,z
loop_
_atom_site_type_symbol
_atom_site_label
_atom_site_fract_x
_atom_site_fract_y
_atom_site_fract_z
Si Si1 0.658098 0.493652 0.790864
Si Si2 0.797373 0.636219 0.661549
Si Si3 0.556637 0.103469 0.671482
Si Si4 0.640483 0.803506 0.243940
Si Si5 0.491709 0.775342 0.127827
Si Si6 0.665369 0.498611 0.954826
O O1 0.613415 0.386586 0.781404
O O2 0.570696 0.570696 0.785214
O O3 0.744901 0.538177 0.763871
O O4 0.691893 0.498719 0.837533
O O5 0.693909 0.693909 0.656277
O O6 0.813742 0.519466 0.656238
O O7 0.827442 0.651187 0.708825
O O8 0.881317 0.684246 0.633955
O O9 0.607643 0.136952 0.712826
O O10 0.500000 0.000000 0.678859
O O11 0.641998 0.070889 0.640448
O O12 0.727720 0.727720 0.233060
O O13 0.506377 0.737084 0.082906
O O14 0.599596 0.400405 0.950537
O O15 0.588298 0.588298 0.953172
O O16 0.710095 0.498211 0.000000
#
# Coordination Sequence:
#
# PCOD9569143 Si02
#       6
#    16  16  16  16  16  16
#     4   9  16  26  41  62  88 117 148 188 235 279
#     4  10  20  31  44  62  86 121 165 208 245 286
#     4   9  20  30  47  65  89 125 161 200 247 288
#     4   9  19  31  43  64  89 117 160 206 246 288
#     4  10  18  29  45  68  92 122 159 193 230 288
#     4   9  17  29  48  76 107 132 151 182 239 308
#
# _framework density 15.685155
#
# number of rings (size 3 to 8) (size 9 to 14) (size 15 to 20)
#    0.000    2.667    0.000    2.500    7.000    2.000 
#    0.000    0.000    0.000    5.000    0.000    0.000 
#    0.000    0.000    0.000    1.833    0.000    0.000 
#
# Total GULP energy -534939.223026 kJ/mol
# GULP energy per Si atom -5572.283573 kJ/mol
# Density = 1.564946 g / cm^3
# Si number density = 15.685155 Si / 1000 Ang^3
#
#
#
# Elastic Constant Matrix: (Units=GPa)
#
#
# Indices 1 2 3 4 5 6 
#
# 1 68.8879 29.5369 30.7262 0.0000 0.0000 0.0000
# 2 29.5369 68.8879 30.7262 0.0000 0.0000 0.0000
# 3 30.7262 30.7262 92.0719 0.0000 0.0000 0.0000
# 4 0.0000 0.0000 0.0000 20.6851 0.0000 0.0000
# 5 0.0000 0.0000 0.0000 0.0000 20.6851 0.0000
# 6 0.0000 0.0000 0.0000 0.0000 0.0000 33.8575
#
#
#
# Elastic Compliance Matrix: (Units=1/GPa)
#
#
# Indices 1 2 3 4 5 6 
#
# 1 0.019123 -0.006289 -0.004283 0.000000 0.000000 0.000000
# 2 -0.006289 0.019123 -0.004283 0.000000 0.000000 0.000000
# 3 -0.004283 -0.004283 0.013720 0.000000 0.000000 0.000000
# 4 0.000000 0.000000 0.000000 0.048344 0.000000 0.000000
# 5 0.000000 0.000000 0.000000 0.000000 0.048344 0.000000
# 6 0.000000 0.000000 0.000000 0.000000 0.000000 0.029536
#
#
# Mechanical properties :
#
#
# Convention : Reuss Voigt Hill
#
# Bulk Modulus (GPa) = 44.93166 45.75848 45.34507
# Shear Modulus (GPa) = 23.22138 24.30275 23.76207
#
# Velocity S-wave (km/s) = 3.85186 3.94053 3.89645
# Velocity P-wave (km/s) = 6.96352 7.06683 7.01537
#
# Compressibility (1/GPa) = 0.02225602
#
# Stress axis : x y z
#
# Youngs Moduli (GPa) = 52.29238 52.29238 72.88773
#
# Poissons Ratio (x) = 0.32887 0.31218
# Poissons Ratio (y) = 0.32887 0.31218
# Poissons Ratio (z) = 0.22397 0.22397
#
# Static dielectric constant tensor:
#      x y z
#    x 1.571820 0.000000 0.000000 
#    y 0.000000 1.571820 0.000000 
#    z 0.000000 0.000000 1.487650 
# 
# From -- ./inp_files/9883.got.cif
#   From: 2010.05.17/outbox.cif.g08.bks.cpg/sg136_5_cif.got.tgz:9883.got - 2010.05.20 12:54:53.
