data_PCOD9569009
_publ_section_title
;
Structure prediction by ZEFSAII (Michael W. Deem and Ramdas Pophale) SiO2 
 PCOD9569009
Probable space group: P 42/M B C
;
_chemical_formula_sum "Si O2"
_cell_formula_units_Z 96
_cell_length_a 15.076237
_cell_length_b 15.076237
_cell_length_c 22.747853
_cell_angle_alpha 90.000000
_cell_angle_beta 90.000000
_cell_angle_gamma 90.000000
_cell_volume 5170.425979
_symmetry_space_group_name_H-M "P 42/M B C"
_symmetry_group_IT_number 135
_symmetry_cell_setting 'tetragonal'
loop_
_space_group_symop_operation_xyz
x,y,z
-y,x,1/2+z
-x,-y,z
y,-x,1/2+z
1/2+x,1/2-y,-z
1/2-x,1/2+y,-z
1/2+y,1/2+x,1/2-z
1/2-y,1/2-x,1/2-z
-x,-y,-z
y,-x,1/2-z
x,y,-z
-y,x,1/2-z
1/2-x,1/2+y,z
1/2+x,1/2-y,z
1/2-y,1/2-x,1/2+z
1/2+y,1/2+x,1/2+z
loop_
_atom_site_type_symbol
_atom_site_label
_atom_site_fract_x
_atom_site_fract_y
_atom_site_fract_z
Si Si1 0.854699 0.017910 0.500000
Si Si2 0.144901 0.975465 0.000000
Si Si3 0.816153 0.167787 0.820399
Si Si4 0.239548 0.007504 0.380118
Si Si5 0.489674 0.259243 0.379521
Si Si6 0.832263 0.815392 0.818647
Si Si7 0.924469 0.425191 0.430453
O O1 0.800300 0.029368 0.440897
O O2 0.890456 0.917667 0.500000
O O3 0.938379 0.082298 0.500000
O O4 0.201797 0.979423 0.941675
O O5 0.906906 0.186359 0.855848
O O6 0.834666 0.170615 0.750817
O O7 0.745528 0.245548 0.833519
O O8 0.772565 0.073786 0.837246
O O9 0.338125 0.038217 0.396943
O O10 0.228019 0.926520 0.335093
O O11 0.405983 0.313312 0.353830
O O12 0.459120 0.159895 0.394616
O O13 0.904680 0.403826 0.500000
O O14 0.000000 0.500000 0.430755
#
# Coordination Sequence:
#
# PCOD9569009 Si02
#       7
#     8   8  16  16  16  16  16
#     4  11  22  37  60  95 131 162 194 257 327 382
#     4  11  22  37  60  95 131 162 194 257 327 382
#     4  11  25  43  64  91 126 168 217 265 311 371
#     4  12  22  42  66  93 128 166 212 259 320 376
#     4  12  22  42  66  93 128 166 212 259 320 376
#     4  11  25  43  64  91 126 168 217 265 311 371
#     4  11  24  40  63  97 135 170 206 254 317 387
#
# _framework density 18.567135
#
# number of rings (size 3 to 8) (size 9 to 14) (size 15 to 20)
#    0.000    0.667    6.667    2.000    0.000    0.667 
#    0.000    3.333    0.000    4.000    0.000    0.000 
#    0.000    0.000    0.000    0.000    0.000    0.000 
#
# Total GULP energy -536298.746208 kJ/mol
# GULP energy per Si atom -5586.445273 kJ/mol
# Density = 1.852488 g / cm^3
# Si number density = 18.567135 Si / 1000 Ang^3
#
#
#
# Elastic Constant Matrix: (Units=GPa)
#
#
# Indices 1 2 3 4 5 6 
#
# 1 61.6215 -10.7040 5.7528 0.0000 0.0000 0.0000
# 2 -10.7040 61.6215 5.7528 0.0000 0.0000 0.0000
# 3 5.7528 5.7528 53.7717 0.0000 0.0000 0.0000
# 4 0.0000 0.0000 0.0000 28.3906 0.0000 0.0000
# 5 0.0000 0.0000 0.0000 0.0000 28.3906 0.0000
# 6 0.0000 0.0000 0.0000 0.0000 0.0000 28.9141
#
#
#
# Elastic Compliance Matrix: (Units=1/GPa)
#
#
# Indices 1 2 3 4 5 6 
#
# 1 0.016976 0.003150 -0.002153 0.000000 0.000000 0.000000
# 2 0.003150 0.016976 -0.002153 0.000000 0.000000 0.000000
# 3 -0.002153 -0.002153 0.019058 0.000000 0.000000 0.000000
# 4 0.000000 0.000000 0.000000 0.035223 0.000000 0.000000
# 5 0.000000 0.000000 0.000000 0.000000 0.035223 0.000000
# 6 0.000000 0.000000 0.000000 0.000000 0.000000 0.034585
#
#
# Mechanical properties :
#
#
# Convention : Reuss Voigt Hill
#
# Bulk Modulus (GPa) = 19.72490 19.84644 19.78567
# Shear Modulus (GPa) = 28.20817 28.88660 28.54739
#
# Velocity S-wave (km/s) = 3.90199 3.94863 3.92538
# Velocity P-wave (km/s) = 5.56303 5.61259 5.58786
#
# Compressibility (1/GPa) = 0.05069734
#
# Stress axis : x y z
#
# Youngs Moduli (GPa) = 58.90575 58.90575 52.47180
#
# Poissons Ratio (x) = -0.18555 0.11298
# Poissons Ratio (y) = -0.18555 0.11298
# Poissons Ratio (z) = 0.12684 0.12684
#
# Static dielectric constant tensor:
#      x y z
#    x 1.618210 0.000000 0.000000 
#    y 0.000000 1.618210 0.000000 
#    z 0.000000 0.000000 1.621360 
# 
# From -- ./inp_files/5499.got.cif
#   From: 2010.05.17/outbox.cif.g08.bks.cpg/sg135_3_cif.got.tgz:5499.got - 2010.05.20 12:50:20.
