data_PCOD9569549
_publ_section_title
;
Structure prediction by ZEFSAII (Michael W. Deem and Ramdas Pophale) SiO2 
 PCOD9569549
Probable space group: P 42/M N M
;
_chemical_formula_sum "Si O2"
_cell_formula_units_Z 84
_cell_length_a 14.522094
_cell_length_b 14.522094
_cell_length_c 20.861320
_cell_angle_alpha 90.000000
_cell_angle_beta 90.000000
_cell_angle_gamma 90.000000
_cell_volume 4399.469103
_symmetry_space_group_name_H-M "P 42/M N M"
_symmetry_group_IT_number 136
_symmetry_cell_setting 'tetragonal'
loop_
_space_group_symop_operation_xyz
x,y,z
1/2-y,1/2+x,1/2+z
-x,-y,z
1/2+y,1/2-x,1/2+z
1/2+x,1/2-y,1/2-z
1/2-x,1/2+y,1/2-z
y,x,-z
-y,-x,-z
-x,-y,-z
1/2+y,1/2-x,1/2-z
x,y,-z
1/2-y,1/2+x,1/2-z
1/2-x,1/2+y,1/2+z
1/2+x,1/2-y,1/2+z
-y,-x,z
y,x,z
loop_
_atom_site_type_symbol
_atom_site_label
_atom_site_fract_x
_atom_site_fract_y
_atom_site_fract_z
Si Si1 0.149694 0.574913 0.644629
Si Si2 0.905827 0.240832 0.820282
Si Si3 0.105847 0.529052 0.500000
Si Si4 0.732388 0.592365 0.170746
Si Si5 0.811571 0.667936 0.500000
Si Si6 0.500000 0.000000 0.750000
Si Si7 0.384822 0.762702 0.134282
O O1 0.234191 0.503402 0.648894
O O2 0.118676 0.574702 0.569979
O O3 0.160488 0.681354 0.661778
O O4 0.077070 0.538254 0.699565
O O5 0.842016 0.157985 0.847564
O O6 0.922277 0.220055 0.746316
O O7 0.842114 0.332498 0.825770
O O8 0.173054 0.440394 0.500000
O O9 0.000000 0.500000 0.500000
O O10 0.641380 0.641380 0.144122
O O11 0.757225 0.492993 0.143278
O O12 0.708361 0.708361 0.500000
O O13 0.860991 0.708643 0.437858
O O14 0.332879 0.667122 0.149271
#
# Coordination Sequence:
#
# PCOD9569549 Si02
#       7
#    16  16   8  16   8   4  16
#     4  12  21  35  56  84 116 149 188 240 289 346
#     4  10  20  35  59  86 111 144 190 239 291 343
#     4  12  22  30  52  89 118 138 184 233 290 345
#     4  11  23  37  55  81 113 156 200 233 277 342
#     4  10  20  36  58  84 110 142 180 228 290 350
#     4  12  20  34  60  80 112 150 184 236 304 346
#     4  10  20  37  58  84 115 143 183 238 290 345
#
# _framework density 19.093212999999999
#
# number of rings (size 3 to 8) (size 9 to 14) (size 15 to 20)
#    0.000    1.143    4.762    3.429    0.000    0.381 
#    0.000    1.905    0.000    3.429    0.000    0.000 
#    0.000    2.286    0.000    0.000    0.000    0.000 
#
# Total GULP energy -468277.582629 kJ/mol
# GULP energy per Si atom -5574.733127 kJ/mol
# Density = 1.904976 g / cm^3
# Si number density = 19.093213 Si / 1000 Ang^3
#
#
#
# Elastic Constant Matrix: (Units=GPa)
#
#
# Indices 1 2 3 4 5 6 
#
# 1 44.8671 15.8643 -3.9918 0.0000 0.0000 0.0000
# 2 15.8643 44.8671 -3.9918 0.0000 0.0000 0.0000
# 3 -3.9918 -3.9918 98.9728 0.0000 0.0000 0.0000
# 4 0.0000 0.0000 0.0000 16.8009 0.0000 0.0000
# 5 0.0000 0.0000 0.0000 0.0000 16.8009 0.0000
# 6 0.0000 0.0000 0.0000 0.0000 0.0000 14.4172
#
#
#
# Elastic Compliance Matrix: (Units=1/GPa)
#
#
# Indices 1 2 3 4 5 6 
#
# 1 0.025517 -0.008963 0.000668 0.000000 0.000000 0.000000
# 2 -0.008963 0.025517 0.000668 0.000000 0.000000 0.000000
# 3 0.000668 0.000668 0.010158 0.000000 0.000000 0.000000
# 4 0.000000 0.000000 0.000000 0.059521 0.000000 0.000000
# 5 0.000000 0.000000 0.000000 0.000000 0.059521 0.000000
# 6 0.000000 0.000000 0.000000 0.000000 0.000000 0.069362
#
#
# Mechanical properties :
#
#
# Convention : Reuss Voigt Hill
#
# Bulk Modulus (GPa) = 21.76956 22.71869 22.24412
# Shear Modulus (GPa) = 17.84691 21.65889 19.75290
#
# Velocity S-wave (km/s) = 3.06064 3.37170 3.21993
# Velocity P-wave (km/s) = 4.89045 5.20409 5.04971
#
# Compressibility (1/GPa) = 0.04593571
#
# Stress axis : x y z
#
# Youngs Moduli (GPa) = 39.19026 39.19026 98.44805
#
# Poissons Ratio (x) = 0.35126 -0.06573
# Poissons Ratio (y) = 0.35126 -0.06573
# Poissons Ratio (z) = -0.02617 -0.02617
#
# Static dielectric constant tensor:
#      x y z
#    x 1.691870 0.000000 0.000000 
#    y 0.000000 1.691870 0.000000 
#    z 0.000000 0.000000 1.719050 
# 
# From -- ./inp_files/7411.got.cif
#   From: 2010.05.17/outbox.cif.g08.bks.cpg/sg136_4_cif.got.tgz:7411.got - 2010.05.20 12:54:53.
