data_PCOD9569289
_publ_section_title
;
Structure prediction by ZEFSAII (Michael W. Deem and Ramdas Pophale) SiO2 
 PCOD9569289
Probable space group: P 42/M N M
;
_chemical_formula_sum "Si O2"
_cell_formula_units_Z 96
_cell_length_a 26.038114
_cell_length_b 26.038114
_cell_length_c 8.689305
_cell_angle_alpha 90.000000
_cell_angle_beta 90.000000
_cell_angle_gamma 90.000000
_cell_volume 5891.204380
_symmetry_space_group_name_H-M "P 42/M N M"
_symmetry_group_IT_number 136
_symmetry_cell_setting 'tetragonal'
loop_
_space_group_symop_operation_xyz
x,y,z
1/2-y,1/2+x,1/2+z
-x,-y,z
1/2+y,1/2-x,1/2+z
1/2+x,1/2-y,1/2-z
1/2-x,1/2+y,1/2-z
y,x,-z
-y,-x,-z
-x,-y,-z
1/2+y,1/2-x,1/2-z
x,y,-z
1/2-y,1/2+x,1/2-z
1/2-x,1/2+y,1/2+z
1/2+x,1/2-y,1/2+z
-y,-x,z
y,x,z
loop_
_atom_site_type_symbol
_atom_site_label
_atom_site_fract_x
_atom_site_fract_y
_atom_site_fract_z
Si Si1 0.807415 0.387923 0.813993
Si Si2 0.806926 0.108526 0.815885
Si Si3 0.112083 0.692578 0.313994
Si Si4 0.999995 0.188255 0.676845
Si Si5 0.500003 0.813023 0.176970
Si Si6 0.306934 0.608517 0.684116
O O1 0.843524 0.343530 0.750004
O O2 0.826675 0.444325 0.756353
O O3 0.748796 0.381652 0.758529
O O4 0.807800 0.388305 0.000000
O O5 0.847208 0.152793 0.773555
O O6 0.751197 0.118354 0.741463
O O7 0.826317 0.052809 0.759639
O O8 0.801168 0.107702 0.000000
O O9 0.111702 0.692189 0.500000
O O10 0.055679 0.673321 0.256354
O O11 0.999994 0.171149 0.500000
O O12 0.052799 0.173681 0.759634
O O13 0.999996 0.250746 0.675790
O O14 0.500002 0.830994 0.000000
O O15 0.301180 0.607695 0.500000
O O16 0.347218 0.652783 0.726452
#
# Coordination Sequence:
#
# PCOD9569289 Si02
#       6
#    16  16  16  16  16  16
#     4  10  19  32  50  72  98 128 163 203 248 295
#     4  10  20  33  50  73 100 130 164 201 242 289
#     4  10  19  32  50  72  98 128 163 203 248 295
#     4   9  17  31  51  72  95 126 163 201 241 287
#     4   7  14  29  47  66  89 120 158 197 235 281
#     4  10  20  33  50  73 100 130 164 201 242 289
#
# _framework density 16.295479
#
# number of rings (size 3 to 8) (size 9 to 14) (size 15 to 20)
#    0.000    2.667    0.000    4.500    0.000    3.333 
#    0.000    2.500    0.000    1.000    0.000    7.000 
#    0.000    0.000    0.000    0.000    0.000    0.000 
#
# Total GULP energy -534618.338165 kJ/mol
# GULP energy per Si atom -5568.941023 kJ/mol
# Density = 1.625839 g / cm^3
# Si number density = 16.295479 Si / 1000 Ang^3
#
#
#
# Elastic Constant Matrix: (Units=GPa)
#
#
# Indices 1 2 3 4 5 6 
#
# 1 112.9322 79.0011 41.9652 0.0000 0.0000 0.0000
# 2 79.0011 112.9322 41.9652 0.0000 0.0000 0.0000
# 3 41.9652 41.9652 59.1048 0.0000 0.0000 0.0000
# 4 0.0000 0.0000 0.0000 21.6653 0.0000 0.0000
# 5 0.0000 0.0000 0.0000 0.0000 21.6653 0.0000
# 6 0.0000 0.0000 0.0000 0.0000 0.0000 -3.4415
#
#
#
# Elastic Compliance Matrix: (Units=1/GPa)
#
#
# Indices 1 2 3 4 5 6 
#
# 1 0.018514 -0.010958 -0.005365 0.000000 0.000000 0.000000
# 2 -0.010958 0.018514 -0.005365 0.000000 0.000000 0.000000
# 3 -0.005365 -0.005365 0.024538 0.000000 0.000000 0.000000
# 4 0.000000 0.000000 0.000000 0.046157 0.000000 0.000000
# 5 0.000000 0.000000 0.000000 0.000000 0.046157 0.000000
# 6 0.000000 0.000000 0.000000 0.000000 0.000000 -0.290570
#
#
# Mechanical properties :
#
#
# Convention : Reuss Voigt Hill
#
# Bulk Modulus (GPa) = 54.97543 67.87023 61.42283
# Shear Modulus (GPa) = -57.30456 16.11367 -20.59544
#
# Velocity S-wave (km/s) = -5.93652 3.14800 -3.55896
# Velocity P-wave (km/s) = 3.63040 7.41305 4.57020
#
# Compressibility (1/GPa) = 0.01818994
#
# Stress axis : x y z
#
# Youngs Moduli (GPa) = 54.01363 54.01363 40.75387
#
# Poissons Ratio (x) = 0.59186 0.21864
# Poissons Ratio (y) = 0.59186 0.21864
# Poissons Ratio (z) = 0.28978 0.28978
#
# Static dielectric constant tensor:
#      x y z
#    x 1.545150 0.000000 0.000000 
#    y 0.000000 1.545150 0.000000 
#    z 0.000000 0.000000 1.552420 
# 
# From -- ./inp_files/1959.got.cif
#   From: 2010.05.17/outbox.cif.g08.bks.cpg/sg136_1_cif.got.tgz:1959.got - 2010.05.20 12:54:53.
