data_PCOD9569062
_publ_section_title
;
Structure prediction by ZEFSAII (Michael W. Deem and Ramdas Pophale) SiO2 
 PCOD9569062
Probable space group: P 42/M B C
;
_chemical_formula_sum "Si O2"
_cell_formula_units_Z 96
_cell_length_a 17.936522
_cell_length_b 17.936522
_cell_length_c 11.332619
_cell_angle_alpha 90.000000
_cell_angle_beta 90.000000
_cell_angle_gamma 90.000000
_cell_volume 3645.916829
_symmetry_space_group_name_H-M "P 42/M B C"
_symmetry_group_IT_number 135
_symmetry_cell_setting 'tetragonal'
loop_
_space_group_symop_operation_xyz
x,y,z
-y,x,1/2+z
-x,-y,z
y,-x,1/2+z
1/2+x,1/2-y,-z
1/2-x,1/2+y,-z
1/2+y,1/2+x,1/2-z
1/2-y,1/2-x,1/2-z
-x,-y,-z
y,-x,1/2-z
x,y,-z
-y,x,1/2-z
1/2-x,1/2+y,z
1/2+x,1/2-y,z
1/2-y,1/2-x,1/2+z
1/2+y,1/2+x,1/2+z
loop_
_atom_site_type_symbol
_atom_site_label
_atom_site_fract_x
_atom_site_fract_y
_atom_site_fract_z
Si Si1 0.555792 0.898791 0.628083
Si Si2 0.223155 0.886042 0.373439
Si Si3 0.767267 0.561405 0.870787
Si Si4 0.218506 0.678516 0.629530
Si Si5 0.947519 0.154722 0.126130
Si Si6 0.939514 0.134524 0.373044
O O1 0.557051 0.942950 0.750000
O O2 0.555062 0.937915 0.500000
O O3 0.486886 0.842233 0.633650
O O4 0.633953 0.853003 0.627471
O O5 0.264094 0.876982 0.500000
O O6 0.260912 0.887521 0.245029
O O7 0.190019 0.970701 0.378056
O O8 0.146705 0.838783 0.377203
O O9 0.701157 0.499257 0.869276
O O10 0.761556 0.598382 0.000000
O O11 0.224575 0.724575 0.750000
O O12 0.232500 0.712119 0.500000
O O13 0.276698 0.609909 0.638614
O O14 0.941397 0.102513 0.240126
O O15 0.930762 0.118470 0.000000
O O16 0.949959 0.094832 0.500000
#
# Coordination Sequence:
#
# PCOD9569062 Si02
#       6
#    16  16  16  16  16  16
#     4   9  15  22  34  51  68  84 100 120 152 192
#     4   9  16  25  37  50  62  79 104 132 162 196
#     4   9  17  27  37  50  67  84 104 132 164 197
#     4   9  15  22  34  51  68  84 100 120 152 192
#     4   9  17  27  37  50  67  84 104 132 164 197
#     4   9  16  25  37  50  62  79 104 132 162 196
#
# _framework density 26.330824
#
# number of rings (size 3 to 8) (size 9 to 14) (size 15 to 20)
#    0.000    3.000    0.000    4.000    0.000    4.667 
#    0.000    0.000    0.000    8.000    0.000   46.667 
#    0.000    0.000    0.000    0.000    0.000    0.000 
#
# Total GULP energy -535684.215398 kJ/mol
# GULP energy per Si atom -5580.043910 kJ/mol
# Density = 2.627089 g / cm^3
# Si number density = 26.330824 Si / 1000 Ang^3
#
#
#
# Elastic Constant Matrix: (Units=GPa)
#
#
# Indices 1 2 3 4 5 6 
#
# 1 63.8244 59.3938 41.6119 0.0000 0.0000 0.0000
# 2 59.3938 63.8241 41.6113 0.0000 0.0000 0.0000
# 3 41.6119 41.6113 373.8277 0.0000 0.0000 0.0000
# 4 0.0000 0.0000 0.0000 -9.1340 0.0000 0.0000
# 5 0.0000 0.0000 0.0000 0.0000 -9.1343 0.0000
# 6 0.0000 0.0000 0.0000 0.0000 0.0000 29.6382
#
#
#
# Elastic Compliance Matrix: (Units=1/GPa)
#
#
# Indices 1 2 3 4 5 6 
#
# 1 0.117243 -0.108468 -0.000977 0.000000 0.000000 0.000000
# 2 -0.108468 0.117243 -0.000977 0.000000 0.000000 0.000000
# 3 -0.000977 -0.000977 0.002892 0.000000 0.000000 0.000000
# 4 0.000000 0.000000 0.000000 -0.109481 0.000000 0.000000
# 5 0.000000 0.000000 0.000000 0.000000 -0.109477 0.000000
# 6 0.000000 0.000000 0.000000 0.000000 0.000000 0.033740
#
#
# Mechanical properties :
#
#
# Convention : Reuss Voigt Hill
#
# Bulk Modulus (GPa) = 60.47363 87.41222 73.94293
# Shear Modulus (GPa) = 17.95236 26.19793 22.07514
#
# Velocity S-wave (km/s) = 2.61396 3.15771 2.89861
# Velocity P-wave (km/s) = 5.66808 6.82382 6.27263
#
# Compressibility (1/GPa) = 0.01653613
#
# Stress axis : x y z
#
# Youngs Moduli (GPa) = 8.52931 8.52928 345.72265
#
# Poissons Ratio (x) = 0.92515 0.33776
# Poissons Ratio (y) = 0.92515 0.33765
# Poissons Ratio (z) = 0.00833 0.00833
#
# Static dielectric constant tensor:
#      x y z
#    x 1.993030 0.000000 0.000000 
#    y 0.000000 1.993030 0.000000 
#    z 0.000000 0.000000 2.174400 
# 
# From -- ./inp_files/2607.got.cif
#   From: 2010.05.17/outbox.cif.g08.bks.cpg/sg135_2_cif.got.tgz:2607.got - 2010.05.20 12:50:20.
