data_PCOD9569084
_publ_section_title
;
Structure prediction by ZEFSAII (Michael W. Deem and Ramdas Pophale) SiO2 
 PCOD9569084
Probable space group: P 42/M N M
;
_chemical_formula_sum "Si O2"
_cell_formula_units_Z 104
_cell_length_a 27.159062
_cell_length_b 27.159062
_cell_length_c 7.456200
_cell_angle_alpha 90.000000
_cell_angle_beta 90.000000
_cell_angle_gamma 90.000000
_cell_volume 5499.802344
_symmetry_space_group_name_H-M "P 42/M N M"
_symmetry_group_IT_number 136
_symmetry_cell_setting 'tetragonal'
loop_
_space_group_symop_operation_xyz
x,y,z
1/2-y,1/2+x,1/2+z
-x,-y,z
1/2+y,1/2-x,1/2+z
1/2+x,1/2-y,1/2-z
1/2-x,1/2+y,1/2-z
y,x,-z
-y,-x,-z
-x,-y,-z
1/2+y,1/2-x,1/2-z
x,y,-z
1/2-y,1/2+x,1/2-z
1/2-x,1/2+y,1/2+z
1/2+x,1/2-y,1/2+z
-y,-x,z
y,x,z
loop_
_atom_site_type_symbol
_atom_site_label
_atom_site_fract_x
_atom_site_fract_y
_atom_site_fract_z
Si Si1 0.540689 0.540689 0.280745
Si Si2 0.221006 0.625730 0.783206
Si Si3 0.380003 0.619998 0.716969
Si Si4 0.984667 0.751708 0.213014
Si Si5 0.858703 0.992375 0.781100
Si Si6 0.354776 0.985507 0.784076
Si Si7 0.113802 0.594811 0.785979
Si Si8 0.299390 0.700611 0.794487
O O1 0.500000 0.500000 0.226533
O O2 0.540335 0.540335 0.500000
O O3 0.524720 0.595058 0.222018
O O4 0.248253 0.574385 0.738467
O O5 0.164895 0.618867 0.718138
O O6 0.251822 0.672711 0.715416
O O7 0.220255 0.628718 0.000000
O O8 0.376604 0.623397 0.500000
O O9 0.368435 0.564209 0.769033
O O10 0.341429 0.658572 0.793710
O O11 0.004733 0.803673 0.282008
O O12 0.007237 0.701000 0.285372
O O13 0.993285 0.751455 0.000000
O O14 0.858577 0.993920 0.000000
O O15 0.382960 0.036364 0.745389
O O16 0.381142 0.936348 0.716225
O O17 0.352274 0.982041 0.000000
O O18 0.114255 0.601968 0.000000
O O19 0.286728 0.713273 0.000000
#
# Coordination Sequence:
#
# PCOD9569084 Si02
#       8
#     8  16   8  16  16  16  16   8
#     4   9  14  20  30  51  83 112 136 165 204 246
#     4   9  17  28  42  61  85 111 138 167 204 249
#     4  10  16  23  38  60  83 109 139 172 214 254
#     4   9  16  27  43  62  82 106 137 172 207 244
#     4   9  15  22  35  56  83 111 138 169 207 248
#     4   9  18  31  47  66  87 111 138 171 211 251
#     4   9  18  32  47  64  88 115 141 170 207 254
#     4  10  18  26  39  62  87 111 139 173 210 249
#
# _framework density 18.909769000000001
#
# number of rings (size 3 to 8) (size 9 to 14) (size 15 to 20)
#    0.000    2.846    2.308    0.000    0.000    0.923 
#    0.000    1.538    0.000    0.923    0.000    9.154 
#    0.000    0.000    0.000    6.462    0.000    8.308 
#
# Total GULP energy -579814.370040 kJ/mol
# GULP energy per Si atom -5575.138173 kJ/mol
# Density = 1.886673 g / cm^3
# Si number density = 18.909769 Si / 1000 Ang^3
#
#
#
# Elastic Constant Matrix: (Units=GPa)
#
#
# Indices 1 2 3 4 5 6 
#
# 1 139.8837 104.1863 0.6389 0.0000 0.0000 0.0000
# 2 104.1863 139.8833 0.6390 0.0000 0.0000 0.0000
# 3 0.6389 0.6390 55.4358 0.0000 0.0000 0.0000
# 4 0.0000 0.0000 0.0000 10.4292 0.0000 0.0000
# 5 0.0000 0.0000 0.0000 0.0000 10.4291 0.0000
# 6 0.0000 0.0000 0.0000 0.0000 0.0000 31.2138
#
#
#
# Elastic Compliance Matrix: (Units=1/GPa)
#
#
# Indices 1 2 3 4 5 6 
#
# 1 0.016055 -0.011958 -0.000047 0.000000 0.000000 0.000000
# 2 -0.011958 0.016055 -0.000047 0.000000 0.000000 0.000000
# 3 -0.000047 -0.000047 0.018040 0.000000 0.000000 0.000000
# 4 0.000000 0.000000 0.000000 0.095884 0.000000 0.000000
# 5 0.000000 0.000000 0.000000 0.000000 0.095886 0.000000
# 6 0.000000 0.000000 0.000000 0.000000 0.000000 0.032037
#
#
# Mechanical properties :
#
#
# Convention : Reuss Voigt Hill
#
# Bulk Modulus (GPa) = 38.39366 60.68121 49.53744
# Shear Modulus (GPa) = 16.30018 25.73033 21.01526
#
# Velocity S-wave (km/s) = 2.93916 3.69275 3.33730
# Velocity P-wave (km/s) = 5.64499 7.09517 6.41122
#
# Compressibility (1/GPa) = 0.02604597
#
# Stress axis : x y z
#
# Youngs Moduli (GPa) = 62.28440 62.28425 55.43241
#
# Poissons Ratio (x) = 0.74479 0.00262
# Poissons Ratio (y) = 0.74479 0.00262
# Poissons Ratio (z) = 0.00294 0.00294
#
# Static dielectric constant tensor:
#      x y z
#    x 1.655460 0.000000 0.000000 
#    y 0.000000 1.655460 0.000000 
#    z 0.000000 0.000000 1.767660 
# 
# From -- ./inp_files/2259.got.cif
#   From: 2010.05.17/outbox.cif.g08.bks.cpg/sg136_2_cif.got.tgz:2259.got - 2010.05.20 12:54:53.
