data_PCOD9569974
_publ_section_title
;
Structure prediction by ZEFSAII (Michael W. Deem and Ramdas Pophale) SiO2 
 PCOD9569974
Probable space group: P 42/N M C
;
_chemical_formula_sum "Si O2"
_cell_formula_units_Z 128
_cell_length_a 19.926383
_cell_length_b 19.926383
_cell_length_c 19.947717
_cell_angle_alpha 90.000000
_cell_angle_beta 90.000000
_cell_angle_gamma 90.000000
_cell_volume 7920.455263
_symmetry_space_group_name_H-M "P 42/N M C"
_symmetry_group_IT_number 137
_space_group.IT_coordinate_system_code '2'
_symmetry_cell_setting 'tetragonal'
loop_
_space_group_symop_operation_xyz
x,y,z
1/2-y,x,1/2+z
1/2-x,1/2-y,z
y,1/2-x,1/2+z
1/2+x,-y,-z
-x,1/2+y,-z
1/2+y,1/2+x,1/2-z
-y,-x,1/2-z
-x,-y,-z
1/2+y,-x,1/2-z
1/2+x,1/2+y,-z
-y,1/2+x,1/2-z
1/2-x,y,z
x,1/2-y,z
1/2-y,1/2-x,1/2+z
y,x,1/2+z
loop_
_atom_site_type_symbol
_atom_site_label
_atom_site_fract_x
_atom_site_fract_y
_atom_site_fract_z
Si Si1 0.330356 0.320820 0.605316
Si Si2 0.968383 0.436189 0.036914
Si Si3 0.676137 0.051849 0.076903
Si Si4 0.572048 0.669267 0.002795
Si Si5 0.610578 0.671350 0.762797
Si Si6 0.351826 0.823915 0.826258
Si Si7 0.395010 0.172679 0.390735
Si Si8 0.402160 0.979365 0.690366
O O1 0.250000 0.318304 0.595748
O O2 0.359340 0.250000 0.581573
O O3 0.351276 0.384863 0.563016
O O4 0.342115 0.331414 0.683683
O O5 0.887964 0.436429 0.030309
O O6 0.981287 0.437950 0.117729
O O7 0.002587 0.369963 0.006110
O O8 0.000000 0.500000 0.000000
O O9 0.750000 0.053500 0.045318
O O10 0.673770 0.111495 0.132291
O O11 0.667380 0.976602 0.107003
O O12 0.565222 0.750000 0.006677
O O13 0.617811 0.639986 0.062558
O O14 0.590974 0.750000 0.770900
O O15 0.627788 0.662307 0.685520
O O16 0.549830 0.623988 0.783897
O O17 0.326554 0.826554 0.750000
O O18 0.336913 0.750000 0.854571
O O19 0.431312 0.837866 0.821803
O O20 0.378487 0.250000 0.410378
O O21 0.445045 0.945045 0.750000
#
# Coordination Sequence:
#
# PCOD9569974 Si02
#       8
#    16  16  16  16  16  16  16  16
#     4   9  18  32  49  72 102 131 166 214 263 310
#     4  11  21  36  56  77 105 139 179 218 259 317
#     4  10  21  35  50  72 102 138 174 213 263 311
#     4  11  22  36  55  78 103 137 180 221 264 316
#     4  10  18  30  49  73 101 135 175 216 261 313
#     4  10  19  29  45  70 104 141 179 218 255 298
#     4  10  20  34  53  75 105 141 178 220 268 320
#     4  10  20  32  51  75 100 136 176 219 264 312
#
# _framework density 16.160686999999999
#
# number of rings (size 3 to 8) (size 9 to 14) (size 15 to 20)
#    0.000    1.875    2.500    3.375    0.000    5.125 
#    0.000    1.250    0.000    0.000    0.000    0.000 
#    0.000    0.000    0.000    0.000    0.000    0.000 
#
# Total GULP energy -713217.226698 kJ/mol
# GULP energy per Si atom -5572.009584 kJ/mol
# Density = 1.612390 g / cm^3
# Si number density = 16.160687 Si / 1000 Ang^3
#
#
#
# Elastic Constant Matrix: (Units=GPa)
#
#
# Indices 1 2 3 4 5 6 
#
# 1 81.4379 26.4464 29.4892 0.0000 0.0000 0.0000
# 2 26.4464 81.4379 29.4892 0.0000 0.0000 0.0000
# 3 29.4892 29.4892 78.3618 0.0000 0.0000 0.0000
# 4 0.0000 0.0000 0.0000 16.9195 0.0000 0.0000
# 5 0.0000 0.0000 0.0000 0.0000 16.9195 0.0000
# 6 0.0000 0.0000 0.0000 0.0000 0.0000 10.0369
#
#
#
# Elastic Compliance Matrix: (Units=1/GPa)
#
#
# Indices 1 2 3 4 5 6 
#
# 1 0.014927 -0.003257 -0.004392 0.000000 0.000000 0.000000
# 2 -0.003257 0.014927 -0.004392 0.000000 0.000000 0.000000
# 3 -0.004392 -0.004392 0.016067 0.000000 0.000000 0.000000
# 4 0.000000 0.000000 0.000000 0.059103 0.000000 0.000000
# 5 0.000000 0.000000 0.000000 0.000000 0.059103 0.000000
# 6 0.000000 0.000000 0.000000 0.000000 0.000000 0.099632
#
#
# Mechanical properties :
#
#
# Convention : Reuss Voigt Hill
#
# Bulk Modulus (GPa) = 45.78746 45.78746 45.78746
# Shear Modulus (GPa) = 16.94219 19.16272 18.05245
#
# Velocity S-wave (km/s) = 3.24135 3.44722 3.34587
# Velocity P-wave (km/s) = 6.51173 6.65121 6.58184
#
# Compressibility (1/GPa) = 0.02184004
#
# Stress axis : x y z
#
# Youngs Moduli (GPa) = 66.99118 66.99118 62.24062
#
# Poissons Ratio (x) = 0.21821 0.27334
# Poissons Ratio (y) = 0.21821 0.27334
# Poissons Ratio (z) = 0.29420 0.29420
#
# Static dielectric constant tensor:
#      x y z
#    x 1.567560 0.000000 0.000000 
#    y 0.000000 1.567560 0.000000 
#    z 0.000000 0.000000 1.549060 
# 
# From -- ./inp_files/6842.got.cif
#   From: 2010.05.17/outbox.cif.g08.bks.cpg/sg137_4_cif.got.tgz:6842.got - 2010.05.20 13:01:12.
