data_PCOD9569864
_publ_section_title
;
Structure prediction by ZEFSAII (Michael W. Deem and Ramdas Pophale) SiO2 
 PCOD9569864
Probable space group: P 42/M N M
;
_chemical_formula_sum "Si O2"
_cell_formula_units_Z 52
_cell_length_a 11.377781
_cell_length_b 11.377781
_cell_length_c 19.849923
_cell_angle_alpha 90.000000
_cell_angle_beta 90.000000
_cell_angle_gamma 90.000000
_cell_volume 2569.649957
_symmetry_space_group_name_H-M "P 42/M N M"
_symmetry_group_IT_number 136
_symmetry_cell_setting 'tetragonal'
loop_
_space_group_symop_operation_xyz
x,y,z
1/2-y,1/2+x,1/2+z
-x,-y,z
1/2+y,1/2-x,1/2+z
1/2+x,1/2-y,1/2-z
1/2-x,1/2+y,1/2-z
y,x,-z
-y,-x,-z
-x,-y,-z
1/2+y,1/2-x,1/2-z
x,y,-z
1/2-y,1/2+x,1/2-z
1/2-x,1/2+y,1/2+z
1/2+x,1/2-y,1/2+z
-y,-x,z
y,x,z
loop_
_atom_site_type_symbol
_atom_site_label
_atom_site_fract_x
_atom_site_fract_y
_atom_site_fract_z
Si Si1 0.308496 0.504791 0.609915
Si Si2 0.659830 0.340171 0.000000
Si Si3 0.597906 0.402095 0.849722
Si Si4 0.304875 0.026462 0.253400
Si Si5 0.940359 0.374360 0.000000
O O1 0.380271 0.619730 0.588481
O O2 0.394770 0.394770 0.599421
O O3 0.276537 0.515824 0.687937
O O4 0.194634 0.484525 0.565689
O O5 0.609815 0.390186 0.070003
O O6 0.632505 0.200729 0.000000
O O7 0.500000 0.500000 0.832896
O O8 0.560308 0.277906 0.816031
O O9 0.403589 0.125677 0.239697
O O10 0.000000 0.500000 0.000000
#
# Coordination Sequence:
#
# PCOD9569864 Si02
#       5
#    16   4   8  16   8
#     4  11  23  44  71 102 135 182 237 300 357 411
#     4  12  27  50  71 102 152 192 236 291 364 440
#     4  12  27  48  74 105 144 192 236 293 359 431
#     4  11  26  44  71 105 143 185 238 292 353 424
#     4  12  27  45  72 102 143 187 237 293 360 432
#
# _framework density 20.236219999999999
#
# number of rings (size 3 to 8) (size 9 to 14) (size 15 to 20)
#    0.000    0.615    3.077    3.462   12.923    1.231 
#    0.000    1.538    0.000    0.000    0.000    0.000 
#    0.000    0.000    0.000    0.000    0.000    0.000 
#
# Total GULP energy -291053.513396 kJ/mol
# GULP energy per Si atom -5597.182950 kJ/mol
# Density = 2.019016 g / cm^3
# Si number density = 20.236220 Si / 1000 Ang^3
#
#
#
# Elastic Constant Matrix: (Units=GPa)
#
#
# Indices 1 2 3 4 5 6 
#
# 1 121.3125 60.5016 22.2037 0.0000 0.0000 0.0000
# 2 60.5016 121.3122 22.2037 0.0000 0.0000 0.0000
# 3 22.2037 22.2037 108.9152 0.0000 0.0000 0.0000
# 4 0.0000 0.0000 0.0000 33.5553 0.0000 0.0000
# 5 0.0000 0.0000 0.0000 0.0000 33.5566 0.0000
# 6 0.0000 0.0000 0.0000 0.0000 0.0000 19.9408
#
#
#
# Elastic Compliance Matrix: (Units=1/GPa)
#
#
# Indices 1 2 3 4 5 6 
#
# 1 0.011116 -0.005328 -0.001180 0.000000 0.000000 0.000000
# 2 -0.005328 0.011116 -0.001180 0.000000 0.000000 0.000000
# 3 -0.001180 -0.001180 0.009663 0.000000 0.000000 0.000000
# 4 0.000000 0.000000 0.000000 0.029802 0.000000 0.000000
# 5 0.000000 0.000000 0.000000 0.000000 0.029800 0.000000
# 6 0.000000 0.000000 0.000000 0.000000 0.000000 0.050148
#
#
# Mechanical properties :
#
#
# Convention : Reuss Voigt Hill
#
# Bulk Modulus (GPa) = 60.53572 62.37309 61.45440
# Shear Modulus (GPa) = 30.76386 33.85260 32.30823
#
# Velocity S-wave (km/s) = 3.90325 4.09451 4.00003
# Velocity P-wave (km/s) = 7.09178 7.29677 7.19500
#
# Compressibility (1/GPa) = 0.01651917
#
# Stress axis : x y z
#
# Youngs Moduli (GPa) = 89.95730 89.95702 103.49200
#
# Poissons Ratio (x) = 0.47930 0.12212
# Poissons Ratio (y) = 0.47930 0.12212
# Poissons Ratio (z) = 0.10615 0.10615
#
# Static dielectric constant tensor:
#      x y z
#    x 1.471980 0.000000 0.000000 
#    y 0.000000 1.471990 0.000000 
#    z 0.000000 0.000000 1.712080 
# 
# From -- ./inp_files/6965.got.cif
#   From: 2010.05.17/outbox.cif.g08.bks.cpg/sg136_4_cif.got.tgz:6965.got - 2010.05.20 12:54:53.
