data_PCOD9569774
_publ_section_title
;
Structure prediction by ZEFSAII (Michael W. Deem and Ramdas Pophale) SiO2 
 PCOD9569774
Probable space group: P 42/M N M
;
_chemical_formula_sum "Si O2"
_cell_formula_units_Z 80
_cell_length_a 11.619906
_cell_length_b 11.619906
_cell_length_c 30.960947
_cell_angle_alpha 90.000000
_cell_angle_beta 90.000000
_cell_angle_gamma 90.000000
_cell_volume 4180.415656
_symmetry_space_group_name_H-M "P 42/M N M"
_symmetry_group_IT_number 136
_symmetry_cell_setting 'tetragonal'
loop_
_space_group_symop_operation_xyz
x,y,z
1/2-y,1/2+x,1/2+z
-x,-y,z
1/2+y,1/2-x,1/2+z
1/2+x,1/2-y,1/2-z
1/2-x,1/2+y,1/2-z
y,x,-z
-y,-x,-z
-x,-y,-z
1/2+y,1/2-x,1/2-z
x,y,-z
1/2-y,1/2+x,1/2-z
1/2-x,1/2+y,1/2+z
1/2+x,1/2-y,1/2+z
-y,-x,z
y,x,z
loop_
_atom_site_type_symbol
_atom_site_label
_atom_site_fract_x
_atom_site_fract_y
_atom_site_fract_z
Si Si1 0.595949 0.404052 0.141609
Si Si2 0.185217 0.000164 0.115612
Si Si3 0.171319 0.171319 0.548910
Si Si4 0.308130 0.024498 0.300031
Si Si5 0.553381 0.872674 0.451516
Si Si6 0.810256 0.468196 0.297830
O O1 0.500000 0.500000 0.149649
O O2 0.613616 0.386385 0.090508
O O3 0.714254 0.443066 0.164705
O O4 0.095453 0.095453 0.100425
O O5 0.217887 0.024683 0.164842
O O6 0.296365 0.999998 0.085984
O O7 0.122539 0.877462 0.112496
O O8 0.135702 0.135702 0.500000
O O9 0.141194 0.307961 0.552089
O O10 0.262793 0.035216 0.250847
O O11 0.417000 0.111007 0.301722
O O12 0.361270 0.896976 0.304914
O O13 0.524357 0.830544 0.500000
O O14 0.500000 0.000000 0.447770
#
# Coordination Sequence:
#
# PCOD9569774 Si02
#       6
#     8  16   8  16  16  16
#     4  12  26  39  58  95 131 164 203 251 312 370
#     4  11  24  37  58  93 128 160 194 254 324 372
#     4  10  22  43  67  92 122 163 215 261 313 374
#     4   9  21  40  63  86 115 165 211 257 300 357
#     4  10  22  42  68  93 118 159 212 259 307 375
#     4   9  20  41  63  86 117 158 215 256 301 362
#
# _framework density 19.136852000000001
#
# number of rings (size 3 to 8) (size 9 to 14) (size 15 to 20)
#    0.000    2.000    1.000    2.400    8.400    2.200 
#    3.600    1.000    0.000    3.600    0.000    0.000 
#    0.000    0.000    0.000    0.000    0.000    0.000 
#
# Total GULP energy -446580.430801 kJ/mol
# GULP energy per Si atom -5582.255385 kJ/mol
# Density = 1.909330 g / cm^3
# Si number density = 19.136852 Si / 1000 Ang^3
#
#
#
# Elastic Constant Matrix: (Units=GPa)
#
#
# Indices 1 2 3 4 5 6 
#
# 1 54.7566 23.6759 42.5850 0.0000 0.0000 0.0000
# 2 23.6759 54.7566 42.5850 0.0000 0.0000 0.0000
# 3 42.5850 42.5850 122.2305 0.0000 0.0000 0.0000
# 4 0.0000 0.0000 0.0000 -50.4575 0.0000 0.0000
# 5 0.0000 0.0000 0.0000 0.0000 -50.4575 0.0000
# 6 0.0000 0.0000 0.0000 0.0000 0.0000 18.1510
#
#
#
# Elastic Compliance Matrix: (Units=1/GPa)
#
#
# Indices 1 2 3 4 5 6 
#
# 1 0.026342 -0.005833 -0.007145 0.000000 0.000000 0.000000
# 2 -0.005833 0.026342 -0.007145 0.000000 0.000000 0.000000
# 3 -0.007145 -0.007145 0.013160 0.000000 0.000000 0.000000
# 4 0.000000 0.000000 0.000000 -0.019819 0.000000 0.000000
# 5 0.000000 0.000000 0.000000 0.000000 -0.019819 0.000000
# 6 0.000000 0.000000 0.000000 0.000000 0.000000 0.055093
#
#
# Mechanical properties :
#
#
# Convention : Reuss Voigt Hill
#
# Bulk Modulus (GPa) = 39.06750 49.93727 44.50239
# Shear Modulus (GPa) = 38.43848 -8.35962 15.03943
#
# Velocity S-wave (km/s) = 4.48661 -2.09232 2.80641
# Velocity P-wave (km/s) = 6.87741 4.50715 5.81434
#
# Compressibility (1/GPa) = 0.02559672
#
# Stress axis : x y z
#
# Youngs Moduli (GPa) = 37.96279 37.96279 75.98747
#
# Poissons Ratio (x) = 0.22143 0.54295
# Poissons Ratio (y) = 0.22143 0.54295
# Poissons Ratio (z) = 0.27125 0.27125
#
# Static dielectric constant tensor:
#      x y z
#    x 1.663500 0.000000 0.000000 
#    y 0.000000 1.663500 0.000000 
#    z 0.000000 0.000000 1.654100 
# 
# From -- ./inp_files/9631.got.cif
#   From: 2010.05.17/outbox.cif.g08.bks.cpg/sg136_5_cif.got.tgz:9631.got - 2010.05.20 12:54:53.
