data_PCOD9569333
_publ_section_title
;
Structure prediction by ZEFSAII (Michael W. Deem and Ramdas Pophale) SiO2 
 PCOD9569333
Probable space group: P 42/M N M
;
_chemical_formula_sum "Si O2"
_cell_formula_units_Z 96
_cell_length_a 19.978273
_cell_length_b 19.978273
_cell_length_c 13.730341
_cell_angle_alpha 90.000000
_cell_angle_beta 90.000000
_cell_angle_gamma 90.000000
_cell_volume 5480.210117
_symmetry_space_group_name_H-M "P 42/M N M"
_symmetry_group_IT_number 136
_symmetry_cell_setting 'tetragonal'
loop_
_space_group_symop_operation_xyz
x,y,z
1/2-y,1/2+x,1/2+z
-x,-y,z
1/2+y,1/2-x,1/2+z
1/2+x,1/2-y,1/2-z
1/2-x,1/2+y,1/2-z
y,x,-z
-y,-x,-z
-x,-y,-z
1/2+y,1/2-x,1/2-z
x,y,-z
1/2-y,1/2+x,1/2-z
1/2-x,1/2+y,1/2+z
1/2+x,1/2-y,1/2+z
-y,-x,z
y,x,z
loop_
_atom_site_type_symbol
_atom_site_label
_atom_site_fract_x
_atom_site_fract_y
_atom_site_fract_z
Si Si1 0.196573 0.308719 0.391135
Si Si2 0.388014 0.996962 0.255919
Si Si3 0.802070 0.088221 0.794755
Si Si4 0.288284 0.922732 0.387738
Si Si5 0.473457 0.764195 0.387544
Si Si6 0.166693 0.279218 0.815160
O O1 0.170505 0.323805 0.500000
O O2 0.242780 0.242780 0.399272
O O3 0.246675 0.366089 0.351425
O O4 0.149349 0.295604 0.298359
O O5 0.438361 0.935404 0.231179
O O6 0.344735 0.974008 0.349189
O O7 0.331814 0.009013 0.173193
O O8 0.870080 0.129920 0.795386
O O9 0.774440 0.075530 0.686058
O O10 0.796677 0.018895 0.850496
O O11 0.272008 0.933316 0.500000
O O12 0.317020 0.848172 0.369830
O O13 0.485339 0.777256 0.500000
O O14 0.396751 0.747776 0.366235
O O15 0.231315 0.231315 0.816596
#
# Coordination Sequence:
#
# PCOD9569333 Si02
#       6
#    16  16  16  16  16  16
#     4   8  14  28  51  74  95 122 157 204 262 310
#     4  10  21  36  51  72 109 147 181 217 254 314
#     4   9  19  34  52  76 103 130 171 223 266 315
#     4  10  19  33  54  78 103 138 180 219 265 319
#     4  11  22  35  52  75 104 141 183 219 265 325
#     4  10  20  33  50  75 104 134 175 226 269 315
#
# _framework density 17.517575999999998
#
# number of rings (size 3 to 8) (size 9 to 14) (size 15 to 20)
#    0.000    2.333    1.667    2.500    0.000    4.000 
#    0.000    5.000    0.000    0.500    0.000    1.167 
#    0.000    0.000    0.000   10.167    0.000    0.000 
#
# Total GULP energy -535068.736310 kJ/mol
# GULP energy per Si atom -5573.632670 kJ/mol
# Density = 1.747771 g / cm^3
# Si number density = 17.517576 Si / 1000 Ang^3
#
#
#
# Elastic Constant Matrix: (Units=GPa)
#
#
# Indices 1 2 3 4 5 6 
#
# 1 19.9766 0.4587 11.1773 0.0000 0.0000 0.0000
# 2 0.4587 19.9766 11.1773 0.0000 0.0000 0.0000
# 3 11.1773 11.1773 129.3280 0.0000 0.0000 0.0000
# 4 0.0000 0.0000 0.0000 12.7011 0.0000 0.0000
# 5 0.0000 0.0000 0.0000 0.0000 12.7011 0.0000
# 6 0.0000 0.0000 0.0000 0.0000 0.0000 24.0476
#
#
#
# Elastic Compliance Matrix: (Units=1/GPa)
#
#
# Indices 1 2 3 4 5 6 
#
# 1 0.052640 0.001405 -0.004671 0.000000 0.000000 0.000000
# 2 0.001405 0.052640 -0.004671 0.000000 0.000000 0.000000
# 3 -0.004671 -0.004671 0.008540 0.000000 0.000000 0.000000
# 4 0.000000 0.000000 0.000000 0.078733 0.000000 0.000000
# 5 0.000000 0.000000 0.000000 0.000000 0.078733 0.000000
# 6 0.000000 0.000000 0.000000 0.000000 0.000000 0.041584
#
#
# Mechanical properties :
#
#
# Convention : Reuss Voigt Hill
#
# Bulk Modulus (GPa) = 10.20981 23.87863 17.04422
# Shear Modulus (GPa) = 13.83540 19.65450 16.74495
#
# Velocity S-wave (km/s) = 2.81339 3.35324 3.09511
# Velocity P-wave (km/s) = 4.04901 5.35286 4.74593
#
# Compressibility (1/GPa) = 0.09794502
#
# Stress axis : x y z
#
# Youngs Moduli (GPa) = 18.99708 18.99708 117.10101
#
# Poissons Ratio (x) = -0.02668 0.54696
# Poissons Ratio (y) = -0.02668 0.54696
# Poissons Ratio (z) = 0.08873 0.08873
#
# Static dielectric constant tensor:
#      x y z
#    x 1.610030 0.000000 0.000000 
#    y 0.000000 1.610030 0.000000 
#    z 0.000000 0.000000 1.617900 
# 
# From -- ./inp_files/3805.got.cif
#   From: 2010.05.17/outbox.cif.g08.bks.cpg/sg136_2_cif.got.tgz:3805.got - 2010.05.20 12:54:53.
