data_PCOD9569123
_publ_section_title
;
Structure prediction by ZEFSAII (Michael W. Deem and Ramdas Pophale) SiO2 
 PCOD9569123
Probable space group: P 42/M N M
;
_chemical_formula_sum "Si O2"
_cell_formula_units_Z 96
_cell_length_a 24.856301
_cell_length_b 24.856301
_cell_length_c 8.275073
_cell_angle_alpha 90.000000
_cell_angle_beta 90.000000
_cell_angle_gamma 90.000000
_cell_volume 5112.635515
_symmetry_space_group_name_H-M "P 42/M N M"
_symmetry_group_IT_number 136
_symmetry_cell_setting 'tetragonal'
loop_
_space_group_symop_operation_xyz
x,y,z
1/2-y,1/2+x,1/2+z
-x,-y,z
1/2+y,1/2-x,1/2+z
1/2+x,1/2-y,1/2-z
1/2-x,1/2+y,1/2-z
y,x,-z
-y,-x,-z
-x,-y,-z
1/2+y,1/2-x,1/2-z
x,y,-z
1/2-y,1/2+x,1/2-z
1/2-x,1/2+y,1/2+z
1/2+x,1/2-y,1/2+z
-y,-x,z
y,x,z
loop_
_atom_site_type_symbol
_atom_site_label
_atom_site_fract_x
_atom_site_fract_y
_atom_site_fract_z
Si Si1 0.646869 0.488690 0.184284
Si Si2 0.001244 0.275187 0.686194
Si Si3 0.394175 0.394175 0.191432
Si Si4 0.119449 0.119449 0.826803
Si Si5 0.696141 0.303860 0.816663
Si Si6 0.704806 0.877473 0.302609
Si Si7 0.620036 0.791463 0.694006
Si Si8 0.188732 0.811269 0.812389
O O1 0.710583 0.496939 0.189327
O O2 0.618890 0.544414 0.222249
O O3 0.630705 0.442649 0.305425
O O4 0.632376 0.473078 0.000000
O O5 0.000505 0.293657 0.500000
O O6 0.942640 0.289871 0.756939
O O7 0.060383 0.291921 0.755167
O O8 0.356508 0.356508 0.296102
O O9 0.383228 0.383228 0.000000
O O10 0.150669 0.150669 0.687808
O O11 0.139410 0.139410 0.000000
O O12 0.663782 0.252379 0.746789
O O13 0.711248 0.288753 0.000000
O O14 0.710759 0.880001 0.500000
O O15 0.649535 0.847166 0.262553
O O16 0.620960 0.786494 0.500000
O O17 0.658910 0.742363 0.756280
O O18 0.200654 0.799347 0.000000
#
# Coordination Sequence:
#
# PCOD9569123 Si02
#       8
#    16  16   8   8   8  16  16   8
#     4  10  20  36  55  73  98 141 187 221 256 308
#     4  10  19  34  57  80 103 138 180 219 259 311
#     4  10  20  34  54  75  98 134 183 224 254 301
#     4  12  24  34  50  77 108 138 176 229 275 308
#     4  10  17  34  59  79 103 142 182 215 255 316
#     4   9  18  33  56  81 105 138 180 215 252 314
#     4  10  20  34  53  81 112 140 171 213 264 319
#     4  10  19  30  49  79 111 138 163 204 268 323
#
# _framework density 18.777007999999999
#
# number of rings (size 3 to 8) (size 9 to 14) (size 15 to 20)
#    0.000    2.000    3.333    1.250    0.000    3.667 
#    0.000    3.333    0.000    1.500    0.000    3.500 
#    0.000    0.000    0.000    0.000    0.000    0.000 
#
# Total GULP energy -534701.763492 kJ/mol
# GULP energy per Si atom -5569.810036 kJ/mol
# Density = 1.873427 g / cm^3
# Si number density = 18.777008 Si / 1000 Ang^3
#
#
#
# Elastic Constant Matrix: (Units=GPa)
#
#
# Indices 1 2 3 4 5 6 
#
# 1 218.5568 -25.5410 19.9420 0.0000 0.0000 0.0000
# 2 -25.5410 218.5558 19.9406 0.0000 0.0000 0.0000
# 3 19.9420 19.9406 12.7778 0.0000 0.0000 0.0000
# 4 0.0000 0.0000 0.0000 134.8750 0.0000 0.0000
# 5 0.0000 0.0000 0.0000 0.0000 134.8722 0.0000
# 6 0.0000 0.0000 0.0000 0.0000 0.0000 35.2406
#
#
#
# Elastic Compliance Matrix: (Units=1/GPa)
#
#
# Indices 1 2 3 4 5 6 
#
# 1 0.005872 0.001775 -0.011934 0.000000 0.000000 0.000000
# 2 0.001775 0.005872 -0.011933 0.000000 0.000000 0.000000
# 3 -0.011934 -0.011933 0.115508 0.000000 0.000000 0.000000
# 4 0.000000 0.000000 0.000000 0.007414 0.000000 0.000000
# 5 0.000000 0.000000 0.000000 0.000000 0.007414 0.000000
# 6 0.000000 0.000000 0.000000 0.000000 0.000000 0.028376
#
#
# Mechanical properties :
#
#
# Convention : Reuss Voigt Hill
#
# Bulk Modulus (GPa) = 12.03845 53.17484 32.60665
# Shear Modulus (GPa) = 20.63295 90.03414 55.33354
#
# Velocity S-wave (km/s) = 3.31847 6.93204 5.43440
# Velocity P-wave (km/s) = 4.59437 9.61517 7.53524
#
# Compressibility (1/GPa) = 0.08306718
#
# Stress axis : x y z
#
# Youngs Moduli (GPa) = 170.30532 170.30815 8.65738
#
# Poissons Ratio (x) = -0.30230 0.10332
# Poissons Ratio (y) = -0.30230 0.10331
# Poissons Ratio (z) = 2.03242 2.03236
#
# Static dielectric constant tensor:
#      x y z
#    x 1.647290 0.000000 0.000000 
#    y 0.000000 1.647290 0.000000 
#    z 0.000000 0.000000 1.712250 
# 
# From -- ./inp_files/2101.got.cif
#   From: 2010.05.17/outbox.cif.g08.bks.cpg/sg136_2_cif.got.tgz:2101.got - 2010.05.20 12:54:53.
