data_PCOD9569428
_publ_section_title
;
Structure prediction by ZEFSAII (Michael W. Deem and Ramdas Pophale) SiO2 
 PCOD9569428
Probable space group: P 42/M N M
;
_chemical_formula_sum "Si O2"
_cell_formula_units_Z 72
_cell_length_a 20.235585
_cell_length_b 20.235585
_cell_length_c 7.399253
_cell_angle_alpha 90.000000
_cell_angle_beta 90.000000
_cell_angle_gamma 90.000000
_cell_volume 3029.837981
_symmetry_space_group_name_H-M "P 42/M N M"
_symmetry_group_IT_number 136
_symmetry_cell_setting 'tetragonal'
loop_
_space_group_symop_operation_xyz
x,y,z
1/2-y,1/2+x,1/2+z
-x,-y,z
1/2+y,1/2-x,1/2+z
1/2+x,1/2-y,1/2-z
1/2-x,1/2+y,1/2-z
y,x,-z
-y,-x,-z
-x,-y,-z
1/2+y,1/2-x,1/2-z
x,y,-z
1/2-y,1/2+x,1/2-z
1/2-x,1/2+y,1/2+z
1/2+x,1/2-y,1/2+z
-y,-x,z
y,x,z
loop_
_atom_site_type_symbol
_atom_site_label
_atom_site_fract_x
_atom_site_fract_y
_atom_site_fract_z
Si Si1 0.208771 0.406692 0.278279
Si Si2 0.336050 0.663951 0.717236
Si Si3 0.774484 0.225517 0.785831
Si Si4 0.054447 0.945554 0.780157
Si Si5 0.067635 0.421405 0.297944
Si Si6 0.190673 0.014286 0.779477
O O1 0.205318 0.407356 0.500000
O O2 0.251999 0.345194 0.216587
O O3 0.134184 0.392928 0.216903
O O4 0.243567 0.474916 0.223662
O O5 0.339856 0.660145 0.500000
O O6 0.281312 0.718689 0.761256
O O7 0.316437 0.590148 0.780808
O O8 0.783208 0.216793 0.000000
O O9 0.028554 0.873582 0.723605
O O10 0.055972 0.944029 0.000000
O O11 0.000000 0.000000 0.727650
O O12 0.056038 0.396237 0.500000
O O13 0.083790 0.499763 0.306681
O O14 0.190520 0.015113 0.000000
#
# Coordination Sequence:
#
# PCOD9569428 Si02
#       6
#    16   8   8   8  16  16
#     4   9  19  33  52  74 102 139 175 210 254 310
#     4  10  20  32  53  83 112 135 165 216 271 312
#     4  10  21  38  54  73 106 145 180 212 254 318
#     4   9  13  21  40  68 104 133 158 198 247 297
#     4  10  20  35  54  77 102 132 173 218 263 307
#     4   9  16  28  47  77 107 132 165 209 258 303
#
# _framework density 23.763648
#
# number of rings (size 3 to 8) (size 9 to 14) (size 15 to 20)
#    0.000    2.556    1.111    2.000    3.111    2.667 
#    0.000    1.111    0.000    1.333    0.000    1.556 
#    0.000    0.000    0.000    0.000    0.000    0.000 
#
# Total GULP energy -402315.366740 kJ/mol
# GULP energy per Si atom -5587.713427 kJ/mol
# Density = 2.370956 g / cm^3
# Si number density = 23.763648 Si / 1000 Ang^3
#
#
#
# Elastic Constant Matrix: (Units=GPa)
#
#
# Indices 1 2 3 4 5 6 
#
# 1 62.6165 -1.6306 -4.4857 0.0000 0.0000 0.0000
# 2 -1.6306 62.6122 -4.4867 0.0000 0.0000 0.0000
# 3 -4.4857 -4.4867 83.0652 0.0000 0.0000 0.0000
# 4 0.0000 0.0000 0.0000 7.2576 0.0000 0.0000
# 5 0.0000 0.0000 0.0000 0.0000 7.2580 0.0000
# 6 0.0000 0.0000 0.0000 0.0000 0.0000 37.9694
#
#
#
# Elastic Compliance Matrix: (Units=1/GPa)
#
#
# Indices 1 2 3 4 5 6 
#
# 1 0.016047 0.000482 0.000893 0.000000 0.000000 0.000000
# 2 0.000482 0.016048 0.000893 0.000000 0.000000 0.000000
# 3 0.000893 0.000893 0.012135 0.000000 0.000000 0.000000
# 4 0.000000 0.000000 0.000000 0.137786 0.000000 0.000000
# 5 0.000000 0.000000 0.000000 0.000000 0.137779 0.000000
# 6 0.000000 0.000000 0.000000 0.000000 0.000000 0.026337
#
#
# Mechanical properties :
#
#
# Convention : Reuss Voigt Hill
#
# Bulk Modulus (GPa) = 20.50683 20.78757 20.64720
# Shear Modulus (GPa) = 13.97229 25.09014 19.53121
#
# Velocity S-wave (km/s) = 2.42744 3.25286 2.86998
# Velocity P-wave (km/s) = 4.06261 4.78276 4.43732
#
# Compressibility (1/GPa) = 0.04876424
#
# Stress axis : x y z
#
# Youngs Moduli (GPa) = 62.31807 62.31362 82.40516
#
# Poissons Ratio (x) = -0.03003 -0.07355
# Poissons Ratio (y) = -0.03003 -0.07357
# Poissons Ratio (z) = -0.05562 -0.05564
#
# Static dielectric constant tensor:
#      x y z
#    x 1.872560 0.000000 0.000000 
#    y 0.000000 1.872560 0.000000 
#    z 0.000000 0.000000 1.836810 
# 
# From -- ./inp_files/1636.got.cif
#   From: 2010.05.17/outbox.cif.g08.bks.cpg/sg136_1_cif.got.tgz:1636.got - 2010.05.20 12:54:53.
