data_PCOD9569157
_publ_section_title
;
Structure prediction by ZEFSAII (Michael W. Deem and Ramdas Pophale) SiO2 
 PCOD9569157
Probable space group: P 42/M N M
;
_chemical_formula_sum "Si O2"
_cell_formula_units_Z 72
_cell_length_a 23.985245
_cell_length_b 23.985245
_cell_length_c 7.635731
_cell_angle_alpha 90.000000
_cell_angle_beta 90.000000
_cell_angle_gamma 90.000000
_cell_volume 4392.774788
_symmetry_space_group_name_H-M "P 42/M N M"
_symmetry_group_IT_number 136
_symmetry_cell_setting 'tetragonal'
loop_
_space_group_symop_operation_xyz
x,y,z
1/2-y,1/2+x,1/2+z
-x,-y,z
1/2+y,1/2-x,1/2+z
1/2+x,1/2-y,1/2-z
1/2-x,1/2+y,1/2-z
y,x,-z
-y,-x,-z
-x,-y,-z
1/2+y,1/2-x,1/2-z
x,y,-z
1/2-y,1/2+x,1/2-z
1/2-x,1/2+y,1/2+z
1/2+x,1/2-y,1/2+z
-y,-x,z
y,x,z
loop_
_atom_site_type_symbol
_atom_site_label
_atom_site_fract_x
_atom_site_fract_y
_atom_site_fract_z
Si Si1 0.223035 0.130593 0.785984
Si Si2 0.483298 0.672792 0.291795
Si Si3 0.308482 0.216999 0.789414
Si Si4 0.393859 0.303815 0.708472
Si Si5 0.545223 0.454778 0.209990
O O1 0.173201 0.173201 0.736770
O O2 0.207848 0.069187 0.721579
O O3 0.281541 0.158627 0.730507
O O4 0.222997 0.129515 0.000000
O O5 0.484917 0.683556 0.500000
O O6 0.544143 0.687914 0.219501
O O7 0.470620 0.607400 0.267991
O O8 0.263417 0.263417 0.730255
O O9 0.367323 0.242709 0.735237
O O10 0.308166 0.216401 0.000000
O O11 0.396659 0.312823 0.500000
O O12 0.350277 0.350277 0.779610
O O13 0.500000 0.500000 0.273947
O O14 0.544481 0.455520 0.000000
#
# Coordination Sequence:
#
# PCOD9569157 Si02
#       5
#    16  16  16  16   8
#     4   8  13  24  43  63  77  96 134 175 205 239
#     4  10  18  30  47  61  78 108 146 181 205 238
#     4   8  14  25  42  59  76 101 131 163 204 250
#     4   9  17  27  39  59  83 106 135 168 203 242
#     4  11  23  33  39  55  85 117 147 179 211 244
#
# _framework density 16.390550999999999
#
# number of rings (size 3 to 8) (size 9 to 14) (size 15 to 20)
#    0.000    3.000    1.111    2.333    0.000    2.667 
#    0.000    3.333    0.000    0.000    0.000    0.000 
#    0.000    0.889    0.000   11.111    0.000    0.000 
#
# Total GULP energy -400927.591429 kJ/mol
# GULP energy per Si atom -5568.438770 kJ/mol
# Density = 1.635325 g / cm^3
# Si number density = 16.390551 Si / 1000 Ang^3
#
#
#
# Elastic Constant Matrix: (Units=GPa)
#
#
# Indices 1 2 3 4 5 6 
#
# 1 112.6644 92.3737 0.5959 0.0000 0.0000 0.0000
# 2 92.3737 112.6639 0.5961 0.0000 0.0000 0.0000
# 3 0.5959 0.5961 28.4503 0.0000 0.0000 0.0000
# 4 0.0000 0.0000 0.0000 12.8783 0.0000 0.0000
# 5 0.0000 0.0000 0.0000 0.0000 12.8784 0.0000
# 6 0.0000 0.0000 0.0000 0.0000 0.0000 31.4563
#
#
#
# Elastic Compliance Matrix: (Units=1/GPa)
#
#
# Indices 1 2 3 4 5 6 
#
# 1 0.027081 -0.022203 -0.000102 0.000000 0.000000 0.000000
# 2 -0.022203 0.027081 -0.000102 0.000000 0.000000 0.000000
# 3 -0.000102 -0.000102 0.035153 0.000000 0.000000 0.000000
# 4 0.000000 0.000000 0.000000 0.077650 0.000000 0.000000
# 5 0.000000 0.000000 0.000000 0.000000 0.077650 0.000000
# 6 0.000000 0.000000 0.000000 0.000000 0.000000 0.031790
#
#
# Mechanical properties :
#
#
# Convention : Reuss Voigt Hill
#
# Bulk Modulus (GPa) = 22.47186 48.98998 35.73092
# Shear Modulus (GPa) = 14.87857 22.12346 18.50101
#
# Velocity S-wave (km/s) = 3.01616 3.67791 3.36335
# Velocity P-wave (km/s) = 5.08622 6.92748 6.07699
#
# Compressibility (1/GPa) = 0.04450009
#
# Stress axis : x y z
#
# Youngs Moduli (GPa) = 36.92635 36.92617 28.44682
#
# Poissons Ratio (x) = 0.81988 0.00290
# Poissons Ratio (y) = 0.81989 0.00291
# Poissons Ratio (z) = 0.00377 0.00378
#
# Static dielectric constant tensor:
#      x y z
#    x 1.568640 0.000000 0.000000 
#    y 0.000000 1.568640 0.000000 
#    z 0.000000 0.000000 1.611040 
# 
# From -- ./inp_files/1719.got.cif
#   From: 2010.05.17/outbox.cif.g08.bks.cpg/sg136_1_cif.got.tgz:1719.got - 2010.05.20 12:54:53.
