data_PCOD9569863
_publ_section_title
;
Structure prediction by ZEFSAII (Michael W. Deem and Ramdas Pophale) SiO2 
 PCOD9569863
Probable space group: P 42/M N M
;
_chemical_formula_sum "Si O2"
_cell_formula_units_Z 36
_cell_length_a 11.493064
_cell_length_b 11.493064
_cell_length_c 14.054076
_cell_angle_alpha 90.000000
_cell_angle_beta 90.000000
_cell_angle_gamma 90.000000
_cell_volume 1856.410208
_symmetry_space_group_name_H-M "P 42/M N M"
_symmetry_group_IT_number 136
_symmetry_cell_setting 'tetragonal'
loop_
_space_group_symop_operation_xyz
x,y,z
1/2-y,1/2+x,1/2+z
-x,-y,z
1/2+y,1/2-x,1/2+z
1/2+x,1/2-y,1/2-z
1/2-x,1/2+y,1/2-z
y,x,-z
-y,-x,-z
-x,-y,-z
1/2+y,1/2-x,1/2-z
x,y,-z
1/2-y,1/2+x,1/2-z
1/2-x,1/2+y,1/2+z
1/2+x,1/2-y,1/2+z
-y,-x,z
y,x,z
loop_
_atom_site_type_symbol
_atom_site_label
_atom_site_fract_x
_atom_site_fract_y
_atom_site_fract_z
Si Si1 0.093335 0.906666 0.678719
Si Si2 0.785464 0.214537 0.500000
Si Si3 0.818020 0.523931 0.712983
Si Si4 0.514815 0.140292 0.500000
O O1 0.156560 0.843441 0.591900
O O2 0.191788 0.967720 0.742212
O O3 0.000000 0.000000 0.644643
O O4 0.648681 0.183485 0.500000
O O5 0.879369 0.401647 0.739090
O O6 0.817394 0.539174 0.599400
O O7 0.500000 0.000000 0.500000
#
# Coordination Sequence:
#
# PCOD9569863 Si02
#       4
#     8   4  16   8
#     4  12  27  41  68 103 135 170 221 283 330 399
#     4  12  23  44  72  95 134 172 230 273 342 396
#     4  11  23  44  70  94 133 175 223 272 337 395
#     4  12  22  42  71  97 127 180 226 274 337 404
#
# _framework density 19.392267
#
# number of rings (size 3 to 8) (size 9 to 14) (size 15 to 20)
#    0.000    0.444    8.889    0.333    6.222    0.889 
#    0.000    1.111    0.000    0.000    0.000    0.000 
#    0.000    0.000    0.000    0.000    0.000    0.000 
#
# Total GULP energy -201270.620529 kJ/mol
# GULP energy per Si atom -5590.850570 kJ/mol
# Density = 1.934813 g / cm^3
# Si number density = 19.392267 Si / 1000 Ang^3
#
#
#
# Elastic Constant Matrix: (Units=GPa)
#
#
# Indices 1 2 3 4 5 6 
#
# 1 54.6104 12.5480 -14.0329 0.0000 0.0000 0.0000
# 2 12.5480 54.6111 -14.0331 0.0000 0.0000 0.0000
# 3 -14.0329 -14.0331 136.0078 0.0000 0.0000 0.0000
# 4 0.0000 0.0000 0.0000 19.9631 0.0000 0.0000
# 5 0.0000 0.0000 0.0000 0.0000 19.9631 0.0000
# 6 0.0000 0.0000 0.0000 0.0000 0.0000 15.5509
#
#
#
# Elastic Compliance Matrix: (Units=1/GPa)
#
#
# Indices 1 2 3 4 5 6 
#
# 1 0.019668 -0.004106 0.001606 0.000000 0.000000 0.000000
# 2 -0.004106 0.019667 0.001606 0.000000 0.000000 0.000000
# 3 0.001606 0.001606 0.007684 0.000000 0.000000 0.000000
# 4 0.000000 0.000000 0.000000 0.050092 0.000000 0.000000
# 5 0.000000 0.000000 0.000000 0.000000 0.050093 0.000000
# 6 0.000000 0.000000 0.000000 0.000000 0.000000 0.064305
#
#
# Mechanical properties :
#
#
# Convention : Reuss Voigt Hill
#
# Bulk Modulus (GPa) = 22.11011 23.79926 22.95469
# Shear Modulus (GPa) = 21.89379 28.47858 25.18619
#
# Velocity S-wave (km/s) = 3.36370 3.83633 3.60776
# Velocity P-wave (km/s) = 5.14900 5.64999 5.40530
#
# Compressibility (1/GPa) = 0.04522818
#
# Stress axis : x y z
#
# Youngs Moduli (GPa) = 50.84493 50.84556 130.14332
#
# Poissons Ratio (x) = 0.20880 -0.20895
# Poissons Ratio (y) = 0.20879 -0.20895
# Poissons Ratio (z) = -0.08163 -0.08164
#
# Static dielectric constant tensor:
#      x y z
#    x 1.659040 0.000000 0.000000 
#    y 0.000000 1.659040 0.000000 
#    z 0.000000 0.000000 1.672730 
# 
# From -- ./inp_files/2663.got.cif
#   From: 2010.05.17/outbox.cif.g08.bks.cpg/sg136_2_cif.got.tgz:2663.got - 2010.05.20 12:54:53.
