data_PCOD9569895
_publ_section_title
;
Structure prediction by ZEFSAII (Michael W. Deem and Ramdas Pophale) SiO2 
 PCOD9569895
Probable space group: P 42/M N M
;
_chemical_formula_sum "Si O2"
_cell_formula_units_Z 72
_cell_length_a 22.026520
_cell_length_b 22.026520
_cell_length_c 7.511902
_cell_angle_alpha 90.000000
_cell_angle_beta 90.000000
_cell_angle_gamma 90.000000
_cell_volume 3644.531339
_symmetry_space_group_name_H-M "P 42/M N M"
_symmetry_group_IT_number 136
_symmetry_cell_setting 'tetragonal'
loop_
_space_group_symop_operation_xyz
x,y,z
1/2-y,1/2+x,1/2+z
-x,-y,z
1/2+y,1/2-x,1/2+z
1/2+x,1/2-y,1/2-z
1/2-x,1/2+y,1/2-z
y,x,-z
-y,-x,-z
-x,-y,-z
1/2+y,1/2-x,1/2-z
x,y,-z
1/2-y,1/2+x,1/2-z
1/2-x,1/2+y,1/2+z
1/2+x,1/2-y,1/2+z
-y,-x,z
y,x,z
loop_
_atom_site_type_symbol
_atom_site_label
_atom_site_fract_x
_atom_site_fract_y
_atom_site_fract_z
Si Si1 0.036825 0.319026 0.713567
Si Si2 0.781374 0.122589 0.784186
Si Si3 0.684019 0.487123 0.791953
Si Si4 0.647218 0.099585 0.213720
Si Si5 0.949664 0.949664 0.718618
O O1 0.042713 0.314344 0.500000
O O2 0.035753 0.249234 0.782855
O O3 0.090952 0.361309 0.782430
O O4 0.972004 0.350609 0.747128
O O5 0.821043 0.178958 0.724471
O O6 0.712092 0.124269 0.722019
O O7 0.811255 0.059755 0.723527
O O8 0.780995 0.121476 0.000000
O O9 0.618788 0.465936 0.720878
O O10 0.683683 0.470064 0.000000
O O11 0.646288 0.105008 0.000000
O O12 0.950433 0.950433 0.500000
O O13 0.000000 0.000000 0.773263
#
# Coordination Sequence:
#
# PCOD9569895 Si02
#       5
#    16  16  16  16   8
#     4   9  18  32  48  68  92 118 153 189 226 272
#     4   9  17  30  47  67  90 119 153 186 223 266
#     4   9  17  30  47  67  92 121 150 187 228 267
#     4   9  18  32  48  67  92 120 149 187 230 270
#     4   9  16  26  43  69  95 119 149 183 225 270
#
# _framework density 19.755627
#
# number of rings (size 3 to 8) (size 9 to 14) (size 15 to 20)
#    0.000    3.000    0.000    0.667    0.000    2.667 
#    2.000    2.778    0.000    2.000    0.000    0.000 
#    0.000    0.000    0.000    0.000    0.000    0.000 
#
# Total GULP energy -401359.677338 kJ/mol
# GULP energy per Si atom -5574.439963 kJ/mol
# Density = 1.971066 g / cm^3
# Si number density = 19.755627 Si / 1000 Ang^3
#
#
#
# Elastic Constant Matrix: (Units=GPa)
#
#
# Indices 1 2 3 4 5 6 
#
# 1 169.3772 155.4211 2.2761 0.0000 0.0000 0.0000
# 2 155.4211 169.3772 2.2761 0.0000 0.0000 0.0000
# 3 2.2761 2.2761 51.1751 0.0000 0.0000 0.0000
# 4 0.0000 0.0000 0.0000 13.3646 0.0000 0.0000
# 5 0.0000 0.0000 0.0000 0.0000 13.3646 0.0000
# 6 0.0000 0.0000 0.0000 0.0000 0.0000 37.9997
#
#
#
# Elastic Compliance Matrix: (Units=1/GPa)
#
#
# Indices 1 2 3 4 5 6 
#
# 1 0.037367 -0.034286 -0.000137 0.000000 0.000000 0.000000
# 2 -0.034286 0.037367 -0.000137 0.000000 0.000000 0.000000
# 3 -0.000137 -0.000137 0.019553 0.000000 0.000000 0.000000
# 4 0.000000 0.000000 0.000000 0.074825 0.000000 0.000000
# 5 0.000000 0.000000 0.000000 0.000000 0.074825 0.000000
# 6 0.000000 0.000000 0.000000 0.000000 0.000000 0.026316
#
#
# Mechanical properties :
#
#
# Convention : Reuss Voigt Hill
#
# Bulk Modulus (GPa) = 39.73558 78.87512 59.30535
# Shear Modulus (GPa) = 14.37768 28.27620 21.32694
#
# Velocity S-wave (km/s) = 2.70066 3.78735 3.28920
# Velocity P-wave (km/s) = 5.46644 7.69009 6.67156
#
# Compressibility (1/GPa) = 0.02516636
#
# Stress axis : x y z
#
# Youngs Moduli (GPa) = 26.76160 26.76160 51.14321
#
# Poissons Ratio (x) = 0.91755 0.00701
# Poissons Ratio (y) = 0.91755 0.00701
# Poissons Ratio (z) = 0.00367 0.00367
#
# Static dielectric constant tensor:
#      x y z
#    x 1.679540 0.000000 0.000000 
#    y 0.000000 1.679540 0.000000 
#    z 0.000000 0.000000 1.793410 
# 
# From -- ./inp_files/1530.got.cif
#   From: 2010.05.17/outbox.cif.g08.bks.cpg/sg136_1_cif.got.tgz:1530.got - 2010.05.20 12:54:53.
