data_PCOD9569182
_publ_section_title
;
Structure prediction by ZEFSAII (Michael W. Deem and Ramdas Pophale) SiO2 
 PCOD9569182
Probable space group: P 42/M N M
;
_chemical_formula_sum "Si O2"
_cell_formula_units_Z 64
_cell_length_a 12.292461
_cell_length_b 12.292461
_cell_length_c 22.855166
_cell_angle_alpha 90.000000
_cell_angle_beta 90.000000
_cell_angle_gamma 90.000000
_cell_volume 3453.520658
_symmetry_space_group_name_H-M "P 42/M N M"
_symmetry_group_IT_number 136
_symmetry_cell_setting 'tetragonal'
loop_
_space_group_symop_operation_xyz
x,y,z
1/2-y,1/2+x,1/2+z
-x,-y,z
1/2+y,1/2-x,1/2+z
1/2+x,1/2-y,1/2-z
1/2-x,1/2+y,1/2-z
y,x,-z
-y,-x,-z
-x,-y,-z
1/2+y,1/2-x,1/2-z
x,y,-z
1/2-y,1/2+x,1/2-z
1/2-x,1/2+y,1/2+z
1/2+x,1/2-y,1/2+z
-y,-x,z
y,x,z
loop_
_atom_site_type_symbol
_atom_site_label
_atom_site_fract_x
_atom_site_fract_y
_atom_site_fract_z
Si Si1 0.580897 0.100758 0.674926
Si Si2 0.087215 0.734448 0.435705
Si Si3 0.635671 0.364330 0.064935
Si Si4 0.439893 0.262907 0.730922
Si Si5 0.910138 0.910138 0.686347
O O1 0.649410 0.081707 0.616417
O O2 0.507760 0.208831 0.678647
O O3 0.665281 0.105688 0.728852
O O4 0.500000 0.000000 0.682100
O O5 0.085515 0.681968 0.500000
O O6 0.196606 0.803395 0.428691
O O7 0.988714 0.821979 0.435649
O O8 0.654241 0.345760 0.135017
O O9 0.677233 0.322768 0.000000
O O10 0.344628 0.344628 0.712998
O O11 0.521462 0.328755 0.773391
O O12 0.000000 0.000000 0.663411
#
# Coordination Sequence:
#
# PCOD9569182 Si02
#       5
#    16  16   8  16   8
#     4  12  23  39  57  87 118 151 192 238 300 359
#     4  10  21  37  60  87 118 158 199 242 293 350
#     4  10  18  31  56  92 124 151 191 241 294 354
#     4  11  23  38  57  84 119 157 194 239 295 357
#     4  10  20  33  54  86 115 149 192 235 288 355
#
# _framework density 18.531811999999999
#
# number of rings (size 3 to 8) (size 9 to 14) (size 15 to 20)
#    0.000    1.250    5.000    1.875    3.500    3.250 
#    2.250    0.000    0.000    0.750    0.000    1.750 
#    0.000    0.000    0.000    0.000    0.000    0.000 
#
# Total GULP energy -356473.069961 kJ/mol
# GULP energy per Si atom -5569.891718 kJ/mol
# Density = 1.848963 g / cm^3
# Si number density = 18.531812 Si / 1000 Ang^3
#
#
#
# Elastic Constant Matrix: (Units=GPa)
#
#
# Indices 1 2 3 4 5 6 
#
# 1 74.6103 54.6161 40.3452 0.0000 0.0000 0.0000
# 2 54.6161 74.6109 40.3455 0.0000 0.0000 0.0000
# 3 40.3452 40.3455 91.8619 0.0000 0.0000 0.0000
# 4 0.0000 0.0000 0.0000 13.4581 0.0000 0.0000
# 5 0.0000 0.0000 0.0000 0.0000 13.4577 0.0000
# 6 0.0000 0.0000 0.0000 0.0000 0.0000 39.6283
#
#
#
# Elastic Compliance Matrix: (Units=1/GPa)
#
#
# Indices 1 2 3 4 5 6 
#
# 1 0.030338 -0.019676 -0.004683 0.000000 0.000000 0.000000
# 2 -0.019676 0.030338 -0.004683 0.000000 0.000000 0.000000
# 3 -0.004683 -0.004683 0.014999 0.000000 0.000000 0.000000
# 4 0.000000 0.000000 0.000000 0.074305 0.000000 0.000000
# 5 0.000000 0.000000 0.000000 0.000000 0.074307 0.000000
# 6 0.000000 0.000000 0.000000 0.000000 0.000000 0.025235
#
#
# Mechanical properties :
#
#
# Convention : Reuss Voigt Hill
#
# Bulk Modulus (GPa) = 56.84218 56.85520 56.84869
# Shear Modulus (GPa) = 15.95053 20.36054 18.15554
#
# Velocity S-wave (km/s) = 2.93697 3.31823 3.13340
# Velocity P-wave (km/s) = 6.49926 6.73998 6.62071
#
# Compressibility (1/GPa) = 0.01759257
#
# Stress axis : x y z
#
# Youngs Moduli (GPa) = 32.96179 32.96193 66.66976
#
# Poissons Ratio (x) = 0.64855 0.31220
# Poissons Ratio (y) = 0.64855 0.31221
# Poissons Ratio (z) = 0.15435 0.15436
#
# Static dielectric constant tensor:
#      x y z
#    x 1.647020 0.000000 0.000000 
#    y 0.000000 1.647020 0.000000 
#    z 0.000000 0.000000 1.686850 
# 
# From -- ./inp_files/8163.got.cif
#   From: 2010.05.17/outbox.cif.g08.bks.cpg/sg136_5_cif.got.tgz:8163.got - 2010.05.20 12:54:53.
