data_PCOD9569558
_publ_section_title
;
Structure prediction by ZEFSAII (Michael W. Deem and Ramdas Pophale) SiO2 
 PCOD9569558
Probable space group: P 42/M N M
;
_chemical_formula_sum "Si O2"
_cell_formula_units_Z 120
_cell_length_a 26.674970
_cell_length_b 26.674970
_cell_length_c 9.162587
_cell_angle_alpha 90.000000
_cell_angle_beta 90.000000
_cell_angle_gamma 90.000000
_cell_volume 6519.675655
_symmetry_space_group_name_H-M "P 42/M N M"
_symmetry_group_IT_number 136
_symmetry_cell_setting 'tetragonal'
loop_
_space_group_symop_operation_xyz
x,y,z
1/2-y,1/2+x,1/2+z
-x,-y,z
1/2+y,1/2-x,1/2+z
1/2+x,1/2-y,1/2-z
1/2-x,1/2+y,1/2-z
y,x,-z
-y,-x,-z
-x,-y,-z
1/2+y,1/2-x,1/2-z
x,y,-z
1/2-y,1/2+x,1/2-z
1/2-x,1/2+y,1/2+z
1/2+x,1/2-y,1/2+z
-y,-x,z
y,x,z
loop_
_atom_site_type_symbol
_atom_site_label
_atom_site_fract_x
_atom_site_fract_y
_atom_site_fract_z
Si Si1 0.041340 0.041340 0.677672
Si Si2 0.691622 0.844905 0.326782
Si Si3 0.891299 0.595578 0.171947
Si Si4 0.003778 0.151291 0.675726
Si Si5 0.817086 0.097170 0.832768
Si Si6 0.667208 0.750724 0.836769
Si Si7 0.352072 0.003036 0.171911
Si Si8 0.552413 0.243024 0.174577
O O1 0.041093 0.041093 0.500000
O O2 0.026160 0.097648 0.723114
O O3 0.000000 0.000000 0.724563
O O4 0.689144 0.837868 0.500000
O O5 0.638833 0.863483 0.262184
O O6 0.698886 0.792775 0.245732
O O7 0.730950 0.889236 0.295272
O O8 0.874988 0.543208 0.240370
O O9 0.949822 0.610056 0.185734
O O10 0.879027 0.597529 0.000000
O O11 0.998320 0.149545 0.500000
O O12 0.037285 0.200172 0.710747
O O13 0.950127 0.161337 0.747400
O O14 0.859453 0.140548 0.833282
O O15 0.767768 0.119265 0.754307
O O16 0.805746 0.084230 0.000000
O O17 0.702474 0.702474 0.848573
O O18 0.653157 0.766968 0.000000
O O19 0.298682 0.020352 0.239278
O O20 0.346298 0.991601 0.000000
O O21 0.544587 0.235631 0.000000
#
# Coordination Sequence:
#
# PCOD9569558 Si02
#       8
#     8  16  16  16  16  16  16  16
#     4   9  18  34  59  89 119 151 191 235 281 339
#     4  10  20  36  56  79 108 144 185 231 284 336
#     4  10  21  36  55  78 108 146 187 231 283 339
#     4  10  20  36  59  86 114 150 192 234 283 338
#     4  10  21  36  55  83 117 148 183 229 281 336
#     4  10  21  37  57  82 111 145 183 223 274 334
#     4  10  21  36  55  80 108 146 189 235 286 338
#     4   9  20  37  55  80 112 146 187 235 283 336
#
# _framework density 18.405823999999999
#
# number of rings (size 3 to 8) (size 9 to 14) (size 15 to 20)
#    0.000    2.200    0.000    2.400    1.867    5.067 
#    1.200    1.667    0.000    1.200    0.000    0.000 
#    0.000    0.000    0.000    0.000    0.000    0.000 
#
# Total GULP energy -669553.028213 kJ/mol
# GULP energy per Si atom -5579.608568 kJ/mol
# Density = 1.836393 g / cm^3
# Si number density = 18.405824 Si / 1000 Ang^3
#
#
#
# Elastic Constant Matrix: (Units=GPa)
#
#
# Indices 1 2 3 4 5 6 
#
# 1 89.6955 57.6345 46.3985 0.0000 0.0000 0.0000
# 2 57.6345 89.6955 46.3985 0.0000 0.0000 0.0000
# 3 46.3985 46.3985 73.0503 0.0000 0.0000 0.0000
# 4 0.0000 0.0000 0.0000 25.7472 0.0000 0.0000
# 5 0.0000 0.0000 0.0000 0.0000 25.7472 0.0000
# 6 0.0000 0.0000 0.0000 0.0000 0.0000 15.1876
#
#
#
# Elastic Compliance Matrix: (Units=1/GPa)
#
#
# Indices 1 2 3 4 5 6 
#
# 1 0.021252 -0.009938 -0.007186 0.000000 0.000000 0.000000
# 2 -0.009938 0.021252 -0.007186 0.000000 0.000000 0.000000
# 3 -0.007186 -0.007186 0.022818 0.000000 0.000000 0.000000
# 4 0.000000 0.000000 0.000000 0.038839 0.000000 0.000000
# 5 0.000000 0.000000 0.000000 0.000000 0.038839 0.000000
# 6 0.000000 0.000000 0.000000 0.000000 0.000000 0.065843
#
#
# Mechanical properties :
#
#
# Convention : Reuss Voigt Hill
#
# Bulk Modulus (GPa) = 59.87631 61.47824 60.67727
# Shear Modulus (GPa) = 19.00917 20.13704 19.57311
#
# Velocity S-wave (km/s) = 3.21718 3.31124 3.26455
# Velocity P-wave (km/s) = 6.81191 6.93492 6.87369
#
# Compressibility (1/GPa) = 0.01670110
#
# Stress axis : x y z
#
# Youngs Moduli (GPa) = 47.05425 47.05425 43.82589
#
# Poissons Ratio (x) = 0.46765 0.31493
# Poissons Ratio (y) = 0.46765 0.31493
# Poissons Ratio (z) = 0.33813 0.33813
#
# Static dielectric constant tensor:
#      x y z
#    x 1.633990 0.000000 0.000000 
#    y 0.000000 1.633990 0.000000 
#    z 0.000000 0.000000 1.626160 
# 
# From -- ./inp_files/2350.got.cif
#   From: 2010.05.17/outbox.cif.g08.bks.cpg/sg136_2_cif.got.tgz:2350.got - 2010.05.20 12:54:53.
