data_PCOD9569821
_publ_section_title
;
Structure prediction by ZEFSAII (Michael W. Deem and Ramdas Pophale) SiO2 
 PCOD9569821
Probable space group: P 42/M N M
;
_chemical_formula_sum "Si O2"
_cell_formula_units_Z 112
_cell_length_a 14.180074
_cell_length_b 14.180074
_cell_length_c 31.641749
_cell_angle_alpha 90.000000
_cell_angle_beta 90.000000
_cell_angle_gamma 90.000000
_cell_volume 6362.348816
_symmetry_space_group_name_H-M "P 42/M N M"
_symmetry_group_IT_number 136
_symmetry_cell_setting 'tetragonal'
loop_
_space_group_symop_operation_xyz
x,y,z
1/2-y,1/2+x,1/2+z
-x,-y,z
1/2+y,1/2-x,1/2+z
1/2+x,1/2-y,1/2-z
1/2-x,1/2+y,1/2-z
y,x,-z
-y,-x,-z
-x,-y,-z
1/2+y,1/2-x,1/2-z
x,y,-z
1/2-y,1/2+x,1/2-z
1/2-x,1/2+y,1/2+z
1/2+x,1/2-y,1/2+z
-y,-x,z
y,x,z
loop_
_atom_site_type_symbol
_atom_site_label
_atom_site_fract_x
_atom_site_fract_y
_atom_site_fract_z
Si Si1 0.010760 0.265556 0.209664
Si Si2 0.078768 0.921233 0.340506
Si Si3 0.054909 0.349214 0.046936
Si Si4 0.644190 0.940031 0.547123
Si Si5 0.421451 0.421451 0.744905
Si Si6 0.306740 0.145806 0.711074
Si Si7 0.768759 0.490822 0.867447
Si Si8 0.803696 0.354105 0.632246
O O1 0.968377 0.163703 0.220131
O O2 0.917142 0.329367 0.208582
O O3 0.082447 0.290239 0.247483
O O4 0.070092 0.271705 0.166825
O O5 0.108675 0.891326 0.292617
O O6 0.033728 0.834729 0.364837
O O7 0.000000 0.000000 0.336297
O O8 0.101278 0.453847 0.046199
O O9 0.102620 0.294605 0.085314
O O10 0.943966 0.369638 0.053706
O O11 0.068472 0.308185 0.000000
O O12 0.684268 0.922409 0.500000
O O13 0.710238 0.941421 0.587872
O O14 0.500000 0.500000 0.749977
O O15 0.237996 0.237996 0.712785
O O16 0.280975 0.082654 0.670510
O O17 0.833638 0.584424 0.861487
O O18 0.740255 0.259746 0.636389
#
# Coordination Sequence:
#
# PCOD9569821 Si02
#       8
#    16   8  16  16   8  16  16  16
#     4  12  25  39  60  84 116 149 187 244 293 333
#     4  11  22  38  57  80 107 161 208 227 272 348
#     4   8  15  30  52  79 116 153 183 226 290 358
#     4   8  15  30  53  81 111 147 188 233 292 347
#     4  11  22  42  60  79 109 159 203 224 274 345
#     4  12  25  41  59  84 113 150 196 238 284 350
#     4  11  21  36  59  83 116 154 191 241 288 342
#     4  11  22  35  54  88 121 149 191 240 292 343
#
# _framework density 17.603560000000002
#
# number of rings (size 3 to 8) (size 9 to 14) (size 15 to 20)
#    0.000    1.571    2.857    4.286    0.000    3.429 
#    0.000    0.357    0.000    2.143    0.000    0.500 
#    0.000    1.714    0.000    0.000    0.000    0.000 
#
# Total GULP energy -624779.123520 kJ/mol
# GULP energy per Si atom -5578.385031 kJ/mol
# Density = 1.756349 g / cm^3
# Si number density = 17.603560 Si / 1000 Ang^3
#
#
#
# Elastic Constant Matrix: (Units=GPa)
#
#
# Indices 1 2 3 4 5 6 
#
# 1 57.9385 6.7844 29.1780 0.0000 0.0000 0.0000
# 2 6.7844 57.9385 29.1780 0.0000 0.0000 0.0000
# 3 29.1780 29.1780 115.2537 0.0000 0.0000 0.0000
# 4 0.0000 0.0000 0.0000 -10.7009 0.0000 0.0000
# 5 0.0000 0.0000 0.0000 0.0000 -10.7009 0.0000
# 6 0.0000 0.0000 0.0000 0.0000 0.0000 -10.8763
#
#
#
# Elastic Compliance Matrix: (Units=1/GPa)
#
#
# Indices 1 2 3 4 5 6 
#
# 1 0.019785 0.000236 -0.005068 0.000000 0.000000 0.000000
# 2 0.000236 0.019785 -0.005068 0.000000 0.000000 0.000000
# 3 -0.005068 -0.005068 0.011243 0.000000 0.000000 0.000000
# 4 0.000000 0.000000 0.000000 -0.093450 0.000000 0.000000
# 5 0.000000 0.000000 0.000000 0.000000 -0.093450 0.000000
# 6 0.000000 0.000000 0.000000 0.000000 0.000000 -0.091943
#
#
# Mechanical properties :
#
#
# Convention : Reuss Voigt Hill
#
# Bulk Modulus (GPa) = 32.24788 40.15682 36.20235
# Shear Modulus (GPa) = -25.26619 4.61040 -10.32789
#
# Velocity S-wave (km/s) = -3.79263 1.62009 -2.42480
# Velocity P-wave (km/s) = 0.90554 5.13429 3.57358
#
# Compressibility (1/GPa) = 0.03100979
#
# Stress axis : x y z
#
# Youngs Moduli (GPa) = 50.54447 50.54447 88.94597
#
# Poissons Ratio (x) = -0.01192 0.45081
# Poissons Ratio (y) = -0.01192 0.45081
# Poissons Ratio (z) = 0.25618 0.25618
#
# Static dielectric constant tensor:
#      x y z
#    x 1.603620 0.000000 0.000000 
#    y 0.000000 1.603620 0.000000 
#    z 0.000000 0.000000 1.608900 
# 
# From -- ./inp_files/9243.got.cif
#   From: 2010.05.17/outbox.cif.g08.bks.cpg/sg136_5_cif.got.tgz:9243.got - 2010.05.20 12:54:53.
