data_PCOD9569721
_publ_section_title
;
Structure prediction by ZEFSAII (Michael W. Deem and Ramdas Pophale) SiO2 
 PCOD9569721
Probable space group: P 42/M N M
;
_chemical_formula_sum "Si O2"
_cell_formula_units_Z 64
_cell_length_a 13.634263
_cell_length_b 13.634263
_cell_length_c 17.906898
_cell_angle_alpha 90.000000
_cell_angle_beta 90.000000
_cell_angle_gamma 90.000000
_cell_volume 3328.769274
_symmetry_space_group_name_H-M "P 42/M N M"
_symmetry_group_IT_number 136
_symmetry_cell_setting 'tetragonal'
loop_
_space_group_symop_operation_xyz
x,y,z
1/2-y,1/2+x,1/2+z
-x,-y,z
1/2+y,1/2-x,1/2+z
1/2+x,1/2-y,1/2-z
1/2-x,1/2+y,1/2-z
y,x,-z
-y,-x,-z
-x,-y,-z
1/2+y,1/2-x,1/2-z
x,y,-z
1/2-y,1/2+x,1/2-z
1/2-x,1/2+y,1/2+z
1/2+x,1/2-y,1/2+z
-y,-x,z
y,x,z
loop_
_atom_site_type_symbol
_atom_site_label
_atom_site_fract_x
_atom_site_fract_y
_atom_site_fract_z
Si Si1 0.847186 0.454063 0.089796
Si Si2 0.142961 0.857040 0.916029
Si Si3 0.351087 0.188492 0.826741
Si Si4 0.970485 0.291944 0.174880
Si Si5 0.811627 0.811627 0.415511
O O1 0.837178 0.566982 0.111274
O O2 0.931018 0.390496 0.131698
O O3 0.744902 0.403816 0.116806
O O4 0.857948 0.440786 0.000000
O O5 0.197107 0.944052 0.873865
O O6 0.227649 0.772352 0.917964
O O7 0.116883 0.883118 0.000000
O O8 0.274432 0.274432 0.845351
O O9 0.410101 0.214486 0.751456
O O10 0.298351 0.085370 0.811604
O O11 0.838884 0.838884 0.500000
#
# Coordination Sequence:
#
# PCOD9569721 Si02
#       5
#    16   8  16  16   8
#     4  10  21  38  64  93 122 160 204 247 295 358
#     4   9  18  36  63  89 116 156 207 249 284 347
#     4  12  25  39  60  91 127 158 194 255 314 358
#     4  11  21  38  64  89 120 159 205 251 297 361
#     4   7  14  32  59  89 115 148 196 241 281 339
#
# _framework density 19.226326
#
# number of rings (size 3 to 8) (size 9 to 14) (size 15 to 20)
#    0.000    1.750    3.750    3.000    0.000    3.500 
#    0.000    1.250    0.000    3.000    0.000    0.000 
#    0.000    0.000    0.000    0.000    0.000    0.000 
#
# Total GULP energy -356910.048915 kJ/mol
# GULP energy per Si atom -5576.719514 kJ/mol
# Density = 1.918257 g / cm^3
# Si number density = 19.226326 Si / 1000 Ang^3
#
#
#
# Elastic Constant Matrix: (Units=GPa)
#
#
# Indices 1 2 3 4 5 6 
#
# 1 40.3161 33.4637 -6.2901 0.0000 0.0000 0.0000
# 2 33.4637 40.3161 -6.2900 0.0000 0.0000 0.0000
# 3 -6.2901 -6.2900 56.6168 0.0000 0.0000 0.0000
# 4 0.0000 0.0000 0.0000 18.4681 0.0000 0.0000
# 5 0.0000 0.0000 0.0000 0.0000 18.4680 0.0000
# 6 0.0000 0.0000 0.0000 0.0000 0.0000 17.5171
#
#
#
# Elastic Compliance Matrix: (Units=1/GPa)
#
#
# Indices 1 2 3 4 5 6 
#
# 1 0.079875 -0.066059 0.001535 0.000000 0.000000 0.000000
# 2 -0.066059 0.079875 0.001535 0.000000 0.000000 0.000000
# 3 0.001535 0.001535 0.018004 0.000000 0.000000 0.000000
# 4 0.000000 0.000000 0.000000 0.054147 0.000000 0.000000
# 5 0.000000 0.000000 0.000000 0.000000 0.054148 0.000000
# 6 0.000000 0.000000 0.000000 0.000000 0.000000 0.057087
#
#
# Mechanical properties :
#
#
# Convention : Reuss Voigt Hill
#
# Bulk Modulus (GPa) = 19.31459 19.89068 19.60264
# Shear Modulus (GPa) = 10.28019 18.64832 14.46426
#
# Velocity S-wave (km/s) = 2.31485 3.11776 2.74581
# Velocity P-wave (km/s) = 4.14879 4.82997 4.50228
#
# Compressibility (1/GPa) = 0.05177433
#
# Stress axis : x y z
#
# Youngs Moduli (GPa) = 12.51960 12.51961 55.54427
#
# Poissons Ratio (x) = 0.82703 -0.08526
# Poissons Ratio (y) = 0.82703 -0.08525
# Poissons Ratio (z) = -0.01922 -0.01922
#
# Static dielectric constant tensor:
#      x y z
#    x 1.678390 0.000000 0.000000 
#    y 0.000000 1.678390 0.000000 
#    z 0.000000 0.000000 1.695900 
# 
# From -- ./inp_files/5978.got.cif
#   From: 2010.05.17/outbox.cif.g08.bks.cpg/sg136_3_cif.got.tgz:5978.got - 2010.05.20 12:54:53.
