data_PCOD9569420
_publ_section_title
;
Structure prediction by ZEFSAII (Michael W. Deem and Ramdas Pophale) SiO2 
 PCOD9569420
Probable space group: P 42/M N M
;
_chemical_formula_sum "Si O2"
_cell_formula_units_Z 96
_cell_length_a 16.373324
_cell_length_b 16.373324
_cell_length_c 22.798461
_cell_angle_alpha 90.000000
_cell_angle_beta 90.000000
_cell_angle_gamma 90.000000
_cell_volume 6111.942261
_symmetry_space_group_name_H-M "P 42/M N M"
_symmetry_group_IT_number 136
_symmetry_cell_setting 'tetragonal'
loop_
_space_group_symop_operation_xyz
x,y,z
1/2-y,1/2+x,1/2+z
-x,-y,z
1/2+y,1/2-x,1/2+z
1/2+x,1/2-y,1/2-z
1/2-x,1/2+y,1/2-z
y,x,-z
-y,-x,-z
-x,-y,-z
1/2+y,1/2-x,1/2-z
x,y,-z
1/2-y,1/2+x,1/2-z
1/2-x,1/2+y,1/2+z
1/2+x,1/2-y,1/2+z
-y,-x,z
y,x,z
loop_
_atom_site_type_symbol
_atom_site_label
_atom_site_fract_x
_atom_site_fract_y
_atom_site_fract_z
Si Si1 0.060408 0.577992 0.829780
Si Si2 0.320121 0.015418 0.933889
Si Si3 0.691028 0.034504 0.714738
Si Si4 0.799256 0.334792 0.646297
Si Si5 0.632116 0.500209 0.410115
Si Si6 0.175628 0.047394 0.217195
O O1 0.149358 0.537889 0.822831
O O2 0.043911 0.634783 0.773194
O O3 0.000000 0.500000 0.828632
O O4 0.040120 0.630442 0.887526
O O5 0.322703 0.107433 0.908137
O O6 0.223591 0.994589 0.933318
O O7 0.351583 0.009384 0.000000
O O8 0.689459 0.118824 0.679854
O O9 0.779956 0.009582 0.736800
O O10 0.741364 0.258637 0.630953
O O11 0.745059 0.392959 0.689093
O O12 0.584407 0.415594 0.425027
O O13 0.573595 0.573595 0.428627
O O14 0.640878 0.499395 0.339442
O O15 0.104617 0.104617 0.241787
#
# Coordination Sequence:
#
# PCOD9569420 Si02
#       6
#    16  16  16  16  16  16
#     4  12  18  31  51  75  98 130 165 203 254 312
#     4  11  22  35  50  71 101 134 171 216 256 299
#     4  12  17  32  53  73 101 130 162 207 255 314
#     4  10  20  32  48  73  96 126 168 208 251 298
#     4   9  18  33  51  71  99 137 176 206 238 291
#     4   9  17  29  47  72 101 126 158 201 246 293
#
# _framework density 15.706954
#
# number of rings (size 3 to 8) (size 9 to 14) (size 15 to 20)
#    0.000    1.500    8.333    1.500    0.000    2.667 
#    0.000    1.667    0.000    0.000    0.000    0.000 
#    0.000    0.667    0.000    1.500    0.000    0.000 
#
# Total GULP energy -535373.368941 kJ/mol
# GULP energy per Si atom -5576.805926 kJ/mol
# Density = 1.567120 g / cm^3
# Si number density = 15.706954 Si / 1000 Ang^3
#
#
#
# Elastic Constant Matrix: (Units=GPa)
#
#
# Indices 1 2 3 4 5 6 
#
# 1 52.4117 16.6271 31.4476 0.0000 0.0000 0.0000
# 2 16.6271 52.4117 31.4476 0.0000 0.0000 0.0000
# 3 31.4476 31.4476 84.5249 0.0000 0.0000 0.0000
# 4 0.0000 0.0000 0.0000 3.8675 0.0000 0.0000
# 5 0.0000 0.0000 0.0000 0.0000 3.8675 0.0000
# 6 0.0000 0.0000 0.0000 0.0000 0.0000 26.2021
#
#
#
# Elastic Compliance Matrix: (Units=1/GPa)
#
#
# Indices 1 2 3 4 5 6 
#
# 1 0.024928 -0.003017 -0.008152 0.000000 0.000000 0.000000
# 2 -0.003017 0.024928 -0.008152 0.000000 0.000000 0.000000
# 3 -0.008152 -0.008152 0.017897 0.000000 0.000000 0.000000
# 4 0.000000 0.000000 0.000000 0.258568 0.000000 0.000000
# 5 0.000000 0.000000 0.000000 0.000000 0.258568 0.000000
# 6 0.000000 0.000000 0.000000 0.000000 0.000000 0.038165
#
#
# Mechanical properties :
#
#
# Convention : Reuss Voigt Hill
#
# Bulk Modulus (GPa) = 34.35133 38.71033 36.53083
# Shear Modulus (GPa) = 7.44712 14.10913 10.77813
#
# Velocity S-wave (km/s) = 2.17981 3.00037 2.62239
# Velocity P-wave (km/s) = 5.31536 6.05820 5.69890
#
# Compressibility (1/GPa) = 0.02911096
#
# Stress axis : x y z
#
# Youngs Moduli (GPa) = 40.11528 40.11528 55.87570
#
# Poissons Ratio (x) = 0.12102 0.45551
# Poissons Ratio (y) = 0.12102 0.45551
# Poissons Ratio (z) = 0.32703 0.32703
#
# Static dielectric constant tensor:
#      x y z
#    x 1.532940 0.000000 0.000000 
#    y 0.000000 1.532940 0.000000 
#    z 0.000000 0.000000 1.524270 
# 
# From -- ./inp_files/6324.got.cif
#   From: 2010.05.17/outbox.cif.g08.bks.cpg/sg136_4_cif.got.tgz:6324.got - 2010.05.20 12:54:53.
