data_PCOD9569212
_publ_section_title
;
Structure prediction by ZEFSAII (Michael W. Deem and Ramdas Pophale) SiO2 
 PCOD9569212
Probable space group: P 42/M N M
;
_chemical_formula_sum "Si O2"
_cell_formula_units_Z 60
_cell_length_a 11.659544
_cell_length_b 11.659544
_cell_length_c 20.933471
_cell_angle_alpha 90.000000
_cell_angle_beta 90.000000
_cell_angle_gamma 90.000000
_cell_volume 2845.800009
_symmetry_space_group_name_H-M "P 42/M N M"
_symmetry_group_IT_number 136
_symmetry_cell_setting 'tetragonal'
loop_
_space_group_symop_operation_xyz
x,y,z
1/2-y,1/2+x,1/2+z
-x,-y,z
1/2+y,1/2-x,1/2+z
1/2+x,1/2-y,1/2-z
1/2-x,1/2+y,1/2-z
y,x,-z
-y,-x,-z
-x,-y,-z
1/2+y,1/2-x,1/2-z
x,y,-z
1/2-y,1/2+x,1/2-z
1/2-x,1/2+y,1/2+z
1/2+x,1/2-y,1/2+z
-y,-x,z
y,x,z
loop_
_atom_site_type_symbol
_atom_site_label
_atom_site_fract_x
_atom_site_fract_y
_atom_site_fract_z
Si Si1 0.823178 0.488560 0.075289
Si Si2 0.923042 0.735402 0.927091
Si Si3 0.000000 0.500000 0.750000
Si Si4 0.790980 0.605363 0.332381
Si Si5 0.404172 0.404172 0.926620
O O1 0.908612 0.597366 0.080315
O O2 0.843818 0.372599 0.112285
O O3 0.707043 0.542032 0.103556
O O4 0.811047 0.463761 0.000000
O O5 0.801898 0.801898 0.922430
O O6 0.005653 0.775911 0.870783
O O7 0.964632 0.755456 0.000000
O O8 0.048533 0.613923 0.785873
O O9 0.702611 0.702611 0.307790
O O10 0.500000 0.500000 0.930229
O O11 0.371473 0.371473 0.000000
#
# Coordination Sequence:
#
# PCOD9569212 Si02
#       5
#    16  16   4  16   8
#     4  10  18  35  63  97 133 168 208 258 326 397
#     4  10  20  38  68 104 141 176 210 261 335 411
#     4  12  28  52  66  92 128 180 236 298 332 380
#     4  12  26  45  70  95 125 171 223 278 335 390
#     4   9  16  26  48  90 137 169 199 247 309 384
#
# _framework density 21.083703
#
# number of rings (size 3 to 8) (size 9 to 14) (size 15 to 20)
#    0.000    1.467    4.000    1.600    0.000    6.933 
#    2.400    1.333    0.000    0.000    0.000    0.000 
#    0.000    0.000    0.000    0.000    0.000    0.000 
#
# Total GULP energy -334434.573202 kJ/mol
# GULP energy per Si atom -5573.909553 kJ/mol
# Density = 2.103572 g / cm^3
# Si number density = 21.083703 Si / 1000 Ang^3
#
#
#
# Elastic Constant Matrix: (Units=GPa)
#
#
# Indices 1 2 3 4 5 6 
#
# 1 83.4982 32.3695 32.7993 0.0000 0.0000 0.0000
# 2 32.3695 83.4982 32.7993 0.0000 0.0000 0.0000
# 3 32.7993 32.7993 49.6429 0.0000 0.0000 0.0000
# 4 0.0000 0.0000 0.0000 19.3745 0.0000 0.0000
# 5 0.0000 0.0000 0.0000 0.0000 19.3745 0.0000
# 6 0.0000 0.0000 0.0000 0.0000 0.0000 41.2199
#
#
#
# Elastic Compliance Matrix: (Units=1/GPa)
#
#
# Indices 1 2 3 4 5 6 
#
# 1 0.016673 -0.002885 -0.009110 0.000000 0.000000 0.000000
# 2 -0.002885 0.016673 -0.009110 0.000000 0.000000 0.000000
# 3 -0.009110 -0.009110 0.032182 0.000000 0.000000 0.000000
# 4 0.000000 0.000000 0.000000 0.051614 0.000000 0.000000
# 5 0.000000 0.000000 0.000000 0.000000 0.051614 0.000000
# 6 0.000000 0.000000 0.000000 0.000000 0.000000 0.024260
#
#
# Mechanical properties :
#
#
# Convention : Reuss Voigt Hill
#
# Bulk Modulus (GPa) = 42.88448 45.84174 44.36311
# Shear Modulus (GPa) = 20.57619 23.90520 22.24069
#
# Velocity S-wave (km/s) = 3.12737 3.37088 3.25141
# Velocity P-wave (km/s) = 5.78143 6.07786 5.93150
#
# Compressibility (1/GPa) = 0.02331846
#
# Stress axis : x y z
#
# Youngs Moduli (GPa) = 59.97618 59.97618 31.07359
#
# Poissons Ratio (x) = 0.17304 0.28308
# Poissons Ratio (y) = 0.17304 0.28308
# Poissons Ratio (z) = 0.54637 0.54637
#
# Static dielectric constant tensor:
#      x y z
#    x 1.810310 0.000000 0.000000 
#    y 0.000000 1.810310 0.000000 
#    z 0.000000 0.000000 1.775030 
# 
# From -- ./inp_files/7071.got.cif
#   From: 2010.05.17/outbox.cif.g08.bks.cpg/sg136_4_cif.got.tgz:7071.got - 2010.05.20 12:54:53.
