data_PCOD9569464
_publ_section_title
;
Structure prediction by ZEFSAII (Michael W. Deem and Ramdas Pophale) SiO2 
 PCOD9569464
Probable space group: P 42/M N M
;
_chemical_formula_sum "Si O2"
_cell_formula_units_Z 72
_cell_length_a 20.251724
_cell_length_b 20.251724
_cell_length_c 8.145667
_cell_angle_alpha 90.000000
_cell_angle_beta 90.000000
_cell_angle_gamma 90.000000
_cell_volume 3340.801345
_symmetry_space_group_name_H-M "P 42/M N M"
_symmetry_group_IT_number 136
_symmetry_cell_setting 'tetragonal'
loop_
_space_group_symop_operation_xyz
x,y,z
1/2-y,1/2+x,1/2+z
-x,-y,z
1/2+y,1/2-x,1/2+z
1/2+x,1/2-y,1/2-z
1/2-x,1/2+y,1/2-z
y,x,-z
-y,-x,-z
-x,-y,-z
1/2+y,1/2-x,1/2-z
x,y,-z
1/2-y,1/2+x,1/2-z
1/2-x,1/2+y,1/2+z
1/2+x,1/2-y,1/2+z
-y,-x,z
y,x,z
loop_
_atom_site_type_symbol
_atom_site_label
_atom_site_fract_x
_atom_site_fract_y
_atom_site_fract_z
Si Si1 0.350635 0.860239 0.805296
Si Si2 0.160343 0.160343 0.814858
Si Si3 0.505967 0.310990 0.312730
Si Si4 0.240956 0.759045 0.813923
Si Si5 0.445219 0.445219 0.802960
Si Si6 0.996360 0.674190 0.686275
O O1 0.284197 0.821459 0.741888
O O2 0.422402 0.835478 0.741060
O O3 0.352138 0.938776 0.776838
O O4 0.350140 0.846089 0.000000
O O5 0.202647 0.202647 0.689650
O O6 0.083130 0.172518 0.798530
O O7 0.180696 0.180696 0.000000
O O8 0.492074 0.289500 0.500000
O O9 0.466273 0.375859 0.270131
O O10 0.491672 0.252195 0.190598
O O11 0.221650 0.778351 0.000000
O O12 0.500000 0.500000 0.758130
O O13 0.442152 0.442152 0.000000
O O14 0.996150 0.648326 0.500000
#
# Coordination Sequence:
#
# PCOD9569464 Si02
#       6
#    16   8  16   8   8  16
#     4  10  23  42  65  93 125 165 210 260 320 378
#     4  10  20  33  58  91 119 155 202 250 301 362
#     4  11  22  38  60  88 124 162 204 254 312 377
#     4  10  20  39  66  91 122 162 208 256 307 372
#     4  11  23  36  55  86 125 167 210 256 307 370
#     4  11  24  42  65  92 123 163 209 264 322 377
#
# _framework density 21.551714
#
# number of rings (size 3 to 8) (size 9 to 14) (size 15 to 20)
#    0.000    1.444    3.333    1.667    0.000    5.333 
#    0.000    5.556    0.000    0.000    0.000    0.000 
#    0.000    0.000    0.000    0.000    0.000    0.000 
#
# Total GULP energy -401571.602862 kJ/mol
# GULP energy per Si atom -5577.383373 kJ/mol
# Density = 2.150266 g / cm^3
# Si number density = 21.551714 Si / 1000 Ang^3
#
#
#
# Elastic Constant Matrix: (Units=GPa)
#
#
# Indices 1 2 3 4 5 6 
#
# 1 101.0796 15.3811 5.4993 0.0000 0.0000 0.0000
# 2 15.3811 101.0796 5.4992 0.0000 0.0000 0.0000
# 3 5.4993 5.4992 26.1192 0.0000 0.0000 0.0000
# 4 0.0000 0.0000 0.0000 26.2213 0.0000 0.0000
# 5 0.0000 0.0000 0.0000 0.0000 26.2214 0.0000
# 6 0.0000 0.0000 0.0000 0.0000 0.0000 29.8116
#
#
#
# Elastic Compliance Matrix: (Units=1/GPa)
#
#
# Indices 1 2 3 4 5 6 
#
# 1 0.010215 -0.001454 -0.001845 0.000000 0.000000 0.000000
# 2 -0.001454 0.010215 -0.001844 0.000000 0.000000 0.000000
# 3 -0.001845 -0.001844 0.039063 0.000000 0.000000 0.000000
# 4 0.000000 0.000000 0.000000 0.038137 0.000000 0.000000
# 5 0.000000 0.000000 0.000000 0.000000 0.038137 0.000000
# 6 0.000000 0.000000 0.000000 0.000000 0.000000 0.033544
#
#
# Mechanical properties :
#
#
# Convention : Reuss Voigt Hill
#
# Bulk Modulus (GPa) = 20.32265 31.22639 25.77452
# Shear Modulus (GPa) = 25.51043 29.91078 27.71060
#
# Velocity S-wave (km/s) = 3.44420 3.72944 3.58966
# Velocity P-wave (km/s) = 5.02662 5.75026 5.40057
#
# Compressibility (1/GPa) = 0.04920619
#
# Stress axis : x y z
#
# Youngs Moduli (GPa) = 97.89713 97.89720 25.59984
#
# Poissons Ratio (x) = 0.14234 0.04722
# Poissons Ratio (y) = 0.14234 0.04722
# Poissons Ratio (z) = 0.18058 0.18057
#
# Static dielectric constant tensor:
#      x y z
#    x 1.782740 0.000000 0.000000 
#    y 0.000000 1.782740 0.000000 
#    z 0.000000 0.000000 1.830750 
# 
# From -- ./inp_files/1645.got.cif
#   From: 2010.05.17/outbox.cif.g08.bks.cpg/sg136_1_cif.got.tgz:1645.got - 2010.05.20 12:54:53.
