data_PCOD9569935
_publ_section_title
;
Structure prediction by ZEFSAII (Michael W. Deem and Ramdas Pophale) SiO2 
 PCOD9569935
Probable space group: P 42/N M C
;
_chemical_formula_sum "Si O2"
_cell_formula_units_Z 96
_cell_length_a 23.140943
_cell_length_b 23.140943
_cell_length_c 11.271335
_cell_angle_alpha 90.000000
_cell_angle_beta 90.000000
_cell_angle_gamma 90.000000
_cell_volume 6035.836445
_symmetry_space_group_name_H-M "P 42/N M C"
_symmetry_group_IT_number 137
_space_group.IT_coordinate_system_code '2'
_symmetry_cell_setting 'tetragonal'
loop_
_space_group_symop_operation_xyz
x,y,z
1/2-y,x,1/2+z
1/2-x,1/2-y,z
y,1/2-x,1/2+z
1/2+x,-y,-z
-x,1/2+y,-z
1/2+y,1/2+x,1/2-z
-y,-x,1/2-z
-x,-y,-z
1/2+y,-x,1/2-z
1/2+x,1/2+y,-z
-y,1/2+x,1/2-z
1/2-x,y,z
x,1/2-y,z
1/2-y,1/2-x,1/2+z
y,x,1/2+z
loop_
_atom_site_type_symbol
_atom_site_label
_atom_site_fract_x
_atom_site_fract_y
_atom_site_fract_z
Si Si1 0.581393 0.750000 0.428512
Si Si2 0.995995 0.414625 0.286616
Si Si3 0.465547 0.130792 0.506579
Si Si4 0.344069 0.250000 0.815395
Si Si5 0.875378 0.961254 0.461585
Si Si6 0.449977 0.963509 0.376972
Si Si7 0.750000 0.649413 0.184730
Si Si8 0.250000 0.082563 0.560032
O O1 0.544369 0.691009 0.429595
O O2 0.618939 0.750000 0.307230
O O3 0.615281 0.750000 0.557439
O O4 0.006507 0.363192 0.377111
O O5 0.031184 0.400985 0.169522
O O6 0.018861 0.474349 0.348667
O O7 0.931067 0.431067 0.250000
O O8 0.403849 0.098420 0.491920
O O9 0.507615 0.083545 0.566589
O O10 0.304804 0.307547 0.812537
O O11 0.376121 0.250000 0.943176
O O12 0.807613 0.954929 0.452903
O O13 0.898401 0.014894 0.539740
O O14 0.436256 0.936256 0.250000
O O15 0.750000 0.613221 0.309140
#
# Coordination Sequence:
#
# PCOD9569935 Si02
#       8
#     8  16  16   8  16  16   8   8
#     4  12  26  35  54  84 108 145 184 244 287 320
#     4  10  16  32  54  76  93 132 180 215 271 332
#     4  11  20  33  52  76 107 136 182 225 274 333
#     4  11  24  40  56  68 102 152 206 235 267 312
#     4  11  20  34  52  76 106 137 181 224 276 331
#     4  10  19  31  54  77  97 135 176 224 276 341
#     4  11  22  44  54  68 100 156 204 233 269 314
#     4  12  26  35  54  84 110 143 184 248 281 322
#
# _framework density 15.905003000000001
#
# number of rings (size 3 to 8) (size 9 to 14) (size 15 to 20)
#    0.000    1.167    5.000    5.000    2.333    2.667 
#    0.000    0.000    0.000    0.000    0.000    0.000 
#    0.000    0.667    0.000    3.000    0.000    0.000 
#
# Total GULP energy -534407.614596 kJ/mol
# GULP energy per Si atom -5566.745985 kJ/mol
# Density = 1.586880 g / cm^3
# Si number density = 15.905003 Si / 1000 Ang^3
#
#
#
# Elastic Constant Matrix: (Units=GPa)
#
#
# Indices 1 2 3 4 5 6 
#
# 1 73.0611 47.9116 29.3586 0.0000 0.0000 0.0000
# 2 47.9116 73.0611 29.3586 0.0000 0.0000 0.0000
# 3 29.3586 29.3586 114.7113 0.0000 0.0000 0.0000
# 4 0.0000 0.0000 0.0000 22.9687 0.0000 0.0000
# 5 0.0000 0.0000 0.0000 0.0000 22.9687 0.0000
# 6 0.0000 0.0000 0.0000 0.0000 0.0000 21.8381
#
#
#
# Elastic Compliance Matrix: (Units=1/GPa)
#
#
# Indices 1 2 3 4 5 6 
#
# 1 0.024601 -0.015162 -0.002416 0.000000 0.000000 0.000000
# 2 -0.015162 0.024601 -0.002416 0.000000 0.000000 0.000000
# 3 -0.002416 -0.002416 0.009954 0.000000 0.000000 0.000000
# 4 0.000000 0.000000 0.000000 0.043537 0.000000 0.000000
# 5 0.000000 0.000000 0.000000 0.000000 0.043537 0.000000
# 6 0.000000 0.000000 0.000000 0.000000 0.000000 0.045792
#
#
# Mechanical properties :
#
#
# Convention : Reuss Voigt Hill
#
# Bulk Modulus (GPa) = 52.16790 52.67679 52.42235
# Shear Modulus (GPa) = 20.97338 23.83543 22.40441
#
# Velocity S-wave (km/s) = 3.63528 3.87539 3.75726
# Velocity P-wave (km/s) = 7.10572 7.29496 7.20096
#
# Compressibility (1/GPa) = 0.01916887
#
# Stress axis : x y z
#
# Youngs Moduli (GPa) = 40.64954 40.64954 100.46135
#
# Poissons Ratio (x) = 0.61631 0.24269
# Poissons Ratio (y) = 0.61631 0.24269
# Poissons Ratio (z) = 0.09820 0.09820
#
# Static dielectric constant tensor:
#      x y z
#    x 1.540720 0.000000 0.000000 
#    y 0.000000 1.540720 0.000000 
#    z 0.000000 0.000000 1.648590 
# 
# From -- ./inp_files/3825.got.cif
#   From: 2010.05.17/outbox.cif.g08.bks.cpg/sg137_2_cif.got.tgz:3825.got - 2010.05.20 13:01:12.
