data_PCOD9569412
_publ_section_title
;
Structure prediction by ZEFSAII (Michael W. Deem and Ramdas Pophale) SiO2 
 PCOD9569412
Probable space group: P 42/M N M
;
_chemical_formula_sum "Si O2"
_cell_formula_units_Z 96
_cell_length_a 19.329644
_cell_length_b 19.329644
_cell_length_c 18.670012
_cell_angle_alpha 90.000000
_cell_angle_beta 90.000000
_cell_angle_gamma 90.000000
_cell_volume 6975.772495
_symmetry_space_group_name_H-M "P 42/M N M"
_symmetry_group_IT_number 136
_symmetry_cell_setting 'tetragonal'
loop_
_space_group_symop_operation_xyz
x,y,z
1/2-y,1/2+x,1/2+z
-x,-y,z
1/2+y,1/2-x,1/2+z
1/2+x,1/2-y,1/2-z
1/2-x,1/2+y,1/2-z
y,x,-z
-y,-x,-z
-x,-y,-z
1/2+y,1/2-x,1/2-z
x,y,-z
1/2-y,1/2+x,1/2-z
1/2-x,1/2+y,1/2+z
1/2+x,1/2-y,1/2+z
-y,-x,z
y,x,z
loop_
_atom_site_type_symbol
_atom_site_label
_atom_site_fract_x
_atom_site_fract_y
_atom_site_fract_z
Si Si1 0.606069 0.282837 0.085984
Si Si2 0.630107 0.523967 0.915545
Si Si3 0.248899 0.361413 0.082278
Si Si4 0.908260 0.375837 0.320750
Si Si5 0.416613 0.994451 0.919704
Si Si6 0.358977 0.075157 0.667724
O O1 0.680094 0.319907 0.094335
O O2 0.548000 0.338719 0.110190
O O3 0.594336 0.213909 0.131763
O O4 0.595443 0.269467 0.000000
O O5 0.562127 0.562127 0.884698
O O6 0.692608 0.579208 0.910443
O O7 0.615983 0.513294 0.000000
O O8 0.289364 0.289364 0.091859
O O9 0.188748 0.375519 0.137963
O O10 0.223145 0.365528 0.000000
O O11 0.893857 0.444745 0.367021
O O12 0.876626 0.387979 0.242573
O O13 0.991868 0.365084 0.319492
O O14 0.402908 0.919543 0.886906
O O15 0.500000 0.000000 0.923104
O O16 0.389220 0.002580 0.000000
#
# Coordination Sequence:
#
# PCOD9569412 Si02
#       6
#    16  16  16  16  16  16
#     4  10  20  32  47  67  92 123 154 186 229 279
#     4   8  14  26  44  65  87 112 143 178 217 261
#     4   9  17  29  47  69  90 115 148 183 222 270
#     4  11  19  30  47  65  90 120 152 193 231 265
#     4   9  18  28  43  64  85 116 154 190 229 264
#     4  11  20  31  45  64  92 120 152 194 229 268
#
# _framework density 13.761917
#
# number of rings (size 3 to 8) (size 9 to 14) (size 15 to 20)
#    0.000    2.333    3.333    2.000    0.000    2.333 
#    0.000    1.667    0.000    0.000    0.000    0.000 
#    0.000    0.000    0.000    0.000    0.000    0.000 
#
# Total GULP energy -534587.413266 kJ/mol
# GULP energy per Si atom -5568.618888 kJ/mol
# Density = 1.373059 g / cm^3
# Si number density = 13.761917 Si / 1000 Ang^3
#
#
#
# Elastic Constant Matrix: (Units=GPa)
#
#
# Indices 1 2 3 4 5 6 
#
# 1 61.8560 48.0258 40.7599 0.0000 0.0000 0.0000
# 2 48.0258 61.8560 40.7599 0.0000 0.0000 0.0000
# 3 40.7599 40.7599 83.4025 0.0000 0.0000 0.0000
# 4 0.0000 0.0000 0.0000 15.8349 0.0000 0.0000
# 5 0.0000 0.0000 0.0000 0.0000 15.8349 0.0000
# 6 0.0000 0.0000 0.0000 0.0000 0.0000 13.4953
#
#
#
# Elastic Compliance Matrix: (Units=1/GPa)
#
#
# Indices 1 2 3 4 5 6 
#
# 1 0.043291 -0.029014 -0.006977 0.000000 0.000000 0.000000
# 2 -0.029014 0.043291 -0.006977 0.000000 0.000000 0.000000
# 3 -0.006977 -0.006977 0.018810 0.000000 0.000000 0.000000
# 4 0.000000 0.000000 0.000000 0.063152 0.000000 0.000000
# 5 0.000000 0.000000 0.000000 0.000000 0.063152 0.000000
# 6 0.000000 0.000000 0.000000 0.000000 0.000000 0.074100
#
#
# Mechanical properties :
#
#
# Convention : Reuss Voigt Hill
#
# Bulk Modulus (GPa) = 51.40189 51.80065 51.60127
# Shear Modulus (GPa) = 12.55591 14.20428 13.38009
#
# Velocity S-wave (km/s) = 3.02382 3.21618 3.12148
# Velocity P-wave (km/s) = 7.04437 7.17733 7.11116
#
# Compressibility (1/GPa) = 0.01945454
#
# Stress axis : x y z
#
# Youngs Moduli (GPa) = 23.09927 23.09927 53.16328
#
# Poissons Ratio (x) = 0.67021 0.37094
# Poissons Ratio (y) = 0.67021 0.37094
# Poissons Ratio (z) = 0.16117 0.16117
#
# Static dielectric constant tensor:
#      x y z
#    x 1.457640 0.000000 0.000000 
#    y 0.000000 1.457640 0.000000 
#    z 0.000000 0.000000 1.437430 
# 
# From -- ./inp_files/6294.got.cif
#   From: 2010.05.17/outbox.cif.g08.bks.cpg/sg136_4_cif.got.tgz:6294.got - 2010.05.20 12:54:53.
