data_PCOD9569437
_publ_section_title
;
Structure prediction by ZEFSAII (Michael W. Deem and Ramdas Pophale) SiO2 
 PCOD9569437
Probable space group: P 42/M N M
;
_chemical_formula_sum "Si O2"
_cell_formula_units_Z 96
_cell_length_a 25.703697
_cell_length_b 25.703697
_cell_length_c 7.428951
_cell_angle_alpha 90.000000
_cell_angle_beta 90.000000
_cell_angle_gamma 90.000000
_cell_volume 4908.159640
_symmetry_space_group_name_H-M "P 42/M N M"
_symmetry_group_IT_number 136
_symmetry_cell_setting 'tetragonal'
loop_
_space_group_symop_operation_xyz
x,y,z
1/2-y,1/2+x,1/2+z
-x,-y,z
1/2+y,1/2-x,1/2+z
1/2+x,1/2-y,1/2-z
1/2-x,1/2+y,1/2-z
y,x,-z
-y,-x,-z
-x,-y,-z
1/2+y,1/2-x,1/2-z
x,y,-z
1/2-y,1/2+x,1/2-z
1/2-x,1/2+y,1/2+z
1/2+x,1/2-y,1/2+z
-y,-x,z
y,x,z
loop_
_atom_site_type_symbol
_atom_site_label
_atom_site_fract_x
_atom_site_fract_y
_atom_site_fract_z
Si Si1 0.421203 0.421203 0.219473
Si Si2 0.073434 0.624873 0.207170
Si Si3 0.465151 0.618792 0.780098
Si Si4 0.265783 0.515762 0.219521
Si Si5 0.664310 0.664310 0.219825
Si Si6 0.153709 0.542644 0.207225
Si Si7 0.601587 0.761336 0.217518
O O1 0.404655 0.479020 0.275612
O O2 0.378555 0.378555 0.274934
O O3 0.421131 0.421131 0.000000
O O4 0.110202 0.580375 0.287663
O O5 0.103294 0.679887 0.215251
O O6 0.017055 0.634584 0.292470
O O7 0.061963 0.611539 0.000000
O O8 0.418366 0.581635 0.721615
O O9 0.461734 0.678912 0.722621
O O10 0.465264 0.618778 0.000000
O O11 0.212219 0.542040 0.284330
O O12 0.261864 0.454850 0.269052
O O13 0.264714 0.517132 0.000000
O O14 0.645399 0.721046 0.277566
O O15 0.664094 0.664094 0.000000
O O16 0.159077 0.559907 0.000000
O O17 0.602400 0.763760 0.000000
#
# Coordination Sequence:
#
# PCOD9569437 Si02
#       7
#     8  16  16  16   8  16  16
#     4   9  13  18  29  55  91 120 148 188 234 270
#     4  10  20  33  50  73  97 121 152 191 237 287
#     4   9  14  18  29  54  88 121 150 185 228 268
#     4   8  13  24  40  57  82 118 154 183 217 268
#     4   9  14  23  43  66  87 122 168 204 234 275
#     4   9  19  34  51  69  94 124 151 186 232 285
#     4   9  16  28  47  68  91 123 162 197 233 276
#
# _framework density 19.559266000000001
#
# number of rings (size 3 to 8) (size 9 to 14) (size 15 to 20)
#    0.000    3.000    1.667    1.750    0.000    2.667 
#    0.000    2.083    1.833    0.000    0.000    0.000 
#    0.000    6.500    0.000    6.000    0.000    6.667 
#
# Total GULP energy -535324.424521 kJ/mol
# GULP energy per Si atom -5576.296089 kJ/mol
# Density = 1.951475 g / cm^3
# Si number density = 19.559266 Si / 1000 Ang^3
#
#
#
# Elastic Constant Matrix: (Units=GPa)
#
#
# Indices 1 2 3 4 5 6 
#
# 1 123.0507 95.4141 -3.9236 0.0000 0.0000 0.0000
# 2 95.4141 123.0507 -3.9236 0.0000 0.0000 0.0000
# 3 -3.9236 -3.9236 58.8216 0.0000 0.0000 0.0000
# 4 0.0000 0.0000 0.0000 -6.4534 0.0000 0.0000
# 5 0.0000 0.0000 0.0000 0.0000 -6.4534 0.0000
# 6 0.0000 0.0000 0.0000 0.0000 0.0000 33.0825
#
#
#
# Elastic Compliance Matrix: (Units=1/GPa)
#
#
# Indices 1 2 3 4 5 6 
#
# 1 0.020386 -0.015798 0.000306 0.000000 0.000000 0.000000
# 2 -0.015798 0.020386 0.000306 0.000000 0.000000 0.000000
# 3 0.000306 0.000306 0.017041 0.000000 0.000000 0.000000
# 4 0.000000 0.000000 0.000000 -0.154956 0.000000 0.000000
# 5 0.000000 0.000000 0.000000 0.000000 -0.154956 0.000000
# 6 0.000000 0.000000 0.000000 0.000000 0.000000 0.030227
#
#
# Mechanical properties :
#
#
# Convention : Reuss Voigt Hill
#
# Bulk Modulus (GPa) = 36.43992 53.33964 44.88978
# Shear Modulus (GPa) = -27.41940 18.52553 -4.44693
#
# Velocity S-wave (km/s) = -3.74821 3.08092 -1.50947
# Velocity P-wave (km/s) = 0.24722 6.32345 4.46794
#
# Compressibility (1/GPa) = 0.02744243
#
# Stress axis : x y z
#
# Youngs Moduli (GPa) = 49.05299 49.05299 58.68063
#
# Poissons Ratio (x) = 0.77493 -0.01796
# Poissons Ratio (y) = 0.77493 -0.01796
# Poissons Ratio (z) = -0.01501 -0.01501
#
# Static dielectric constant tensor:
#      x y z
#    x 1.670780 0.000000 0.000000 
#    y 0.000000 1.670780 0.000000 
#    z 0.000000 0.000000 1.792580 
# 
# From -- ./inp_files/2075.got.cif
#   From: 2010.05.17/outbox.cif.g08.bks.cpg/sg136_2_cif.got.tgz:2075.got - 2010.05.20 12:54:53.
