data_PCOD9569365
_publ_section_title
;
Structure prediction by ZEFSAII (Michael W. Deem and Ramdas Pophale) SiO2 
 PCOD9569365
Probable space group: P 42/M N M
;
_chemical_formula_sum "Si O2"
_cell_formula_units_Z 116
_cell_length_a 17.253389
_cell_length_b 17.253389
_cell_length_c 18.412669
_cell_angle_alpha 90.000000
_cell_angle_beta 90.000000
_cell_angle_gamma 90.000000
_cell_volume 5481.072849
_symmetry_space_group_name_H-M "P 42/M N M"
_symmetry_group_IT_number 136
_symmetry_cell_setting 'tetragonal'
loop_
_space_group_symop_operation_xyz
x,y,z
1/2-y,1/2+x,1/2+z
-x,-y,z
1/2+y,1/2-x,1/2+z
1/2+x,1/2-y,1/2-z
1/2-x,1/2+y,1/2-z
y,x,-z
-y,-x,-z
-x,-y,-z
1/2+y,1/2-x,1/2-z
x,y,-z
1/2-y,1/2+x,1/2-z
1/2-x,1/2+y,1/2+z
1/2+x,1/2-y,1/2+z
-y,-x,z
y,x,z
loop_
_atom_site_type_symbol
_atom_site_label
_atom_site_fract_x
_atom_site_fract_y
_atom_site_fract_z
Si Si1 0.426020 0.699767 0.583817
Si Si2 0.606729 0.809246 0.918689
Si Si3 0.834738 0.036500 0.217355
Si Si4 0.072778 0.417420 0.288411
Si Si5 0.523315 0.120748 0.420138
Si Si6 0.657900 0.529319 0.878562
Si Si7 0.667168 0.790232 0.240369
Si Si8 0.929818 0.929818 0.500000
O O1 0.449797 0.680396 0.500000
O O2 0.341538 0.658463 0.592267
O O3 0.479593 0.670189 0.649446
O O4 0.441056 0.792386 0.589198
O O5 0.573778 0.896334 0.918028
O O6 0.542395 0.744230 0.907029
O O7 0.658547 0.796007 0.846789
O O8 0.642283 0.798468 0.000000
O O9 0.908514 0.091487 0.206780
O O10 0.842261 0.997533 0.296541
O O11 0.761241 0.095328 0.227816
O O12 0.096301 0.483072 0.228338
O O13 0.095017 0.461103 0.361770
O O14 0.124745 0.343044 0.273352
O O15 0.488692 0.115846 0.500000
O O16 0.612603 0.612603 0.874194
O O17 0.613918 0.479338 0.936667
O O18 0.744978 0.744978 0.258794
#
# Coordination Sequence:
#
# PCOD9569365 Si02
#       8
#    16  16  16  16  16  16  16   4
#     4  10  21  35  52  78 115 163 214 270 329 380
#     4  10  19  34  56  86 120 162 207 257 317 381
#     4   9  19  34  53  77 113 161 216 264 310 377
#     4  11  22  41  67  97 128 166 208 269 329 381
#     4  10  21  39  61  88 128 165 209 270 330 386
#     4  10  20  31  48  78 117 163 210 262 322 391
#     4  10  20  36  60  92 128 166 209 263 321 394
#     4  12  21  32  48  80 130 170 214 268 332 402
#
# _framework density 21.163741000000002
#
# number of rings (size 3 to 8) (size 9 to 14) (size 15 to 20)
#    0.000    1.931    3.448    1.862    0.966    2.483 
#    0.000    5.517    0.000    0.414    0.000    0.000 
#    0.000    0.000    0.000    0.000    0.000    0.000 
#
# Total GULP energy -646141.161261 kJ/mol
# GULP energy per Si atom -5570.182425 kJ/mol
# Density = 2.111557 g / cm^3
# Si number density = 21.163741 Si / 1000 Ang^3
#
#
#
# Elastic Constant Matrix: (Units=GPa)
#
#
# Indices 1 2 3 4 5 6 
#
# 1 49.6657 14.7938 38.5387 0.0000 0.0000 0.0000
# 2 14.7938 49.6657 38.5387 0.0000 0.0000 0.0000
# 3 38.5387 38.5387 155.4384 0.0000 0.0000 0.0000
# 4 0.0000 0.0000 0.0000 29.1910 0.0000 0.0000
# 5 0.0000 0.0000 0.0000 0.0000 29.1910 0.0000
# 6 0.0000 0.0000 0.0000 0.0000 0.0000 26.7256
#
#
#
# Elastic Compliance Matrix: (Units=1/GPa)
#
#
# Indices 1 2 3 4 5 6 
#
# 1 0.025364 -0.003313 -0.005467 0.000000 0.000000 0.000000
# 2 -0.003313 0.025364 -0.005467 0.000000 0.000000 0.000000
# 3 -0.005467 -0.005467 0.009144 0.000000 0.000000 0.000000
# 4 0.000000 0.000000 0.000000 0.034257 0.000000 0.000000
# 5 0.000000 0.000000 0.000000 0.000000 0.034257 0.000000
# 6 0.000000 0.000000 0.000000 0.000000 0.000000 0.037417
#
#
# Mechanical properties :
#
#
# Convention : Reuss Voigt Hill
#
# Bulk Modulus (GPa) = 31.86985 48.72361 40.29673
# Shear Modulus (GPa) = 24.41918 27.88140 26.15029
#
# Velocity S-wave (km/s) = 3.40048 3.63356 3.51895
# Velocity P-wave (km/s) = 5.52350 6.37776 5.96594
#
# Compressibility (1/GPa) = 0.03137762
#
# Stress axis : x y z
#
# Youngs Moduli (GPa) = 39.42639 39.42639 109.35572
#
# Poissons Ratio (x) = 0.13061 0.59788
# Poissons Ratio (y) = 0.13061 0.59788
# Poissons Ratio (z) = 0.21555 0.21555
#
# Static dielectric constant tensor:
#      x y z
#    x 1.800480 0.000000 0.000000 
#    y 0.000000 1.800480 0.000000 
#    z 0.000000 0.000000 1.778270 
# 
# From -- ./inp_files/6493.got.cif
#   From: 2010.05.17/outbox.cif.g08.bks.cpg/sg136_4_cif.got.tgz:6493.got - 2010.05.20 12:54:53.
