data_PCOD9569260
_publ_section_title
;
Structure prediction by ZEFSAII (Michael W. Deem and Ramdas Pophale) SiO2 
 PCOD9569260
Probable space group: P 42/M N M
;
_chemical_formula_sum "Si O2"
_cell_formula_units_Z 96
_cell_length_a 25.313589
_cell_length_b 25.313589
_cell_length_c 9.160878
_cell_angle_alpha 90.000000
_cell_angle_beta 90.000000
_cell_angle_gamma 90.000000
_cell_volume 5870.087142
_symmetry_space_group_name_H-M "P 42/M N M"
_symmetry_group_IT_number 136
_symmetry_cell_setting 'tetragonal'
loop_
_space_group_symop_operation_xyz
x,y,z
1/2-y,1/2+x,1/2+z
-x,-y,z
1/2+y,1/2-x,1/2+z
1/2+x,1/2-y,1/2-z
1/2-x,1/2+y,1/2-z
y,x,-z
-y,-x,-z
-x,-y,-z
1/2+y,1/2-x,1/2-z
x,y,-z
1/2-y,1/2+x,1/2-z
1/2-x,1/2+y,1/2+z
1/2+x,1/2-y,1/2+z
-y,-x,z
y,x,z
loop_
_atom_site_type_symbol
_atom_site_label
_atom_site_fract_x
_atom_site_fract_y
_atom_site_fract_z
Si Si1 0.826260 0.736243 0.330170
Si Si2 0.745523 0.040890 0.673358
Si Si3 0.435935 0.879078 0.660190
Si Si4 0.065756 0.251925 0.833007
Si Si5 0.363391 0.948624 0.833824
Si Si6 0.659862 0.747955 0.825907
O O1 0.836488 0.724569 0.500000
O O2 0.782365 0.782365 0.320458
O O3 0.879696 0.756266 0.253301
O O4 0.798950 0.685232 0.253806
O O5 0.750726 0.033532 0.500000
O O6 0.766457 0.988497 0.755296
O O7 0.684559 0.046541 0.721631
O O8 0.766342 0.099543 0.713896
O O9 0.415724 0.895961 0.500000
O O10 0.437665 0.815796 0.661561
O O11 0.400276 0.901078 0.787364
O O12 0.496760 0.895739 0.674737
O O13 0.068683 0.232781 0.000000
O O14 0.443896 0.156739 0.500000
O O15 0.699172 0.699172 0.796562
O O16 0.660613 0.758774 0.000000
#
# Coordination Sequence:
#
# PCOD9569260 Si02
#       6
#    16  16  16  16  16  16
#     4  10  20  32  48  72  99 126 158 196 236 278
#     4  10  19  31  48  67  89 118 150 186 226 270
#     4   9  19  32  42  56  78 105 140 181 225 268
#     4  10  20  33  48  66  90 120 153 188 227 274
#     4  10  20  31  43  59  79 106 142 184 227 270
#     4   9  18  32  49  70  97 128 159 192 235 285
#
# _framework density 16.354099999999999
#
# number of rings (size 3 to 8) (size 9 to 14) (size 15 to 20)
#    0.000    2.333    0.000    4.000    0.000   10.667 
#    0.000    1.667    0.000    0.000    0.000    0.000 
#    0.000    0.667    0.000    7.667    0.000    2.167 
#
# Total GULP energy -534907.527650 kJ/mol
# GULP energy per Si atom -5571.953413 kJ/mol
# Density = 1.631688 g / cm^3
# Si number density = 16.354100 Si / 1000 Ang^3
#
#
#
# Elastic Constant Matrix: (Units=GPa)
#
#
# Indices 1 2 3 4 5 6 
#
# 1 61.0017 -0.5627 28.5263 0.0000 0.0000 0.0000
# 2 -0.5627 61.0017 28.5263 0.0000 0.0000 0.0000
# 3 28.5263 28.5263 68.2119 0.0000 0.0000 0.0000
# 4 0.0000 0.0000 0.0000 21.1120 0.0000 0.0000
# 5 0.0000 0.0000 0.0000 0.0000 21.1120 0.0000
# 6 0.0000 0.0000 0.0000 0.0000 0.0000 13.4907
#
#
#
# Elastic Compliance Matrix: (Units=1/GPa)
#
#
# Indices 1 2 3 4 5 6 
#
# 1 0.021790 0.005547 -0.011433 0.000000 0.000000 0.000000
# 2 0.005547 0.021790 -0.011433 0.000000 0.000000 0.000000
# 3 -0.011433 -0.011433 0.024222 0.000000 0.000000 0.000000
# 4 0.000000 0.000000 0.000000 0.047366 0.000000 0.000000
# 5 0.000000 0.000000 0.000000 0.000000 0.047366 0.000000
# 6 0.000000 0.000000 0.000000 0.000000 0.000000 0.074125
#
#
# Mechanical properties :
#
#
# Convention : Reuss Voigt Hill
#
# Bulk Modulus (GPa) = 30.15024 33.68836 31.91930
# Shear Modulus (GPa) = 17.70835 20.05799 18.88317
#
# Velocity S-wave (km/s) = 3.29417 3.50591 3.40169
# Velocity P-wave (km/s) = 5.73975 6.08544 5.91512
#
# Compressibility (1/GPa) = 0.03316724
#
# Stress axis : x y z
#
# Youngs Moduli (GPa) = 45.89173 45.89173 41.28396
#
# Poissons Ratio (x) = -0.25457 0.47198
# Poissons Ratio (y) = -0.25457 0.47198
# Poissons Ratio (z) = 0.52466 0.52466
#
# Static dielectric constant tensor:
#      x y z
#    x 1.566240 0.000000 0.000000 
#    y 0.000000 1.566240 0.000000 
#    z 0.000000 0.000000 1.572510 
# 
# From -- ./inp_files/1963.got.cif
#   From: 2010.05.17/outbox.cif.g08.bks.cpg/sg136_1_cif.got.tgz:1963.got - 2010.05.20 12:54:53.
