data_PCOD9569331
_publ_section_title
;
Structure prediction by ZEFSAII (Michael W. Deem and Ramdas Pophale) SiO2 
 PCOD9569331
Probable space group: P 42/M N M
;
_chemical_formula_sum "Si O2"
_cell_formula_units_Z 96
_cell_length_a 15.691067
_cell_length_b 15.691067
_cell_length_c 19.482986
_cell_angle_alpha 90.000000
_cell_angle_beta 90.000000
_cell_angle_gamma 90.000000
_cell_volume 4796.897870
_symmetry_space_group_name_H-M "P 42/M N M"
_symmetry_group_IT_number 136
_symmetry_cell_setting 'tetragonal'
loop_
_space_group_symop_operation_xyz
x,y,z
1/2-y,1/2+x,1/2+z
-x,-y,z
1/2+y,1/2-x,1/2+z
1/2+x,1/2-y,1/2-z
1/2-x,1/2+y,1/2-z
y,x,-z
-y,-x,-z
-x,-y,-z
1/2+y,1/2-x,1/2-z
x,y,-z
1/2-y,1/2+x,1/2-z
1/2-x,1/2+y,1/2+z
1/2+x,1/2-y,1/2+z
-y,-x,z
y,x,z
loop_
_atom_site_type_symbol
_atom_site_label
_atom_site_fract_x
_atom_site_fract_y
_atom_site_fract_z
Si Si1 0.353531 0.209735 0.824055
Si Si2 0.935844 0.576670 0.919362
Si Si3 0.670370 0.539588 0.720534
Si Si4 0.249422 0.615794 0.219623
Si Si5 0.371437 0.769348 0.073040
Si Si6 0.060230 0.739169 0.076429
O O1 0.270801 0.270801 0.845048
O O2 0.401467 0.154609 0.882657
O O3 0.409823 0.270362 0.775275
O O4 0.325357 0.134666 0.771689
O O5 0.000000 0.500000 0.893956
O O6 0.992047 0.663055 0.915353
O O7 0.920894 0.558587 0.000000
O O8 0.576948 0.576948 0.727769
O O9 0.684940 0.443914 0.742192
O O10 0.701599 0.553864 0.642714
O O11 0.292258 0.707743 0.207250
O O12 0.226593 0.580435 0.144942
O O13 0.318803 0.681198 0.071090
O O14 0.304770 0.846983 0.076205
O O15 0.418068 0.776942 0.000000
O O16 0.048260 0.778030 0.000000
#
# Coordination Sequence:
#
# PCOD9569331 Si02
#       6
#    16  16  16  16  16  16
#     4  10  21  37  56  82 115 153 194 230 280 355
#     4  10  22  38  56  84 118 150 189 236 287 341
#     4  11  22  36  56  82 109 144 191 235 277 335
#     4  10  20  36  56  80 112 146 182 228 282 340
#     4   9  17  31  54  81 107 137 174 222 281 338
#     4  10  19  33  53  81 113 144 177 228 287 329
#
# _framework density 20.012933
#
# number of rings (size 3 to 8) (size 9 to 14) (size 15 to 20)
#    0.000    2.000    3.333    0.500    2.333    1.667 
#    0.000    0.000    0.000    2.000    0.000    3.500 
#    0.000    0.000    0.000    0.000    0.000    0.000 
#
# Total GULP energy -534437.740795 kJ/mol
# GULP energy per Si atom -5567.059800 kJ/mol
# Density = 1.996738 g / cm^3
# Si number density = 20.012933 Si / 1000 Ang^3
#
#
#
# Elastic Constant Matrix: (Units=GPa)
#
#
# Indices 1 2 3 4 5 6 
#
# 1 59.9702 13.8201 22.9134 0.0000 0.0000 0.0000
# 2 13.8201 59.9702 22.9134 0.0000 0.0000 0.0000
# 3 22.9134 22.9134 124.6280 0.0000 0.0000 0.0000
# 4 0.0000 0.0000 0.0000 12.7131 0.0000 0.0000
# 5 0.0000 0.0000 0.0000 0.0000 12.7131 0.0000
# 6 0.0000 0.0000 0.0000 0.0000 0.0000 36.9584
#
#
#
# Elastic Compliance Matrix: (Units=1/GPa)
#
#
# Indices 1 2 3 4 5 6 
#
# 1 0.018484 -0.003185 -0.002813 0.000000 0.000000 0.000000
# 2 -0.003185 0.018484 -0.002813 0.000000 0.000000 0.000000
# 3 -0.002813 -0.002813 0.009058 0.000000 0.000000 0.000000
# 4 0.000000 0.000000 0.000000 0.078659 0.000000 0.000000
# 5 0.000000 0.000000 0.000000 0.000000 0.078659 0.000000
# 6 0.000000 0.000000 0.000000 0.000000 0.000000 0.027057
#
#
# Mechanical properties :
#
#
# Convention : Reuss Voigt Hill
#
# Bulk Modulus (GPa) = 35.20546 40.42912 37.81729
# Shear Modulus (GPa) = 19.41822 24.80501 22.11161
#
# Velocity S-wave (km/s) = 3.11832 3.52440 3.32756
# Velocity P-wave (km/s) = 5.53125 6.06690 5.80525
#
# Compressibility (1/GPa) = 0.02840469
#
# Stress axis : x y z
#
# Youngs Moduli (GPa) = 54.10202 54.10202 110.39791
#
# Poissons Ratio (x) = 0.17231 0.31052
# Poissons Ratio (y) = 0.17231 0.31052
# Poissons Ratio (z) = 0.15217 0.15217
#
# Static dielectric constant tensor:
#      x y z
#    x 1.713910 0.000000 0.000000 
#    y 0.000000 1.713910 0.000000 
#    z 0.000000 0.000000 1.778130 
# 
# From -- ./inp_files/6310.got.cif
#   From: 2010.05.17/outbox.cif.g08.bks.cpg/sg136_4_cif.got.tgz:6310.got - 2010.05.20 12:54:53.
