data_PCOD9569476
_publ_section_title
;
Structure prediction by ZEFSAII (Michael W. Deem and Ramdas Pophale) SiO2 
 PCOD9569476
Probable space group: P 42/M N M
;
_chemical_formula_sum "Si O2"
_cell_formula_units_Z 72
_cell_length_a 21.503847
_cell_length_b 21.503847
_cell_length_c 9.246285
_cell_angle_alpha 90.000000
_cell_angle_beta 90.000000
_cell_angle_gamma 90.000000
_cell_volume 4275.624908
_symmetry_space_group_name_H-M "P 42/M N M"
_symmetry_group_IT_number 136
_symmetry_cell_setting 'tetragonal'
loop_
_space_group_symop_operation_xyz
x,y,z
1/2-y,1/2+x,1/2+z
-x,-y,z
1/2+y,1/2-x,1/2+z
1/2+x,1/2-y,1/2-z
1/2-x,1/2+y,1/2-z
y,x,-z
-y,-x,-z
-x,-y,-z
1/2+y,1/2-x,1/2-z
x,y,-z
1/2-y,1/2+x,1/2-z
1/2-x,1/2+y,1/2+z
1/2+x,1/2-y,1/2+z
-y,-x,z
y,x,z
loop_
_atom_site_type_symbol
_atom_site_label
_atom_site_fract_x
_atom_site_fract_y
_atom_site_fract_z
Si Si1 0.323659 0.037410 0.170864
Si Si2 0.551137 0.448864 0.675635
Si Si3 0.000669 0.814616 0.825919
Si Si4 0.772868 0.123850 0.668567
Si Si5 0.852564 0.606957 0.671418
O O1 0.249624 0.036147 0.204275
O O2 0.361520 0.086526 0.263807
O O3 0.348727 0.967477 0.196055
O O4 0.330552 0.051199 0.000000
O O5 0.500000 0.500000 0.724128
O O6 0.550179 0.449822 0.500000
O O7 0.532214 0.378849 0.718138
O O8 0.066313 0.806966 0.746410
O O9 0.010784 0.816058 0.000000
O O10 0.762324 0.108790 0.500000
O O11 0.816303 0.183697 0.677892
O O12 0.707835 0.133728 0.748582
O O13 0.848327 0.616942 0.500000
#
# Coordination Sequence:
#
# PCOD9569476 Si02
#       5
#    16   8  16  16  16
#     4   9  19  35  52  75 106 137 173 216 265 313
#     4   9  16  28  51  81 107 139 183 221 257 306
#     4   9  18  33  53  77 107 142 177 218 262 310
#     4  10  20  34  53  77 104 137 176 219 266 310
#     4  10  21  36  56  79 104 137 174 215 261 315
#
# _framework density 16.839645000000001
#
# number of rings (size 3 to 8) (size 9 to 14) (size 15 to 20)
#    0.000    2.556    0.000    3.333    0.000    7.556 
#    2.000    2.778    0.000    2.000    0.000    0.000 
#    0.000    0.000    0.000    0.000    0.000    0.000 
#
# Total GULP energy -401504.250532 kJ/mol
# GULP energy per Si atom -5576.447924 kJ/mol
# Density = 1.680132 g / cm^3
# Si number density = 16.839645 Si / 1000 Ang^3
#
#
#
# Elastic Constant Matrix: (Units=GPa)
#
#
# Indices 1 2 3 4 5 6 
#
# 1 97.4356 85.1486 65.3306 0.0000 0.0000 0.0000
# 2 85.1486 97.4355 65.3306 0.0000 0.0000 0.0000
# 3 65.3306 65.3306 72.6151 0.0000 0.0000 0.0000
# 4 0.0000 0.0000 0.0000 22.5433 0.0000 0.0000
# 5 0.0000 0.0000 0.0000 0.0000 22.5432 0.0000
# 6 0.0000 0.0000 0.0000 0.0000 0.0000 25.2198
#
#
#
# Elastic Compliance Matrix: (Units=1/GPa)
#
#
# Indices 1 2 3 4 5 6 
#
# 1 0.048382 -0.033005 -0.013835 0.000000 0.000000 0.000000
# 2 -0.033005 0.048382 -0.013835 0.000000 0.000000 0.000000
# 3 -0.013835 -0.013835 0.038665 0.000000 0.000000 0.000000
# 4 0.000000 0.000000 0.000000 0.044359 0.000000 0.000000
# 5 0.000000 0.000000 0.000000 0.000000 0.044359 0.000000
# 6 0.000000 0.000000 0.000000 0.000000 0.000000 0.039651
#
#
# Mechanical properties :
#
#
# Convention : Reuss Voigt Hill
#
# Bulk Modulus (GPa) = 71.01900 77.67844 74.34872
# Shear Modulus (GPa) = 12.82568 17.50634 15.16601
#
# Velocity S-wave (km/s) = 2.76277 3.22777 3.00428
# Velocity P-wave (km/s) = 7.24172 7.75369 7.50207
#
# Compressibility (1/GPa) = 0.01408074
#
# Stress axis : x y z
#
# Youngs Moduli (GPa) = 20.66866 20.66865 25.86306
#
# Poissons Ratio (x) = 0.68217 0.35781
# Poissons Ratio (y) = 0.68217 0.35781
# Poissons Ratio (z) = 0.28595 0.28595
#
# Static dielectric constant tensor:
#      x y z
#    x 1.554870 0.000000 0.000000 
#    y 0.000000 1.554870 0.000000 
#    z 0.000000 0.000000 1.562240 
# 
# From -- ./inp_files/1528.got.cif
#   From: 2010.05.17/outbox.cif.g08.bks.cpg/sg136_1_cif.got.tgz:1528.got - 2010.05.20 12:54:53.
