data_PCOD9569503
_publ_section_title
;
Structure prediction by ZEFSAII (Michael W. Deem and Ramdas Pophale) SiO2 
 PCOD9569503
Probable space group: P 42/M N M
;
_chemical_formula_sum "Si O2"
_cell_formula_units_Z 96
_cell_length_a 14.504677
_cell_length_b 14.504677
_cell_length_c 21.011351
_cell_angle_alpha 90.000000
_cell_angle_beta 90.000000
_cell_angle_gamma 90.000000
_cell_volume 4420.486840
_symmetry_space_group_name_H-M "P 42/M N M"
_symmetry_group_IT_number 136
_symmetry_cell_setting 'tetragonal'
loop_
_space_group_symop_operation_xyz
x,y,z
1/2-y,1/2+x,1/2+z
-x,-y,z
1/2+y,1/2-x,1/2+z
1/2+x,1/2-y,1/2-z
1/2-x,1/2+y,1/2-z
y,x,-z
-y,-x,-z
-x,-y,-z
1/2+y,1/2-x,1/2-z
x,y,-z
1/2-y,1/2+x,1/2-z
1/2-x,1/2+y,1/2+z
1/2+x,1/2-y,1/2+z
-y,-x,z
y,x,z
loop_
_atom_site_type_symbol
_atom_site_label
_atom_site_fract_x
_atom_site_fract_y
_atom_site_fract_z
Si Si1 0.759428 0.089899 0.792316
Si Si2 0.283104 0.958096 0.070256
Si Si3 0.723379 0.864442 0.575614
Si Si4 0.683485 0.542511 0.076220
Si Si5 0.116016 0.265966 0.247673
Si Si6 0.806198 0.338508 0.399023
O O1 0.843728 0.156273 0.771155
O O2 0.775935 0.058217 0.865762
O O3 0.667322 0.154273 0.788357
O O4 0.744453 0.994912 0.753045
O O5 0.365966 0.885834 0.080563
O O6 0.316252 0.062314 0.070459
O O7 0.242515 0.936667 0.000000
O O8 0.738344 0.871434 0.500000
O O9 0.766364 0.766364 0.595472
O O10 0.783485 0.946000 0.604580
O O11 0.592320 0.592320 0.102369
O O12 0.768197 0.612375 0.085886
O O13 0.669127 0.532697 0.000000
O O14 0.170227 0.170227 0.259732
O O15 0.143735 0.297033 0.176056
O O16 0.712709 0.287292 0.420288
#
# Coordination Sequence:
#
# PCOD9569503 Si02
#       6
#    16  16  16  16  16  16
#     4  10  21  38  61  87 116 152 193 239 290 343
#     4  10  20  34  56  85 117 152 187 228 284 346
#     4   9  18  31  45  65  98 138 177 219 268 323
#     4   9  17  29  47  71  98 133 179 228 278 331
#     4   9  20  38  58  83 114 149 192 238 284 338
#     4   9  18  34  55  79 111 148 185 230 281 334
#
# _framework density 21.717065999999999
#
# number of rings (size 3 to 8) (size 9 to 14) (size 15 to 20)
#    0.000    2.667    0.000    1.000    0.000    5.000 
#    0.000    7.500    0.000    1.500    0.000   16.333 
#    0.000    0.000    0.000    0.000    0.000    0.000 
#
# Total GULP energy -535005.284999 kJ/mol
# GULP energy per Si atom -5572.971719 kJ/mol
# Density = 2.166764 g / cm^3
# Si number density = 21.717066 Si / 1000 Ang^3
#
#
#
# Elastic Constant Matrix: (Units=GPa)
#
#
# Indices 1 2 3 4 5 6 
#
# 1 120.9715 17.4380 9.0829 0.0000 0.0000 0.0000
# 2 17.4380 120.9715 9.0829 0.0000 0.0000 0.0000
# 3 9.0829 9.0829 95.4776 0.0000 0.0000 0.0000
# 4 0.0000 0.0000 0.0000 21.9185 0.0000 0.0000
# 5 0.0000 0.0000 0.0000 0.0000 21.9185 0.0000
# 6 0.0000 0.0000 0.0000 0.0000 0.0000 18.7050
#
#
#
# Elastic Compliance Matrix: (Units=1/GPa)
#
#
# Indices 1 2 3 4 5 6 
#
# 1 0.008487 -0.001171 -0.000696 0.000000 0.000000 0.000000
# 2 -0.001171 0.008487 -0.000696 0.000000 0.000000 0.000000
# 3 -0.000696 -0.000696 0.010606 0.000000 0.000000 0.000000
# 4 0.000000 0.000000 0.000000 0.045624 0.000000 0.000000
# 5 0.000000 0.000000 0.000000 0.000000 0.045624 0.000000
# 6 0.000000 0.000000 0.000000 0.000000 0.000000 0.053462
#
#
# Mechanical properties :
#
#
# Convention : Reuss Voigt Hill
#
# Bulk Modulus (GPa) = 44.53425 45.40313 44.96869
# Shear Modulus (GPa) = 27.04145 32.62950 29.83548
#
# Velocity S-wave (km/s) = 3.53253 3.88039 3.71054
# Velocity P-wave (km/s) = 6.09831 6.40536 6.25372
#
# Compressibility (1/GPa) = 0.02245463
#
# Stress axis : x y z
#
# Youngs Moduli (GPa) = 117.82033 117.82033 94.28547
#
# Poissons Ratio (x) = 0.13799 0.06562
# Poissons Ratio (y) = 0.13799 0.06562
# Poissons Ratio (z) = 0.08200 0.08200
#
# Static dielectric constant tensor:
#      x y z
#    x 1.775300 0.000000 0.000000 
#    y 0.000000 1.775300 0.000000 
#    z 0.000000 0.000000 1.931880 
# 
# From -- ./inp_files/7512.got.cif
#   From: 2010.05.17/outbox.cif.g08.bks.cpg/sg136_4_cif.got.tgz:7512.got - 2010.05.20 12:54:53.
