data_PCOD9569245
_publ_section_title
;
Structure prediction by ZEFSAII (Michael W. Deem and Ramdas Pophale) SiO2 
 PCOD9569245
Probable space group: P 42/M N M
;
_chemical_formula_sum "Si O2"
_cell_formula_units_Z 80
_cell_length_a 18.844624
_cell_length_b 18.844624
_cell_length_c 14.238723
_cell_angle_alpha 90.000000
_cell_angle_beta 90.000000
_cell_angle_gamma 90.000000
_cell_volume 5056.453229
_symmetry_space_group_name_H-M "P 42/M N M"
_symmetry_group_IT_number 136
_symmetry_cell_setting 'tetragonal'
loop_
_space_group_symop_operation_xyz
x,y,z
1/2-y,1/2+x,1/2+z
-x,-y,z
1/2+y,1/2-x,1/2+z
1/2+x,1/2-y,1/2-z
1/2-x,1/2+y,1/2-z
y,x,-z
-y,-x,-z
-x,-y,-z
1/2+y,1/2-x,1/2-z
x,y,-z
1/2-y,1/2+x,1/2-z
1/2-x,1/2+y,1/2+z
1/2+x,1/2-y,1/2+z
-y,-x,z
y,x,z
loop_
_atom_site_type_symbol
_atom_site_label
_atom_site_fract_x
_atom_site_fract_y
_atom_site_fract_z
Si Si1 0.684527 0.108921 0.105760
Si Si2 0.418588 0.016189 0.606633
Si Si3 0.224725 0.660268 0.746993
Si Si4 0.006939 0.714136 0.731482
Si Si5 0.249781 0.368254 0.889346
O O1 0.600523 0.092371 0.102853
O O2 0.689627 0.182589 0.161930
O O3 0.717272 0.047251 0.169692
O O4 0.711796 0.111961 0.000000
O O5 0.403345 0.988692 0.500000
O O6 0.500000 0.000000 0.627976
O O7 0.364764 0.988376 0.685211
O O8 0.298483 0.701518 0.736580
O O9 0.231700 0.575767 0.757394
O O10 0.173322 0.684790 0.661509
O O11 0.055210 0.758614 0.659066
O O12 0.317944 0.317944 0.873551
O O13 0.237905 0.374684 0.000000
#
# Coordination Sequence:
#
# PCOD9569245 Si02
#       5
#    16  16  16  16  16
#     4   9  19  30  41  64  93 125 158 190 230 278
#     4   9  18  27  39  62  92 122 151 185 228 277
#     4   9  19  34  50  70  96 128 165 201 238 287
#     4  10  19  30  48  69  94 125 162 199 239 288
#     4   9  18  33  52  73  98 127 161 203 248 290
#
# _framework density 15.821365
#
# number of rings (size 3 to 8) (size 9 to 14) (size 15 to 20)
#    0.000    2.800    0.000    0.600    8.400    2.000 
#    0.000    0.000    0.000    0.600    0.000    1.400 
#    0.000    0.000    0.000   15.000    0.000    0.000 
#
# Total GULP energy -445696.948697 kJ/mol
# GULP energy per Si atom -5571.211859 kJ/mol
# Density = 1.578536 g / cm^3
# Si number density = 15.821365 Si / 1000 Ang^3
#
#
#
# Elastic Constant Matrix: (Units=GPa)
#
#
# Indices 1 2 3 4 5 6 
#
# 1 64.7067 28.6556 23.1661 0.0000 0.0000 0.0000
# 2 28.6556 64.7067 23.1661 0.0000 0.0000 0.0000
# 3 23.1661 23.1661 113.5813 0.0000 0.0000 0.0000
# 4 0.0000 0.0000 0.0000 14.8056 0.0000 0.0000
# 5 0.0000 0.0000 0.0000 0.0000 14.8056 0.0000
# 6 0.0000 0.0000 0.0000 0.0000 0.0000 12.0830
#
#
#
# Elastic Compliance Matrix: (Units=1/GPa)
#
#
# Indices 1 2 3 4 5 6 
#
# 1 0.019828 -0.007911 -0.002431 0.000000 0.000000 0.000000
# 2 -0.007911 0.019828 -0.002431 0.000000 0.000000 0.000000
# 3 -0.002431 -0.002431 0.009796 0.000000 0.000000 0.000000
# 4 0.000000 0.000000 0.000000 0.067542 0.000000 0.000000
# 5 0.000000 0.000000 0.000000 0.000000 0.067542 0.000000
# 6 0.000000 0.000000 0.000000 0.000000 0.000000 0.082761
#
#
# Mechanical properties :
#
#
# Convention : Reuss Voigt Hill
#
# Bulk Modulus (GPa) = 41.82768 43.66337 42.74553
# Shear Modulus (GPa) = 16.62183 19.53930 18.08056
#
# Velocity S-wave (km/s) = 3.24480 3.51806 3.38419
# Velocity P-wave (km/s) = 6.36657 6.64530 6.50743
#
# Compressibility (1/GPa) = 0.02390761
#
# Stress axis : x y z
#
# Youngs Moduli (GPa) = 50.43418 50.43418 102.08483
#
# Poissons Ratio (x) = 0.39897 0.24813
# Poissons Ratio (y) = 0.39897 0.24813
# Poissons Ratio (z) = 0.12259 0.12259
#
# Static dielectric constant tensor:
#      x y z
#    x 1.525520 0.000000 0.000000 
#    y 0.000000 1.525520 0.000000 
#    z 0.000000 0.000000 1.570710 
# 
# From -- ./inp_files/4877.got.cif
#   From: 2010.05.17/outbox.cif.g08.bks.cpg/sg136_3_cif.got.tgz:4877.got - 2010.05.20 12:54:53.
