data_PCOD9569932
_publ_section_title
;
Structure prediction by ZEFSAII (Michael W. Deem and Ramdas Pophale) SiO2 
 PCOD9569932
Probable space group: P 42/N M C
;
_chemical_formula_sum "Si O2"
_cell_formula_units_Z 104
_cell_length_a 18.094935
_cell_length_b 18.094935
_cell_length_c 18.757753
_cell_angle_alpha 90.000000
_cell_angle_beta 90.000000
_cell_angle_gamma 90.000000
_cell_volume 6141.788651
_symmetry_space_group_name_H-M "P 42/N M C"
_symmetry_group_IT_number 137
_space_group.IT_coordinate_system_code '2'
_symmetry_cell_setting 'tetragonal'
loop_
_space_group_symop_operation_xyz
x,y,z
1/2-y,x,1/2+z
1/2-x,1/2-y,z
y,1/2-x,1/2+z
1/2+x,-y,-z
-x,1/2+y,-z
1/2+y,1/2+x,1/2-z
-y,-x,1/2-z
-x,-y,-z
1/2+y,-x,1/2-z
1/2+x,1/2+y,-z
-y,1/2+x,1/2-z
1/2-x,y,z
x,1/2-y,z
1/2-y,1/2-x,1/2+z
y,x,1/2+z
loop_
_atom_site_type_symbol
_atom_site_label
_atom_site_fract_x
_atom_site_fract_y
_atom_site_fract_z
Si Si1 0.338123 0.667668 0.392885
Si Si2 0.666455 0.951020 0.252105
Si Si3 0.397401 0.602600 0.250000
Si Si4 0.092305 0.458968 0.341360
Si Si5 0.336937 0.519518 0.476718
Si Si6 0.419073 0.981885 0.618603
Si Si7 0.613469 0.171762 0.319729
O O1 0.250000 0.662301 0.378764
O O2 0.354490 0.750000 0.419412
O O3 0.378944 0.653351 0.317927
O O4 0.355257 0.602417 0.448400
O O5 0.750000 0.926970 0.267362
O O6 0.620034 0.903300 0.196318
O O7 0.617471 0.964757 0.322474
O O8 0.670591 0.031355 0.214071
O O9 0.479320 0.610432 0.217922
O O10 0.145610 0.469469 0.408111
O O11 0.007098 0.474976 0.367409
O O12 0.250000 0.516472 0.496697
O O13 0.391560 0.497398 0.540405
O O14 0.382793 0.901001 0.632928
O O15 0.663963 0.163963 0.250000
O O16 0.626700 0.250000 0.356523
#
# Coordination Sequence:
#
# PCOD9569932 Si02
#       7
#    16  16   8  16  16  16  16
#     4   9  18  31  46  68 101 140 173 200 236 283
#     4   9  16  29  50  72  93 118 158 206 251 296
#     4  10  16  27  48  70  94 124 171 212 242 278
#     4  10  18  32  49  72  98 127 166 206 254 289
#     4  10  21  32  46  70 102 136 168 200 241 301
#     4  10  17  30  48  71  98 129 161 207 250 290
#     4   8  15  25  39  62  93 127 162 196 232 280
#
# _framework density 16.933178999999999
#
# number of rings (size 3 to 8) (size 9 to 14) (size 15 to 20)
#    0.000    2.615    1.538    2.308    0.000    2.615 
#    0.000    0.000    0.000    0.462    0.000    0.000 
#    0.000    2.462    0.000    0.000    0.000    0.000 
#
# Total GULP energy -579123.354227 kJ/mol
# GULP energy per Si atom -5568.493791 kJ/mol
# Density = 1.689464 g / cm^3
# Si number density = 16.933179 Si / 1000 Ang^3
#
#
#
# Elastic Constant Matrix: (Units=GPa)
#
#
# Indices 1 2 3 4 5 6 
#
# 1 31.3257 12.9324 5.7138 0.0000 0.0000 0.0000
# 2 12.9324 31.3250 5.7134 0.0000 0.0000 0.0000
# 3 5.7138 5.7134 58.6824 0.0000 0.0000 0.0000
# 4 0.0000 0.0000 0.0000 9.8761 0.0000 0.0000
# 5 0.0000 0.0000 0.0000 0.0000 9.8764 0.0000
# 6 0.0000 0.0000 0.0000 0.0000 0.0000 15.3755
#
#
#
# Elastic Compliance Matrix: (Units=1/GPa)
#
#
# Indices 1 2 3 4 5 6 
#
# 1 0.038773 -0.015596 -0.002257 0.000000 0.000000 0.000000
# 2 -0.015596 0.038774 -0.002257 0.000000 0.000000 0.000000
# 3 -0.002257 -0.002257 0.017480 0.000000 0.000000 0.000000
# 4 0.000000 0.000000 0.000000 0.101255 0.000000 0.000000
# 5 0.000000 0.000000 0.000000 0.000000 0.101252 0.000000
# 6 0.000000 0.000000 0.000000 0.000000 0.000000 0.065038
#
#
# Mechanical properties :
#
#
# Convention : Reuss Voigt Hill
#
# Bulk Modulus (GPa) = 18.24526 18.89470 18.56998
# Shear Modulus (GPa) = 11.87483 13.49051 12.68267
#
# Velocity S-wave (km/s) = 2.65103 2.82563 2.73973
# Velocity P-wave (km/s) = 4.49098 4.67207 4.58242
#
# Compressibility (1/GPa) = 0.05480877
#
# Stress axis : x y z
#
# Youngs Moduli (GPa) = 25.79135 25.79075 57.20723
#
# Poissons Ratio (x) = 0.40222 0.12911
# Poissons Ratio (y) = 0.40223 0.12909
# Poissons Ratio (z) = 0.05821 0.05820
#
# Static dielectric constant tensor:
#      x y z
#    x 1.586030 0.000000 0.000000 
#    y 0.000000 1.586030 0.000000 
#    z 0.000000 0.000000 1.569930 
# 
# From -- ./inp_files/6599.got.cif
#   From: 2010.05.17/outbox.cif.g08.bks.cpg/sg137_4_cif.got.tgz:6599.got - 2010.05.20 13:01:12.
