data_PCOD9569600
_publ_section_title
;
Structure prediction by ZEFSAII (Michael W. Deem and Ramdas Pophale) SiO2 
 PCOD9569600
Probable space group: P 42/M N M
;
_chemical_formula_sum "Si O2"
_cell_formula_units_Z 96
_cell_length_a 23.659357
_cell_length_b 23.659357
_cell_length_c 8.319228
_cell_angle_alpha 90.000000
_cell_angle_beta 90.000000
_cell_angle_gamma 90.000000
_cell_volume 4656.814106
_symmetry_space_group_name_H-M "P 42/M N M"
_symmetry_group_IT_number 136
_symmetry_cell_setting 'tetragonal'
loop_
_space_group_symop_operation_xyz
x,y,z
1/2-y,1/2+x,1/2+z
-x,-y,z
1/2+y,1/2-x,1/2+z
1/2+x,1/2-y,1/2-z
1/2-x,1/2+y,1/2-z
y,x,-z
-y,-x,-z
-x,-y,-z
1/2+y,1/2-x,1/2-z
x,y,-z
1/2-y,1/2+x,1/2-z
1/2-x,1/2+y,1/2+z
1/2+x,1/2-y,1/2+z
-y,-x,z
y,x,z
loop_
_atom_site_type_symbol
_atom_site_label
_atom_site_fract_x
_atom_site_fract_y
_atom_site_fract_z
Si Si1 0.933943 0.452222 0.177548
Si Si2 0.060563 0.060563 0.186896
Si Si3 0.224527 0.613601 0.190745
Si Si4 0.631080 0.544152 0.192723
Si Si5 0.156152 0.156152 0.811717
Si Si6 0.883212 0.341714 0.690471
Si Si7 0.742272 0.015346 0.696253
O O1 0.930359 0.501995 0.305661
O O2 0.896545 0.399715 0.218772
O O3 0.922007 0.474736 0.000000
O O4 0.108398 0.108398 0.197943
O O5 0.005245 0.087050 0.266346
O O6 0.048959 0.048959 0.000000
O O7 0.288041 0.632537 0.228041
O O8 0.183203 0.660315 0.270925
O O9 0.220747 0.547209 0.247789
O O10 0.214423 0.613734 0.000000
O O11 0.602816 0.602816 0.251299
O O12 0.693522 0.527356 0.252806
O O13 0.636035 0.548191 0.000000
O O14 0.167445 0.167445 0.000000
O O15 0.890378 0.348177 0.500000
O O16 0.930545 0.296241 0.742665
O O17 0.742435 0.013543 0.500000
#
# Coordination Sequence:
#
# PCOD9569600 Si02
#       7
#    16   8  16  16   8  16  16
#     4  11  21  35  55  82 114 152 196 248 308 365
#     4  11  22  36  59  92 128 156 188 242 311 363
#     4  11  22  40  65  89 119 160 207 255 305 366
#     4  10  20  37  62  89 117 157 205 244 291 363
#     4  11  23  40  62  91 120 158 206 255 307 362
#     4  11  22  38  58  86 121 157 200 250 305 365
#     4   9  20  38  60  86 118 159 201 250 303 356
#
# _framework density 20.614953
#
# number of rings (size 3 to 8) (size 9 to 14) (size 15 to 20)
#    0.000    1.500    1.667    4.750    0.000    3.333 
#    1.500    4.167    0.000    0.000    0.000    0.000 
#    0.000    0.000    0.000    0.000    0.000    0.000 
#
# Total GULP energy -535720.218800 kJ/mol
# GULP energy per Si atom -5580.418946 kJ/mol
# Density = 2.056803 g / cm^3
# Si number density = 20.614953 Si / 1000 Ang^3
#
#
#
# Elastic Constant Matrix: (Units=GPa)
#
#
# Indices 1 2 3 4 5 6 
#
# 1 62.3558 89.7361 8.4620 0.0000 0.0000 0.0000
# 2 89.7361 62.3558 8.4620 0.0000 0.0000 0.0000
# 3 8.4620 8.4620 40.7915 0.0000 0.0000 0.0000
# 4 0.0000 0.0000 0.0000 20.3645 0.0000 0.0000
# 5 0.0000 0.0000 0.0000 0.0000 20.3645 0.0000
# 6 0.0000 0.0000 0.0000 0.0000 0.0000 38.7786
#
#
#
# Elastic Compliance Matrix: (Units=1/GPa)
#
#
# Indices 1 2 3 4 5 6 
#
# 1 -0.014896 0.021627 -0.001396 0.000000 0.000000 0.000000
# 2 0.021627 -0.014896 -0.001396 0.000000 0.000000 0.000000
# 3 -0.001396 -0.001396 0.025094 0.000000 0.000000 0.000000
# 4 0.000000 0.000000 0.000000 0.049105 0.000000 0.000000
# 5 0.000000 0.000000 0.000000 0.000000 0.049105 0.000000
# 6 0.000000 0.000000 0.000000 0.000000 0.000000 0.025787
#
#
# Mechanical properties :
#
#
# Convention : Reuss Voigt Hill
#
# Bulk Modulus (GPa) = 30.33046 42.09147 36.21097
# Shear Modulus (GPa) = 53.98333 19.82439 36.90386
#
# Velocity S-wave (km/s) = 5.12283 3.10441 4.23561
# Velocity P-wave (km/s) = 7.05237 5.77166 6.44391
#
# Compressibility (1/GPa) = 0.03297015
#
# Stress axis : x y z
#
# Youngs Moduli (GPa) = -67.13131 -67.13131 39.84987
#
# Poissons Ratio (x) = 1.45182 0.05564
# Poissons Ratio (y) = 1.45182 0.05564
# Poissons Ratio (z) = -0.09373 -0.09373
#
# Static dielectric constant tensor:
#      x y z
#    x 1.784190 0.000000 0.000000 
#    y 0.000000 1.784190 0.000000 
#    z 0.000000 0.000000 1.748150 
# 
# From -- ./inp_files/2032.got.cif
#   From: 2010.05.17/outbox.cif.g08.bks.cpg/sg136_2_cif.got.tgz:2032.got - 2010.05.20 12:54:53.
