data_PCOD9569079
_publ_section_title
;
Structure prediction by ZEFSAII (Michael W. Deem and Ramdas Pophale) SiO2 
 PCOD9569079
Probable space group: P 42/M B C
;
_chemical_formula_sum "Si O2"
_cell_formula_units_Z 112
_cell_length_a 15.000000
_cell_length_b 15.000000
_cell_length_c 27.000000
_cell_angle_alpha 90.000000
_cell_angle_beta 90.000000
_cell_angle_gamma 90.000000
_cell_volume 6075.000000
_symmetry_space_group_name_H-M "P 42/M B C"
_symmetry_group_IT_number 135
_symmetry_cell_setting 'tetragonal'
loop_
_space_group_symop_operation_xyz
x,y,z
-y,x,1/2+z
-x,-y,z
y,-x,1/2+z
1/2+x,1/2-y,-z
1/2-x,1/2+y,-z
1/2+y,1/2+x,1/2-z
1/2-y,1/2-x,1/2-z
-x,-y,-z
y,-x,1/2-z
x,y,-z
-y,x,1/2-z
1/2-x,1/2+y,z
1/2+x,1/2-y,z
1/2-y,1/2-x,1/2+z
1/2+y,1/2+x,1/2+z
loop_
_atom_site_type_symbol
_atom_site_label
_atom_site_fract_x
_atom_site_fract_y
_atom_site_fract_z
Si Si1 0.413011 0.623343 0.250000
Si Si2 0.321444 0.330099 0.647828
Si Si3 0.178556 0.830100 0.147828
Si Si4 0.498031 0.770122 0.622443
Si Si5 0.001969 0.270122 0.122443
Si Si6 0.575764 0.075765 0.806607
Si Si7 0.926360 0.426359 0.058340
O O1 0.520276 0.619732 0.250000
O O2 0.375289 0.671122 0.201623
O O3 0.375290 0.671122 0.298377
O O4 0.250249 0.249751 0.647168
O O5 0.419606 0.292253 0.637284
O O6 0.287609 0.409465 0.611955
O O7 0.212391 0.909466 0.111954
O O8 0.080394 0.792253 0.137283
O O9 0.465010 0.839584 0.664775
O O10 0.538121 0.834070 0.580454
O O11 0.034989 0.339583 0.164776
O O12 0.961880 0.334070 0.080454
O O13 0.598301 0.098301 0.750000
O O14 0.500000 0.000000 0.806232
O O15 0.000000 0.500000 0.072050
O O16 0.919986 0.419986 0.000000
#
# Coordination Sequence:
#
# PCOD9569079 Si02
#       7
#    16  16  16  16  16  16  16
#     4  11  23  38  54  86 129 189 224 252 312 388
#     4  12  24  38  63  88 135 172 224 270 320 381
#     4  12  24  38  63  88 135 172 224 270 320 381
#     4  12  23  42  62  97 128 171 220 268 328 389
#     4  12  23  42  62  97 128 171 220 268 328 389
#     4  11  22  37  58  86 130 172 215 266 305 367
#     4  11  22  45  74  96 122 162 219 288 347 397
#
# _framework density 18.436214
#
# number of rings (size 3 to 8) (size 9 to 14) (size 15 to 20)
#    0.000    0.429    8.571    0.429    4.000    0.571 
#    0.000    1.429    0.000    0.000    0.000    2.000 
#    0.000    0.000    0.000    0.000    0.000    0.000 
#
# Total GULP energy -625623.053142 kJ/mol
# GULP energy per Si atom -5585.920117 kJ/mol
# Density = 1.839425 g / cm^3
# Si number density = 18.436214 Si / 1000 Ang^3
#
#
#
# Elastic Constant Matrix: (Units=GPa)
#
#
# Indices 1 2 3 4 5 6 
#
# 1 115.5131 59.2969 11.9325 0.0000 0.0000 0.0000
# 2 59.2969 115.5131 11.9325 0.0000 0.0000 0.0000
# 3 11.9325 11.9325 31.8879 0.0000 0.0000 0.0000
# 4 0.0000 0.0000 0.0000 6.5739 0.0000 0.0000
# 5 0.0000 0.0000 0.0000 0.0000 6.5739 0.0000
# 6 0.0000 0.0000 0.0000 0.0000 0.0000 54.4448
#
#
#
# Elastic Compliance Matrix: (Units=1/GPa)
#
#
# Indices 1 2 3 4 5 6 
#
# 1 0.011908 -0.005880 -0.002256 0.000000 0.000000 0.000000
# 2 -0.005880 0.011908 -0.002256 0.000000 0.000000 0.000000
# 3 -0.002256 -0.002256 0.033048 0.000000 0.000000 0.000000
# 4 0.000000 0.000000 0.000000 0.152117 0.000000 0.000000
# 5 0.000000 0.000000 0.000000 0.000000 0.152117 0.000000
# 6 0.000000 0.000000 0.000000 0.000000 0.000000 0.018367
#
#
# Mechanical properties :
#
#
# Convention : Reuss Voigt Hill
#
# Bulk Modulus (GPa) = 27.71494 47.69312 37.70403
# Shear Modulus (GPa) = 12.12775 25.50198 18.81487
#
# Velocity S-wave (km/s) = 2.56759 3.72325 3.19805
# Velocity P-wave (km/s) = 4.88421 6.66400 5.84228
#
# Compressibility (1/GPa) = 0.03608162
#
# Stress axis : x y z
#
# Youngs Moduli (GPa) = 83.97380 83.97380 30.25888
#
# Poissons Ratio (x) = 0.49377 0.06826
# Poissons Ratio (y) = 0.49377 0.06826
# Poissons Ratio (z) = 0.18943 0.18943
#
# Static dielectric constant tensor:
#      x y z
#    x 1.658180 0.000000 0.000000 
#    y 0.000000 1.658180 0.000000 
#    z 0.000000 0.000000 1.621200 
# 
# From -- ./inp_files/6502.got.cif
#   From: 2010.05.17/outbox.ucp.g08.bks.cvg/sg135_4_cif.got.tgz:6502.got - 2010.06.11 11:40:18.
