data_PCOD9569678
_publ_section_title
;
Structure prediction by ZEFSAII (Michael W. Deem and Ramdas Pophale) SiO2 
 PCOD9569678
Probable space group: P 42/M N M
;
_chemical_formula_sum "Si O2"
_cell_formula_units_Z 64
_cell_length_a 11.406045
_cell_length_b 11.406045
_cell_length_c 22.226634
_cell_angle_alpha 90.000000
_cell_angle_beta 90.000000
_cell_angle_gamma 90.000000
_cell_volume 2891.637575
_symmetry_space_group_name_H-M "P 42/M N M"
_symmetry_group_IT_number 136
_symmetry_cell_setting 'tetragonal'
loop_
_space_group_symop_operation_xyz
x,y,z
1/2-y,1/2+x,1/2+z
-x,-y,z
1/2+y,1/2-x,1/2+z
1/2+x,1/2-y,1/2-z
1/2-x,1/2+y,1/2-z
y,x,-z
-y,-x,-z
-x,-y,-z
1/2+y,1/2-x,1/2-z
x,y,-z
1/2-y,1/2+x,1/2-z
1/2-x,1/2+y,1/2+z
1/2+x,1/2-y,1/2+z
-y,-x,z
y,x,z
loop_
_atom_site_type_symbol
_atom_site_label
_atom_site_fract_x
_atom_site_fract_y
_atom_site_fract_z
Si Si1 0.028553 0.361769 0.066108
Si Si2 0.193101 0.995830 0.305684
Si Si3 0.271087 0.460558 0.065193
Si Si4 0.302396 0.502468 0.676165
O O1 0.169709 0.363281 0.065640
O O2 0.986373 0.285848 0.121540
O O3 0.000000 0.500000 0.071652
O O4 0.987114 0.321846 0.000000
O O5 0.133258 0.866743 0.309950
O O6 0.245569 0.024175 0.371008
O O7 0.258792 0.003594 0.242122
O O8 0.087736 0.087736 0.297900
O O9 0.397120 0.397120 0.066136
O O10 0.260825 0.522717 0.000000
O O11 0.378310 0.621691 0.667867
O O12 0.397602 0.397602 0.677629
#
# Coordination Sequence:
#
# PCOD9569678 Si02
#       4
#    16  16  16  16
#     4  10  21  37  53  74 110 147 179 223 278 335
#     4   8  15  30  51  76 106 135 170 223 276 317
#     4   9  17  31  52  75 102 141 185 224 266 325
#     4   9  18  35  59  84 110 141 183 237 285 325
#
# _framework density 22.132785999999999
#
# number of rings (size 3 to 8) (size 9 to 14) (size 15 to 20)
#    0.000    3.000    0.000    2.250    0.000    2.500 
#    4.500    5.000    0.000    4.500    0.000    0.000 
#    0.000    0.000    0.000    0.000    0.000    0.000 
#
# Total GULP energy -356340.112089 kJ/mol
# GULP energy per Si atom -5567.814251 kJ/mol
# Density = 2.208241 g / cm^3
# Si number density = 22.132786 Si / 1000 Ang^3
#
#
#
# Elastic Constant Matrix: (Units=GPa)
#
#
# Indices 1 2 3 4 5 6 
#
# 1 39.3924 3.0527 40.0796 0.0000 0.0000 0.0000
# 2 3.0527 39.3924 40.0796 0.0000 0.0000 0.0000
# 3 40.0796 40.0796 303.4502 0.0000 0.0000 0.0000
# 4 0.0000 0.0000 0.0000 49.5883 0.0000 0.0000
# 5 0.0000 0.0000 0.0000 0.0000 49.5883 0.0000
# 6 0.0000 0.0000 0.0000 0.0000 0.0000 14.0936
#
#
#
# Elastic Compliance Matrix: (Units=1/GPa)
#
#
# Indices 1 2 3 4 5 6 
#
# 1 0.029454 0.001936 -0.004146 0.000000 0.000000 0.000000
# 2 0.001936 0.029454 -0.004146 0.000000 0.000000 0.000000
# 3 -0.004146 -0.004146 0.004391 0.000000 0.000000 0.000000
# 4 0.000000 0.000000 0.000000 0.020166 0.000000 0.000000
# 5 0.000000 0.000000 0.000000 0.000000 0.020166 0.000000
# 6 0.000000 0.000000 0.000000 0.000000 0.000000 0.070954
#
#
# Mechanical properties :
#
#
# Convention : Reuss Voigt Hill
#
# Bulk Modulus (GPa) = 19.76828 60.96209 40.36518
# Shear Modulus (GPa) = 24.49074 42.58892 33.53983
#
# Velocity S-wave (km/s) = 3.33007 4.39138 3.89703
# Velocity P-wave (km/s) = 4.87205 7.30177 6.20696
#
# Compressibility (1/GPa) = 0.05058610
#
# Stress axis : x y z
#
# Youngs Moduli (GPa) = 33.95138 33.95138 227.75835
#
# Poissons Ratio (x) = -0.06572 0.94427
# Poissons Ratio (y) = -0.06572 0.94427
# Poissons Ratio (z) = 0.14076 0.14076
#
# Static dielectric constant tensor:
#      x y z
#    x 1.842050 0.000000 0.000000 
#    y 0.000000 1.842050 0.000000 
#    z 0.000000 0.000000 1.904160 
# 
# From -- ./inp_files/7020.got.cif
#   From: 2010.05.17/outbox.cif.g08.bks.cpg/sg136_4_cif.got.tgz:7020.got - 2010.05.20 12:54:53.
