data_PCOD9569066
_publ_section_title
;
Structure prediction by ZEFSAII (Michael W. Deem and Ramdas Pophale) SiO2 
 PCOD9569066
Probable space group: P 42/M B C
;
_chemical_formula_sum "Si O2"
_cell_formula_units_Z 96
_cell_length_a 15.000000
_cell_length_b 15.000000
_cell_length_c 21.000000
_cell_angle_alpha 90.000000
_cell_angle_beta 90.000000
_cell_angle_gamma 90.000000
_cell_volume 4725.000000
_symmetry_space_group_name_H-M "P 42/M B C"
_symmetry_group_IT_number 135
_symmetry_cell_setting 'tetragonal'
loop_
_space_group_symop_operation_xyz
x,y,z
-y,x,1/2+z
-x,-y,z
y,-x,1/2+z
1/2+x,1/2-y,-z
1/2-x,1/2+y,-z
1/2+y,1/2+x,1/2-z
1/2-y,1/2-x,1/2-z
-x,-y,-z
y,-x,1/2-z
x,y,-z
-y,x,1/2-z
1/2-x,1/2+y,z
1/2+x,1/2-y,z
1/2-y,1/2-x,1/2+z
1/2+y,1/2+x,1/2+z
loop_
_atom_site_type_symbol
_atom_site_label
_atom_site_fract_x
_atom_site_fract_y
_atom_site_fract_z
Si Si1 0.733631 0.993707 0.000000
Si Si2 0.200789 0.627423 0.357428
Si Si3 0.619073 0.352918 0.000000
Si Si4 0.238149 0.261852 0.250000
Si Si5 0.440123 0.587109 0.870833
Si Si6 0.237938 0.518502 0.141274
Si Si7 0.957861 0.754259 0.785509
Si Si8 0.795982 0.317031 0.500000
O O1 0.833422 0.951171 0.000000
O O2 0.723427 0.032030 0.927603
O O3 0.672313 0.904274 0.000000
O O4 0.254235 0.681923 0.301923
O O5 0.102287 0.670711 0.357117
O O6 0.200293 0.526233 0.330828
O O7 0.234886 0.643904 0.430923
O O8 0.563379 0.351571 0.065135
O O9 0.707452 0.289323 0.000000
O O10 0.240167 0.352061 0.291422
O O11 0.500000 0.500000 0.880445
O O12 0.337975 0.557975 0.860823
O O13 0.472926 0.644654 0.810541
O O14 0.233899 0.473345 0.210639
#
# Coordination Sequence:
#
# PCOD9569066 Si02
#       8
#     8  16   8   8  16  16  16   8
#     4   6  14  31  59  77 108 159 204 238 307 384
#     4  11  20  42  63  87 129 171 221 269 338 398
#     4   8  15  37  52  82 125 171 200 253 324 391
#     4  12  24  44  61  95 136 166 226 282 330 396
#     4  11  22  32  57  93 129 159 210 265 335 400
#     4  10  19  39  59  84 121 167 202 255 331 389
#     4  12  24  36  63  91 121 171 213 272 322 388
#     4   8  16  34  65  85 116 183 218 253 334 409
#
# _framework density 20.317460000000001
#
# number of rings (size 3 to 8) (size 9 to 14) (size 15 to 20)
#    0.500    1.333    5.000    0.250    4.667    0.667 
#    0.000    3.333    0.000    0.000    0.000    3.500 
#    0.000    0.000    0.000    0.000    0.000    0.000 
#
# Total GULP energy -534448.545790 kJ/mol
# GULP energy per Si atom -5567.172352 kJ/mol
# Density = 2.027122 g / cm^3
# Si number density = 20.317460 Si / 1000 Ang^3
#
#
#
# Elastic Constant Matrix: (Units=GPa)
#
#
# Indices 1 2 3 4 5 6 
#
# 1 38.1510 -8.4006 11.5708 0.0000 0.0000 0.0000
# 2 -8.4006 38.1507 11.5703 0.0000 0.0000 0.0000
# 3 11.5708 11.5703 153.2597 0.0000 0.0000 0.0000
# 4 0.0000 0.0000 0.0000 28.8804 0.0000 0.0000
# 5 0.0000 0.0000 0.0000 0.0000 28.8805 0.0000
# 6 0.0000 0.0000 0.0000 0.0000 0.0000 7.9673
#
#
#
# Elastic Compliance Matrix: (Units=1/GPa)
#
#
# Indices 1 2 3 4 5 6 
#
# 1 0.028596 0.007114 -0.002696 0.000000 0.000000 0.000000
# 2 0.007114 0.028596 -0.002696 0.000000 0.000000 0.000000
# 3 -0.002696 -0.002696 0.006932 0.000000 0.000000 0.000000
# 4 0.000000 0.000000 0.000000 0.034626 0.000000 0.000000
# 5 0.000000 0.000000 0.000000 0.000000 0.034625 0.000000
# 6 0.000000 0.000000 0.000000 0.000000 0.000000 0.125513
#
#
# Mechanical properties :
#
#
# Convention : Reuss Voigt Hill
#
# Bulk Modulus (GPa) = 14.79982 28.78249 21.79116
# Shear Modulus (GPa) = 17.98780 27.46703 22.72742
#
# Velocity S-wave (km/s) = 2.97869 3.68080 3.34820
# Velocity P-wave (km/s) = 4.37381 5.67992 5.06911
#
# Compressibility (1/GPa) = 0.06756839
#
# Stress axis : x y z
#
# Youngs Moduli (GPa) = 34.97014 34.96996 144.25956
#
# Poissons Ratio (x) = -0.24879 0.38893
# Poissons Ratio (y) = -0.24879 0.38892
# Poissons Ratio (z) = 0.09428 0.09428
#
# Static dielectric constant tensor:
#      x y z
#    x 1.744850 0.000000 0.000000 
#    y 0.000000 1.744850 0.000000 
#    z 0.000000 0.000000 1.801350 
# 
# From -- ./inp_files/5545.got.cif
#   From: 2010.05.17/outbox.ucp.g08.bks.cvg/sg135_3_cif.got.tgz:5545.got - 2010.06.11 11:40:18.
