data_PCOD9569439
_publ_section_title
;
Structure prediction by ZEFSAII (Michael W. Deem and Ramdas Pophale) SiO2 
 PCOD9569439
Probable space group: P 42/M N M
;
_chemical_formula_sum "Si O2"
_cell_formula_units_Z 112
_cell_length_a 16.757009
_cell_length_b 16.757009
_cell_length_c 23.569448
_cell_angle_alpha 90.000000
_cell_angle_beta 90.000000
_cell_angle_gamma 90.000000
_cell_volume 6618.238554
_symmetry_space_group_name_H-M "P 42/M N M"
_symmetry_group_IT_number 136
_symmetry_cell_setting 'tetragonal'
loop_
_space_group_symop_operation_xyz
x,y,z
1/2-y,1/2+x,1/2+z
-x,-y,z
1/2+y,1/2-x,1/2+z
1/2+x,1/2-y,1/2-z
1/2-x,1/2+y,1/2-z
y,x,-z
-y,-x,-z
-x,-y,-z
1/2+y,1/2-x,1/2-z
x,y,-z
1/2-y,1/2+x,1/2-z
1/2-x,1/2+y,1/2+z
1/2+x,1/2-y,1/2+z
-y,-x,z
y,x,z
loop_
_atom_site_type_symbol
_atom_site_label
_atom_site_fract_x
_atom_site_fract_y
_atom_site_fract_z
Si Si1 0.652514 0.122158 0.931389
Si Si2 0.304861 0.991938 0.566020
Si Si3 0.938759 0.637347 0.934180
Si Si4 0.434865 0.434865 0.652308
Si Si5 0.461824 0.671236 0.738506
Si Si6 0.331920 0.331920 0.568641
Si Si7 0.782398 0.351195 0.667657
Si Si8 0.223301 0.911301 0.668776
O O1 0.581565 0.179998 0.912485
O O2 0.741176 0.147149 0.914332
O O3 0.633010 0.030842 0.916374
O O4 0.650197 0.125443 0.000000
O O5 0.279766 0.991794 0.500000
O O6 0.389955 0.945512 0.568120
O O7 0.245405 0.945615 0.607076
O O8 0.894190 0.695404 0.890942
O O9 0.935899 0.664341 0.000000
O O10 0.500000 0.500000 0.633089
O O11 0.481688 0.370929 0.691435
O O12 0.391149 0.391149 0.600889
O O13 0.396248 0.603753 0.755142
O O14 0.414233 0.745248 0.711188
O O15 0.517632 0.700472 0.789213
O O16 0.338603 0.338603 0.500000
O O17 0.713804 0.286197 0.657107
O O18 0.859861 0.301152 0.687790
O O19 0.150213 0.849788 0.666142
#
# Coordination Sequence:
#
# PCOD9569439 Si02
#       8
#    16  16  16   8  16   8  16  16
#     4   9  17  31  48  72 109 144 173 205 248 315
#     4   9  18  33  54  80 105 135 174 216 268 319
#     4   9  16  29  53  79 106 140 173 207 254 315
#     4  10  20  35  58  78  99 143 185 221 261 308
#     4  10  20  38  57  74 101 140 182 217 258 320
#     4  10  20  33  50  80 115 143 175 215 261 310
#     4   9  19  34  52  77 107 133 168 220 267 307
#     4  10  20  37  57  78 104 134 173 224 268 312
#
# _framework density 16.922930999999998
#
# number of rings (size 3 to 8) (size 9 to 14) (size 15 to 20)
#    0.000    2.571    0.714    1.286    0.000    2.429 
#    6.429    2.857    0.000    5.143    0.000    1.000 
#    0.000    0.000    0.000    0.000    0.000    0.000 
#
# Total GULP energy -624124.352978 kJ/mol
# GULP energy per Si atom -5572.538866 kJ/mol
# Density = 1.688441 g / cm^3
# Si number density = 16.922931 Si / 1000 Ang^3
#
#
#
# Elastic Constant Matrix: (Units=GPa)
#
#
# Indices 1 2 3 4 5 6 
#
# 1 95.1376 51.3603 60.6513 0.0000 0.0000 0.0000
# 2 51.3603 95.1376 60.6513 0.0000 0.0000 0.0000
# 3 60.6513 60.6513 69.0778 0.0000 0.0000 0.0000
# 4 0.0000 0.0000 0.0000 26.5395 0.0000 0.0000
# 5 0.0000 0.0000 0.0000 0.0000 26.5395 0.0000
# 6 0.0000 0.0000 0.0000 0.0000 0.0000 10.4797
#
#
#
# Elastic Compliance Matrix: (Units=1/GPa)
#
#
# Indices 1 2 3 4 5 6 
#
# 1 0.023924 0.001081 -0.021954 0.000000 0.000000 0.000000
# 2 0.001081 0.023924 -0.021954 0.000000 0.000000 0.000000
# 3 -0.021954 -0.021954 0.053029 0.000000 0.000000 0.000000
# 4 0.000000 0.000000 0.000000 0.037680 0.000000 0.000000
# 5 0.000000 0.000000 0.000000 0.000000 0.037680 0.000000
# 6 0.000000 0.000000 0.000000 0.000000 0.000000 0.095422
#
#
# Mechanical properties :
#
#
# Convention : Reuss Voigt Hill
#
# Bulk Modulus (GPa) = 65.70046 67.18653 66.44350
# Shear Modulus (GPa) = 13.79739 18.49110 16.14425
#
# Velocity S-wave (km/s) = 2.85846 3.30914 3.09202
# Velocity P-wave (km/s) = 7.05705 7.37483 7.21769
#
# Compressibility (1/GPa) = 0.01522059
#
# Stress axis : x y z
#
# Youngs Moduli (GPa) = 41.79944 41.79944 18.85760
#
# Poissons Ratio (x) = -0.04518 0.41401
# Poissons Ratio (y) = -0.04518 0.41401
# Poissons Ratio (z) = 0.91768 0.91768
#
# Static dielectric constant tensor:
#      x y z
#    x 1.574290 0.000000 0.000000 
#    y 0.000000 1.574290 0.000000 
#    z 0.000000 0.000000 1.545790 
# 
# From -- ./inp_files/9250.got.cif
#   From: 2010.05.17/outbox.cif.g08.bks.cpg/sg136_5_cif.got.tgz:9250.got - 2010.05.20 12:54:53.
