data_PCOD9569711
_publ_section_title
;
Structure prediction by ZEFSAII (Michael W. Deem and Ramdas Pophale) SiO2 
 PCOD9569711
Probable space group: P 42/M N M
;
_chemical_formula_sum "Si O2"
_cell_formula_units_Z 96
_cell_length_a 14.564909
_cell_length_b 14.564909
_cell_length_c 21.886174
_cell_angle_alpha 90.000000
_cell_angle_beta 90.000000
_cell_angle_gamma 90.000000
_cell_volume 4642.857974
_symmetry_space_group_name_H-M "P 42/M N M"
_symmetry_group_IT_number 136
_symmetry_cell_setting 'tetragonal'
loop_
_space_group_symop_operation_xyz
x,y,z
1/2-y,1/2+x,1/2+z
-x,-y,z
1/2+y,1/2-x,1/2+z
1/2+x,1/2-y,1/2-z
1/2-x,1/2+y,1/2-z
y,x,-z
-y,-x,-z
-x,-y,-z
1/2+y,1/2-x,1/2-z
x,y,-z
1/2-y,1/2+x,1/2-z
1/2-x,1/2+y,1/2+z
1/2+x,1/2-y,1/2+z
-y,-x,z
y,x,z
loop_
_atom_site_type_symbol
_atom_site_label
_atom_site_fract_x
_atom_site_fract_y
_atom_site_fract_z
Si Si1 0.432320 0.077276 0.841253
Si Si2 0.210085 0.470920 0.427776
Si Si3 0.000769 0.858380 0.378234
Si Si4 0.427784 0.819190 0.930348
Si Si5 0.003805 0.150086 0.831318
Si Si6 0.250730 0.399062 0.769257
O O1 0.500619 0.134057 0.885057
O O2 0.391358 0.145662 0.790444
O O3 0.500000 0.000000 0.815677
O O4 0.357711 0.034280 0.887320
O O5 0.206309 0.491261 0.500000
O O6 0.170969 0.366850 0.419083
O O7 0.309109 0.488662 0.398673
O O8 0.927989 0.927989 0.348629
O O9 0.943609 0.788142 0.419317
O O10 0.054411 0.803522 0.326197
O O11 0.077078 0.922923 0.410584
O O12 0.451494 0.842165 0.000000
O O13 0.930380 0.069621 0.819748
O O14 0.969908 0.230630 0.785821
O O15 0.103664 0.103664 0.822944
O O16 0.302622 0.302622 0.756419
#
# Coordination Sequence:
#
# PCOD9569711 Si02
#       6
#    16  16  16  16  16  16
#     4   9  18  36  58  85 116 150 190 240 294 360
#     4  10  21  38  59  84 117 157 201 246 296 356
#     4   9  17  30  51  79 112 152 194 238 294 356
#     4   9  18  33  53  78 111 154 194 237 290 345
#     4  10  22  41  62  83 111 151 199 251 304 358
#     4   9  18  36  59  83 113 147 190 242 300 364
#
# _framework density 20.676919000000002
#
# number of rings (size 3 to 8) (size 9 to 14) (size 15 to 20)
#    0.000    2.667    0.000    1.000    0.000    6.667 
#    9.000    3.333    0.000    3.000    0.000    0.000 
#    0.000    0.000    0.000    0.000    0.000    0.000 
#
# Total GULP energy -534920.499461 kJ/mol
# GULP energy per Si atom -5572.088536 kJ/mol
# Density = 2.062986 g / cm^3
# Si number density = 20.676919 Si / 1000 Ang^3
#
#
#
# Elastic Constant Matrix: (Units=GPa)
#
#
# Indices 1 2 3 4 5 6 
#
# 1 78.3829 30.2793 31.5555 0.0000 0.0000 0.0000
# 2 30.2793 78.3829 31.5555 0.0000 0.0000 0.0000
# 3 31.5555 31.5555 90.1102 0.0000 0.0000 0.0000
# 4 0.0000 0.0000 0.0000 11.5924 0.0000 0.0000
# 5 0.0000 0.0000 0.0000 0.0000 11.5924 0.0000
# 6 0.0000 0.0000 0.0000 0.0000 0.0000 17.9598
#
#
#
# Elastic Compliance Matrix: (Units=1/GPa)
#
#
# Indices 1 2 3 4 5 6 
#
# 1 0.016170 -0.004618 -0.004046 0.000000 0.000000 0.000000
# 2 -0.004618 0.016170 -0.004046 0.000000 0.000000 0.000000
# 3 -0.004046 -0.004046 0.013931 0.000000 0.000000 0.000000
# 4 0.000000 0.000000 0.000000 0.086264 0.000000 0.000000
# 5 0.000000 0.000000 0.000000 0.000000 0.086264 0.000000
# 6 0.000000 0.000000 0.000000 0.000000 0.000000 0.055680
#
#
# Mechanical properties :
#
#
# Convention : Reuss Voigt Hill
#
# Bulk Modulus (GPa) = 47.95306 48.18407 48.06857
# Shear Modulus (GPa) = 16.29470 18.46129 17.37799
#
# Velocity S-wave (km/s) = 2.81029 2.99129 2.90220
# Velocity P-wave (km/s) = 5.81139 5.94006 5.87608
#
# Compressibility (1/GPa) = 0.02085373
#
# Stress axis : x y z
#
# Youngs Moduli (GPa) = 61.84111 61.84111 71.78269
#
# Poissons Ratio (x) = 0.28558 0.29040
# Poissons Ratio (y) = 0.28558 0.29040
# Poissons Ratio (z) = 0.25018 0.25018
#
# Static dielectric constant tensor:
#      x y z
#    x 1.779350 0.000000 0.000000 
#    y 0.000000 1.779350 0.000000 
#    z 0.000000 0.000000 1.719100 
# 
# From -- ./inp_files/7469.got.cif
#   From: 2010.05.17/outbox.cif.g08.bks.cpg/sg136_4_cif.got.tgz:7469.got - 2010.05.20 12:54:53.
