data_PCOD9569556
_publ_section_title
;
Structure prediction by ZEFSAII (Michael W. Deem and Ramdas Pophale) SiO2 
 PCOD9569556
Probable space group: P 42/M N M
;
_chemical_formula_sum "Si O2"
_cell_formula_units_Z 96
_cell_length_a 24.601337
_cell_length_b 24.601337
_cell_length_c 8.307199
_cell_angle_alpha 90.000000
_cell_angle_beta 90.000000
_cell_angle_gamma 90.000000
_cell_volume 5027.731013
_symmetry_space_group_name_H-M "P 42/M N M"
_symmetry_group_IT_number 136
_symmetry_cell_setting 'tetragonal'
loop_
_space_group_symop_operation_xyz
x,y,z
1/2-y,1/2+x,1/2+z
-x,-y,z
1/2+y,1/2-x,1/2+z
1/2+x,1/2-y,1/2-z
1/2-x,1/2+y,1/2-z
y,x,-z
-y,-x,-z
-x,-y,-z
1/2+y,1/2-x,1/2-z
x,y,-z
1/2-y,1/2+x,1/2-z
1/2-x,1/2+y,1/2+z
1/2+x,1/2-y,1/2+z
-y,-x,z
y,x,z
loop_
_atom_site_type_symbol
_atom_site_label
_atom_site_fract_x
_atom_site_fract_y
_atom_site_fract_z
Si Si1 0.732786 0.068843 0.191383
Si Si2 0.724304 0.944990 0.804129
Si Si3 0.855054 0.056228 0.307269
Si Si4 0.964670 0.429364 0.178561
Si Si5 0.368747 0.139288 0.808676
Si Si6 0.063340 0.151032 0.194856
O O1 0.796700 0.069417 0.229936
O O2 0.702400 0.120632 0.269291
O O3 0.713214 0.007756 0.247606
O O4 0.724653 0.071060 0.000000
O O5 0.682318 0.897657 0.753858
O O6 0.785929 0.931101 0.754285
O O7 0.722948 0.946198 0.000000
O O8 0.849399 0.058545 0.500000
O O9 0.900976 0.099025 0.257023
O O10 0.869253 0.994785 0.257072
O O11 0.933917 0.486786 0.195497
O O12 0.920938 0.385403 0.220844
O O13 0.987408 0.421566 0.000000
O O14 0.372575 0.132117 0.000000
O O15 0.112389 0.112389 0.247812
O O16 0.062018 0.150876 0.000000
#
# Coordination Sequence:
#
# PCOD9569556 Si02
#       6
#    16  16  16  16  16  16
#     4  10  20  36  56  78 107 143 184 228 271 318
#     4   8  17  33  52  74 103 140 179 220 264 312
#     4  10  21  37  57  82 112 143 175 216 270 328
#     4  11  21  33  47  67  96 131 174 227 285 336
#     4  11  20  32  51  75 104 140 182 224 269 324
#     4   9  18  35  59  84 110 142 179 217 262 321
#
# _framework density 19.094099
#
# number of rings (size 3 to 8) (size 9 to 14) (size 15 to 20)
#    0.000    2.167    0.000    5.500    0.000    3.333 
#    0.000   10.000    0.000    3.000    0.000    0.000 
#    0.000    0.000    0.000    0.000    0.000    0.000 
#
# Total GULP energy -535308.533223 kJ/mol
# GULP energy per Si atom -5576.130554 kJ/mol
# Density = 1.905064 g / cm^3
# Si number density = 19.094099 Si / 1000 Ang^3
#
#
#
# Elastic Constant Matrix: (Units=GPa)
#
#
# Indices 1 2 3 4 5 6 
#
# 1 89.9417 89.4253 12.5040 0.0000 0.0000 0.0000
# 2 89.4253 89.9417 12.5040 0.0000 0.0000 0.0000
# 3 12.5040 12.5040 39.3534 0.0000 0.0000 0.0000
# 4 0.0000 0.0000 0.0000 25.4318 0.0000 0.0000
# 5 0.0000 0.0000 0.0000 0.0000 25.4318 0.0000
# 6 0.0000 0.0000 0.0000 0.0000 0.0000 39.8808
#
#
#
# Elastic Compliance Matrix: (Units=1/GPa)
#
#
# Indices 1 2 3 4 5 6 
#
# 1 0.971140 -0.965306 -0.001854 0.000000 0.000000 0.000000
# 2 -0.965306 0.971140 -0.001854 0.000000 0.000000 0.000000
# 3 -0.001854 -0.001854 0.026589 0.000000 0.000000 0.000000
# 4 0.000000 0.000000 0.000000 0.039321 0.000000 0.000000
# 5 0.000000 0.000000 0.000000 0.000000 0.039321 0.000000
# 6 0.000000 0.000000 0.000000 0.000000 0.000000 0.025075
#
#
# Mechanical properties :
#
#
# Convention : Reuss Voigt Hill
#
# Bulk Modulus (GPa) = 32.42372 49.78929 41.10650
# Shear Modulus (GPa) = 1.24351 25.13578 13.18965
#
# Velocity S-wave (km/s) = 0.80788 3.63218 2.63110
# Velocity P-wave (km/s) = 4.22943 6.61231 5.55026
#
# Compressibility (1/GPa) = 0.03084162
#
# Stress axis : x y z
#
# Youngs Moduli (GPa) = 1.02972 1.02972 37.61006
#
# Poissons Ratio (x) = 0.99399 0.06971
# Poissons Ratio (y) = 0.99399 0.06971
# Poissons Ratio (z) = 0.00191 0.00191
#
# Static dielectric constant tensor:
#      x y z
#    x 1.701250 0.000000 0.000000 
#    y 0.000000 1.701250 0.000000 
#    z 0.000000 0.000000 1.679580 
# 
# From -- ./inp_files/1978.got.cif
#   From: 2010.05.17/outbox.cif.g08.bks.cpg/sg136_1_cif.got.tgz:1978.got - 2010.05.20 12:54:53.
