data_PCOD9569021
_publ_section_title
;
Structure prediction by ZEFSAII (Michael W. Deem and Ramdas Pophale) SiO2 
 PCOD9569021
Probable space group: P 42/M B C
;
_chemical_formula_sum "Si O2"
_cell_formula_units_Z 96
_cell_length_a 14.794750
_cell_length_b 14.794750
_cell_length_c 22.583282
_cell_angle_alpha 90.000000
_cell_angle_beta 90.000000
_cell_angle_gamma 90.000000
_cell_volume 4943.133270
_symmetry_space_group_name_H-M "P 42/M B C"
_symmetry_group_IT_number 135
_symmetry_cell_setting 'tetragonal'
loop_
_space_group_symop_operation_xyz
x,y,z
-y,x,1/2+z
-x,-y,z
y,-x,1/2+z
1/2+x,1/2-y,-z
1/2-x,1/2+y,-z
1/2+y,1/2+x,1/2-z
1/2-y,1/2-x,1/2-z
-x,-y,-z
y,-x,1/2-z
x,y,-z
-y,x,1/2-z
1/2-x,1/2+y,z
1/2+x,1/2-y,z
1/2-y,1/2-x,1/2+z
1/2+y,1/2+x,1/2+z
loop_
_atom_site_type_symbol
_atom_site_label
_atom_site_fract_x
_atom_site_fract_y
_atom_site_fract_z
Si Si1 0.963674 0.250522 0.139314
Si Si2 0.566889 0.914549 0.429861
Si Si3 0.604680 0.760204 0.264889
Si Si4 0.242627 0.459275 0.134794
Si Si5 0.577349 0.574904 0.067367
Si Si6 0.784006 0.664322 0.686595
O O1 0.926363 0.341789 0.108607
O O2 0.911140 0.221143 0.199332
O O3 0.958105 0.168753 0.093688
O O4 0.065536 0.268474 0.160732
O O5 0.587723 0.907933 0.500000
O O6 0.511474 0.828401 0.406670
O O7 0.500000 0.000000 0.421193
O O8 0.638285 0.861716 0.250000
O O9 0.515469 0.756526 0.303995
O O10 0.687657 0.712410 0.299695
O O11 0.340326 0.460432 0.106185
O O12 0.215176 0.354824 0.144315
O O13 0.500000 0.500000 0.068430
O O14 0.607896 0.588638 0.000000
O O15 0.834120 0.665881 0.750000
#
# Coordination Sequence:
#
# PCOD9569021 Si02
#       6
#    16  16  16  16  16  16
#     4  12  23  43  68  98 136 178 219 282 347 401
#     4  11  24  42  66  98 133 171 224 280 337 407
#     4  11  23  39  63  99 138 169 215 275 335 406
#     4  12  23  43  70  96 133 177 224 281 342 405
#     4  11  26  48  67  92 136 186 235 278 330 410
#     4  11  23  40  63 100 139 172 218 273 344 411
#
# _framework density 19.420881000000001
#
# number of rings (size 3 to 8) (size 9 to 14) (size 15 to 20)
#    0.000    0.667    5.000    4.000    0.000    0.000 
#    0.000    2.500    0.000    0.000    0.000    0.000 
#    0.000    0.000    0.000    0.000    0.000    0.000 
#
# Total GULP energy -536422.436655 kJ/mol
# GULP energy per Si atom -5587.733715 kJ/mol
# Density = 1.937668 g / cm^3
# Si number density = 19.420881 Si / 1000 Ang^3
#
#
#
# Elastic Constant Matrix: (Units=GPa)
#
#
# Indices 1 2 3 4 5 6 
#
# 1 102.6375 34.9875 38.6538 0.0000 0.0000 0.0000
# 2 34.9875 102.6359 38.6529 0.0000 0.0000 0.0000
# 3 38.6538 38.6529 92.8821 0.0000 0.0000 0.0000
# 4 0.0000 0.0000 0.0000 32.8213 0.0000 0.0000
# 5 0.0000 0.0000 0.0000 0.0000 32.8207 0.0000
# 6 0.0000 0.0000 0.0000 0.0000 0.0000 30.0656
#
#
#
# Elastic Compliance Matrix: (Units=1/GPa)
#
#
# Indices 1 2 3 4 5 6 
#
# 1 0.012132 -0.002650 -0.003946 0.000000 0.000000 0.000000
# 2 -0.002650 0.012133 -0.003946 0.000000 0.000000 0.000000
# 3 -0.003946 -0.003946 0.014051 0.000000 0.000000 0.000000
# 4 0.000000 0.000000 0.000000 0.030468 0.000000 0.000000
# 5 0.000000 0.000000 0.000000 0.000000 0.030469 0.000000
# 6 0.000000 0.000000 0.000000 0.000000 0.000000 0.033261
#
#
# Mechanical properties :
#
#
# Convention : Reuss Voigt Hill
#
# Bulk Modulus (GPa) = 58.03384 58.08265 58.05825
# Shear Modulus (GPa) = 31.37913 31.53229 31.45571
#
# Velocity S-wave (km/s) = 4.02399 4.03380 4.02890
# Velocity P-wave (km/s) = 7.17893 7.18802 7.18348
#
# Compressibility (1/GPa) = 0.01723133
#
# Stress axis : x y z
#
# Youngs Moduli (GPa) = 82.42346 82.42259 71.16962
#
# Poissons Ratio (x) = 0.21839 0.28086
# Poissons Ratio (y) = 0.21839 0.28086
# Poissons Ratio (z) = 0.32528 0.32527
#
# Static dielectric constant tensor:
#      x y z
#    x 1.668100 0.000000 0.000000 
#    y 0.000000 1.668100 0.000000 
#    z 0.000000 0.000000 1.681400 
# 
# From -- ./inp_files/5425.got.cif
#   From: 2010.05.17/outbox.cif.g08.bks.cpg/sg135_3_cif.got.tgz:5425.got - 2010.05.20 12:50:20.
