data_PCOD9569736
_publ_section_title
;
Structure prediction by ZEFSAII (Michael W. Deem and Ramdas Pophale) SiO2 
 PCOD9569736
Probable space group: P 42/M N M
;
_chemical_formula_sum "Si O2"
_cell_formula_units_Z 80
_cell_length_a 11.474853
_cell_length_b 11.474853
_cell_length_c 25.998836
_cell_angle_alpha 90.000000
_cell_angle_beta 90.000000
_cell_angle_gamma 90.000000
_cell_volume 3423.325269
_symmetry_space_group_name_H-M "P 42/M N M"
_symmetry_group_IT_number 136
_symmetry_cell_setting 'tetragonal'
loop_
_space_group_symop_operation_xyz
x,y,z
1/2-y,1/2+x,1/2+z
-x,-y,z
1/2+y,1/2-x,1/2+z
1/2+x,1/2-y,1/2-z
1/2-x,1/2+y,1/2-z
y,x,-z
-y,-x,-z
-x,-y,-z
1/2+y,1/2-x,1/2-z
x,y,-z
1/2-y,1/2+x,1/2-z
1/2-x,1/2+y,1/2+z
1/2+x,1/2-y,1/2+z
-y,-x,z
y,x,z
loop_
_atom_site_type_symbol
_atom_site_label
_atom_site_fract_x
_atom_site_fract_y
_atom_site_fract_z
Si Si1 0.772211 0.581677 0.091807
Si Si2 0.759532 0.426250 0.808439
Si Si3 0.217921 0.782080 0.058753
Si Si4 0.598227 0.401774 0.079723
Si Si5 0.268464 0.458792 0.302417
Si Si6 0.948486 0.758600 0.086726
O O1 0.695345 0.695345 0.102383
O O2 0.786051 0.516226 0.146172
O O3 0.692184 0.495038 0.058692
O O4 0.889427 0.636943 0.070206
O O5 0.633235 0.366766 0.817521
O O6 0.859758 0.329720 0.808295
O O7 0.751939 0.481960 0.752222
O O8 0.300786 0.699215 0.092428
O O9 0.081419 0.763065 0.069056
O O10 0.245229 0.754772 0.000000
O O11 0.500000 0.500000 0.101220
O O12 0.391872 0.391872 0.303846
O O13 0.259889 0.543951 0.350959
O O14 0.869301 0.869301 0.069889
#
# Coordination Sequence:
#
# PCOD9569736 Si02
#       6
#    16  16   8   8  16  16
#     4  10  21  39  66  97 132 178 224 272 333 405
#     4  11  22  35  54  87 130 178 235 280 319 392
#     4  12  27  47  74 103 131 174 227 283 354 421
#     4  10  22  44  71 102 138 175 219 277 343 414
#     4  11  23  36  54  85 128 180 230 280 335 387
#     4  11  24  43  67  98 135 177 227 280 342 410
#
# _framework density 23.36909
#
# number of rings (size 3 to 8) (size 9 to 14) (size 15 to 20)
#    0.000    1.200    2.000    3.900    0.000   11.400 
#    0.000    2.000    0.000    3.600    0.000    0.000 
#    0.000    0.000    0.000    0.000    0.000    0.000 
#
# Total GULP energy -446299.931500 kJ/mol
# GULP energy per Si atom -5578.749144 kJ/mol
# Density = 2.331590 g / cm^3
# Si number density = 23.369090 Si / 1000 Ang^3
#
#
#
# Elastic Constant Matrix: (Units=GPa)
#
#
# Indices 1 2 3 4 5 6 
#
# 1 111.5380 93.8395 10.4480 0.0000 0.0000 0.0000
# 2 93.8395 111.5374 10.4476 0.0000 0.0000 0.0000
# 3 10.4480 10.4476 97.5664 0.0000 0.0000 0.0000
# 4 0.0000 0.0000 0.0000 -20.1919 0.0000 0.0000
# 5 0.0000 0.0000 0.0000 0.0000 -20.1913 0.0000
# 6 0.0000 0.0000 0.0000 0.0000 0.0000 56.8813
#
#
#
# Elastic Compliance Matrix: (Units=1/GPa)
#
#
# Indices 1 2 3 4 5 6 
#
# 1 0.030713 -0.025790 -0.000527 0.000000 0.000000 0.000000
# 2 -0.025790 0.030713 -0.000527 0.000000 0.000000 0.000000
# 3 -0.000527 -0.000527 0.010362 0.000000 0.000000 0.000000
# 4 0.000000 0.000000 0.000000 -0.049525 0.000000 0.000000
# 5 0.000000 0.000000 0.000000 0.000000 -0.049526 0.000000
# 6 0.000000 0.000000 0.000000 0.000000 0.000000 0.017580
#
#
# Mechanical properties :
#
#
# Convention : Reuss Voigt Hill
#
# Bulk Modulus (GPa) = 55.25108 61.12354 58.18731
# Shear Modulus (GPa) = 99.92176 17.02673 58.47425
#
# Velocity S-wave (km/s) = 6.54606 2.70219 5.00763
# Velocity P-wave (km/s) = 8.99048 5.99569 7.64123
#
# Compressibility (1/GPa) = 0.01809919
#
# Stress axis : x y z
#
# Youngs Moduli (GPa) = 32.55975 32.55961 96.50344
#
# Poissons Ratio (x) = 0.83972 0.05088
# Poissons Ratio (y) = 0.83972 0.05086
# Poissons Ratio (z) = 0.01717 0.01716
#
# Static dielectric constant tensor:
#      x y z
#    x 1.902220 0.000000 0.000000 
#    y 0.000000 1.902220 0.000000 
#    z 0.000000 0.000000 2.215570 
# 
# From -- ./inp_files/9593.got.cif
#   From: 2010.05.17/outbox.cif.g08.bks.cpg/sg136_5_cif.got.tgz:9593.got - 2010.05.20 12:54:53.
