data_PCOD9569578
_publ_section_title
;
Structure prediction by ZEFSAII (Michael W. Deem and Ramdas Pophale) SiO2 
 PCOD9569578
Probable space group: P 42/M N M
;
_chemical_formula_sum "Si O2"
_cell_formula_units_Z 60
_cell_length_a 15.841781
_cell_length_b 15.841781
_cell_length_c 13.680539
_cell_angle_alpha 90.000000
_cell_angle_beta 90.000000
_cell_angle_gamma 90.000000
_cell_volume 3433.295774
_symmetry_space_group_name_H-M "P 42/M N M"
_symmetry_group_IT_number 136
_symmetry_cell_setting 'tetragonal'
loop_
_space_group_symop_operation_xyz
x,y,z
1/2-y,1/2+x,1/2+z
-x,-y,z
1/2+y,1/2-x,1/2+z
1/2+x,1/2-y,1/2-z
1/2-x,1/2+y,1/2-z
y,x,-z
-y,-x,-z
-x,-y,-z
1/2+y,1/2-x,1/2-z
x,y,-z
1/2-y,1/2+x,1/2-z
1/2-x,1/2+y,1/2+z
1/2+x,1/2-y,1/2+z
-y,-x,z
y,x,z
loop_
_atom_site_type_symbol
_atom_site_label
_atom_site_fract_x
_atom_site_fract_y
_atom_site_fract_z
Si Si1 0.432443 0.567558 0.820242
Si Si2 0.375234 0.984770 0.705038
Si Si3 0.656467 0.343534 0.000000
Si Si4 0.693115 0.557524 0.284397
Si Si5 0.581846 0.151835 0.000000
Si Si6 0.594335 0.732116 0.500000
O O1 0.500000 0.500000 0.860883
O O2 0.384514 0.615487 0.904752
O O3 0.484604 0.633599 0.756376
O O4 0.410123 0.056490 0.780129
O O5 0.366763 0.026973 0.597608
O O6 0.284493 0.950615 0.736746
O O7 0.753638 0.376882 0.000000
O O8 0.645958 0.645958 0.262055
O O9 0.701569 0.551855 0.400800
O O10 0.666884 0.096633 0.000000
O O11 0.687571 0.687571 0.500000
#
# Coordination Sequence:
#
# PCOD9569578 Si02
#       6
#     8  16   4  16   8   8
#     4  10  21  37  60  93 125 160 196 252 308 362
#     4  11  24  40  61  90 123 161 202 254 304 363
#     4  12  21  34  64  90 120 157 210 248 298 380
#     4  10  21  39  61  91 126 158 201 253 306 358
#     4  12  22  37  63  94 115 164 210 247 304 368
#     4  10  20  36  62  89 118 162 207 247 289 364
#
# _framework density 17.475918
#
# number of rings (size 3 to 8) (size 9 to 14) (size 15 to 20)
#    0.000    1.333    6.000    0.200    0.000    3.733 
#    2.400    3.333    0.000    0.000    0.000    0.000 
#    0.000    0.000    0.000    0.000    0.000    0.000 
#
# Total GULP energy -334573.456384 kJ/mol
# GULP energy per Si atom -5576.224273 kJ/mol
# Density = 1.743614 g / cm^3
# Si number density = 17.475918 Si / 1000 Ang^3
#
#
#
# Elastic Constant Matrix: (Units=GPa)
#
#
# Indices 1 2 3 4 5 6 
#
# 1 86.9686 57.8621 42.2147 0.0000 0.0000 0.0000
# 2 57.8621 86.9681 42.2147 0.0000 0.0000 0.0000
# 3 42.2147 42.2147 119.7692 0.0000 0.0000 0.0000
# 4 0.0000 0.0000 0.0000 24.1949 0.0000 0.0000
# 5 0.0000 0.0000 0.0000 0.0000 24.1951 0.0000
# 6 0.0000 0.0000 0.0000 0.0000 0.0000 23.2374
#
#
#
# Elastic Compliance Matrix: (Units=1/GPa)
#
#
# Indices 1 2 3 4 5 6 
#
# 1 0.021523 -0.012833 -0.003063 0.000000 0.000000 0.000000
# 2 -0.012833 0.021524 -0.003063 0.000000 0.000000 0.000000
# 3 -0.003063 -0.003063 0.010509 0.000000 0.000000 0.000000
# 4 0.000000 0.000000 0.000000 0.041331 0.000000 0.000000
# 5 0.000000 0.000000 0.000000 0.000000 0.041331 0.000000
# 6 0.000000 0.000000 0.000000 0.000000 0.000000 0.043034
#
#
# Mechanical properties :
#
#
# Convention : Reuss Voigt Hill
#
# Bulk Modulus (GPa) = 63.95091 64.25432 64.10261
# Shear Modulus (GPa) = 22.48379 24.41978 23.45178
#
# Velocity S-wave (km/s) = 3.59075 3.74215 3.66724
# Velocity P-wave (km/s) = 7.33925 7.45109 7.39538
#
# Compressibility (1/GPa) = 0.01563699
#
# Stress axis : x y z
#
# Youngs Moduli (GPa) = 46.46095 46.46062 95.16002
#
# Poissons Ratio (x) = 0.59624 0.29147
# Poissons Ratio (y) = 0.59625 0.29148
# Poissons Ratio (z) = 0.14231 0.14231
#
# Static dielectric constant tensor:
#      x y z
#    x 1.596330 0.000000 0.000000 
#    y 0.000000 1.596330 0.000000 
#    z 0.000000 0.000000 1.571470 
# 
# From -- ./inp_files/3380.got.cif
#   From: 2010.05.17/outbox.cif.g08.bks.cpg/sg136_2_cif.got.tgz:3380.got - 2010.05.20 12:54:53.
