data_PCOD9569822
_publ_section_title
;
Structure prediction by ZEFSAII (Michael W. Deem and Ramdas Pophale) SiO2 
 PCOD9569822
Probable space group: P 42/M N M
;
_chemical_formula_sum "Si O2"
_cell_formula_units_Z 56
_cell_length_a 14.579184
_cell_length_b 14.579184
_cell_length_c 15.719134
_cell_angle_alpha 90.000000
_cell_angle_beta 90.000000
_cell_angle_gamma 90.000000
_cell_volume 3341.142897
_symmetry_space_group_name_H-M "P 42/M N M"
_symmetry_group_IT_number 136
_symmetry_cell_setting 'tetragonal'
loop_
_space_group_symop_operation_xyz
x,y,z
1/2-y,1/2+x,1/2+z
-x,-y,z
1/2+y,1/2-x,1/2+z
1/2+x,1/2-y,1/2-z
1/2-x,1/2+y,1/2-z
y,x,-z
-y,-x,-z
-x,-y,-z
1/2+y,1/2-x,1/2-z
x,y,-z
1/2-y,1/2+x,1/2-z
1/2-x,1/2+y,1/2+z
1/2+x,1/2-y,1/2+z
-y,-x,z
y,x,z
loop_
_atom_site_type_symbol
_atom_site_label
_atom_site_fract_x
_atom_site_fract_y
_atom_site_fract_z
Si Si1 0.122059 0.423549 0.000000
Si Si2 0.326957 0.172568 0.325164
Si Si3 0.423715 0.141368 0.500000
Si Si4 0.726137 0.041245 0.670343
Si Si5 0.577047 0.577047 0.099586
O O1 0.177078 0.414388 0.087630
O O2 0.096359 0.531886 0.000000
O O3 0.033758 0.358048 0.000000
O O4 0.236466 0.236466 0.322695
O O5 0.377661 0.182361 0.415968
O O6 0.396444 0.202835 0.251144
O O7 0.304847 0.064079 0.316473
O O8 0.832649 0.042291 0.646746
O O9 0.500000 0.500000 0.101043
O O10 0.597427 0.597427 0.000000
#
# Coordination Sequence:
#
# PCOD9569822 Si02
#       5
#     8  16   8  16   8
#     4   9  18  33  55  80 111 143 186 230 298 336
#     4  11  22  36  57  83 116 151 194 238 289 347
#     4   9  19  34  52  82 113 148 181 235 282 345
#     4  11  21  37  57  85 116 151 194 241 291 351
#     4  11  22  38  60  85 119 158 193 243 303 353
#
# _framework density 16.760732999999998
#
# number of rings (size 3 to 8) (size 9 to 14) (size 15 to 20)
#    0.000    1.571    2.857    3.000    0.000    2.857 
#    0.000    0.000    0.000    0.000    0.000    1.000 
#    0.000    0.000    0.000    0.000    0.000    0.000 
#
# Total GULP energy -312414.199716 kJ/mol
# GULP energy per Si atom -5578.824995 kJ/mol
# Density = 1.672258 g / cm^3
# Si number density = 16.760733 Si / 1000 Ang^3
#
#
#
# Elastic Constant Matrix: (Units=GPa)
#
#
# Indices 1 2 3 4 5 6 
#
# 1 94.2963 39.9038 57.5387 0.0000 0.0000 0.0000
# 2 39.9038 94.2963 57.5387 0.0000 0.0000 0.0000
# 3 57.5387 57.5387 156.4520 0.0000 0.0000 0.0000
# 4 0.0000 0.0000 0.0000 26.8562 0.0000 0.0000
# 5 0.0000 0.0000 0.0000 0.0000 26.8562 0.0000
# 6 0.0000 0.0000 0.0000 0.0000 0.0000 23.7089
#
#
#
# Elastic Compliance Matrix: (Units=1/GPa)
#
#
# Indices 1 2 3 4 5 6 
#
# 1 0.014634 -0.003750 -0.004003 0.000000 0.000000 0.000000
# 2 -0.003750 0.014634 -0.004003 0.000000 0.000000 0.000000
# 3 -0.004003 -0.004003 0.009336 0.000000 0.000000 0.000000
# 4 0.000000 0.000000 0.000000 0.037235 0.000000 0.000000
# 5 0.000000 0.000000 0.000000 0.000000 0.037235 0.000000
# 6 0.000000 0.000000 0.000000 0.000000 0.000000 0.042178
#
#
# Mechanical properties :
#
#
# Convention : Reuss Voigt Hill
#
# Bulk Modulus (GPa) = 66.25730 72.77859 69.51794
# Shear Modulus (GPa) = 27.20391 28.15513 27.67952
#
# Velocity S-wave (km/s) = 4.03311 4.10302 4.06821
# Velocity P-wave (km/s) = 7.82975 8.12174 7.97708
#
# Compressibility (1/GPa) = 0.01509268
#
# Stress axis : x y z
#
# Youngs Moduli (GPa) = 68.33190 68.33190 107.11219
#
# Poissons Ratio (x) = 0.25627 0.42875
# Poissons Ratio (y) = 0.25627 0.42875
# Poissons Ratio (z) = 0.27352 0.27352
#
# Static dielectric constant tensor:
#      x y z
#    x 1.557750 0.000000 0.000000 
#    y 0.000000 1.557750 0.000000 
#    z 0.000000 0.000000 1.548380 
# 
# From -- ./inp_files/3125.got.cif
#   From: 2010.05.17/outbox.cif.g08.bks.cpg/sg136_2_cif.got.tgz:3125.got - 2010.05.20 12:54:53.
