data_PCOD9569109
_publ_section_title
;
Structure prediction by ZEFSAII (Michael W. Deem and Ramdas Pophale) SiO2 
 PCOD9569109
Probable space group: P 42/M N M
;
_chemical_formula_sum "Si O2"
_cell_formula_units_Z 64
_cell_length_a 15.844638
_cell_length_b 15.844638
_cell_length_c 17.049091
_cell_angle_alpha 90.000000
_cell_angle_beta 90.000000
_cell_angle_gamma 90.000000
_cell_volume 4280.217828
_symmetry_space_group_name_H-M "P 42/M N M"
_symmetry_group_IT_number 136
_symmetry_cell_setting 'tetragonal'
loop_
_space_group_symop_operation_xyz
x,y,z
1/2-y,1/2+x,1/2+z
-x,-y,z
1/2+y,1/2-x,1/2+z
1/2+x,1/2-y,1/2-z
1/2-x,1/2+y,1/2-z
y,x,-z
-y,-x,-z
-x,-y,-z
1/2+y,1/2-x,1/2-z
x,y,-z
1/2-y,1/2+x,1/2-z
1/2-x,1/2+y,1/2+z
1/2+x,1/2-y,1/2+z
-y,-x,z
y,x,z
loop_
_atom_site_type_symbol
_atom_site_label
_atom_site_fract_x
_atom_site_fract_y
_atom_site_fract_z
Si Si1 0.072052 0.072052 0.911878
Si Si2 0.565318 0.289635 0.157311
Si Si3 0.543623 0.688290 0.689370
Si Si4 0.338660 0.194134 0.591001
Si Si5 0.994915 0.139321 0.500000
O O1 0.028420 0.146934 0.864798
O O2 0.096004 0.096004 0.000000
O O3 0.000000 0.000000 0.916789
O O4 0.633728 0.366273 0.169351
O O5 0.502212 0.286193 0.230361
O O6 0.617869 0.205514 0.137442
O O7 0.513236 0.310298 0.078808
O O8 0.615803 0.615803 0.703209
O O9 0.586950 0.763754 0.641109
O O10 0.360367 0.173404 0.500000
O O11 0.266215 0.266215 0.586182
O O12 0.064942 0.064942 0.500000
O O13 0.904639 0.095362 0.500000
#
# Coordination Sequence:
#
# PCOD9569109 Si02
#       5
#     8  16  16  16   8
#     4   9  16  26  40  65  99 125 149 189 244 289
#     4  10  17  28  44  68  97 128 159 195 240 289
#     4  10  18  27  44  71  98 125 157 200 241 283
#     4   9  17  30  46  67  96 130 164 194 233 289
#     4   9  16  24  40  66  98 126 151 189 244 300
#
# _framework density 14.952510999999999
#
# number of rings (size 3 to 8) (size 9 to 14) (size 15 to 20)
#    0.000    2.500    2.500    1.500    0.000    4.000 
#    0.000    0.000    0.000    0.750    6.500    1.750 
#    0.000    0.000    0.000    0.000    0.000    0.000 
#
# Total GULP energy -356335.582016 kJ/mol
# GULP energy per Si atom -5567.743469 kJ/mol
# Density = 1.491848 g / cm^3
# Si number density = 14.952511 Si / 1000 Ang^3
#
#
#
# Elastic Constant Matrix: (Units=GPa)
#
#
# Indices 1 2 3 4 5 6 
#
# 1 67.1482 51.2308 64.3727 0.0000 0.0000 0.0000
# 2 51.2308 67.1477 64.3724 0.0000 0.0000 0.0000
# 3 64.3727 64.3724 165.9414 0.0000 0.0000 0.0000
# 4 0.0000 0.0000 0.0000 5.7611 0.0000 0.0000
# 5 0.0000 0.0000 0.0000 0.0000 5.7583 0.0000
# 6 0.0000 0.0000 0.0000 0.0000 0.0000 30.4922
#
#
#
# Elastic Compliance Matrix: (Units=1/GPa)
#
#
# Indices 1 2 3 4 5 6 
#
# 1 0.038719 -0.024106 -0.005668 0.000000 0.000000 0.000000
# 2 -0.024106 0.038719 -0.005668 0.000000 0.000000 0.000000
# 3 -0.005668 -0.005668 0.010424 0.000000 0.000000 0.000000
# 4 0.000000 0.000000 0.000000 0.173577 0.000000 0.000000
# 5 0.000000 0.000000 0.000000 0.000000 0.173663 0.000000
# 6 0.000000 0.000000 0.000000 0.000000 0.000000 0.032795
#
#
# Mechanical properties :
#
#
# Convention : Reuss Voigt Hill
#
# Bulk Modulus (GPa) = 58.91065 73.35435 66.13250
# Shear Modulus (GPa) = 9.18371 16.41974 12.80172
#
# Velocity S-wave (km/s) = 2.48098 3.31739 2.92919
# Velocity P-wave (km/s) = 6.90587 7.98988 7.46757
#
# Compressibility (1/GPa) = 0.01697486
#
# Stress axis : x y z
#
# Youngs Moduli (GPa) = 25.82733 25.82720 95.93175
#
# Poissons Ratio (x) = 0.62260 0.54379
# Poissons Ratio (y) = 0.62261 0.54378
# Poissons Ratio (z) = 0.14640 0.14640
#
# Static dielectric constant tensor:
#      x y z
#    x 1.489950 0.000000 0.000000 
#    y 0.000000 1.489950 0.000000 
#    z 0.000000 0.000000 1.494490 
# 
# From -- ./inp_files/5941.got.cif
#   From: 2010.05.17/outbox.cif.g08.bks.cpg/sg136_3_cif.got.tgz:5941.got - 2010.05.20 12:54:53.
