data_PCOD9569209
_publ_section_title
;
Structure prediction by ZEFSAII (Michael W. Deem and Ramdas Pophale) SiO2 
 PCOD9569209
Probable space group: P 42/M N M
;
_chemical_formula_sum "Si O2"
_cell_formula_units_Z 52
_cell_length_a 13.883271
_cell_length_b 13.883271
_cell_length_c 12.354675
_cell_angle_alpha 90.000000
_cell_angle_beta 90.000000
_cell_angle_gamma 90.000000
_cell_volume 2381.304473
_symmetry_space_group_name_H-M "P 42/M N M"
_symmetry_group_IT_number 136
_symmetry_cell_setting 'tetragonal'
loop_
_space_group_symop_operation_xyz
x,y,z
1/2-y,1/2+x,1/2+z
-x,-y,z
1/2+y,1/2-x,1/2+z
1/2+x,1/2-y,1/2-z
1/2-x,1/2+y,1/2-z
y,x,-z
-y,-x,-z
-x,-y,-z
1/2+y,1/2-x,1/2-z
x,y,-z
1/2-y,1/2+x,1/2-z
1/2-x,1/2+y,1/2+z
1/2+x,1/2-y,1/2+z
-y,-x,z
y,x,z
loop_
_atom_site_type_symbol
_atom_site_label
_atom_site_fract_x
_atom_site_fract_y
_atom_site_fract_z
Si Si1 0.915903 0.915903 0.765720
Si Si2 0.930784 0.358437 0.224540
Si Si3 0.741340 0.583697 0.500000
Si Si4 0.104068 0.104068 0.000000
Si Si5 0.707319 0.547821 0.881001
O O1 0.964036 0.833043 0.694978
O O2 0.872812 0.872812 0.875613
O O3 0.000000 0.000000 0.790366
O O4 0.878633 0.460179 0.234578
O O5 0.892781 0.286208 0.315596
O O6 0.927224 0.307340 0.107530
O O7 0.685812 0.685812 0.500000
O O8 0.655215 0.503460 0.500000
O O9 0.615574 0.615574 0.893742
O O10 0.740264 0.516130 0.000000
#
# Coordination Sequence:
#
# PCOD9569209 Si02
#       5
#     8  16   8   4  16
#     4  10  18  34  61  95 132 168 210 273 359 417
#     4  11  27  46  68  95 139 190 231 278 354 432
#     4  12  25  49  77 107 141 182 244 305 353 421
#     4  12  21  38  70 102 138 176 218 291 364 411
#     4  10  21  40  65  95 130 168 222 286 345 411
#
# _framework density 21.836772
#
# number of rings (size 3 to 8) (size 9 to 14) (size 15 to 20)
#    0.000    1.231    3.077    2.769    4.308    3.077 
#   11.077    0.000    0.000    0.000    0.000    0.000 
#    0.000    0.000    0.000    0.000    0.000    0.000 
#
# Total GULP energy -289700.172839 kJ/mol
# GULP energy per Si atom -5571.157170 kJ/mol
# Density = 2.178707 g / cm^3
# Si number density = 21.836772 Si / 1000 Ang^3
#
#
#
# Elastic Constant Matrix: (Units=GPa)
#
#
# Indices 1 2 3 4 5 6 
#
# 1 69.5045 30.8127 38.4544 0.0000 0.0000 0.0000
# 2 30.8127 69.5045 38.4544 0.0000 0.0000 0.0000
# 3 38.4544 38.4544 207.8922 0.0000 0.0000 0.0000
# 4 0.0000 0.0000 0.0000 28.6585 0.0000 0.0000
# 5 0.0000 0.0000 0.0000 0.0000 28.6585 0.0000
# 6 0.0000 0.0000 0.0000 0.0000 0.0000 10.4671
#
#
#
# Elastic Compliance Matrix: (Units=1/GPa)
#
#
# Indices 1 2 3 4 5 6 
#
# 1 0.018730 -0.007115 -0.002149 0.000000 0.000000 0.000000
# 2 -0.007115 0.018730 -0.002149 0.000000 0.000000 0.000000
# 3 -0.002149 -0.002149 0.005605 0.000000 0.000000 0.000000
# 4 0.000000 0.000000 0.000000 0.034894 0.000000 0.000000
# 5 0.000000 0.000000 0.000000 0.000000 0.034894 0.000000
# 6 0.000000 0.000000 0.000000 0.000000 0.000000 0.095537
#
#
# Mechanical properties :
#
#
# Convention : Reuss Voigt Hill
#
# Bulk Modulus (GPa) = 49.40240 62.48272 55.94256
# Shear Modulus (GPa) = 21.01177 29.50212 25.25695
#
# Velocity S-wave (km/s) = 3.10533 3.67962 3.40461
# Velocity P-wave (km/s) = 5.96071 6.83582 6.41321
#
# Compressibility (1/GPa) = 0.02024193
#
# Stress axis : x y z
#
# Youngs Moduli (GPa) = 53.38907 53.38907 178.41088
#
# Poissons Ratio (x) = 0.37985 0.38333
# Poissons Ratio (y) = 0.37985 0.38333
# Poissons Ratio (z) = 0.11471 0.11471
#
# Static dielectric constant tensor:
#      x y z
#    x 1.933850 0.000000 0.000000 
#    y 0.000000 1.933850 0.000000 
#    z 0.000000 0.000000 1.857540 
# 
# From -- ./inp_files/3105.got.cif
#   From: 2010.05.17/outbox.cif.g08.bks.cpg/sg136_2_cif.got.tgz:3105.got - 2010.05.20 12:54:53.
