data_PCOD9569521
_publ_section_title
;
Structure prediction by ZEFSAII (Michael W. Deem and Ramdas Pophale) SiO2 
 PCOD9569521
Probable space group: P 42/M N M
;
_chemical_formula_sum "Si O2"
_cell_formula_units_Z 112
_cell_length_a 15.385283
_cell_length_b 15.385283
_cell_length_c 25.504766
_cell_angle_alpha 90.000000
_cell_angle_beta 90.000000
_cell_angle_gamma 90.000000
_cell_volume 6037.154936
_symmetry_space_group_name_H-M "P 42/M N M"
_symmetry_group_IT_number 136
_symmetry_cell_setting 'tetragonal'
loop_
_space_group_symop_operation_xyz
x,y,z
1/2-y,1/2+x,1/2+z
-x,-y,z
1/2+y,1/2-x,1/2+z
1/2+x,1/2-y,1/2-z
1/2-x,1/2+y,1/2-z
y,x,-z
-y,-x,-z
-x,-y,-z
1/2+y,1/2-x,1/2-z
x,y,-z
1/2-y,1/2+x,1/2-z
1/2-x,1/2+y,1/2+z
1/2+x,1/2-y,1/2+z
-y,-x,z
y,x,z
loop_
_atom_site_type_symbol
_atom_site_label
_atom_site_fract_x
_atom_site_fract_y
_atom_site_fract_z
Si Si1 0.220630 0.920608 0.561960
Si Si2 0.874648 0.567540 0.242515
Si Si3 0.086064 0.234091 0.367059
Si Si4 0.317458 0.179996 0.853220
Si Si5 0.328106 0.533183 0.348871
Si Si6 0.496909 0.359623 0.774530
Si Si7 0.630704 0.773459 0.658429
O O1 0.235536 0.921594 0.500000
O O2 0.128124 0.871877 0.571570
O O3 0.291076 0.862280 0.592902
O O4 0.225153 0.015768 0.587015
O O5 0.890824 0.465795 0.240082
O O6 0.848678 0.611406 0.188377
O O7 0.806818 0.589840 0.287573
O O8 0.158260 0.158260 0.371170
O O9 0.141112 0.324130 0.367276
O O10 0.029879 0.215486 0.313733
O O11 0.262786 0.262786 0.833074
O O12 0.247282 0.103647 0.858021
O O13 0.418490 0.581511 0.366337
O O14 0.341542 0.514926 0.286691
O O15 0.286118 0.442880 0.369777
O O16 0.562733 0.437268 0.788085
O O17 0.400415 0.400415 0.781625
O O18 0.709854 0.709854 0.670642
#
# Coordination Sequence:
#
# PCOD9569521 Si02
#       7
#    16  16  16  16  16  16  16
#     4  10  22  39  61  88 112 143 191 239 286 346
#     4  11  21  33  50  79 113 156 195 227 270 341
#     4  10  21  36  54  80 117 157 191 232 286 342
#     4  10  20  36  56  76 109 148 186 236 288 337
#     4  10  20  35  54  79 111 152 197 239 285 338
#     4   9  17  30  48  74 111 151 190 226 267 332
#     4  11  22  35  52  79 117 155 196 237 280 342
#
# _framework density 18.551784000000001
#
# number of rings (size 3 to 8) (size 9 to 14) (size 15 to 20)
#    0.000    1.857    1.429    3.000    2.000    4.286 
#    0.000    0.714    0.000    1.714    0.000    0.000 
#    0.000    1.714    0.000   28.714    0.000    0.000 
#
# Total GULP energy -624404.344796 kJ/mol
# GULP energy per Si atom -5575.038793 kJ/mol
# Density = 1.850956 g / cm^3
# Si number density = 18.551784 Si / 1000 Ang^3
#
#
#
# Elastic Constant Matrix: (Units=GPa)
#
#
# Indices 1 2 3 4 5 6 
#
# 1 110.5969 43.2893 19.0442 0.0000 0.0000 0.0000
# 2 43.2893 110.5969 19.0442 0.0000 0.0000 0.0000
# 3 19.0442 19.0442 26.9166 0.0000 0.0000 0.0000
# 4 0.0000 0.0000 0.0000 21.1891 0.0000 0.0000
# 5 0.0000 0.0000 0.0000 0.0000 21.1891 0.0000
# 6 0.0000 0.0000 0.0000 0.0000 0.0000 38.9802
#
#
#
# Elastic Compliance Matrix: (Units=1/GPa)
#
#
# Indices 1 2 3 4 5 6 
#
# 1 0.011368 -0.003490 -0.005574 0.000000 0.000000 0.000000
# 2 -0.003490 0.011368 -0.005574 0.000000 0.000000 0.000000
# 3 -0.005574 -0.005574 0.045039 0.000000 0.000000 0.000000
# 4 0.000000 0.000000 0.000000 0.047194 0.000000 0.000000
# 5 0.000000 0.000000 0.000000 0.000000 0.047194 0.000000
# 6 0.000000 0.000000 0.000000 0.000000 0.000000 0.025654
#
#
# Mechanical properties :
#
#
# Convention : Reuss Voigt Hill
#
# Bulk Modulus (GPa) = 25.97430 45.65174 35.81302
# Shear Modulus (GPa) = 21.74632 27.38720 24.56676
#
# Velocity S-wave (km/s) = 3.42745 3.84638 3.64294
# Velocity P-wave (km/s) = 5.44927 6.66238 6.08613
#
# Compressibility (1/GPa) = 0.03849959
#
# Stress axis : x y z
#
# Youngs Moduli (GPa) = 87.96991 87.96991 22.20294
#
# Poissons Ratio (x) = 0.30698 0.12376
# Poissons Ratio (y) = 0.30698 0.12376
# Poissons Ratio (z) = 0.49033 0.49033
#
# Static dielectric constant tensor:
#      x y z
#    x 1.698430 0.000000 0.000000 
#    y 0.000000 1.698430 0.000000 
#    z 0.000000 0.000000 1.589270 
# 
# From -- ./inp_files/8490.got.cif
#   From: 2010.05.17/outbox.cif.g08.bks.cpg/sg136_5_cif.got.tgz:8490.got - 2010.05.20 12:54:53.
