data_PCOD9569526
_publ_section_title
;
Structure prediction by ZEFSAII (Michael W. Deem and Ramdas Pophale) SiO2 
 PCOD9569526
Probable space group: P 42/M N M
;
_chemical_formula_sum "Si O2"
_cell_formula_units_Z 80
_cell_length_a 12.004769
_cell_length_b 12.004769
_cell_length_c 26.594391
_cell_angle_alpha 90.000000
_cell_angle_beta 90.000000
_cell_angle_gamma 90.000000
_cell_volume 3832.636796
_symmetry_space_group_name_H-M "P 42/M N M"
_symmetry_group_IT_number 136
_symmetry_cell_setting 'tetragonal'
loop_
_space_group_symop_operation_xyz
x,y,z
1/2-y,1/2+x,1/2+z
-x,-y,z
1/2+y,1/2-x,1/2+z
1/2+x,1/2-y,1/2-z
1/2-x,1/2+y,1/2-z
y,x,-z
-y,-x,-z
-x,-y,-z
1/2+y,1/2-x,1/2-z
x,y,-z
1/2-y,1/2+x,1/2-z
1/2-x,1/2+y,1/2+z
1/2+x,1/2-y,1/2+z
-y,-x,z
y,x,z
loop_
_atom_site_type_symbol
_atom_site_label
_atom_site_fract_x
_atom_site_fract_y
_atom_site_fract_z
Si Si1 0.462796 0.287139 0.441849
Si Si2 0.178982 0.354149 0.908460
Si Si3 0.395004 0.781634 0.913545
Si Si4 0.858515 0.321007 0.806857
Si Si5 0.293583 0.114153 0.196737
O O1 0.485733 0.311679 0.500000
O O2 0.398805 0.398805 0.420592
O O3 0.574680 0.227578 0.421234
O O4 0.369579 0.190920 0.437259
O O5 0.288055 0.288055 0.924823
O O6 0.186590 0.479567 0.928826
O O7 0.176491 0.359883 0.847450
O O8 0.340559 0.659442 0.923561
O O9 0.385553 0.803944 0.853406
O O10 0.795308 0.204693 0.803660
O O11 0.843052 0.375802 0.752499
O O12 0.986148 0.298306 0.817512
O O13 0.172600 0.172600 0.197717
#
# Coordination Sequence:
#
# PCOD9569526 Si02
#       5
#    16  16  16  16  16
#     4  10  22  41  65  91 117 151 200 254 303 355
#     4  11  23  37  57  87 121 157 196 242 303 365
#     4  10  21  38  60  86 116 155 203 248 292 351
#     4  10  20  35  55  80 112 154 199 243 297 353
#     4  10  21  34  52  82 115 150 195 244 296 357
#
# _framework density 20.873356999999999
#
# number of rings (size 3 to 8) (size 9 to 14) (size 15 to 20)
#    0.000    1.800    2.000    1.800    0.000    5.200 
#    0.000    3.000    0.000    7.200    0.000    4.200 
#    0.000    0.000    0.000    0.000    0.000    0.000 
#
# Total GULP energy -445861.962238 kJ/mol
# GULP energy per Si atom -5573.274528 kJ/mol
# Density = 2.082585 g / cm^3
# Si number density = 20.873357 Si / 1000 Ang^3
#
#
#
# Elastic Constant Matrix: (Units=GPa)
#
#
# Indices 1 2 3 4 5 6 
#
# 1 169.0734 -23.7180 -6.5037 0.0000 0.0000 0.0000
# 2 -23.7180 169.0734 -6.5037 0.0000 0.0000 0.0000
# 3 -6.5037 -6.5037 53.0229 0.0000 0.0000 0.0000
# 4 0.0000 0.0000 0.0000 73.2481 0.0000 0.0000
# 5 0.0000 0.0000 0.0000 0.0000 73.2481 0.0000
# 6 0.0000 0.0000 0.0000 0.0000 0.0000 14.5434
#
#
#
# Elastic Compliance Matrix: (Units=1/GPa)
#
#
# Indices 1 2 3 4 5 6 
#
# 1 0.006071 0.000885 0.000853 0.000000 0.000000 0.000000
# 2 0.000885 0.006071 0.000853 0.000000 0.000000 0.000000
# 3 0.000853 0.000853 0.019069 0.000000 0.000000 0.000000
# 4 0.000000 0.000000 0.000000 0.013652 0.000000 0.000000
# 5 0.000000 0.000000 0.000000 0.000000 0.013652 0.000000
# 6 0.000000 0.000000 0.000000 0.000000 0.000000 0.068760
#
#
# Mechanical properties :
#
#
# Convention : Reuss Voigt Hill
#
# Bulk Modulus (GPa) = 27.47704 35.30211 31.38958
# Shear Modulus (GPa) = 37.25066 60.73423 48.99245
#
# Velocity S-wave (km/s) = 4.22904 5.39997 4.84997
# Velocity P-wave (km/s) = 6.08594 7.47187 6.81423
#
# Compressibility (1/GPa) = 0.03639402
#
# Stress axis : x y z
#
# Youngs Moduli (GPa) = 164.70402 164.70402 52.44090
#
# Poissons Ratio (x) = -0.14569 -0.04474
# Poissons Ratio (y) = -0.14569 -0.04474
# Poissons Ratio (z) = -0.14053 -0.14053
#
# Static dielectric constant tensor:
#      x y z
#    x 1.809210 0.000000 0.000000 
#    y 0.000000 1.809210 0.000000 
#    z 0.000000 0.000000 1.820950 
# 
# From -- ./inp_files/9510.got.cif
#   From: 2010.05.17/outbox.cif.g08.bks.cpg/sg136_5_cif.got.tgz:9510.got - 2010.05.20 12:54:53.
