data_PCOD9569538
_publ_section_title
;
Structure prediction by ZEFSAII (Michael W. Deem and Ramdas Pophale) SiO2 
 PCOD9569538
Probable space group: P 42/M N M
;
_chemical_formula_sum "Si O2"
_cell_formula_units_Z 96
_cell_length_a 15.421577
_cell_length_b 15.421577
_cell_length_c 21.863694
_cell_angle_alpha 90.000000
_cell_angle_beta 90.000000
_cell_angle_gamma 90.000000
_cell_volume 5199.733838
_symmetry_space_group_name_H-M "P 42/M N M"
_symmetry_group_IT_number 136
_symmetry_cell_setting 'tetragonal'
loop_
_space_group_symop_operation_xyz
x,y,z
1/2-y,1/2+x,1/2+z
-x,-y,z
1/2+y,1/2-x,1/2+z
1/2+x,1/2-y,1/2-z
1/2-x,1/2+y,1/2-z
y,x,-z
-y,-x,-z
-x,-y,-z
1/2+y,1/2-x,1/2-z
x,y,-z
1/2-y,1/2+x,1/2-z
1/2-x,1/2+y,1/2+z
1/2+x,1/2-y,1/2+z
-y,-x,z
y,x,z
loop_
_atom_site_type_symbol
_atom_site_label
_atom_site_fract_x
_atom_site_fract_y
_atom_site_fract_z
Si Si1 0.926591 0.073410 0.426780
Si Si2 0.760442 0.519563 0.573349
Si Si3 0.069287 0.930714 0.925525
Si Si4 0.744639 0.016767 0.371506
Si Si5 0.135520 0.542507 0.245966
Si Si6 0.653845 0.198543 0.359003
Si Si7 0.662131 0.197244 0.927330
O O1 0.906509 0.093492 0.500000
O O2 0.844175 0.037568 0.388587
O O3 0.000000 0.000000 0.428308
O O4 0.762120 0.519406 0.500000
O O5 0.664237 0.543584 0.594656
O O6 0.781446 0.424403 0.595516
O O7 0.818784 0.599956 0.595266
O O8 0.069564 0.930437 0.000000
O O9 0.000000 0.000000 0.904396
O O10 0.697439 0.108716 0.379926
O O11 0.705270 0.983278 0.306201
O O12 0.720854 0.936363 0.414507
O O13 0.096130 0.451883 0.272909
O O14 0.181580 0.604462 0.295028
O O15 0.725557 0.274444 0.355963
O O16 0.731096 0.268905 0.902692
O O17 0.675601 0.195649 0.000000
#
# Coordination Sequence:
#
# PCOD9569538 Si02
#       7
#     8  16   8  16  16  16  16
#     4  11  24  42  63  91 129 170 215 260 313 375
#     4  10  20  35  56  84 119 161 204 248 303 367
#     4   9  16  30  51  75 109 154 196 229 278 347
#     4  11  22  40  62  89 119 163 202 254 316 374
#     4   9  20  40  65  87 114 155 205 256 311 372
#     4  11  23  39  57  89 126 157 198 251 308 378
#     4  10  20  36  59  87 117 153 208 263 302 355
#
# _framework density 18.462482999999999
#
# number of rings (size 3 to 8) (size 9 to 14) (size 15 to 20)
#    0.000    1.833    1.667    2.500    0.000    7.000 
#    0.000    2.500    0.000    1.000    0.000    0.000 
#    0.000    0.000    0.000    0.000    0.000    0.000 
#
# Total GULP energy -534635.034347 kJ/mol
# GULP energy per Si atom -5569.114941 kJ/mol
# Density = 1.842046 g / cm^3
# Si number density = 18.462483 Si / 1000 Ang^3
#
#
#
# Elastic Constant Matrix: (Units=GPa)
#
#
# Indices 1 2 3 4 5 6 
#
# 1 138.4194 103.4947 42.2072 0.0000 0.0000 0.0000
# 2 103.4947 138.4197 42.2073 0.0000 0.0000 0.0000
# 3 42.2072 42.2073 42.0364 0.0000 0.0000 0.0000
# 4 0.0000 0.0000 0.0000 91.5070 0.0000 0.0000
# 5 0.0000 0.0000 0.0000 0.0000 91.5035 0.0000
# 6 0.0000 0.0000 0.0000 0.0000 0.0000 41.1905
#
#
#
# Elastic Compliance Matrix: (Units=1/GPa)
#
#
# Indices 1 2 3 4 5 6 
#
# 1 0.017498 -0.011135 -0.006389 0.000000 0.000000 0.000000
# 2 -0.011135 0.017498 -0.006389 0.000000 0.000000 0.000000
# 3 -0.006389 -0.006389 0.036619 0.000000 0.000000 0.000000
# 4 0.000000 0.000000 0.000000 0.010928 0.000000 0.000000
# 5 0.000000 0.000000 0.000000 0.000000 0.010929 0.000000
# 6 0.000000 0.000000 0.000000 0.000000 0.000000 0.024277
#
#
# Mechanical properties :
#
#
# Convention : Reuss Voigt Hill
#
# Bulk Modulus (GPa) = 42.03601 77.18821 59.61211
# Shear Modulus (GPa) = 28.81775 53.57130 41.19452
#
# Velocity S-wave (km/s) = 3.95509 5.39252 4.72874
# Velocity P-wave (km/s) = 6.60868 8.98172 7.88499
#
# Compressibility (1/GPa) = 0.02378913
#
# Stress axis : x y z
#
# Youngs Moduli (GPa) = 57.14929 57.14942 27.30843
#
# Poissons Ratio (x) = 0.63636 0.17447
# Poissons Ratio (y) = 0.63635 0.17447
# Poissons Ratio (z) = 0.36512 0.36512
#
# Static dielectric constant tensor:
#      x y z
#    x 1.648090 0.000000 0.000000 
#    y 0.000000 1.648090 0.000000 
#    z 0.000000 0.000000 1.657840 
# 
# From -- ./inp_files/7545.got.cif
#   From: 2010.05.17/outbox.cif.g08.bks.cpg/sg136_4_cif.got.tgz:7545.got - 2010.05.20 12:54:53.
