data_PCOD9569784
_publ_section_title
;
Structure prediction by ZEFSAII (Michael W. Deem and Ramdas Pophale) SiO2 
 PCOD9569784
Probable space group: P 42/M N M
;
_chemical_formula_sum "Si O2"
_cell_formula_units_Z 88
_cell_length_a 14.186360
_cell_length_b 14.186360
_cell_length_c 22.532300
_cell_angle_alpha 90.000000
_cell_angle_beta 90.000000
_cell_angle_gamma 90.000000
_cell_volume 4534.688692
_symmetry_space_group_name_H-M "P 42/M N M"
_symmetry_group_IT_number 136
_symmetry_cell_setting 'tetragonal'
loop_
_space_group_symop_operation_xyz
x,y,z
1/2-y,1/2+x,1/2+z
-x,-y,z
1/2+y,1/2-x,1/2+z
1/2+x,1/2-y,1/2-z
1/2-x,1/2+y,1/2-z
y,x,-z
-y,-x,-z
-x,-y,-z
1/2+y,1/2-x,1/2-z
x,y,-z
1/2-y,1/2+x,1/2-z
1/2-x,1/2+y,1/2+z
1/2+x,1/2-y,1/2+z
-y,-x,z
y,x,z
loop_
_atom_site_type_symbol
_atom_site_label
_atom_site_fract_x
_atom_site_fract_y
_atom_site_fract_z
Si Si1 0.922975 0.922975 0.572275
Si Si2 0.373386 0.907839 0.257121
Si Si3 0.966428 0.815966 0.930016
Si Si4 0.816393 0.663321 0.113396
Si Si5 0.216240 0.365508 0.635430
Si Si6 0.043477 0.292352 0.569356
O O1 0.925098 0.925098 0.500000
O O2 0.946275 0.816140 0.590598
O O3 0.000000 0.000000 0.592700
O O4 0.478704 0.876415 0.238210
O O5 0.346124 0.859416 0.318956
O O6 0.302330 0.882369 0.204525
O O7 0.914330 0.914330 0.914568
O O8 0.889489 0.735095 0.916459
O O9 0.055957 0.784321 0.892261
O O10 0.989036 0.818235 0.000000
O O11 0.715226 0.715226 0.111646
O O12 0.818278 0.564608 0.079629
O O13 0.265826 0.265826 0.625282
O O14 0.115288 0.360769 0.603234
O O15 0.067600 0.295289 0.500000
#
# Coordination Sequence:
#
# PCOD9569784 Si02
#       6
#     8  16  16  16  16  16
#     4   9  18  34  54  82 125 167 197 231 285 361
#     4  11  22  41  65  89 119 160 207 259 316 366
#     4  10  23  42  64  93 127 164 208 260 318 377
#     4  11  22  40  64  89 123 163 207 256 310 372
#     4  12  24  41  65  91 125 166 211 261 312 373
#     4  11  22  36  59  93 127 161 200 246 307 373
#
# _framework density 19.405961999999999
#
# number of rings (size 3 to 8) (size 9 to 14) (size 15 to 20)
#    0.000    1.182    4.545    2.182    0.000    4.000 
#    0.000    2.727    2.000    0.000    0.000    0.000 
#    0.000    0.000    0.000    0.000    0.000    0.000 
#
# Total GULP energy -491645.214078 kJ/mol
# GULP energy per Si atom -5586.877433 kJ/mol
# Density = 1.936179 g / cm^3
# Si number density = 19.405962 Si / 1000 Ang^3
#
#
#
# Elastic Constant Matrix: (Units=GPa)
#
#
# Indices 1 2 3 4 5 6 
#
# 1 61.2130 3.1471 -7.3453 0.0000 0.0000 0.0000
# 2 3.1471 61.2130 -7.3453 0.0000 0.0000 0.0000
# 3 -7.3453 -7.3453 44.2453 0.0000 0.0000 0.0000
# 4 0.0000 0.0000 0.0000 18.5192 0.0000 0.0000
# 5 0.0000 0.0000 0.0000 0.0000 18.5192 0.0000
# 6 0.0000 0.0000 0.0000 0.0000 0.0000 28.2632
#
#
#
# Elastic Compliance Matrix: (Units=1/GPa)
#
#
# Indices 1 2 3 4 5 6 
#
# 1 0.016686 -0.000536 0.002681 0.000000 0.000000 0.000000
# 2 -0.000536 0.016686 0.002681 0.000000 0.000000 0.000000
# 3 0.002681 0.002681 0.023491 0.000000 0.000000 0.000000
# 4 0.000000 0.000000 0.000000 0.053998 0.000000 0.000000
# 5 0.000000 0.000000 0.000000 0.000000 0.053998 0.000000
# 6 0.000000 0.000000 0.000000 0.000000 0.000000 0.035382
#
#
# Mechanical properties :
#
#
# Convention : Reuss Voigt Hill
#
# Bulk Modulus (GPa) = 15.03429 15.95382 15.49406
# Shear Modulus (GPa) = 23.50064 24.94130 24.22097
#
# Velocity S-wave (km/s) = 3.48372 3.58891 3.53671
# Velocity P-wave (km/s) = 4.89344 5.04110 4.96782
#
# Compressibility (1/GPa) = 0.06651462
#
# Stress axis : x y z
#
# Youngs Moduli (GPa) = 59.93168 59.93168 42.56866
#
# Poissons Ratio (x) = 0.03213 -0.11413
# Poissons Ratio (y) = 0.03213 -0.11413
# Poissons Ratio (z) = -0.16068 -0.16068
#
# Static dielectric constant tensor:
#      x y z
#    x 1.685610 0.000000 0.000000 
#    y 0.000000 1.685610 0.000000 
#    z 0.000000 0.000000 1.640130 
# 
# From -- ./inp_files/7380.got.cif
#   From: 2010.05.17/outbox.cif.g08.bks.cpg/sg136_4_cif.got.tgz:7380.got - 2010.05.20 12:54:53.
