data_PCOD9569374
_publ_section_title
;
Structure prediction by ZEFSAII (Michael W. Deem and Ramdas Pophale) SiO2 
 PCOD9569374
Probable space group: P 42/M N M
;
_chemical_formula_sum "Si O2"
_cell_formula_units_Z 96
_cell_length_a 16.373836
_cell_length_b 16.373836
_cell_length_c 20.243162
_cell_angle_alpha 90.000000
_cell_angle_beta 90.000000
_cell_angle_gamma 90.000000
_cell_volume 5427.242449
_symmetry_space_group_name_H-M "P 42/M N M"
_symmetry_group_IT_number 136
_symmetry_cell_setting 'tetragonal'
loop_
_space_group_symop_operation_xyz
x,y,z
1/2-y,1/2+x,1/2+z
-x,-y,z
1/2+y,1/2-x,1/2+z
1/2+x,1/2-y,1/2-z
1/2-x,1/2+y,1/2-z
y,x,-z
-y,-x,-z
-x,-y,-z
1/2+y,1/2-x,1/2-z
x,y,-z
1/2-y,1/2+x,1/2-z
1/2-x,1/2+y,1/2+z
1/2+x,1/2-y,1/2+z
-y,-x,z
y,x,z
loop_
_atom_site_type_symbol
_atom_site_label
_atom_site_fract_x
_atom_site_fract_y
_atom_site_fract_z
Si Si1 0.568352 0.937245 0.629566
Si Si2 0.207968 0.078373 0.801759
Si Si3 0.948978 0.692884 0.926148
Si Si4 0.692568 0.562039 0.200813
Si Si5 0.693746 0.067462 0.424874
Si Si6 0.321561 0.189843 0.715151
O O1 0.514469 0.879268 0.583197
O O2 0.624911 0.876322 0.673662
O O3 0.500000 0.000000 0.662079
O O4 0.629753 0.995029 0.589919
O O5 0.131310 0.131310 0.823140
O O6 0.245483 0.036201 0.866150
O O7 0.276106 0.138071 0.771398
O O8 0.185026 0.021568 0.740315
O O9 0.859888 0.650392 0.918339
O O10 0.954467 0.727277 0.000000
O O11 0.607274 0.607274 0.193758
O O12 0.737439 0.559407 0.130528
O O13 0.750345 0.615910 0.248512
O O14 0.723917 0.062956 0.500000
O O15 0.249847 0.249847 0.684372
#
# Coordination Sequence:
#
# PCOD9569374 Si02
#       6
#    16  16  16  16  16  16
#     4  10  19  34  58  85 119 152 187 225 284 353
#     4  11  22  37  57  81 109 146 191 235 280 333
#     4  10  20  34  54  85 121 150 179 224 282 342
#     4  11  22  37  57  81 109 146 191 235 280 333
#     4  10  20  34  54  85 121 150 179 224 282 342
#     4  10  20  35  56  85 115 144 184 238 289 339
#
# _framework density 17.68854
#
# number of rings (size 3 to 8) (size 9 to 14) (size 15 to 20)
#    0.000    1.667    5.000    0.500    0.000    3.000 
#    3.000    1.667    0.000    5.000    0.000    2.333 
#    0.000    0.000    0.000    0.000    0.000    0.000 
#
# Total GULP energy -534734.469799 kJ/mol
# GULP energy per Si atom -5570.150727 kJ/mol
# Density = 1.764828 g / cm^3
# Si number density = 17.688540 Si / 1000 Ang^3
#
#
#
# Elastic Constant Matrix: (Units=GPa)
#
#
# Indices 1 2 3 4 5 6 
#
# 1 21.0969 22.0812 16.0254 0.0000 0.0000 0.0000
# 2 22.0812 21.0969 16.0254 0.0000 0.0000 0.0000
# 3 16.0254 16.0254 96.7115 0.0000 0.0000 0.0000
# 4 0.0000 0.0000 0.0000 -0.1624 0.0000 0.0000
# 5 0.0000 0.0000 0.0000 0.0000 -0.1624 0.0000
# 6 0.0000 0.0000 0.0000 0.0000 0.0000 30.0036
#
#
#
# Elastic Compliance Matrix: (Units=1/GPa)
#
#
# Indices 1 2 3 4 5 6 
#
# 1 -0.494798 0.521206 -0.004376 0.000000 0.000000 0.000000
# 2 0.521206 -0.494798 -0.004376 0.000000 0.000000 0.000000
# 3 -0.004376 -0.004376 0.011790 0.000000 0.000000 0.000000
# 4 0.000000 0.000000 0.000000 -6.156606 0.000000 0.000000
# 5 0.000000 0.000000 0.000000 0.000000 -6.156606 0.000000
# 6 0.000000 0.000000 0.000000 0.000000 0.000000 0.033329
#
#
# Mechanical properties :
#
#
# Convention : Reuss Voigt Hill
#
# Bulk Modulus (GPa) = 21.23017 27.46327 24.34672
# Shear Modulus (GPa) = -0.35046 11.58731 5.61843
#
# Velocity S-wave (km/s) = -0.44560 2.56222 1.78415
# Velocity P-wave (km/s) = 3.42980 4.93082 4.24715
#
# Compressibility (1/GPa) = 0.04710278
#
# Stress axis : x y z
#
# Youngs Moduli (GPa) = -2.02103 -2.02103 84.81590
#
# Poissons Ratio (x) = 1.05337 0.37115
# Poissons Ratio (y) = 1.05337 0.37115
# Poissons Ratio (z) = -0.00884 -0.00884
#
# Static dielectric constant tensor:
#      x y z
#    x 1.624040 0.000000 0.000000 
#    y 0.000000 1.624040 0.000000 
#    z 0.000000 0.000000 1.591500 
# 
# From -- ./inp_files/6321.got.cif
#   From: 2010.05.17/outbox.cif.g08.bks.cpg/sg136_4_cif.got.tgz:6321.got - 2010.05.20 12:54:53.
