data_PCOD9569392
_publ_section_title
;
Structure prediction by ZEFSAII (Michael W. Deem and Ramdas Pophale) SiO2 
 PCOD9569392
Probable space group: P 42/M N M
;
_chemical_formula_sum "Si O2"
_cell_formula_units_Z 80
_cell_length_a 11.730034
_cell_length_b 11.730034
_cell_length_c 29.381985
_cell_angle_alpha 90.000000
_cell_angle_beta 90.000000
_cell_angle_gamma 90.000000
_cell_volume 4042.775960
_symmetry_space_group_name_H-M "P 42/M N M"
_symmetry_group_IT_number 136
_symmetry_cell_setting 'tetragonal'
loop_
_space_group_symop_operation_xyz
x,y,z
1/2-y,1/2+x,1/2+z
-x,-y,z
1/2+y,1/2-x,1/2+z
1/2+x,1/2-y,1/2-z
1/2-x,1/2+y,1/2-z
y,x,-z
-y,-x,-z
-x,-y,-z
1/2+y,1/2-x,1/2-z
x,y,-z
1/2-y,1/2+x,1/2-z
1/2-x,1/2+y,1/2+z
1/2+x,1/2-y,1/2+z
-y,-x,z
y,x,z
loop_
_atom_site_type_symbol
_atom_site_label
_atom_site_fract_x
_atom_site_fract_y
_atom_site_fract_z
Si Si1 0.696202 0.876555 0.292143
Si Si2 0.968854 0.366103 0.551708
Si Si3 0.949652 0.681159 0.812889
Si Si4 0.198794 0.198794 0.950428
Si Si5 0.448393 0.257445 0.138811
Si Si6 0.408368 0.591633 0.361324
O O1 0.752560 0.752560 0.293849
O O2 0.571289 0.879704 0.314320
O O3 0.684211 0.911899 0.239691
O O4 0.774683 0.962733 0.320492
O O5 0.009894 0.342044 0.500000
O O6 0.833288 0.334073 0.551631
O O7 0.010430 0.285510 0.592799
O O8 0.000000 0.500000 0.560479
O O9 0.849827 0.625823 0.842833
O O10 0.962137 0.807955 0.831508
O O11 0.142209 0.142209 0.907352
O O12 0.157971 0.157971 0.000000
O O13 0.364006 0.364006 0.131388
O O14 0.500000 0.500000 0.373646
#
# Coordination Sequence:
#
# PCOD9569392 Si02
#       6
#    16  16  16   8  16   8
#     4  12  26  40  60  89 123 162 207 254 309 366
#     4  10  19  35  63  93 120 155 203 260 312 369
#     4  12  22  41  60  88 118 161 207 249 303 366
#     4  10  20  37  60  92 126 155 200 257 317 382
#     4  12  23  40  65  90 123 161 205 256 307 369
#     4  12  24  39  60  86 128 164 199 250 309 378
#
# _framework density 19.788383
#
# number of rings (size 3 to 8) (size 9 to 14) (size 15 to 20)
#    0.000    0.600    7.000    2.400    0.000    1.400 
#    0.000    0.000    0.000    0.600    0.000    1.400 
#    0.000    0.000    0.000    0.000    0.000    0.000 
#
# Total GULP energy -446583.234337 kJ/mol
# GULP energy per Si atom -5582.290429 kJ/mol
# Density = 1.974334 g / cm^3
# Si number density = 19.788383 Si / 1000 Ang^3
#
#
#
# Elastic Constant Matrix: (Units=GPa)
#
#
# Indices 1 2 3 4 5 6 
#
# 1 56.6931 13.0749 6.5742 0.0000 0.0000 0.0000
# 2 13.0749 56.6931 6.5742 0.0000 0.0000 0.0000
# 3 6.5742 6.5742 109.9877 0.0000 0.0000 0.0000
# 4 0.0000 0.0000 0.0000 14.0640 0.0000 0.0000
# 5 0.0000 0.0000 0.0000 0.0000 14.0640 0.0000
# 6 0.0000 0.0000 0.0000 0.0000 0.0000 39.8600
#
#
#
# Elastic Compliance Matrix: (Units=1/GPa)
#
#
# Indices 1 2 3 4 5 6 
#
# 1 0.018711 -0.004215 -0.000866 0.000000 0.000000 0.000000
# 2 -0.004215 0.018711 -0.000866 0.000000 0.000000 0.000000
# 3 -0.000866 -0.000866 0.009196 0.000000 0.000000 0.000000
# 4 0.000000 0.000000 0.000000 0.071104 0.000000 0.000000
# 5 0.000000 0.000000 0.000000 0.000000 0.071104 0.000000
# 6 0.000000 0.000000 0.000000 0.000000 0.000000 0.025088
#
#
# Mechanical properties :
#
#
# Convention : Reuss Voigt Hill
#
# Bulk Modulus (GPa) = 28.79969 30.64672 29.72321
# Shear Modulus (GPa) = 21.06300 26.74097 23.90198
#
# Velocity S-wave (km/s) = 3.26607 3.68006 3.47923
# Velocity P-wave (km/s) = 5.36735 5.79465 5.58508
#
# Compressibility (1/GPa) = 0.03472259
#
# Stress axis : x y z
#
# Youngs Moduli (GPa) = 53.44348 53.44348 108.74874
#
# Poissons Ratio (x) = 0.22526 0.09423
# Poissons Ratio (y) = 0.22526 0.09423
# Poissons Ratio (z) = 0.04631 0.04631
#
# Static dielectric constant tensor:
#      x y z
#    x 1.720750 0.000000 0.000000 
#    y 0.000000 1.720750 0.000000 
#    z 0.000000 0.000000 1.714830 
# 
# From -- ./inp_files/9596.got.cif
#   From: 2010.05.17/outbox.cif.g08.bks.cpg/sg136_5_cif.got.tgz:9596.got - 2010.05.20 12:54:53.
