data_PCOD9569530
_publ_section_title
;
Structure prediction by ZEFSAII (Michael W. Deem and Ramdas Pophale) SiO2 
 PCOD9569530
Probable space group: P 42/M N M
;
_chemical_formula_sum "Si O2"
_cell_formula_units_Z 112
_cell_length_a 13.737401
_cell_length_b 13.737401
_cell_length_c 33.288005
_cell_angle_alpha 90.000000
_cell_angle_beta 90.000000
_cell_angle_gamma 90.000000
_cell_volume 6281.985351
_symmetry_space_group_name_H-M "P 42/M N M"
_symmetry_group_IT_number 136
_symmetry_cell_setting 'tetragonal'
loop_
_space_group_symop_operation_xyz
x,y,z
1/2-y,1/2+x,1/2+z
-x,-y,z
1/2+y,1/2-x,1/2+z
1/2+x,1/2-y,1/2-z
1/2-x,1/2+y,1/2-z
y,x,-z
-y,-x,-z
-x,-y,-z
1/2+y,1/2-x,1/2-z
x,y,-z
1/2-y,1/2+x,1/2-z
1/2-x,1/2+y,1/2+z
1/2+x,1/2-y,1/2+z
-y,-x,z
y,x,z
loop_
_atom_site_type_symbol
_atom_site_label
_atom_site_fract_x
_atom_site_fract_y
_atom_site_fract_z
Si Si1 0.377016 0.216523 0.159907
Si Si2 0.539689 0.110783 0.883979
Si Si3 0.191948 0.346528 0.546356
Si Si4 0.278486 0.876631 0.828905
Si Si5 0.568524 0.279560 0.367535
Si Si6 0.055511 0.654300 0.254249
Si Si7 0.953633 0.799650 0.044153
O O1 0.315990 0.315990 0.154648
O O2 0.454333 0.187459 0.125495
O O3 0.297799 0.129367 0.157829
O O4 0.427116 0.207137 0.203398
O O5 0.604670 0.130176 0.923369
O O6 0.613205 0.120068 0.846468
O O7 0.500000 0.000000 0.884971
O O8 0.158815 0.339737 0.500000
O O9 0.248048 0.248048 0.557784
O O10 0.273080 0.432881 0.546702
O O11 0.226143 0.773858 0.833206
O O12 0.280381 0.910585 0.783010
O O13 0.223488 0.957060 0.855604
O O14 0.615833 0.384168 0.360958
O O15 0.585044 0.253603 0.414556
O O16 0.119740 0.555363 0.252245
O O17 0.909980 0.909980 0.045320
O O18 0.922189 0.761622 0.000000
#
# Coordination Sequence:
#
# PCOD9569530 Si02
#       7
#    16  16  16  16  16  16  16
#     4  11  22  38  60  84 114 153 195 241 296 345
#     4  12  21  38  59  87 117 150 198 245 289 352
#     4  10  21  36  56  85 119 155 198 248 297 346
#     4  12  23  36  58  87 115 155 197 239 289 344
#     4  10  20  35  55  83 118 156 193 233 286 353
#     4  11  20  36  60  87 116 149 193 242 287 343
#     4   9  17  30  50  79 118 160 195 231 282 345
#
# _framework density 17.828759000000002
#
# number of rings (size 3 to 8) (size 9 to 14) (size 15 to 20)
#    0.000    1.286    5.714    0.857    0.000    0.857 
#    0.000    3.571    0.000    3.000    0.000    1.000 
#    0.000    0.000    0.000    0.000    0.000    0.000 
#
# Total GULP energy -624011.844977 kJ/mol
# GULP energy per Si atom -5571.534330 kJ/mol
# Density = 1.778818 g / cm^3
# Si number density = 17.828759 Si / 1000 Ang^3
#
#
#
# Elastic Constant Matrix: (Units=GPa)
#
#
# Indices 1 2 3 4 5 6 
#
# 1 65.6032 57.7968 37.6390 0.0000 0.0000 0.0000
# 2 57.7968 65.6032 37.6390 0.0000 0.0000 0.0000
# 3 37.6390 37.6390 113.6402 0.0000 0.0000 0.0000
# 4 0.0000 0.0000 0.0000 19.9331 0.0000 0.0000
# 5 0.0000 0.0000 0.0000 0.0000 19.9331 0.0000
# 6 0.0000 0.0000 0.0000 0.0000 0.0000 31.1384
#
#
#
# Elastic Compliance Matrix: (Units=1/GPa)
#
#
# Indices 1 2 3 4 5 6 
#
# 1 0.069128 -0.058972 -0.003364 0.000000 0.000000 0.000000
# 2 -0.058972 0.069128 -0.003364 0.000000 0.000000 0.000000
# 3 -0.003364 -0.003364 0.011028 0.000000 0.000000 0.000000
# 4 0.000000 0.000000 0.000000 0.050168 0.000000 0.000000
# 5 0.000000 0.000000 0.000000 0.000000 0.050168 0.000000
# 6 0.000000 0.000000 0.000000 0.000000 0.000000 0.032115
#
#
# Mechanical properties :
#
#
# Convention : Reuss Voigt Hill
#
# Bulk Modulus (GPa) = 55.91427 56.77734 56.34581
# Shear Modulus (GPa) = 11.93046 21.65237 16.79141
#
# Velocity S-wave (km/s) = 2.58964 3.48870 3.07223
# Velocity P-wave (km/s) = 6.35386 6.93852 6.65262
#
# Compressibility (1/GPa) = 0.01788452
#
# Stress axis : x y z
#
# Youngs Moduli (GPa) = 14.46590 14.46590 90.67927
#
# Poissons Ratio (x) = 0.85309 0.30502
# Poissons Ratio (y) = 0.85309 0.30502
# Poissons Ratio (z) = 0.04866 0.04866
#
# Static dielectric constant tensor:
#      x y z
#    x 1.612100 0.000000 0.000000 
#    y 0.000000 1.612100 0.000000 
#    z 0.000000 0.000000 1.638120 
# 
# From -- ./inp_files/9960.got.cif
#   From: 2010.05.17/outbox.cif.g08.bks.cpg/sg136_5_cif.got.tgz:9960.got - 2010.05.20 12:54:53.
