data_PCOD9569548
_publ_section_title
;
Structure prediction by ZEFSAII (Michael W. Deem and Ramdas Pophale) SiO2 
 PCOD9569548
Probable space group: P 42/M N M
;
_chemical_formula_sum "Si O2"
_cell_formula_units_Z 84
_cell_length_a 14.298202
_cell_length_b 14.298202
_cell_length_c 25.009978
_cell_angle_alpha 90.000000
_cell_angle_beta 90.000000
_cell_angle_gamma 90.000000
_cell_volume 5113.004399
_symmetry_space_group_name_H-M "P 42/M N M"
_symmetry_group_IT_number 136
_symmetry_cell_setting 'tetragonal'
loop_
_space_group_symop_operation_xyz
x,y,z
1/2-y,1/2+x,1/2+z
-x,-y,z
1/2+y,1/2-x,1/2+z
1/2+x,1/2-y,1/2-z
1/2-x,1/2+y,1/2-z
y,x,-z
-y,-x,-z
-x,-y,-z
1/2+y,1/2-x,1/2-z
x,y,-z
1/2-y,1/2+x,1/2-z
1/2-x,1/2+y,1/2+z
1/2+x,1/2-y,1/2+z
-y,-x,z
y,x,z
loop_
_atom_site_type_symbol
_atom_site_label
_atom_site_fract_x
_atom_site_fract_y
_atom_site_fract_z
Si Si1 0.501373 0.274670 0.847061
Si Si2 0.505491 0.109592 0.436365
Si Si3 0.311752 0.159631 0.141695
Si Si4 0.860003 0.707030 0.437510
Si Si5 0.500000 0.500000 0.165180
Si Si6 0.053920 0.354488 0.750870
O O1 0.398080 0.232119 0.854709
O O2 0.561683 0.251100 0.899657
O O3 0.500012 0.384241 0.836348
O O4 0.546747 0.217234 0.797881
O O5 0.523771 0.112379 0.500000
O O6 0.585311 0.162075 0.403929
O O7 0.402611 0.150476 0.425721
O O8 0.500000 0.000000 0.420083
O O9 0.217528 0.217528 0.132528
O O10 0.310804 0.103871 0.197711
O O11 0.888011 0.714626 0.500000
O O12 0.765309 0.765309 0.430164
O O13 0.110554 0.448762 0.735531
#
# Coordination Sequence:
#
# PCOD9569548 Si02
#       6
#    16  16  16  16   4  16
#     4  11  21  37  55  78 115 151 186 221 278 340
#     4  10  20  35  59  84 110 145 187 235 277 326
#     4  11  22  35  55  84 113 141 185 237 285 334
#     4  10  20  35  58  84 110 146 190 230 270 330
#     4  12  24  36  53  80 120 164 177 208 280 356
#     4   9  20  36  59  81 101 142 191 242 281 318
#
# _framework density 16.428697
#
# number of rings (size 3 to 8) (size 9 to 14) (size 15 to 20)
#    0.000    1.714    3.810    1.143    4.000    0.381 
#    0.000    0.952    2.095    0.571    0.000    2.667 
#    0.000    0.000    0.000    0.000    0.000    0.000 
#
# Total GULP energy -467758.211662 kJ/mol
# GULP energy per Si atom -5568.550139 kJ/mol
# Density = 1.639131 g / cm^3
# Si number density = 16.428697 Si / 1000 Ang^3
#
#
#
# Elastic Constant Matrix: (Units=GPa)
#
#
# Indices 1 2 3 4 5 6 
#
# 1 130.2159 63.5176 65.2386 0.0000 0.0000 0.0000
# 2 63.5176 130.2159 65.2386 0.0000 0.0000 0.0000
# 3 65.2386 65.2386 69.6700 0.0000 0.0000 0.0000
# 4 0.0000 0.0000 0.0000 9.9392 0.0000 0.0000
# 5 0.0000 0.0000 0.0000 0.0000 9.9392 0.0000
# 6 0.0000 0.0000 0.0000 0.0000 0.0000 29.4170
#
#
#
# Elastic Compliance Matrix: (Units=1/GPa)
#
#
# Indices 1 2 3 4 5 6 
#
# 1 0.014484 -0.000509 -0.013086 0.000000 0.000000 0.000000
# 2 -0.000509 0.014484 -0.013086 0.000000 0.000000 0.000000
# 3 -0.013086 -0.013086 0.038861 0.000000 0.000000 0.000000
# 4 0.000000 0.000000 0.000000 0.100612 0.000000 0.000000
# 5 0.000000 0.000000 0.000000 0.000000 0.100612 0.000000
# 6 0.000000 0.000000 0.000000 0.000000 0.000000 0.033994
#
#
# Mechanical properties :
#
#
# Convention : Reuss Voigt Hill
#
# Bulk Modulus (GPa) = 69.12542 79.78793 74.45668
# Shear Modulus (GPa) = 13.84150 18.93287 16.38719
#
# Velocity S-wave (km/s) = 2.90577 3.39842 3.16171
# Velocity P-wave (km/s) = 7.30926 8.00442 7.66473
#
# Compressibility (1/GPa) = 0.01446646
#
# Stress axis : x y z
#
# Youngs Moduli (GPa) = 69.04159 69.04159 25.73262
#
# Poissons Ratio (x) = 0.03513 0.33674
# Poissons Ratio (y) = 0.03513 0.33674
# Poissons Ratio (z) = 0.90350 0.90350
#
# Static dielectric constant tensor:
#      x y z
#    x 1.537130 0.000000 0.000000 
#    y 0.000000 1.537130 0.000000 
#    z 0.000000 0.000000 1.551840 
# 
# From -- ./inp_files/8324.got.cif
#   From: 2010.05.17/outbox.cif.g08.bks.cpg/sg136_5_cif.got.tgz:8324.got - 2010.05.20 12:54:53.
