data_PCOD9569466
_publ_section_title
;
Structure prediction by ZEFSAII (Michael W. Deem and Ramdas Pophale) SiO2 
 PCOD9569466
Probable space group: P 42/M N M
;
_chemical_formula_sum "Si O2"
_cell_formula_units_Z 74
_cell_length_a 19.318901
_cell_length_b 19.318901
_cell_length_c 12.118816
_cell_angle_alpha 90.000000
_cell_angle_beta 90.000000
_cell_angle_gamma 90.000000
_cell_volume 4522.983730
_symmetry_space_group_name_H-M "P 42/M N M"
_symmetry_group_IT_number 136
_symmetry_cell_setting 'tetragonal'
loop_
_space_group_symop_operation_xyz
x,y,z
1/2-y,1/2+x,1/2+z
-x,-y,z
1/2+y,1/2-x,1/2+z
1/2+x,1/2-y,1/2-z
1/2-x,1/2+y,1/2-z
y,x,-z
-y,-x,-z
-x,-y,-z
1/2+y,1/2-x,1/2-z
x,y,-z
1/2-y,1/2+x,1/2-z
1/2-x,1/2+y,1/2+z
1/2+x,1/2-y,1/2+z
-y,-x,z
y,x,z
loop_
_atom_site_type_symbol
_atom_site_label
_atom_site_fract_x
_atom_site_fract_y
_atom_site_fract_z
Si Si1 0.053541 0.946460 0.732437
Si Si2 0.718514 0.836442 0.000000
Si Si3 0.724517 0.606696 0.000000
Si Si4 0.787985 0.029029 0.270090
Si Si5 0.768303 0.652171 0.368388
Si Si6 0.253607 0.628960 0.741771
Si Si7 0.000000 0.000000 0.500000
O O1 0.035145 0.868439 0.762803
O O2 0.041806 0.958195 0.600011
O O3 0.000000 0.000000 0.786017
O O4 0.645454 0.798020 0.000000
O O5 0.730675 0.875130 0.114092
O O6 0.775390 0.775390 0.000000
O O7 0.718015 0.562670 0.890236
O O8 0.665521 0.665521 0.000000
O O9 0.744276 0.077868 0.187598
O O10 0.767367 0.949057 0.277930
O O11 0.778073 0.647599 0.500000
O O12 0.699914 0.699914 0.347193
O O13 0.830665 0.694626 0.310895
O O14 0.322293 0.677708 0.750218
#
# Coordination Sequence:
#
# PCOD9569466 Si02
#       7
#     8   8   8  16  16  16   2
#     4  10  20  34  49  85 122 154 185 223 283 353
#     4   9  18  37  60  76 111 145 198 250 272 328
#     4  11  19  34  60  89 105 148 203 240 278 336
#     4  12  21  35  59  83 117 152 191 232 289 346
#     4  10  21  39  57  80 113 153 197 236 282 342
#     4  10  22  38  55  86 116 149 187 239 289 337
#     4   8  20  36  48  80 126 152 180 224 288 332
#
# _framework density 16.360883000000001
#
# number of rings (size 3 to 8) (size 9 to 14) (size 15 to 20)
#    0.324    1.297    4.324    1.297    3.027    0.000 
#    0.000    0.000    0.000    1.297    0.000    3.027 
#    0.000    0.000    0.000    0.000    0.000    0.000 
#
# Total GULP energy -412145.527225 kJ/mol
# GULP energy per Si atom -5569.534152 kJ/mol
# Density = 1.632364 g / cm^3
# Si number density = 16.360883 Si / 1000 Ang^3
#
#
#
# Elastic Constant Matrix: (Units=GPa)
#
#
# Indices 1 2 3 4 5 6 
#
# 1 83.6184 48.0191 27.4896 0.0000 0.0000 0.0000
# 2 48.0191 83.6184 27.4896 0.0000 0.0000 0.0000
# 3 27.4896 27.4896 83.6797 0.0000 0.0000 0.0000
# 4 0.0000 0.0000 0.0000 3.9869 0.0000 0.0000
# 5 0.0000 0.0000 0.0000 0.0000 3.9869 0.0000
# 6 0.0000 0.0000 0.0000 0.0000 0.0000 23.2264
#
#
#
# Elastic Compliance Matrix: (Units=1/GPa)
#
#
# Indices 1 2 3 4 5 6 
#
# 1 0.018448 -0.009643 -0.002892 0.000000 0.000000 0.000000
# 2 -0.009643 0.018448 -0.002892 0.000000 0.000000 0.000000
# 3 -0.002892 -0.002892 0.013851 0.000000 0.000000 0.000000
# 4 0.000000 0.000000 0.000000 0.250818 0.000000 0.000000
# 5 0.000000 0.000000 0.000000 0.000000 0.250818 0.000000
# 6 0.000000 0.000000 0.000000 0.000000 0.000000 0.043054
#
#
# Mechanical properties :
#
#
# Convention : Reuss Voigt Hill
#
# Bulk Modulus (GPa) = 50.27562 50.76811 50.52187
# Shear Modulus (GPa) = 7.89986 16.10129 12.00058
#
# Velocity S-wave (km/s) = 2.19977 3.14049 2.71124
# Velocity P-wave (km/s) = 6.10310 6.65190 6.38340
#
# Compressibility (1/GPa) = 0.01989036
#
# Stress axis : x y z
#
# Youngs Moduli (GPa) = 54.20779 54.20779 72.19852
#
# Poissons Ratio (x) = 0.52272 0.20883
# Poissons Ratio (y) = 0.52272 0.20883
# Poissons Ratio (z) = 0.15679 0.15679
#
# Static dielectric constant tensor:
#      x y z
#    x 1.545230 0.000000 0.000000 
#    y 0.000000 1.545230 0.000000 
#    z 0.000000 0.000000 1.556310 
# 
# From -- ./inp_files/3675.got.cif
#   From: 2010.05.17/outbox.cif.g08.bks.cpg/sg136_2_cif.got.tgz:3675.got - 2010.05.20 12:54:53.
