data_PCOD9569969
_publ_section_title
;
Structure prediction by ZEFSAII (Michael W. Deem and Ramdas Pophale) SiO2 
 PCOD9569969
Probable space group: P 42/N M C
;
_chemical_formula_sum "Si O2"
_cell_formula_units_Z 64
_cell_length_a 15.433277
_cell_length_b 15.433277
_cell_length_c 11.086495
_cell_angle_alpha 90.000000
_cell_angle_beta 90.000000
_cell_angle_gamma 90.000000
_cell_volume 2640.648330
_symmetry_space_group_name_H-M "P 42/N M C"
_symmetry_group_IT_number 137
_space_group.IT_coordinate_system_code '2'
_symmetry_cell_setting 'tetragonal'
loop_
_space_group_symop_operation_xyz
x,y,z
1/2-y,x,1/2+z
1/2-x,1/2-y,z
y,1/2-x,1/2+z
1/2+x,-y,-z
-x,1/2+y,-z
1/2+y,1/2+x,1/2-z
-y,-x,1/2-z
-x,-y,-z
1/2+y,-x,1/2-z
1/2+x,1/2+y,-z
-y,1/2+x,1/2-z
1/2-x,y,z
x,1/2-y,z
1/2-y,1/2-x,1/2+z
y,x,1/2+z
loop_
_atom_site_type_symbol
_atom_site_label
_atom_site_fract_x
_atom_site_fract_y
_atom_site_fract_z
Si Si1 0.459945 0.750000 0.069521
Si Si2 0.932047 0.892662 0.401450
Si Si3 0.250000 0.154126 0.489715
Si Si4 0.921778 0.075049 0.407324
Si Si5 0.250000 0.937638 0.174959
Si Si6 0.250000 0.852935 0.912645
O O1 0.564940 0.750000 0.087645
O O2 0.439409 0.838476 0.997843
O O3 0.402653 0.750000 0.190398
O O4 0.838627 0.853282 0.432413
O O5 0.997900 0.831620 0.332581
O O6 0.986280 0.913028 0.524313
O O7 0.920762 0.984765 0.337314
O O8 0.250000 0.250000 0.430648
O O9 0.898737 0.167524 0.355415
O O10 0.250000 0.879176 0.055526
O O11 0.250000 0.750000 0.898958
#
# Coordination Sequence:
#
# PCOD9569969 Si02
#       6
#     8  16   8  16   8   8
#     4  10  20  33  50  78 109 132 166 209 279 315
#     4   9  18  32  52  70  98 136 179 210 248 303
#     4  10  18  34  53  69  96 138 176 225 254 298
#     4   9  18  33  48  74 102 138 171 211 250 307
#     4  10  20  33  50  80 101 136 168 211 269 323
#     4  10  18  30  47  73 104 138 168 203 252 318
#
# _framework density 24.236474000000001
#
# number of rings (size 3 to 8) (size 9 to 14) (size 15 to 20)
#    0.000    2.500    2.500    0.000    0.000    4.000 
#    4.500    0.000    0.000    0.000    0.000    0.000 
#    0.000    0.000    0.000    8.750    0.000    0.000 
#
# Total GULP energy -357247.539906 kJ/mol
# GULP energy per Si atom -5581.992811 kJ/mol
# Density = 2.418131 g / cm^3
# Si number density = 24.236474 Si / 1000 Ang^3
#
#
#
# Elastic Constant Matrix: (Units=GPa)
#
#
# Indices 1 2 3 4 5 6 
#
# 1 164.7513 33.3636 0.2867 0.0000 0.0000 0.0000
# 2 33.3636 164.7513 0.2867 0.0000 0.0000 0.0000
# 3 0.2867 0.2867 53.9979 0.0000 0.0000 0.0000
# 4 0.0000 0.0000 0.0000 17.3003 0.0000 0.0000
# 5 0.0000 0.0000 0.0000 0.0000 17.3003 0.0000
# 6 0.0000 0.0000 0.0000 0.0000 0.0000 43.3825
#
#
#
# Elastic Compliance Matrix: (Units=1/GPa)
#
#
# Indices 1 2 3 4 5 6 
#
# 1 0.006329 -0.001282 -0.000027 0.000000 0.000000 0.000000
# 2 -0.001282 0.006329 -0.000027 0.000000 0.000000 0.000000
# 3 -0.000027 -0.000027 0.018520 0.000000 0.000000 0.000000
# 4 0.000000 0.000000 0.000000 0.057802 0.000000 0.000000
# 5 0.000000 0.000000 0.000000 0.000000 0.057802 0.000000
# 6 0.000000 0.000000 0.000000 0.000000 0.000000 0.023051
#
#
# Mechanical properties :
#
#
# Convention : Reuss Voigt Hill
#
# Bulk Modulus (GPa) = 35.07833 50.15274 42.61553
# Shear Modulus (GPa) = 27.47146 38.90087 33.18616
#
# Velocity S-wave (km/s) = 3.37037 4.01066 3.70437
# Velocity P-wave (km/s) = 5.44524 6.49501 5.99315
#
# Compressibility (1/GPa) = 0.02850763
#
# Stress axis : x y z
#
# Youngs Moduli (GPa) = 157.99394 157.99394 53.99705
#
# Poissons Ratio (x) = 0.20250 0.00145
# Poissons Ratio (y) = 0.20250 0.00145
# Poissons Ratio (z) = 0.00423 0.00423
#
# Static dielectric constant tensor:
#      x y z
#    x 1.960640 0.000000 0.000000 
#    y 0.000000 1.960640 0.000000 
#    z 0.000000 0.000000 1.989470 
# 
# From -- ./inp_files/6132.got.cif
#   From: 2010.05.17/outbox.cif.g08.bks.cpg/sg137_4_cif.got.tgz:6132.got - 2010.05.20 13:01:12.
