data_PCOD9569116
_publ_section_title
;
Structure prediction by ZEFSAII (Michael W. Deem and Ramdas Pophale) SiO2 
 PCOD9569116
Probable space group: P 42/M N M
;
_chemical_formula_sum "Si O2"
_cell_formula_units_Z 96
_cell_length_a 23.886002
_cell_length_b 23.886002
_cell_length_c 7.526257
_cell_angle_alpha 90.000000
_cell_angle_beta 90.000000
_cell_angle_gamma 90.000000
_cell_volume 4294.038884
_symmetry_space_group_name_H-M "P 42/M N M"
_symmetry_group_IT_number 136
_symmetry_cell_setting 'tetragonal'
loop_
_space_group_symop_operation_xyz
x,y,z
1/2-y,1/2+x,1/2+z
-x,-y,z
1/2+y,1/2-x,1/2+z
1/2+x,1/2-y,1/2-z
1/2-x,1/2+y,1/2-z
y,x,-z
-y,-x,-z
-x,-y,-z
1/2+y,1/2-x,1/2-z
x,y,-z
1/2-y,1/2+x,1/2-z
1/2-x,1/2+y,1/2+z
1/2+x,1/2-y,1/2+z
-y,-x,z
y,x,z
loop_
_atom_site_type_symbol
_atom_site_label
_atom_site_fract_x
_atom_site_fract_y
_atom_site_fract_z
Si Si1 0.044347 0.869311 0.282912
Si Si2 0.329978 0.877917 0.699562
Si Si3 0.851223 0.851223 0.783919
Si Si4 0.018395 0.742840 0.285886
Si Si5 0.442515 0.557486 0.795062
Si Si6 0.611340 0.228349 0.286950
Si Si7 0.940727 0.566762 0.703853
O O1 0.041998 0.868091 0.500000
O O2 0.104714 0.895287 0.234537
O O3 0.028034 0.806900 0.224635
O O4 0.997533 0.913340 0.218878
O O5 0.307371 0.868290 0.500000
O O6 0.345150 0.818185 0.785209
O O7 0.392314 0.902834 0.692675
O O8 0.293471 0.928430 0.780902
O O9 0.895331 0.895331 0.712414
O O10 0.789663 0.869984 0.726072
O O11 0.852976 0.852976 0.000000
O O12 0.021384 0.741590 0.500000
O O13 0.955488 0.721489 0.245219
O O14 0.455667 0.544334 0.000000
O O15 0.617472 0.226228 0.500000
O O16 0.943035 0.586165 0.500000
O O17 0.926983 0.501004 0.709372
#
# Coordination Sequence:
#
# PCOD9569116 Si02
#       7
#    16  16   8  16   8  16  16
#     4   9  17  30  51  82 113 140 172 219 277 330
#     4  10  21  36  52  77 108 141 183 227 271 322
#     4  10  20  35  55  79 108 146 186 223 269 322
#     4  10  20  35  56  81 108 140 182 230 274 323
#     4  10  17  30  56  84 110 138 176 224 273 325
#     4  10  21  37  56  77 108 146 183 225 272 326
#     4  11  21  34  53  77 105 138 175 222 275 327
#
# _framework density 22.356574999999999
#
# number of rings (size 3 to 8) (size 9 to 14) (size 15 to 20)
#    0.000    2.000    1.667    3.250    0.000    5.000 
#    1.500    0.000    0.000    2.500    0.000    0.000 
#    0.000    0.000    0.000    0.000    0.000    0.000 
#
# Total GULP energy -535742.106285 kJ/mol
# GULP energy per Si atom -5580.646940 kJ/mol
# Density = 2.230569 g / cm^3
# Si number density = 22.356575 Si / 1000 Ang^3
#
#
#
# Elastic Constant Matrix: (Units=GPa)
#
#
# Indices 1 2 3 4 5 6 
#
# 1 77.6485 95.7651 -1.1356 0.0000 0.0000 0.0000
# 2 95.7651 77.6479 -1.1358 0.0000 0.0000 0.0000
# 3 -1.1356 -1.1358 74.4170 0.0000 0.0000 0.0000
# 4 0.0000 0.0000 0.0000 13.4811 0.0000 0.0000
# 5 0.0000 0.0000 0.0000 0.0000 13.4810 0.0000
# 6 0.0000 0.0000 0.0000 0.0000 0.0000 44.7681
#
#
#
# Elastic Compliance Matrix: (Units=1/GPa)
#
#
# Indices 1 2 3 4 5 6 
#
# 1 -0.024715 0.030482 0.000088 0.000000 0.000000 0.000000
# 2 0.030482 -0.024715 0.000088 0.000000 0.000000 0.000000
# 3 0.000088 0.000088 0.013440 0.000000 0.000000 0.000000
# 4 0.000000 0.000000 0.000000 0.074178 0.000000 0.000000
# 5 0.000000 0.000000 0.000000 0.000000 0.074178 0.000000
# 6 0.000000 0.000000 0.000000 0.000000 0.000000 0.022337
#
#
# Mechanical properties :
#
#
# Convention : Reuss Voigt Hill
#
# Bulk Modulus (GPa) = 39.48197 46.30008 42.89103
# Shear Modulus (GPa) = 61.10154 23.42734 42.26444
#
# Velocity S-wave (km/s) = 5.23353 3.24063 4.35267
# Velocity P-wave (km/s) = 7.36330 5.89551 6.66990
#
# Compressibility (1/GPa) = 0.02532802
#
# Stress axis : x y z
#
# Youngs Moduli (GPa) = -40.46199 -40.46169 74.40212
#
# Poissons Ratio (x) = 1.23337 -0.00656
# Poissons Ratio (y) = 1.23338 -0.00654
# Poissons Ratio (z) = 0.00356 0.00356
#
# Static dielectric constant tensor:
#      x y z
#    x 1.827070 0.000000 0.000000 
#    y 0.000000 1.827070 0.000000 
#    z 0.000000 0.000000 1.882170 
# 
# From -- ./inp_files/2026.got.cif
#   From: 2010.05.17/outbox.cif.g08.bks.cpg/sg136_2_cif.got.tgz:2026.got - 2010.05.20 12:54:53.
