data_PCOD9569418
_publ_section_title
;
Structure prediction by ZEFSAII (Michael W. Deem and Ramdas Pophale) SiO2 
 PCOD9569418
Probable space group: P 42/M N M
;
_chemical_formula_sum "Si O2"
_cell_formula_units_Z 96
_cell_length_a 22.646272
_cell_length_b 22.646272
_cell_length_c 8.907650
_cell_angle_alpha 90.000000
_cell_angle_beta 90.000000
_cell_angle_gamma 90.000000
_cell_volume 4568.320686
_symmetry_space_group_name_H-M "P 42/M N M"
_symmetry_group_IT_number 136
_symmetry_cell_setting 'tetragonal'
loop_
_space_group_symop_operation_xyz
x,y,z
1/2-y,1/2+x,1/2+z
-x,-y,z
1/2+y,1/2-x,1/2+z
1/2+x,1/2-y,1/2-z
1/2-x,1/2+y,1/2-z
y,x,-z
-y,-x,-z
-x,-y,-z
1/2+y,1/2-x,1/2-z
x,y,-z
1/2-y,1/2+x,1/2-z
1/2-x,1/2+y,1/2+z
1/2+x,1/2-y,1/2+z
-y,-x,z
y,x,z
loop_
_atom_site_type_symbol
_atom_site_label
_atom_site_fract_x
_atom_site_fract_y
_atom_site_fract_z
Si Si1 0.434652 0.659672 0.179514
Si Si2 0.150220 0.730709 0.175331
Si Si3 0.160494 0.933965 0.819020
Si Si4 0.354088 0.760470 0.672148
Si Si5 0.455876 0.857957 0.335239
Si Si6 0.646166 0.065953 0.667524
O O1 0.403847 0.596154 0.213179
O O2 0.500524 0.666613 0.249021
O O3 0.387498 0.707955 0.240960
O O4 0.439043 0.665951 0.000000
O O5 0.114385 0.789287 0.227734
O O6 0.207995 0.703389 0.255959
O O7 0.101939 0.680480 0.207143
O O8 0.163221 0.738105 0.000000
O O9 0.097891 0.902110 0.785617
O O10 0.166141 0.939893 0.000000
O O11 0.343113 0.743709 0.500000
O O12 0.402890 0.811855 0.666384
O O13 0.485038 0.854656 0.500000
O O14 0.498424 0.843470 0.200802
O O15 0.423024 0.920161 0.320466
O O16 0.665697 0.083731 0.500000
#
# Coordination Sequence:
#
# PCOD9569418 Si02
#       6
#    16  16  16  16  16  16
#     4  11  25  43  64  93 128 166 210 262 318 373
#     4  10  20  36  60  89 122 158 196 246 307 367
#     4  10  23  43  66  93 126 166 211 260 317 380
#     4  10  21  38  61  90 122 158 202 249 301 366
#     4   9  19  33  47  69 103 141 185 240 298 355
#     4  10  20  32  48  72 103 143 193 245 297 359
#
# _framework density 21.014285999999998
#
# number of rings (size 3 to 8) (size 9 to 14) (size 15 to 20)
#    0.000    2.000    0.000    4.000    0.000   12.333 
#    0.000    5.000    0.000    0.000    0.000    0.000 
#    0.000    0.000    0.000    0.000    0.000    0.000 
#
# Total GULP energy -535069.147452 kJ/mol
# GULP energy per Si atom -5573.636953 kJ/mol
# Density = 2.096646 g / cm^3
# Si number density = 21.014286 Si / 1000 Ang^3
#
#
#
# Elastic Constant Matrix: (Units=GPa)
#
#
# Indices 1 2 3 4 5 6 
#
# 1 184.1937 3.5900 49.7397 0.0000 0.0000 0.0000
# 2 3.5900 184.1937 49.7397 0.0000 0.0000 0.0000
# 3 49.7397 49.7397 74.7263 0.0000 0.0000 0.0000
# 4 0.0000 0.0000 0.0000 -283.3089 0.0000 0.0000
# 5 0.0000 0.0000 0.0000 0.0000 -283.3089 0.0000
# 6 0.0000 0.0000 0.0000 0.0000 0.0000 22.2660
#
#
#
# Elastic Compliance Matrix: (Units=1/GPa)
#
#
# Indices 1 2 3 4 5 6 
#
# 1 0.006881 0.001344 -0.005475 0.000000 0.000000 0.000000
# 2 0.001344 0.006881 -0.005475 0.000000 0.000000 0.000000
# 3 -0.005475 -0.005475 0.020671 0.000000 0.000000 0.000000
# 4 0.000000 0.000000 0.000000 -0.003530 0.000000 0.000000
# 5 0.000000 0.000000 0.000000 0.000000 -0.003530 0.000000
# 6 0.000000 0.000000 0.000000 0.000000 0.000000 0.044911
#
#
# Mechanical properties :
#
#
# Convention : Reuss Voigt Hill
#
# Bulk Modulus (GPa) = 65.69619 72.13917 68.91768
# Shear Modulus (GPa) = 51.77460 -86.20072 -17.21306
#
# Velocity S-wave (km/s) = 4.96903 -6.41164 -2.86512
# Velocity P-wave (km/s) = 8.01575 4.51763 4.68205
#
# Compressibility (1/GPa) = 0.01522158
#
# Stress axis : x y z
#
# Youngs Moduli (GPa) = 145.31876 145.31876 48.37645
#
# Poissons Ratio (x) = -0.19537 0.26488
# Poissons Ratio (y) = -0.19537 0.26488
# Poissons Ratio (z) = 0.79567 0.79567
#
# Static dielectric constant tensor:
#      x y z
#    x 1.780500 0.000000 0.000000 
#    y 0.000000 1.780500 0.000000 
#    z 0.000000 0.000000 1.732000 
# 
# From -- ./inp_files/1951.got.cif
#   From: 2010.05.17/outbox.cif.g08.bks.cpg/sg136_1_cif.got.tgz:1951.got - 2010.05.20 12:54:53.
