data_PCOD9569665
_publ_section_title
;
Structure prediction by ZEFSAII (Michael W. Deem and Ramdas Pophale) SiO2 
 PCOD9569665
Probable space group: P 42/M N M
;
_chemical_formula_sum "Si O2"
_cell_formula_units_Z 72
_cell_length_a 19.931292
_cell_length_b 19.931292
_cell_length_c 7.615562
_cell_angle_alpha 90.000000
_cell_angle_beta 90.000000
_cell_angle_gamma 90.000000
_cell_volume 3025.330750
_symmetry_space_group_name_H-M "P 42/M N M"
_symmetry_group_IT_number 136
_symmetry_cell_setting 'tetragonal'
loop_
_space_group_symop_operation_xyz
x,y,z
1/2-y,1/2+x,1/2+z
-x,-y,z
1/2+y,1/2-x,1/2+z
1/2+x,1/2-y,1/2-z
1/2-x,1/2+y,1/2-z
y,x,-z
-y,-x,-z
-x,-y,-z
1/2+y,1/2-x,1/2-z
x,y,-z
1/2-y,1/2+x,1/2-z
1/2-x,1/2+y,1/2+z
1/2+x,1/2-y,1/2+z
-y,-x,z
y,x,z
loop_
_atom_site_type_symbol
_atom_site_label
_atom_site_fract_x
_atom_site_fract_y
_atom_site_fract_z
Si Si1 0.847790 0.702184 0.697942
Si Si2 0.033462 0.206015 0.289517
Si Si3 0.119808 0.777044 0.788598
Si Si4 0.945926 0.945926 0.714730
Si Si5 0.925759 0.576500 0.202445
O O1 0.832033 0.725508 0.500000
O O2 0.779445 0.672274 0.778801
O O3 0.891532 0.635094 0.693015
O O4 0.900369 0.755014 0.780665
O O5 0.041060 0.207558 0.500000
O O6 0.958311 0.233685 0.256227
O O7 0.035678 0.129170 0.228847
O O8 0.150792 0.849209 0.733921
O O9 0.122591 0.773357 0.000000
O O10 0.946174 0.946174 0.500000
O O11 0.000000 0.000000 0.774474
O O12 0.912398 0.505161 0.288441
O O13 0.903709 0.576169 0.000000
#
# Coordination Sequence:
#
# PCOD9569665 Si02
#       5
#    16  16  16   8  16
#     4  10  21  36  56  83 115 153 196 241 293 355
#     4  10  21  37  61  89 118 154 201 252 302 358
#     4  10  22  39  59  84 120 162 201 245 304 370
#     4   9  18  34  59  89 117 147 193 254 307 352
#     4  11  21  34  53  77 109 148 192 239 288 343
#
# _framework density 23.799049
#
# number of rings (size 3 to 8) (size 9 to 14) (size 15 to 20)
#    0.000    1.889    0.000    4.667    1.556    6.667 
#    0.000    0.556    0.000    2.000    0.000    0.000 
#    0.000    0.000    0.000    0.000    0.000    0.000 
#
# Total GULP energy -402031.292003 kJ/mol
# GULP energy per Si atom -5583.767944 kJ/mol
# Density = 2.374488 g / cm^3
# Si number density = 23.799049 Si / 1000 Ang^3
#
#
#
# Elastic Constant Matrix: (Units=GPa)
#
#
# Indices 1 2 3 4 5 6 
#
# 1 298.5376 -104.0549 -1.6592 0.0000 0.0000 0.0000
# 2 -104.0549 298.5376 -1.6592 0.0000 0.0000 0.0000
# 3 -1.6592 -1.6592 75.5210 0.0000 0.0000 0.0000
# 4 0.0000 0.0000 0.0000 7.8612 0.0000 0.0000
# 5 0.0000 0.0000 0.0000 0.0000 7.8612 0.0000
# 6 0.0000 0.0000 0.0000 0.0000 0.0000 2090.6735
#
#
#
# Elastic Compliance Matrix: (Units=1/GPa)
#
#
# Indices 1 2 3 4 5 6 
#
# 1 0.003814 0.001330 0.000113 0.000000 0.000000 0.000000
# 2 0.001330 0.003814 0.000113 0.000000 0.000000 0.000000
# 3 0.000113 0.000113 0.013246 0.000000 0.000000 0.000000
# 4 0.000000 0.000000 0.000000 0.127207 0.000000 0.000000
# 5 0.000000 0.000000 0.000000 0.000000 0.127207 0.000000
# 6 0.000000 0.000000 0.000000 0.000000 0.000000 0.000478
#
#
# Mechanical properties :
#
#
# Convention : Reuss Voigt Hill
#
# Bulk Modulus (GPa) = 41.69117 50.87218 46.28168
# Shear Modulus (GPa) = 17.81583 473.27715 245.54649
#
# Velocity S-wave (km/s) = 2.73901 14.11721 10.16853
# Velocity P-wave (km/s) = 5.24966 16.94549 12.54409
#
# Compressibility (1/GPa) = 0.02398589
#
# Stress axis : x y z
#
# Youngs Moduli (GPa) = 262.20308 262.20308 75.49273
#
# Poissons Ratio (x) = -0.34871 -0.00853
# Poissons Ratio (y) = -0.34871 -0.00853
# Poissons Ratio (z) = -0.02963 -0.02963
#
# Static dielectric constant tensor:
#      x y z
#    x 1.905260 0.000000 0.000000 
#    y 0.000000 1.905260 0.000000 
#    z 0.000000 0.000000 1.915770 
# 
# From -- ./inp_files/1552.got.cif
#   From: 2010.05.17/outbox.cif.g08.bks.cpg/sg136_1_cif.got.tgz:1552.got - 2010.05.20 12:54:53.
