data_PCOD9569137
_publ_section_title
;
Structure prediction by ZEFSAII (Michael W. Deem and Ramdas Pophale) SiO2 
 PCOD9569137
Probable space group: P 42/M N M
;
_chemical_formula_sum "Si O2"
_cell_formula_units_Z 72
_cell_length_a 14.802878
_cell_length_b 14.802878
_cell_length_c 20.987054
_cell_angle_alpha 90.000000
_cell_angle_beta 90.000000
_cell_angle_gamma 90.000000
_cell_volume 4598.792344
_symmetry_space_group_name_H-M "P 42/M N M"
_symmetry_group_IT_number 136
_symmetry_cell_setting 'tetragonal'
loop_
_space_group_symop_operation_xyz
x,y,z
1/2-y,1/2+x,1/2+z
-x,-y,z
1/2+y,1/2-x,1/2+z
1/2+x,1/2-y,1/2-z
1/2-x,1/2+y,1/2-z
y,x,-z
-y,-x,-z
-x,-y,-z
1/2+y,1/2-x,1/2-z
x,y,-z
1/2-y,1/2+x,1/2-z
1/2-x,1/2+y,1/2+z
1/2+x,1/2-y,1/2+z
-y,-x,z
y,x,z
loop_
_atom_site_type_symbol
_atom_site_label
_atom_site_fract_x
_atom_site_fract_y
_atom_site_fract_z
Si Si1 0.961984 0.653764 0.500000
Si Si2 0.736724 0.018052 0.122315
Si Si3 0.137255 0.542787 0.500000
Si Si4 0.635415 0.211404 0.875269
Si Si5 0.646885 0.962708 0.250658
Si Si6 0.924893 0.075108 0.927812
O O1 0.914054 0.554590 0.500000
O O2 0.928535 0.706388 0.562628
O O3 0.066516 0.624763 0.500000
O O4 0.695779 0.960811 0.063969
O O5 0.708878 0.973546 0.188771
O O6 0.693340 0.118596 0.121167
O O7 0.841029 0.033578 0.109352
O O8 0.703541 0.296460 0.875082
O O9 0.576694 0.200123 0.811103
O O10 0.561154 0.897513 0.236048
O O11 0.895950 0.104051 0.000000
O O12 0.000000 0.000000 0.934093
#
# Coordination Sequence:
#
# PCOD9569137 Si02
#       6
#     8  16   8  16  16   8
#     4   9  17  26  43  72  96 120 154 193 245 290
#     4  10  18  31  49  66  94 130 164 201 245 292
#     4   9  16  27  46  67  92 123 156 195 237 296
#     4  10  18  28  46  69  97 128 162 198 246 300
#     4   9  18  31  47  70 100 131 165 206 254 303
#     4  11  22  34  48  70  98 131 175 210 241 289
#
# _framework density 15.656285
#
# number of rings (size 3 to 8) (size 9 to 14) (size 15 to 20)
#    0.000    2.333    2.222    1.667    0.000    6.222 
#    0.000    0.000    0.000    0.000    0.000    0.000 
#    0.000    0.111    0.000    3.111    0.667    0.111 
#
# Total GULP energy -401185.934079 kJ/mol
# GULP energy per Si atom -5572.026862 kJ/mol
# Density = 1.562065 g / cm^3
# Si number density = 15.656285 Si / 1000 Ang^3
#
#
#
# Elastic Constant Matrix: (Units=GPa)
#
#
# Indices 1 2 3 4 5 6 
#
# 1 74.5017 54.0907 77.6034 0.0000 0.0000 0.0000
# 2 54.0907 74.5017 77.6034 0.0000 0.0000 0.0000
# 3 77.6034 77.6034 166.8822 0.0000 0.0000 0.0000
# 4 0.0000 0.0000 0.0000 16.5080 0.0000 0.0000
# 5 0.0000 0.0000 0.0000 0.0000 16.5081 0.0000
# 6 0.0000 0.0000 0.0000 0.0000 0.0000 25.2368
#
#
#
# Elastic Compliance Matrix: (Units=1/GPa)
#
#
# Indices 1 2 3 4 5 6 
#
# 1 0.033359 -0.015634 -0.008242 0.000000 0.000000 0.000000
# 2 -0.015634 0.033359 -0.008242 0.000000 0.000000 0.000000
# 3 -0.008242 -0.008242 0.013658 0.000000 0.000000 0.000000
# 4 0.000000 0.000000 0.000000 0.060577 0.000000 0.000000
# 5 0.000000 0.000000 0.000000 0.000000 0.060576 0.000000
# 6 0.000000 0.000000 0.000000 0.000000 0.000000 0.039625
#
#
# Mechanical properties :
#
#
# Convention : Reuss Voigt Hill
#
# Bulk Modulus (GPa) = 61.96532 81.60895 71.78713
# Shear Modulus (GPa) = 16.08905 18.75647 17.42276
#
# Velocity S-wave (km/s) = 3.20916 3.46499 3.33953
# Velocity P-wave (km/s) = 7.30726 8.26116 7.79881
#
# Compressibility (1/GPa) = 0.01613806
#
# Stress axis : x y z
#
# Youngs Moduli (GPa) = 29.97699 29.97694 73.21746
#
# Poissons Ratio (x) = 0.46867 0.60348
# Poissons Ratio (y) = 0.46867 0.60348
# Poissons Ratio (z) = 0.24708 0.24708
#
# Static dielectric constant tensor:
#      x y z
#    x 1.505230 0.000000 0.000000 
#    y 0.000000 1.505230 0.000000 
#    z 0.000000 0.000000 1.523730 
# 
# From -- ./inp_files/6116.got.cif
#   From: 2010.05.17/outbox.cif.g08.bks.cpg/sg136_4_cif.got.tgz:6116.got - 2010.05.20 12:54:53.
