data_PCOD9569008
_publ_section_title
;
Structure prediction by ZEFSAII (Michael W. Deem and Ramdas Pophale) SiO2 
 PCOD9569008
Probable space group: P 42/M B C
;
_chemical_formula_sum "Si O2"
_cell_formula_units_Z 64
_cell_length_a 14.410247
_cell_length_b 14.410247
_cell_length_c 14.774618
_cell_angle_alpha 90.000000
_cell_angle_beta 90.000000
_cell_angle_gamma 90.000000
_cell_volume 3068.026531
_symmetry_space_group_name_H-M "P 42/M B C"
_symmetry_group_IT_number 135
_symmetry_cell_setting 'tetragonal'
loop_
_space_group_symop_operation_xyz
x,y,z
-y,x,1/2+z
-x,-y,z
y,-x,1/2+z
1/2+x,1/2-y,-z
1/2-x,1/2+y,-z
1/2+y,1/2+x,1/2-z
1/2-y,1/2-x,1/2-z
-x,-y,-z
y,-x,1/2-z
x,y,-z
-y,x,1/2-z
1/2-x,1/2+y,z
1/2+x,1/2-y,z
1/2-y,1/2-x,1/2+z
1/2+y,1/2+x,1/2+z
loop_
_atom_site_type_symbol
_atom_site_label
_atom_site_fract_x
_atom_site_fract_y
_atom_site_fract_z
Si Si1 0.520878 0.901124 0.895634
Si Si2 0.850229 0.247400 0.893525
Si Si3 0.391058 0.493047 0.610690
Si Si4 0.640804 0.228773 0.160591
O O1 0.601449 0.838608 0.852753
O O2 0.429139 0.838095 0.892888
O O3 0.500000 0.000000 0.853280
O O4 0.548259 0.919541 0.000000
O O5 0.741526 0.245379 0.880865
O O6 0.909164 0.157922 0.863866
O O7 0.868467 0.251018 0.000000
O O8 0.500000 0.500000 0.632798
O O9 0.384619 0.478088 0.500000
O O10 0.327454 0.414397 0.659316
O O11 0.670767 0.170767 0.250000
#
# Coordination Sequence:
#
# PCOD9569008 Si02
#       4
#    16  16  16  16
#     4   9  19  38  62  85 109 147 200 247 288 345
#     4   9  18  36  59  83 111 148 200 247 283 348
#     4   9  19  39  63  85 112 155 209 254 291 346
#     4  11  22  37  53  86 123 155 187 239 313 364
#
# _framework density 20.860313999999999
#
# number of rings (size 3 to 8) (size 9 to 14) (size 15 to 20)
#    0.000    2.500    0.000    3.750    0.000    2.500 
#   18.000    7.500    0.000    0.000    0.000    0.000 
#    0.000    0.000    0.000    0.000    0.000    0.000 
#
# Total GULP energy -356340.699642 kJ/mol
# GULP energy per Si atom -5567.823432 kJ/mol
# Density = 2.081284 g / cm^3
# Si number density = 20.860314 Si / 1000 Ang^3
#
#
#
# Elastic Constant Matrix: (Units=GPa)
#
#
# Indices 1 2 3 4 5 6 
#
# 1 135.8349 72.0131 -5.4937 0.0000 0.0000 0.0000
# 2 72.0131 135.8349 -5.4937 0.0000 0.0000 0.0000
# 3 -5.4937 -5.4937 49.4557 0.0000 0.0000 0.0000
# 4 0.0000 0.0000 0.0000 12.3133 0.0000 0.0000
# 5 0.0000 0.0000 0.0000 0.0000 12.3133 0.0000
# 6 0.0000 0.0000 0.0000 0.0000 0.0000 15.7859
#
#
#
# Elastic Compliance Matrix: (Units=1/GPa)
#
#
# Indices 1 2 3 4 5 6 
#
# 1 0.010254 -0.005414 0.000538 0.000000 0.000000 0.000000
# 2 -0.005414 0.010254 0.000538 0.000000 0.000000 0.000000
# 3 0.000538 0.000538 0.020340 0.000000 0.000000 0.000000
# 4 0.000000 0.000000 0.000000 0.081213 0.000000 0.000000
# 5 0.000000 0.000000 0.000000 0.000000 0.081213 0.000000
# 6 0.000000 0.000000 0.000000 0.000000 0.000000 0.063348
#
#
# Mechanical properties :
#
#
# Convention : Reuss Voigt Hill
#
# Bulk Modulus (GPa) = 31.08564 49.24188 40.16376
# Shear Modulus (GPa) = 17.48110 25.42249 21.45179
#
# Velocity S-wave (km/s) = 2.89798 3.49478 3.21028
# Velocity P-wave (km/s) = 5.11193 6.31992 5.74775
#
# Compressibility (1/GPa) = 0.03216920
#
# Stress axis : x y z
#
# Youngs Moduli (GPa) = 97.52177 97.52177 49.16532
#
# Poissons Ratio (x) = 0.52803 -0.02643
# Poissons Ratio (y) = 0.52803 -0.02643
# Poissons Ratio (z) = -0.05243 -0.05243
#
# Static dielectric constant tensor:
#      x y z
#    x 1.773160 0.000000 0.000000 
#    y 0.000000 1.773160 0.000000 
#    z 0.000000 0.000000 1.861160 
# 
# From -- ./inp_files/3147.got.cif
#   From: 2010.05.17/outbox.cif.g08.bks.cpg/sg135_2_cif.got.tgz:3147.got - 2010.05.20 12:50:20.
