data_PCOD9569630
_publ_section_title
;
Structure prediction by ZEFSAII (Michael W. Deem and Ramdas Pophale) SiO2 
 PCOD9569630
Probable space group: P 42/M N M
;
_chemical_formula_sum "Si O2"
_cell_formula_units_Z 96
_cell_length_a 17.233085
_cell_length_b 17.233085
_cell_length_c 14.947502
_cell_angle_alpha 90.000000
_cell_angle_beta 90.000000
_cell_angle_gamma 90.000000
_cell_volume 4439.097464
_symmetry_space_group_name_H-M "P 42/M N M"
_symmetry_group_IT_number 136
_symmetry_cell_setting 'tetragonal'
loop_
_space_group_symop_operation_xyz
x,y,z
1/2-y,1/2+x,1/2+z
-x,-y,z
1/2+y,1/2-x,1/2+z
1/2+x,1/2-y,1/2-z
1/2-x,1/2+y,1/2-z
y,x,-z
-y,-x,-z
-x,-y,-z
1/2+y,1/2-x,1/2-z
x,y,-z
1/2-y,1/2+x,1/2-z
1/2-x,1/2+y,1/2+z
1/2+x,1/2-y,1/2+z
-y,-x,z
y,x,z
loop_
_atom_site_type_symbol
_atom_site_label
_atom_site_fract_x
_atom_site_fract_y
_atom_site_fract_z
Si Si1 0.881160 0.588863 0.349010
Si Si2 0.919259 0.608004 0.141961
Si Si3 0.748888 0.558552 0.096725
Si Si4 0.783254 0.905444 0.166040
Si Si5 0.240068 0.115135 0.623533
Si Si6 0.202348 0.921854 0.795956
O O1 0.919601 0.599656 0.250545
O O2 0.910631 0.507093 0.387571
O O3 0.885111 0.669468 0.400716
O O4 0.789264 0.581658 0.332667
O O5 0.843309 0.562089 0.108821
O O6 0.906590 0.699216 0.119884
O O7 0.715717 0.471021 0.096320
O O8 0.714355 0.590492 0.189131
O O9 0.731604 0.594589 0.000000
O O10 0.843011 0.843011 0.128352
O O11 0.763598 0.882127 0.268534
O O12 0.821220 0.990622 0.177181
O O13 0.184639 0.184639 0.593279
O O14 0.143184 0.856817 0.829090
#
# Coordination Sequence:
#
# PCOD9569630 Si02
#       6
#    16  16  16  16  16  16
#     4   9  16  28  47  70  91 115 152 200 256 304
#     4   9  17  28  45  68  94 121 152 197 251 303
#     4  10  21  33  44  64  96 132 166 198 234 282
#     4   8  15  28  46  68  92 118 149 191 243 289
#     4   9  17  30  47  63  84 120 163 204 244 287
#     4   9  17  29  47  71  96 122 154 193 237 286
#
# _framework density 21.626017999999998
#
# number of rings (size 3 to 8) (size 9 to 14) (size 15 to 20)
#    0.000    3.000    0.000    3.500    0.000    7.333 
#    0.000    1.667    0.000    0.000    0.000    4.667 
#    0.000    6.000    0.000    6.000    0.000    0.667 
#
# Total GULP energy -534660.409036 kJ/mol
# GULP energy per Si atom -5569.379261 kJ/mol
# Density = 2.157680 g / cm^3
# Si number density = 21.626018 Si / 1000 Ang^3
#
#
#
# Elastic Constant Matrix: (Units=GPa)
#
#
# Indices 1 2 3 4 5 6 
#
# 1 91.1900 86.4639 -5.2602 0.0000 0.0000 0.0000
# 2 86.4639 91.1900 -5.2602 0.0000 0.0000 0.0000
# 3 -5.2602 -5.2602 31.1125 0.0000 0.0000 0.0000
# 4 0.0000 0.0000 0.0000 -15.7986 0.0000 0.0000
# 5 0.0000 0.0000 0.0000 0.0000 -15.7986 0.0000
# 6 0.0000 0.0000 0.0000 0.0000 0.0000 4.7698
#
#
#
# Elastic Compliance Matrix: (Units=1/GPa)
#
#
# Indices 1 2 3 4 5 6 
#
# 1 0.108638 -0.102953 0.000961 0.000000 0.000000 0.000000
# 2 -0.102953 0.108638 0.000961 0.000000 0.000000 0.000000
# 3 0.000961 0.000961 0.032466 0.000000 0.000000 0.000000
# 4 0.000000 0.000000 0.000000 -0.063297 0.000000 0.000000
# 5 0.000000 0.000000 0.000000 0.000000 -0.063297 0.000000
# 6 0.000000 0.000000 0.000000 0.000000 0.000000 0.209653
#
#
# Mechanical properties :
#
#
# Convention : Reuss Voigt Hill
#
# Bulk Modulus (GPa) = 20.97166 40.59771 30.78468
# Shear Modulus (GPa) = 9.07840 3.80445 6.44143
#
# Velocity S-wave (km/s) = 2.05110 1.32779 1.72772
# Velocity P-wave (km/s) = 3.91508 4.60044 4.27153
#
# Compressibility (1/GPa) = 0.04768339
#
# Stress axis : x y z
#
# Youngs Moduli (GPa) = 9.20485 9.20485 30.80104
#
# Poissons Ratio (x) = 0.94766 -0.02961
# Poissons Ratio (y) = 0.94766 -0.02961
# Poissons Ratio (z) = -0.00885 -0.00885
#
# Static dielectric constant tensor:
#      x y z
#    x 1.808530 0.000000 0.000000 
#    y 0.000000 1.808530 0.000000 
#    z 0.000000 0.000000 1.832940 
# 
# From -- ./inp_files/6320.got.cif
#   From: 2010.05.17/outbox.cif.g08.bks.cpg/sg136_4_cif.got.tgz:6320.got - 2010.05.20 12:54:53.
