data_PCOD9569614
_publ_section_title
;
Structure prediction by ZEFSAII (Michael W. Deem and Ramdas Pophale) SiO2 
 PCOD9569614
Probable space group: P 42/M N M
;
_chemical_formula_sum "Si O2"
_cell_formula_units_Z 96
_cell_length_a 23.687848
_cell_length_b 23.687848
_cell_length_c 8.529631
_cell_angle_alpha 90.000000
_cell_angle_beta 90.000000
_cell_angle_gamma 90.000000
_cell_volume 4786.096588
_symmetry_space_group_name_H-M "P 42/M N M"
_symmetry_group_IT_number 136
_symmetry_cell_setting 'tetragonal'
loop_
_space_group_symop_operation_xyz
x,y,z
1/2-y,1/2+x,1/2+z
-x,-y,z
1/2+y,1/2-x,1/2+z
1/2+x,1/2-y,1/2-z
1/2-x,1/2+y,1/2-z
y,x,-z
-y,-x,-z
-x,-y,-z
1/2+y,1/2-x,1/2-z
x,y,-z
1/2-y,1/2+x,1/2-z
1/2-x,1/2+y,1/2+z
1/2+x,1/2-y,1/2+z
-y,-x,z
y,x,z
loop_
_atom_site_type_symbol
_atom_site_label
_atom_site_fract_x
_atom_site_fract_y
_atom_site_fract_z
Si Si1 0.948062 0.437443 0.176348
Si Si2 0.060644 0.060644 0.181341
Si Si3 0.224014 0.612558 0.186000
Si Si4 0.629790 0.542971 0.188679
Si Si5 0.145711 0.145711 0.681881
Si Si6 0.881410 0.339911 0.686460
Si Si7 0.743159 0.015864 0.690971
O O1 0.928433 0.501149 0.202711
O O2 0.899605 0.395531 0.220308
O O3 0.968396 0.429424 0.000000
O O4 0.108195 0.108195 0.204807
O O5 0.005317 0.086340 0.260754
O O6 0.049611 0.049611 0.000000
O O7 0.288960 0.631029 0.203252
O O8 0.184474 0.659211 0.269508
O O9 0.221125 0.546384 0.242451
O O10 0.210887 0.612667 0.000000
O O11 0.602765 0.602765 0.240127
O O12 0.692545 0.527065 0.245024
O O13 0.632868 0.543873 0.000000
O O14 0.130775 0.130775 0.500000
O O15 0.886533 0.346353 0.500000
O O16 0.928712 0.293689 0.733952
O O17 0.743402 0.013257 0.500000
#
# Coordination Sequence:
#
# PCOD9569614 Si02
#       7
#    16   8  16  16   8  16  16
#     4  11  21  35  55  81 112 148 191 242 299 353
#     4  12  23  35  58  93 130 154 180 238 313 361
#     4  10  20  38  63  85 112 152 202 252 296 347
#     4  10  20  38  64  88 113 155 205 242 286 356
#     4  10  20  39  67  88 110 155 212 251 285 344
#     4  11  22  36  55  85 120 154 193 240 298 357
#     4   9  19  37  60  85 113 151 199 250 292 339
#
# _framework density 20.058098000000001
#
# number of rings (size 3 to 8) (size 9 to 14) (size 15 to 20)
#    0.000    1.667    1.667    4.500    0.000    3.333 
#    1.500    2.500    0.000    0.000    0.000    0.000 
#    0.000    0.000    0.000    0.000    0.000    0.000 
#
# Total GULP energy -535458.754712 kJ/mol
# GULP energy per Si atom -5577.695362 kJ/mol
# Density = 2.001245 g / cm^3
# Si number density = 20.058098 Si / 1000 Ang^3
#
#
#
# Elastic Constant Matrix: (Units=GPa)
#
#
# Indices 1 2 3 4 5 6 
#
# 1 86.7931 40.4212 16.4881 0.0000 0.0000 0.0000
# 2 40.4212 86.7931 16.4881 0.0000 0.0000 0.0000
# 3 16.4881 16.4881 28.0030 0.0000 0.0000 0.0000
# 4 0.0000 0.0000 0.0000 14.4764 0.0000 0.0000
# 5 0.0000 0.0000 0.0000 0.0000 14.4764 0.0000
# 6 0.0000 0.0000 0.0000 0.0000 0.0000 38.5062
#
#
#
# Elastic Compliance Matrix: (Units=1/GPa)
#
#
# Indices 1 2 3 4 5 6 
#
# 1 0.015421 -0.006144 -0.005462 0.000000 0.000000 0.000000
# 2 -0.006144 0.015421 -0.005462 0.000000 0.000000 0.000000
# 3 -0.005462 -0.005462 0.042143 0.000000 0.000000 0.000000
# 4 0.000000 0.000000 0.000000 0.069078 0.000000 0.000000
# 5 0.000000 0.000000 0.000000 0.000000 0.069078 0.000000
# 6 0.000000 0.000000 0.000000 0.000000 0.000000 0.025970
#
#
# Mechanical properties :
#
#
# Convention : Reuss Voigt Hill
#
# Bulk Modulus (GPa) = 25.74162 38.70934 32.22548
# Shear Modulus (GPa) = 17.59355 22.03792 19.81573
#
# Velocity S-wave (km/s) = 2.96485 3.31827 3.14652
# Velocity P-wave (km/s) = 4.95801 5.83281 5.41311
#
# Compressibility (1/GPa) = 0.03884759
#
# Stress axis : x y z
#
# Youngs Moduli (GPa) = 64.84791 64.84791 23.72893
#
# Poissons Ratio (x) = 0.39843 0.12961
# Poissons Ratio (y) = 0.39843 0.12961
# Poissons Ratio (z) = 0.35420 0.35420
#
# Static dielectric constant tensor:
#      x y z
#    x 1.736450 0.000000 0.000000 
#    y 0.000000 1.736450 0.000000 
#    z 0.000000 0.000000 1.729350 
# 
# From -- ./inp_files/2031.got.cif
#   From: 2010.05.17/outbox.cif.g08.bks.cpg/sg136_2_cif.got.tgz:2031.got - 2010.05.20 12:54:53.
