data_PCOD9569695
_publ_section_title
;
Structure prediction by ZEFSAII (Michael W. Deem and Ramdas Pophale) SiO2 
 PCOD9569695
Probable space group: P 42/M N M
;
_chemical_formula_sum "Si O2"
_cell_formula_units_Z 112
_cell_length_a 17.122894
_cell_length_b 17.122894
_cell_length_c 19.574951
_cell_angle_alpha 90.000000
_cell_angle_beta 90.000000
_cell_angle_gamma 90.000000
_cell_volume 5739.248375
_symmetry_space_group_name_H-M "P 42/M N M"
_symmetry_group_IT_number 136
_symmetry_cell_setting 'tetragonal'
loop_
_space_group_symop_operation_xyz
x,y,z
1/2-y,1/2+x,1/2+z
-x,-y,z
1/2+y,1/2-x,1/2+z
1/2+x,1/2-y,1/2-z
1/2-x,1/2+y,1/2-z
y,x,-z
-y,-x,-z
-x,-y,-z
1/2+y,1/2-x,1/2-z
x,y,-z
1/2-y,1/2+x,1/2-z
1/2-x,1/2+y,1/2+z
1/2+x,1/2-y,1/2+z
-y,-x,z
y,x,z
loop_
_atom_site_type_symbol
_atom_site_label
_atom_site_fract_x
_atom_site_fract_y
_atom_site_fract_z
Si Si1 0.631159 0.497854 0.165987
Si Si2 0.229738 0.445406 0.079507
Si Si3 0.295393 0.166172 0.141207
Si Si4 0.565023 0.692092 0.303431
Si Si5 0.676876 0.196302 0.208496
Si Si6 0.293178 0.004067 0.076979
Si Si7 0.131416 0.589655 0.921315
O O1 0.580893 0.419108 0.162731
O O2 0.569632 0.569632 0.158506
O O3 0.697417 0.505871 0.108781
O O4 0.671748 0.509734 0.239801
O O5 0.222226 0.367656 0.123802
O O6 0.151382 0.498335 0.085802
O O7 0.241185 0.426781 0.000000
O O8 0.216501 0.216501 0.135738
O O9 0.302355 0.133954 0.218661
O O10 0.302704 0.095404 0.089066
O O11 0.614410 0.614410 0.320260
O O12 0.628597 0.757845 0.283492
O O13 0.523350 0.728885 0.368708
O O14 0.723257 0.276743 0.201025
O O15 0.629856 0.178520 0.140193
O O16 0.373895 0.955225 0.086781
O O17 0.267356 0.987486 0.000000
O O18 0.155564 0.609497 0.000000
#
# Coordination Sequence:
#
# PCOD9569695 Si02
#       7
#    16  16  16  16  16  16  16
#     4  10  21  37  58  86 120 157 199 247 297 352
#     4  11  23  39  60  84 118 160 200 246 299 357
#     4  11  23  38  60  89 117 154 202 249 298 355
#     4   9  18  37  61  85 115 150 192 239 292 351
#     4   9  18  34  59  85 113 152 193 240 292 347
#     4  10  22  39  59  87 122 154 194 248 299 356
#     4   9  21  38  56  84 118 156 198 241 296 355
#
# _framework density 19.514751
#
# number of rings (size 3 to 8) (size 9 to 14) (size 15 to 20)
#    0.000    2.143    1.429    0.857    2.000    4.571 
#    0.000    7.143    0.000    1.714    0.000    3.000 
#    0.000    0.000    0.000    0.000    0.000    0.000 
#
# Total GULP energy -624704.467601 kJ/mol
# GULP energy per Si atom -5577.718461 kJ/mol
# Density = 1.947033 g / cm^3
# Si number density = 19.514751 Si / 1000 Ang^3
#
#
#
# Elastic Constant Matrix: (Units=GPa)
#
#
# Indices 1 2 3 4 5 6 
#
# 1 49.4028 10.4183 23.4838 0.0000 0.0000 0.0000
# 2 10.4183 49.4028 23.4838 0.0000 0.0000 0.0000
# 3 23.4838 23.4838 94.7409 0.0000 0.0000 0.0000
# 4 0.0000 0.0000 0.0000 12.4800 0.0000 0.0000
# 5 0.0000 0.0000 0.0000 0.0000 12.4800 0.0000
# 6 0.0000 0.0000 0.0000 0.0000 0.0000 22.9340
#
#
#
# Elastic Compliance Matrix: (Units=1/GPa)
#
#
# Indices 1 2 3 4 5 6 
#
# 1 0.023204 -0.002448 -0.005145 0.000000 0.000000 0.000000
# 2 -0.002448 0.023204 -0.005145 0.000000 0.000000 0.000000
# 3 -0.005145 -0.005145 0.013106 0.000000 0.000000 0.000000
# 4 0.000000 0.000000 0.000000 0.080128 0.000000 0.000000
# 5 0.000000 0.000000 0.000000 0.000000 0.080128 0.000000
# 6 0.000000 0.000000 0.000000 0.000000 0.000000 0.043603
#
#
# Mechanical properties :
#
#
# Convention : Reuss Voigt Hill
#
# Bulk Modulus (GPa) = 29.37891 34.25762 31.81826
# Shear Modulus (GPa) = 16.65596 18.65618 17.65607
#
# Velocity S-wave (km/s) = 2.92465 3.09529 3.01118
# Velocity P-wave (km/s) = 5.14706 5.51065 5.33195
#
# Compressibility (1/GPa) = 0.03403802
#
# Stress axis : x y z
#
# Youngs Moduli (GPa) = 43.09684 43.09684 76.30294
#
# Poissons Ratio (x) = 0.10549 0.39257
# Poissons Ratio (y) = 0.10549 0.39257
# Poissons Ratio (z) = 0.22173 0.22173
#
# Static dielectric constant tensor:
#      x y z
#    x 1.692010 0.000000 0.000000 
#    y 0.000000 1.692010 0.000000 
#    z 0.000000 0.000000 1.659310 
# 
# From -- ./inp_files/7767.got.cif
#   From: 2010.05.17/outbox.cif.g08.bks.cpg/sg136_4_cif.got.tgz:7767.got - 2010.05.20 12:54:53.
