data_PCOD9569597
_publ_section_title
;
Structure prediction by ZEFSAII (Michael W. Deem and Ramdas Pophale) SiO2 
 PCOD9569597
Probable space group: P 42/M N M
;
_chemical_formula_sum "Si O2"
_cell_formula_units_Z 48
_cell_length_a 11.803732
_cell_length_b 11.803732
_cell_length_c 19.585148
_cell_angle_alpha 90.000000
_cell_angle_beta 90.000000
_cell_angle_gamma 90.000000
_cell_volume 2728.761246
_symmetry_space_group_name_H-M "P 42/M N M"
_symmetry_group_IT_number 136
_symmetry_cell_setting 'tetragonal'
loop_
_space_group_symop_operation_xyz
x,y,z
1/2-y,1/2+x,1/2+z
-x,-y,z
1/2+y,1/2-x,1/2+z
1/2+x,1/2-y,1/2-z
1/2-x,1/2+y,1/2-z
y,x,-z
-y,-x,-z
-x,-y,-z
1/2+y,1/2-x,1/2-z
x,y,-z
1/2-y,1/2+x,1/2-z
1/2-x,1/2+y,1/2+z
1/2+x,1/2-y,1/2+z
-y,-x,z
y,x,z
loop_
_atom_site_type_symbol
_atom_site_label
_atom_site_fract_x
_atom_site_fract_y
_atom_site_fract_z
Si Si1 0.523351 0.864603 0.000000
Si Si2 0.409897 0.590104 0.226819
Si Si3 0.200551 0.485464 0.849805
Si Si4 0.500000 0.000000 0.250000
Si Si5 0.786696 0.786696 0.850916
Si Si6 0.210932 0.210932 0.000000
O O1 0.476988 0.818344 0.071983
O O2 0.655111 0.822181 0.000000
O O3 0.500000 0.000000 0.000000
O O4 0.500000 0.500000 0.253698
O O5 0.473558 0.681465 0.180197
O O6 0.347877 0.652124 0.289004
O O7 0.193626 0.348607 0.847321
O O8 0.102656 0.531528 0.800065
O O9 0.829247 0.829247 0.925436
#
# Coordination Sequence:
#
# PCOD9569597 Si02
#       6
#     8   8  16   4   8   4
#     4  10  20  37  60  86 119 161 205 246 305 377
#     4  12  24  37  60  95 128 153 201 263 315 364
#     4  11  22  37  59  88 119 159 202 249 301 368
#     4  12  20  34  64  88 112 158 208 248 292 366
#     4  10  20  39  58  84 120 158 199 241 309 368
#     4   8  20  36  59  85 114 156 202 250 292 363
#
# _framework density 17.590399999999999
#
# number of rings (size 3 to 8) (size 9 to 14) (size 15 to 20)
#    0.000    1.333    6.667    0.000    0.000    0.667 
#    0.000    1.250    0.000    0.000    4.333    0.000 
#    0.000    0.000    0.000    0.000    0.000    0.000 
#
# Total GULP energy -267526.467376 kJ/mol
# GULP energy per Si atom -5573.468070 kJ/mol
# Density = 1.755036 g / cm^3
# Si number density = 17.590400 Si / 1000 Ang^3
#
#
#
# Elastic Constant Matrix: (Units=GPa)
#
#
# Indices 1 2 3 4 5 6 
#
# 1 67.5520 21.2234 42.4155 0.0000 0.0000 0.0000
# 2 21.2234 67.5520 42.4155 0.0000 0.0000 0.0000
# 3 42.4155 42.4155 184.4411 0.0000 0.0000 0.0000
# 4 0.0000 0.0000 0.0000 8.1932 0.0000 0.0000
# 5 0.0000 0.0000 0.0000 0.0000 8.1932 0.0000
# 6 0.0000 0.0000 0.0000 0.0000 0.0000 28.5608
#
#
#
# Elastic Compliance Matrix: (Units=1/GPa)
#
#
# Indices 1 2 3 4 5 6 
#
# 1 0.018011 -0.003574 -0.003320 0.000000 0.000000 0.000000
# 2 -0.003574 0.018011 -0.003320 0.000000 0.000000 0.000000
# 3 -0.003320 -0.003320 0.006949 0.000000 0.000000 0.000000
# 4 0.000000 0.000000 0.000000 0.122052 0.000000 0.000000
# 5 0.000000 0.000000 0.000000 0.000000 0.122052 0.000000
# 6 0.000000 0.000000 0.000000 0.000000 0.000000 0.035013
#
#
# Mechanical properties :
#
#
# Convention : Reuss Voigt Hill
#
# Bulk Modulus (GPa) = 44.36070 59.07268 51.71669
# Shear Modulus (GPa) = 14.28450 23.22217 18.75333
#
# Velocity S-wave (km/s) = 2.85276 3.63734 3.26868
# Velocity P-wave (km/s) = 6.01036 7.16210 6.61136
#
# Compressibility (1/GPa) = 0.02254248
#
# Stress axis : x y z
#
# Youngs Moduli (GPa) = 55.52194 55.52194 143.91007
#
# Poissons Ratio (x) = 0.19844 0.47778
# Poissons Ratio (y) = 0.19844 0.47778
# Poissons Ratio (z) = 0.18433 0.18433
#
# Static dielectric constant tensor:
#      x y z
#    x 1.340870 0.000000 0.000000 
#    y 0.000000 1.340870 0.000000 
#    z 0.000000 0.000000 1.607530 
# 
# From -- ./inp_files/6886.got.cif
#   From: 2010.05.17/outbox.cif.g08.bks.cpg/sg136_4_cif.got.tgz:6886.got - 2010.05.20 12:54:53.
