data_PCOD9569795
_publ_section_title
;
Structure prediction by ZEFSAII (Michael W. Deem and Ramdas Pophale) SiO2 
 PCOD9569795
Probable space group: P 42/M N M
;
_chemical_formula_sum "Si O2"
_cell_formula_units_Z 42
_cell_length_a 15.609630
_cell_length_b 15.609630
_cell_length_c 7.640158
_cell_angle_alpha 90.000000
_cell_angle_beta 90.000000
_cell_angle_gamma 90.000000
_cell_volume 1861.605091
_symmetry_space_group_name_H-M "P 42/M N M"
_symmetry_group_IT_number 136
_symmetry_cell_setting 'tetragonal'
loop_
_space_group_symop_operation_xyz
x,y,z
1/2-y,1/2+x,1/2+z
-x,-y,z
1/2+y,1/2-x,1/2+z
1/2+x,1/2-y,1/2-z
1/2-x,1/2+y,1/2-z
y,x,-z
-y,-x,-z
-x,-y,-z
1/2+y,1/2-x,1/2-z
x,y,-z
1/2-y,1/2+x,1/2-z
1/2-x,1/2+y,1/2+z
1/2+x,1/2-y,1/2+z
-y,-x,z
y,x,z
loop_
_atom_site_type_symbol
_atom_site_label
_atom_site_fract_x
_atom_site_fract_y
_atom_site_fract_z
Si Si1 0.631251 0.236852 0.000000
Si Si2 0.480736 0.225891 0.198485
Si Si3 0.500000 0.500000 0.000000
Si Si4 0.403137 0.966450 0.000000
Si Si5 0.603941 0.603941 0.697562
O O1 0.573980 0.268742 0.163725
O O2 0.616008 0.135671 0.000000
O O3 0.724306 0.275695 0.000000
O O4 0.495336 0.146562 0.325613
O O5 0.417274 0.295746 0.276193
O O6 0.451196 0.202654 0.000000
O O7 0.553173 0.553173 0.846832
O O8 0.500000 0.000000 0.000000
O O9 0.579908 0.579908 0.500000
#
# Coordination Sequence:
#
# PCOD9569795 Si02
#       5
#     8  16   2   8   8
#     4  10  27  47  74 106 157 206 265 338 397 491
#     4  10  25  45  76 107 155 197 261 331 411 481
#     4  12  22  40  72 114 172 204 262 312 410 504
#     4  12  28  49  79 113 148 207 282 337 411 510
#     4  12  23  43  75 117 157 208 261 320 403 489
#
# _framework density 22.561174999999999
#
# number of rings (size 3 to 8) (size 9 to 14) (size 15 to 20)
#    1.143    0.000    3.810    0.286   13.333    0.762 
#    0.000    0.952    0.000    0.000    0.000    0.000 
#    0.000    0.000    0.000    0.000    0.000    0.000 
#
# Total GULP energy -233843.313716 kJ/mol
# GULP energy per Si atom -5567.697946 kJ/mol
# Density = 2.250983 g / cm^3
# Si number density = 22.561175 Si / 1000 Ang^3
#
#
#
# Elastic Constant Matrix: (Units=GPa)
#
#
# Indices 1 2 3 4 5 6 
#
# 1 103.6892 85.0835 60.7769 0.0000 0.0000 0.0000
# 2 85.0835 103.6942 60.7775 0.0000 0.0000 0.0000
# 3 60.7769 60.7775 215.9915 0.0000 0.0000 0.0000
# 4 0.0000 0.0000 0.0000 1.1223 0.0000 0.0000
# 5 0.0000 0.0000 0.0000 0.0000 1.1324 0.0000
# 6 0.0000 0.0000 0.0000 0.0000 0.0000 39.2466
#
#
#
# Elastic Compliance Matrix: (Units=1/GPa)
#
#
# Indices 1 2 3 4 5 6 
#
# 1 0.030105 -0.023635 -0.001821 0.000000 0.000000 0.000000
# 2 -0.023635 0.030104 -0.001820 0.000000 0.000000 0.000000
# 3 -0.001821 -0.001820 0.005654 0.000000 0.000000 0.000000
# 4 0.000000 0.000000 0.000000 0.891002 0.000000 0.000000
# 5 0.000000 0.000000 0.000000 0.000000 0.883063 0.000000
# 6 0.000000 0.000000 0.000000 0.000000 0.000000 0.025480
#
#
# Mechanical properties :
#
#
# Convention : Reuss Voigt Hill
#
# Bulk Modulus (GPa) = 88.40503 92.96120 90.68312
# Shear Modulus (GPa) = 2.59912 22.74939 12.67425
#
# Velocity S-wave (km/s) = 1.07449 3.17889 2.37275
# Velocity P-wave (km/s) = 6.38819 7.40049 6.91290
#
# Compressibility (1/GPa) = 0.01131157
#
# Stress axis : x y z
#
# Youngs Moduli (GPa) = 33.21654 33.21834 176.85641
#
# Poissons Ratio (x) = 0.78512 0.32198
# Poissons Ratio (y) = 0.78508 0.32193
# Poissons Ratio (z) = 0.06047 0.06047
#
# Static dielectric constant tensor:
#      x y z
#    x 1.907780 0.000000 0.000000 
#    y 0.000000 1.907780 0.000000 
#    z 0.000000 0.000000 1.877460 
# 
# From -- ./inp_files/724.got.cif
#   From: 2010.05.17/outbox.cif.g08.bks.cpg/sg136_1_cif.got.tgz:724.got - 2010.05.20 12:54:53.
