data_PCOD9569565
_publ_section_title
;
Structure prediction by ZEFSAII (Michael W. Deem and Ramdas Pophale) SiO2 
 PCOD9569565
Probable space group: P 42/M N M
;
_chemical_formula_sum "Si O2"
_cell_formula_units_Z 56
_cell_length_a 19.466015
_cell_length_b 19.466015
_cell_length_c 8.823475
_cell_angle_alpha 90.000000
_cell_angle_beta 90.000000
_cell_angle_gamma 90.000000
_cell_volume 3343.441794
_symmetry_space_group_name_H-M "P 42/M N M"
_symmetry_group_IT_number 136
_symmetry_cell_setting 'tetragonal'
loop_
_space_group_symop_operation_xyz
x,y,z
1/2-y,1/2+x,1/2+z
-x,-y,z
1/2+y,1/2-x,1/2+z
1/2+x,1/2-y,1/2-z
1/2-x,1/2+y,1/2-z
y,x,-z
-y,-x,-z
-x,-y,-z
1/2+y,1/2-x,1/2-z
x,y,-z
1/2-y,1/2+x,1/2-z
1/2-x,1/2+y,1/2+z
1/2+x,1/2-y,1/2+z
-y,-x,z
y,x,z
loop_
_atom_site_type_symbol
_atom_site_label
_atom_site_fract_x
_atom_site_fract_y
_atom_site_fract_z
Si Si1 0.981466 0.204768 0.681026
Si Si2 0.127522 0.242515 0.180864
Si Si3 0.347756 0.232113 0.319769
Si Si4 0.058111 0.941890 0.820631
O O1 0.981560 0.202968 0.500000
O O2 0.919846 0.252409 0.741380
O O3 0.966736 0.128742 0.745959
O O4 0.054259 0.230422 0.743528
O O5 0.176563 0.176563 0.210027
O O6 0.167742 0.307416 0.249727
O O7 0.120533 0.249744 0.000000
O O8 0.355995 0.223923 0.500000
O O9 0.298116 0.298116 0.294074
O O10 0.069707 0.930294 0.000000
O O11 0.000000 0.000000 0.803483
#
# Coordination Sequence:
#
# PCOD9569565 Si02
#       4
#    16  16  16   8
#     4  12  23  35  55  82 113 148 188 230 280 336
#     4  10  21  37  57  81 112 147 187 233 281 332
#     4  10  20  36  58  81 109 145 188 233 280 332
#     4  11  23  37  53  77 113 153 189 228 281 338
#
# _framework density 16.749206999999998
#
# number of rings (size 3 to 8) (size 9 to 14) (size 15 to 20)
#    0.000    1.286    1.429    5.571    0.000    7.429 
#    0.000    0.000    0.000    0.857    0.000    6.000 
#    0.000    0.000    0.000    0.000    0.000    0.000 
#
# Total GULP energy -313096.391523 kJ/mol
# GULP energy per Si atom -5591.006991 kJ/mol
# Density = 1.671109 g / cm^3
# Si number density = 16.749207 Si / 1000 Ang^3
#
#
#
# Elastic Constant Matrix: (Units=GPa)
#
#
# Indices 1 2 3 4 5 6 
#
# 1 125.3005 109.7795 96.1430 0.0000 0.0000 0.0000
# 2 109.7795 125.3019 96.1427 0.0000 0.0000 0.0000
# 3 96.1430 96.1427 146.9025 0.0000 0.0000 0.0000
# 4 0.0000 0.0000 0.0000 30.8919 0.0000 0.0000
# 5 0.0000 0.0000 0.0000 0.0000 30.8920 0.0000
# 6 0.0000 0.0000 0.0000 0.0000 0.0000 19.2652
#
#
#
# Elastic Compliance Matrix: (Units=1/GPa)
#
#
# Indices 1 2 3 4 5 6 
#
# 1 0.036791 -0.027636 -0.005992 0.000000 0.000000 0.000000
# 2 -0.027636 0.036790 -0.005991 0.000000 0.000000 0.000000
# 3 -0.005992 -0.005991 0.014649 0.000000 0.000000 0.000000
# 4 0.000000 0.000000 0.000000 0.032371 0.000000 0.000000
# 5 0.000000 0.000000 0.000000 0.000000 0.032371 0.000000
# 6 0.000000 0.000000 0.000000 0.000000 0.000000 0.051907
#
#
# Mechanical properties :
#
#
# Convention : Reuss Voigt Hill
#
# Bulk Modulus (GPa) = 111.19513 111.29281 111.24397
# Shear Modulus (GPa) = 17.41472 22.57248 19.99360
#
# Velocity S-wave (km/s) = 3.22799 3.67505 3.45875
# Velocity P-wave (km/s) = 8.96803 9.19776 9.08363
#
# Compressibility (1/GPa) = 0.00899320
#
# Stress axis : x y z
#
# Youngs Moduli (GPa) = 27.18066 27.18146 68.26181
#
# Poissons Ratio (x) = 0.75118 0.40901
# Poissons Ratio (y) = 0.75116 0.40895
# Poissons Ratio (z) = 0.16286 0.16284
#
# Static dielectric constant tensor:
#      x y z
#    x 1.540780 0.000000 0.000000 
#    y 0.000000 1.540780 0.000000 
#    z 0.000000 0.000000 1.552180 
# 
# From -- ./inp_files/1098.got.cif
#   From: 2010.05.17/outbox.cif.g08.bks.cpg/sg136_1_cif.got.tgz:1098.got - 2010.05.20 12:54:53.
