data_PCOD9569705
_publ_section_title
;
Structure prediction by ZEFSAII (Michael W. Deem and Ramdas Pophale) SiO2 
 PCOD9569705
Probable space group: P 42/M N M
;
_chemical_formula_sum "Si O2"
_cell_formula_units_Z 64
_cell_length_a 15.311716
_cell_length_b 15.311716
_cell_length_c 14.239095
_cell_angle_alpha 90.000000
_cell_angle_beta 90.000000
_cell_angle_gamma 90.000000
_cell_volume 3338.336555
_symmetry_space_group_name_H-M "P 42/M N M"
_symmetry_group_IT_number 136
_symmetry_cell_setting 'tetragonal'
loop_
_space_group_symop_operation_xyz
x,y,z
1/2-y,1/2+x,1/2+z
-x,-y,z
1/2+y,1/2-x,1/2+z
1/2+x,1/2-y,1/2-z
1/2-x,1/2+y,1/2-z
y,x,-z
-y,-x,-z
-x,-y,-z
1/2+y,1/2-x,1/2-z
x,y,-z
1/2-y,1/2+x,1/2-z
1/2-x,1/2+y,1/2+z
1/2+x,1/2-y,1/2+z
-y,-x,z
y,x,z
loop_
_atom_site_type_symbol
_atom_site_label
_atom_site_fract_x
_atom_site_fract_y
_atom_site_fract_z
Si Si1 0.422742 0.071523 0.607417
Si Si2 0.559602 0.808486 0.215113
Si Si3 0.501569 0.638781 0.297231
Si Si4 0.772553 0.372975 0.396416
O O1 0.409516 0.100090 0.500000
O O2 0.445997 0.146287 0.682099
O O3 0.500000 0.000000 0.609621
O O4 0.340598 0.019765 0.650015
O O5 0.550655 0.704821 0.227070
O O6 0.647860 0.846901 0.170456
O O7 0.427475 0.572526 0.257233
O O8 0.574956 0.574956 0.341152
O O9 0.447664 0.704958 0.363475
O O10 0.807726 0.394950 0.500000
O O11 0.712767 0.287234 0.401637
#
# Coordination Sequence:
#
# PCOD9569705 Si02
#       4
#    16  16  16  16
#     4  11  21  34  56  90 125 158 198 247 304 360
#     4  12  19  38  59  89 124 162 201 254 302 361
#     4  10  22  39  61  88 122 162 201 249 309 366
#     4  10  21  37  61  91 121 159 208 255 302 363
#
# _framework density 19.171223999999999
#
# number of rings (size 3 to 8) (size 9 to 14) (size 15 to 20)
#    0.000    1.250    5.000    1.500    0.000    3.500 
#    0.000    2.500    0.000    8.250    0.000    8.750 
#    0.000    0.000    0.000    0.000    0.000    0.000 
#
# Total GULP energy -356822.175845 kJ/mol
# GULP energy per Si atom -5575.346498 kJ/mol
# Density = 1.912759 g / cm^3
# Si number density = 19.171224 Si / 1000 Ang^3
#
#
#
# Elastic Constant Matrix: (Units=GPa)
#
#
# Indices 1 2 3 4 5 6 
#
# 1 111.5291 44.1326 50.7068 0.0000 0.0000 0.0000
# 2 44.1326 111.5291 50.7068 0.0000 0.0000 0.0000
# 3 50.7068 50.7068 118.2697 0.0000 0.0000 0.0000
# 4 0.0000 0.0000 0.0000 12.7776 0.0000 0.0000
# 5 0.0000 0.0000 0.0000 0.0000 12.7776 0.0000
# 6 0.0000 0.0000 0.0000 0.0000 0.0000 39.8247
#
#
#
# Elastic Compliance Matrix: (Units=1/GPa)
#
#
# Indices 1 2 3 4 5 6 
#
# 1 0.011876 -0.002962 -0.003822 0.000000 0.000000 0.000000
# 2 -0.002962 0.011876 -0.003822 0.000000 0.000000 0.000000
# 3 -0.003822 -0.003822 0.011732 0.000000 0.000000 0.000000
# 4 0.000000 0.000000 0.000000 0.078262 0.000000 0.000000
# 5 0.000000 0.000000 0.000000 0.000000 0.078262 0.000000
# 6 0.000000 0.000000 0.000000 0.000000 0.000000 0.025110
#
#
# Mechanical properties :
#
#
# Convention : Reuss Voigt Hill
#
# Bulk Modulus (GPa) = 70.06088 70.26892 70.16490
# Shear Modulus (GPa) = 20.56880 26.12810 23.34845
#
# Velocity S-wave (km/s) = 3.27907 3.69573 3.49361
# Velocity P-wave (km/s) = 7.13866 7.41243 7.27683
#
# Compressibility (1/GPa) = 0.01427330
#
# Stress axis : x y z
#
# Youngs Moduli (GPa) = 84.20462 84.20462 85.23418
#
# Poissons Ratio (x) = 0.24939 0.32575
# Poissons Ratio (y) = 0.24939 0.32575
# Poissons Ratio (z) = 0.32182 0.32182
#
# Static dielectric constant tensor:
#      x y z
#    x 1.690490 0.000000 0.000000 
#    y 0.000000 1.690490 0.000000 
#    z 0.000000 0.000000 1.687960 
# 
# From -- ./inp_files/4689.got.cif
#   From: 2010.05.17/outbox.cif.g08.bks.cpg/sg136_3_cif.got.tgz:4689.got - 2010.05.20 12:54:53.
