data_PCOD9569018
_publ_section_title
;
Structure prediction by ZEFSAII (Michael W. Deem and Ramdas Pophale) SiO2 
 PCOD9569018
Probable space group: P 42/M B C
;
_chemical_formula_sum "Si O2"
_cell_formula_units_Z 116
_cell_length_a 17.950947
_cell_length_b 17.950947
_cell_length_c 15.984123
_cell_angle_alpha 90.000000
_cell_angle_beta 90.000000
_cell_angle_gamma 90.000000
_cell_volume 5150.667822
_symmetry_space_group_name_H-M "P 42/M B C"
_symmetry_group_IT_number 135
_symmetry_cell_setting 'tetragonal'
loop_
_space_group_symop_operation_xyz
x,y,z
-y,x,1/2+z
-x,-y,z
y,-x,1/2+z
1/2+x,1/2-y,-z
1/2-x,1/2+y,-z
1/2+y,1/2+x,1/2-z
1/2-y,1/2-x,1/2-z
-x,-y,-z
y,-x,1/2-z
x,y,-z
-y,x,1/2-z
1/2-x,1/2+y,z
1/2+x,1/2-y,z
1/2-y,1/2-x,1/2+z
1/2+y,1/2+x,1/2+z
loop_
_atom_site_type_symbol
_atom_site_label
_atom_site_fract_x
_atom_site_fract_y
_atom_site_fract_z
Si Si1 0.821604 0.587167 0.099713
Si Si2 0.552829 0.912784 0.656421
Si Si3 0.404388 0.602743 0.903084
Si Si4 0.333227 0.456836 0.825804
Si Si5 0.500000 0.000000 0.000000
Si Si6 0.252077 0.314856 0.398256
Si Si7 0.170086 0.047635 0.665807
Si Si8 0.650854 0.797150 0.900483
O O1 0.867638 0.523210 0.144261
O O2 0.734468 0.571397 0.116938
O O3 0.841725 0.670482 0.128928
O O4 0.837934 0.579982 0.000000
O O5 0.556254 0.943747 0.750000
O O6 0.554800 0.968157 0.576215
O O7 0.624373 0.860378 0.644107
O O8 0.380885 0.524105 0.865362
O O9 0.358894 0.674891 0.870220
O O10 0.490473 0.623047 0.890644
O O11 0.385714 0.597750 0.000000
O O12 0.388432 0.388392 0.807595
O O13 0.302760 0.497014 0.742801
O O14 0.249728 0.318320 0.500000
O O15 0.261494 0.229115 0.373647
O O16 0.239616 0.085519 0.621080
O O17 0.654553 0.809001 0.000000
#
# Coordination Sequence:
#
# PCOD9569018 Si02
#       8
#    16  16  16  16   4  16  16  16
#     4  11  22  45  77 108 148 196 252 314 376 459
#     4  12  26  48  80 115 152 207 259 315 386 459
#     4  11  24  41  66  99 131 183 240 300 369 455
#     4  12  24  43  67  99 145 192 244 303 379 452
#     4  12  26  52  76 110 156 204 258 316 368 450
#     4   9  21  41  69 104 143 185 244 311 375 447
#     4  12  25  42  65 100 147 195 240 306 380 447
#     4  11  22  44  71 106 152 193 248 309 376 453
#
# _framework density 22.521352
#
# number of rings (size 3 to 8) (size 9 to 14) (size 15 to 20)
#    0.000    0.828    4.138    3.103    0.000    4.414 
#    2.483    3.448    0.000    0.000    0.000    0.000 
#    0.000    0.000    0.000    0.000    0.000    0.000 
#
# Total GULP energy -647793.249575 kJ/mol
# GULP energy per Si atom -5584.424565 kJ/mol
# Density = 2.247009 g / cm^3
# Si number density = 22.521352 Si / 1000 Ang^3
#
#
#
# Elastic Constant Matrix: (Units=GPa)
#
#
# Indices 1 2 3 4 5 6 
#
# 1 76.1526 19.9125 20.6961 0.0000 0.0000 0.0000
# 2 19.9125 76.1525 20.6961 0.0000 0.0000 0.0000
# 3 20.6961 20.6961 97.1805 0.0000 0.0000 0.0000
# 4 0.0000 0.0000 0.0000 -62.9197 0.0000 0.0000
# 5 0.0000 0.0000 0.0000 0.0000 -62.8802 0.0000
# 6 0.0000 0.0000 0.0000 0.0000 0.0000 477.3033
#
#
#
# Elastic Compliance Matrix: (Units=1/GPa)
#
#
# Indices 1 2 3 4 5 6 
#
# 1 0.014621 -0.003160 -0.002441 0.000000 0.000000 0.000000
# 2 -0.003160 0.014621 -0.002441 0.000000 0.000000 0.000000
# 3 -0.002441 -0.002441 0.011330 0.000000 0.000000 0.000000
# 4 0.000000 0.000000 0.000000 -0.015893 0.000000 0.000000
# 5 0.000000 0.000000 0.000000 0.000000 -0.015903 0.000000
# 6 0.000000 0.000000 0.000000 0.000000 0.000000 0.002095
#
#
# Mechanical properties :
#
#
# Convention : Reuss Voigt Hill
#
# Bulk Modulus (GPa) = 40.83475 41.34390 41.08932
# Shear Modulus (GPa) = 142.38251 82.84607 112.61429
#
# Velocity S-wave (km/s) = 7.95980 6.07169 7.07898
# Velocity P-wave (km/s) = 10.13157 8.21897 9.22497
#
# Compressibility (1/GPa) = 0.02448895
#
# Stress axis : x y z
#
# Youngs Moduli (GPa) = 68.39419 68.39417 88.26301
#
# Poissons Ratio (x) = 0.21611 0.21544
# Poissons Ratio (y) = 0.21611 0.21544
# Poissons Ratio (z) = 0.16694 0.16694
#
# Static dielectric constant tensor:
#      x y z
#    x 1.860480 0.000000 0.000000 
#    y 0.000000 1.860480 0.000000 
#    z 0.000000 0.000000 1.844360 
# 
# From -- ./inp_files/4604.got.cif
#   From: 2010.05.17/outbox.cif.g08.bks.cpg/sg135_3_cif.got.tgz:4604.got - 2010.05.20 12:50:20.
