data_PCOD9569922
_publ_section_title
;
Structure prediction by ZEFSAII (Michael W. Deem and Ramdas Pophale) SiO2 
 PCOD9569922
Probable space group: P 42/M N M
;
_chemical_formula_sum "Si O2"
_cell_formula_units_Z 80
_cell_length_a 12.000000
_cell_length_b 12.000000
_cell_length_c 30.000000
_cell_angle_alpha 90.000000
_cell_angle_beta 90.000000
_cell_angle_gamma 90.000000
_cell_volume 4320.000000
_symmetry_space_group_name_H-M "P 42/M N M"
_symmetry_group_IT_number 136
_symmetry_cell_setting 'tetragonal'
loop_
_space_group_symop_operation_xyz
x,y,z
1/2-y,1/2+x,1/2+z
-x,-y,z
1/2+y,1/2-x,1/2+z
1/2+x,1/2-y,1/2-z
1/2-x,1/2+y,1/2-z
y,x,-z
-y,-x,-z
-x,-y,-z
1/2+y,1/2-x,1/2-z
x,y,-z
1/2-y,1/2+x,1/2-z
1/2-x,1/2+y,1/2+z
1/2+x,1/2-y,1/2+z
-y,-x,z
y,x,z
loop_
_atom_site_type_symbol
_atom_site_label
_atom_site_fract_x
_atom_site_fract_y
_atom_site_fract_z
Si Si1 0.185257 0.625255 0.446969
Si Si2 0.586835 0.773301 0.386935
Si Si3 0.975231 0.332543 0.636210
Si Si4 0.266554 0.075530 0.190364
Si Si5 0.505978 0.682257 0.218816
O O1 0.152958 0.620092 0.500000
O O2 0.289508 0.710493 0.443755
O O3 0.218854 0.503578 0.427252
O O4 0.091751 0.669693 0.411200
O O5 0.693047 0.693047 0.395851
O O6 0.519497 0.725620 0.344047
O O7 0.620696 0.901550 0.374992
O O8 0.888131 0.395772 0.669762
O O9 0.995723 0.226254 0.668120
O O10 0.183238 0.183238 0.187832
O O11 0.265593 0.028486 0.240920
O O12 0.414436 0.585565 0.222457
O O13 0.626200 0.626200 0.227821
#
# Coordination Sequence:
#
# PCOD9569922 Si02
#       5
#    16  16  16  16  16
#     4  10  22  42  67  91 116 153 202 255 311 366
#     4  11  23  38  58  89 126 158 195 246 303 369
#     4  11  22  38  59  87 123 160 199 247 302 363
#     4  10  21  37  59  85 117 161 205 252 302 350
#     4  10  21  36  56  84 121 165 208 251 300 359
#
# _framework density 18.518519000000001
#
# number of rings (size 3 to 8) (size 9 to 14) (size 15 to 20)
#    0.000    1.600    0.000    7.200    2.800    4.400 
#    0.000    1.000    0.000    1.800    0.000    7.000 
#    0.000    0.000    0.000    0.000    0.000    0.000 
#
# Total GULP energy -445822.115571 kJ/mol
# GULP energy per Si atom -5572.776445 kJ/mol
# Density = 1.847637 g / cm^3
# Si number density = 18.518519 Si / 1000 Ang^3
#
#
#
# Elastic Constant Matrix: (Units=GPa)
#
#
# Indices 1 2 3 4 5 6 
#
# 1 98.7666 39.7317 43.7288 0.0000 0.0000 0.0000
# 2 39.7317 98.7666 43.7288 0.0000 0.0000 0.0000
# 3 43.7288 43.7288 153.0894 0.0000 0.0000 0.0000
# 4 0.0000 0.0000 0.0000 34.3635 0.0000 0.0000
# 5 0.0000 0.0000 0.0000 0.0000 34.3635 0.0000
# 6 0.0000 0.0000 0.0000 0.0000 0.0000 23.3256
#
#
#
# Elastic Compliance Matrix: (Units=1/GPa)
#
#
# Indices 1 2 3 4 5 6 
#
# 1 0.012874 -0.004065 -0.002516 0.000000 0.000000 0.000000
# 2 -0.004065 0.012874 -0.002516 0.000000 0.000000 0.000000
# 3 -0.002516 -0.002516 0.007970 0.000000 0.000000 0.000000
# 4 0.000000 0.000000 0.000000 0.029101 0.000000 0.000000
# 5 0.000000 0.000000 0.000000 0.000000 0.029101 0.000000
# 6 0.000000 0.000000 0.000000 0.000000 0.000000 0.042871
#
#
# Mechanical properties :
#
#
# Convention : Reuss Voigt Hill
#
# Bulk Modulus (GPa) = 64.42051 67.22233 65.82142
# Shear Modulus (GPa) = 31.61353 33.30607 32.45980
#
# Velocity S-wave (km/s) = 4.13623 4.24551 4.19122
# Velocity P-wave (km/s) = 7.59432 7.77247 7.68391
#
# Compressibility (1/GPa) = 0.01552301
#
# Stress axis : x y z
#
# Youngs Moduli (GPa) = 77.67473 77.67473 125.47600
#
# Poissons Ratio (x) = 0.31574 0.31574
# Poissons Ratio (y) = 0.31574 0.31574
# Poissons Ratio (z) = 0.19545 0.19545
#
# Static dielectric constant tensor:
#      x y z
#    x 1.687210 0.000000 0.000000 
#    y 0.000000 1.687210 0.000000 
#    z 0.000000 0.000000 1.634560 
# 
# From -- ./inp_files/9539.got.cif
#   From: 2010.05.17/outbox.ucp.g08.bks.cvg/sg136_5_cif.got.tgz:9539.got - 2010.06.11 11:40:42.
