data_PCOD9569900
_publ_section_title
;
Structure prediction by ZEFSAII (Michael W. Deem and Ramdas Pophale) SiO2 
 PCOD9569900
Probable space group: P 42/M N M
;
_chemical_formula_sum "Si O2"
_cell_formula_units_Z 64
_cell_length_a 14.587222
_cell_length_b 14.587222
_cell_length_c 13.981735
_cell_angle_alpha 90.000000
_cell_angle_beta 90.000000
_cell_angle_gamma 90.000000
_cell_volume 2975.132084
_symmetry_space_group_name_H-M "P 42/M N M"
_symmetry_group_IT_number 136
_symmetry_cell_setting 'tetragonal'
loop_
_space_group_symop_operation_xyz
x,y,z
1/2-y,1/2+x,1/2+z
-x,-y,z
1/2+y,1/2-x,1/2+z
1/2+x,1/2-y,1/2-z
1/2-x,1/2+y,1/2-z
y,x,-z
-y,-x,-z
-x,-y,-z
1/2+y,1/2-x,1/2-z
x,y,-z
1/2-y,1/2+x,1/2-z
1/2-x,1/2+y,1/2+z
1/2+x,1/2-y,1/2+z
-y,-x,z
y,x,z
loop_
_atom_site_type_symbol
_atom_site_label
_atom_site_fract_x
_atom_site_fract_y
_atom_site_fract_z
Si Si1 0.992984 0.147042 0.799927
Si Si2 0.869052 0.720053 0.884713
Si Si3 0.567472 0.285712 0.111233
Si Si4 0.984312 0.396996 0.384482
O O1 0.068166 0.068166 0.823300
O O2 0.034666 0.236095 0.850687
O O3 0.001388 0.163936 0.686278
O O4 0.894862 0.105139 0.826327
O O5 0.786239 0.786239 0.851482
O O6 0.861427 0.615271 0.852338
O O7 0.867980 0.721318 0.000000
O O8 0.665804 0.334197 0.122385
O O9 0.560951 0.178776 0.137059
O O10 0.540112 0.296930 0.000000
O O11 0.980739 0.401281 0.500000
O O12 0.000000 0.500000 0.351492
#
# Coordination Sequence:
#
# PCOD9569900 Si02
#       4
#    16  16  16  16
#     4   9  18  33  52  78 111 142 180 229 275 324
#     4   9  18  34  55  77 105 144 186 227 273 325
#     4   9  18  34  56  81 111 145 180 225 280 333
#     4   9  18  35  57  80 109 144 182 226 275 329
#
# _framework density 21.511649999999999
#
# number of rings (size 3 to 8) (size 9 to 14) (size 15 to 20)
#    0.000    3.000    0.000    0.000    0.000    2.000 
#    4.500    8.750    0.000    4.500    0.000    0.000 
#    0.000    0.000    0.000    0.000    0.000    0.000 
#
# Total GULP energy -356685.783757 kJ/mol
# GULP energy per Si atom -5573.215371 kJ/mol
# Density = 2.146269 g / cm^3
# Si number density = 21.511650 Si / 1000 Ang^3
#
#
#
# Elastic Constant Matrix: (Units=GPa)
#
#
# Indices 1 2 3 4 5 6 
#
# 1 108.3470 69.9186 2.3541 0.0000 0.0000 0.0000
# 2 69.9186 108.3470 2.3541 0.0000 0.0000 0.0000
# 3 2.3541 2.3541 46.4792 0.0000 0.0000 0.0000
# 4 0.0000 0.0000 0.0000 -3.6374 0.0000 0.0000
# 5 0.0000 0.0000 0.0000 0.0000 -3.6374 0.0000
# 6 0.0000 0.0000 0.0000 0.0000 0.0000 29.4789
#
#
#
# Elastic Compliance Matrix: (Units=1/GPa)
#
#
# Indices 1 2 3 4 5 6 
#
# 1 0.015820 -0.010203 -0.000284 0.000000 0.000000 0.000000
# 2 -0.010203 0.015820 -0.000284 0.000000 0.000000 0.000000
# 3 -0.000284 -0.000284 0.021544 0.000000 0.000000 0.000000
# 4 0.000000 0.000000 0.000000 -0.274925 0.000000 0.000000
# 5 0.000000 0.000000 0.000000 0.000000 -0.274925 0.000000
# 6 0.000000 0.000000 0.000000 0.000000 0.000000 0.033923
#
#
# Mechanical properties :
#
#
# Convention : Reuss Voigt Hill
#
# Bulk Modulus (GPa) = 31.60549 45.82518 38.71533
# Shear Modulus (GPa) = -11.61027 17.01060 2.70016
#
# Velocity S-wave (km/s) = -2.32571 2.81510 1.12158
# Velocity P-wave (km/s) = 2.74085 5.64935 4.44001
#
# Compressibility (1/GPa) = 0.03164007
#
# Stress axis : x y z
#
# Youngs Moduli (GPa) = 63.21206 63.21206 46.41704
#
# Poissons Ratio (x) = 0.64493 0.01321
# Poissons Ratio (y) = 0.64493 0.01321
# Poissons Ratio (z) = 0.01798 0.01798
#
# Static dielectric constant tensor:
#      x y z
#    x 1.787290 0.000000 0.000000 
#    y 0.000000 1.787290 0.000000 
#    z 0.000000 0.000000 1.790350 
# 
# From -- ./inp_files/4688.got.cif
#   From: 2010.05.17/outbox.cif.g08.bks.cpg/sg136_3_cif.got.tgz:4688.got - 2010.05.20 12:54:53.
