data_PCOD9569308
_publ_section_title
;
Structure prediction by ZEFSAII (Michael W. Deem and Ramdas Pophale) SiO2 
 PCOD9569308
Probable space group: P 42/M N M
;
_chemical_formula_sum "Si O2"
_cell_formula_units_Z 64
_cell_length_a 15.242927
_cell_length_b 15.242927
_cell_length_c 14.876049
_cell_angle_alpha 90.000000
_cell_angle_beta 90.000000
_cell_angle_gamma 90.000000
_cell_volume 3456.402732
_symmetry_space_group_name_H-M "P 42/M N M"
_symmetry_group_IT_number 136
_symmetry_cell_setting 'tetragonal'
loop_
_space_group_symop_operation_xyz
x,y,z
1/2-y,1/2+x,1/2+z
-x,-y,z
1/2+y,1/2-x,1/2+z
1/2+x,1/2-y,1/2-z
1/2-x,1/2+y,1/2-z
y,x,-z
-y,-x,-z
-x,-y,-z
1/2+y,1/2-x,1/2-z
x,y,-z
1/2-y,1/2+x,1/2-z
1/2-x,1/2+y,1/2+z
1/2+x,1/2-y,1/2+z
-y,-x,z
y,x,z
loop_
_atom_site_type_symbol
_atom_site_label
_atom_site_fract_x
_atom_site_fract_y
_atom_site_fract_z
Si Si1 0.793032 0.059645 0.710544
Si Si2 0.146680 0.003444 0.099295
Si Si3 0.609212 0.247647 0.893377
Si Si4 0.108940 0.413004 0.737611
O O1 0.869876 0.130124 0.697448
O O2 0.696037 0.100800 0.703567
O O3 0.799422 0.021923 0.812669
O O4 0.796806 0.976821 0.644594
O O5 0.095548 0.095548 0.111264
O O6 0.189660 0.002686 0.000000
O O7 0.070483 0.929518 0.096109
O O8 0.694650 0.305351 0.870675
O O9 0.613177 0.153775 0.845036
O O10 0.604152 0.238695 0.000000
O O11 0.105687 0.516286 0.714033
#
# Coordination Sequence:
#
# PCOD9569308 Si02
#       4
#    16  16  16  16
#     4  10  19  32  53  80 112 148 180 218 272 332
#     4   8  14  25  43  71 106 140 174 213 260 316
#     4  10  21  36  56  83 112 142 178 220 267 325
#     4   9  19  37  56  76 100 135 185 234 273 306
#
# _framework density 18.516361
#
# number of rings (size 3 to 8) (size 9 to 14) (size 15 to 20)
#    0.000    2.750    0.000    2.250    0.000    3.000 
#    0.000   13.750    0.000    6.000    0.000    0.000 
#    0.000    0.000    0.000    0.000    0.000    0.000 
#
# Total GULP energy -356457.762110 kJ/mol
# GULP energy per Si atom -5569.652533 kJ/mol
# Density = 1.847422 g / cm^3
# Si number density = 18.516361 Si / 1000 Ang^3
#
#
#
# Elastic Constant Matrix: (Units=GPa)
#
#
# Indices 1 2 3 4 5 6 
#
# 1 96.3460 55.4271 52.1862 0.0000 0.0000 0.0000
# 2 55.4271 96.3460 52.1862 0.0000 0.0000 0.0000
# 3 52.1862 52.1862 62.8668 0.0000 0.0000 0.0000
# 4 0.0000 0.0000 0.0000 17.6712 0.0000 0.0000
# 5 0.0000 0.0000 0.0000 0.0000 17.6712 0.0000
# 6 0.0000 0.0000 0.0000 0.0000 0.0000 20.0203
#
#
#
# Elastic Compliance Matrix: (Units=1/GPa)
#
#
# Indices 1 2 3 4 5 6 
#
# 1 0.019896 -0.004543 -0.012745 0.000000 0.000000 0.000000
# 2 -0.004543 0.019896 -0.012745 0.000000 0.000000 0.000000
# 3 -0.012745 -0.012745 0.037066 0.000000 0.000000 0.000000
# 4 0.000000 0.000000 0.000000 0.056589 0.000000 0.000000
# 5 0.000000 0.000000 0.000000 0.000000 0.056589 0.000000
# 6 0.000000 0.000000 0.000000 0.000000 0.000000 0.049949
#
#
# Mechanical properties :
#
#
# Convention : Reuss Voigt Hill
#
# Bulk Modulus (GPa) = 59.54885 63.90644 61.72765
# Shear Modulus (GPa) = 16.35870 17.45649 16.90759
#
# Velocity S-wave (km/s) = 2.97555 3.07377 3.02506
# Velocity P-wave (km/s) = 6.63590 6.86920 6.75355
#
# Compressibility (1/GPa) = 0.01679293
#
# Stress axis : x y z
#
# Youngs Moduli (GPa) = 50.26153 50.26153 26.97904
#
# Poissons Ratio (x) = 0.22832 0.34384
# Poissons Ratio (y) = 0.22832 0.34384
# Poissons Ratio (z) = 0.64058 0.64058
#
# Static dielectric constant tensor:
#      x y z
#    x 1.672410 0.000000 0.000000 
#    y 0.000000 1.672410 0.000000 
#    z 0.000000 0.000000 1.621730 
# 
# From -- ./inp_files/4707.got.cif
#   From: 2010.05.17/outbox.cif.g08.bks.cpg/sg136_3_cif.got.tgz:4707.got - 2010.05.20 12:54:53.
