data_PCOD9569855
_publ_section_title
;
Structure prediction by ZEFSAII (Michael W. Deem and Ramdas Pophale) SiO2 
 PCOD9569855
Probable space group: P 42/M N M
;
_chemical_formula_sum "Si O2"
_cell_formula_units_Z 80
_cell_length_a 18.261487
_cell_length_b 18.261487
_cell_length_c 13.949501
_cell_angle_alpha 90.000000
_cell_angle_beta 90.000000
_cell_angle_gamma 90.000000
_cell_volume 4651.906201
_symmetry_space_group_name_H-M "P 42/M N M"
_symmetry_group_IT_number 136
_symmetry_cell_setting 'tetragonal'
loop_
_space_group_symop_operation_xyz
x,y,z
1/2-y,1/2+x,1/2+z
-x,-y,z
1/2+y,1/2-x,1/2+z
1/2+x,1/2-y,1/2-z
1/2-x,1/2+y,1/2-z
y,x,-z
-y,-x,-z
-x,-y,-z
1/2+y,1/2-x,1/2-z
x,y,-z
1/2-y,1/2+x,1/2-z
1/2-x,1/2+y,1/2+z
1/2+x,1/2-y,1/2+z
-y,-x,z
y,x,z
loop_
_atom_site_type_symbol
_atom_site_label
_atom_site_fract_x
_atom_site_fract_y
_atom_site_fract_z
Si Si1 0.876199 0.243779 0.813524
Si Si2 0.595230 0.137852 0.500000
Si Si3 0.440157 0.559844 0.884981
Si Si4 0.846237 0.726222 0.183000
Si Si5 0.335649 0.921956 0.000000
Si Si6 0.982966 0.675417 0.500000
Si Si7 0.019343 0.220696 0.687129
O O1 0.826586 0.173415 0.838884
O O2 0.825250 0.297902 0.751644
O O3 0.944401 0.222540 0.746818
O O4 0.903507 0.287034 0.906857
O O5 0.626588 0.179942 0.407449
O O6 0.507297 0.142476 0.500000
O O7 0.623952 0.054569 0.500000
O O8 0.500000 0.500000 0.855058
O O9 0.462744 0.639268 0.847717
O O10 0.437990 0.562011 0.000000
O O11 0.794715 0.794715 0.154536
O O12 0.915470 0.753282 0.243713
O O13 0.408637 0.872124 0.000000
O O14 0.984925 0.726270 0.594705
#
# Coordination Sequence:
#
# PCOD9569855 Si02
#       7
#    16   8   8  16   8   8  16
#     4  11  24  41  64  93 123 167 213 262 311 371
#     4  12  24  43  62  90 130 163 206 261 312 383
#     4  11  24  40  64  99 129 167 211 261 326 380
#     4  11  23  40  66  89 120 167 214 255 314 371
#     4  12  24  41  65  91 128 164 210 261 308 381
#     4  12  25  39  63  98 121 162 211 257 316 373
#     4  12  22  42  64  89 131 165 206 261 314 376
#
# _framework density 17.197251000000001
#
# number of rings (size 3 to 8) (size 9 to 14) (size 15 to 20)
#    0.000    0.500    8.000    1.500    0.000    0.000 
#    1.800    0.000    0.000    0.000    0.000    4.200 
#    0.000    0.000    0.000    0.000    0.000    0.000 
#
# Total GULP energy -447218.853823 kJ/mol
# GULP energy per Si atom -5590.235673 kJ/mol
# Density = 1.715811 g / cm^3
# Si number density = 17.197251 Si / 1000 Ang^3
#
#
#
# Elastic Constant Matrix: (Units=GPa)
#
#
# Indices 1 2 3 4 5 6 
#
# 1 142.1833 71.7521 54.7409 0.0000 0.0000 0.0000
# 2 71.7521 142.1834 54.7409 0.0000 0.0000 0.0000
# 3 54.7409 54.7409 107.0445 0.0000 0.0000 0.0000
# 4 0.0000 0.0000 0.0000 31.6738 0.0000 0.0000
# 5 0.0000 0.0000 0.0000 0.0000 31.6736 0.0000
# 6 0.0000 0.0000 0.0000 0.0000 0.0000 33.3028
#
#
#
# Elastic Compliance Matrix: (Units=1/GPa)
#
#
# Indices 1 2 3 4 5 6 
#
# 1 0.010265 -0.003934 -0.003238 0.000000 0.000000 0.000000
# 2 -0.003934 0.010265 -0.003238 0.000000 0.000000 0.000000
# 3 -0.003238 -0.003238 0.012653 0.000000 0.000000 0.000000
# 4 0.000000 0.000000 0.000000 0.031572 0.000000 0.000000
# 5 0.000000 0.000000 0.000000 0.000000 0.031572 0.000000
# 6 0.000000 0.000000 0.000000 0.000000 0.000000 0.030027
#
#
# Mechanical properties :
#
#
# Convention : Reuss Voigt Hill
#
# Bulk Modulus (GPa) = 80.87347 83.76432 82.31889
# Shear Modulus (GPa) = 33.04835 33.34187 33.19511
#
# Velocity S-wave (km/s) = 4.38850 4.40795 4.39824
# Velocity P-wave (km/s) = 8.53274 8.64409 8.58860
#
# Compressibility (1/GPa) = 0.01236499
#
# Stress axis : x y z
#
# Youngs Moduli (GPa) = 97.42104 97.42111 79.03072
#
# Poissons Ratio (x) = 0.38321 0.25588
# Poissons Ratio (y) = 0.38321 0.25588
# Poissons Ratio (z) = 0.31542 0.31542
#
# Static dielectric constant tensor:
#      x y z
#    x 1.554760 0.000000 0.000000 
#    y 0.000000 1.554760 0.000000 
#    z 0.000000 0.000000 1.547350 
# 
# From -- ./inp_files/4984.got.cif
#   From: 2010.05.17/outbox.cif.g08.bks.cpg/sg136_3_cif.got.tgz:4984.got - 2010.05.20 12:54:53.
