data_PCOD9569595
_publ_section_title
;
Structure prediction by ZEFSAII (Michael W. Deem and Ramdas Pophale) SiO2 
 PCOD9569595
Probable space group: P 42/M N M
;
_chemical_formula_sum "Si O2"
_cell_formula_units_Z 112
_cell_length_a 14.330494
_cell_length_b 14.330494
_cell_length_c 29.165492
_cell_angle_alpha 90.000000
_cell_angle_beta 90.000000
_cell_angle_gamma 90.000000
_cell_volume 5989.514633
_symmetry_space_group_name_H-M "P 42/M N M"
_symmetry_group_IT_number 136
_symmetry_cell_setting 'tetragonal'
loop_
_space_group_symop_operation_xyz
x,y,z
1/2-y,1/2+x,1/2+z
-x,-y,z
1/2+y,1/2-x,1/2+z
1/2+x,1/2-y,1/2-z
1/2-x,1/2+y,1/2-z
y,x,-z
-y,-x,-z
-x,-y,-z
1/2+y,1/2-x,1/2-z
x,y,-z
1/2-y,1/2+x,1/2-z
1/2-x,1/2+y,1/2+z
1/2+x,1/2-y,1/2+z
-y,-x,z
y,x,z
loop_
_atom_site_type_symbol
_atom_site_label
_atom_site_fract_x
_atom_site_fract_y
_atom_site_fract_z
Si Si1 0.820930 0.331778 0.000000
Si Si2 0.532971 0.889070 0.577361
Si Si3 0.063329 0.793289 0.600268
Si Si4 0.579511 0.267419 0.820714
Si Si5 0.501169 0.345588 0.270066
Si Si6 0.772453 0.618465 0.340527
Si Si7 0.837110 0.984159 0.500000
Si Si8 0.802224 0.341437 0.447907
O O1 0.882420 0.364392 0.043293
O O2 0.772293 0.227708 0.000000
O O3 0.736557 0.402081 0.000000
O O4 0.565201 0.840215 0.624240
O O5 0.447672 0.827354 0.558535
O O6 0.500000 0.000000 0.578498
O O7 0.117962 0.882039 0.621114
O O8 0.137476 0.712677 0.589665
O O9 0.983995 0.756685 0.634125
O O10 0.032631 0.822083 0.549019
O O11 0.638742 0.361259 0.828841
O O12 0.521442 0.284148 0.774740
O O13 0.654549 0.185376 0.814162
O O14 0.595134 0.404867 0.282064
O O15 0.422880 0.422880 0.258920
O O16 0.456854 0.282448 0.309962
O O17 0.692223 0.692223 0.359022
O O18 0.935899 0.935899 0.500000
O O19 0.832034 0.315574 0.500000
O O20 0.696720 0.303281 0.443628
#
# Coordination Sequence:
#
# PCOD9569595 Si02
#       8
#     8  16  16  16  16  16   8  16
#     4  11  23  38  59  86 116 161 205 244 296 354
#     4  12  23  38  63  90 119 156 203 247 292 358
#     4  11  21  34  54  81 117 158 196 233 283 346
#     4  10  20  37  59  86 119 152 192 242 295 354
#     4   9  19  39  66  90 115 155 204 247 298 366
#     4  10  22  41  62  88 122 155 190 247 308 355
#     4  11  21  31  47  78 119 154 191 235 277 331
#     4  10  21  38  56  78 115 156 194 242 292 337
#
# _framework density 18.699345000000001
#
# number of rings (size 3 to 8) (size 9 to 14) (size 15 to 20)
#    0.000    1.571    1.429    4.286    0.000    4.857 
#    5.143    0.000    0.000    1.714    0.000    0.000 
#    0.000    0.000    0.000    0.000    0.000    0.000 
#
# Total GULP energy -623663.120489 kJ/mol
# GULP energy per Si atom -5568.420719 kJ/mol
# Density = 1.865678 g / cm^3
# Si number density = 18.699345 Si / 1000 Ang^3
#
#
#
# Elastic Constant Matrix: (Units=GPa)
#
#
# Indices 1 2 3 4 5 6 
#
# 1 50.4234 107.5313 45.7775 0.0000 0.0000 0.0000
# 2 107.5313 50.4267 45.7781 0.0000 0.0000 0.0000
# 3 45.7775 45.7781 81.3435 0.0000 0.0000 0.0000
# 4 0.0000 0.0000 0.0000 4.7941 0.0000 0.0000
# 5 0.0000 0.0000 0.0000 0.0000 4.7991 0.0000
# 6 0.0000 0.0000 0.0000 0.0000 0.0000 33.8164
#
#
#
# Elastic Compliance Matrix: (Units=1/GPa)
#
#
# Indices 1 2 3 4 5 6 
#
# 1 -0.004058 0.013453 -0.005288 0.000000 0.000000 0.000000
# 2 0.013453 -0.004058 -0.005288 0.000000 0.000000 0.000000
# 3 -0.005288 -0.005288 0.018245 0.000000 0.000000 0.000000
# 4 0.000000 0.000000 0.000000 0.208589 0.000000 0.000000
# 5 0.000000 0.000000 0.000000 0.000000 0.208373 0.000000
# 6 0.000000 0.000000 0.000000 0.000000 0.000000 0.029571
#
#
# Mechanical properties :
#
#
# Convention : Reuss Voigt Hill
#
# Bulk Modulus (GPa) = 62.94897 64.48525 63.71711
# Shear Modulus (GPa) = 10.96006 7.55571 9.25789
#
# Velocity S-wave (km/s) = 2.42362 2.01231 2.22748
# Velocity P-wave (km/s) = 6.44738 6.32134 6.38467
#
# Compressibility (1/GPa) = 0.01588588
#
# Stress axis : x y z
#
# Youngs Moduli (GPa) = -246.42784 -246.45542 54.80950
#
# Poissons Ratio (x) = 3.31568 0.28981
# Poissons Ratio (y) = 3.31531 0.28982
# Poissons Ratio (z) = -1.30301 -1.30318
#
# Static dielectric constant tensor:
#      x y z
#    x 1.675990 0.000000 0.000000 
#    y 0.000000 1.675990 0.000000 
#    z 0.000000 0.000000 1.661560 
# 
# From -- ./inp_files/9232.got.cif
#   From: 2010.05.17/outbox.cif.g08.bks.cpg/sg136_5_cif.got.tgz:9232.got - 2010.05.20 12:54:53.
