data_PCOD9569095
_publ_section_title
;
Structure prediction by ZEFSAII (Michael W. Deem and Ramdas Pophale) SiO2 
 PCOD9569095
Probable space group: P 42/M N M
;
_chemical_formula_sum "Si O2"
_cell_formula_units_Z 88
_cell_length_a 18.097575
_cell_length_b 18.097575
_cell_length_c 13.941728
_cell_angle_alpha 90.000000
_cell_angle_beta 90.000000
_cell_angle_gamma 90.000000
_cell_volume 4566.225717
_symmetry_space_group_name_H-M "P 42/M N M"
_symmetry_group_IT_number 136
_symmetry_cell_setting 'tetragonal'
loop_
_space_group_symop_operation_xyz
x,y,z
1/2-y,1/2+x,1/2+z
-x,-y,z
1/2+y,1/2-x,1/2+z
1/2+x,1/2-y,1/2-z
1/2-x,1/2+y,1/2-z
y,x,-z
-y,-x,-z
-x,-y,-z
1/2+y,1/2-x,1/2-z
x,y,-z
1/2-y,1/2+x,1/2-z
1/2-x,1/2+y,1/2+z
1/2+x,1/2-y,1/2+z
-y,-x,z
y,x,z
loop_
_atom_site_type_symbol
_atom_site_label
_atom_site_fract_x
_atom_site_fract_y
_atom_site_fract_z
Si Si1 0.315596 0.097752 0.892130
Si Si2 0.259214 0.259214 0.680980
Si Si3 0.871740 0.128261 0.890096
Si Si4 0.334690 0.967451 0.613588
Si Si5 0.637494 0.145432 0.114465
Si Si6 0.767329 0.232672 0.396197
Si Si7 0.253621 0.466560 0.292037
O O1 0.401455 0.108141 0.862718
O O2 0.284664 0.180516 0.897304
O O3 0.265432 0.048827 0.824349
O O4 0.314135 0.065667 0.000000
O O5 0.308265 0.308265 0.608985
O O6 0.281802 0.175157 0.661366
O O7 0.286924 0.286924 0.785987
O O8 0.937542 0.168982 0.833133
O O9 0.890660 0.109341 0.000000
O O10 0.319373 0.960699 0.500000
O O11 0.262467 0.956587 0.679422
O O12 0.362699 0.050375 0.633173
O O13 0.687843 0.080571 0.157214
O O14 0.646189 0.148779 0.000000
O O15 0.796770 0.203231 0.500000
#
# Coordination Sequence:
#
# PCOD9569095 Si02
#       7
#    16   8   8  16  16   8  16
#     4  10  20  34  51  71  98 131 165 203 251 300
#     4  10  16  30  50  70  96 133 166 205 250 286
#     4  10  20  32  50  75  96 121 166 212 245 285
#     4  10  21  33  47  73 105 134 166 202 243 298
#     4  10  20  33  50  74 102 131 169 210 244 288
#     4  10  20  32  48  71  96 127 168 206 242 297
#     4  11  19  34  53  73  98 133 167 204 248 294
#
# _framework density 19.271934999999999
#
# number of rings (size 3 to 8) (size 9 to 14) (size 15 to 20)
#    0.000    1.818    0.000    7.909    0.000    0.727 
#    0.000    5.000    0.000    0.545    0.000    2.545 
#    0.000    2.182    0.000   28.364    0.000    0.182 
#
# Total GULP energy -490494.585798 kJ/mol
# GULP energy per Si atom -5573.802111 kJ/mol
# Density = 1.922807 g / cm^3
# Si number density = 19.271935 Si / 1000 Ang^3
#
#
#
# Elastic Constant Matrix: (Units=GPa)
#
#
# Indices 1 2 3 4 5 6 
#
# 1 32.2932 25.1704 -13.2393 0.0000 0.0000 0.0000
# 2 25.1704 32.2934 -13.2390 0.0000 0.0000 0.0000
# 3 -13.2393 -13.2390 92.6663 0.0000 0.0000 0.0000
# 4 0.0000 0.0000 0.0000 21.3417 0.0000 0.0000
# 5 0.0000 0.0000 0.0000 0.0000 21.3418 0.0000
# 6 0.0000 0.0000 0.0000 0.0000 0.0000 19.9059
#
#
#
# Elastic Compliance Matrix: (Units=1/GPa)
#
#
# Indices 1 2 3 4 5 6 
#
# 1 0.079511 -0.060882 0.002662 0.000000 0.000000 0.000000
# 2 -0.060882 0.079510 0.002661 0.000000 0.000000 0.000000
# 3 0.002662 0.002661 0.011552 0.000000 0.000000 0.000000
# 4 0.000000 0.000000 0.000000 0.046857 0.000000 0.000000
# 5 0.000000 0.000000 0.000000 0.000000 0.046856 0.000000
# 6 0.000000 0.000000 0.000000 0.000000 0.000000 0.050236
#
#
# Mechanical properties :
#
#
# Convention : Reuss Voigt Hill
#
# Bulk Modulus (GPa) = 16.81946 17.18192 17.00069
# Shear Modulus (GPa) = 11.22442 23.08861 17.15652
#
# Velocity S-wave (km/s) = 2.41596 3.46503 2.98691
# Velocity P-wave (km/s) = 4.06557 4.99434 4.55370
#
# Compressibility (1/GPa) = 0.05945494
#
# Stress axis : x y z
#
# Youngs Moduli (GPa) = 12.57694 12.57706 86.56601
#
# Poissons Ratio (x) = 0.76571 -0.23041
# Poissons Ratio (y) = 0.76570 -0.23037
# Poissons Ratio (z) = -0.03348 -0.03347
#
# Static dielectric constant tensor:
#      x y z
#    x 1.690940 0.000000 0.000000 
#    y 0.000000 1.690940 0.000000 
#    z 0.000000 0.000000 1.767420 
# 
# From -- ./inp_files/5079.got.cif
#   From: 2010.05.17/outbox.cif.g08.bks.cpg/sg136_3_cif.got.tgz:5079.got - 2010.05.20 12:54:53.
