data_PCOD9569540
_publ_section_title
;
Structure prediction by ZEFSAII (Michael W. Deem and Ramdas Pophale) SiO2 
 PCOD9569540
Probable space group: P 42/M N M
;
_chemical_formula_sum "Si O2"
_cell_formula_units_Z 56
_cell_length_a 17.310707
_cell_length_b 17.310707
_cell_length_c 7.726404
_cell_angle_alpha 90.000000
_cell_angle_beta 90.000000
_cell_angle_gamma 90.000000
_cell_volume 2315.298680
_symmetry_space_group_name_H-M "P 42/M N M"
_symmetry_group_IT_number 136
_symmetry_cell_setting 'tetragonal'
loop_
_space_group_symop_operation_xyz
x,y,z
1/2-y,1/2+x,1/2+z
-x,-y,z
1/2+y,1/2-x,1/2+z
1/2+x,1/2-y,1/2-z
1/2-x,1/2+y,1/2-z
y,x,-z
-y,-x,-z
-x,-y,-z
1/2+y,1/2-x,1/2-z
x,y,-z
1/2-y,1/2+x,1/2-z
1/2-x,1/2+y,1/2+z
1/2+x,1/2-y,1/2+z
-y,-x,z
y,x,z
loop_
_atom_site_type_symbol
_atom_site_label
_atom_site_fract_x
_atom_site_fract_y
_atom_site_fract_z
Si Si1 0.950585 0.390142 0.301833
Si Si2 0.183500 0.051386 0.700878
Si Si3 0.064381 0.935620 0.287841
Si Si4 0.198519 0.679657 0.295722
O O1 0.906267 0.472296 0.301929
O O2 0.971058 0.370959 0.500000
O O3 0.887859 0.331108 0.226937
O O4 0.202805 0.038771 0.500000
O O5 0.112926 0.112926 0.707590
O O6 0.253571 0.099474 0.780171
O O7 0.146206 0.971650 0.769984
O O8 0.066817 0.933184 0.500000
O O9 0.000000 0.000000 0.240960
O O10 0.189103 0.694312 0.500000
O O11 0.252700 0.747301 0.221712
#
# Coordination Sequence:
#
# PCOD9569540 Si02
#       4
#    16  16   8  16
#     4  10  20  35  57  81 105 134 171 217 261 308
#     4   8  13  22  39  63  90 124 165 204 241 286
#     4   7  10  18  33  55  85 119 159 205 243 279
#     4   9  18  32  50  74 104 135 166 205 257 311
#
# _framework density 24.186945000000001
#
# number of rings (size 3 to 8) (size 9 to 14) (size 15 to 20)
#    0.000    3.286    0.000    3.429    0.000    2.286 
#    0.000    0.714    3.143    4.286    0.000    0.000 
#    0.000    0.000    0.000    0.000    0.000    0.000 
#
# Total GULP energy -312168.794281 kJ/mol
# GULP energy per Si atom -5574.442755 kJ/mol
# Density = 2.413189 g / cm^3
# Si number density = 24.186945 Si / 1000 Ang^3
#
#
#
# Elastic Constant Matrix: (Units=GPa)
#
#
# Indices 1 2 3 4 5 6 
#
# 1 44.8971 45.9962 -1.9811 0.0000 0.0000 0.0000
# 2 45.9962 44.8976 -1.9808 0.0000 0.0000 0.0000
# 3 -1.9811 -1.9808 38.8205 0.0000 0.0000 0.0000
# 4 0.0000 0.0000 0.0000 -12.1347 0.0000 0.0000
# 5 0.0000 0.0000 0.0000 0.0000 -12.1348 0.0000
# 6 0.0000 0.0000 0.0000 0.0000 0.0000 -4.9449
#
#
#
# Elastic Compliance Matrix: (Units=1/GPa)
#
#
# Indices 1 2 3 4 5 6 
#
# 1 -0.449507 0.460531 0.000559 0.000000 0.000000 0.000000
# 2 0.460531 -0.449503 0.000566 0.000000 0.000000 0.000000
# 3 0.000559 0.000566 0.025817 0.000000 0.000000 0.000000
# 4 0.000000 0.000000 0.000000 -0.082408 0.000000 0.000000
# 5 0.000000 0.000000 0.000000 0.000000 -0.082407 0.000000
# 6 0.000000 0.000000 0.000000 0.000000 0.000000 -0.202229
#
#
# Mechanical properties :
#
#
# Convention : Reuss Voigt Hill
#
# Bulk Modulus (GPa) = 19.95195 23.63156 21.79176
# Shear Modulus (GPa) = -2.32900 -0.07083 -1.19992
#
# Velocity S-wave (km/s) = -0.98235 -0.17132 -0.70511
# Velocity P-wave (km/s) = 2.64202 3.12289 2.89247
#
# Compressibility (1/GPa) = 0.05012040
#
# Stress axis : x y z
#
# Youngs Moduli (GPa) = -2.22466 -2.22468 38.73417
#
# Poissons Ratio (x) = 1.02454 -0.02165
# Poissons Ratio (y) = 1.02452 -0.02193
# Poissons Ratio (z) = 0.00124 0.00126
#
# Static dielectric constant tensor:
#      x y z
#    x 1.975710 0.000000 0.000000 
#    y 0.000000 1.975710 0.000000 
#    z 0.000000 0.000000 1.910620 
# 
# From -- ./inp_files/1152.got.cif
#   From: 2010.05.17/outbox.cif.g08.bks.cpg/sg136_1_cif.got.tgz:1152.got - 2010.05.20 12:54:53.
