data_PCOD9569810
_publ_section_title
;
Structure prediction by ZEFSAII (Michael W. Deem and Ramdas Pophale) SiO2 
 PCOD9569810
Probable space group: P 42/M N M
;
_chemical_formula_sum "Si O2"
_cell_formula_units_Z 56
_cell_length_a 11.911712
_cell_length_b 11.911712
_cell_length_c 18.934625
_cell_angle_alpha 90.000000
_cell_angle_beta 90.000000
_cell_angle_gamma 90.000000
_cell_volume 2686.612787
_symmetry_space_group_name_H-M "P 42/M N M"
_symmetry_group_IT_number 136
_symmetry_cell_setting 'tetragonal'
loop_
_space_group_symop_operation_xyz
x,y,z
1/2-y,1/2+x,1/2+z
-x,-y,z
1/2+y,1/2-x,1/2+z
1/2+x,1/2-y,1/2-z
1/2-x,1/2+y,1/2-z
y,x,-z
-y,-x,-z
-x,-y,-z
1/2+y,1/2-x,1/2-z
x,y,-z
1/2-y,1/2+x,1/2-z
1/2-x,1/2+y,1/2+z
1/2+x,1/2-y,1/2+z
-y,-x,z
y,x,z
loop_
_atom_site_type_symbol
_atom_site_label
_atom_site_fract_x
_atom_site_fract_y
_atom_site_fract_z
Si Si1 0.091155 0.091155 0.110281
Si Si2 0.844660 0.473172 0.415578
Si Si3 0.822763 0.008351 0.500000
Si Si4 0.093455 0.093455 0.720725
Si Si5 0.683650 0.964780 0.637620
O O1 0.215709 0.059758 0.086438
O O2 0.090689 0.090689 0.195260
O O3 0.000000 0.000000 0.085861
O O4 0.878757 0.471982 0.500000
O O5 0.867052 0.594127 0.379486
O O6 0.920738 0.390621 0.366216
O O7 0.926298 0.926298 0.500000
O O8 0.755332 0.980027 0.568120
O O9 0.864151 0.135850 0.500000
O O10 0.220306 0.060611 0.695437
O O11 0.000000 0.000000 0.694603
#
# Coordination Sequence:
#
# PCOD9569810 Si02
#       5
#     8  16   8   8  16
#     4  11  29  48  64  91 137 192 231 263 318 403
#     4  11  24  44  69 101 135 173 225 279 336 399
#     4  11  20  31  60 105 137 166 206 269 347 395
#     4  11  26  46  68  99 136 176 225 273 336 404
#     4  11  22  41  69 101 135 168 214 283 343 397
#
# _framework density 20.844090999999999
#
# number of rings (size 3 to 8) (size 9 to 14) (size 15 to 20)
#    0.000    1.000    4.286    2.143    6.000    3.429 
#    0.000    2.857    0.000    0.000    0.000    0.000 
#    0.000    0.000    0.000    0.000    0.000    0.000 
#
# Total GULP energy -312224.157543 kJ/mol
# GULP energy per Si atom -5575.431385 kJ/mol
# Density = 2.079665 g / cm^3
# Si number density = 20.844091 Si / 1000 Ang^3
#
#
#
# Elastic Constant Matrix: (Units=GPa)
#
#
# Indices 1 2 3 4 5 6 
#
# 1 149.7136 82.4323 22.8358 0.0000 0.0000 0.0000
# 2 82.4323 149.7125 22.8359 0.0000 0.0000 0.0000
# 3 22.8358 22.8359 73.4181 0.0000 0.0000 0.0000
# 4 0.0000 0.0000 0.0000 40.1006 0.0000 0.0000
# 5 0.0000 0.0000 0.0000 0.0000 40.1002 0.0000
# 6 0.0000 0.0000 0.0000 0.0000 0.0000 25.4591
#
#
#
# Elastic Compliance Matrix: (Units=1/GPa)
#
#
# Indices 1 2 3 4 5 6 
#
# 1 0.009726 -0.005137 -0.001427 0.000000 0.000000 0.000000
# 2 -0.005137 0.009726 -0.001427 0.000000 0.000000 0.000000
# 3 -0.001427 -0.001427 0.014508 0.000000 0.000000 0.000000
# 4 0.000000 0.000000 0.000000 0.024937 0.000000 0.000000
# 5 0.000000 0.000000 0.000000 0.000000 0.024938 0.000000
# 6 0.000000 0.000000 0.000000 0.000000 0.000000 0.039279
#
#
# Mechanical properties :
#
#
# Convention : Reuss Voigt Hill
#
# Bulk Modulus (GPa) = 55.62795 69.89470 62.76133
# Shear Modulus (GPa) = 34.46159 37.44798 35.95478
#
# Velocity S-wave (km/s) = 4.07049 4.24320 4.15774
# Velocity P-wave (km/s) = 6.98838 7.59021 7.29550
#
# Compressibility (1/GPa) = 0.01797658
#
# Stress axis : x y z
#
# Youngs Moduli (GPa) = 102.82018 102.81932 68.92541
#
# Poissons Ratio (x) = 0.52822 0.09837
# Poissons Ratio (y) = 0.52822 0.09837
# Poissons Ratio (z) = 0.14674 0.14674
#
# Static dielectric constant tensor:
#      x y z
#    x 1.880860 0.000000 0.000000 
#    y 0.000000 1.880860 0.000000 
#    z 0.000000 0.000000 1.707500 
# 
# From -- ./inp_files/6973.got.cif
#   From: 2010.05.17/outbox.cif.g08.bks.cpg/sg136_4_cif.got.tgz:6973.got - 2010.05.20 12:54:53.
