data_PCOD9569248
_publ_section_title
;
Structure prediction by ZEFSAII (Michael W. Deem and Ramdas Pophale) SiO2 
 PCOD9569248
Probable space group: P 42/M N M
;
_chemical_formula_sum "Si O2"
_cell_formula_units_Z 112
_cell_length_a 19.852280
_cell_length_b 19.852280
_cell_length_c 17.589368
_cell_angle_alpha 90.000000
_cell_angle_beta 90.000000
_cell_angle_gamma 90.000000
_cell_volume 6932.198963
_symmetry_space_group_name_H-M "P 42/M N M"
_symmetry_group_IT_number 136
_symmetry_cell_setting 'tetragonal'
loop_
_space_group_symop_operation_xyz
x,y,z
1/2-y,1/2+x,1/2+z
-x,-y,z
1/2+y,1/2-x,1/2+z
1/2+x,1/2-y,1/2-z
1/2-x,1/2+y,1/2-z
y,x,-z
-y,-x,-z
-x,-y,-z
1/2+y,1/2-x,1/2-z
x,y,-z
1/2-y,1/2+x,1/2-z
1/2-x,1/2+y,1/2+z
1/2+x,1/2-y,1/2+z
-y,-x,z
y,x,z
loop_
_atom_site_type_symbol
_atom_site_label
_atom_site_fract_x
_atom_site_fract_y
_atom_site_fract_z
Si Si1 0.702929 0.810529 0.142034
Si Si2 0.949529 0.752129 0.088966
Si Si3 0.854936 0.441478 0.168934
Si Si4 0.703636 0.188422 0.178807
Si Si5 0.301176 0.411590 0.409359
Si Si6 0.626878 0.067388 0.585881
Si Si7 0.996164 0.621449 0.166165
O O1 0.748324 0.748324 0.114242
O O2 0.746991 0.879334 0.134085
O O3 0.683408 0.796549 0.229473
O O4 0.633539 0.827875 0.099305
O O5 0.986726 0.680927 0.105083
O O6 0.008958 0.804083 0.109609
O O7 0.932827 0.758861 0.000000
O O8 0.811566 0.374486 0.158311
O O9 0.838709 0.497550 0.106909
O O10 0.848506 0.476554 0.251600
O O11 0.931814 0.413471 0.164884
O O12 0.744835 0.255166 0.157672
O O13 0.744158 0.127080 0.139566
O O14 0.285056 0.407166 0.500000
O O15 0.369813 0.369813 0.397061
O O16 0.602262 0.067481 0.500000
O O17 0.563831 0.071233 0.643392
#
# Coordination Sequence:
#
# PCOD9569248 Si02
#       7
#    16  16  16  16  16  16  16
#     4  10  20  35  53  72  97 130 169 212 251 296
#     4  10  19  30  49  72  93 125 164 197 242 293
#     4  12  20  32  50  69 102 136 162 202 247 291
#     4  10  19  32  52  74  94 129 173 205 247 296
#     4   9  18  32  49  71  99 126 159 203 245 293
#     4  11  24  34  47  73  99 133 173 204 246 300
#     4  11  19  31  47  67  97 137 163 197 235 286
#
# _framework density 16.156490000000002
#
# number of rings (size 3 to 8) (size 9 to 14) (size 15 to 20)
#    0.000    1.571    5.714    2.143    0.000    3.429 
#    0.000    0.000    0.000    0.429    0.000    2.000 
#    0.000    0.571    0.000    1.286    0.000    0.000 
#
# Total GULP energy -624010.177116 kJ/mol
# GULP energy per Si atom -5571.519439 kJ/mol
# Density = 1.611972 g / cm^3
# Si number density = 16.156490 Si / 1000 Ang^3
#
#
#
# Elastic Constant Matrix: (Units=GPa)
#
#
# Indices 1 2 3 4 5 6 
#
# 1 53.8537 29.4080 9.1293 0.0000 0.0000 0.0000
# 2 29.4080 53.8537 9.1293 0.0000 0.0000 0.0000
# 3 9.1293 9.1293 42.5172 0.0000 0.0000 0.0000
# 4 0.0000 0.0000 0.0000 15.2166 0.0000 0.0000
# 5 0.0000 0.0000 0.0000 0.0000 15.2166 0.0000
# 6 0.0000 0.0000 0.0000 0.0000 0.0000 20.8957
#
#
#
# Elastic Compliance Matrix: (Units=1/GPa)
#
#
# Indices 1 2 3 4 5 6 
#
# 1 0.026755 -0.014152 -0.002706 0.000000 0.000000 0.000000
# 2 -0.014152 0.026755 -0.002706 0.000000 0.000000 0.000000
# 3 -0.002706 -0.002706 0.024682 0.000000 0.000000 0.000000
# 4 0.000000 0.000000 0.000000 0.065718 0.000000 0.000000
# 5 0.000000 0.000000 0.000000 0.000000 0.065718 0.000000
# 6 0.000000 0.000000 0.000000 0.000000 0.000000 0.047857
#
#
# Mechanical properties :
#
#
# Convention : Reuss Voigt Hill
#
# Bulk Modulus (GPa) = 25.59868 27.28421 26.44144
# Shear Modulus (GPa) = 16.14807 17.10299 16.62553
#
# Velocity S-wave (km/s) = 3.16488 3.25712 3.21133
# Velocity P-wave (km/s) = 5.40684 5.57398 5.49104
#
# Compressibility (1/GPa) = 0.03906451
#
# Stress axis : x y z
#
# Youngs Moduli (GPa) = 37.37571 37.37571 40.51520
#
# Poissons Ratio (x) = 0.52892 0.10965
# Poissons Ratio (y) = 0.52892 0.10965
# Poissons Ratio (z) = 0.10115 0.10115
#
# Static dielectric constant tensor:
#      x y z
#    x 1.570380 0.000000 0.000000 
#    y 0.000000 1.570380 0.000000 
#    z 0.000000 0.000000 1.549790 
# 
# From -- ./inp_files/6581.got.cif
#   From: 2010.05.17/outbox.cif.g08.bks.cpg/sg136_4_cif.got.tgz:6581.got - 2010.05.20 12:54:53.
