data_PCOD9569873
_publ_section_title
;
Structure prediction by ZEFSAII (Michael W. Deem and Ramdas Pophale) SiO2 
 PCOD9569873
Probable space group: P 42/M N M
;
_chemical_formula_sum "Si O2"
_cell_formula_units_Z 48
_cell_length_a 12.252028
_cell_length_b 12.252028
_cell_length_c 17.107328
_cell_angle_alpha 90.000000
_cell_angle_beta 90.000000
_cell_angle_gamma 90.000000
_cell_volume 2568.018473
_symmetry_space_group_name_H-M "P 42/M N M"
_symmetry_group_IT_number 136
_symmetry_cell_setting 'tetragonal'
loop_
_space_group_symop_operation_xyz
x,y,z
1/2-y,1/2+x,1/2+z
-x,-y,z
1/2+y,1/2-x,1/2+z
1/2+x,1/2-y,1/2-z
1/2-x,1/2+y,1/2-z
y,x,-z
-y,-x,-z
-x,-y,-z
1/2+y,1/2-x,1/2-z
x,y,-z
1/2-y,1/2+x,1/2-z
1/2-x,1/2+y,1/2+z
1/2+x,1/2-y,1/2+z
-y,-x,z
y,x,z
loop_
_atom_site_type_symbol
_atom_site_label
_atom_site_fract_x
_atom_site_fract_y
_atom_site_fract_z
Si Si1 0.516985 0.187969 0.668622
Si Si2 0.023670 0.327671 0.347269
Si Si3 0.503974 0.680393 0.000000
Si Si4 0.412044 0.587957 0.407069
O O1 0.399875 0.134360 0.648327
O O2 0.523032 0.221616 0.759985
O O3 0.553509 0.291828 0.620191
O O4 0.595849 0.084044 0.654940
O O5 0.012432 0.250267 0.421407
O O6 0.621607 0.621607 0.000000
O O7 0.413474 0.586527 0.000000
O O8 0.500000 0.500000 0.376645
O O9 0.414321 0.585680 0.500000
#
# Coordination Sequence:
#
# PCOD9569873 Si02
#       4
#    16  16   8   8
#     4   9  21  42  66  91 120 158 211 253 305 370
#     4   9  21  42  66  91 118 162 207 254 308 365
#     4  11  26  39  56  93 129 160 205 254 312 366
#     4  11  26  40  58  95 129 163 202 252 316 364
#
# _framework density 18.691455999999999
#
# number of rings (size 3 to 8) (size 9 to 14) (size 15 to 20)
#    0.000    2.333    0.000    2.000    9.333    4.000 
#    6.000    0.000    0.000    0.000    0.000    0.000 
#    0.000    0.000    0.000    0.000    0.000    0.000 
#
# Total GULP energy -267713.543243 kJ/mol
# GULP energy per Si atom -5577.365484 kJ/mol
# Density = 1.864891 g / cm^3
# Si number density = 18.691456 Si / 1000 Ang^3
#
#
#
# Elastic Constant Matrix: (Units=GPa)
#
#
# Indices 1 2 3 4 5 6 
#
# 1 75.8711 40.7602 69.3379 0.0000 0.0000 0.0000
# 2 40.7602 75.8721 69.3390 0.0000 0.0000 0.0000
# 3 69.3379 69.3390 143.9695 0.0000 0.0000 0.0000
# 4 0.0000 0.0000 0.0000 23.5468 0.0000 0.0000
# 5 0.0000 0.0000 0.0000 0.0000 23.5485 0.0000
# 6 0.0000 0.0000 0.0000 0.0000 0.0000 13.8710
#
#
#
# Elastic Compliance Matrix: (Units=1/GPa)
#
#
# Indices 1 2 3 4 5 6 
#
# 1 0.024272 -0.004209 -0.009663 0.000000 0.000000 0.000000
# 2 -0.004209 0.024272 -0.009663 0.000000 0.000000 0.000000
# 3 -0.009663 -0.009663 0.016254 0.000000 0.000000 0.000000
# 4 0.000000 0.000000 0.000000 0.042469 0.000000 0.000000
# 5 0.000000 0.000000 0.000000 0.000000 0.042465 0.000000
# 6 0.000000 0.000000 0.000000 0.000000 0.000000 0.072093
#
#
# Mechanical properties :
#
#
# Convention : Reuss Voigt Hill
#
# Bulk Modulus (GPa) = 56.40585 72.73188 64.56887
# Shear Modulus (GPa) = 18.19485 19.94498 19.06991
#
# Velocity S-wave (km/s) = 3.12337 3.27014 3.19760
# Velocity P-wave (km/s) = 6.57648 7.29758 6.94640
#
# Compressibility (1/GPa) = 0.01772866
#
# Stress axis : x y z
#
# Youngs Moduli (GPa) = 41.19971 41.19975 61.52514
#
# Poissons Ratio (x) = 0.17340 0.59450
# Poissons Ratio (y) = 0.17340 0.59451
# Poissons Ratio (z) = 0.39810 0.39811
#
# Static dielectric constant tensor:
#      x y z
#    x 1.637320 0.000000 0.000000 
#    y 0.000000 1.637320 0.000000 
#    z 0.000000 0.000000 1.623350 
# 
# From -- ./inp_files/5738.got.cif
#   From: 2010.05.17/outbox.cif.g08.bks.cpg/sg136_3_cif.got.tgz:5738.got - 2010.05.20 12:54:53.
