data_PCOD9569931
_publ_section_title
;
Structure prediction by ZEFSAII (Michael W. Deem and Ramdas Pophale) SiO2 
 PCOD9569931
Probable space group: P 42/N M C
;
_chemical_formula_sum "Si O2"
_cell_formula_units_Z 92
_cell_length_a 27.940037
_cell_length_b 27.940037
_cell_length_c 8.153680
_cell_angle_alpha 90.000000
_cell_angle_beta 90.000000
_cell_angle_gamma 90.000000
_cell_volume 6365.134967
_symmetry_space_group_name_H-M "P 42/N M C"
_symmetry_group_IT_number 137
_space_group.IT_coordinate_system_code '2'
_symmetry_cell_setting 'tetragonal'
loop_
_space_group_symop_operation_xyz
x,y,z
1/2-y,x,1/2+z
1/2-x,1/2-y,z
y,1/2-x,1/2+z
1/2+x,-y,-z
-x,1/2+y,-z
1/2+y,1/2+x,1/2-z
-y,-x,1/2-z
-x,-y,-z
1/2+y,-x,1/2-z
1/2+x,1/2+y,-z
-y,1/2+x,1/2-z
1/2-x,y,z
x,1/2-y,z
1/2-y,1/2-x,1/2+z
y,x,1/2+z
loop_
_atom_site_type_symbol
_atom_site_label
_atom_site_fract_x
_atom_site_fract_y
_atom_site_fract_z
Si Si1 0.458754 0.102342 0.580666
Si Si2 0.335978 0.250000 0.575473
Si Si3 0.250000 0.250000 0.323098
Si Si4 0.961968 0.459081 0.445043
Si Si5 0.116299 0.024246 0.463717
Si Si6 0.591969 0.693527 0.953784
Si Si7 0.664581 0.617554 0.085781
O O1 0.510495 0.087399 0.511690
O O2 0.463507 0.114026 0.771409
O O3 0.420478 0.058858 0.562922
O O4 0.432429 0.141856 0.471623
O O5 0.297905 0.250000 0.427074
O O6 0.299884 0.250000 0.726020
O O7 0.368432 0.295651 0.546688
O O8 0.958999 0.458999 0.250000
O O9 0.909700 0.473113 0.513312
O O10 0.000000 0.500000 0.500000
O O11 0.168450 0.039774 0.528063
O O12 0.593201 0.750000 0.991137
O O13 0.611398 0.685107 0.768399
O O14 0.625962 0.660598 0.069130
#
# Coordination Sequence:
#
# PCOD9569931 Si02
#       7
#    16   8   4  16  16  16  16
#     4  10  18  30  45  66  83 105 129 166 216 266
#     4  11  22  36  46  60  74 102 142 194 235 274
#     4  10  24  34  48  58  72  98 156 194 240 274
#     4  10  16  26  46  67  87 106 124 156 203 261
#     4  10  18  30  45  64  86 105 132 164 209 262
#     4  11  22  36  46  62  81 111 143 186 229 273
#     4  11  21  35  46  60  79 104 142 183 233 272
#
# _framework density 14.453739000000001
#
# number of rings (size 3 to 8) (size 9 to 14) (size 15 to 20)
#    0.000    1.565    0.870   10.957    2.435    0.000 
#    6.261    0.000    0.000    0.000    0.000    0.000 
#    0.000    0.000    0.000    0.000    0.000    0.000 
#
# Total GULP energy -512844.669303 kJ/mol
# GULP energy per Si atom -5574.398579 kJ/mol
# Density = 1.442084 g / cm^3
# Si number density = 14.453739 Si / 1000 Ang^3
#
#
#
# Elastic Constant Matrix: (Units=GPa)
#
#
# Indices 1 2 3 4 5 6 
#
# 1 53.5452 44.9795 11.0267 0.0000 0.0000 0.0000
# 2 44.9795 53.5452 11.0267 0.0000 0.0000 0.0000
# 3 11.0267 11.0267 69.8453 0.0000 0.0000 0.0000
# 4 0.0000 0.0000 0.0000 16.8068 0.0000 0.0000
# 5 0.0000 0.0000 0.0000 0.0000 16.8068 0.0000
# 6 0.0000 0.0000 0.0000 0.0000 0.0000 38.4141
#
#
#
# Elastic Compliance Matrix: (Units=1/GPa)
#
#
# Indices 1 2 3 4 5 6 
#
# 1 0.063633 -0.053111 -0.001661 0.000000 0.000000 0.000000
# 2 -0.053111 0.063633 -0.001661 0.000000 0.000000 0.000000
# 3 -0.001661 -0.001661 0.014842 0.000000 0.000000 0.000000
# 4 0.000000 0.000000 0.000000 0.059500 0.000000 0.000000
# 5 0.000000 0.000000 0.000000 0.000000 0.059500 0.000000
# 6 0.000000 0.000000 0.000000 0.000000 0.000000 0.026032
#
#
# Mechanical properties :
#
#
# Convention : Reuss Voigt Hill
#
# Bulk Modulus (GPa) = 34.19898 34.55573 34.37735
# Shear Modulus (GPa) = 12.20247 21.73239 16.96743
#
# Velocity S-wave (km/s) = 2.90874 3.88181 3.42996
# Velocity P-wave (km/s) = 5.91552 6.63709 6.28667
#
# Compressibility (1/GPa) = 0.02924064
#
# Stress axis : x y z
#
# Youngs Moduli (GPa) = 15.71514 15.71514 67.37714
#
# Poissons Ratio (x) = 0.83465 0.11192
# Poissons Ratio (y) = 0.83465 0.11192
# Poissons Ratio (z) = 0.02610 0.02610
#
# Static dielectric constant tensor:
#      x y z
#    x 1.540810 0.000000 0.000000 
#    y 0.000000 1.540810 0.000000 
#    z 0.000000 0.000000 1.517380 
# 
# From -- ./inp_files/2306.got.cif
#   From: 2010.05.17/outbox.cif.g08.bks.cpg/sg137_2_cif.got.tgz:2306.got - 2010.05.20 13:01:12.
