data_PCOD9569444
_publ_section_title
;
Structure prediction by ZEFSAII (Michael W. Deem and Ramdas Pophale) SiO2 
 PCOD9569444
Probable space group: P 42/M N M
;
_chemical_formula_sum "Si O2"
_cell_formula_units_Z 72
_cell_length_a 16.500313
_cell_length_b 16.500313
_cell_length_c 13.668384
_cell_angle_alpha 90.000000
_cell_angle_beta 90.000000
_cell_angle_gamma 90.000000
_cell_volume 3721.358726
_symmetry_space_group_name_H-M "P 42/M N M"
_symmetry_group_IT_number 136
_symmetry_cell_setting 'tetragonal'
loop_
_space_group_symop_operation_xyz
x,y,z
1/2-y,1/2+x,1/2+z
-x,-y,z
1/2+y,1/2-x,1/2+z
1/2+x,1/2-y,1/2-z
1/2-x,1/2+y,1/2-z
y,x,-z
-y,-x,-z
-x,-y,-z
1/2+y,1/2-x,1/2-z
x,y,-z
1/2-y,1/2+x,1/2-z
1/2-x,1/2+y,1/2+z
1/2+x,1/2-y,1/2+z
-y,-x,z
y,x,z
loop_
_atom_site_type_symbol
_atom_site_label
_atom_site_fract_x
_atom_site_fract_y
_atom_site_fract_z
Si Si1 0.497588 0.636890 0.000000
Si Si2 0.752216 0.465684 0.391217
Si Si3 0.660841 0.793841 0.112413
Si Si4 0.496744 0.365016 0.786855
Si Si5 0.045068 0.623283 0.234435
O O1 0.502843 0.677548 0.893741
O O2 0.569725 0.569725 0.000000
O O3 0.414253 0.585748 0.000000
O O4 0.721570 0.483431 0.500000
O O5 0.779371 0.372017 0.387725
O O6 0.690361 0.483716 0.304673
O O7 0.830532 0.520058 0.364175
O O8 0.714259 0.714259 0.134100
O O9 0.595093 0.818215 0.193528
O O10 0.630377 0.786763 0.000000
O O11 0.565657 0.434344 0.791787
O O12 0.412403 0.412403 0.774363
O O13 0.095762 0.540998 0.219231
#
# Coordination Sequence:
#
# PCOD9569444 Si02
#       5
#     8  16  16  16  16
#     4   7  12  26  46  66  94 135 178 222 267 304
#     4  10  20  33  51  76 107 143 176 216 273 331
#     4   9  18  34  56  80 105 134 174 225 275 323
#     4   9  17  30  49  74 106 143 183 225 268 322
#     4   9  19  36  56  78 105 142 187 227 271 323
#
# _framework density 19.347771000000002
#
# number of rings (size 3 to 8) (size 9 to 14) (size 15 to 20)
#    0.000    3.000    0.000    2.000    0.000    3.556 
#    2.000    5.556    2.444    0.000    0.000    0.000 
#    0.000    0.000    0.000    0.000    0.000    0.000 
#
# Total GULP energy -401482.701134 kJ/mol
# GULP energy per Si atom -5576.148627 kJ/mol
# Density = 1.930374 g / cm^3
# Si number density = 19.347771 Si / 1000 Ang^3
#
#
#
# Elastic Constant Matrix: (Units=GPa)
#
#
# Indices 1 2 3 4 5 6 
#
# 1 63.4323 34.8164 48.3397 0.0000 0.0000 0.0000
# 2 34.8164 63.4322 48.3402 0.0000 0.0000 0.0000
# 3 48.3397 48.3402 141.6910 0.0000 0.0000 0.0000
# 4 0.0000 0.0000 0.0000 26.3368 0.0000 0.0000
# 5 0.0000 0.0000 0.0000 0.0000 26.3370 0.0000
# 6 0.0000 0.0000 0.0000 0.0000 0.0000 30.3042
#
#
#
# Elastic Compliance Matrix: (Units=1/GPa)
#
#
# Indices 1 2 3 4 5 6 
#
# 1 0.025134 -0.009812 -0.005227 0.000000 0.000000 0.000000
# 2 -0.009812 0.025134 -0.005227 0.000000 0.000000 0.000000
# 3 -0.005227 -0.005227 0.010624 0.000000 0.000000 0.000000
# 4 0.000000 0.000000 0.000000 0.037970 0.000000 0.000000
# 5 0.000000 0.000000 0.000000 0.000000 0.037969 0.000000
# 6 0.000000 0.000000 0.000000 0.000000 0.000000 0.032999
#
#
# Mechanical properties :
#
#
# Convention : Reuss Voigt Hill
#
# Bulk Modulus (GPa) = 49.11783 59.06092 54.08937
# Shear Modulus (GPa) = 23.02560 25.73286 24.37923
#
# Velocity S-wave (km/s) = 3.45351 3.65090 3.55357
# Velocity P-wave (km/s) = 6.42995 6.95444 6.69733
#
# Compressibility (1/GPa) = 0.02035921
#
# Stress axis : x y z
#
# Youngs Moduli (GPa) = 39.78708 39.78667 94.12291
#
# Poissons Ratio (x) = 0.39038 0.49201
# Poissons Ratio (y) = 0.39038 0.49203
# Poissons Ratio (z) = 0.20798 0.20798
#
# Static dielectric constant tensor:
#      x y z
#    x 1.703020 0.000000 0.000000 
#    y 0.000000 1.703020 0.000000 
#    z 0.000000 0.000000 1.653910 
# 
# From -- ./inp_files/3431.got.cif
#   From: 2010.05.17/outbox.cif.g08.bks.cpg/sg136_2_cif.got.tgz:3431.got - 2010.05.20 12:54:53.
