data_PCOD9569756
_publ_section_title
;
Structure prediction by ZEFSAII (Michael W. Deem and Ramdas Pophale) SiO2 
 PCOD9569756
Probable space group: P 42/M N M
;
_chemical_formula_sum "Si O2"
_cell_formula_units_Z 72
_cell_length_a 19.915012
_cell_length_b 19.915012
_cell_length_c 7.871330
_cell_angle_alpha 90.000000
_cell_angle_beta 90.000000
_cell_angle_gamma 90.000000
_cell_volume 3121.830111
_symmetry_space_group_name_H-M "P 42/M N M"
_symmetry_group_IT_number 136
_symmetry_cell_setting 'tetragonal'
loop_
_space_group_symop_operation_xyz
x,y,z
1/2-y,1/2+x,1/2+z
-x,-y,z
1/2+y,1/2-x,1/2+z
1/2+x,1/2-y,1/2-z
1/2-x,1/2+y,1/2-z
y,x,-z
-y,-x,-z
-x,-y,-z
1/2+y,1/2-x,1/2-z
x,y,-z
1/2-y,1/2+x,1/2-z
1/2-x,1/2+y,1/2+z
1/2+x,1/2-y,1/2+z
-y,-x,z
y,x,z
loop_
_atom_site_type_symbol
_atom_site_label
_atom_site_fract_x
_atom_site_fract_y
_atom_site_fract_z
Si Si1 0.054058 0.054058 0.295907
Si Si2 0.704268 0.849044 0.807039
Si Si3 0.379810 0.275859 0.204522
Si Si4 0.207103 0.032325 0.199977
Si Si5 0.917567 0.431512 0.800118
O O1 0.053491 0.053491 0.500000
O O2 0.128373 0.035165 0.236867
O O3 0.000000 0.000000 0.234149
O O4 0.672143 0.781222 0.729826
O O5 0.759402 0.899121 0.725270
O O6 0.639609 0.896355 0.805395
O O7 0.725746 0.832747 0.000000
O O8 0.347777 0.347777 0.255712
O O9 0.458146 0.266990 0.248642
O O10 0.377322 0.272017 0.000000
O O11 0.219621 0.036992 0.000000
O O12 0.911325 0.510783 0.773688
O O13 0.913183 0.415245 0.000000
#
# Coordination Sequence:
#
# PCOD9569756 Si02
#       5
#     8  16  16  16  16
#     4  11  25  45  69  95 127 169 221 274 329 392
#     4  10  22  39  61  89 124 163 208 259 318 385
#     4  10  22  41  65  90 125 172 217 262 324 399
#     4  11  24  41  66  98 132 168 214 271 331 389
#     4  11  21  34  54  80 115 157 206 255 308 367
#
# _framework density 23.063393999999999
#
# number of rings (size 3 to 8) (size 9 to 14) (size 15 to 20)
#    0.000    1.444    0.000    5.667    1.556   10.222 
#    0.000    0.000    0.000    0.000    0.000    0.000 
#    0.000    0.000    0.000    0.000    0.000    0.000 
#
# Total GULP energy -402078.516750 kJ/mol
# GULP energy per Si atom -5584.423844 kJ/mol
# Density = 2.301090 g / cm^3
# Si number density = 23.063394 Si / 1000 Ang^3
#
#
#
# Elastic Constant Matrix: (Units=GPa)
#
#
# Indices 1 2 3 4 5 6 
#
# 1 183.9599 3.5373 1.2403 0.0000 0.0000 0.0000
# 2 3.5373 183.9599 1.2403 0.0000 0.0000 0.0000
# 3 1.2403 1.2403 59.8123 0.0000 0.0000 0.0000
# 4 0.0000 0.0000 0.0000 21.3202 0.0000 0.0000
# 5 0.0000 0.0000 0.0000 0.0000 21.3202 0.0000
# 6 0.0000 0.0000 0.0000 0.0000 0.0000 77.8144
#
#
#
# Elastic Compliance Matrix: (Units=1/GPa)
#
#
# Indices 1 2 3 4 5 6 
#
# 1 0.005439 -0.000104 -0.000111 0.000000 0.000000 0.000000
# 2 -0.000104 0.005439 -0.000111 0.000000 0.000000 0.000000
# 3 -0.000111 -0.000111 0.016724 0.000000 0.000000 0.000000
# 4 0.000000 0.000000 0.000000 0.046904 0.000000 0.000000
# 5 0.000000 0.000000 0.000000 0.000000 0.046904 0.000000
# 6 0.000000 0.000000 0.000000 0.000000 0.000000 0.012851
#
#
# Mechanical properties :
#
#
# Convention : Reuss Voigt Hill
#
# Bulk Modulus (GPa) = 37.10462 48.86308 42.98385
# Shear Modulus (GPa) = 34.74792 52.20525 43.47658
#
# Velocity S-wave (km/s) = 3.88574 4.76284 4.34647
# Velocity P-wave (km/s) = 6.02121 7.17486 6.62320
#
# Compressibility (1/GPa) = 0.02695083
#
# Stress axis : x y z
#
# Youngs Moduli (GPa) = 183.86718 183.86718 59.79584
#
# Poissons Ratio (x) = 0.01909 0.00661
# Poissons Ratio (y) = 0.01909 0.00661
# Poissons Ratio (z) = 0.02034 0.02034
#
# Static dielectric constant tensor:
#      x y z
#    x 1.869560 0.000000 0.000000 
#    y 0.000000 1.869560 0.000000 
#    z 0.000000 0.000000 1.854160 
# 
# From -- ./inp_files/1561.got.cif
#   From: 2010.05.17/outbox.cif.g08.bks.cpg/sg136_1_cif.got.tgz:1561.got - 2010.05.20 12:54:53.
