data_PCOD9569720
_publ_section_title
;
Structure prediction by ZEFSAII (Michael W. Deem and Ramdas Pophale) SiO2 
 PCOD9569720
Probable space group: P 42/M N M
;
_chemical_formula_sum "Si O2"
_cell_formula_units_Z 88
_cell_length_a 14.050637
_cell_length_b 14.050637
_cell_length_c 23.076693
_cell_angle_alpha 90.000000
_cell_angle_beta 90.000000
_cell_angle_gamma 90.000000
_cell_volume 4555.809965
_symmetry_space_group_name_H-M "P 42/M N M"
_symmetry_group_IT_number 136
_symmetry_cell_setting 'tetragonal'
loop_
_space_group_symop_operation_xyz
x,y,z
1/2-y,1/2+x,1/2+z
-x,-y,z
1/2+y,1/2-x,1/2+z
1/2+x,1/2-y,1/2-z
1/2-x,1/2+y,1/2-z
y,x,-z
-y,-x,-z
-x,-y,-z
1/2+y,1/2-x,1/2-z
x,y,-z
1/2-y,1/2+x,1/2-z
1/2-x,1/2+y,1/2+z
1/2+x,1/2-y,1/2+z
-y,-x,z
y,x,z
loop_
_atom_site_type_symbol
_atom_site_label
_atom_site_fract_x
_atom_site_fract_y
_atom_site_fract_z
Si Si1 0.706081 0.958683 0.609286
Si Si2 0.685280 0.166698 0.566023
Si Si3 0.887290 0.268322 0.066442
Si Si4 0.578715 0.421286 0.930290
Si Si5 0.052729 0.207664 0.851779
Si Si6 0.977480 0.658619 0.742779
O O1 0.637389 0.873518 0.588760
O O2 0.815082 0.943287 0.591205
O O3 0.698273 0.968097 0.678244
O O4 0.675585 0.056767 0.579684
O O5 0.655450 0.186714 0.500000
O O6 0.793277 0.206724 0.571210
O O7 0.623887 0.225004 0.611734
O O8 0.788486 0.211515 0.066384
O O9 0.958355 0.212840 0.109075
O O10 0.922626 0.270525 0.000000
O O11 0.500000 0.500000 0.911767
O O12 0.579273 0.420727 0.000000
O O13 0.106386 0.106386 0.845846
O O14 0.033153 0.259201 0.790707
O O15 0.896186 0.578155 0.751394
#
# Coordination Sequence:
#
# PCOD9569720 Si02
#       6
#    16  16  16   8  16  16
#     4  12  22  39  66  94 131 173 217 266 325 395
#     4  10  21  38  62  95 130 161 202 261 331 397
#     4  11  24  42  65  94 128 170 222 273 327 392
#     4  11  24  42  66 100 139 175 214 270 340 411
#     4  11  24  43  65  92 125 166 215 269 327 383
#     4  11  23  43  65  91 127 169 214 267 325 393
#
# _framework density 19.315995999999998
#
# number of rings (size 3 to 8) (size 9 to 14) (size 15 to 20)
#    0.000    1.000    4.545    2.727    1.273    3.636 
#    0.000    4.545    0.000    0.000    0.000    0.000 
#    0.000    0.000    0.000    0.000    0.000    0.000 
#
# Total GULP energy -491625.378223 kJ/mol
# GULP energy per Si atom -5586.652025 kJ/mol
# Density = 1.927203 g / cm^3
# Si number density = 19.315996 Si / 1000 Ang^3
#
#
#
# Elastic Constant Matrix: (Units=GPa)
#
#
# Indices 1 2 3 4 5 6 
#
# 1 79.4659 -0.2983 19.7967 0.0000 0.0000 0.0000
# 2 -0.2983 79.4663 19.7968 0.0000 0.0000 0.0000
# 3 19.7967 19.7968 130.2267 0.0000 0.0000 0.0000
# 4 0.0000 0.0000 0.0000 34.6140 0.0000 0.0000
# 5 0.0000 0.0000 0.0000 0.0000 34.6141 0.0000
# 6 0.0000 0.0000 0.0000 0.0000 0.0000 27.4894
#
#
#
# Elastic Compliance Matrix: (Units=1/GPa)
#
#
# Indices 1 2 3 4 5 6 
#
# 1 0.013104 0.000567 -0.002078 0.000000 0.000000 0.000000
# 2 0.000567 0.013104 -0.002078 0.000000 0.000000 0.000000
# 3 -0.002078 -0.002078 0.008311 0.000000 0.000000 0.000000
# 4 0.000000 0.000000 0.000000 0.028890 0.000000 0.000000
# 5 0.000000 0.000000 0.000000 0.000000 0.028890 0.000000
# 6 0.000000 0.000000 0.000000 0.000000 0.000000 0.036378
#
#
# Mechanical properties :
#
#
# Convention : Reuss Voigt Hill
#
# Bulk Modulus (GPa) = 36.57713 40.86102 38.71908
# Shear Modulus (GPa) = 34.49032 36.00109 35.24571
#
# Velocity S-wave (km/s) = 4.23020 4.32185 4.27627
# Velocity P-wave (km/s) = 6.54498 6.79003 6.66863
#
# Compressibility (1/GPa) = 0.02733949
#
# Stress axis : x y z
#
# Youngs Moduli (GPa) = 76.31341 76.31374 120.32599
#
# Poissons Ratio (x) = -0.04326 0.25006
# Poissons Ratio (y) = -0.04326 0.25006
# Poissons Ratio (z) = 0.15859 0.15859
#
# Static dielectric constant tensor:
#      x y z
#    x 1.655260 0.000000 0.000000 
#    y 0.000000 1.655250 0.000000 
#    z 0.000000 0.000000 1.638750 
# 
# From -- ./inp_files/7375.got.cif
#   From: 2010.05.17/outbox.cif.g08.bks.cpg/sg136_4_cif.got.tgz:7375.got - 2010.05.20 12:54:53.
