data_PCOD9569852
_publ_section_title
;
Structure prediction by ZEFSAII (Michael W. Deem and Ramdas Pophale) SiO2 
 PCOD9569852
Probable space group: P 42/M N M
;
_chemical_formula_sum "Si O2"
_cell_formula_units_Z 52
_cell_length_a 13.810079
_cell_length_b 13.810079
_cell_length_c 13.487671
_cell_angle_alpha 90.000000
_cell_angle_beta 90.000000
_cell_angle_gamma 90.000000
_cell_volume 2572.345441
_symmetry_space_group_name_H-M "P 42/M N M"
_symmetry_group_IT_number 136
_symmetry_cell_setting 'tetragonal'
loop_
_space_group_symop_operation_xyz
x,y,z
1/2-y,1/2+x,1/2+z
-x,-y,z
1/2+y,1/2-x,1/2+z
1/2+x,1/2-y,1/2-z
1/2-x,1/2+y,1/2-z
y,x,-z
-y,-x,-z
-x,-y,-z
1/2+y,1/2-x,1/2-z
x,y,-z
1/2-y,1/2+x,1/2-z
1/2-x,1/2+y,1/2+z
1/2+x,1/2-y,1/2+z
-y,-x,z
y,x,z
loop_
_atom_site_type_symbol
_atom_site_label
_atom_site_fract_x
_atom_site_fract_y
_atom_site_fract_z
Si Si1 0.256453 0.256453 0.000000
Si Si2 0.863535 0.573340 0.282132
Si Si3 0.724788 0.517062 0.000000
Si Si4 0.908506 0.571497 0.500000
Si Si5 0.130700 0.130700 0.609358
Si Si6 0.758507 0.758507 0.218040
O O1 0.245814 0.372566 0.000000
O O2 0.217385 0.217385 0.103987
O O3 0.875391 0.469228 0.230767
O O4 0.849741 0.557416 0.399047
O O5 0.786054 0.646886 0.237705
O O6 0.660057 0.480899 0.093755
O O7 0.822770 0.455671 0.000000
O O8 0.000000 0.500000 0.500000
O O9 0.169453 0.169453 0.500000
O O10 0.180319 0.180319 0.701617
#
# Coordination Sequence:
#
# PCOD9569852 Si02
#       6
#     4  16   8   8   8   8
#     4  12  26  35  60  96 136 151 214 270 336 384
#     4  11  23  38  62  92 127 170 216 272 330 392
#     4   9  20  40  57  88 115 162 205 262 322 379
#     4  12  19  35  64  85 121 158 216 265 332 381
#     4   8  18  38  66  75 117 165 215 249 312 381
#     4  12  24  38  61  92 132 167 213 265 333 390
#
# _framework density 20.215014
#
# number of rings (size 3 to 8) (size 9 to 14) (size 15 to 20)
#    0.923    0.308    6.154    1.846    0.000    1.231 
#    0.000    0.000    0.000    0.923    0.000    0.000 
#    0.000    4.923    0.000    0.000    0.000    0.000 
#
# Total GULP energy -289889.938006 kJ/mol
# GULP energy per Si atom -5574.806500 kJ/mol
# Density = 2.016900 g / cm^3
# Si number density = 20.215014 Si / 1000 Ang^3
#
#
#
# Elastic Constant Matrix: (Units=GPa)
#
#
# Indices 1 2 3 4 5 6 
#
# 1 38.5903 49.5305 8.9972 0.0000 0.0000 0.0000
# 2 49.5305 38.5903 8.9972 0.0000 0.0000 0.0000
# 3 8.9972 8.9972 179.2285 0.0000 0.0000 0.0000
# 4 0.0000 0.0000 0.0000 14.6005 0.0000 0.0000
# 5 0.0000 0.0000 0.0000 0.0000 14.6005 0.0000
# 6 0.0000 0.0000 0.0000 0.0000 0.0000 42.2779
#
#
#
# Elastic Compliance Matrix: (Units=1/GPa)
#
#
# Indices 1 2 3 4 5 6 
#
# 1 -0.039970 0.051436 -0.000576 0.000000 0.000000 0.000000
# 2 0.051436 -0.039970 -0.000576 0.000000 0.000000 0.000000
# 3 -0.000576 -0.000576 0.005637 0.000000 0.000000 0.000000
# 4 0.000000 0.000000 0.000000 0.068491 0.000000 0.000000
# 5 0.000000 0.000000 0.000000 0.000000 0.068491 0.000000
# 6 0.000000 0.000000 0.000000 0.000000 0.000000 0.023653
#
#
# Mechanical properties :
#
#
# Convention : Reuss Voigt Hill
#
# Bulk Modulus (GPa) = 38.07179 43.49543 40.78361
# Shear Modulus (GPa) = -911.94736 26.88806 -442.52965
#
# Velocity S-wave (km/s) = -21.26272 3.65101 -14.81171
# Velocity P-wave (km/s) = 24.16464 6.27187 16.50142
#
# Compressibility (1/GPa) = 0.02626617
#
# Stress axis : x y z
#
# Youngs Moduli (GPa) = -25.01859 -25.01859 177.39125
#
# Poissons Ratio (x) = 1.28685 0.10210
# Poissons Ratio (y) = 1.28685 0.10210
# Poissons Ratio (z) = -0.01440 -0.01440
#
# Static dielectric constant tensor:
#      x y z
#    x 1.788580 0.000000 0.000000 
#    y 0.000000 1.788580 0.000000 
#    z 0.000000 0.000000 1.783440 
# 
# From -- ./inp_files/4658.got.cif
#   From: 2010.05.17/outbox.cif.g08.bks.cpg/sg136_3_cif.got.tgz:4658.got - 2010.05.20 12:54:53.
