data_PCOD9569865
_publ_section_title
;
Structure prediction by ZEFSAII (Michael W. Deem and Ramdas Pophale) SiO2 
 PCOD9569865
Probable space group: P 42/M N M
;
_chemical_formula_sum "Si O2"
_cell_formula_units_Z 56
_cell_length_a 11.511081
_cell_length_b 11.511081
_cell_length_c 22.137464
_cell_angle_alpha 90.000000
_cell_angle_beta 90.000000
_cell_angle_gamma 90.000000
_cell_volume 2933.324353
_symmetry_space_group_name_H-M "P 42/M N M"
_symmetry_group_IT_number 136
_symmetry_cell_setting 'tetragonal'
loop_
_space_group_symop_operation_xyz
x,y,z
1/2-y,1/2+x,1/2+z
-x,-y,z
1/2+y,1/2-x,1/2+z
1/2+x,1/2-y,1/2-z
1/2-x,1/2+y,1/2-z
y,x,-z
-y,-x,-z
-x,-y,-z
1/2+y,1/2-x,1/2-z
x,y,-z
1/2-y,1/2+x,1/2-z
1/2-x,1/2+y,1/2+z
1/2+x,1/2-y,1/2+z
-y,-x,z
y,x,z
loop_
_atom_site_type_symbol
_atom_site_label
_atom_site_fract_x
_atom_site_fract_y
_atom_site_fract_z
Si Si1 0.128866 0.559087 0.400684
Si Si2 0.329760 0.329760 0.930672
Si Si3 0.000176 0.805002 0.000000
Si Si4 0.823859 0.507600 0.732087
Si Si5 0.404019 0.404019 0.201083
O O1 0.137723 0.692846 0.422744
O O2 0.219983 0.493209 0.443075
O O3 0.180131 0.551728 0.333037
O O4 0.000000 0.500000 0.403834
O O5 0.385785 0.385785 0.870560
O O6 0.362663 0.362663 0.000000
O O7 0.879440 0.879440 0.000000
O O8 0.101668 0.898333 0.000000
O O9 0.886073 0.413580 0.774770
O O10 0.710676 0.553055 0.764495
O O11 0.500000 0.500000 0.210120
#
# Coordination Sequence:
#
# PCOD9569865 Si02
#       5
#    16   8   8  16   8
#     4  12  22  43  71  96 130 180 228 270 345 411
#     4  12  24  45  70  96 133 188 228 278 330 415
#     4  11  25  42  64 103 140 170 224 286 341 405
#     4  11  23  45  69  98 131 175 217 278 341 411
#     4  12  28  41  68 104 137 174 226 284 344 398
#
# _framework density 19.090968
#
# number of rings (size 3 to 8) (size 9 to 14) (size 15 to 20)
#    0.000    0.429    8.571    0.429    6.000    0.286 
#    0.000    1.429    0.000    0.000    0.000    0.000 
#    0.000    0.000    0.000    0.000    0.000    0.000 
#
# Total GULP energy -312454.444630 kJ/mol
# GULP energy per Si atom -5579.543654 kJ/mol
# Density = 1.904752 g / cm^3
# Si number density = 19.090968 Si / 1000 Ang^3
#
#
#
# Elastic Constant Matrix: (Units=GPa)
#
#
# Indices 1 2 3 4 5 6 
#
# 1 102.9026 69.8038 26.3209 0.0000 0.0000 0.0000
# 2 69.8038 102.9023 26.3212 0.0000 0.0000 0.0000
# 3 26.3209 26.3212 107.7334 0.0000 0.0000 0.0000
# 4 0.0000 0.0000 0.0000 -30.3475 0.0000 0.0000
# 5 0.0000 0.0000 0.0000 0.0000 -30.3063 0.0000
# 6 0.0000 0.0000 0.0000 0.0000 0.0000 23.8074
#
#
#
# Elastic Compliance Matrix: (Units=1/GPa)
#
#
# Indices 1 2 3 4 5 6 
#
# 1 0.018234 -0.011978 -0.001528 0.000000 0.000000 0.000000
# 2 -0.011978 0.018234 -0.001529 0.000000 0.000000 0.000000
# 3 -0.001528 -0.001529 0.010029 0.000000 0.000000 0.000000
# 4 0.000000 0.000000 0.000000 -0.032952 0.000000 0.000000
# 5 0.000000 0.000000 0.000000 0.000000 -0.032996 0.000000
# 6 0.000000 0.000000 0.000000 0.000000 0.000000 0.042004
#
#
# Mechanical properties :
#
#
# Convention : Reuss Voigt Hill
#
# Bulk Modulus (GPa) = 60.87421 62.04778 61.46100
# Shear Modulus (GPa) = 86.05920 5.37023 45.71472
#
# Velocity S-wave (km/s) = 6.72134 1.67901 4.89875
# Velocity P-wave (km/s) = 9.60160 6.02747 8.01627
#
# Compressibility (1/GPa) = 0.01642732
#
# Stress axis : x y z
#
# Youngs Moduli (GPa) = 54.84163 54.84137 99.71059
#
# Poissons Ratio (x) = 0.65691 0.15240
# Poissons Ratio (y) = 0.65691 0.15241
# Poissons Ratio (z) = 0.08382 0.08383
#
# Static dielectric constant tensor:
#      x y z
#    x 1.825580 0.000000 0.000000 
#    y 0.000000 1.825570 0.000000 
#    z 0.000000 0.000000 1.716360 
# 
# From -- ./inp_files/6991.got.cif
#   From: 2010.05.17/outbox.cif.g08.bks.cpg/sg136_4_cif.got.tgz:6991.got - 2010.05.20 12:54:53.
