data_PCOD9569560
_publ_section_title
;
Structure prediction by ZEFSAII (Michael W. Deem and Ramdas Pophale) SiO2 
 PCOD9569560
Probable space group: P 42/M N M
;
_chemical_formula_sum "Si O2"
_cell_formula_units_Z 92
_cell_length_a 18.178522
_cell_length_b 18.178522
_cell_length_c 15.603402
_cell_angle_alpha 90.000000
_cell_angle_beta 90.000000
_cell_angle_gamma 90.000000
_cell_volume 5156.279349
_symmetry_space_group_name_H-M "P 42/M N M"
_symmetry_group_IT_number 136
_symmetry_cell_setting 'tetragonal'
loop_
_space_group_symop_operation_xyz
x,y,z
1/2-y,1/2+x,1/2+z
-x,-y,z
1/2+y,1/2-x,1/2+z
1/2+x,1/2-y,1/2-z
1/2-x,1/2+y,1/2-z
y,x,-z
-y,-x,-z
-x,-y,-z
1/2+y,1/2-x,1/2-z
x,y,-z
1/2-y,1/2+x,1/2-z
1/2-x,1/2+y,1/2+z
1/2+x,1/2-y,1/2+z
-y,-x,z
y,x,z
loop_
_atom_site_type_symbol
_atom_site_label
_atom_site_fract_x
_atom_site_fract_y
_atom_site_fract_z
Si Si1 0.993262 0.780339 0.172659
Si Si2 0.439400 0.758551 0.096286
Si Si3 0.500000 0.000000 0.750000
Si Si4 0.776088 0.342938 0.261077
Si Si5 0.000197 0.874018 0.000000
Si Si6 0.053456 0.658723 0.290406
Si Si7 0.882364 0.003002 0.668422
O O1 0.906278 0.767091 0.186937
O O2 0.004898 0.820332 0.082671
O O3 0.021013 0.835654 0.246897
O O4 0.028472 0.701752 0.202536
O O5 0.374584 0.774551 0.163880
O O6 0.510219 0.801043 0.133529
O O7 0.463544 0.673587 0.104256
O O8 0.420847 0.778541 0.000000
O O9 0.425508 0.972634 0.704869
O O10 0.732622 0.267379 0.266044
O O11 0.859096 0.337322 0.293166
O O12 0.925875 0.925875 0.000000
O O13 0.067885 0.932116 0.000000
O O14 0.942973 0.942973 0.693644
O O15 0.926004 0.073997 0.635328
#
# Coordination Sequence:
#
# PCOD9569560 Si02
#       7
#    16  16   4  16   8  16  16
#     4  10  20  36  56  84 114 153 197 245 290 349
#     4  10  21  37  56  85 114 146 187 239 293 342
#     4  12  16  44  66  80 104 144 206 240 292 354
#     4  10  20  37  60  84 113 157 197 237 299 359
#     4  11  22  36  58  87 126 166 198 245 296 352
#     4  10  21  38  65  82 110 155 194 247 296 358
#     4   9  17  31  54  80 111 154 192 224 275 344
#
# _framework density 17.842323
#
# number of rings (size 3 to 8) (size 9 to 14) (size 15 to 20)
#    0.000    2.348    3.478    3.652    0.000    6.609 
#    3.130    1.304    0.000    0.000    0.000    0.000 
#    0.000    0.000    0.000    0.000    0.000    0.000 
#
# Total GULP energy -512251.460841 kJ/mol
# GULP energy per Si atom -5567.950661 kJ/mol
# Density = 1.780171 g / cm^3
# Si number density = 17.842323 Si / 1000 Ang^3
#
#
#
# Elastic Constant Matrix: (Units=GPa)
#
#
# Indices 1 2 3 4 5 6 
#
# 1 91.5380 18.3188 4.9298 0.0000 0.0000 0.0000
# 2 18.3188 91.5377 4.9292 0.0000 0.0000 0.0000
# 3 4.9298 4.9292 74.4004 0.0000 0.0000 0.0000
# 4 0.0000 0.0000 0.0000 -4.9356 0.0000 0.0000
# 5 0.0000 0.0000 0.0000 0.0000 -4.9369 0.0000
# 6 0.0000 0.0000 0.0000 0.0000 0.0000 28.4687
#
#
#
# Elastic Compliance Matrix: (Units=1/GPa)
#
#
# Indices 1 2 3 4 5 6 
#
# 1 0.011407 -0.002250 -0.000607 0.000000 0.000000 0.000000
# 2 -0.002250 0.011407 -0.000607 0.000000 0.000000 0.000000
# 3 -0.000607 -0.000607 0.013521 0.000000 0.000000 0.000000
# 4 0.000000 0.000000 0.000000 -0.202609 0.000000 0.000000
# 5 0.000000 0.000000 0.000000 0.000000 -0.202554 0.000000
# 6 0.000000 0.000000 0.000000 0.000000 0.000000 0.035126
#
#
# Mechanical properties :
#
#
# Convention : Reuss Voigt Hill
#
# Bulk Modulus (GPa) = 34.00352 34.87021 34.43686
# Shear Modulus (GPa) = -15.77433 19.00579 1.61573
#
# Velocity S-wave (km/s) = -2.97660 3.26729 0.95264
# Velocity P-wave (km/s) = 2.69919 5.81546 4.53350
#
# Compressibility (1/GPa) = 0.02940872
#
# Stress axis : x y z
#
# Youngs Moduli (GPa) = 87.66225 87.66199 73.95801
#
# Poissons Ratio (x) = 0.19726 0.04488
# Poissons Ratio (y) = 0.19726 0.04487
# Poissons Ratio (z) = 0.05319 0.05318
#
# Static dielectric constant tensor:
#      x y z
#    x 1.634860 0.000000 0.000000 
#    y 0.000000 1.634860 0.000000 
#    z 0.000000 0.000000 1.601730 
# 
# From -- ./inp_files/6366.got.cif
#   From: 2010.05.17/outbox.cif.g08.bks.cpg/sg136_4_cif.got.tgz:6366.got - 2010.05.20 12:54:53.
