data_PCOD9569017
_publ_section_title
;
Structure prediction by ZEFSAII (Michael W. Deem and Ramdas Pophale) SiO2 
 PCOD9569017
Probable space group: P 42/M B C
;
_chemical_formula_sum "Si O2"
_cell_formula_units_Z 36
_cell_length_a 9.898615
_cell_length_b 9.898615
_cell_length_c 12.726864
_cell_angle_alpha 90.000000
_cell_angle_beta 90.000000
_cell_angle_gamma 90.000000
_cell_volume 1247.010956
_symmetry_space_group_name_H-M "P 42/M B C"
_symmetry_group_IT_number 135
_symmetry_cell_setting 'tetragonal'
loop_
_space_group_symop_operation_xyz
x,y,z
-y,x,1/2+z
-x,-y,z
y,-x,1/2+z
1/2+x,1/2-y,-z
1/2-x,1/2+y,-z
1/2+y,1/2+x,1/2-z
1/2-y,1/2-x,1/2-z
-x,-y,-z
y,-x,1/2-z
x,y,-z
-y,x,1/2-z
1/2-x,1/2+y,z
1/2+x,1/2-y,z
1/2-y,1/2-x,1/2+z
1/2+y,1/2+x,1/2+z
loop_
_atom_site_type_symbol
_atom_site_label
_atom_site_fract_x
_atom_site_fract_y
_atom_site_fract_z
Si Si1 0.597766 0.228399 0.383803
Si Si2 0.000000 0.000000 0.000000
Si Si3 0.524086 0.745422 0.158034
O O1 0.546541 0.274207 0.500000
O O2 0.509775 0.257244 0.281257
O O3 0.634415 0.070910 0.382795
O O4 0.884041 0.020834 0.406903
O O5 0.683731 0.735059 0.134307
#
# Coordination Sequence:
#
# PCOD9569017 Si02
#       3
#    16   4  16
#     4  11  22  44  66 113 147 205 252 329 380 477
#     4  12  20  42  62 106 136 204 248 332 352 504
#     4  11  24  39  73 102 148 192 265 311 399 448
#
# _framework density 28.869036000000001
#
# number of rings (size 3 to 8) (size 9 to 14) (size 15 to 20)
#    0.000    0.889    4.444    2.667    0.000    0.000 
#    0.000    0.000    0.000   48.000    0.000    0.000 
#    0.000    0.000    0.000    0.000    0.000    0.000 
#
# Total GULP energy -200885.504332 kJ/mol
# GULP energy per Si atom -5580.152898 kJ/mol
# Density = 2.880333 g / cm^3
# Si number density = 28.869036 Si / 1000 Ang^3
#
#
#
# Elastic Constant Matrix: (Units=GPa)
#
#
# Indices 1 2 3 4 5 6 
#
# 1 27.3595 160.1478 51.3345 0.0000 0.0000 0.0000
# 2 160.1478 27.3595 51.3345 0.0000 0.0000 0.0000
# 3 51.3345 51.3345 298.5503 0.0000 0.0000 0.0000
# 4 0.0000 0.0000 0.0000 55.7168 0.0000 0.0000
# 5 0.0000 0.0000 0.0000 0.0000 55.7168 0.0000
# 6 0.0000 0.0000 0.0000 0.0000 0.0000 31.2900
#
#
#
# Elastic Compliance Matrix: (Units=1/GPa)
#
#
# Indices 1 2 3 4 5 6 
#
# 1 -0.000822 0.006709 -0.001012 0.000000 0.000000 0.000000
# 2 0.006709 -0.000822 -0.001012 0.000000 0.000000 0.000000
# 3 -0.001012 -0.001012 0.003698 0.000000 0.000000 0.000000
# 4 0.000000 0.000000 0.000000 0.017948 0.000000 0.000000
# 5 0.000000 0.000000 0.000000 0.000000 0.017948 0.000000
# 6 0.000000 0.000000 0.000000 0.000000 0.000000 0.031959
#
#
# Mechanical properties :
#
#
# Convention : Reuss Voigt Hill
#
# Bulk Modulus (GPa) = 87.54106 97.65589 92.59847
# Shear Modulus (GPa) = 77.70252 34.57489 56.13871
#
# Velocity S-wave (km/s) = 5.19365 3.46446 4.41455
# Velocity P-wave (km/s) = 8.14583 7.06427 7.62426
#
# Compressibility (1/GPa) = 0.01142321
#
# Stress axis : x y z
#
# Youngs Moduli (GPa) = -1217.00984 -1217.00984 270.44225
#
# Poissons Ratio (x) = 8.16504 0.27377
# Poissons Ratio (y) = 8.16504 0.27377
# Poissons Ratio (z) = -1.23200 -1.23200
#
# Static dielectric constant tensor:
#      x y z
#    x 2.108550 0.000000 0.000000 
#    y 0.000000 2.108550 0.000000 
#    z 0.000000 0.000000 2.097530 
# 
# From -- ./inp_files/2810.got.cif
#   From: 2010.05.17/outbox.cif.g08.bks.cpg/sg135_2_cif.got.tgz:2810.got - 2010.05.20 12:50:20.
