data_PCOD9569239
_publ_section_title
;
Structure prediction by ZEFSAII (Michael W. Deem and Ramdas Pophale) SiO2 
 PCOD9569239
Probable space group: P 42/M N M
;
_chemical_formula_sum "Si O2"
_cell_formula_units_Z 72
_cell_length_a 15.116299
_cell_length_b 15.116299
_cell_length_c 20.791221
_cell_angle_alpha 90.000000
_cell_angle_beta 90.000000
_cell_angle_gamma 90.000000
_cell_volume 4750.845882
_symmetry_space_group_name_H-M "P 42/M N M"
_symmetry_group_IT_number 136
_symmetry_cell_setting 'tetragonal'
loop_
_space_group_symop_operation_xyz
x,y,z
1/2-y,1/2+x,1/2+z
-x,-y,z
1/2+y,1/2-x,1/2+z
1/2+x,1/2-y,1/2-z
1/2-x,1/2+y,1/2-z
y,x,-z
-y,-x,-z
-x,-y,-z
1/2+y,1/2-x,1/2-z
x,y,-z
1/2-y,1/2+x,1/2-z
1/2-x,1/2+y,1/2+z
1/2+x,1/2-y,1/2+z
-y,-x,z
y,x,z
loop_
_atom_site_type_symbol
_atom_site_label
_atom_site_fract_x
_atom_site_fract_y
_atom_site_fract_z
Si Si1 0.064013 0.625143 0.000000
Si Si2 0.074512 0.925489 0.075637
Si Si3 0.669486 0.819626 0.875787
Si Si4 0.940011 0.366012 0.749438
Si Si5 0.561151 0.858863 0.000000
Si Si6 0.479161 0.235940 0.377970
O O1 0.068316 0.682555 0.935531
O O2 0.133115 0.544705 0.000000
O O3 0.962596 0.589467 0.000000
O O4 0.040352 0.837676 0.109983
O O5 0.092849 0.907152 0.000000
O O6 0.000000 0.000000 0.078061
O O7 0.741239 0.741239 0.875570
O O8 0.611966 0.825007 0.810647
O O9 0.603830 0.815358 0.936862
O O10 0.717435 0.915438 0.881515
O O11 0.892862 0.458968 0.767951
O O12 0.945318 0.301854 0.810347
#
# Coordination Sequence:
#
# PCOD9569239 Si02
#       6
#     8   8  16  16   8  16
#     4   9  16  29  47  68  88 120 157 192 237 287
#     4  11  22  34  48  70 100 135 169 199 236 288
#     4  10  19  30  46  70  96 126 156 196 241 295
#     4   9  18  32  50  71  96 125 160 202 252 295
#     4   9  17  28  46  68  95 118 150 193 243 289
#     4  10  19  32  48  68  94 129 162 200 237 285
#
# _framework density 15.155195000000001
#
# number of rings (size 3 to 8) (size 9 to 14) (size 15 to 20)
#    0.000    2.333    1.111    2.333    1.556    5.333 
#    0.000    0.000    0.000    0.000    0.000    0.000 
#    0.000    0.000    0.000    8.778    0.000    0.111 
#
# Total GULP energy -401334.062029 kJ/mol
# GULP energy per Si atom -5574.084195 kJ/mol
# Density = 1.512070 g / cm^3
# Si number density = 15.155195 Si / 1000 Ang^3
#
#
#
# Elastic Constant Matrix: (Units=GPa)
#
#
# Indices 1 2 3 4 5 6 
#
# 1 86.4762 51.4873 63.9630 0.0000 0.0000 0.0000
# 2 51.4873 86.4763 63.9630 0.0000 0.0000 0.0000
# 3 63.9630 63.9630 117.1396 0.0000 0.0000 0.0000
# 4 0.0000 0.0000 0.0000 15.8640 0.0000 0.0000
# 5 0.0000 0.0000 0.0000 0.0000 15.8642 0.0000
# 6 0.0000 0.0000 0.0000 0.0000 0.0000 27.2363
#
#
#
# Elastic Compliance Matrix: (Units=1/GPa)
#
#
# Indices 1 2 3 4 5 6 
#
# 1 0.021631 -0.006949 -0.008017 0.000000 0.000000 0.000000
# 2 -0.006949 0.021631 -0.008017 0.000000 0.000000 0.000000
# 3 -0.008017 -0.008017 0.017292 0.000000 0.000000 0.000000
# 4 0.000000 0.000000 0.000000 0.063036 0.000000 0.000000
# 5 0.000000 0.000000 0.000000 0.000000 0.063035 0.000000
# 6 0.000000 0.000000 0.000000 0.000000 0.000000 0.036716
#
#
# Mechanical properties :
#
#
# Convention : Reuss Voigt Hill
#
# Bulk Modulus (GPa) = 68.54896 72.10207 70.32551
# Shear Modulus (GPa) = 18.23686 19.17148 18.70417
#
# Velocity S-wave (km/s) = 3.47268 3.56056 3.51689
# Velocity P-wave (km/s) = 7.83638 8.03632 7.93698
#
# Compressibility (1/GPa) = 0.01458811
#
# Stress axis : x y z
#
# Youngs Moduli (GPa) = 46.22947 46.22956 57.83029
#
# Poissons Ratio (x) = 0.32126 0.46362
# Poissons Ratio (y) = 0.32126 0.46362
# Poissons Ratio (z) = 0.37062 0.37062
#
# Static dielectric constant tensor:
#      x y z
#    x 1.487360 0.000000 0.000000 
#    y 0.000000 1.487360 0.000000 
#    z 0.000000 0.000000 1.495390 
# 
# From -- ./inp_files/6115.got.cif
#   From: 2010.05.17/outbox.cif.g08.bks.cpg/sg136_4_cif.got.tgz:6115.got - 2010.05.20 12:54:53.
