data_PCOD9569846
_publ_section_title
;
Structure prediction by ZEFSAII (Michael W. Deem and Ramdas Pophale) SiO2 
 PCOD9569846
Probable space group: P 42/M N M
;
_chemical_formula_sum "Si O2"
_cell_formula_units_Z 56
_cell_length_a 14.816262
_cell_length_b 14.816262
_cell_length_c 13.051605
_cell_angle_alpha 90.000000
_cell_angle_beta 90.000000
_cell_angle_gamma 90.000000
_cell_volume 2865.109469
_symmetry_space_group_name_H-M "P 42/M N M"
_symmetry_group_IT_number 136
_symmetry_cell_setting 'tetragonal'
loop_
_space_group_symop_operation_xyz
x,y,z
1/2-y,1/2+x,1/2+z
-x,-y,z
1/2+y,1/2-x,1/2+z
1/2+x,1/2-y,1/2-z
1/2-x,1/2+y,1/2-z
y,x,-z
-y,-x,-z
-x,-y,-z
1/2+y,1/2-x,1/2-z
x,y,-z
1/2-y,1/2+x,1/2-z
1/2-x,1/2+y,1/2+z
1/2+x,1/2-y,1/2+z
-y,-x,z
y,x,z
loop_
_atom_site_type_symbol
_atom_site_label
_atom_site_fract_x
_atom_site_fract_y
_atom_site_fract_z
Si Si1 0.408253 0.939163 0.000000
Si Si2 0.955724 0.360514 0.221454
Si Si3 0.422605 0.577396 0.380952
Si Si4 0.023365 0.825523 0.295478
Si Si5 0.223802 0.083096 0.500000
O O1 0.351929 0.960719 0.100328
O O2 0.500000 0.000000 0.000000
O O3 0.426929 0.831900 0.000000
O O4 0.890613 0.445368 0.240834
O O5 0.927313 0.269505 0.276350
O O6 0.500000 0.500000 0.387018
O O7 0.399651 0.600350 0.500000
O O8 0.464785 0.654658 0.307182
O O9 0.092641 0.907360 0.308115
O O10 0.964325 0.814089 0.397580
O O11 0.185331 0.185331 0.500000
#
# Coordination Sequence:
#
# PCOD9569846 Si02
#       5
#     8  16   8  16   8
#     4  12  22  41  69  93 125 173 221 274 338 398
#     4  11  22  41  64  90 122 165 212 264 320 388
#     4   9  20  39  59  85 123 168 209 248 311 388
#     4  11  23  40  64  92 130 171 212 266 329 395
#     4  12  23  40  68 101 132 168 221 276 331 394
#
# _framework density 19.545501000000002
#
# number of rings (size 3 to 8) (size 9 to 14) (size 15 to 20)
#    0.000    1.000    7.143    0.429    2.000    1.714 
#    2.571    0.000    0.000    0.000    0.000    0.000 
#    0.000    0.000    0.000    0.000    0.000    0.000 
#
# Total GULP energy -312443.127015 kJ/mol
# GULP energy per Si atom -5579.341554 kJ/mol
# Density = 1.950101 g / cm^3
# Si number density = 19.545501 Si / 1000 Ang^3
#
#
#
# Elastic Constant Matrix: (Units=GPa)
#
#
# Indices 1 2 3 4 5 6 
#
# 1 70.9571 28.3275 19.6946 0.0000 0.0000 0.0000
# 2 28.3275 70.9571 19.6946 0.0000 0.0000 0.0000
# 3 19.6946 19.6946 158.1970 0.0000 0.0000 0.0000
# 4 0.0000 0.0000 0.0000 27.9400 0.0000 0.0000
# 5 0.0000 0.0000 0.0000 0.0000 27.9399 0.0000
# 6 0.0000 0.0000 0.0000 0.0000 0.0000 6.8895
#
#
#
# Elastic Compliance Matrix: (Units=1/GPa)
#
#
# Indices 1 2 3 4 5 6 
#
# 1 0.017027 -0.006431 -0.001319 0.000000 0.000000 0.000000
# 2 -0.006431 0.017027 -0.001319 0.000000 0.000000 0.000000
# 3 -0.001319 -0.001319 0.006650 0.000000 0.000000 0.000000
# 4 0.000000 0.000000 0.000000 0.035791 0.000000 0.000000
# 5 0.000000 0.000000 0.000000 0.000000 0.035791 0.000000
# 6 0.000000 0.000000 0.000000 0.000000 0.000000 0.145149
#
#
# Mechanical properties :
#
#
# Convention : Reuss Voigt Hill
#
# Bulk Modulus (GPa) = 44.31808 48.39384 46.35596
# Shear Modulus (GPa) = 17.66200 28.04685 22.85442
#
# Velocity S-wave (km/s) = 3.00931 3.79219 3.42320
# Velocity P-wave (km/s) = 5.89900 6.63231 6.27637
#
# Compressibility (1/GPa) = 0.02256416
#
# Stress axis : x y z
#
# Youngs Moduli (GPa) = 58.73160 58.73162 150.38354
#
# Poissons Ratio (x) = 0.37772 0.19837
# Poissons Ratio (y) = 0.37772 0.19836
# Poissons Ratio (z) = 0.07747 0.07747
#
# Static dielectric constant tensor:
#      x y z
#    x 1.694690 0.000000 0.000000 
#    y 0.000000 1.694690 0.000000 
#    z 0.000000 0.000000 1.731090 
# 
# From -- ./inp_files/3117.got.cif
#   From: 2010.05.17/outbox.cif.g08.bks.cpg/sg136_2_cif.got.tgz:3117.got - 2010.05.20 12:54:53.
