data_PCOD9569191
_publ_section_title
;
Structure prediction by ZEFSAII (Michael W. Deem and Ramdas Pophale) SiO2 
 PCOD9569191
Probable space group: P 42/M N M
;
_chemical_formula_sum "Si O2"
_cell_formula_units_Z 104
_cell_length_a 17.315365
_cell_length_b 17.315365
_cell_length_c 18.630852
_cell_angle_alpha 90.000000
_cell_angle_beta 90.000000
_cell_angle_gamma 90.000000
_cell_volume 5585.936795
_symmetry_space_group_name_H-M "P 42/M N M"
_symmetry_group_IT_number 136
_symmetry_cell_setting 'tetragonal'
loop_
_space_group_symop_operation_xyz
x,y,z
1/2-y,1/2+x,1/2+z
-x,-y,z
1/2+y,1/2-x,1/2+z
1/2+x,1/2-y,1/2-z
1/2-x,1/2+y,1/2-z
y,x,-z
-y,-x,-z
-x,-y,-z
1/2+y,1/2-x,1/2-z
x,y,-z
1/2-y,1/2+x,1/2-z
1/2-x,1/2+y,1/2+z
1/2+x,1/2-y,1/2+z
-y,-x,z
y,x,z
loop_
_atom_site_type_symbol
_atom_site_label
_atom_site_fract_x
_atom_site_fract_y
_atom_site_fract_z
Si Si1 0.043651 0.758844 0.419014
Si Si2 0.052818 0.823574 0.266161
Si Si3 0.132300 0.600448 0.585442
Si Si4 0.174603 0.700665 0.209208
Si Si5 0.400417 0.855157 0.075796
Si Si6 0.772962 0.901081 0.181056
Si Si7 0.500000 0.000000 0.390458
O O1 0.053358 0.790413 0.500000
O O2 0.043831 0.816427 0.352242
O O3 0.107764 0.690665 0.409361
O O4 0.961599 0.714226 0.416278
O O5 0.097244 0.902757 0.248144
O O6 0.110335 0.753490 0.245813
O O7 0.974950 0.808429 0.221682
O O8 0.122098 0.580794 0.500000
O O9 0.218251 0.583175 0.612654
O O10 0.072522 0.552223 0.636394
O O11 0.242278 0.757723 0.183467
O O12 0.140546 0.654569 0.142971
O O13 0.214344 0.641651 0.264108
O O14 0.452226 0.931655 0.073328
O O15 0.358535 0.846393 0.000000
O O16 0.840632 0.840632 0.163482
#
# Coordination Sequence:
#
# PCOD9569191 Si02
#       7
#    16  16  16  16  16  16   8
#     4   9  18  32  53  84 116 146 182 228 290 356
#     4  11  22  38  58  80 112 152 192 241 298 349
#     4  10  19  34  58  87 121 156 186 232 298 357
#     4  10  21  36  54  80 110 143 189 239 283 338
#     4  10  18  32  53  77 114 152 181 220 278 345
#     4  11  23  39  57  82 117 153 196 246 287 345
#     4  10  19  32  53  88 125 150 177 224 285 352
#
# _framework density 18.618182999999998
#
# number of rings (size 3 to 8) (size 9 to 14) (size 15 to 20)
#    0.000    1.846    3.077    3.231    0.000    1.231 
#    0.000    2.308    0.000    1.846    0.000    2.154 
#    0.000    0.000    0.000    0.000    0.000    0.000 
#
# Total GULP energy -579109.821282 kJ/mol
# GULP energy per Si atom -5568.363666 kJ/mol
# Density = 1.857581 g / cm^3
# Si number density = 18.618183 Si / 1000 Ang^3
#
#
#
# Elastic Constant Matrix: (Units=GPa)
#
#
# Indices 1 2 3 4 5 6 
#
# 1 58.0402 17.6295 20.4067 0.0000 0.0000 0.0000
# 2 17.6295 58.0402 20.4067 0.0000 0.0000 0.0000
# 3 20.4067 20.4067 67.5970 0.0000 0.0000 0.0000
# 4 0.0000 0.0000 0.0000 19.7446 0.0000 0.0000
# 5 0.0000 0.0000 0.0000 0.0000 19.7446 0.0000
# 6 0.0000 0.0000 0.0000 0.0000 0.0000 16.3924
#
#
#
# Elastic Compliance Matrix: (Units=1/GPa)
#
#
# Indices 1 2 3 4 5 6 
#
# 1 0.020266 -0.004480 -0.004765 0.000000 0.000000 0.000000
# 2 -0.004480 0.020266 -0.004765 0.000000 0.000000 0.000000
# 3 -0.004765 -0.004765 0.017671 0.000000 0.000000 0.000000
# 4 0.000000 0.000000 0.000000 0.050647 0.000000 0.000000
# 5 0.000000 0.000000 0.000000 0.000000 0.050647 0.000000
# 6 0.000000 0.000000 0.000000 0.000000 0.000000 0.061004
#
#
# Mechanical properties :
#
#
# Convention : Reuss Voigt Hill
#
# Bulk Modulus (GPa) = 33.13430 33.39589 33.26510
# Shear Modulus (GPa) = 19.33623 19.52530 19.43076
#
# Velocity S-wave (km/s) = 3.22618 3.24191 3.23405
# Velocity P-wave (km/s) = 5.63143 5.65593 5.64369
#
# Compressibility (1/GPa) = 0.03018020
#
# Stress axis : x y z
#
# Youngs Moduli (GPa) = 49.34423 49.34423 56.59042
#
# Poissons Ratio (x) = 0.22107 0.26968
# Poissons Ratio (y) = 0.22107 0.26968
# Poissons Ratio (z) = 0.23515 0.23515
#
# Static dielectric constant tensor:
#      x y z
#    x 1.652220 0.000000 0.000000 
#    y 0.000000 1.652220 0.000000 
#    z 0.000000 0.000000 1.664480 
# 
# From -- ./inp_files/6418.got.cif
#   From: 2010.05.17/outbox.cif.g08.bks.cpg/sg136_4_cif.got.tgz:6418.got - 2010.05.20 12:54:53.
