data_PCOD9569234
_publ_section_title
;
Structure prediction by ZEFSAII (Michael W. Deem and Ramdas Pophale) SiO2 
 PCOD9569234
Probable space group: P 42/M N M
;
_chemical_formula_sum "Si O2"
_cell_formula_units_Z 96
_cell_length_a 24.494144
_cell_length_b 24.494144
_cell_length_c 8.708360
_cell_angle_alpha 90.000000
_cell_angle_beta 90.000000
_cell_angle_gamma 90.000000
_cell_volume 5224.694577
_symmetry_space_group_name_H-M "P 42/M N M"
_symmetry_group_IT_number 136
_symmetry_cell_setting 'tetragonal'
loop_
_space_group_symop_operation_xyz
x,y,z
1/2-y,1/2+x,1/2+z
-x,-y,z
1/2+y,1/2-x,1/2+z
1/2+x,1/2-y,1/2-z
1/2-x,1/2+y,1/2-z
y,x,-z
-y,-x,-z
-x,-y,-z
1/2+y,1/2-x,1/2-z
x,y,-z
1/2-y,1/2+x,1/2-z
1/2-x,1/2+y,1/2+z
1/2+x,1/2-y,1/2+z
-y,-x,z
y,x,z
loop_
_atom_site_type_symbol
_atom_site_label
_atom_site_fract_x
_atom_site_fract_y
_atom_site_fract_z
Si Si1 0.724059 0.056759 0.185580
Si Si2 0.735014 0.933545 0.815992
Si Si3 0.844454 0.065985 0.316538
Si Si4 0.933107 0.461453 0.171683
Si Si5 0.352600 0.138911 0.677600
Si Si6 0.049603 0.139223 0.185213
O O1 0.785786 0.069568 0.234945
O O2 0.684287 0.105328 0.241903
O O3 0.713236 0.993809 0.238041
O O4 0.719604 0.056123 0.000000
O O5 0.702795 0.880571 0.757442
O O6 0.799000 0.932554 0.773817
O O7 0.730877 0.934027 0.000000
O O8 0.836675 0.065380 0.500000
O O9 0.884147 0.115854 0.276208
O O10 0.870378 0.008741 0.262916
O O11 0.931123 0.509777 0.293918
O O12 0.887131 0.416847 0.182665
O O13 0.933205 0.484782 0.000000
O O14 0.341251 0.153055 0.500000
O O15 0.094834 0.094834 0.227943
O O16 0.042795 0.138002 0.000000
#
# Coordination Sequence:
#
# PCOD9569234 Si02
#       6
#    16  16  16  16  16  16
#     4   9  19  36  54  73 102 140 179 216 256 306
#     4   9  18  33  53  75 101 135 173 215 259 300
#     4  10  21  36  55  82 112 136 163 206 258 306
#     4  10  19  30  43  62  90 122 159 207 260 307
#     4  10  20  32  48  71  98 131 173 217 257 301
#     4   9  19  37  59  81 106 138 173 205 245 305
#
# _framework density 18.374281
#
# number of rings (size 3 to 8) (size 9 to 14) (size 15 to 20)
#    0.000    2.500    0.000    3.500    0.000    8.000 
#    0.000    2.500    0.000    3.000    0.000    0.000 
#    0.000    0.000    0.000    0.000    0.000    0.000 
#
# Total GULP energy -534987.627266 kJ/mol
# GULP energy per Si atom -5572.787784 kJ/mol
# Density = 1.833246 g / cm^3
# Si number density = 18.374281 Si / 1000 Ang^3
#
#
#
# Elastic Constant Matrix: (Units=GPa)
#
#
# Indices 1 2 3 4 5 6 
#
# 1 64.7255 57.4230 9.9529 0.0000 0.0000 0.0000
# 2 57.4230 64.7255 9.9529 0.0000 0.0000 0.0000
# 3 9.9529 9.9529 6.1219 0.0000 0.0000 0.0000
# 4 0.0000 0.0000 0.0000 19.8219 0.0000 0.0000
# 5 0.0000 0.0000 0.0000 0.0000 19.8219 0.0000
# 6 0.0000 0.0000 0.0000 0.0000 0.0000 37.9776
#
#
#
# Elastic Compliance Matrix: (Units=1/GPa)
#
#
# Indices 1 2 3 4 5 6 
#
# 1 0.074038 -0.062900 -0.018107 0.000000 0.000000 0.000000
# 2 -0.062900 0.074038 -0.018107 0.000000 0.000000 0.000000
# 3 -0.018107 -0.018107 0.222227 0.000000 0.000000 0.000000
# 4 0.000000 0.000000 0.000000 0.050449 0.000000 0.000000
# 5 0.000000 0.000000 0.000000 0.000000 0.050449 0.000000
# 6 0.000000 0.000000 0.000000 0.000000 0.000000 0.026331
#
#
# Mechanical properties :
#
#
# Convention : Reuss Voigt Hill
#
# Bulk Modulus (GPa) = 5.81150 32.24780 19.02965
# Shear Modulus (GPa) = 6.63904 19.40723 13.02313
#
# Velocity S-wave (km/s) = 1.90291 3.25347 2.66516
# Velocity P-wave (km/s) = 2.82804 5.63046 4.45533
#
# Compressibility (1/GPa) = 0.17207248
#
# Stress axis : x y z
#
# Youngs Moduli (GPa) = 13.50656 13.50656 4.49991
#
# Poissons Ratio (x) = 0.84957 0.08148
# Poissons Ratio (y) = 0.84957 0.08148
# Poissons Ratio (z) = 0.24457 0.24457
#
# Static dielectric constant tensor:
#      x y z
#    x 1.643490 0.000000 0.000000 
#    y 0.000000 1.643490 0.000000 
#    z 0.000000 0.000000 1.644530 
# 
# From -- ./inp_files/2004.got.cif
#   From: 2010.05.17/outbox.cif.g08.bks.cpg/sg136_2_cif.got.tgz:2004.got - 2010.05.20 12:54:53.
