data_PCOD9569651
_publ_section_title
;
Structure prediction by ZEFSAII (Michael W. Deem and Ramdas Pophale) SiO2 
 PCOD9569651
Probable space group: P 42/M N M
;
_chemical_formula_sum "Si O2"
_cell_formula_units_Z 96
_cell_length_a 24.589931
_cell_length_b 24.589931
_cell_length_c 8.671854
_cell_angle_alpha 90.000000
_cell_angle_beta 90.000000
_cell_angle_gamma 90.000000
_cell_volume 5243.564054
_symmetry_space_group_name_H-M "P 42/M N M"
_symmetry_group_IT_number 136
_symmetry_cell_setting 'tetragonal'
loop_
_space_group_symop_operation_xyz
x,y,z
1/2-y,1/2+x,1/2+z
-x,-y,z
1/2+y,1/2-x,1/2+z
1/2+x,1/2-y,1/2-z
1/2-x,1/2+y,1/2-z
y,x,-z
-y,-x,-z
-x,-y,-z
1/2+y,1/2-x,1/2-z
x,y,-z
1/2-y,1/2+x,1/2-z
1/2-x,1/2+y,1/2+z
1/2+x,1/2-y,1/2+z
-y,-x,z
y,x,z
loop_
_atom_site_type_symbol
_atom_site_label
_atom_site_fract_x
_atom_site_fract_y
_atom_site_fract_z
Si Si1 0.564511 0.055485 0.815206
Si Si2 0.846841 0.638807 0.815485
Si Si3 0.770996 0.142402 0.816094
Si Si4 0.154234 0.066018 0.318031
Si Si5 0.236924 0.149814 0.185092
Si Si6 0.636948 0.551281 0.316485
O O1 0.505399 0.073632 0.750927
O O2 0.611487 0.096750 0.761461
O O3 0.562345 0.052910 0.000000
O O4 0.784112 0.628852 0.771592
O O5 0.855309 0.701206 0.760871
O O6 0.854086 0.635959 0.000000
O O7 0.801945 0.198056 0.766741
O O8 0.814427 0.094252 0.793716
O O9 0.760418 0.146681 0.000000
O O10 0.163792 0.070448 0.500000
O O11 0.099517 0.099517 0.280390
O O12 0.202503 0.097266 0.231909
O O13 0.148164 0.004296 0.268752
O O14 0.202285 0.202285 0.242869
O O15 0.238820 0.154043 0.000000
O O16 0.633203 0.541201 0.500000
O O17 0.581947 0.581947 0.266635
#
# Coordination Sequence:
#
# PCOD9569651 Si02
#       6
#    16  16  16  16  16  16
#     4  11  23  42  64  85 112 145 181 224 275 326
#     4  11  22  36  58  88 115 144 184 224 268 328
#     4   9  19  36  56  80 112 147 183 228 280 328
#     4  10  21  35  52  77 108 141 179 226 277 323
#     4   9  19  36  56  78 108 145 182 222 267 317
#     4   9  19  36  56  77 104 142 185 225 269 323
#
# _framework density 18.308157999999999
#
# number of rings (size 3 to 8) (size 9 to 14) (size 15 to 20)
#    0.000    2.167    0.000    4.500    0.000    6.000 
#    0.000    6.667    0.000    0.000    0.000    0.000 
#    0.000    0.000    0.000    0.000    0.000    0.000 
#
# Total GULP energy -535836.767720 kJ/mol
# GULP energy per Si atom -5581.632997 kJ/mol
# Density = 1.826649 g / cm^3
# Si number density = 18.308158 Si / 1000 Ang^3
#
#
#
# Elastic Constant Matrix: (Units=GPa)
#
#
# Indices 1 2 3 4 5 6 
#
# 1 83.9033 31.2731 32.7047 0.0000 0.0000 0.0000
# 2 31.2731 83.9033 32.7047 0.0000 0.0000 0.0000
# 3 32.7047 32.7047 55.2673 0.0000 0.0000 0.0000
# 4 0.0000 0.0000 0.0000 17.2902 0.0000 0.0000
# 5 0.0000 0.0000 0.0000 0.0000 17.2902 0.0000
# 6 0.0000 0.0000 0.0000 0.0000 0.0000 21.7781
#
#
#
# Elastic Compliance Matrix: (Units=1/GPa)
#
#
# Indices 1 2 3 4 5 6 
#
# 1 0.016039 -0.002962 -0.007738 0.000000 0.000000 0.000000
# 2 -0.002962 0.016039 -0.007738 0.000000 0.000000 0.000000
# 3 -0.007738 -0.007738 0.027252 0.000000 0.000000 0.000000
# 4 0.000000 0.000000 0.000000 0.057836 0.000000 0.000000
# 5 0.000000 0.000000 0.000000 0.000000 0.057836 0.000000
# 6 0.000000 0.000000 0.000000 0.000000 0.000000 0.045918
#
#
# Mechanical properties :
#
#
# Convention : Reuss Voigt Hill
#
# Bulk Modulus (GPa) = 44.53784 46.27098 45.40441
# Shear Modulus (GPa) = 18.84792 19.69780 19.27286
#
# Velocity S-wave (km/s) = 3.21204 3.28365 3.24804
# Velocity P-wave (km/s) = 6.17542 6.30117 6.23861
#
# Compressibility (1/GPa) = 0.02245282
#
# Stress axis : x y z
#
# Youngs Moduli (GPa) = 62.34901 62.34901 36.69418
#
# Poissons Ratio (x) = 0.18466 0.28395
# Poissons Ratio (y) = 0.18466 0.28395
# Poissons Ratio (z) = 0.48248 0.48248
#
# Static dielectric constant tensor:
#      x y z
#    x 1.616030 0.000000 0.000000 
#    y 0.000000 1.616030 0.000000 
#    z 0.000000 0.000000 1.620820 
# 
# From -- ./inp_files/1912.got.cif
#   From: 2010.05.17/outbox.cif.g08.bks.cpg/sg136_1_cif.got.tgz:1912.got - 2010.05.20 12:54:53.
