data_PCOD9569223
_publ_section_title
;
Structure prediction by ZEFSAII (Michael W. Deem and Ramdas Pophale) SiO2 
 PCOD9569223
Probable space group: P 42/M N M
;
_chemical_formula_sum "Si O2"
_cell_formula_units_Z 64
_cell_length_a 20.141052
_cell_length_b 20.141052
_cell_length_c 8.708829
_cell_angle_alpha 90.000000
_cell_angle_beta 90.000000
_cell_angle_gamma 90.000000
_cell_volume 3532.840778
_symmetry_space_group_name_H-M "P 42/M N M"
_symmetry_group_IT_number 136
_symmetry_cell_setting 'tetragonal'
loop_
_space_group_symop_operation_xyz
x,y,z
1/2-y,1/2+x,1/2+z
-x,-y,z
1/2+y,1/2-x,1/2+z
1/2+x,1/2-y,1/2-z
1/2-x,1/2+y,1/2-z
y,x,-z
-y,-x,-z
-x,-y,-z
1/2+y,1/2-x,1/2-z
x,y,-z
1/2-y,1/2+x,1/2-z
1/2-x,1/2+y,1/2+z
1/2+x,1/2-y,1/2+z
-y,-x,z
y,x,z
loop_
_atom_site_type_symbol
_atom_site_label
_atom_site_fract_x
_atom_site_fract_y
_atom_site_fract_z
Si Si1 0.592818 0.014103 0.828600
Si Si2 0.517451 0.246380 0.322425
Si Si3 0.276967 0.165576 0.185008
Si Si4 0.727716 0.618758 0.815154
O O1 0.558080 0.061808 0.706771
O O2 0.670464 0.007022 0.819047
O O3 0.574448 0.036023 0.000000
O O4 0.521676 0.268787 0.500000
O O5 0.592307 0.242142 0.255893
O O6 0.456255 0.282499 0.240782
O O7 0.216730 0.216730 0.210888
O O8 0.343340 0.204457 0.240068
O O9 0.284954 0.157682 0.000000
O O10 0.667244 0.667244 0.769897
O O11 0.731136 0.618461 0.000000
#
# Coordination Sequence:
#
# PCOD9569223 Si02
#       4
#    16  16  16  16
#     4  10  19  29  41  61  91 124 155 186 225 274
#     4  10  19  29  46  71  93 116 150 194 238 274
#     4   8  15  30  50  69  91 122 159 193 226 272
#     4   9  18  33  52  71  93 125 160 191 228 278
#
# _framework density 18.115732999999999
#
# number of rings (size 3 to 8) (size 9 to 14) (size 15 to 20)
#    0.000    2.750    0.000    4.500    0.000    4.500 
#    0.000    1.250    0.000    3.000    0.000    5.250 
#    0.000    0.000    0.000    0.000    0.000    0.000 
#
# Total GULP energy -356298.765470 kJ/mol
# GULP energy per Si atom -5567.168210 kJ/mol
# Density = 1.807450 g / cm^3
# Si number density = 18.115733 Si / 1000 Ang^3
#
#
#
# Elastic Constant Matrix: (Units=GPa)
#
#
# Indices 1 2 3 4 5 6 
#
# 1 64.2189 -5.1327 1.8788 0.0000 0.0000 0.0000
# 2 -5.1327 64.2189 1.8788 0.0000 0.0000 0.0000
# 3 1.8788 1.8788 8.9621 0.0000 0.0000 0.0000
# 4 0.0000 0.0000 0.0000 19.7661 0.0000 0.0000
# 5 0.0000 0.0000 0.0000 0.0000 19.7661 0.0000
# 6 0.0000 0.0000 0.0000 0.0000 0.0000 5.8404
#
#
#
# Elastic Compliance Matrix: (Units=1/GPa)
#
#
# Indices 1 2 3 4 5 6 
#
# 1 0.015786 0.001367 -0.003596 0.000000 0.000000 0.000000
# 2 0.001367 0.015786 -0.003596 0.000000 0.000000 0.000000
# 3 -0.003596 -0.003596 0.113089 0.000000 0.000000 0.000000
# 4 0.000000 0.000000 0.000000 0.050592 0.000000 0.000000
# 5 0.000000 0.000000 0.000000 0.000000 0.050592 0.000000
# 6 0.000000 0.000000 0.000000 0.000000 0.000000 0.171221
#
#
# Mechanical properties :
#
#
# Convention : Reuss Voigt Hill
#
# Bulk Modulus (GPa) = 7.51814 14.96106 11.23960
# Shear Modulus (GPa) = 10.56962 18.32618 14.44790
#
# Velocity S-wave (km/s) = 2.41809 3.18404 2.82713
# Velocity P-wave (km/s) = 3.45764 4.66841 4.10788
#
# Compressibility (1/GPa) = 0.13301170
#
# Stress axis : x y z
#
# Youngs Moduli (GPa) = 63.34644 63.34644 8.84257
#
# Poissons Ratio (x) = -0.08659 0.03180
# Poissons Ratio (y) = -0.08659 0.03180
# Poissons Ratio (z) = 0.22779 0.22779
#
# Static dielectric constant tensor:
#      x y z
#    x 1.652760 0.000000 0.000000 
#    y 0.000000 1.652760 0.000000 
#    z 0.000000 0.000000 1.646000 
# 
# From -- ./inp_files/1401.got.cif
#   From: 2010.05.17/outbox.cif.g08.bks.cpg/sg136_1_cif.got.tgz:1401.got - 2010.05.20 12:54:53.
