data_PCOD9569980
_publ_section_title
;
Structure prediction by ZEFSAII (Michael W. Deem and Ramdas Pophale) SiO2 
 PCOD9569980
Probable space group: P 42/N M C
;
_chemical_formula_sum "Si O2"
_cell_formula_units_Z 128
_cell_length_a 20.237165
_cell_length_b 20.237165
_cell_length_c 19.666864
_cell_angle_alpha 90.000000
_cell_angle_beta 90.000000
_cell_angle_gamma 90.000000
_cell_volume 8054.423479
_symmetry_space_group_name_H-M "P 42/N M C"
_symmetry_group_IT_number 137
_space_group.IT_coordinate_system_code '2'
_symmetry_cell_setting 'tetragonal'
loop_
_space_group_symop_operation_xyz
x,y,z
1/2-y,x,1/2+z
1/2-x,1/2-y,z
y,1/2-x,1/2+z
1/2+x,-y,-z
-x,1/2+y,-z
1/2+y,1/2+x,1/2-z
-y,-x,1/2-z
-x,-y,-z
1/2+y,-x,1/2-z
1/2+x,1/2+y,-z
-y,1/2+x,1/2-z
1/2-x,y,z
x,1/2-y,z
1/2-y,1/2-x,1/2+z
y,x,1/2+z
loop_
_atom_site_type_symbol
_atom_site_label
_atom_site_fract_x
_atom_site_fract_y
_atom_site_fract_z
Si Si1 0.171335 0.945259 0.055120
Si Si2 0.409029 0.499481 0.935860
Si Si3 0.478655 0.877746 0.220935
Si Si4 0.509227 0.591611 0.720831
Si Si5 0.328706 0.076023 0.661465
Si Si6 0.327301 0.575747 0.419846
Si Si7 0.981156 0.604546 0.973237
Si Si8 0.675838 0.554689 0.841602
O O1 0.250000 0.942284 0.061120
O O2 0.138186 0.876508 0.076303
O O3 0.144174 0.004973 0.102965
O O4 0.146727 0.965016 0.980594
O O5 0.387393 0.495235 0.857720
O O6 0.474487 0.545694 0.940644
O O7 0.430193 0.431609 0.974569
O O8 0.412975 0.912975 0.250000
O O9 0.533651 0.935394 0.217195
O O10 0.462270 0.845026 0.149587
O O11 0.510949 0.827372 0.273752
O O12 0.443704 0.556297 0.750000
O O13 0.531044 0.646903 0.775099
O O14 0.250000 0.086430 0.662762
O O15 0.352863 0.047419 0.588743
O O16 0.376094 0.139767 0.668276
O O17 0.250000 0.591850 0.422814
O O18 0.349761 0.528612 0.481450
O O19 0.750000 0.567736 0.863456
#
# Coordination Sequence:
#
# PCOD9569980 Si02
#       8
#    16  16  16  16  16  16  16  16
#     4  10  21  35  53  76 102 139 183 220 256 317
#     4  10  18  32  57  78 105 135 177 216 274 322
#     4  10  18  30  51  78 108 135 175 220 259 314
#     4  10  19  32  54  81 107 139 168 220 277 323
#     4  11  22  35  54  82 110 136 177 227 272 317
#     4  11  21  33  52  77 108 143 171 215 272 320
#     4  10  19  32  52  83 107 133 169 226 270 320
#     4  10  20  35  53  74 104 144 183 216 259 317
#
# _framework density 15.891888
#
# number of rings (size 3 to 8) (size 9 to 14) (size 15 to 20)
#    0.000    1.750    5.000    0.750    0.000    1.000 
#    0.000    0.000    0.000    0.000    0.000    0.000 
#    0.000    0.250    0.000    0.000    0.000    0.000 
#
# Total GULP energy -713118.278532 kJ/mol
# GULP energy per Si atom -5571.236551 kJ/mol
# Density = 1.585572 g / cm^3
# Si number density = 15.891888 Si / 1000 Ang^3
#
#
#
# Elastic Constant Matrix: (Units=GPa)
#
#
# Indices 1 2 3 4 5 6 
#
# 1 88.6719 41.2757 33.7335 0.0000 0.0000 0.0000
# 2 41.2757 88.6715 33.7331 0.0000 0.0000 0.0000
# 3 33.7335 33.7331 116.5277 0.0000 0.0000 0.0000
# 4 0.0000 0.0000 0.0000 15.7370 0.0000 0.0000
# 5 0.0000 0.0000 0.0000 0.0000 15.7370 0.0000
# 6 0.0000 0.0000 0.0000 0.0000 0.0000 9.4118
#
#
#
# Elastic Compliance Matrix: (Units=1/GPa)
#
#
# Indices 1 2 3 4 5 6 
#
# 1 0.015078 -0.006021 -0.002622 0.000000 0.000000 0.000000
# 2 -0.006021 0.015078 -0.002622 0.000000 0.000000 0.000000
# 3 -0.002622 -0.002622 0.010100 0.000000 0.000000 0.000000
# 4 0.000000 0.000000 0.000000 0.063544 0.000000 0.000000
# 5 0.000000 0.000000 0.000000 0.000000 0.063545 0.000000
# 6 0.000000 0.000000 0.000000 0.000000 0.000000 0.106250
#
#
# Mechanical properties :
#
#
# Convention : Reuss Voigt Hill
#
# Bulk Modulus (GPa) = 56.41525 56.81732 56.61629
# Shear Modulus (GPa) = 16.55455 20.51908 18.53681
#
# Velocity S-wave (km/s) = 3.23104 3.59718 3.41901
# Velocity P-wave (km/s) = 7.03533 7.28580 7.16166
#
# Compressibility (1/GPa) = 0.01772570
#
# Stress axis : x y z
#
# Youngs Moduli (GPa) = 66.32310 66.32298 99.01391
#
# Poissons Ratio (x) = 0.39934 0.25960
# Poissons Ratio (y) = 0.39934 0.25959
# Poissons Ratio (z) = 0.17389 0.17388
#
# Static dielectric constant tensor:
#      x y z
#    x 1.525600 0.000000 0.000000 
#    y 0.000000 1.525600 0.000000 
#    z 0.000000 0.000000 1.550590 
# 
# From -- ./inp_files/6844.got.cif
#   From: 2010.05.17/outbox.cif.g08.bks.cpg/sg137_4_cif.got.tgz:6844.got - 2010.05.20 13:01:12.
