data_PCOD9569332
_publ_section_title
;
Structure prediction by ZEFSAII (Michael W. Deem and Ramdas Pophale) SiO2 
 PCOD9569332
Probable space group: P 42/M N M
;
_chemical_formula_sum "Si O2"
_cell_formula_units_Z 72
_cell_length_a 18.707905
_cell_length_b 18.707905
_cell_length_c 13.285962
_cell_angle_alpha 90.000000
_cell_angle_beta 90.000000
_cell_angle_gamma 90.000000
_cell_volume 4649.896837
_symmetry_space_group_name_H-M "P 42/M N M"
_symmetry_group_IT_number 136
_symmetry_cell_setting 'tetragonal'
loop_
_space_group_symop_operation_xyz
x,y,z
1/2-y,1/2+x,1/2+z
-x,-y,z
1/2+y,1/2-x,1/2+z
1/2+x,1/2-y,1/2-z
1/2-x,1/2+y,1/2-z
y,x,-z
-y,-x,-z
-x,-y,-z
1/2+y,1/2-x,1/2-z
x,y,-z
1/2-y,1/2+x,1/2-z
1/2-x,1/2+y,1/2+z
1/2+x,1/2-y,1/2+z
-y,-x,z
y,x,z
loop_
_atom_site_type_symbol
_atom_site_label
_atom_site_fract_x
_atom_site_fract_y
_atom_site_fract_z
Si Si1 0.219874 0.022365 0.119028
Si Si2 0.296505 0.175686 0.884352
Si Si3 0.557984 0.442017 0.622188
Si Si4 0.672658 0.070760 0.760291
Si Si5 0.080592 0.530681 0.117663
O O1 0.263866 0.096417 0.128075
O O2 0.138453 0.037200 0.151424
O O3 0.259107 0.963691 0.186252
O O4 0.220170 0.002968 0.000000
O O5 0.232966 0.232966 0.873760
O O6 0.358282 0.187655 0.803487
O O7 0.323656 0.180509 0.000000
O O8 0.500000 0.500000 0.656351
O O9 0.558104 0.441897 0.500000
O O10 0.611896 0.083244 0.844507
O O11 0.635176 0.015184 0.683741
O O12 0.000000 0.500000 0.132335
O O13 0.096833 0.524941 0.000000
#
# Coordination Sequence:
#
# PCOD9569332 Si02
#       5
#    16  16   8  16  16
#     4  10  19  33  54  77 106 141 176 215 264 320
#     4  10  20  35  54  76 103 140 183 223 262 311
#     4   9  18  34  56  80 103 131 175 226 272 311
#     4  12  19  32  50  78 104 140 176 210 261 314
#     4  11  20  31  46  72 109 143 174 207 249 312
#
# _framework density 15.484216
#
# number of rings (size 3 to 8) (size 9 to 14) (size 15 to 20)
#    0.000    1.444    5.556    1.333    0.000    4.444 
#    0.000    0.000    0.000    2.000    0.000    2.333 
#    0.000    5.333    0.000    0.000    0.000    0.000 
#
# Total GULP energy -401828.036586 kJ/mol
# GULP energy per Si atom -5580.944953 kJ/mol
# Density = 1.544897 g / cm^3
# Si number density = 15.484216 Si / 1000 Ang^3
#
#
#
# Elastic Constant Matrix: (Units=GPa)
#
#
# Indices 1 2 3 4 5 6 
#
# 1 74.6038 22.9386 33.9233 0.0000 0.0000 0.0000
# 2 22.9386 74.6041 33.9235 0.0000 0.0000 0.0000
# 3 33.9233 33.9235 73.7499 0.0000 0.0000 0.0000
# 4 0.0000 0.0000 0.0000 12.6712 0.0000 0.0000
# 5 0.0000 0.0000 0.0000 0.0000 12.6710 0.0000
# 6 0.0000 0.0000 0.0000 0.0000 0.0000 26.8541
#
#
#
# Elastic Compliance Matrix: (Units=1/GPa)
#
#
# Indices 1 2 3 4 5 6 
#
# 1 0.017215 -0.002140 -0.006934 0.000000 0.000000 0.000000
# 2 -0.002140 0.017215 -0.006934 0.000000 0.000000 0.000000
# 3 -0.006934 -0.006934 0.019939 0.000000 0.000000 0.000000
# 4 0.000000 0.000000 0.000000 0.078919 0.000000 0.000000
# 5 0.000000 0.000000 0.000000 0.000000 0.078920 0.000000
# 6 0.000000 0.000000 0.000000 0.000000 0.000000 0.037238
#
#
# Mechanical properties :
#
#
# Convention : Reuss Voigt Hill
#
# Bulk Modulus (GPa) = 44.73904 44.94761 44.84332
# Shear Modulus (GPa) = 17.30617 19.25076 18.27847
#
# Velocity S-wave (km/s) = 3.34678 3.52980 3.43951
# Velocity P-wave (km/s) = 6.62500 6.76045 6.69307
#
# Compressibility (1/GPa) = 0.02235184
#
# Stress axis : x y z
#
# Youngs Moduli (GPa) = 58.08811 58.08817 50.15410
#
# Poissons Ratio (x) = 0.12431 0.34778
# Poissons Ratio (y) = 0.12431 0.34778
# Poissons Ratio (z) = 0.40280 0.40280
#
# Static dielectric constant tensor:
#      x y z
#    x 1.506620 0.000000 0.000000 
#    y 0.000000 1.506610 0.000000 
#    z 0.000000 0.000000 1.502850 
# 
# From -- ./inp_files/3437.got.cif
#   From: 2010.05.17/outbox.cif.g08.bks.cpg/sg136_2_cif.got.tgz:3437.got - 2010.05.20 12:54:53.
