data_PCOD9569654
_publ_section_title
;
Structure prediction by ZEFSAII (Michael W. Deem and Ramdas Pophale) SiO2 
 PCOD9569654
Probable space group: P 42/M N M
;
_chemical_formula_sum "Si O2"
_cell_formula_units_Z 96
_cell_length_a 24.616234
_cell_length_b 24.616234
_cell_length_c 8.240828
_cell_angle_alpha 90.000000
_cell_angle_beta 90.000000
_cell_angle_gamma 90.000000
_cell_volume 4993.603699
_symmetry_space_group_name_H-M "P 42/M N M"
_symmetry_group_IT_number 136
_symmetry_cell_setting 'tetragonal'
loop_
_space_group_symop_operation_xyz
x,y,z
1/2-y,1/2+x,1/2+z
-x,-y,z
1/2+y,1/2-x,1/2+z
1/2+x,1/2-y,1/2-z
1/2-x,1/2+y,1/2-z
y,x,-z
-y,-x,-z
-x,-y,-z
1/2+y,1/2-x,1/2-z
x,y,-z
1/2-y,1/2+x,1/2-z
1/2-x,1/2+y,1/2+z
1/2+x,1/2-y,1/2+z
-y,-x,z
y,x,z
loop_
_atom_site_type_symbol
_atom_site_label
_atom_site_fract_x
_atom_site_fract_y
_atom_site_fract_z
Si Si1 0.209821 0.986780 0.304341
Si Si2 0.587648 0.500803 0.304195
Si Si3 0.965250 0.578148 0.190190
Si Si4 0.930174 0.697487 0.696917
Si Si5 0.308953 0.777236 0.195126
Si Si6 0.722566 0.635678 0.803903
O O1 0.212215 0.985993 0.500000
O O2 0.221491 0.925794 0.244960
O O3 0.148759 0.002370 0.256928
O O4 0.256359 0.027762 0.247186
O O5 0.588439 0.501394 0.500000
O O6 0.550056 0.449945 0.253461
O O7 0.555277 0.555277 0.250490
O O8 0.933072 0.529033 0.276790
O O9 0.947363 0.637556 0.247464
O O10 0.954745 0.572704 0.000000
O O11 0.929989 0.697142 0.500000
O O12 0.869960 0.713984 0.754450
O O13 0.275649 0.724352 0.255739
O O14 0.272596 0.829125 0.240118
O O15 0.311206 0.773117 0.000000
O O16 0.668139 0.668139 0.755880
O O17 0.725088 0.635576 0.000000
#
# Coordination Sequence:
#
# PCOD9569654 Si02
#       6
#    16  16  16  16  16  16
#     4  10  21  35  54  82 114 144 182 233 284 335
#     4   9  19  36  56  79 111 150 190 235 286 340
#     4  11  23  41  64  88 116 150 191 237 289 344
#     4  10  22  38  56  85 120 153 190 234 284 338
#     4   9  19  36  56  77 106 147 190 228 271 327
#     4   9  18  33  53  78 107 139 179 229 281 328
#
# _framework density 19.224594
#
# number of rings (size 3 to 8) (size 9 to 14) (size 15 to 20)
#    0.000    2.333    0.000    3.000    2.333    4.000 
#    0.000    4.167    0.000    2.000    0.000    0.000 
#    0.000    0.000    0.000    0.000    0.000    0.000 
#
# Total GULP energy -535912.077698 kJ/mol
# GULP energy per Si atom -5582.417476 kJ/mol
# Density = 1.918084 g / cm^3
# Si number density = 19.224594 Si / 1000 Ang^3
#
#
#
# Elastic Constant Matrix: (Units=GPa)
#
#
# Indices 1 2 3 4 5 6 
#
# 1 112.5015 149.4290 1.9490 0.0000 0.0000 0.0000
# 2 149.4290 112.5015 1.9490 0.0000 0.0000 0.0000
# 3 1.9490 1.9490 6.5847 0.0000 0.0000 0.0000
# 4 0.0000 0.0000 0.0000 28.7025 0.0000 0.0000
# 5 0.0000 0.0000 0.0000 0.0000 28.7025 0.0000
# 6 0.0000 0.0000 0.0000 0.0000 0.0000 12.4360
#
#
#
# Elastic Compliance Matrix: (Units=1/GPa)
#
#
# Indices 1 2 3 4 5 6 
#
# 1 -0.011623 0.015457 -0.001135 0.000000 0.000000 0.000000
# 2 0.015457 -0.011623 -0.001135 0.000000 0.000000 0.000000
# 3 -0.001135 -0.001135 0.152539 0.000000 0.000000 0.000000
# 4 0.000000 0.000000 0.000000 0.034840 0.000000 0.000000
# 5 0.000000 0.000000 0.000000 0.000000 0.034840 0.000000
# 6 0.000000 0.000000 0.000000 0.000000 0.000000 0.080412
#
#
# Mechanical properties :
#
#
# Convention : Reuss Voigt Hill
#
# Bulk Modulus (GPa) = 6.42391 59.80464 33.11427
# Shear Modulus (GPa) = 16.39877 19.18556 17.79217
#
# Velocity S-wave (km/s) = 2.92380 3.16249 3.04549
# Velocity P-wave (km/s) = 3.84017 6.67166 5.44325
#
# Compressibility (1/GPa) = 0.15566852
#
# Stress axis : x y z
#
# Youngs Moduli (GPa) = -86.03861 -86.03861 6.55569
#
# Poissons Ratio (x) = 1.32993 0.00744
# Poissons Ratio (y) = 1.32993 0.00744
# Poissons Ratio (z) = -0.09766 -0.09766
#
# Static dielectric constant tensor:
#      x y z
#    x 1.653210 0.000000 0.000000 
#    y 0.000000 1.653210 0.000000 
#    z 0.000000 0.000000 1.672160 
# 
# From -- ./inp_files/1973.got.cif
#   From: 2010.05.17/outbox.cif.g08.bks.cpg/sg136_1_cif.got.tgz:1973.got - 2010.05.20 12:54:53.
