data_PCOD9569389
_publ_section_title
;
Structure prediction by ZEFSAII (Michael W. Deem and Ramdas Pophale) SiO2 
 PCOD9569389
Probable space group: P 42/M N M
;
_chemical_formula_sum "Si O2"
_cell_formula_units_Z 88
_cell_length_a 11.766825
_cell_length_b 11.766825
_cell_length_c 32.663779
_cell_angle_alpha 90.000000
_cell_angle_beta 90.000000
_cell_angle_gamma 90.000000
_cell_volume 4522.567085
_symmetry_space_group_name_H-M "P 42/M N M"
_symmetry_group_IT_number 136
_symmetry_cell_setting 'tetragonal'
loop_
_space_group_symop_operation_xyz
x,y,z
1/2-y,1/2+x,1/2+z
-x,-y,z
1/2+y,1/2-x,1/2+z
1/2+x,1/2-y,1/2-z
1/2-x,1/2+y,1/2-z
y,x,-z
-y,-x,-z
-x,-y,-z
1/2+y,1/2-x,1/2-z
x,y,-z
1/2-y,1/2+x,1/2-z
1/2-x,1/2+y,1/2+z
1/2+x,1/2-y,1/2+z
-y,-x,z
y,x,z
loop_
_atom_site_type_symbol
_atom_site_label
_atom_site_fract_x
_atom_site_fract_y
_atom_site_fract_z
Si Si1 0.122180 0.695559 0.573024
Si Si2 0.475855 0.129339 0.621169
Si Si3 0.756425 0.430016 0.699151
Si Si4 0.308554 0.503898 0.000000
Si Si5 0.260539 0.445991 0.784496
Si Si6 0.764247 0.941955 0.367122
O O1 0.238310 0.761691 0.563577
O O2 0.140518 0.562859 0.583075
O O3 0.029653 0.730551 0.538842
O O4 0.066836 0.748298 0.614151
O O5 0.507890 0.215092 0.656945
O O6 0.341292 0.129496 0.614745
O O7 0.500000 0.000000 0.636487
O O8 0.642304 0.357697 0.695315
O O9 0.747902 0.509880 0.738474
O O10 0.858456 0.341358 0.707319
O O11 0.410646 0.410646 0.000000
O O12 0.374460 0.625541 0.000000
O O13 0.377642 0.377642 0.790576
O O14 0.253720 0.545312 0.818233
O O15 0.881596 0.881596 0.377964
#
# Coordination Sequence:
#
# PCOD9569389 Si02
#       6
#    16  16  16   8  16  16
#     4  10  19  35  59  86 114 150 188 230 285 347
#     4  10  20  36  54  75 106 145 190 228 279 346
#     4  11  22  35  52  73 102 138 184 240 284 335
#     4   9  18  32  55  92 129 153 183 237 302 357
#     4  11  23  36  53  78 105 144 194 245 297 345
#     4  11  22  36  55  80 111 147 188 237 288 342
#
# _framework density 19.457975999999999
#
# number of rings (size 3 to 8) (size 9 to 14) (size 15 to 20)
#    0.000    1.545    3.636    3.273    0.000    5.455 
#    0.000    4.091    0.000    1.636    0.000    0.000 
#    0.000    2.182    0.000    0.000    0.000    5.818 
#
# Total GULP energy -490948.679728 kJ/mol
# GULP energy per Si atom -5578.962270 kJ/mol
# Density = 1.941369 g / cm^3
# Si number density = 19.457976 Si / 1000 Ang^3
#
#
#
# Elastic Constant Matrix: (Units=GPa)
#
#
# Indices 1 2 3 4 5 6 
#
# 1 51.0674 23.2674 15.1535 0.0000 0.0000 0.0000
# 2 23.2674 51.0673 15.1535 0.0000 0.0000 0.0000
# 3 15.1535 15.1535 84.5527 0.0000 0.0000 0.0000
# 4 0.0000 0.0000 0.0000 20.1296 0.0000 0.0000
# 5 0.0000 0.0000 0.0000 0.0000 20.1301 0.0000
# 6 0.0000 0.0000 0.0000 0.0000 0.0000 4.2955
#
#
#
# Elastic Compliance Matrix: (Units=1/GPa)
#
#
# Indices 1 2 3 4 5 6 
#
# 1 0.025242 -0.010729 -0.002601 0.000000 0.000000 0.000000
# 2 -0.010729 0.025242 -0.002601 0.000000 0.000000 0.000000
# 3 -0.002601 -0.002601 0.012759 0.000000 0.000000 0.000000
# 4 0.000000 0.000000 0.000000 0.049678 0.000000 0.000000
# 5 0.000000 0.000000 0.000000 0.000000 0.049677 0.000000
# 6 0.000000 0.000000 0.000000 0.000000 0.000000 0.232801
#
#
# Mechanical properties :
#
#
# Convention : Reuss Voigt Hill
#
# Bulk Modulus (GPa) = 31.86605 32.64847 32.25726
# Shear Modulus (GPa) = 11.42277 17.78523 14.60400
#
# Velocity S-wave (km/s) = 2.42554 3.02658 2.74257
# Velocity P-wave (km/s) = 4.92511 5.38785 5.16167
#
# Compressibility (1/GPa) = 0.03138136
#
# Stress axis : x y z
#
# Youngs Moduli (GPa) = 39.61621 39.61610 78.37452
#
# Poissons Ratio (x) = 0.42505 0.20385
# Poissons Ratio (y) = 0.42505 0.20386
# Poissons Ratio (z) = 0.10304 0.10304
#
# Static dielectric constant tensor:
#      x y z
#    x 1.693380 0.000000 0.000000 
#    y 0.000000 1.693380 0.000000 
#    z 0.000000 0.000000 1.715120 
# 
# From -- ./inp_files/9721.got.cif
#   From: 2010.05.17/outbox.cif.g08.bks.cpg/sg136_5_cif.got.tgz:9721.got - 2010.05.20 12:54:53.
