data_PCOD9569796
_publ_section_title
;
Structure prediction by ZEFSAII (Michael W. Deem and Ramdas Pophale) SiO2 
 PCOD9569796
Probable space group: P 42/M N M
;
_chemical_formula_sum "Si O2"
_cell_formula_units_Z 60
_cell_length_a 18.264411
_cell_length_b 18.264411
_cell_length_c 9.034000
_cell_angle_alpha 90.000000
_cell_angle_beta 90.000000
_cell_angle_gamma 90.000000
_cell_volume 3013.640399
_symmetry_space_group_name_H-M "P 42/M N M"
_symmetry_group_IT_number 136
_symmetry_cell_setting 'tetragonal'
loop_
_space_group_symop_operation_xyz
x,y,z
1/2-y,1/2+x,1/2+z
-x,-y,z
1/2+y,1/2-x,1/2+z
1/2+x,1/2-y,1/2-z
1/2-x,1/2+y,1/2-z
y,x,-z
-y,-x,-z
-x,-y,-z
1/2+y,1/2-x,1/2-z
x,y,-z
1/2-y,1/2+x,1/2-z
1/2-x,1/2+y,1/2+z
1/2+x,1/2-y,1/2+z
-y,-x,z
y,x,z
loop_
_atom_site_type_symbol
_atom_site_label
_atom_site_fract_x
_atom_site_fract_y
_atom_site_fract_z
Si Si1 0.686037 0.313964 0.335810
Si Si2 0.879077 0.002976 0.500000
Si Si3 0.261818 0.738183 0.000000
Si Si4 0.971999 0.603613 0.672831
Si Si5 0.769251 0.975163 0.236503
Si Si6 0.101561 0.779044 0.000000
O O1 0.714968 0.285033 0.500000
O O2 0.710702 0.289299 0.164534
O O3 0.703903 0.400103 0.337635
O O4 0.920059 0.079942 0.500000
O O5 0.827818 0.992721 0.360814
O O6 0.940351 0.940351 0.500000
O O7 0.173339 0.727533 0.000000
O O8 0.052915 0.581393 0.729923
O O9 0.963857 0.585679 0.500000
O O10 0.960388 0.688855 0.699412
O O11 0.766570 0.047229 0.135630
O O12 0.140434 0.859566 0.000000
#
# Coordination Sequence:
#
# PCOD9569796 Si02
#       6
#     8   8   4  16  16   8
#     4  12  26  46  77 110 147 196 251 303 374 447
#     4  11  23  43  71 103 140 189 238 295 361 438
#     4  10  28  52  72 103 153 200 244 312 372 428
#     4  11  26  43  69  99 133 181 233 298 360 431
#     4  12  24  45  71 103 144 185 243 296 368 439
#     4  10  26  47  67  99 144 192 239 302 363 431
#
# _framework density 19.909475
#
# number of rings (size 3 to 8) (size 9 to 14) (size 15 to 20)
#    0.400    0.400    4.000    3.200    7.467    0.000 
#    2.400    0.667    0.000    0.000    0.000    0.000 
#    0.000    0.000    0.000    0.000    0.000    0.000 
#
# Total GULP energy -334696.408944 kJ/mol
# GULP energy per Si atom -5578.273482 kJ/mol
# Density = 1.986416 g / cm^3
# Si number density = 19.909475 Si / 1000 Ang^3
#
#
#
# Elastic Constant Matrix: (Units=GPa)
#
#
# Indices 1 2 3 4 5 6 
#
# 1 119.2782 7.0038 29.2566 0.0000 0.0000 0.0000
# 2 7.0038 119.2731 29.2540 0.0000 0.0000 0.0000
# 3 29.2566 29.2540 147.0922 0.0000 0.0000 0.0000
# 4 0.0000 0.0000 0.0000 112.1493 0.0000 0.0000
# 5 0.0000 0.0000 0.0000 0.0000 112.1580 0.0000
# 6 0.0000 0.0000 0.0000 0.0000 0.0000 16.4809
#
#
#
# Elastic Compliance Matrix: (Units=1/GPa)
#
#
# Indices 1 2 3 4 5 6 
#
# 1 0.008815 -0.000092 -0.001735 0.000000 0.000000 0.000000
# 2 -0.000092 0.008815 -0.001735 0.000000 0.000000 0.000000
# 3 -0.001735 -0.001735 0.007489 0.000000 0.000000 0.000000
# 4 0.000000 0.000000 0.000000 0.008917 0.000000 0.000000
# 5 0.000000 0.000000 0.000000 0.000000 0.008916 0.000000
# 6 0.000000 0.000000 0.000000 0.000000 0.000000 0.060676
#
#
# Mechanical properties :
#
#
# Convention : Reuss Voigt Hill
#
# Bulk Modulus (GPa) = 55.57222 57.40805 56.49014
# Shear Modulus (GPa) = 42.82685 69.49957 56.16321
#
# Velocity S-wave (km/s) = 4.64300 5.91469 5.31700
# Velocity P-wave (km/s) = 7.53103 8.69148 8.13198
#
# Compressibility (1/GPa) = 0.01799460
#
# Stress axis : x y z
#
# Youngs Moduli (GPa) = 113.44668 113.44264 133.53695
#
# Poissons Ratio (x) = 0.01045 0.23168
# Poissons Ratio (y) = 0.01045 0.23166
# Poissons Ratio (z) = 0.19682 0.19680
#
# Static dielectric constant tensor:
#      x y z
#    x 1.684740 0.000000 0.000000 
#    y 0.000000 1.684740 0.000000 
#    z 0.000000 0.000000 1.701810 
# 
# From -- ./inp_files/1207.got.cif
#   From: 2010.05.17/outbox.cif.g08.bks.cpg/sg136_1_cif.got.tgz:1207.got - 2010.05.20 12:54:53.
