data_PCOD9569685
_publ_section_title
;
Structure prediction by ZEFSAII (Michael W. Deem and Ramdas Pophale) SiO2 
 PCOD9569685
Probable space group: P 42/M N M
;
_chemical_formula_sum "Si O2"
_cell_formula_units_Z 96
_cell_length_a 23.211762
_cell_length_b 23.211762
_cell_length_c 8.683996
_cell_angle_alpha 90.000000
_cell_angle_beta 90.000000
_cell_angle_gamma 90.000000
_cell_volume 4678.814558
_symmetry_space_group_name_H-M "P 42/M N M"
_symmetry_group_IT_number 136
_symmetry_cell_setting 'tetragonal'
loop_
_space_group_symop_operation_xyz
x,y,z
1/2-y,1/2+x,1/2+z
-x,-y,z
1/2+y,1/2-x,1/2+z
1/2+x,1/2-y,1/2-z
1/2-x,1/2+y,1/2-z
y,x,-z
-y,-x,-z
-x,-y,-z
1/2+y,1/2-x,1/2-z
x,y,-z
1/2-y,1/2+x,1/2-z
1/2-x,1/2+y,1/2+z
1/2+x,1/2-y,1/2+z
-y,-x,z
y,x,z
loop_
_atom_site_type_symbol
_atom_site_label
_atom_site_fract_x
_atom_site_fract_y
_atom_site_fract_z
Si Si1 0.978511 0.885133 0.319672
Si Si2 0.396379 0.701655 0.671463
Si Si3 0.828152 0.084679 0.816081
Si Si4 0.920408 0.299620 0.184833
Si Si5 0.310695 0.784337 0.183383
Si Si6 0.413442 0.976592 0.683836
O O1 0.990925 0.891293 0.500000
O O2 0.939752 0.939752 0.270533
O O3 0.940053 0.828430 0.287581
O O4 0.035795 0.873715 0.225917
O O5 0.421969 0.707824 0.500000
O O6 0.254532 0.745469 0.774257
O O7 0.366320 0.759061 0.730795
O O8 0.854696 0.145305 0.759385
O O9 0.765191 0.066496 0.758851
O O10 0.822467 0.089757 0.000000
O O11 0.851820 0.304931 0.212783
O O12 0.955482 0.350612 0.264181
O O13 0.929977 0.303706 0.000000
O O14 0.344122 0.655879 0.338386
O O15 0.318420 0.776463 0.000000
O O16 0.416999 0.980270 0.500000
O O17 0.461820 0.931804 0.745077
#
# Coordination Sequence:
#
# PCOD9569685 Si02
#       6
#    16  16  16  16  16  16
#     4  10  21  37  57  81 111 149 193 241 293 346
#     4   9  17  30  50  77 108 141 181 232 285 336
#     4  10  22  40  61  85 115 152 194 241 290 340
#     4  10  21  38  60  87 118 153 194 237 284 342
#     4   9  17  31  53  80 113 154 196 239 290 347
#     4  11  23  42  67  93 122 155 192 235 286 342
#
# _framework density 20.518018000000001
#
# number of rings (size 3 to 8) (size 9 to 14) (size 15 to 20)
#    0.000    2.167    0.000    3.500    0.000    8.333 
#    0.000    1.667    0.000    3.000    0.000    0.000 
#    0.000    0.000    0.000    0.000    0.000    0.000 
#
# Total GULP energy -535859.035916 kJ/mol
# GULP energy per Si atom -5581.864957 kJ/mol
# Density = 2.047132 g / cm^3
# Si number density = 20.518018 Si / 1000 Ang^3
#
#
#
# Elastic Constant Matrix: (Units=GPa)
#
#
# Indices 1 2 3 4 5 6 
#
# 1 85.1144 53.0464 22.8457 0.0000 0.0000 0.0000
# 2 53.0464 85.1144 22.8457 0.0000 0.0000 0.0000
# 3 22.8457 22.8457 41.5734 0.0000 0.0000 0.0000
# 4 0.0000 0.0000 0.0000 20.8795 0.0000 0.0000
# 5 0.0000 0.0000 0.0000 0.0000 20.8795 0.0000
# 6 0.0000 0.0000 0.0000 0.0000 0.0000 28.5447
#
#
#
# Elastic Compliance Matrix: (Units=1/GPa)
#
#
# Indices 1 2 3 4 5 6 
#
# 1 0.020015 -0.011169 -0.004861 0.000000 0.000000 0.000000
# 2 -0.011169 0.020015 -0.004861 0.000000 0.000000 0.000000
# 3 -0.004861 -0.004861 0.029396 0.000000 0.000000 0.000000
# 4 0.000000 0.000000 0.000000 0.047894 0.000000 0.000000
# 5 0.000000 0.000000 0.000000 0.000000 0.047894 0.000000
# 6 0.000000 0.000000 0.000000 0.000000 0.000000 0.035033
#
#
# Mechanical properties :
#
#
# Convention : Reuss Voigt Hill
#
# Bulk Modulus (GPa) = 36.17452 45.47533 40.82492
# Shear Modulus (GPa) = 19.90114 21.59838 20.74976
#
# Velocity S-wave (km/s) = 3.11776 3.24798 3.18354
# Velocity P-wave (km/s) = 5.53439 6.02309 5.78390
#
# Compressibility (1/GPa) = 0.02764377
#
# Stress axis : x y z
#
# Youngs Moduli (GPa) = 49.96345 49.96345 34.01808
#
# Poissons Ratio (x) = 0.55805 0.16536
# Poissons Ratio (y) = 0.55805 0.16536
# Poissons Ratio (z) = 0.24286 0.24286
#
# Static dielectric constant tensor:
#      x y z
#    x 1.747030 0.000000 0.000000 
#    y 0.000000 1.747030 0.000000 
#    z 0.000000 0.000000 1.698920 
# 
# From -- ./inp_files/2014.got.cif
#   From: 2010.05.17/outbox.cif.g08.bks.cpg/sg136_2_cif.got.tgz:2014.got - 2010.05.20 12:54:53.
