data_PCOD9569773
_publ_section_title
;
Structure prediction by ZEFSAII (Michael W. Deem and Ramdas Pophale) SiO2 
 PCOD9569773
Probable space group: P 42/M N M
;
_chemical_formula_sum "Si O2"
_cell_formula_units_Z 68
_cell_length_a 10.656784
_cell_length_b 10.656784
_cell_length_c 28.002911
_cell_angle_alpha 90.000000
_cell_angle_beta 90.000000
_cell_angle_gamma 90.000000
_cell_volume 3180.207860
_symmetry_space_group_name_H-M "P 42/M N M"
_symmetry_group_IT_number 136
_symmetry_cell_setting 'tetragonal'
loop_
_space_group_symop_operation_xyz
x,y,z
1/2-y,1/2+x,1/2+z
-x,-y,z
1/2+y,1/2-x,1/2+z
1/2+x,1/2-y,1/2-z
1/2-x,1/2+y,1/2-z
y,x,-z
-y,-x,-z
-x,-y,-z
1/2+y,1/2-x,1/2-z
x,y,-z
1/2-y,1/2+x,1/2-z
1/2-x,1/2+y,1/2+z
1/2+x,1/2-y,1/2+z
-y,-x,z
y,x,z
loop_
_atom_site_type_symbol
_atom_site_label
_atom_site_fract_x
_atom_site_fract_y
_atom_site_fract_z
Si Si1 0.301442 0.698559 0.301369
Si Si2 0.400994 0.185409 0.445107
Si Si3 0.009677 0.801457 0.557829
Si Si4 0.000000 0.000000 0.219782
Si Si5 0.805899 0.194102 0.790494
Si Si6 0.352000 0.009743 0.149318
O O1 0.408042 0.591959 0.308730
O O2 0.275122 0.724879 0.246154
O O3 0.181703 0.639900 0.325669
O O4 0.444660 0.176480 0.500000
O O5 0.297063 0.297063 0.443443
O O6 0.329539 0.055901 0.430464
O O7 0.503791 0.201154 0.404593
O O8 0.012656 0.800467 0.500000
O O9 0.905961 0.905961 0.571658
O O10 0.143379 0.856622 0.574374
O O11 0.100768 0.899233 0.240119
O O12 0.894609 0.283378 0.822595
O O13 0.500000 0.000000 0.151726
#
# Coordination Sequence:
#
# PCOD9569773 Si02
#       6
#     8  16  16   4   8  16
#     4  10  24  42  67  92 128 170 213 264 330 383
#     4   9  17  34  59  88 125 169 215 266 320 381
#     4   7  10  19  41  72 107 150 197 241 296 360
#     4   8  20  40  68  92 117 166 197 260 312 394
#     4  10  22  42  67  95 127 164 212 257 331 387
#     4  11  24  41  65  96 131 167 214 266 320 391
#
# _framework density 21.382248000000001
#
# number of rings (size 3 to 8) (size 9 to 14) (size 15 to 20)
#    0.000    2.824    1.176    2.118    6.588    0.471 
#    2.118    0.588    0.000    1.412    0.000    0.000 
#    0.000    0.000    0.000    0.000    0.000    0.000 
#
# Total GULP energy -378675.347472 kJ/mol
# GULP energy per Si atom -5568.755110 kJ/mol
# Density = 2.133358 g / cm^3
# Si number density = 21.382248 Si / 1000 Ang^3
#
#
#
# Elastic Constant Matrix: (Units=GPa)
#
#
# Indices 1 2 3 4 5 6 
#
# 1 60.0431 13.5979 34.5481 0.0000 0.0000 0.0000
# 2 13.5979 60.0431 34.5481 0.0000 0.0000 0.0000
# 3 34.5481 34.5481 99.7083 0.0000 0.0000 0.0000
# 4 0.0000 0.0000 0.0000 7.0016 0.0000 0.0000
# 5 0.0000 0.0000 0.0000 0.0000 7.0016 0.0000
# 6 0.0000 0.0000 0.0000 0.0000 0.0000 20.1387
#
#
#
# Elastic Compliance Matrix: (Units=1/GPa)
#
#
# Indices 1 2 3 4 5 6 
#
# 1 0.020826 -0.000705 -0.006972 0.000000 0.000000 0.000000
# 2 -0.000705 0.020826 -0.006972 0.000000 0.000000 0.000000
# 3 -0.006972 -0.006972 0.014861 0.000000 0.000000 0.000000
# 4 0.000000 0.000000 0.000000 0.142825 0.000000 0.000000
# 5 0.000000 0.000000 0.000000 0.000000 0.142825 0.000000
# 6 0.000000 0.000000 0.000000 0.000000 0.000000 0.049656
#
#
# Mechanical properties :
#
#
# Convention : Reuss Voigt Hill
#
# Bulk Modulus (GPa) = 36.74396 42.79810 39.77103
# Shear Modulus (GPa) = 11.62285 15.96838 13.79562
#
# Velocity S-wave (km/s) = 2.33400 2.73574 2.54282
# Velocity P-wave (km/s) = 4.94824 5.48071 5.22127
#
# Compressibility (1/GPa) = 0.02721536
#
# Stress axis : x y z
#
# Youngs Moduli (GPa) = 48.01741 48.01741 67.29237
#
# Poissons Ratio (x) = 0.03385 0.46914
# Poissons Ratio (y) = 0.03385 0.46914
# Poissons Ratio (z) = 0.33476 0.33476
#
# Static dielectric constant tensor:
#      x y z
#    x 1.794980 0.000000 0.000000 
#    y 0.000000 1.794980 0.000000 
#    z 0.000000 0.000000 1.738000 
# 
# From -- ./inp_files/9005.got.cif
#   From: 2010.05.17/outbox.cif.g08.bks.cpg/sg136_5_cif.got.tgz:9005.got - 2010.05.20 12:54:53.
