data_PCOD9569691
_publ_section_title
;
Structure prediction by ZEFSAII (Michael W. Deem and Ramdas Pophale) SiO2 
 PCOD9569691
Probable space group: P 42/M N M
;
_chemical_formula_sum "Si O2"
_cell_formula_units_Z 96
_cell_length_a 24.601061
_cell_length_b 24.601061
_cell_length_c 8.227585
_cell_angle_alpha 90.000000
_cell_angle_beta 90.000000
_cell_angle_gamma 90.000000
_cell_volume 4979.434838
_symmetry_space_group_name_H-M "P 42/M N M"
_symmetry_group_IT_number 136
_symmetry_cell_setting 'tetragonal'
loop_
_space_group_symop_operation_xyz
x,y,z
1/2-y,1/2+x,1/2+z
-x,-y,z
1/2+y,1/2-x,1/2+z
1/2+x,1/2-y,1/2-z
1/2-x,1/2+y,1/2-z
y,x,-z
-y,-x,-z
-x,-y,-z
1/2+y,1/2-x,1/2-z
x,y,-z
1/2-y,1/2+x,1/2-z
1/2-x,1/2+y,1/2+z
1/2+x,1/2-y,1/2+z
-y,-x,z
y,x,z
loop_
_atom_site_type_symbol
_atom_site_label
_atom_site_fract_x
_atom_site_fract_y
_atom_site_fract_z
Si Si1 0.134077 0.221532 0.194592
Si Si2 0.012114 0.210478 0.692771
Si Si3 0.191634 0.721859 0.196700
Si Si4 0.587755 0.499712 0.801720
Si Si5 0.420684 0.965954 0.806174
Si Si6 0.429422 0.198070 0.304837
O O1 0.167900 0.167900 0.246331
O O2 0.074790 0.222825 0.270080
O O3 0.170849 0.272397 0.247089
O O4 0.129555 0.220965 0.000000
O O5 0.003831 0.210029 0.500000
O O6 0.999804 0.149569 0.756340
O O7 0.973509 0.256471 0.764339
O O8 0.224145 0.775856 0.251092
O O9 0.130100 0.715791 0.255782
O O10 0.191197 0.722292 0.000000
O O11 0.553869 0.446132 0.751080
O O12 0.551734 0.551734 0.752773
O O13 0.588619 0.499089 0.000000
O O14 0.470857 0.932334 0.732058
O O15 0.361736 0.947002 0.744974
O O16 0.422982 0.958763 0.000000
O O17 0.426055 0.193944 0.500000
#
# Coordination Sequence:
#
# PCOD9569691 Si02
#       6
#    16  16  16  16  16  16
#     4  10  21  37  58  84 114 147 184 233 287 332
#     4  11  22  34  54  84 114 147 188 231 275 333
#     4   9  19  38  61  82 109 149 193 232 275 334
#     4   8  15  30  52  78 109 144 183 229 276 319
#     4  10  21  38  59  82 109 141 182 230 281 339
#     4  10  23  39  55  82 116 150 185 230 282 332
#
# _framework density 19.279297
#
# number of rings (size 3 to 8) (size 9 to 14) (size 15 to 20)
#    0.000    2.333    0.000    3.000    2.333    4.333 
#    0.000    0.000    0.000    1.500    0.000    5.833 
#    0.000    0.000    0.000    0.000    0.000    0.000 
#
# Total GULP energy -535960.447634 kJ/mol
# GULP energy per Si atom -5582.921330 kJ/mol
# Density = 1.923542 g / cm^3
# Si number density = 19.279297 Si / 1000 Ang^3
#
#
#
# Elastic Constant Matrix: (Units=GPa)
#
#
# Indices 1 2 3 4 5 6 
#
# 1 57.9347 174.2769 -0.7743 0.0000 0.0000 0.0000
# 2 174.2769 57.9347 -0.7743 0.0000 0.0000 0.0000
# 3 -0.7743 -0.7743 7.1387 0.0000 0.0000 0.0000
# 4 0.0000 0.0000 0.0000 5.7275 0.0000 0.0000
# 5 0.0000 0.0000 0.0000 0.0000 5.7275 0.0000
# 6 0.0000 0.0000 0.0000 0.0000 0.0000 12.5612
#
#
#
# Elastic Compliance Matrix: (Units=1/GPa)
#
#
# Indices 1 2 3 4 5 6 
#
# 1 -0.002143 0.006452 0.000467 0.000000 0.000000 0.000000
# 2 0.006452 -0.002143 0.000467 0.000000 0.000000 0.000000
# 3 0.000467 0.000467 0.140183 0.000000 0.000000 0.000000
# 4 0.000000 0.000000 0.000000 0.174597 0.000000 0.000000
# 5 0.000000 0.000000 0.000000 0.000000 0.174597 0.000000
# 6 0.000000 0.000000 0.000000 0.000000 0.000000 0.079610
#
#
# Mechanical properties :
#
#
# Convention : Reuss Voigt Hill
#
# Bulk Modulus (GPa) = 6.63693 52.05163 29.34428
# Shear Modulus (GPa) = 8.33122 1.48854 4.90988
#
# Velocity S-wave (km/s) = 2.08104 0.87964 1.59757
# Velocity P-wave (km/s) = 3.03715 5.29991 4.31933
#
# Compressibility (1/GPa) = 0.15067197
#
# Stress axis : x y z
#
# Youngs Moduli (GPa) = -466.65753 -466.65753 7.13352
#
# Poissons Ratio (x) = 3.01108 -0.00333
# Poissons Ratio (y) = 3.01108 -0.00333
# Poissons Ratio (z) = 0.21813 0.21813
#
# Static dielectric constant tensor:
#      x y z
#    x 1.657040 0.000000 0.000000 
#    y 0.000000 1.657040 0.000000 
#    z 0.000000 0.000000 1.672090 
# 
# From -- ./inp_files/1976.got.cif
#   From: 2010.05.17/outbox.cif.g08.bks.cpg/sg136_1_cif.got.tgz:1976.got - 2010.05.20 12:54:53.
