data_PCOD9569631
_publ_section_title
;
Structure prediction by ZEFSAII (Michael W. Deem and Ramdas Pophale) SiO2 
 PCOD9569631
Probable space group: P 42/M N M
;
_chemical_formula_sum "Si O2"
_cell_formula_units_Z 80
_cell_length_a 19.453973
_cell_length_b 19.453973
_cell_length_c 13.139075
_cell_angle_alpha 90.000000
_cell_angle_beta 90.000000
_cell_angle_gamma 90.000000
_cell_volume 4972.575768
_symmetry_space_group_name_H-M "P 42/M N M"
_symmetry_group_IT_number 136
_symmetry_cell_setting 'tetragonal'
loop_
_space_group_symop_operation_xyz
x,y,z
1/2-y,1/2+x,1/2+z
-x,-y,z
1/2+y,1/2-x,1/2+z
1/2+x,1/2-y,1/2-z
1/2-x,1/2+y,1/2-z
y,x,-z
-y,-x,-z
-x,-y,-z
1/2+y,1/2-x,1/2-z
x,y,-z
1/2-y,1/2+x,1/2-z
1/2-x,1/2+y,1/2+z
1/2+x,1/2-y,1/2+z
-y,-x,z
y,x,z
loop_
_atom_site_type_symbol
_atom_site_label
_atom_site_fract_x
_atom_site_fract_y
_atom_site_fract_z
Si Si1 0.146257 0.740108 0.618307
Si Si2 0.640227 0.533736 0.121645
Si Si3 0.108879 0.357774 0.736592
Si Si4 0.417316 0.992669 0.118145
Si Si5 0.397449 0.714120 0.121696
O O1 0.141071 0.717040 0.500000
O O2 0.216816 0.783185 0.629361
O O3 0.085494 0.795534 0.635225
O O4 0.141055 0.678084 0.696628
O O5 0.572586 0.572586 0.163168
O O6 0.663731 0.459109 0.156984
O O7 0.629490 0.527166 0.000000
O O8 0.046900 0.377957 0.811780
O O9 0.106486 0.417204 0.651731
O O10 0.099882 0.284521 0.683202
O O11 0.500000 0.000000 0.132881
O O12 0.403411 0.005428 0.000000
O O13 0.326104 0.673896 0.135325
O O14 0.406643 0.726808 0.000000
#
# Coordination Sequence:
#
# PCOD9569631 Si02
#       5
#    16  16  16  16  16
#     4   9  18  31  50  76 102 132 170 210 252 298
#     4   8  15  29  48  69  93 123 159 200 247 295
#     4  12  19  35  50  72  98 143 165 209 247 304
#     4  11  23  36  50  75 101 130 174 212 252 300
#     4  10  21  33  48  73 102 133 167 206 255 306
#
# _framework density 16.088241
#
# number of rings (size 3 to 8) (size 9 to 14) (size 15 to 20)
#    0.000    2.000    2.000    4.200    0.000    0.400 
#    0.000    2.000    0.000    0.000    0.000    0.000 
#    0.000    2.400    0.000   16.200    0.000    1.200 
#
# Total GULP energy -446126.326239 kJ/mol
# GULP energy per Si atom -5576.579078 kJ/mol
# Density = 1.605162 g / cm^3
# Si number density = 16.088241 Si / 1000 Ang^3
#
#
#
# Elastic Constant Matrix: (Units=GPa)
#
#
# Indices 1 2 3 4 5 6 
#
# 1 57.5238 37.6193 30.5563 0.0000 0.0000 0.0000
# 2 37.6193 57.5238 30.5563 0.0000 0.0000 0.0000
# 3 30.5563 30.5563 62.4477 0.0000 0.0000 0.0000
# 4 0.0000 0.0000 0.0000 13.9408 0.0000 0.0000
# 5 0.0000 0.0000 0.0000 0.0000 13.9408 0.0000
# 6 0.0000 0.0000 0.0000 0.0000 0.0000 14.5824
#
#
#
# Elastic Compliance Matrix: (Units=1/GPa)
#
#
# Indices 1 2 3 4 5 6 
#
# 1 0.032784 -0.017456 -0.007500 0.000000 0.000000 0.000000
# 2 -0.017456 0.032784 -0.007500 0.000000 0.000000 0.000000
# 3 -0.007500 -0.007500 0.023353 0.000000 0.000000 0.000000
# 4 0.000000 0.000000 0.000000 0.071732 0.000000 0.000000
# 5 0.000000 0.000000 0.000000 0.000000 0.071732 0.000000
# 6 0.000000 0.000000 0.000000 0.000000 0.000000 0.068576
#
#
# Mechanical properties :
#
#
# Convention : Reuss Voigt Hill
#
# Bulk Modulus (GPa) = 41.65172 41.66211 41.65691
# Shear Modulus (GPa) = 13.37340 13.74368 13.55854
#
# Velocity S-wave (km/s) = 2.88627 2.92596 2.90618
# Velocity P-wave (km/s) = 6.08713 6.11287 6.10002
#
# Compressibility (1/GPa) = 0.02400861
#
# Stress axis : x y z
#
# Youngs Moduli (GPa) = 30.50276 30.50276 42.82071
#
# Poissons Ratio (x) = 0.53245 0.32116
# Poissons Ratio (y) = 0.53245 0.32116
# Poissons Ratio (z) = 0.22877 0.22877
#
# Static dielectric constant tensor:
#      x y z
#    x 1.549070 0.000000 0.000000 
#    y 0.000000 1.549070 0.000000 
#    z 0.000000 0.000000 1.512970 
# 
# From -- ./inp_files/4869.got.cif
#   From: 2010.05.17/outbox.cif.g08.bks.cpg/sg136_3_cif.got.tgz:4869.got - 2010.05.20 12:54:53.
