data_PCOD9569400
_publ_section_title
;
Structure prediction by ZEFSAII (Michael W. Deem and Ramdas Pophale) SiO2 
 PCOD9569400
Probable space group: P 42/M N M
;
_chemical_formula_sum "Si O2"
_cell_formula_units_Z 96
_cell_length_a 16.155306
_cell_length_b 16.155306
_cell_length_c 19.947762
_cell_angle_alpha 90.000000
_cell_angle_beta 90.000000
_cell_angle_gamma 90.000000
_cell_volume 5206.244439
_symmetry_space_group_name_H-M "P 42/M N M"
_symmetry_group_IT_number 136
_symmetry_cell_setting 'tetragonal'
loop_
_space_group_symop_operation_xyz
x,y,z
1/2-y,1/2+x,1/2+z
-x,-y,z
1/2+y,1/2-x,1/2+z
1/2+x,1/2-y,1/2-z
1/2-x,1/2+y,1/2-z
y,x,-z
-y,-x,-z
-x,-y,-z
1/2+y,1/2-x,1/2-z
x,y,-z
1/2-y,1/2+x,1/2-z
1/2-x,1/2+y,1/2+z
1/2+x,1/2-y,1/2+z
-y,-x,z
y,x,z
loop_
_atom_site_type_symbol
_atom_site_label
_atom_site_fract_x
_atom_site_fract_y
_atom_site_fract_z
Si Si1 0.043036 0.225151 0.000000
Si Si2 0.458705 0.244565 0.123023
Si Si3 0.634828 0.494820 0.361728
Si Si4 0.732251 0.139853 0.000000
Si Si5 0.605260 0.746129 0.730004
Si Si6 0.785674 0.348383 0.132940
Si Si7 0.702474 0.157070 0.500000
Si Si8 0.567836 0.567836 0.080956
O O1 0.036097 0.171457 0.932242
O O2 0.957787 0.276240 0.000000
O O3 0.123850 0.282155 0.000000
O O4 0.423098 0.228305 0.196620
O O5 0.554296 0.219477 0.122928
O O6 0.455445 0.342671 0.108709
O O7 0.401828 0.204582 0.065251
O O8 0.580001 0.420000 0.331622
O O9 0.570694 0.570694 0.373538
O O10 0.706739 0.530617 0.313978
O O11 0.691133 0.177922 0.934648
O O12 0.827719 0.172282 0.000000
O O13 0.672373 0.672373 0.736409
O O14 0.651953 0.819109 0.690951
O O15 0.697203 0.302798 0.144821
O O16 0.784436 0.215565 0.500000
O O17 0.500000 0.500000 0.100202
O O18 0.571292 0.571292 0.000000
#
# Coordination Sequence:
#
# PCOD9569400 Si02
#       8
#     8  16  16   8  16  16   8   8
#     4  12  22  37  65  91 124 166 210 250 304 385
#     4  12  22  43  64  88 129 168 208 261 317 377
#     4  10  20  35  59  94 127 156 199 260 322 376
#     4  10  19  39  68  91 124 159 202 271 320 357
#     4  10  21  39  61  87 127 167 197 254 317 377
#     4  10  22  39  66  96 120 161 213 254 314 374
#     4  12  25  43  62  89 125 171 211 257 322 378
#     4  11  22  38  66 100 126 155 209 275 336 380
#
# _framework density 18.439395999999999
#
# number of rings (size 3 to 8) (size 9 to 14) (size 15 to 20)
#    0.000    1.250    4.167    2.500    0.000    3.333 
#    0.000    3.333    0.000    0.000    0.000    0.000 
#    0.000    0.000    0.000    0.000    0.000    0.000 
#
# Total GULP energy -536200.805569 kJ/mol
# GULP energy per Si atom -5585.425058 kJ/mol
# Density = 1.839743 g / cm^3
# Si number density = 18.439396 Si / 1000 Ang^3
#
#
#
# Elastic Constant Matrix: (Units=GPa)
#
#
# Indices 1 2 3 4 5 6 
#
# 1 102.7128 50.4444 48.3206 0.0000 0.0000 0.0000
# 2 50.4444 102.7163 48.3217 0.0000 0.0000 0.0000
# 3 48.3206 48.3217 129.7510 0.0000 0.0000 0.0000
# 4 0.0000 0.0000 0.0000 12.4008 0.0000 0.0000
# 5 0.0000 0.0000 0.0000 0.0000 12.4010 0.0000
# 6 0.0000 0.0000 0.0000 0.0000 0.0000 24.9942
#
#
#
# Elastic Compliance Matrix: (Units=1/GPa)
#
#
# Indices 1 2 3 4 5 6 
#
# 1 0.013833 -0.005298 -0.003178 0.000000 0.000000 0.000000
# 2 -0.005298 0.013833 -0.003178 0.000000 0.000000 0.000000
# 3 -0.003178 -0.003178 0.010074 0.000000 0.000000 0.000000
# 4 0.000000 0.000000 0.000000 0.080640 0.000000 0.000000
# 5 0.000000 0.000000 0.000000 0.000000 0.080639 0.000000
# 6 0.000000 0.000000 0.000000 0.000000 0.000000 0.040009
#
#
# Mechanical properties :
#
#
# Convention : Reuss Voigt Hill
#
# Bulk Modulus (GPa) = 69.29944 69.92817 69.61381
# Shear Modulus (GPa) = 18.71616 22.49876 20.60746
#
# Velocity S-wave (km/s) = 3.18938 3.49685 3.34665
# Velocity P-wave (km/s) = 7.15728 7.36950 7.26417
#
# Compressibility (1/GPa) = 0.01443013
#
# Stress axis : x y z
#
# Youngs Moduli (GPa) = 72.28940 72.29169 99.26065
#
# Poissons Ratio (x) = 0.38302 0.31550
# Poissons Ratio (y) = 0.38301 0.31550
# Poissons Ratio (z) = 0.22977 0.22978
#
# Static dielectric constant tensor:
#      x y z
#    x 1.638730 0.000000 0.000000 
#    y 0.000000 1.638730 0.000000 
#    z 0.000000 0.000000 1.630130 
# 
# From -- ./inp_files/7571.got.cif
#   From: 2010.05.17/outbox.cif.g08.bks.cpg/sg136_4_cif.got.tgz:7571.got - 2010.05.20 12:54:53.
