data_PCOD9569645
_publ_section_title
;
Structure prediction by ZEFSAII (Michael W. Deem and Ramdas Pophale) SiO2 
 PCOD9569645
Probable space group: P 42/M N M
;
_chemical_formula_sum "Si O2"
_cell_formula_units_Z 120
_cell_length_a 27.434584
_cell_length_b 27.434584
_cell_length_c 8.107817
_cell_angle_alpha 90.000000
_cell_angle_beta 90.000000
_cell_angle_gamma 90.000000
_cell_volume 6102.400349
_symmetry_space_group_name_H-M "P 42/M N M"
_symmetry_group_IT_number 136
_symmetry_cell_setting 'tetragonal'
loop_
_space_group_symop_operation_xyz
x,y,z
1/2-y,1/2+x,1/2+z
-x,-y,z
1/2+y,1/2-x,1/2+z
1/2+x,1/2-y,1/2-z
1/2-x,1/2+y,1/2-z
y,x,-z
-y,-x,-z
-x,-y,-z
1/2+y,1/2-x,1/2-z
x,y,-z
1/2-y,1/2+x,1/2-z
1/2-x,1/2+y,1/2+z
1/2+x,1/2-y,1/2+z
-y,-x,z
y,x,z
loop_
_atom_site_type_symbol
_atom_site_label
_atom_site_fract_x
_atom_site_fract_y
_atom_site_fract_z
Si Si1 0.539525 0.460476 0.195677
Si Si2 0.887425 0.588881 0.191031
Si Si3 0.727712 0.806964 0.702361
Si Si4 0.876435 0.288975 0.188461
Si Si5 0.981093 0.646223 0.305123
Si Si6 0.382157 0.700339 0.811383
Si Si7 0.522478 0.749870 0.298936
Si Si8 0.650580 0.475698 0.688695
O O1 0.500000 0.500000 0.263181
O O2 0.526848 0.404178 0.240569
O O3 0.537004 0.462997 0.000000
O O4 0.845924 0.610434 0.307688
O O5 0.937245 0.617589 0.219132
O O6 0.884562 0.530926 0.223584
O O7 0.872253 0.595139 0.000000
O O8 0.725757 0.809142 0.500000
O O9 0.767054 0.767054 0.749428
O O10 0.676347 0.788901 0.768155
O O11 0.748743 0.859823 0.751259
O O12 0.922828 0.261624 0.261277
O O13 0.871686 0.271422 0.000000
O O14 0.971419 0.646921 0.500000
O O15 0.990599 0.702609 0.251647
O O16 0.336808 0.663193 0.821449
O O17 0.422118 0.674236 0.702402
O O18 0.400773 0.706068 0.000000
O O19 0.521593 0.749371 0.500000
O O20 0.506837 0.696055 0.239474
O O21 0.644567 0.490834 0.500000
#
# Coordination Sequence:
#
# PCOD9569645 Si02
#       8
#     8  16  16  16  16  16  16  16
#     4  11  25  45  67  89 115 151 193 237 283 337
#     4  10  21  35  51  73 104 138 180 236 288 334
#     4   8  15  28  49  78 105 133 174 217 255 305
#     4   9  17  33  54  75 105 145 185 223 267 327
#     4  10  21  36  54  77 103 143 191 230 282 344
#     4   9  17  30  49  77 112 143 174 217 267 322
#     4   9  20  36  53  79 114 146 182 230 278 328
#     4  11  22  36  57  86 117 149 182 226 285 337
#
# _framework density 19.664394000000001
#
# number of rings (size 3 to 8) (size 9 to 14) (size 15 to 20)
#    0.000    2.467    0.667    2.200    1.867    3.467 
#    0.000    2.000    0.000    3.600    0.000    0.000 
#    0.000    0.000    0.000    0.000    0.000    0.000 
#
# Total GULP energy -668182.508260 kJ/mol
# GULP energy per Si atom -5568.187569 kJ/mol
# Density = 1.961964 g / cm^3
# Si number density = 19.664394 Si / 1000 Ang^3
#
#
#
# Elastic Constant Matrix: (Units=GPa)
#
#
# Indices 1 2 3 4 5 6 
#
# 1 81.5011 102.2480 11.3491 0.0000 0.0000 0.0000
# 2 102.2480 81.5016 11.3500 0.0000 0.0000 0.0000
# 3 11.3491 11.3500 25.9531 0.0000 0.0000 0.0000
# 4 0.0000 0.0000 0.0000 3.8828 0.0000 0.0000
# 5 0.0000 0.0000 0.0000 0.0000 3.8826 0.0000
# 6 0.0000 0.0000 0.0000 0.0000 0.0000 22.9409
#
#
#
# Elastic Compliance Matrix: (Units=1/GPa)
#
#
# Indices 1 2 3 4 5 6 
#
# 1 -0.021224 0.026977 -0.002517 0.000000 0.000000 0.000000
# 2 0.026977 -0.021224 -0.002515 0.000000 0.000000 0.000000
# 3 -0.002517 -0.002515 0.040732 0.000000 0.000000 0.000000
# 4 0.000000 0.000000 0.000000 0.257547 0.000000 0.000000
# 5 0.000000 0.000000 0.000000 0.000000 0.257560 0.000000
# 6 0.000000 0.000000 0.000000 0.000000 0.000000 0.043590
#
#
# Mechanical properties :
#
#
# Convention : Reuss Voigt Hill
#
# Bulk Modulus (GPa) = 23.71122 48.76111 36.23617
# Shear Modulus (GPa) = 9.48496 10.40849 9.94672
#
# Velocity S-wave (km/s) = 2.19861 2.30316 2.25149
# Velocity P-wave (km/s) = 4.30457 5.65006 5.02258
#
# Compressibility (1/GPa) = 0.04217412
#
# Stress axis : x y z
#
# Youngs Moduli (GPa) = -47.11712 -47.11701 24.55101
#
# Poissons Ratio (x) = 1.27106 0.06179
# Poissons Ratio (y) = 1.27107 0.06175
# Poissons Ratio (z) = -0.11858 -0.11850
#
# Static dielectric constant tensor:
#      x y z
#    x 1.725400 0.000000 0.000000 
#    y 0.000000 1.725390 0.000000 
#    z 0.000000 0.000000 1.703460 
# 
# From -- ./inp_files/2320.got.cif
#   From: 2010.05.17/outbox.cif.g08.bks.cpg/sg136_2_cif.got.tgz:2320.got - 2010.05.20 12:54:53.
