data_PCOD9569337
_publ_section_title
;
Structure prediction by ZEFSAII (Michael W. Deem and Ramdas Pophale) SiO2 
 PCOD9569337
Probable space group: P 42/M N M
;
_chemical_formula_sum "Si O2"
_cell_formula_units_Z 120
_cell_length_a 26.157875
_cell_length_b 26.157875
_cell_length_c 7.658608
_cell_angle_alpha 90.000000
_cell_angle_beta 90.000000
_cell_angle_gamma 90.000000
_cell_volume 5240.283237
_symmetry_space_group_name_H-M "P 42/M N M"
_symmetry_group_IT_number 136
_symmetry_cell_setting 'tetragonal'
loop_
_space_group_symop_operation_xyz
x,y,z
1/2-y,1/2+x,1/2+z
-x,-y,z
1/2+y,1/2-x,1/2+z
1/2+x,1/2-y,1/2-z
1/2-x,1/2+y,1/2-z
y,x,-z
-y,-x,-z
-x,-y,-z
1/2+y,1/2-x,1/2-z
x,y,-z
1/2-y,1/2+x,1/2-z
1/2-x,1/2+y,1/2+z
1/2+x,1/2-y,1/2+z
-y,-x,z
y,x,z
loop_
_atom_site_type_symbol
_atom_site_label
_atom_site_fract_x
_atom_site_fract_y
_atom_site_fract_z
Si Si1 0.995093 0.692688 0.203235
Si Si2 0.540054 0.459947 0.708240
Si Si3 0.277925 0.422462 0.796297
Si Si4 0.994187 0.846731 0.707908
Si Si5 0.305168 0.120975 0.802174
Si Si6 0.805688 0.888791 0.288447
Si Si7 0.920325 0.518730 0.200682
Si Si8 0.683449 0.766656 0.785084
O O1 0.936431 0.690314 0.276729
O O2 0.035375 0.732348 0.285024
O O3 0.017471 0.635716 0.219694
O O4 0.990516 0.706762 0.000000
O O5 0.500000 0.500000 0.780951
O O6 0.539222 0.460779 0.500000
O O7 0.522308 0.404303 0.763658
O O8 0.326761 0.452306 0.719909
O O9 0.262807 0.367500 0.724237
O O10 0.288070 0.412067 0.000000
O O11 0.995827 0.838615 0.500000
O O12 0.946590 0.813513 0.773217
O O13 0.244648 0.131861 0.800131
O O14 0.324375 0.174475 0.723700
O O15 0.325750 0.116869 0.000000
O O16 0.799441 0.887775 0.500000
O O17 0.855007 0.855007 0.247234
O O18 0.944465 0.461839 0.211053
O O19 0.916564 0.534580 0.000000
O O20 0.734268 0.734268 0.733792
O O21 0.684514 0.769133 0.000000
#
# Coordination Sequence:
#
# PCOD9569337 Si02
#       8
#    16   8  16  16  16  16  16  16
#     4  11  23  37  56  90 126 161 206 250 301 367
#     4  11  25  41  59  87 121 157 199 247 309 381
#     4  10  21  38  63  89 117 160 205 254 313 367
#     4  10  20  37  59  86 117 152 198 246 304 368
#     4  10  21  36  57  85 118 154 197 244 296 358
#     4  10  19  33  54  82 116 147 183 238 297 357
#     4  11  23  41  63  88 121 160 203 253 307 365
#     4   9  19  37  60  88 118 151 200 253 300 361
#
# _framework density 22.899526000000002
#
# number of rings (size 3 to 8) (size 9 to 14) (size 15 to 20)
#    0.000    1.800    2.000    2.600    1.867    3.467 
#    0.000    2.000    0.000    1.200    0.000    0.000 
#    0.000    0.000    0.000    0.000    0.000    0.000 
#
# Total GULP energy -669952.313549 kJ/mol
# GULP energy per Si atom -5582.935946 kJ/mol
# Density = 2.284741 g / cm^3
# Si number density = 22.899526 Si / 1000 Ang^3
#
#
#
# Elastic Constant Matrix: (Units=GPa)
#
#
# Indices 1 2 3 4 5 6 
#
# 1 69.1556 -10.5966 -13.3751 0.0000 0.0000 0.0000
# 2 -10.5966 69.1556 -13.3751 0.0000 0.0000 0.0000
# 3 -13.3751 -13.3751 49.2261 0.0000 0.0000 0.0000
# 4 0.0000 0.0000 0.0000 14.1318 0.0000 0.0000
# 5 0.0000 0.0000 0.0000 0.0000 14.1318 0.0000
# 6 0.0000 0.0000 0.0000 0.0000 0.0000 34.0676
#
#
#
# Elastic Compliance Matrix: (Units=1/GPa)
#
#
# Indices 1 2 3 4 5 6 
#
# 1 0.016018 0.003479 0.005297 0.000000 0.000000 0.000000
# 2 0.003479 0.016018 0.005297 0.000000 0.000000 0.000000
# 3 0.005297 0.005297 0.023193 0.000000 0.000000 0.000000
# 4 0.000000 0.000000 0.000000 0.070762 0.000000 0.000000
# 5 0.000000 0.000000 0.000000 0.000000 0.070762 0.000000
# 6 0.000000 0.000000 0.000000 0.000000 0.000000 0.029353
#
#
# Mechanical properties :
#
#
# Convention : Reuss Voigt Hill
#
# Bulk Modulus (GPa) = 11.99386 12.53820 12.26603
# Shear Modulus (GPa) = 22.14829 27.45852 24.80340
#
# Velocity S-wave (km/s) = 3.11335 3.46654 3.29468
# Velocity P-wave (km/s) = 4.26297 4.63786 4.45436
#
# Compressibility (1/GPa) = 0.08337597
#
# Stress axis : x y z
#
# Youngs Moduli (GPa) = 62.43075 62.43073 43.11629
#
# Poissons Ratio (x) = -0.21719 -0.22840
# Poissons Ratio (y) = -0.21719 -0.22840
# Poissons Ratio (z) = -0.33072 -0.33072
#
# Static dielectric constant tensor:
#      x y z
#    x 1.883130 0.000000 0.000000 
#    y 0.000000 1.883130 0.000000 
#    z 0.000000 0.000000 1.849720 
# 
# From -- ./inp_files/2299.got.cif
#   From: 2010.05.17/outbox.cif.g08.bks.cpg/sg136_2_cif.got.tgz:2299.got - 2010.05.20 12:54:53.
