data_PCOD9569152
_publ_section_title
;
Structure prediction by ZEFSAII (Michael W. Deem and Ramdas Pophale) SiO2 
 PCOD9569152
Probable space group: P 42/M N M
;
_chemical_formula_sum "Si O2"
_cell_formula_units_Z 96
_cell_length_a 16.035301
_cell_length_b 16.035301
_cell_length_c 20.042181
_cell_angle_alpha 90.000000
_cell_angle_beta 90.000000
_cell_angle_gamma 90.000000
_cell_volume 5153.463601
_symmetry_space_group_name_H-M "P 42/M N M"
_symmetry_group_IT_number 136
_symmetry_cell_setting 'tetragonal'
loop_
_space_group_symop_operation_xyz
x,y,z
1/2-y,1/2+x,1/2+z
-x,-y,z
1/2+y,1/2-x,1/2+z
1/2+x,1/2-y,1/2-z
1/2-x,1/2+y,1/2-z
y,x,-z
-y,-x,-z
-x,-y,-z
1/2+y,1/2-x,1/2-z
x,y,-z
1/2-y,1/2+x,1/2-z
1/2-x,1/2+y,1/2+z
1/2+x,1/2-y,1/2+z
-y,-x,z
y,x,z
loop_
_atom_site_type_symbol
_atom_site_label
_atom_site_fract_x
_atom_site_fract_y
_atom_site_fract_z
Si Si1 0.196450 0.196450 0.924650
Si Si2 0.339609 0.928678 0.920446
Si Si3 0.219060 0.528863 0.079504
Si Si4 0.563890 0.436111 0.607838
Si Si5 0.557288 0.690620 0.316080
Si Si6 0.616770 0.133143 0.419529
Si Si7 0.501171 0.360823 0.819107
O O1 0.125874 0.125874 0.929338
O O2 0.278980 0.154293 0.893365
O O3 0.220975 0.220975 0.000000
O O4 0.397814 0.848503 0.909322
O O5 0.263765 0.929990 0.868747
O O6 0.381296 0.018926 0.906347
O O7 0.315449 0.928653 0.000000
O O8 0.173323 0.443639 0.101214
O O9 0.305036 0.531714 0.119456
O O10 0.234387 0.525942 0.000000
O O11 0.500000 0.500000 0.572728
O O12 0.624235 0.494097 0.651165
O O13 0.645176 0.645176 0.307306
O O14 0.520741 0.701415 0.241963
O O15 0.620615 0.137174 0.500000
O O16 0.574257 0.425744 0.800054
O O17 0.419881 0.419881 0.832810
#
# Coordination Sequence:
#
# PCOD9569152 Si02
#       7
#     8  16  16   8  16  16  16
#     4  10  18  29  50  86 119 149 195 245 282 334
#     4  10  20  37  60  87 123 162 195 237 301 367
#     4  10  22  39  62  89 118 155 199 251 308 363
#     4  10  18  31  54  80 111 153 193 237 288 342
#     4  10  20  37  59  83 116 156 194 238 294 358
#     4   9  18  33  55  83 118 153 189 237 293 346
#     4  10  22  42  64  84 115 159 204 255 309 357
#
# _framework density 18.628247999999999
#
# number of rings (size 3 to 8) (size 9 to 14) (size 15 to 20)
#    0.000    2.167    2.500    0.500    1.167    3.833 
#    3.000    4.167    0.000    0.000    0.000    0.000 
#    0.000    0.000    0.000    0.000    0.000    0.000 
#
# Total GULP energy -534418.068417 kJ/mol
# GULP energy per Si atom -5566.854879 kJ/mol
# Density = 1.858585 g / cm^3
# Si number density = 18.628248 Si / 1000 Ang^3
#
#
#
# Elastic Constant Matrix: (Units=GPa)
#
#
# Indices 1 2 3 4 5 6 
#
# 1 140.2809 -10.0152 44.7056 0.0000 0.0000 0.0000
# 2 -10.0152 140.2809 44.7056 0.0000 0.0000 0.0000
# 3 44.7056 44.7056 70.9459 0.0000 0.0000 0.0000
# 4 0.0000 0.0000 0.0000 21.0981 0.0000 0.0000
# 5 0.0000 0.0000 0.0000 0.0000 21.0981 0.0000
# 6 0.0000 0.0000 0.0000 0.0000 0.0000 19.9918
#
#
#
# Elastic Compliance Matrix: (Units=1/GPa)
#
#
# Indices 1 2 3 4 5 6 
#
# 1 0.010090 0.003437 -0.008524 0.000000 0.000000 0.000000
# 2 0.003437 0.010090 -0.008524 0.000000 0.000000 0.000000
# 3 -0.008524 -0.008524 0.024838 0.000000 0.000000 0.000000
# 4 0.000000 0.000000 0.000000 0.047398 0.000000 0.000000
# 5 0.000000 0.000000 0.000000 0.000000 0.047398 0.000000
# 6 0.000000 0.000000 0.000000 0.000000 0.000000 0.050020
#
#
# Mechanical properties :
#
#
# Convention : Reuss Voigt Hill
#
# Bulk Modulus (GPa) = 56.19145 56.69996 56.44571
# Shear Modulus (GPa) = 22.42263 30.57839 26.50051
#
# Velocity S-wave (km/s) = 3.47319 4.05595 3.77583
# Velocity P-wave (km/s) = 6.80545 7.24141 7.02681
#
# Compressibility (1/GPa) = 0.01779630
#
# Stress axis : x y z
#
# Youngs Moduli (GPa) = 99.10391 99.10391 40.26108
#
# Poissons Ratio (x) = -0.34061 0.34319
# Poissons Ratio (y) = -0.34061 0.34319
# Poissons Ratio (z) = 0.84477 0.84477
#
# Static dielectric constant tensor:
#      x y z
#    x 1.653850 0.000000 0.000000 
#    y 0.000000 1.653850 0.000000 
#    z 0.000000 0.000000 1.654220 
# 
# From -- ./inp_files/7531.got.cif
#   From: 2010.05.17/outbox.cif.g08.bks.cpg/sg136_4_cif.got.tgz:7531.got - 2010.05.20 12:54:53.
