data_PCOD9569187
_publ_section_title
;
Structure prediction by ZEFSAII (Michael W. Deem and Ramdas Pophale) SiO2 
 PCOD9569187
Probable space group: P 42/M N M
;
_chemical_formula_sum "Si O2"
_cell_formula_units_Z 112
_cell_length_a 16.834897
_cell_length_b 16.834897
_cell_length_c 22.132230
_cell_angle_alpha 90.000000
_cell_angle_beta 90.000000
_cell_angle_gamma 90.000000
_cell_volume 6272.578455
_symmetry_space_group_name_H-M "P 42/M N M"
_symmetry_group_IT_number 136
_symmetry_cell_setting 'tetragonal'
loop_
_space_group_symop_operation_xyz
x,y,z
1/2-y,1/2+x,1/2+z
-x,-y,z
1/2+y,1/2-x,1/2+z
1/2+x,1/2-y,1/2-z
1/2-x,1/2+y,1/2-z
y,x,-z
-y,-x,-z
-x,-y,-z
1/2+y,1/2-x,1/2-z
x,y,-z
1/2-y,1/2+x,1/2-z
1/2-x,1/2+y,1/2+z
1/2+x,1/2-y,1/2+z
-y,-x,z
y,x,z
loop_
_atom_site_type_symbol
_atom_site_label
_atom_site_fract_x
_atom_site_fract_y
_atom_site_fract_z
Si Si1 0.486540 0.187104 0.613772
Si Si2 0.666284 0.543382 0.769444
Si Si3 0.454617 0.083773 0.133918
Si Si4 0.902035 0.664572 0.568493
Si Si5 0.833496 0.594753 0.256428
Si Si6 0.999153 0.129975 0.131047
Si Si7 0.743442 0.385020 0.185904
O O1 0.562681 0.130764 0.605348
O O2 0.413084 0.154117 0.574917
O O3 0.459265 0.169586 0.683352
O O4 0.500040 0.280647 0.605754
O O5 0.591895 0.591895 0.795119
O O6 0.740685 0.602774 0.760150
O O7 0.641025 0.510736 0.703486
O O8 0.701045 0.469361 0.805782
O O9 0.511261 0.136834 0.092185
O O10 0.443496 0.122627 0.199471
O O11 0.500000 0.000000 0.140577
O O12 0.903858 0.691838 0.500000
O O13 0.873413 0.728438 0.617193
O O14 0.875261 0.676971 0.274407
O O15 0.077056 0.077056 0.118679
O O16 0.922891 0.077110 0.111321
O O17 0.682465 0.317536 0.204641
#
# Coordination Sequence:
#
# PCOD9569187 Si02
#       7
#    16  16  16  16  16  16  16
#     4   9  20  29  52  82 109 145 179 227 273 335
#     4  10  19  32  50  76 111 148 179 217 274 333
#     4  10  20  30  52  80 110 146 177 231 281 344
#     4  10  22  39  55  78 110 149 191 233 279 330
#     4  10  18  32  50  80 116 142 172 219 282 341
#     4   9  17  31  51  78 116 153 181 216 273 345
#     4  11  22  35  54  82 110 144 188 233 276 335
#
# _framework density 17.855497
#
# number of rings (size 3 to 8) (size 9 to 14) (size 15 to 20)
#    0.000    2.143    1.429    2.571    4.000    7.143 
#    0.000    0.714    0.000    0.857    0.000    2.000 
#    0.000    0.000    0.000    0.000    0.000    0.000 
#
# Total GULP energy -624801.565902 kJ/mol
# GULP energy per Si atom -5578.585410 kJ/mol
# Density = 1.781486 g / cm^3
# Si number density = 17.855497 Si / 1000 Ang^3
#
#
#
# Elastic Constant Matrix: (Units=GPa)
#
#
# Indices 1 2 3 4 5 6 
#
# 1 88.2949 36.0834 3.3466 0.0000 0.0000 0.0000
# 2 36.0834 88.2949 3.3466 0.0000 0.0000 0.0000
# 3 3.3466 3.3466 43.9498 0.0000 0.0000 0.0000
# 4 0.0000 0.0000 0.0000 7.0168 0.0000 0.0000
# 5 0.0000 0.0000 0.0000 0.0000 7.0168 0.0000
# 6 0.0000 0.0000 0.0000 0.0000 0.0000 22.6644
#
#
#
# Elastic Compliance Matrix: (Units=1/GPa)
#
#
# Indices 1 2 3 4 5 6 
#
# 1 0.013613 -0.005540 -0.000615 0.000000 0.000000 0.000000
# 2 -0.005540 0.013613 -0.000615 0.000000 0.000000 0.000000
# 3 -0.000615 -0.000615 0.022847 0.000000 0.000000 0.000000
# 4 0.000000 0.000000 0.000000 0.142515 0.000000 0.000000
# 5 0.000000 0.000000 0.000000 0.000000 0.142515 0.000000
# 6 0.000000 0.000000 0.000000 0.000000 0.000000 0.044122
#
#
# Mechanical properties :
#
#
# Convention : Reuss Voigt Hill
#
# Bulk Modulus (GPa) = 27.37174 34.01032 30.69103
# Shear Modulus (GPa) = 12.34749 19.19048 15.76898
#
# Velocity S-wave (km/s) = 2.63254 3.28192 2.97500
# Velocity P-wave (km/s) = 4.96016 5.78362 5.38764
#
# Compressibility (1/GPa) = 0.03653403
#
# Stress axis : x y z
#
# Youngs Moduli (GPa) = 73.45932 73.45932 43.76972
#
# Poissons Ratio (x) = 0.40696 0.02691
# Poissons Ratio (y) = 0.40696 0.02691
# Poissons Ratio (z) = 0.04516 0.04516
#
# Static dielectric constant tensor:
#      x y z
#    x 1.636740 0.000000 0.000000 
#    y 0.000000 1.636740 0.000000 
#    z 0.000000 0.000000 1.590110 
# 
# From -- ./inp_files/7754.got.cif
#   From: 2010.05.17/outbox.cif.g08.bks.cpg/sg136_4_cif.got.tgz:7754.got - 2010.05.20 12:54:53.
