data_PCOD9569227
_publ_section_title
;
Structure prediction by ZEFSAII (Michael W. Deem and Ramdas Pophale) SiO2 
 PCOD9569227
Probable space group: P 42/M N M
;
_chemical_formula_sum "Si O2"
_cell_formula_units_Z 116
_cell_length_a 28.654497
_cell_length_b 28.654497
_cell_length_c 7.903401
_cell_angle_alpha 90.000000
_cell_angle_beta 90.000000
_cell_angle_gamma 90.000000
_cell_volume 6489.326061
_symmetry_space_group_name_H-M "P 42/M N M"
_symmetry_group_IT_number 136
_symmetry_cell_setting 'tetragonal'
loop_
_space_group_symop_operation_xyz
x,y,z
1/2-y,1/2+x,1/2+z
-x,-y,z
1/2+y,1/2-x,1/2+z
1/2+x,1/2-y,1/2-z
1/2-x,1/2+y,1/2-z
y,x,-z
-y,-x,-z
-x,-y,-z
1/2+y,1/2-x,1/2-z
x,y,-z
1/2-y,1/2+x,1/2-z
1/2-x,1/2+y,1/2+z
1/2+x,1/2-y,1/2+z
-y,-x,z
y,x,z
loop_
_atom_site_type_symbol
_atom_site_label
_atom_site_fract_x
_atom_site_fract_y
_atom_site_fract_z
Si Si1 0.264505 0.661613 0.798275
Si Si2 0.308281 0.017381 0.195934
Si Si3 0.827164 0.172837 0.000000
Si Si4 0.682510 0.084046 0.199805
Si Si5 0.167352 0.619315 0.298901
Si Si6 0.585027 0.341416 0.702603
Si Si7 0.610102 0.715652 0.196314
Si Si8 0.504683 0.706036 0.803135
O O1 0.292416 0.707585 0.734491
O O2 0.213071 0.651213 0.731915
O O3 0.297900 0.617759 0.755904
O O4 0.261237 0.665559 0.000000
O O5 0.322159 0.067326 0.270934
O O6 0.327741 0.968380 0.265382
O O7 0.252286 0.011385 0.204709
O O8 0.322477 0.019518 0.000000
O O9 0.856255 0.200383 0.152633
O O10 0.641962 0.121358 0.221983
O O11 0.728648 0.102695 0.292081
O O12 0.693778 0.079957 0.000000
O O13 0.161011 0.616982 0.500000
O O14 0.583497 0.341885 0.500000
O O15 0.612474 0.387527 0.761830
O O16 0.533195 0.333669 0.769372
O O17 0.558376 0.694535 0.234175
O O18 0.622733 0.704001 0.000000
O O19 0.502937 0.719041 0.000000
#
# Coordination Sequence:
#
# PCOD9569227 Si02
#       8
#    16  16   4  16  16  16  16  16
#     4  10  20  33  47  71 106 145 184 220 263 328
#     4   9  19  34  55  77 104 141 181 228 280 332
#     4  12  22  40  64  86 113 158 194 240 292 326
#     4  10  20  38  58  81 111 146 189 233 280 338
#     4  11  21  34  54  80 107 144 184 229 282 335
#     4  10  19  29  46  73 109 146 179 223 275 337
#     4  10  22  39  59  86 114 149 193 242 286 333
#     4  10  19  31  53  80 108 141 184 233 283 332
#
# _framework density 17.875509000000001
#
# number of rings (size 3 to 8) (size 9 to 14) (size 15 to 20)
#    0.000    1.931    2.069    2.276    1.931    2.759 
#    1.241    0.000    0.000    0.414    0.000    3.862 
#    0.000    2.207    0.000    0.000    0.000    0.000 
#
# Total GULP energy -645770.230160 kJ/mol
# GULP energy per Si atom -5566.984743 kJ/mol
# Density = 1.783482 g / cm^3
# Si number density = 17.875509 Si / 1000 Ang^3
#
#
#
# Elastic Constant Matrix: (Units=GPa)
#
#
# Indices 1 2 3 4 5 6 
#
# 1 18.9511 92.5256 16.9799 0.0000 0.0000 0.0000
# 2 92.5256 18.9472 16.9781 0.0000 0.0000 0.0000
# 3 16.9799 16.9781 61.8831 0.0000 0.0000 0.0000
# 4 0.0000 0.0000 0.0000 7.0854 0.0000 0.0000
# 5 0.0000 0.0000 0.0000 0.0000 7.0841 0.0000
# 6 0.0000 0.0000 0.0000 0.0000 0.0000 24.4300
#
#
#
# Elastic Compliance Matrix: (Units=1/GPa)
#
#
# Indices 1 2 3 4 5 6 
#
# 1 -0.001901 0.011690 -0.002686 0.000000 0.000000 0.000000
# 2 0.011690 -0.001901 -0.002686 0.000000 0.000000 0.000000
# 3 -0.002686 -0.002686 0.017633 0.000000 0.000000 0.000000
# 4 0.000000 0.000000 0.000000 0.141135 0.000000 0.000000
# 5 0.000000 0.000000 0.000000 0.000000 0.141160 0.000000
# 6 0.000000 0.000000 0.000000 0.000000 0.000000 0.040933
#
#
# Mechanical properties :
#
#
# Convention : Reuss Voigt Hill
#
# Bulk Modulus (GPa) = 37.78176 39.19430 38.48803
# Shear Modulus (GPa) = 15.00396 5.93975 10.47186
#
# Velocity S-wave (km/s) = 2.90031 1.82484 2.42300
# Velocity P-wave (km/s) = 5.69190 5.13945 5.42271
#
# Compressibility (1/GPa) = 0.02646780
#
# Stress axis : x y z
#
# Youngs Moduli (GPa) = -526.02081 -525.91393 56.71084
#
# Poissons Ratio (x) = 6.14796 0.15230
# Poissons Ratio (y) = 6.14921 0.15232
# Poissons Ratio (z) = -1.41270 -1.41256
#
# Static dielectric constant tensor:
#      x y z
#    x 1.623840 0.000000 0.000000 
#    y 0.000000 1.623840 0.000000 
#    z 0.000000 0.000000 1.643520 
# 
# From -- ./inp_files/2312.got.cif
#   From: 2010.05.17/outbox.cif.g08.bks.cpg/sg136_2_cif.got.tgz:2312.got - 2010.05.20 12:54:53.
