data_PCOD9569559
_publ_section_title
;
Structure prediction by ZEFSAII (Michael W. Deem and Ramdas Pophale) SiO2 
 PCOD9569559
Probable space group: P 42/M N M
;
_chemical_formula_sum "Si O2"
_cell_formula_units_Z 82
_cell_length_a 11.868657
_cell_length_b 11.868657
_cell_length_c 30.863783
_cell_angle_alpha 90.000000
_cell_angle_beta 90.000000
_cell_angle_gamma 90.000000
_cell_volume 4347.627378
_symmetry_space_group_name_H-M "P 42/M N M"
_symmetry_group_IT_number 136
_symmetry_cell_setting 'tetragonal'
loop_
_space_group_symop_operation_xyz
x,y,z
1/2-y,1/2+x,1/2+z
-x,-y,z
1/2+y,1/2-x,1/2+z
1/2+x,1/2-y,1/2-z
1/2-x,1/2+y,1/2-z
y,x,-z
-y,-x,-z
-x,-y,-z
1/2+y,1/2-x,1/2-z
x,y,-z
1/2-y,1/2+x,1/2-z
1/2-x,1/2+y,1/2+z
1/2+x,1/2-y,1/2+z
-y,-x,z
y,x,z
loop_
_atom_site_type_symbol
_atom_site_label
_atom_site_fract_x
_atom_site_fract_y
_atom_site_fract_z
Si Si1 0.265940 0.088689 0.208893
Si Si2 0.776799 0.041949 0.294433
Si Si3 0.500000 0.500000 0.500000
Si Si4 0.826537 0.519238 0.624193
Si Si5 0.404291 0.404291 0.051443
Si Si6 0.524323 0.804167 0.110594
Si Si7 0.586276 0.586276 0.589160
O O1 0.158645 0.158645 0.191018
O O2 0.367689 0.176660 0.211883
O O3 0.238005 0.047383 0.256786
O O4 0.304264 0.990090 0.176057
O O5 0.893854 0.106147 0.288962
O O6 0.762070 0.007007 0.344188
O O7 0.567578 0.567578 0.538410
O O8 0.872135 0.393683 0.613073
O O9 0.710580 0.551645 0.602286
O O10 0.917486 0.611759 0.609015
O O11 0.500000 0.500000 0.056883
O O12 0.448131 0.289210 0.074441
O O13 0.386622 0.386622 0.000000
O O14 0.500000 0.500000 0.611877
#
# Coordination Sequence:
#
# PCOD9569559 Si02
#       7
#    16  16   2  16   8  16   8
#     4  10  21  35  57  88 126 168 208 261 304 372
#     4  10  20  36  56  83 124 166 214 250 307 366
#     4   8  24  44  60  96 124 162 198 248 332 376
#     4  10  22  40  68  95 130 165 214 260 323 379
#     4  11  26  47  68  96 127 166 213 273 333 383
#     4  10  22  44  66  94 125 171 213 267 320 384
#     4  10  22  42  63  95 124 162 198 257 314 381
#
# _framework density 18.860859999999999
#
# number of rings (size 3 to 8) (size 9 to 14) (size 15 to 20)
#    0.293    1.659    0.976    1.756    5.463    3.122 
#    5.268    0.976    0.000    0.000    0.000    0.000 
#    0.000    0.000    0.000    0.000    0.000    0.000 
#
# Total GULP energy -456698.620697 kJ/mol
# GULP energy per Si atom -5569.495374 kJ/mol
# Density = 1.881793 g / cm^3
# Si number density = 18.860860 Si / 1000 Ang^3
#
#
#
# Elastic Constant Matrix: (Units=GPa)
#
#
# Indices 1 2 3 4 5 6 
#
# 1 85.2269 46.9280 51.7091 0.0000 0.0000 0.0000
# 2 46.9280 85.2269 51.7091 0.0000 0.0000 0.0000
# 3 51.7091 51.7091 124.2087 0.0000 0.0000 0.0000
# 4 0.0000 0.0000 0.0000 14.0056 0.0000 0.0000
# 5 0.0000 0.0000 0.0000 0.0000 14.0056 0.0000
# 6 0.0000 0.0000 0.0000 0.0000 0.0000 18.9746
#
#
#
# Elastic Compliance Matrix: (Units=1/GPa)
#
#
# Indices 1 2 3 4 5 6 
#
# 1 0.018667 -0.007444 -0.004672 0.000000 0.000000 0.000000
# 2 -0.007444 0.018667 -0.004672 0.000000 0.000000 0.000000
# 3 -0.004672 -0.004672 0.011941 0.000000 0.000000 0.000000
# 4 0.000000 0.000000 0.000000 0.071400 0.000000 0.000000
# 5 0.000000 0.000000 0.000000 0.000000 0.071400 0.000000
# 6 0.000000 0.000000 0.000000 0.000000 0.000000 0.052702
#
#
# Mechanical properties :
#
#
# Convention : Reuss Voigt Hill
#
# Bulk Modulus (GPa) = 63.70087 66.15055 64.92571
# Shear Modulus (GPa) = 17.63131 19.01824 18.32478
#
# Velocity S-wave (km/s) = 3.06078 3.17889 3.12039
# Velocity P-wave (km/s) = 6.80725 6.97301 6.89063
#
# Compressibility (1/GPa) = 0.01569837
#
# Stress axis : x y z
#
# Youngs Moduli (GPa) = 53.57105 53.57105 83.74365
#
# Poissons Ratio (x) = 0.39876 0.39128
# Poissons Ratio (y) = 0.39876 0.39128
# Poissons Ratio (z) = 0.25030 0.25030
#
# Static dielectric constant tensor:
#      x y z
#    x 1.661640 0.000000 0.000000 
#    y 0.000000 1.661640 0.000000 
#    z 0.000000 0.000000 1.642960 
# 
# From -- ./inp_files/9780.got.cif
#   From: 2010.05.17/outbox.cif.g08.bks.cpg/sg136_5_cif.got.tgz:9780.got - 2010.05.20 12:54:53.
