data_PCOD9569700
_publ_section_title
;
Structure prediction by ZEFSAII (Michael W. Deem and Ramdas Pophale) SiO2 
 PCOD9569700
Probable space group: P 42/M N M
;
_chemical_formula_sum "Si O2"
_cell_formula_units_Z 72
_cell_length_a 20.388605
_cell_length_b 20.388605
_cell_length_c 8.097626
_cell_angle_alpha 90.000000
_cell_angle_beta 90.000000
_cell_angle_gamma 90.000000
_cell_volume 3366.144372
_symmetry_space_group_name_H-M "P 42/M N M"
_symmetry_group_IT_number 136
_symmetry_cell_setting 'tetragonal'
loop_
_space_group_symop_operation_xyz
x,y,z
1/2-y,1/2+x,1/2+z
-x,-y,z
1/2+y,1/2-x,1/2+z
1/2+x,1/2-y,1/2-z
1/2-x,1/2+y,1/2-z
y,x,-z
-y,-x,-z
-x,-y,-z
1/2+y,1/2-x,1/2-z
x,y,-z
1/2-y,1/2+x,1/2-z
1/2-x,1/2+y,1/2+z
1/2+x,1/2-y,1/2+z
-y,-x,z
y,x,z
loop_
_atom_site_type_symbol
_atom_site_label
_atom_site_fract_x
_atom_site_fract_y
_atom_site_fract_z
Si Si1 0.428920 0.070906 0.809438
Si Si2 0.187770 0.986343 0.696273
Si Si3 0.553163 0.446838 0.302400
Si Si4 0.213135 0.593104 0.300831
Si Si5 0.229517 0.229517 0.202178
Si Si6 0.337485 0.337485 0.797525
O O1 0.492723 0.083349 0.701414
O O2 0.361877 0.101549 0.746462
O O3 0.441804 0.089666 0.000000
O O4 0.188265 0.982121 0.500000
O O5 0.180351 0.911475 0.758574
O O6 0.124678 0.029333 0.747889
O O7 0.252166 0.025954 0.749466
O O8 0.500000 0.500000 0.240058
O O9 0.552571 0.447430 0.500000
O O10 0.211422 0.593381 0.500000
O O11 0.252592 0.656552 0.242882
O O12 0.283549 0.283549 0.252633
O O13 0.229515 0.229515 0.000000
O O14 0.337759 0.337759 0.000000
#
# Coordination Sequence:
#
# PCOD9569700 Si02
#       6
#    16  16   8  16   8   8
#     4  10  21  37  59  87 117 152 199 251 304 358
#     4  11  22  37  61  90 120 151 198 250 296 353
#     4  11  22  37  58  82 119 160 197 240 293 348
#     4  10  22  38  61  88 117 157 201 241 297 366
#     4   9  19  39  60  80 115 157 197 236 291 366
#     4   9  20  36  59  89 116 153 194 242 298 352
#
# _framework density 21.389457
#
# number of rings (size 3 to 8) (size 9 to 14) (size 15 to 20)
#    0.000    1.889    1.111    3.000    3.111    3.111 
#    0.000    0.000    0.000    2.667    0.000    0.000 
#    0.000    0.000    0.000    0.000    0.000    0.000 
#
# Total GULP energy -402245.342212 kJ/mol
# GULP energy per Si atom -5586.740864 kJ/mol
# Density = 2.134077 g / cm^3
# Si number density = 21.389457 Si / 1000 Ang^3
#
#
#
# Elastic Constant Matrix: (Units=GPa)
#
#
# Indices 1 2 3 4 5 6 
#
# 1 55.8076 8.0386 -0.8677 0.0000 0.0000 0.0000
# 2 8.0386 55.8077 -0.8677 0.0000 0.0000 0.0000
# 3 -0.8677 -0.8677 14.4814 0.0000 0.0000 0.0000
# 4 0.0000 0.0000 0.0000 11.5483 0.0000 0.0000
# 5 0.0000 0.0000 0.0000 0.0000 11.5486 0.0000
# 6 0.0000 0.0000 0.0000 0.0000 0.0000 38.4287
#
#
#
# Elastic Compliance Matrix: (Units=1/GPa)
#
#
# Indices 1 2 3 4 5 6 
#
# 1 0.018311 -0.002623 0.000940 0.000000 0.000000 0.000000
# 2 -0.002623 0.018311 0.000940 0.000000 0.000000 0.000000
# 3 0.000940 0.000940 0.069167 0.000000 0.000000 0.000000
# 4 0.000000 0.000000 0.000000 0.086593 0.000000 0.000000
# 5 0.000000 0.000000 0.000000 0.000000 0.086590 0.000000
# 6 0.000000 0.000000 0.000000 0.000000 0.000000 0.026022
#
#
# Mechanical properties :
#
#
# Convention : Reuss Voigt Hill
#
# Bulk Modulus (GPa) = 9.58742 15.41144 12.49943
# Shear Modulus (GPa) = 14.65211 20.29136 17.47173
#
# Velocity S-wave (km/s) = 2.62012 3.08338 2.86114
# Velocity P-wave (km/s) = 3.69397 4.46061 4.09527
#
# Compressibility (1/GPa) = 0.10430334
#
# Stress axis : x y z
#
# Youngs Moduli (GPa) = 54.61157 54.61169 14.45779
#
# Poissons Ratio (x) = 0.14324 -0.01359
# Poissons Ratio (y) = 0.14324 -0.01359
# Poissons Ratio (z) = -0.05133 -0.05134
#
# Static dielectric constant tensor:
#      x y z
#    x 1.757870 0.000000 0.000000 
#    y 0.000000 1.757870 0.000000 
#    z 0.000000 0.000000 1.750540 
# 
# From -- ./inp_files/1671.got.cif
#   From: 2010.05.17/outbox.cif.g08.bks.cpg/sg136_1_cif.got.tgz:1671.got - 2010.05.20 12:54:53.
