data_PCOD9569587
_publ_section_title
;
Structure prediction by ZEFSAII (Michael W. Deem and Ramdas Pophale) SiO2 
 PCOD9569587
Probable space group: P 42/M N M
;
_chemical_formula_sum "Si O2"
_cell_formula_units_Z 98
_cell_length_a 15.365301
_cell_length_b 15.365301
_cell_length_c 23.071455
_cell_angle_alpha 90.000000
_cell_angle_beta 90.000000
_cell_angle_gamma 90.000000
_cell_volume 5446.996909
_symmetry_space_group_name_H-M "P 42/M N M"
_symmetry_group_IT_number 136
_symmetry_cell_setting 'tetragonal'
loop_
_space_group_symop_operation_xyz
x,y,z
1/2-y,1/2+x,1/2+z
-x,-y,z
1/2+y,1/2-x,1/2+z
1/2+x,1/2-y,1/2-z
1/2-x,1/2+y,1/2-z
y,x,-z
-y,-x,-z
-x,-y,-z
1/2+y,1/2-x,1/2-z
x,y,-z
1/2-y,1/2+x,1/2-z
1/2-x,1/2+y,1/2+z
1/2+x,1/2-y,1/2+z
-y,-x,z
y,x,z
loop_
_atom_site_type_symbol
_atom_site_label
_atom_site_fract_x
_atom_site_fract_y
_atom_site_fract_z
Si Si1 0.482894 0.236388 0.569882
Si Si2 0.069422 0.930579 0.070266
Si Si3 0.987911 0.261971 0.363892
Si Si4 0.500000 0.500000 0.000000
Si Si5 0.066644 0.933357 0.622432
Si Si6 0.449005 0.867311 0.247070
Si Si7 0.153481 0.302976 0.142183
Si Si8 0.841209 0.698824 0.569520
O O1 0.491049 0.231601 0.500000
O O2 0.454976 0.333635 0.586897
O O3 0.574449 0.218597 0.599355
O O4 0.400817 0.176753 0.587778
O O5 0.067485 0.932516 0.000000
O O6 0.000000 0.000000 0.092147
O O7 0.960641 0.162250 0.358985
O O8 0.897175 0.310013 0.376643
O O9 0.028809 0.305170 0.306450
O O10 0.063965 0.271021 0.410999
O O11 0.552619 0.552619 0.052840
O O12 0.000000 0.000000 0.651079
O O13 0.543300 0.899588 0.270922
O O14 0.390477 0.819033 0.294845
O O15 0.228904 0.228904 0.142607
O O16 0.835691 0.699678 0.500000
O O17 0.766215 0.766215 0.590639
#
# Coordination Sequence:
#
# PCOD9569587 Si02
#       8
#    16   8  16   2   8  16  16  16
#     4  10  20  37  56  85 119 159 204 246 295 361
#     4   9  16  30  54  76 110 155 196 233 281 344
#     4  11  22  39  61  89 118 158 199 249 306 362
#     4   8  24  40  60  84 120 172 204 238 284 364
#     4  10  22  40  61  85 122 163 204 247 296 355
#     4   9  20  40  64  85 112 155 201 247 301 365
#     4  11  23  39  58  88 126 156 194 247 306 366
#     4  10  21  36  60  88 117 154 206 259 297 347
#
# _framework density 17.991565000000001
#
# number of rings (size 3 to 8) (size 9 to 14) (size 15 to 20)
#    0.245    1.714    1.633    1.959    1.143    4.898 
#    0.000    2.449    0.000    0.980    0.000    0.000 
#    0.000    0.000    0.000    0.000    0.000    0.000 
#
# Total GULP energy -545764.251672 kJ/mol
# GULP energy per Si atom -5569.022976 kJ/mol
# Density = 1.795062 g / cm^3
# Si number density = 17.991565 Si / 1000 Ang^3
#
#
#
# Elastic Constant Matrix: (Units=GPa)
#
#
# Indices 1 2 3 4 5 6 
#
# 1 115.6012 64.3734 23.1973 0.0000 0.0000 0.0000
# 2 64.3734 115.6009 23.1973 0.0000 0.0000 0.0000
# 3 23.1973 23.1973 24.8519 0.0000 0.0000 0.0000
# 4 0.0000 0.0000 0.0000 10.9654 0.0000 0.0000
# 5 0.0000 0.0000 0.0000 0.0000 10.9649 0.0000
# 6 0.0000 0.0000 0.0000 0.0000 0.0000 40.0871
#
#
#
# Elastic Compliance Matrix: (Units=1/GPa)
#
#
# Indices 1 2 3 4 5 6 
#
# 1 0.013419 -0.006102 -0.006830 0.000000 0.000000 0.000000
# 2 -0.006102 0.013419 -0.006830 0.000000 0.000000 0.000000
# 3 -0.006830 -0.006830 0.052988 0.000000 0.000000 0.000000
# 4 0.000000 0.000000 0.000000 0.091196 0.000000 0.000000
# 5 0.000000 0.000000 0.000000 0.000000 0.091200 0.000000
# 6 0.000000 0.000000 0.000000 0.000000 0.000000 0.024946
#
#
# Mechanical properties :
#
#
# Convention : Reuss Voigt Hill
#
# Bulk Modulus (GPa) = 24.81193 53.06555 38.93874
# Shear Modulus (GPa) = 14.70048 22.08924 18.39486
#
# Velocity S-wave (km/s) = 2.86156 3.50773 3.20099
# Velocity P-wave (km/s) = 4.97381 6.77970 5.94572
#
# Compressibility (1/GPa) = 0.04030319
#
# Stress axis : x y z
#
# Youngs Moduli (GPa) = 74.52233 74.52206 18.87204
#
# Poissons Ratio (x) = 0.45472 0.12889
# Poissons Ratio (y) = 0.45473 0.12889
# Poissons Ratio (z) = 0.50897 0.50897
#
# Static dielectric constant tensor:
#      x y z
#    x 1.636990 0.000000 0.000000 
#    y 0.000000 1.636990 0.000000 
#    z 0.000000 0.000000 1.607410 
# 
# From -- ./inp_files/8455.got.cif
#   From: 2010.05.17/outbox.cif.g08.bks.cpg/sg136_5_cif.got.tgz:8455.got - 2010.05.20 12:54:53.
