data_PCOD9569735
_publ_section_title
;
Structure prediction by ZEFSAII (Michael W. Deem and Ramdas Pophale) SiO2 
 PCOD9569735
Probable space group: P 42/M N M
;
_chemical_formula_sum "Si O2"
_cell_formula_units_Z 88
_cell_length_a 12.383165
_cell_length_b 12.383165
_cell_length_c 28.139675
_cell_angle_alpha 90.000000
_cell_angle_beta 90.000000
_cell_angle_gamma 90.000000
_cell_volume 4315.015864
_symmetry_space_group_name_H-M "P 42/M N M"
_symmetry_group_IT_number 136
_symmetry_cell_setting 'tetragonal'
loop_
_space_group_symop_operation_xyz
x,y,z
1/2-y,1/2+x,1/2+z
-x,-y,z
1/2+y,1/2-x,1/2+z
1/2+x,1/2-y,1/2-z
1/2-x,1/2+y,1/2-z
y,x,-z
-y,-x,-z
-x,-y,-z
1/2+y,1/2-x,1/2-z
x,y,-z
1/2-y,1/2+x,1/2-z
1/2-x,1/2+y,1/2+z
1/2+x,1/2-y,1/2+z
-y,-x,z
y,x,z
loop_
_atom_site_type_symbol
_atom_site_label
_atom_site_fract_x
_atom_site_fract_y
_atom_site_fract_z
Si Si1 0.410721 0.589280 0.172038
Si Si2 0.814791 0.483772 0.367398
Si Si3 0.569281 0.752438 0.885784
Si Si4 0.425182 0.137599 0.734950
Si Si5 0.589719 0.410282 0.353400
Si Si6 0.890639 0.429731 0.051936
Si Si7 0.200694 0.200694 0.762564
O O1 0.500000 0.500000 0.187604
O O2 0.318245 0.519817 0.143897
O O3 0.351855 0.648146 0.215745
O O4 0.882926 0.370738 0.368881
O O5 0.816327 0.531164 0.313829
O O6 0.691748 0.458845 0.380355
O O7 0.856875 0.575822 0.403077
O O8 0.671550 0.671550 0.891597
O O9 0.505437 0.790858 0.933011
O O10 0.518636 0.121514 0.773225
O O11 0.328274 0.192764 0.760644
O O12 0.500000 0.500000 0.342526
O O13 0.643071 0.356930 0.306236
O O14 0.000000 0.500000 0.047783
O O15 0.872342 0.378738 0.000000
#
# Coordination Sequence:
#
# PCOD9569735 Si02
#       7
#     8  16  16  16   8  16   8
#     4  10  23  38  57  90 128 167 203 258 316 372
#     4  11  23  43  67  91 128 169 219 264 324 385
#     4  10  21  39  65  92 128 168 211 263 322 388
#     4  11  26  39  61  93 119 166 213 259 302 381
#     4  12  27  44  63  95 126 167 217 274 323 386
#     4   9  20  38  67  99 127 165 216 271 324 389
#     4  12  25  40  58  87 128 168 209 260 323 370
#
# _framework density 20.393899000000001
#
# number of rings (size 3 to 8) (size 9 to 14) (size 15 to 20)
#    0.000    1.455    2.727    1.364   14.000    0.364 
#    3.273    0.909    0.000    2.182    0.000    0.000 
#    0.000    0.000    0.000    0.000    0.000    0.000 
#
# Total GULP energy -490284.614411 kJ/mol
# GULP energy per Si atom -5571.416073 kJ/mol
# Density = 2.034748 g / cm^3
# Si number density = 20.393899 Si / 1000 Ang^3
#
#
#
# Elastic Constant Matrix: (Units=GPa)
#
#
# Indices 1 2 3 4 5 6 
#
# 1 58.7641 19.4035 -5.1056 0.0000 0.0000 0.0000
# 2 19.4035 58.7641 -5.1056 0.0000 0.0000 0.0000
# 3 -5.1056 -5.1056 46.9104 0.0000 0.0000 0.0000
# 4 0.0000 0.0000 0.0000 -57.7813 0.0000 0.0000
# 5 0.0000 0.0000 0.0000 0.0000 -57.7813 0.0000
# 6 0.0000 0.0000 0.0000 0.0000 0.0000 25.1268
#
#
#
# Elastic Compliance Matrix: (Units=1/GPa)
#
#
# Indices 1 2 3 4 5 6 
#
# 1 0.019192 -0.006214 0.001412 0.000000 0.000000 0.000000
# 2 -0.006214 0.019192 0.001412 0.000000 0.000000 0.000000
# 3 0.001412 0.001412 0.021625 0.000000 0.000000 0.000000
# 4 0.000000 0.000000 0.000000 -0.017307 0.000000 0.000000
# 5 0.000000 0.000000 0.000000 0.000000 -0.017307 0.000000
# 6 0.000000 0.000000 0.000000 0.000000 0.000000 0.039798
#
#
# Mechanical properties :
#
#
# Convention : Reuss Voigt Hill
#
# Bulk Modulus (GPa) = 18.78656 20.31368 19.55012
# Shear Modulus (GPa) = 55.73186 -7.73741 23.99722
#
# Velocity S-wave (km/s) = 5.23326 -1.94993 3.43401
# Velocity P-wave (km/s) = 6.76372 2.21645 5.03292
#
# Compressibility (1/GPa) = 0.05322954
#
# Stress axis : x y z
#
# Youngs Moduli (GPa) = 52.10547 52.10547 46.24346
#
# Poissons Ratio (x) = 0.32380 -0.06532
# Poissons Ratio (y) = 0.32380 -0.06532
# Poissons Ratio (z) = -0.07360 -0.07360
#
# Static dielectric constant tensor:
#      x y z
#    x 1.913190 0.000000 0.000000 
#    y 0.000000 1.913190 0.000000 
#    z 0.000000 0.000000 1.723880 
# 
# From -- ./inp_files/9796.got.cif
#   From: 2010.05.17/outbox.cif.g08.bks.cpg/sg136_5_cif.got.tgz:9796.got - 2010.05.20 12:54:53.
