data_PCOD9569512
_publ_section_title
;
Structure prediction by ZEFSAII (Michael W. Deem and Ramdas Pophale) SiO2 
 PCOD9569512
Probable space group: P 42/M N M
;
_chemical_formula_sum "Si O2"
_cell_formula_units_Z 64
_cell_length_a 12.469606
_cell_length_b 12.469606
_cell_length_c 26.453818
_cell_angle_alpha 90.000000
_cell_angle_beta 90.000000
_cell_angle_gamma 90.000000
_cell_volume 4113.332567
_symmetry_space_group_name_H-M "P 42/M N M"
_symmetry_group_IT_number 136
_symmetry_cell_setting 'tetragonal'
loop_
_space_group_symop_operation_xyz
x,y,z
1/2-y,1/2+x,1/2+z
-x,-y,z
1/2+y,1/2-x,1/2+z
1/2+x,1/2-y,1/2-z
1/2-x,1/2+y,1/2-z
y,x,-z
-y,-x,-z
-x,-y,-z
1/2+y,1/2-x,1/2-z
x,y,-z
1/2-y,1/2+x,1/2-z
1/2-x,1/2+y,1/2+z
1/2+x,1/2-y,1/2+z
-y,-x,z
y,x,z
loop_
_atom_site_type_symbol
_atom_site_label
_atom_site_fract_x
_atom_site_fract_y
_atom_site_fract_z
Si Si1 0.107042 0.287100 0.308736
Si Si2 0.720258 0.106444 0.640673
Si Si3 0.520418 0.211572 0.696207
Si Si4 0.413989 0.586012 0.368127
Si Si5 0.769945 0.769945 0.059704
O O1 0.203532 0.203532 0.310843
O O2 0.153947 0.407059 0.311087
O O3 0.045946 0.273621 0.255222
O O4 0.018784 0.265227 0.351754
O O5 0.821903 0.178098 0.659469
O O6 0.616780 0.140649 0.673061
O O7 0.704287 0.153204 0.584215
O O8 0.529214 0.323839 0.666575
O O9 0.500000 0.500000 0.386190
O O10 0.351747 0.648254 0.412822
O O11 0.773590 0.773590 0.000000
#
# Coordination Sequence:
#
# PCOD9569512 Si02
#       5
#    16  16  16   8   8
#     4  12  22  32  51  77 114 155 190 218 268 330
#     4   9  20  36  54  80 106 138 192 221 278 329
#     4  11  20  33  49  76 113 156 183 217 268 334
#     4  10  20  35  52  83 117 142 184 239 283 334
#     4   8  18  39  63  80 104 137 195 244 278 331
#
# _framework density 15.55916
#
# number of rings (size 3 to 8) (size 9 to 14) (size 15 to 20)
#    0.750    1.000    5.000    1.500    0.000    1.750 
#    0.000    0.000    0.000   13.500    0.000    0.000 
#    0.000    0.000    0.000    0.000    0.000    0.000 
#
# Total GULP energy -356529.441163 kJ/mol
# GULP energy per Si atom -5570.772518 kJ/mol
# Density = 1.552375 g / cm^3
# Si number density = 15.559160 Si / 1000 Ang^3
#
#
#
# Elastic Constant Matrix: (Units=GPa)
#
#
# Indices 1 2 3 4 5 6 
#
# 1 88.9523 44.4326 24.7003 0.0000 0.0000 0.0000
# 2 44.4326 88.9523 24.7003 0.0000 0.0000 0.0000
# 3 24.7003 24.7003 99.6585 0.0000 0.0000 0.0000
# 4 0.0000 0.0000 0.0000 10.2993 0.0000 0.0000
# 5 0.0000 0.0000 0.0000 0.0000 10.2993 0.0000
# 6 0.0000 0.0000 0.0000 0.0000 0.0000 5.2399
#
#
#
# Elastic Compliance Matrix: (Units=1/GPa)
#
#
# Indices 1 2 3 4 5 6 
#
# 1 0.015358 -0.007104 -0.002046 0.000000 0.000000 0.000000
# 2 -0.007104 0.015358 -0.002046 0.000000 0.000000 0.000000
# 3 -0.002046 -0.002046 0.011048 0.000000 0.000000 0.000000
# 4 0.000000 0.000000 0.000000 0.097094 0.000000 0.000000
# 5 0.000000 0.000000 0.000000 0.000000 0.097094 0.000000
# 6 0.000000 0.000000 0.000000 0.000000 0.000000 0.190845
#
#
# Mechanical properties :
#
#
# Convention : Reuss Voigt Hill
#
# Bulk Modulus (GPa) = 51.61476 51.69216 51.65346
# Shear Modulus (GPa) = 10.97343 17.41637 14.19490
#
# Velocity S-wave (km/s) = 2.65858 3.34932 3.02374
# Velocity P-wave (km/s) = 6.53217 6.94639 6.74246
#
# Compressibility (1/GPa) = 0.01937430
#
# Stress axis : x y z
#
# Youngs Moduli (GPa) = 65.11096 65.11096 90.51052
#
# Poissons Ratio (x) = 0.46252 0.18518
# Poissons Ratio (y) = 0.46252 0.18518
# Poissons Ratio (z) = 0.13321 0.13321
#
# Static dielectric constant tensor:
#      x y z
#    x 1.528380 0.000000 0.000000 
#    y 0.000000 1.528380 0.000000 
#    z 0.000000 0.000000 1.493530 
# 
# From -- ./inp_files/8853.got.cif
#   From: 2010.05.17/outbox.cif.g08.bks.cpg/sg136_5_cif.got.tgz:8853.got - 2010.05.20 12:54:53.
