data_PCOD9569562
_publ_section_title
;
Structure prediction by ZEFSAII (Michael W. Deem and Ramdas Pophale) SiO2 
 PCOD9569562
Probable space group: P 42/M N M
;
_chemical_formula_sum "Si O2"
_cell_formula_units_Z 96
_cell_length_a 23.620424
_cell_length_b 23.620424
_cell_length_c 7.452164
_cell_angle_alpha 90.000000
_cell_angle_beta 90.000000
_cell_angle_gamma 90.000000
_cell_volume 4157.744352
_symmetry_space_group_name_H-M "P 42/M N M"
_symmetry_group_IT_number 136
_symmetry_cell_setting 'tetragonal'
loop_
_space_group_symop_operation_xyz
x,y,z
1/2-y,1/2+x,1/2+z
-x,-y,z
1/2+y,1/2-x,1/2+z
1/2+x,1/2-y,1/2-z
1/2-x,1/2+y,1/2-z
y,x,-z
-y,-x,-z
-x,-y,-z
1/2+y,1/2-x,1/2-z
x,y,-z
1/2-y,1/2+x,1/2-z
1/2-x,1/2+y,1/2+z
1/2+x,1/2-y,1/2+z
-y,-x,z
y,x,z
loop_
_atom_site_type_symbol
_atom_site_label
_atom_site_fract_x
_atom_site_fract_y
_atom_site_fract_z
Si Si1 0.328439 0.586200 0.789392
Si Si2 0.111092 0.791987 0.796624
Si Si3 0.208172 0.300156 0.718855
Si Si4 0.086702 0.530336 0.793063
Si Si5 0.526876 0.616963 0.282343
Si Si6 0.705028 0.923789 0.717814
O O1 0.356524 0.643477 0.713298
O O2 0.374455 0.536997 0.771986
O O3 0.268703 0.563313 0.716335
O O4 0.318534 0.597685 0.000000
O O5 0.161439 0.838562 0.808345
O O6 0.142348 0.738347 0.714723
O O7 0.060504 0.827478 0.713138
O O8 0.093982 0.776774 0.000000
O O9 0.211392 0.300796 0.500000
O O10 0.246041 0.246041 0.775689
O O11 0.142651 0.300072 0.763766
O O12 0.067121 0.464939 0.786162
O O13 0.149401 0.542701 0.717726
O O14 0.088007 0.547843 0.000000
O O15 0.529693 0.617547 0.500000
O O16 0.561303 0.561303 0.224289
O O17 0.705208 0.930587 0.500000
#
# Coordination Sequence:
#
# PCOD9569562 Si02
#       6
#    16  16  16  16  16  16
#     4  10  21  36  52  72 101 134 169 211 256 302
#     4   7  11  21  39  65  93 118 149 195 245 287
#     4   8  12  21  41  68  98 131 167 208 254 302
#     4  10  20  36  57  80 108 138 171 210 254 305
#     4   9  18  33  52  74 101 132 168 212 259 303
#     4   9  18  31  48  72 101 134 169 206 251 303
#
# _framework density 23.089441000000001
#
# number of rings (size 3 to 8) (size 9 to 14) (size 15 to 20)
#    0.000    3.167    0.000    3.500    0.000    4.333 
#    0.000    5.000    0.000    0.000    0.000    1.167 
#    0.000    4.000    0.000    0.000    0.000    0.000 
#
# Total GULP energy -535073.141512 kJ/mol
# GULP energy per Si atom -5573.678557 kJ/mol
# Density = 2.303689 g / cm^3
# Si number density = 23.089441 Si / 1000 Ang^3
#
#
#
# Elastic Constant Matrix: (Units=GPa)
#
#
# Indices 1 2 3 4 5 6 
#
# 1 158.0851 39.6432 -2.8737 0.0000 0.0000 0.0000
# 2 39.6432 158.0851 -2.8737 0.0000 0.0000 0.0000
# 3 -2.8737 -2.8737 66.3917 0.0000 0.0000 0.0000
# 4 0.0000 0.0000 0.0000 0.5823 0.0000 0.0000
# 5 0.0000 0.0000 0.0000 0.0000 0.5823 0.0000
# 6 0.0000 0.0000 0.0000 0.0000 0.0000 35.3128
#
#
#
# Elastic Compliance Matrix: (Units=1/GPa)
#
#
# Indices 1 2 3 4 5 6 
#
# 1 0.006753 -0.001690 0.000219 0.000000 0.000000 0.000000
# 2 -0.001690 0.006753 0.000219 0.000000 0.000000 0.000000
# 3 0.000219 0.000219 0.015081 0.000000 0.000000 0.000000
# 4 0.000000 0.000000 0.000000 1.717286 0.000000 0.000000
# 5 0.000000 0.000000 0.000000 0.000000 1.717286 0.000000
# 6 0.000000 0.000000 0.000000 0.000000 0.000000 0.028318
#
#
# Mechanical properties :
#
#
# Convention : Reuss Voigt Hill
#
# Bulk Modulus (GPa) = 38.33553 50.03927 44.18740
# Shear Modulus (GPa) = 1.42748 30.53988 15.98368
#
# Velocity S-wave (km/s) = 0.78714 3.64081 2.63392
# Velocity P-wave (km/s) = 4.17914 6.27638 5.33189
#
# Compressibility (1/GPa) = 0.02608546
#
# Stress axis : x y z
#
# Youngs Moduli (GPa) = 148.07378 148.07378 66.30817
#
# Poissons Ratio (x) = 0.25018 -0.01453
# Poissons Ratio (y) = 0.25018 -0.01453
# Poissons Ratio (z) = -0.03246 -0.03246
#
# Static dielectric constant tensor:
#      x y z
#    x 1.886180 0.000000 0.000000 
#    y 0.000000 1.886180 0.000000 
#    z 0.000000 0.000000 1.933130 
# 
# From -- ./inp_files/1929.got.cif
#   From: 2010.05.17/outbox.cif.g08.bks.cpg/sg136_1_cif.got.tgz:1929.got - 2010.05.20 12:54:53.
