data_PCOD9569624
_publ_section_title
;
Structure prediction by ZEFSAII (Michael W. Deem and Ramdas Pophale) SiO2 
 PCOD9569624
Probable space group: P 42/M N M
;
_chemical_formula_sum "Si O2"
_cell_formula_units_Z 64
_cell_length_a 12.261648
_cell_length_b 12.261648
_cell_length_c 22.703236
_cell_angle_alpha 90.000000
_cell_angle_beta 90.000000
_cell_angle_gamma 90.000000
_cell_volume 3413.386391
_symmetry_space_group_name_H-M "P 42/M N M"
_symmetry_group_IT_number 136
_symmetry_cell_setting 'tetragonal'
loop_
_space_group_symop_operation_xyz
x,y,z
1/2-y,1/2+x,1/2+z
-x,-y,z
1/2+y,1/2-x,1/2+z
1/2+x,1/2-y,1/2-z
1/2-x,1/2+y,1/2-z
y,x,-z
-y,-x,-z
-x,-y,-z
1/2+y,1/2-x,1/2-z
x,y,-z
1/2-y,1/2+x,1/2-z
1/2-x,1/2+y,1/2+z
1/2+x,1/2-y,1/2+z
-y,-x,z
y,x,z
loop_
_atom_site_type_symbol
_atom_site_label
_atom_site_fract_x
_atom_site_fract_y
_atom_site_fract_z
Si Si1 0.830577 0.471721 0.084427
Si Si2 0.334371 0.030979 0.725522
Si Si3 0.142615 0.326978 0.000000
Si Si4 0.585828 0.414173 0.912475
Si Si5 0.284081 0.904274 0.000000
Si Si6 0.587903 0.412098 0.230023
O O1 0.842968 0.474053 0.154616
O O2 0.859857 0.587108 0.054675
O O3 0.705088 0.448790 0.069379
O O4 0.888398 0.367104 0.055179
O O5 0.417144 0.122823 0.748598
O O6 0.211537 0.056762 0.745165
O O7 0.248793 0.248793 0.000000
O O8 0.032265 0.254994 0.000000
O O9 0.500000 0.500000 0.934255
O O10 0.584747 0.415254 0.841261
O O11 0.185473 0.814528 0.000000
O O12 0.500000 0.500000 0.252119
#
# Coordination Sequence:
#
# PCOD9569624 Si02
#       6
#    16  16   8   8   8   8
#     4  10  20  40  62  92 122 158 202 261 315 374
#     4  10  23  38  64  91 124 167 215 262 316 375
#     4  11  25  39  63  93 123 158 207 264 315 372
#     4   9  16  31  60  91 125 151 188 254 323 363
#     4  11  23  40  64  86 122 168 207 250 312 376
#     4   9  20  38  57  87 126 165 205 259 311 365
#
# _framework density 18.749707000000001
#
# number of rings (size 3 to 8) (size 9 to 14) (size 15 to 20)
#    0.000    2.000    1.250    2.250    8.750    1.250 
#    0.000    1.875    0.000    0.000    0.000    0.000 
#    0.000    0.000    0.000    0.000    0.000    0.000 
#
# Total GULP energy -357018.013325 kJ/mol
# GULP energy per Si atom -5578.406458 kJ/mol
# Density = 1.870703 g / cm^3
# Si number density = 18.749707 Si / 1000 Ang^3
#
#
#
# Elastic Constant Matrix: (Units=GPa)
#
#
# Indices 1 2 3 4 5 6 
#
# 1 174.8366 61.4350 37.1480 0.0000 0.0000 0.0000
# 2 61.4350 174.8370 37.1481 0.0000 0.0000 0.0000
# 3 37.1480 37.1481 100.3561 0.0000 0.0000 0.0000
# 4 0.0000 0.0000 0.0000 18.4799 0.0000 0.0000
# 5 0.0000 0.0000 0.0000 0.0000 18.4798 0.0000
# 6 0.0000 0.0000 0.0000 0.0000 0.0000 27.5012
#
#
#
# Elastic Compliance Matrix: (Units=1/GPa)
#
#
# Indices 1 2 3 4 5 6 
#
# 1 0.006804 -0.002014 -0.001773 0.000000 0.000000 0.000000
# 2 -0.002014 0.006804 -0.001773 0.000000 0.000000 0.000000
# 3 -0.001773 -0.001773 0.011277 0.000000 0.000000 0.000000
# 4 0.000000 0.000000 0.000000 0.054113 0.000000 0.000000
# 5 0.000000 0.000000 0.000000 0.000000 0.054113 0.000000
# 6 0.000000 0.000000 0.000000 0.000000 0.000000 0.036362
#
#
# Mechanical properties :
#
#
# Convention : Reuss Voigt Hill
#
# Bulk Modulus (GPa) = 72.64896 80.16578 76.40737
# Shear Modulus (GPa) = 27.00046 33.84543 30.42294
#
# Velocity S-wave (km/s) = 3.79891 4.25328 4.03250
# Velocity P-wave (km/s) = 7.62057 8.18346 7.90703
#
# Compressibility (1/GPa) = 0.01376482
#
# Stress axis : x y z
#
# Youngs Moduli (GPa) = 146.97051 146.97085 88.67484
#
# Poissons Ratio (x) = 0.29602 0.15723
# Poissons Ratio (y) = 0.29602 0.15723
# Poissons Ratio (z) = 0.26059 0.26059
#
# Static dielectric constant tensor:
#      x y z
#    x 1.644820 0.000000 0.000000 
#    y 0.000000 1.644820 0.000000 
#    z 0.000000 0.000000 1.654370 
# 
# From -- ./inp_files/8211.got.cif
#   From: 2010.05.17/outbox.cif.g08.bks.cpg/sg136_5_cif.got.tgz:8211.got - 2010.05.20 12:54:53.
