data_PCOD9569305
_publ_section_title
;
Structure prediction by ZEFSAII (Michael W. Deem and Ramdas Pophale) SiO2 
 PCOD9569305
Probable space group: P 42/M N M
;
_chemical_formula_sum "Si O2"
_cell_formula_units_Z 96
_cell_length_a 25.037522
_cell_length_b 25.037522
_cell_length_c 8.845225
_cell_angle_alpha 90.000000
_cell_angle_beta 90.000000
_cell_angle_gamma 90.000000
_cell_volume 5544.872605
_symmetry_space_group_name_H-M "P 42/M N M"
_symmetry_group_IT_number 136
_symmetry_cell_setting 'tetragonal'
loop_
_space_group_symop_operation_xyz
x,y,z
1/2-y,1/2+x,1/2+z
-x,-y,z
1/2+y,1/2-x,1/2+z
1/2+x,1/2-y,1/2-z
1/2-x,1/2+y,1/2-z
y,x,-z
-y,-x,-z
-x,-y,-z
1/2+y,1/2-x,1/2-z
x,y,-z
1/2-y,1/2+x,1/2-z
1/2-x,1/2+y,1/2+z
1/2+x,1/2-y,1/2+z
-y,-x,z
y,x,z
loop_
_atom_site_type_symbol
_atom_site_label
_atom_site_fract_x
_atom_site_fract_y
_atom_site_fract_z
Si Si1 0.698536 0.911183 0.677656
Si Si2 0.382288 0.382288 0.176511
Si Si3 0.277783 0.972553 0.680454
Si Si4 0.337517 0.483962 0.676341
Si Si5 0.298580 0.298580 0.680647
Si Si6 0.899687 0.812690 0.821808
Si Si7 0.692519 0.149008 0.320940
O O1 0.689509 0.903575 0.500000
O O2 0.760712 0.902509 0.718941
O O3 0.667527 0.865574 0.766957
O O4 0.688325 0.973872 0.714476
O O5 0.442530 0.369387 0.222922
O O6 0.342233 0.342233 0.264107
O O7 0.373345 0.373345 0.000000
O O8 0.264457 0.975450 0.500000
O O9 0.224330 0.975987 0.779023
O O10 0.302051 0.914416 0.708696
O O11 0.346004 0.471718 0.500000
O O12 0.347203 0.546651 0.702199
O O13 0.297205 0.297205 0.500000
O O14 0.318324 0.240869 0.741966
O O15 0.847784 0.847784 0.793640
O O16 0.900287 0.796657 0.000000
O O17 0.698283 0.157599 0.500000
#
# Coordination Sequence:
#
# PCOD9569305 Si02
#       7
#    16   8  16  16   8  16  16
#     4  10  21  36  55  82 111 143 181 224 266 319
#     4  12  22  34  51  75 108 143 174 218 275 331
#     4   9  19  36  56  76 106 144 181 219 270 323
#     4  10  19  32  53  77 100 134 182 228 268 320
#     4  12  24  36  54  83 113 142 178 224 269 320
#     4   9  19  36  55  75 103 140 182 226 273 324
#     4  11  22  37  57  82 113 148 178 218 271 327
#
# _framework density 17.313293000000002
#
# number of rings (size 3 to 8) (size 9 to 14) (size 15 to 20)
#    0.000    1.833    1.667    3.000    1.167    2.333 
#    0.000    0.417    0.000    3.000    0.000    3.500 
#    0.000    0.000    0.000    0.000    0.000    0.000 
#
# Total GULP energy -535549.563481 kJ/mol
# GULP energy per Si atom -5578.641286 kJ/mol
# Density = 1.727389 g / cm^3
# Si number density = 17.313293 Si / 1000 Ang^3
#
#
#
# Elastic Constant Matrix: (Units=GPa)
#
#
# Indices 1 2 3 4 5 6 
#
# 1 66.1922 39.4940 34.6405 0.0000 0.0000 0.0000
# 2 39.4940 66.1922 34.6405 0.0000 0.0000 0.0000
# 3 34.6405 34.6405 65.6139 0.0000 0.0000 0.0000
# 4 0.0000 0.0000 0.0000 23.5290 0.0000 0.0000
# 5 0.0000 0.0000 0.0000 0.0000 23.5290 0.0000
# 6 0.0000 0.0000 0.0000 0.0000 0.0000 22.2332
#
#
#
# Elastic Compliance Matrix: (Units=1/GPa)
#
#
# Indices 1 2 3 4 5 6 
#
# 1 0.025963 -0.011493 -0.007639 0.000000 0.000000 0.000000
# 2 -0.011493 0.025963 -0.007639 0.000000 0.000000 0.000000
# 3 -0.007639 -0.007639 0.023307 0.000000 0.000000 0.000000
# 4 0.000000 0.000000 0.000000 0.042501 0.000000 0.000000
# 5 0.000000 0.000000 0.000000 0.000000 0.042501 0.000000
# 6 0.000000 0.000000 0.000000 0.000000 0.000000 0.044978
#
#
# Mechanical properties :
#
#
# Convention : Reuss Voigt Hill
#
# Bulk Modulus (GPa) = 46.10538 46.17205 46.13871
# Shear Modulus (GPa) = 18.79812 19.80647 19.30229
#
# Velocity S-wave (km/s) = 3.29867 3.38598 3.34261
# Velocity P-wave (km/s) = 6.41842 6.48174 6.45016
#
# Compressibility (1/GPa) = 0.02168944
#
# Stress axis : x y z
#
# Youngs Moduli (GPa) = 38.51676 38.51676 42.90593
#
# Poissons Ratio (x) = 0.44267 0.32777
# Poissons Ratio (y) = 0.44267 0.32777
# Poissons Ratio (z) = 0.29424 0.29424
#
# Static dielectric constant tensor:
#      x y z
#    x 1.587170 0.000000 0.000000 
#    y 0.000000 1.587170 0.000000 
#    z 0.000000 0.000000 1.585860 
# 
# From -- ./inp_files/2057.got.cif
#   From: 2010.05.17/outbox.cif.g08.bks.cpg/sg136_2_cif.got.tgz:2057.got - 2010.05.20 12:54:53.
