data_PCOD9569377
_publ_section_title
;
Structure prediction by ZEFSAII (Michael W. Deem and Ramdas Pophale) SiO2 
 PCOD9569377
Probable space group: P 42/M N M
;
_chemical_formula_sum "Si O2"
_cell_formula_units_Z 88
_cell_length_a 17.993684
_cell_length_b 17.993684
_cell_length_c 13.446433
_cell_angle_alpha 90.000000
_cell_angle_beta 90.000000
_cell_angle_gamma 90.000000
_cell_volume 4353.587432
_symmetry_space_group_name_H-M "P 42/M N M"
_symmetry_group_IT_number 136
_symmetry_cell_setting 'tetragonal'
loop_
_space_group_symop_operation_xyz
x,y,z
1/2-y,1/2+x,1/2+z
-x,-y,z
1/2+y,1/2-x,1/2+z
1/2+x,1/2-y,1/2-z
1/2-x,1/2+y,1/2-z
y,x,-z
-y,-x,-z
-x,-y,-z
1/2+y,1/2-x,1/2-z
x,y,-z
1/2-y,1/2+x,1/2-z
1/2-x,1/2+y,1/2+z
1/2+x,1/2-y,1/2+z
-y,-x,z
y,x,z
loop_
_atom_site_type_symbol
_atom_site_label
_atom_site_fract_x
_atom_site_fract_y
_atom_site_fract_z
Si Si1 0.326947 0.549422 0.698138
Si Si2 0.938879 0.562886 0.380899
Si Si3 0.777333 0.656273 0.880708
Si Si4 0.017865 0.268198 0.382441
Si Si5 0.827207 0.443526 0.613749
Si Si6 0.436481 0.436481 0.614686
O O1 0.382684 0.617317 0.682221
O O2 0.289290 0.554650 0.806408
O O3 0.260432 0.549910 0.619943
O O4 0.370975 0.473862 0.676848
O O5 0.937253 0.569361 0.500000
O O6 0.959270 0.647129 0.352125
O O7 0.864261 0.519964 0.347893
O O8 0.000000 0.500000 0.356556
O O9 0.718280 0.718280 0.842631
O O10 0.754952 0.570499 0.869595
O O11 0.862019 0.658375 0.840123
O O12 0.782584 0.669770 0.000000
O O13 0.035093 0.258340 0.500000
O O14 0.855048 0.437587 0.500000
O O15 0.500000 0.500000 0.607606
O O16 0.416843 0.416843 0.500000
#
# Coordination Sequence:
#
# PCOD9569377 Si02
#       6
#    16  16  16  16  16   8
#     4  11  24  39  58  86 114 151 204 252 305 369
#     4   9  16  33  58  84 118 157 198 243 299 364
#     4   9  17  30  53  86 119 150 188 242 306 356
#     4  10  21  37  58  84 121 165 200 242 297 363
#     4  10  19  34  59  87 115 149 193 252 310 362
#     4   9  20  42  67  87 113 147 188 252 318 364
#
# _framework density 20.213214000000001
#
# number of rings (size 3 to 8) (size 9 to 14) (size 15 to 20)
#    0.000    2.273    1.818    1.091    1.273    3.636 
#    0.000    0.000    2.000    1.636    0.000    0.000 
#    0.000    0.000    0.000    0.000    0.000    0.000 
#
# Total GULP energy -490215.696910 kJ/mol
# GULP energy per Si atom -5570.632919 kJ/mol
# Density = 2.016721 g / cm^3
# Si number density = 20.213214 Si / 1000 Ang^3
#
#
#
# Elastic Constant Matrix: (Units=GPa)
#
#
# Indices 1 2 3 4 5 6 
#
# 1 94.4542 45.2161 17.4512 0.0000 0.0000 0.0000
# 2 45.2161 94.4542 17.4512 0.0000 0.0000 0.0000
# 3 17.4512 17.4512 88.0961 0.0000 0.0000 0.0000
# 4 0.0000 0.0000 0.0000 44.8782 0.0000 0.0000
# 5 0.0000 0.0000 0.0000 0.0000 44.8782 0.0000
# 6 0.0000 0.0000 0.0000 0.0000 0.0000 34.5360
#
#
#
# Elastic Compliance Matrix: (Units=1/GPa)
#
#
# Indices 1 2 3 4 5 6 
#
# 1 0.013921 -0.006388 -0.001492 0.000000 0.000000 0.000000
# 2 -0.006388 0.013921 -0.001492 0.000000 0.000000 0.000000
# 3 -0.001492 -0.001492 0.011942 0.000000 0.000000 0.000000
# 4 0.000000 0.000000 0.000000 0.022283 0.000000 0.000000
# 5 0.000000 0.000000 0.000000 0.000000 0.022283 0.000000
# 6 0.000000 0.000000 0.000000 0.000000 0.000000 0.028955
#
#
# Mechanical properties :
#
#
# Convention : Reuss Voigt Hill
#
# Bulk Modulus (GPa) = 47.53083 48.58241 48.05662
# Shear Modulus (GPa) = 35.95484 37.98420 36.96952
#
# Velocity S-wave (km/s) = 4.22213 4.33965 4.28129
# Velocity P-wave (km/s) = 6.87999 7.01407 6.94736
#
# Compressibility (1/GPa) = 0.02103898
#
# Stress axis : x y z
#
# Youngs Moduli (GPa) = 71.83373 71.83373 83.73521
#
# Poissons Ratio (x) = 0.45891 0.12495
# Poissons Ratio (y) = 0.45891 0.12495
# Poissons Ratio (z) = 0.10719 0.10719
#
# Static dielectric constant tensor:
#      x y z
#    x 1.751460 0.000000 0.000000 
#    y 0.000000 1.751460 0.000000 
#    z 0.000000 0.000000 1.771370 
# 
# From -- ./inp_files/5055.got.cif
#   From: 2010.05.17/outbox.cif.g08.bks.cpg/sg136_3_cif.got.tgz:5055.got - 2010.05.20 12:54:53.
