data_PCOD9569029
_publ_section_title
;
Structure prediction by ZEFSAII (Michael W. Deem and Ramdas Pophale) SiO2 
 PCOD9569029
Probable space group: P 42/M B C
;
_chemical_formula_sum "Si O2"
_cell_formula_units_Z 36
_cell_length_a 8.688851
_cell_length_b 8.688851
_cell_length_c 18.839423
_cell_angle_alpha 90.000000
_cell_angle_beta 90.000000
_cell_angle_gamma 90.000000
_cell_volume 1422.303560
_symmetry_space_group_name_H-M "P 42/M B C"
_symmetry_group_IT_number 135
_symmetry_cell_setting 'tetragonal'
loop_
_space_group_symop_operation_xyz
x,y,z
-y,x,1/2+z
-x,-y,z
y,-x,1/2+z
1/2+x,1/2-y,-z
1/2-x,1/2+y,-z
1/2+y,1/2+x,1/2-z
1/2-y,1/2-x,1/2-z
-x,-y,-z
y,-x,1/2-z
x,y,-z
-y,x,1/2-z
1/2-x,1/2+y,z
1/2+x,1/2-y,z
1/2-y,1/2-x,1/2+z
1/2+y,1/2+x,1/2+z
loop_
_atom_site_type_symbol
_atom_site_label
_atom_site_fract_x
_atom_site_fract_y
_atom_site_fract_z
Si Si1 0.208707 0.528410 0.920323
Si Si2 0.250900 0.445183 0.633159
Si Si3 0.000000 0.000000 0.250000
O O1 0.176707 0.391390 0.864698
O O2 0.368949 0.614425 0.912820
O O3 0.085596 0.662215 0.903393
O O4 0.188299 0.467835 0.000000
O O5 0.342641 0.485594 0.704311
#
# Coordination Sequence:
#
# PCOD9569029 Si02
#       3
#    16  16   4
#     4  11  23  46  75 108 135 177 234 300 366 416
#     4  11  25  43  70  99 142 184 229 291 349 431
#     4  12  28  48  62 100 144 200 248 282 356 428
#
# _framework density 25.311050000000002
#
# number of rings (size 3 to 8) (size 9 to 14) (size 15 to 20)
#    0.000    0.889    0.000    8.000    0.000    7.111 
#    0.000   21.111    0.000    0.000    0.000    0.000 
#    0.000    0.000    0.000    0.000    0.000    0.000 
#
# Total GULP energy -201341.052791 kJ/mol
# GULP energy per Si atom -5592.807022 kJ/mol
# Density = 2.525344 g / cm^3
# Si number density = 25.311050 Si / 1000 Ang^3
#
#
#
# Elastic Constant Matrix: (Units=GPa)
#
#
# Indices 1 2 3 4 5 6 
#
# 1 120.4296 88.8012 51.6690 0.0000 0.0000 0.0000
# 2 88.8012 120.4296 51.6690 0.0000 0.0000 0.0000
# 3 51.6690 51.6690 129.9286 0.0000 0.0000 0.0000
# 4 0.0000 0.0000 0.0000 38.2767 0.0000 0.0000
# 5 0.0000 0.0000 0.0000 0.0000 38.2767 0.0000
# 6 0.0000 0.0000 0.0000 0.0000 0.0000 78.0904
#
#
#
# Elastic Compliance Matrix: (Units=1/GPa)
#
#
# Indices 1 2 3 4 5 6 
#
# 1 0.018782 -0.012835 -0.002365 0.000000 0.000000 0.000000
# 2 -0.012835 0.018782 -0.002365 0.000000 0.000000 0.000000
# 3 -0.002365 -0.002365 0.009578 0.000000 0.000000 0.000000
# 4 0.000000 0.000000 0.000000 0.026126 0.000000 0.000000
# 5 0.000000 0.000000 0.000000 0.000000 0.026126 0.000000
# 6 0.000000 0.000000 0.000000 0.000000 0.000000 0.012806
#
#
# Mechanical properties :
#
#
# Convention : Reuss Voigt Hill
#
# Bulk Modulus (GPa) = 83.24958 83.89622 83.57290
# Shear Modulus (GPa) = 33.03959 42.83865 37.93912
#
# Velocity S-wave (km/s) = 3.61687 4.11845 3.87578
# Velocity P-wave (km/s) = 7.09960 7.47218 7.28827
#
# Compressibility (1/GPa) = 0.01201207
#
# Stress axis : x y z
#
# Youngs Moduli (GPa) = 53.24140 53.24140 104.40952
#
# Poissons Ratio (x) = 0.68334 0.24695
# Poissons Ratio (y) = 0.68334 0.24695
# Poissons Ratio (z) = 0.12593 0.12593
#
# Static dielectric constant tensor:
#      x y z
#    x 2.058230 0.000000 0.000000 
#    y 0.000000 2.058230 0.000000 
#    z 0.000000 0.000000 1.951010 
# 
# From -- ./inp_files/4806.got.cif
#   From: 2010.05.17/outbox.cif.g08.bks.cpg/sg135_3_cif.got.tgz:4806.got - 2010.05.20 12:50:20.
