data_PCOD9569442
_publ_section_title
;
Structure prediction by ZEFSAII (Michael W. Deem and Ramdas Pophale) SiO2 
 PCOD9569442
Probable space group: P 42/M N M
;
_chemical_formula_sum "Si O2"
_cell_formula_units_Z 72
_cell_length_a 21.827705
_cell_length_b 21.827705
_cell_length_c 7.492792
_cell_angle_alpha 90.000000
_cell_angle_beta 90.000000
_cell_angle_gamma 90.000000
_cell_volume 3569.931049
_symmetry_space_group_name_H-M "P 42/M N M"
_symmetry_group_IT_number 136
_symmetry_cell_setting 'tetragonal'
loop_
_space_group_symop_operation_xyz
x,y,z
1/2-y,1/2+x,1/2+z
-x,-y,z
1/2+y,1/2-x,1/2+z
1/2+x,1/2-y,1/2-z
1/2-x,1/2+y,1/2-z
y,x,-z
-y,-x,-z
-x,-y,-z
1/2+y,1/2-x,1/2-z
x,y,-z
1/2-y,1/2+x,1/2-z
1/2-x,1/2+y,1/2+z
1/2+x,1/2-y,1/2+z
-y,-x,z
y,x,z
loop_
_atom_site_type_symbol
_atom_site_label
_atom_site_fract_x
_atom_site_fract_y
_atom_site_fract_z
Si Si1 0.949428 0.050573 0.281764
Si Si2 0.628527 0.274216 0.783790
Si Si3 0.358295 0.090642 0.794828
Si Si4 0.316372 0.956692 0.294201
Si Si5 0.815515 0.006134 0.717836
O O1 0.949721 0.050280 0.500000
O O2 0.967382 0.119282 0.224478
O O3 0.000000 0.000000 0.226803
O O4 0.685785 0.314216 0.725704
O O5 0.626698 0.205703 0.712637
O O6 0.565061 0.307452 0.732376
O O7 0.628714 0.270775 0.000000
O O8 0.410440 0.134037 0.713967
O O9 0.343832 0.025193 0.708135
O O10 0.374575 0.076653 0.000000
O O11 0.309127 0.936962 0.500000
O O12 0.247231 0.960921 0.219370
O O13 0.814774 0.008277 0.500000
#
# Coordination Sequence:
#
# PCOD9569442 Si02
#       5
#     8  16  16  16  16
#     4   9  14  20  38  70  97 119 155 195 233 278
#     4   9  17  31  50  70  97 134 169 201 244 294
#     4  10  20  33  51  74  97 126 164 208 253 297
#     4   9  19  35  50  69  98 129 161 199 253 307
#     4   8  14  26  43  65  95 126 155 194 240 285
#
# _framework density 20.168457
#
# number of rings (size 3 to 8) (size 9 to 14) (size 15 to 20)
#    0.000    3.000    0.000    2.667    0.000    5.333 
#    2.000    2.222    0.000    0.000    0.000    7.000 
#    0.000   21.333    0.000    0.000    0.000    0.000 
#
# Total GULP energy -401455.801332 kJ/mol
# GULP energy per Si atom -5575.775018 kJ/mol
# Density = 2.012255 g / cm^3
# Si number density = 20.168457 Si / 1000 Ang^3
#
#
#
# Elastic Constant Matrix: (Units=GPa)
#
#
# Indices 1 2 3 4 5 6 
#
# 1 127.1825 111.3983 -5.1142 0.0000 0.0000 0.0000
# 2 111.3983 127.1826 -5.1142 0.0000 0.0000 0.0000
# 3 -5.1142 -5.1142 53.4238 0.0000 0.0000 0.0000
# 4 0.0000 0.0000 0.0000 8.5948 0.0000 0.0000
# 5 0.0000 0.0000 0.0000 0.0000 8.5948 0.0000
# 6 0.0000 0.0000 0.0000 0.0000 0.0000 41.1112
#
#
#
# Elastic Compliance Matrix: (Units=1/GPa)
#
#
# Indices 1 2 3 4 5 6 
#
# 1 0.033782 -0.029573 0.000403 0.000000 0.000000 0.000000
# 2 -0.029573 0.033781 0.000403 0.000000 0.000000 0.000000
# 3 0.000403 0.000403 0.018795 0.000000 0.000000 0.000000
# 4 0.000000 0.000000 0.000000 0.116350 0.000000 0.000000
# 5 0.000000 0.000000 0.000000 0.000000 0.116350 0.000000
# 6 0.000000 0.000000 0.000000 0.000000 0.000000 0.024324
#
#
# Mechanical properties :
#
#
# Convention : Reuss Voigt Hill
#
# Bulk Modulus (GPa) = 34.69278 56.68093 45.68686
# Shear Modulus (GPa) = 12.17955 25.43475 18.80715
#
# Velocity S-wave (km/s) = 2.46009 3.55507 3.05700
# Velocity P-wave (km/s) = 5.03073 6.70941 5.92977
#
# Compressibility (1/GPa) = 0.02882444
#
# Stress axis : x y z
#
# Youngs Moduli (GPa) = 29.60198 29.60200 53.20453
#
# Poissons Ratio (x) = 0.87541 -0.02144
# Poissons Ratio (y) = 0.87541 -0.02144
# Poissons Ratio (z) = -0.01193 -0.01193
#
# Static dielectric constant tensor:
#      x y z
#    x 1.693140 0.000000 0.000000 
#    y 0.000000 1.693140 0.000000 
#    z 0.000000 0.000000 1.815650 
# 
# From -- ./inp_files/1547.got.cif
#   From: 2010.05.17/outbox.cif.g08.bks.cpg/sg136_1_cif.got.tgz:1547.got - 2010.05.20 12:54:53.
