data_PCOD9569924
_publ_section_title
;
Structure prediction by ZEFSAII (Michael W. Deem and Ramdas Pophale) SiO2 
 PCOD9569924
Probable space group: P 42/M N M
;
_chemical_formula_sum "Si O2"
_cell_formula_units_Z 80
_cell_length_a 12.000000
_cell_length_b 12.000000
_cell_length_c 30.000000
_cell_angle_alpha 90.000000
_cell_angle_beta 90.000000
_cell_angle_gamma 90.000000
_cell_volume 4320.000000
_symmetry_space_group_name_H-M "P 42/M N M"
_symmetry_group_IT_number 136
_symmetry_cell_setting 'tetragonal'
loop_
_space_group_symop_operation_xyz
x,y,z
1/2-y,1/2+x,1/2+z
-x,-y,z
1/2+y,1/2-x,1/2+z
1/2+x,1/2-y,1/2-z
1/2-x,1/2+y,1/2-z
y,x,-z
-y,-x,-z
-x,-y,-z
1/2+y,1/2-x,1/2-z
x,y,-z
1/2-y,1/2+x,1/2-z
1/2-x,1/2+y,1/2+z
1/2+x,1/2-y,1/2+z
-y,-x,z
y,x,z
loop_
_atom_site_type_symbol
_atom_site_label
_atom_site_fract_x
_atom_site_fract_y
_atom_site_fract_z
Si Si1 0.349731 0.158322 0.948425
Si Si2 0.680358 0.511202 0.588580
Si Si3 0.125788 0.450380 0.853552
Si Si4 0.540517 0.273651 0.685193
Si Si5 0.187979 0.998535 0.285378
O O1 0.260961 0.260961 0.944982
O O2 0.280386 0.044247 0.938753
O O3 0.431501 0.162780 0.905267
O O4 0.391727 0.157906 0.000000
O O5 0.585902 0.414099 0.589599
O O6 0.620560 0.620560 0.569859
O O7 0.714163 0.532734 0.640215
O O8 0.116370 0.330850 0.828623
O O9 0.216523 0.512271 0.822772
O O10 0.000000 0.500000 0.852718
O O11 0.615469 0.384532 0.687267
O O12 0.489658 0.263203 0.734636
O O13 0.104270 0.104270 0.286451
O O14 0.110365 0.889636 0.293702
#
# Coordination Sequence:
#
# PCOD9569924 Si02
#       5
#    16  16  16  16  16
#     4   9  18  34  55  76 100 139 187 231 283 341
#     4   8  13  24  44  72 103 129 162 210 261 319
#     4  11  23  36  53  80 114 145 180 229 286 342
#     4   9  18  32  51  75 105 143 181 220 271 331
#     4  10  21  37  58  81 108 149 196 236 272 321
#
# _framework density 18.518519000000001
#
# number of rings (size 3 to 8) (size 9 to 14) (size 15 to 20)
#    0.000    2.600    0.000    3.600    2.800    3.200 
#    0.000    6.000    0.000    0.600    0.000    2.800 
#    0.000    0.000    0.000    0.000    0.000    0.000 
#
# Total GULP energy -445561.446880 kJ/mol
# GULP energy per Si atom -5569.518086 kJ/mol
# Density = 1.847637 g / cm^3
# Si number density = 18.518519 Si / 1000 Ang^3
#
#
#
# Elastic Constant Matrix: (Units=GPa)
#
#
# Indices 1 2 3 4 5 6 
#
# 1 28.7675 -0.9705 23.2481 0.0000 0.0000 0.0000
# 2 -0.9705 28.7675 23.2481 0.0000 0.0000 0.0000
# 3 23.2481 23.2481 143.5108 0.0000 0.0000 0.0000
# 4 0.0000 0.0000 0.0000 22.9829 0.0000 0.0000
# 5 0.0000 0.0000 0.0000 0.0000 22.9829 0.0000
# 6 0.0000 0.0000 0.0000 0.0000 0.0000 21.3677
#
#
#
# Elastic Compliance Matrix: (Units=1/GPa)
#
#
# Indices 1 2 3 4 5 6 
#
# 1 0.041487 0.007860 -0.007994 0.000000 0.000000 0.000000
# 2 0.007860 0.041487 -0.007994 0.000000 0.000000 0.000000
# 3 -0.007994 -0.007994 0.009558 0.000000 0.000000 0.000000
# 4 0.000000 0.000000 0.000000 0.043511 0.000000 0.000000
# 5 0.000000 0.000000 0.000000 0.000000 0.043511 0.000000
# 6 0.000000 0.000000 0.000000 0.000000 0.000000 0.046800
#
#
# Mechanical properties :
#
#
# Convention : Reuss Voigt Hill
#
# Bulk Modulus (GPa) = 13.11035 32.45526 22.78281
# Shear Modulus (GPa) = 18.65435 23.83469 21.24452
#
# Velocity S-wave (km/s) = 3.17730 3.59147 3.39071
# Velocity P-wave (km/s) = 4.53379 5.89594 5.25915
#
# Compressibility (1/GPa) = 0.07627559
#
# Stress axis : x y z
#
# Youngs Moduli (GPa) = 24.10403 24.10403 104.62339
#
# Poissons Ratio (x) = -0.18945 0.83635
# Poissons Ratio (y) = -0.18945 0.83635
# Poissons Ratio (z) = 0.19269 0.19269
#
# Static dielectric constant tensor:
#      x y z
#    x 1.682110 0.000000 0.000000 
#    y 0.000000 1.682110 0.000000 
#    z 0.000000 0.000000 1.651290 
# 
# From -- ./inp_files/9524.got.cif
#   From: 2010.05.17/outbox.ucp.g08.bks.cvg/sg136_5_cif.got.tgz:9524.got - 2010.06.11 11:40:42.
