data_PCOD9569791
_publ_section_title
;
Structure prediction by ZEFSAII (Michael W. Deem and Ramdas Pophale) SiO2 
 PCOD9569791
Probable space group: P 42/M N M
;
_chemical_formula_sum "Si O2"
_cell_formula_units_Z 72
_cell_length_a 11.676175
_cell_length_b 11.676175
_cell_length_c 27.696891
_cell_angle_alpha 90.000000
_cell_angle_beta 90.000000
_cell_angle_gamma 90.000000
_cell_volume 3776.001975
_symmetry_space_group_name_H-M "P 42/M N M"
_symmetry_group_IT_number 136
_symmetry_cell_setting 'tetragonal'
loop_
_space_group_symop_operation_xyz
x,y,z
1/2-y,1/2+x,1/2+z
-x,-y,z
1/2+y,1/2-x,1/2+z
1/2+x,1/2-y,1/2-z
1/2-x,1/2+y,1/2-z
y,x,-z
-y,-x,-z
-x,-y,-z
1/2+y,1/2-x,1/2-z
x,y,-z
1/2-y,1/2+x,1/2-z
1/2-x,1/2+y,1/2+z
1/2+x,1/2-y,1/2+z
-y,-x,z
y,x,z
loop_
_atom_site_type_symbol
_atom_site_label
_atom_site_fract_x
_atom_site_fract_y
_atom_site_fract_z
Si Si1 0.096779 0.903222 0.654522
Si Si2 0.000126 0.807507 0.000000
Si Si3 0.242650 0.056864 0.282931
Si Si4 0.549206 0.130641 0.419975
Si Si5 0.684555 0.684555 0.943626
Si Si6 0.866245 0.527626 0.312818
O O1 0.118391 0.881610 0.598536
O O2 0.049127 0.792798 0.683056
O O3 0.000000 0.000000 0.657904
O O4 0.010074 0.723315 0.954449
O O5 0.878906 0.878906 0.000000
O O6 0.097906 0.902095 0.000000
O O7 0.130975 0.130975 0.273099
O O8 0.335142 0.133941 0.310969
O O9 0.294847 0.018655 0.232072
O O10 0.682868 0.149008 0.433461
O O11 0.525314 0.163015 0.364403
O O12 0.500000 0.000000 0.426937
O O13 0.660055 0.660055 0.000000
O O14 0.000000 0.500000 0.304865
#
# Coordination Sequence:
#
# PCOD9569791 Si02
#       6
#     8   8  16  16   8  16
#     4  10  24  43  60  92 134 163 202 272 325 369
#     4  11  23  44  66  91 132 172 210 272 343 389
#     4  11  23  39  62  90 128 167 206 254 317 383
#     4  11  23  41  66  98 126 166 222 269 319 393
#     4  12  24  41  72  94 120 176 223 271 332 382
#     4  11  22  37  61  93 121 161 214 253 304 382
#
# _framework density 19.067788
#
# number of rings (size 3 to 8) (size 9 to 14) (size 15 to 20)
#    0.000    1.000    4.444    3.000    3.111    1.111 
#    0.000    1.111    0.000    0.000    0.000    0.000 
#    0.000    0.000    0.000    0.000    0.000    0.000 
#
# Total GULP energy -401750.080748 kJ/mol
# GULP energy per Si atom -5579.862233 kJ/mol
# Density = 1.902439 g / cm^3
# Si number density = 19.067788 Si / 1000 Ang^3
#
#
#
# Elastic Constant Matrix: (Units=GPa)
#
#
# Indices 1 2 3 4 5 6 
#
# 1 84.1712 34.5046 54.7606 0.0000 0.0000 0.0000
# 2 34.5046 84.1706 54.7604 0.0000 0.0000 0.0000
# 3 54.7606 54.7604 201.6574 0.0000 0.0000 0.0000
# 4 0.0000 0.0000 0.0000 22.6092 0.0000 0.0000
# 5 0.0000 0.0000 0.0000 0.0000 22.6059 0.0000
# 6 0.0000 0.0000 0.0000 0.0000 0.0000 31.8968
#
#
#
# Elastic Compliance Matrix: (Units=1/GPa)
#
#
# Indices 1 2 3 4 5 6 
#
# 1 0.015689 -0.004445 -0.003053 0.000000 0.000000 0.000000
# 2 -0.004445 0.015689 -0.003053 0.000000 0.000000 0.000000
# 3 -0.003053 -0.003053 0.006617 0.000000 0.000000 0.000000
# 4 0.000000 0.000000 0.000000 0.044230 0.000000 0.000000
# 5 0.000000 0.000000 0.000000 0.000000 0.044236 0.000000
# 6 0.000000 0.000000 0.000000 0.000000 0.000000 0.031351
#
#
# Mechanical properties :
#
#
# Convention : Reuss Voigt Hill
#
# Bulk Modulus (GPa) = 59.19942 73.11670 66.15806
# Shear Modulus (GPa) = 27.09334 30.48729 28.79032
#
# Velocity S-wave (km/s) = 3.77357 4.00295 3.88995
# Velocity P-wave (km/s) = 7.07818 7.73264 7.41264
#
# Compressibility (1/GPa) = 0.01689206
#
# Stress axis : x y z
#
# Youngs Moduli (GPa) = 63.73803 63.73751 151.12102
#
# Poissons Ratio (x) = 0.28332 0.46143
# Poissons Ratio (y) = 0.28332 0.46143
# Poissons Ratio (z) = 0.19462 0.19462
#
# Static dielectric constant tensor:
#      x y z
#    x 1.711300 0.000000 0.000000 
#    y 0.000000 1.711300 0.000000 
#    z 0.000000 0.000000 1.653090 
# 
# From -- ./inp_files/8992.got.cif
#   From: 2010.05.17/outbox.cif.g08.bks.cpg/sg136_5_cif.got.tgz:8992.got - 2010.05.20 12:54:53.
