data_PCOD9569106
_publ_section_title
;
Structure prediction by ZEFSAII (Michael W. Deem and Ramdas Pophale) SiO2 
 PCOD9569106
Probable space group: P 42/M N M
;
_chemical_formula_sum "Si O2"
_cell_formula_units_Z 112
_cell_length_a 27.784334
_cell_length_b 27.784334
_cell_length_c 7.336754
_cell_angle_alpha 90.000000
_cell_angle_beta 90.000000
_cell_angle_gamma 90.000000
_cell_volume 5663.748232
_symmetry_space_group_name_H-M "P 42/M N M"
_symmetry_group_IT_number 136
_symmetry_cell_setting 'tetragonal'
loop_
_space_group_symop_operation_xyz
x,y,z
1/2-y,1/2+x,1/2+z
-x,-y,z
1/2+y,1/2-x,1/2+z
1/2+x,1/2-y,1/2-z
1/2-x,1/2+y,1/2-z
y,x,-z
-y,-x,-z
-x,-y,-z
1/2+y,1/2-x,1/2-z
x,y,-z
1/2-y,1/2+x,1/2-z
1/2-x,1/2+y,1/2+z
1/2+x,1/2-y,1/2+z
-y,-x,z
y,x,z
loop_
_atom_site_type_symbol
_atom_site_label
_atom_site_fract_x
_atom_site_fract_y
_atom_site_fract_z
Si Si1 0.034351 0.813407 0.778833
Si Si2 0.609958 0.820415 0.717624
Si Si3 0.360600 0.284613 0.277634
Si Si4 0.312450 0.099777 0.783219
Si Si5 0.369769 0.555002 0.721732
Si Si6 0.505930 0.794763 0.721767
Si Si7 0.209824 0.134783 0.778291
O O1 0.089932 0.811484 0.721912
O O2 0.011630 0.761544 0.729466
O O3 0.998372 0.855313 0.716944
O O4 0.034955 0.814960 0.000000
O O5 0.607287 0.815721 0.500000
O O6 0.634823 0.770770 0.782903
O O7 0.641654 0.866885 0.754674
O O8 0.554817 0.820707 0.783894
O O9 0.360028 0.284360 0.500000
O O10 0.314177 0.314177 0.216847
O O11 0.263641 0.125026 0.713353
O O12 0.314981 0.045060 0.714063
O O13 0.306011 0.095837 0.000000
O O14 0.370985 0.554140 0.500000
O O15 0.418850 0.581151 0.781776
O O16 0.326034 0.591093 0.771357
O O17 0.505862 0.796453 0.500000
O O18 0.183899 0.183899 0.718751
O O19 0.210558 0.135564 0.000000
#
# Coordination Sequence:
#
# PCOD9569106 Si02
#       7
#    16  16  16  16  16  16  16
#     4   8  11  18  33  51  71  99 138 174 198 225
#     4   9  18  30  43  61  84 108 135 165 200 237
#     4   8  14  24  38  54  74 105 142 171 192 227
#     4  10  17  27  45  64  82 105 134 165 201 240
#     4   8  11  15  26  47  75 102 127 161 204 239
#     4   8  14  26  42  58  77 103 135 169 196 230
#     4   8  13  20  32  55  84 105 123 155 199 241
#
# _framework density 19.774889000000002
#
# number of rings (size 3 to 8) (size 9 to 14) (size 15 to 20)
#    0.000    3.571    1.429    2.571    0.000    0.571 
#    0.000    0.714    0.000    0.857    0.000    6.000 
#    0.000    0.000    0.000    0.000    0.000    0.000 
#
# Total GULP energy -624192.982388 kJ/mol
# GULP energy per Si atom -5573.151628 kJ/mol
# Density = 1.972988 g / cm^3
# Si number density = 19.774889 Si / 1000 Ang^3
#
#
#
# Elastic Constant Matrix: (Units=GPa)
#
#
# Indices 1 2 3 4 5 6 
#
# 1 112.6982 74.4337 4.3994 0.0000 0.0000 0.0000
# 2 74.4337 112.6982 4.3994 0.0000 0.0000 0.0000
# 3 4.3994 4.3994 73.4248 0.0000 0.0000 0.0000
# 4 0.0000 0.0000 0.0000 -7.1794 0.0000 0.0000
# 5 0.0000 0.0000 0.0000 0.0000 -7.1794 0.0000
# 6 0.0000 0.0000 0.0000 0.0000 0.0000 28.5610
#
#
#
# Elastic Compliance Matrix: (Units=1/GPa)
#
#
# Indices 1 2 3 4 5 6 
#
# 1 0.015746 -0.010388 -0.000321 0.000000 0.000000 0.000000
# 2 -0.010388 0.015746 -0.000321 0.000000 0.000000 0.000000
# 3 -0.000321 -0.000321 0.013658 0.000000 0.000000 0.000000
# 4 0.000000 0.000000 0.000000 -0.139287 0.000000 0.000000
# 5 0.000000 0.000000 0.000000 0.000000 -0.139287 0.000000
# 6 0.000000 0.000000 0.000000 0.000000 0.000000 0.035013
#
#
# Mechanical properties :
#
#
# Convention : Reuss Voigt Hill
#
# Bulk Modulus (GPa) = 43.30627 51.69845 47.50236
# Shear Modulus (GPa) = -29.64633 17.21303 -6.21665
#
# Velocity S-wave (km/s) = -3.87614 2.95354 -1.77497
# Velocity P-wave (km/s) = 1.38368 6.15073 4.45791
#
# Compressibility (1/GPa) = 0.02309134
#
# Stress axis : x y z
#
# Youngs Moduli (GPa) = 63.50647 63.50647 73.21794
#
# Poissons Ratio (x) = 0.65967 0.02351
# Poissons Ratio (y) = 0.65967 0.02351
# Poissons Ratio (z) = 0.02039 0.02039
#
# Static dielectric constant tensor:
#      x y z
#    x 1.690510 0.000000 0.000000 
#    y 0.000000 1.690510 0.000000 
#    z 0.000000 0.000000 2.058470 
# 
# From -- ./inp_files/4035.got.cif
#   From: 2010.05.17/outbox.cif.g08.bks.cpg/sg136_3_cif.got.tgz:4035.got - 2010.05.20 12:54:53.
