data_PCOD9569032
_publ_section_title
;
Structure prediction by ZEFSAII (Michael W. Deem and Ramdas Pophale) SiO2 
 PCOD9569032
Probable space group: P 42/M B C
;
_chemical_formula_sum "Si O2"
_cell_formula_units_Z 64
_cell_length_a 10.121239
_cell_length_b 10.121239
_cell_length_c 26.459976
_cell_angle_alpha 90.000000
_cell_angle_beta 90.000000
_cell_angle_gamma 90.000000
_cell_volume 2710.546153
_symmetry_space_group_name_H-M "P 42/M B C"
_symmetry_group_IT_number 135
_symmetry_cell_setting 'tetragonal'
loop_
_space_group_symop_operation_xyz
x,y,z
-y,x,1/2+z
-x,-y,z
y,-x,1/2+z
1/2+x,1/2-y,-z
1/2-x,1/2+y,-z
1/2+y,1/2+x,1/2-z
1/2-y,1/2-x,1/2-z
-x,-y,-z
y,-x,1/2-z
x,y,-z
-y,x,1/2-z
1/2-x,1/2+y,z
1/2+x,1/2-y,z
1/2-y,1/2-x,1/2+z
1/2+y,1/2+x,1/2+z
loop_
_atom_site_type_symbol
_atom_site_label
_atom_site_fract_x
_atom_site_fract_y
_atom_site_fract_z
Si Si1 0.191848 0.086866 0.557944
Si Si2 0.320208 0.917589 0.364493
Si Si3 0.741939 0.955375 0.095380
Si Si4 0.696651 0.818797 0.809789
O O1 0.205670 0.048215 0.500000
O O2 0.207435 0.963798 0.595931
O O3 0.049923 0.154957 0.566976
O O4 0.316666 0.185371 0.572194
O O5 0.299193 0.789248 0.329630
O O6 0.328876 0.046102 0.329113
O O7 0.442249 0.880046 0.399679
O O8 0.770308 0.928020 0.155264
O O9 0.687248 0.812753 0.750000
#
# Coordination Sequence:
#
# PCOD9569032 Si02
#       4
#    16  16  16  16
#     4  11  24  44  75 104 146 193 238 296 363 421
#     4  11  24  48  69 106 140 182 241 299 342 438
#     4  11  23  47  71 106 144 183 246 300 344 439
#     4  11  26  44  76 101 143 187 236 293 369 422
#
# _framework density 23.61148
#
# number of rings (size 3 to 8) (size 9 to 14) (size 15 to 20)
#    0.000    1.000    5.000    3.750    3.500    5.000 
#    0.000    1.250    0.000    0.000    0.000    0.000 
#    0.000    0.000    0.000    0.000    0.000    0.000 
#
# Total GULP energy -356302.659557 kJ/mol
# GULP energy per Si atom -5567.229056 kJ/mol
# Density = 2.355774 g / cm^3
# Si number density = 23.611480 Si / 1000 Ang^3
#
#
#
# Elastic Constant Matrix: (Units=GPa)
#
#
# Indices 1 2 3 4 5 6 
#
# 1 87.8554 8.4262 22.1172 0.0000 0.0000 0.0000
# 2 8.4262 87.8553 22.1170 0.0000 0.0000 0.0000
# 3 22.1172 22.1170 169.0280 0.0000 0.0000 0.0000
# 4 0.0000 0.0000 0.0000 22.1695 0.0000 0.0000
# 5 0.0000 0.0000 0.0000 0.0000 22.1694 0.0000
# 6 0.0000 0.0000 0.0000 0.0000 0.0000 35.9610
#
#
#
# Elastic Compliance Matrix: (Units=1/GPa)
#
#
# Indices 1 2 3 4 5 6 
#
# 1 0.011820 -0.000770 -0.001446 0.000000 0.000000 0.000000
# 2 -0.000770 0.011820 -0.001446 0.000000 0.000000 0.000000
# 3 -0.001446 -0.001446 0.006295 0.000000 0.000000 0.000000
# 4 0.000000 0.000000 0.000000 0.045107 0.000000 0.000000
# 5 0.000000 0.000000 0.000000 0.000000 0.045107 0.000000
# 6 0.000000 0.000000 0.000000 0.000000 0.000000 0.027808
#
#
# Mechanical properties :
#
#
# Convention : Reuss Voigt Hill
#
# Bulk Modulus (GPa) = 44.22464 50.00660 47.11562
# Shear Modulus (GPa) = 30.70921 35.53185 33.12053
#
# Velocity S-wave (km/s) = 3.61030 3.88345 3.74937
# Velocity P-wave (km/s) = 6.01248 6.42909 6.22427
#
# Compressibility (1/GPa) = 0.02261183
#
# Stress axis : x y z
#
# Youngs Moduli (GPa) = 84.60118 84.60107 158.86685
#
# Poissons Ratio (x) = 0.06511 0.22971
# Poissons Ratio (y) = 0.06511 0.22971
# Poissons Ratio (z) = 0.12233 0.12233
#
# Static dielectric constant tensor:
#      x y z
#    x 2.123670 0.000000 0.000000 
#    y 0.000000 2.123670 0.000000 
#    z 0.000000 0.000000 1.844740 
# 
# From -- ./inp_files/6331.got.cif
#   From: 2010.05.17/outbox.cif.g08.bks.cpg/sg135_4_cif.got.tgz:6331.got - 2010.05.20 12:50:20.
