data_PCOD9569261
_publ_section_title
;
Structure prediction by ZEFSAII (Michael W. Deem and Ramdas Pophale) SiO2 
 PCOD9569261
Probable space group: P 42/M N M
;
_chemical_formula_sum "Si O2"
_cell_formula_units_Z 96
_cell_length_a 25.840744
_cell_length_b 25.840744
_cell_length_c 8.787748
_cell_angle_alpha 90.000000
_cell_angle_beta 90.000000
_cell_angle_gamma 90.000000
_cell_volume 5867.966444
_symmetry_space_group_name_H-M "P 42/M N M"
_symmetry_group_IT_number 136
_symmetry_cell_setting 'tetragonal'
loop_
_space_group_symop_operation_xyz
x,y,z
1/2-y,1/2+x,1/2+z
-x,-y,z
1/2+y,1/2-x,1/2+z
1/2+x,1/2-y,1/2-z
1/2-x,1/2+y,1/2-z
y,x,-z
-y,-x,-z
-x,-y,-z
1/2+y,1/2-x,1/2-z
x,y,-z
1/2-y,1/2+x,1/2-z
1/2-x,1/2+y,1/2+z
1/2+x,1/2-y,1/2+z
-y,-x,z
y,x,z
loop_
_atom_site_type_symbol
_atom_site_label
_atom_site_fract_x
_atom_site_fract_y
_atom_site_fract_z
Si Si1 0.135811 0.545948 0.322829
Si Si2 0.547553 0.247699 0.819690
Si Si3 0.867510 0.552484 0.822120
Si Si4 0.754814 0.560861 0.319951
Si Si5 0.664228 0.249943 0.183171
Si Si6 0.170199 0.741827 0.322577
O O1 0.149629 0.537534 0.500000
O O2 0.186997 0.549464 0.221966
O O3 0.102061 0.596787 0.311665
O O4 0.105696 0.496925 0.254844
O O5 0.493704 0.267475 0.745161
O O6 0.605529 0.263937 0.767825
O O7 0.543640 0.255874 0.000000
O O8 0.815014 0.559807 0.729162
O O9 0.855920 0.543053 0.000000
O O10 0.748672 0.560986 0.500000
O O11 0.739084 0.616657 0.252431
O O12 0.703178 0.296823 0.220977
O O13 0.690888 0.198078 0.251358
O O14 0.663269 0.243637 0.000000
O O15 0.159997 0.730896 0.500000
O O16 0.212774 0.787227 0.309596
#
# Coordination Sequence:
#
# PCOD9569261 Si02
#       6
#    16  16  16  16  16  16
#     4  10  20  31  43  59  79 106 143 186 228 271
#     4  10  19  31  48  67  90 120 151 186 226 271
#     4  10  20  32  45  60  80 108 144 186 229 273
#     4  11  21  32  48  67  90 120 153 190 228 272
#     4   9  18  32  50  73  99 127 159 194 235 282
#     4  10  20  33  50  72  98 127 158 194 236 282
#
# _framework density 16.360012000000001
#
# number of rings (size 3 to 8) (size 9 to 14) (size 15 to 20)
#    0.000    2.000    0.000    6.500    0.000    8.000 
#    0.000    1.667    0.000    0.000    0.000    0.000 
#    0.000    0.667    0.000    7.667    0.000    2.167 
#
# Total GULP energy -534772.012112 kJ/mol
# GULP energy per Si atom -5570.541793 kJ/mol
# Density = 1.632278 g / cm^3
# Si number density = 16.360012 Si / 1000 Ang^3
#
#
#
# Elastic Constant Matrix: (Units=GPa)
#
#
# Indices 1 2 3 4 5 6 
#
# 1 69.3668 5.3007 26.5437 0.0000 0.0000 0.0000
# 2 5.3007 69.3668 26.5437 0.0000 0.0000 0.0000
# 3 26.5437 26.5437 66.0307 0.0000 0.0000 0.0000
# 4 0.0000 0.0000 0.0000 18.4761 0.0000 0.0000
# 5 0.0000 0.0000 0.0000 0.0000 18.4761 0.0000
# 6 0.0000 0.0000 0.0000 0.0000 0.0000 11.6759
#
#
#
# Elastic Compliance Matrix: (Units=1/GPa)
#
#
# Indices 1 2 3 4 5 6 
#
# 1 0.017181 0.001572 -0.007538 0.000000 0.000000 0.000000
# 2 0.001572 0.017181 -0.007538 0.000000 0.000000 0.000000
# 3 -0.007538 -0.007538 0.021205 0.000000 0.000000 0.000000
# 4 0.000000 0.000000 0.000000 0.054124 0.000000 0.000000
# 5 0.000000 0.000000 0.000000 0.000000 0.054124 0.000000
# 6 0.000000 0.000000 0.000000 0.000000 0.000000 0.085647
#
#
# Mechanical properties :
#
#
# Convention : Reuss Voigt Hill
#
# Bulk Modulus (GPa) = 35.01810 35.72675 35.37242
# Shear Modulus (GPa) = 17.48318 19.48404 18.48361
#
# Velocity S-wave (km/s) = 3.27257 3.45477 3.36490
# Velocity P-wave (km/s) = 5.97752 6.14810 6.06341
#
# Compressibility (1/GPa) = 0.02855666
#
# Stress axis : x y z
#
# Youngs Moduli (GPa) = 58.20528 58.20528 47.15851
#
# Poissons Ratio (x) = -0.09148 0.35549
# Poissons Ratio (y) = -0.09148 0.35549
# Poissons Ratio (z) = 0.43877 0.43877
#
# Static dielectric constant tensor:
#      x y z
#    x 1.598140 0.000000 0.000000 
#    y 0.000000 1.598140 0.000000 
#    z 0.000000 0.000000 1.561370 
# 
# From -- ./inp_files/2162.got.cif
#   From: 2010.05.17/outbox.cif.g08.bks.cpg/sg136_2_cif.got.tgz:2162.got - 2010.05.20 12:54:53.
