data_PCOD9569280
_publ_section_title
;
Structure prediction by ZEFSAII (Michael W. Deem and Ramdas Pophale) SiO2 
 PCOD9569280
Probable space group: P 42/M N M
;
_chemical_formula_sum "Si O2"
_cell_formula_units_Z 116
_cell_length_a 17.950536
_cell_length_b 17.950536
_cell_length_c 18.404882
_cell_angle_alpha 90.000000
_cell_angle_beta 90.000000
_cell_angle_gamma 90.000000
_cell_volume 5930.453152
_symmetry_space_group_name_H-M "P 42/M N M"
_symmetry_group_IT_number 136
_symmetry_cell_setting 'tetragonal'
loop_
_space_group_symop_operation_xyz
x,y,z
1/2-y,1/2+x,1/2+z
-x,-y,z
1/2+y,1/2-x,1/2+z
1/2+x,1/2-y,1/2-z
1/2-x,1/2+y,1/2-z
y,x,-z
-y,-x,-z
-x,-y,-z
1/2+y,1/2-x,1/2-z
x,y,-z
1/2-y,1/2+x,1/2-z
1/2-x,1/2+y,1/2+z
1/2+x,1/2-y,1/2+z
-y,-x,z
y,x,z
loop_
_atom_site_type_symbol
_atom_site_label
_atom_site_fract_x
_atom_site_fract_y
_atom_site_fract_z
Si Si1 0.085093 0.496336 0.086691
Si Si2 0.867829 0.252558 0.580865
Si Si3 0.223034 0.484949 0.285839
Si Si4 0.615925 0.734862 0.585846
Si Si5 0.131903 0.634963 0.690858
Si Si6 0.208327 0.619428 0.913366
Si Si7 0.181326 0.010559 0.648521
Si Si8 0.000000 0.000000 0.362555
O O1 0.113131 0.423543 0.125818
O O2 0.138778 0.564898 0.105590
O O3 0.000000 0.500000 0.111427
O O4 0.085500 0.490759 0.000000
O O5 0.862983 0.287245 0.500000
O O6 0.824288 0.175713 0.577145
O O7 0.830176 0.297299 0.647696
O O8 0.952138 0.228486 0.599428
O O9 0.249519 0.454598 0.363533
O O10 0.167493 0.421780 0.253226
O O11 0.181260 0.564391 0.288504
O O12 0.292135 0.492019 0.230384
O O13 0.598413 0.741095 0.500000
O O14 0.655905 0.655905 0.599577
O O15 0.677761 0.798455 0.602010
O O16 0.281330 0.589619 0.872784
O O17 0.221805 0.614535 0.000000
O O18 0.093411 0.001359 0.637802
#
# Coordination Sequence:
#
# PCOD9569280 Si02
#       8
#    16  16  16  16  16  16  16   4
#     4  10  19  31  55  87 127 170 203 238 285 353
#     4  10  20  39  64  86 121 158 196 245 302 368
#     4  11  24  38  63  89 125 162 200 257 308 378
#     4  10  23  41  62  87 116 160 211 258 309 369
#     4  11  23  36  57  90 124 163 202 241 303 369
#     4  10  19  37  58  86 129 165 198 243 301 365
#     4  11  23  42  60  90 117 157 206 250 316 364
#     4  12  28  44  65  88 117 156 212 274 306 388
#
# _framework density 19.560058000000001
#
# number of rings (size 3 to 8) (size 9 to 14) (size 15 to 20)
#    0.000    1.517    3.448    2.483    3.862    2.759 
#    1.241    2.414    0.000    0.000    0.000    0.483 
#    0.000    0.000    0.000    0.000    0.000    0.000 
#
# Total GULP energy -645945.703698 kJ/mol
# GULP energy per Si atom -5568.497446 kJ/mol
# Density = 1.951554 g / cm^3
# Si number density = 19.560058 Si / 1000 Ang^3
#
#
#
# Elastic Constant Matrix: (Units=GPa)
#
#
# Indices 1 2 3 4 5 6 
#
# 1 79.3362 10.2138 24.1030 0.0000 0.0000 0.0000
# 2 10.2138 79.3362 24.1030 0.0000 0.0000 0.0000
# 3 24.1030 24.1030 59.3199 0.0000 0.0000 0.0000
# 4 0.0000 0.0000 0.0000 11.6748 0.0000 0.0000
# 5 0.0000 0.0000 0.0000 0.0000 11.6748 0.0000
# 6 0.0000 0.0000 0.0000 0.0000 0.0000 26.0577
#
#
#
# Elastic Compliance Matrix: (Units=1/GPa)
#
#
# Indices 1 2 3 4 5 6 
#
# 1 0.014380 -0.000087 -0.005808 0.000000 0.000000 0.000000
# 2 -0.000087 0.014380 -0.005808 0.000000 0.000000 0.000000
# 3 -0.005808 -0.005808 0.021577 0.000000 0.000000 0.000000
# 4 0.000000 0.000000 0.000000 0.085655 0.000000 0.000000
# 5 0.000000 0.000000 0.000000 0.000000 0.085655 0.000000
# 6 0.000000 0.000000 0.000000 0.000000 0.000000 0.038376
#
#
# Mechanical properties :
#
#
# Convention : Reuss Voigt Hill
#
# Bulk Modulus (GPa) = 37.12891 37.20355 37.16623
# Shear Modulus (GPa) = 17.09954 20.51962 18.80958
#
# Velocity S-wave (km/s) = 2.95991 3.24243 3.10438
# Velocity P-wave (km/s) = 5.54117 5.75146 5.64729
#
# Compressibility (1/GPa) = 0.02693319
#
# Stress axis : x y z
#
# Youngs Moduli (GPa) = 69.54003 69.54003 46.34488
#
# Poissons Ratio (x) = 0.00604 0.26916
# Poissons Ratio (y) = 0.00604 0.26916
# Poissons Ratio (z) = 0.40387 0.40387
#
# Static dielectric constant tensor:
#      x y z
#    x 1.877450 0.000000 0.000000 
#    y 0.000000 1.877450 0.000000 
#    z 0.000000 0.000000 1.732340 
# 
# From -- ./inp_files/6487.got.cif
#   From: 2010.05.17/outbox.cif.g08.bks.cpg/sg136_4_cif.got.tgz:6487.got - 2010.05.20 12:54:53.
