data_PCOD9569216
_publ_section_title
;
Structure prediction by ZEFSAII (Michael W. Deem and Ramdas Pophale) SiO2 
 PCOD9569216
Probable space group: P 42/M N M
;
_chemical_formula_sum "Si O2"
_cell_formula_units_Z 96
_cell_length_a 23.458542
_cell_length_b 23.458542
_cell_length_c 8.161136
_cell_angle_alpha 90.000000
_cell_angle_beta 90.000000
_cell_angle_gamma 90.000000
_cell_volume 4491.099197
_symmetry_space_group_name_H-M "P 42/M N M"
_symmetry_group_IT_number 136
_symmetry_cell_setting 'tetragonal'
loop_
_space_group_symop_operation_xyz
x,y,z
1/2-y,1/2+x,1/2+z
-x,-y,z
1/2+y,1/2-x,1/2+z
1/2+x,1/2-y,1/2-z
1/2-x,1/2+y,1/2-z
y,x,-z
-y,-x,-z
-x,-y,-z
1/2+y,1/2-x,1/2-z
x,y,-z
1/2-y,1/2+x,1/2-z
1/2-x,1/2+y,1/2+z
1/2+x,1/2-y,1/2+z
-y,-x,z
y,x,z
loop_
_atom_site_type_symbol
_atom_site_label
_atom_site_fract_x
_atom_site_fract_y
_atom_site_fract_z
Si Si1 0.210913 0.119197 0.803051
Si Si2 0.497468 0.086068 0.185790
Si Si3 0.692223 0.047642 0.802630
Si Si4 0.683925 0.507488 0.299968
Si Si5 0.330698 0.827810 0.806346
Si Si6 0.389377 0.389377 0.300989
Si Si7 0.704046 0.704046 0.803786
O O1 0.170938 0.170938 0.741656
O O2 0.276787 0.131263 0.762994
O O3 0.188081 0.057873 0.743703
O O4 0.206696 0.118689 0.000000
O O5 0.554220 0.049137 0.203494
O O6 0.501948 0.150862 0.240816
O O7 0.477940 0.082959 0.000000
O O8 0.757004 0.038084 0.749945
O O9 0.666024 0.107468 0.741055
O O10 0.692171 0.048297 0.000000
O O11 0.683025 0.506189 0.500000
O O12 0.632048 0.548150 0.247707
O O13 0.264977 0.812230 0.770738
O O14 0.341090 0.829860 0.000000
O O15 0.388269 0.388269 0.500000
O O16 0.343041 0.343041 0.241834
O O17 0.708995 0.708995 0.000000
#
# Coordination Sequence:
#
# PCOD9569216 Si02
#       7
#    16  16  16  16  16   8   8
#     4  10  21  37  57  87 123 156 192 240 298 352
#     4  11  23  40  59  79 110 155 203 247 291 343
#     4  10  21  37  56  84 115 150 196 244 294 351
#     4   9  19  36  60  85 115 154 197 246 298 349
#     4  11  22  37  59  84 114 152 193 233 283 354
#     4  10  18  38  63  84 112 158 205 243 291 353
#     4  12  22  34  56  87 119 148 183 236 294 348
#
# _framework density 21.375613000000001
#
# number of rings (size 3 to 8) (size 9 to 14) (size 15 to 20)
#    0.000    1.667    2.500    3.250    2.333    1.333 
#    0.000    1.250    0.000    2.500    0.000    0.000 
#    0.000    2.000    0.000    0.000    0.000    0.000 
#
# Total GULP energy -536198.054472 kJ/mol
# GULP energy per Si atom -5585.396401 kJ/mol
# Density = 2.132696 g / cm^3
# Si number density = 21.375613 Si / 1000 Ang^3
#
#
#
# Elastic Constant Matrix: (Units=GPa)
#
#
# Indices 1 2 3 4 5 6 
#
# 1 74.1105 27.7793 6.6304 0.0000 0.0000 0.0000
# 2 27.7793 74.1105 6.6304 0.0000 0.0000 0.0000
# 3 6.6304 6.6304 23.4812 0.0000 0.0000 0.0000
# 4 0.0000 0.0000 0.0000 12.5489 0.0000 0.0000
# 5 0.0000 0.0000 0.0000 0.0000 12.5489 0.0000
# 6 0.0000 0.0000 0.0000 0.0000 0.0000 35.2209
#
#
#
# Elastic Compliance Matrix: (Units=1/GPa)
#
#
# Indices 1 2 3 4 5 6 
#
# 1 0.015886 -0.005697 -0.002877 0.000000 0.000000 0.000000
# 2 -0.005697 0.015886 -0.002877 0.000000 0.000000 0.000000
# 3 -0.002877 -0.002877 0.044212 0.000000 0.000000 0.000000
# 4 0.000000 0.000000 0.000000 0.079688 0.000000 0.000000
# 5 0.000000 0.000000 0.000000 0.000000 0.079688 0.000000
# 6 0.000000 0.000000 0.000000 0.000000 0.000000 0.028392
#
#
# Mechanical properties :
#
#
# Convention : Reuss Voigt Hill
#
# Bulk Modulus (GPa) = 18.83888 28.19804 23.51846
# Shear Modulus (GPa) = 16.42844 20.77455 18.60149
#
# Velocity S-wave (km/s) = 2.77530 3.12088 2.95315
# Velocity P-wave (km/s) = 4.37060 5.11926 4.75967
#
# Compressibility (1/GPa) = 0.05308171
#
# Stress axis : x y z
#
# Youngs Moduli (GPa) = 62.94716 62.94716 22.61829
#
# Poissons Ratio (x) = 0.35863 0.06507
# Poissons Ratio (y) = 0.35863 0.06507
# Poissons Ratio (z) = 0.18110 0.18110
#
# Static dielectric constant tensor:
#      x y z
#    x 1.794350 0.000000 0.000000 
#    y 0.000000 1.794350 0.000000 
#    z 0.000000 0.000000 1.741020 
# 
# From -- ./inp_files/2034.got.cif
#   From: 2010.05.17/outbox.cif.g08.bks.cpg/sg136_2_cif.got.tgz:2034.got - 2010.05.20 12:54:53.
