data_PCOD9569355
_publ_section_title
;
Structure prediction by ZEFSAII (Michael W. Deem and Ramdas Pophale) SiO2 
 PCOD9569355
Probable space group: P 42/M N M
;
_chemical_formula_sum "Si O2"
_cell_formula_units_Z 116
_cell_length_a 27.398682
_cell_length_b 27.398682
_cell_length_c 7.376552
_cell_angle_alpha 90.000000
_cell_angle_beta 90.000000
_cell_angle_gamma 90.000000
_cell_volume 5537.487411
_symmetry_space_group_name_H-M "P 42/M N M"
_symmetry_group_IT_number 136
_symmetry_cell_setting 'tetragonal'
loop_
_space_group_symop_operation_xyz
x,y,z
1/2-y,1/2+x,1/2+z
-x,-y,z
1/2+y,1/2-x,1/2+z
1/2+x,1/2-y,1/2-z
1/2-x,1/2+y,1/2-z
y,x,-z
-y,-x,-z
-x,-y,-z
1/2+y,1/2-x,1/2-z
x,y,-z
1/2-y,1/2+x,1/2-z
1/2-x,1/2+y,1/2+z
1/2+x,1/2-y,1/2+z
-y,-x,z
y,x,z
loop_
_atom_site_type_symbol
_atom_site_label
_atom_site_fract_x
_atom_site_fract_y
_atom_site_fract_z
Si Si1 0.617145 0.617145 0.000000
Si Si2 0.123023 0.705935 0.782745
Si Si3 0.356386 0.046712 0.206373
Si Si4 0.309300 0.614674 0.780790
Si Si5 0.020900 0.249875 0.208295
Si Si6 0.304801 0.423187 0.718884
Si Si7 0.770124 0.305473 0.220377
Si Si8 0.617133 0.060099 0.706510
O O1 0.588501 0.649014 0.159549
O O2 0.117652 0.763214 0.747469
O O3 0.175276 0.687745 0.716009
O O4 0.080671 0.672122 0.707008
O O5 0.120176 0.700238 0.000000
O O6 0.301653 0.040166 0.287733
O O7 0.396371 0.083848 0.287451
O O8 0.380402 0.992975 0.205480
O O9 0.348907 0.064456 0.000000
O O10 0.360456 0.639545 0.724036
O O11 0.290947 0.562868 0.714232
O O12 0.266957 0.652427 0.724553
O O13 0.309850 0.612847 0.000000
O O14 0.972543 0.223457 0.277747
O O15 0.008525 0.262529 0.000000
O O16 0.314576 0.425270 0.500000
O O17 0.745610 0.254391 0.274351
O O18 0.771331 0.305986 0.000000
O O19 0.600475 0.052188 0.500000
#
# Coordination Sequence:
#
# PCOD9569355 Si02
#       8
#     4  16  16  16  16  16  16  16
#     4  12  26  40  64  90 129 162 192 262 304 346
#     4  10  19  34  55  77 111 153 194 243 297 364
#     4  10  22  40  57  79 113 154 198 256 315 364
#     4   9  18  32  53  85 119 148 193 247 293 359
#     4  10  20  37  60  83 116 159 200 244 300 368
#     4  10  23  40  61  91 120 162 207 244 299 372
#     4   8  15  28  48  75 107 149 189 225 285 358
#     4  11  23  36  56  81 107 144 204 261 308 368
#
# _framework density 20.948129000000002
#
# number of rings (size 3 to 8) (size 9 to 14) (size 15 to 20)
#    0.000    2.207    1.379    2.276    2.897    2.207 
#    0.000    1.379    0.000    0.828    0.000    0.966 
#    0.000    2.207    0.000    0.000    0.000    0.000 
#
# Total GULP energy -646208.541616 kJ/mol
# GULP energy per Si atom -5570.763290 kJ/mol
# Density = 2.090045 g / cm^3
# Si number density = 20.948129 Si / 1000 Ang^3
#
#
#
# Elastic Constant Matrix: (Units=GPa)
#
#
# Indices 1 2 3 4 5 6 
#
# 1 62.5757 45.0314 6.7129 0.0000 0.0000 0.0000
# 2 45.0314 62.5757 6.7129 0.0000 0.0000 0.0000
# 3 6.7129 6.7129 82.7386 0.0000 0.0000 0.0000
# 4 0.0000 0.0000 0.0000 13.5256 0.0000 0.0000
# 5 0.0000 0.0000 0.0000 0.0000 13.5256 0.0000
# 6 0.0000 0.0000 0.0000 0.0000 0.0000 38.9620
#
#
#
# Elastic Compliance Matrix: (Units=1/GPa)
#
#
# Indices 1 2 3 4 5 6 
#
# 1 0.033193 -0.023805 -0.000762 0.000000 0.000000 0.000000
# 2 -0.023805 0.033193 -0.000762 0.000000 0.000000 0.000000
# 3 -0.000762 -0.000762 0.012210 0.000000 0.000000 0.000000
# 4 0.000000 0.000000 0.000000 0.073934 0.000000 0.000000
# 5 0.000000 0.000000 0.000000 0.000000 0.073934 0.000000
# 6 0.000000 0.000000 0.000000 0.000000 0.000000 0.025666
#
#
# Mechanical properties :
#
#
# Convention : Reuss Voigt Hill
#
# Bulk Modulus (GPa) = 35.79190 36.08938 35.94064
# Shear Modulus (GPa) = 16.02047 23.16483 19.59265
#
# Velocity S-wave (km/s) = 2.76845 3.32899 3.06157
# Velocity P-wave (km/s) = 5.22897 5.66053 5.44902
#
# Compressibility (1/GPa) = 0.02793928
#
# Stress axis : x y z
#
# Youngs Moduli (GPa) = 30.12656 30.12656 81.90109
#
# Poissons Ratio (x) = 0.71717 0.06238
# Poissons Ratio (y) = 0.71717 0.06238
# Poissons Ratio (z) = 0.02295 0.02295
#
# Static dielectric constant tensor:
#      x y z
#    x 1.764160 0.000000 0.000000 
#    y 0.000000 1.764160 0.000000 
#    z 0.000000 0.000000 1.807290 
# 
# From -- ./inp_files/2288.got.cif
#   From: 2010.05.17/outbox.cif.g08.bks.cpg/sg136_2_cif.got.tgz:2288.got - 2010.05.20 12:54:53.
