data_PCOD9569177
_publ_section_title
;
Structure prediction by ZEFSAII (Michael W. Deem and Ramdas Pophale) SiO2 
 PCOD9569177
Probable space group: P 42/M N M
;
_chemical_formula_sum "Si O2"
_cell_formula_units_Z 128
_cell_length_a 23.582467
_cell_length_b 23.582467
_cell_length_c 13.448280
_cell_angle_alpha 90.000000
_cell_angle_beta 90.000000
_cell_angle_gamma 90.000000
_cell_volume 7479.028937
_symmetry_space_group_name_H-M "P 42/M N M"
_symmetry_group_IT_number 136
_symmetry_cell_setting 'tetragonal'
loop_
_space_group_symop_operation_xyz
x,y,z
1/2-y,1/2+x,1/2+z
-x,-y,z
1/2+y,1/2-x,1/2+z
1/2+x,1/2-y,1/2-z
1/2-x,1/2+y,1/2-z
y,x,-z
-y,-x,-z
-x,-y,-z
1/2+y,1/2-x,1/2-z
x,y,-z
1/2-y,1/2+x,1/2-z
1/2-x,1/2+y,1/2+z
1/2+x,1/2-y,1/2+z
-y,-x,z
y,x,z
loop_
_atom_site_type_symbol
_atom_site_label
_atom_site_fract_x
_atom_site_fract_y
_atom_site_fract_z
Si Si1 0.215542 0.309301 0.116123
Si Si2 0.281953 0.892323 0.790112
Si Si3 0.664812 0.574299 0.618136
Si Si4 0.858834 0.770748 0.255723
Si Si5 0.041386 0.415153 0.753749
Si Si6 0.194507 0.052518 0.112152
Si Si7 0.179427 0.504644 0.387798
Si Si8 0.332624 0.114845 0.383200
O O1 0.275291 0.275291 0.124169
O O2 0.215749 0.366894 0.179737
O O3 0.170367 0.268605 0.170928
O O4 0.202493 0.316644 0.000000
O O5 0.217527 0.897232 0.826012
O O6 0.308925 0.953799 0.810749
O O7 0.320553 0.851252 0.857820
O O8 0.676291 0.579829 0.500000
O O9 0.607355 0.607355 0.641255
O O10 0.664954 0.507189 0.637031
O O11 0.808485 0.808485 0.301993
O O12 0.901750 0.811290 0.197435
O O13 0.890324 0.728749 0.331297
O O14 0.070641 0.475855 0.771940
O O15 0.074395 0.378782 0.670461
O O16 0.039628 0.374156 0.849621
O O17 0.262197 0.039255 0.109972
O O18 0.178186 0.070252 0.000000
O O19 0.170066 0.482235 0.500000
O O20 0.331179 0.104977 0.500000
#
# Coordination Sequence:
#
# PCOD9569177 Si02
#       8
#    16  16  16  16  16  16  16  16
#     4   9  18  31  47  72 105 135 168 217 273 326
#     4  10  18  31  52  74  99 137 181 220 270 320
#     4   9  17  29  49  78 106 136 177 220 262 320
#     4  10  20  34  54  77 102 133 175 221 266 331
#     4  11  23  37  54  77 105 143 189 233 270 319
#     4   9  17  30  52  76 103 138 172 210 263 324
#     4  10  19  34  54  73  99 138 180 225 268 314
#     4  11  22  37  55  75 106 142 177 228 284 325
#
# _framework density 17.114521
#
# number of rings (size 3 to 8) (size 9 to 14) (size 15 to 20)
#    0.000    2.125    2.500    2.625    0.000    2.000 
#    0.000    1.875    0.000    0.375    0.000    1.750 
#    0.000    0.000    0.000    1.125    0.000    0.000 
#
# Total GULP energy -713451.076785 kJ/mol
# GULP energy per Si atom -5573.836537 kJ/mol
# Density = 1.707557 g / cm^3
# Si number density = 17.114521 Si / 1000 Ang^3
#
#
#
# Elastic Constant Matrix: (Units=GPa)
#
#
# Indices 1 2 3 4 5 6 
#
# 1 64.5843 29.1474 37.0071 0.0000 0.0000 0.0000
# 2 29.1474 64.5843 37.0071 0.0000 0.0000 0.0000
# 3 37.0071 37.0071 98.1864 0.0000 0.0000 0.0000
# 4 0.0000 0.0000 0.0000 15.3364 0.0000 0.0000
# 5 0.0000 0.0000 0.0000 0.0000 15.3364 0.0000
# 6 0.0000 0.0000 0.0000 0.0000 0.0000 15.4330
#
#
#
# Elastic Compliance Matrix: (Units=1/GPa)
#
#
# Indices 1 2 3 4 5 6 
#
# 1 0.021704 -0.006515 -0.005725 0.000000 0.000000 0.000000
# 2 -0.006515 0.021704 -0.005725 0.000000 0.000000 0.000000
# 3 -0.005725 -0.005725 0.014500 0.000000 0.000000 0.000000
# 4 0.000000 0.000000 0.000000 0.065204 0.000000 0.000000
# 5 0.000000 0.000000 0.000000 0.000000 0.065204 0.000000
# 6 0.000000 0.000000 0.000000 0.000000 0.000000 0.064796
#
#
# Mechanical properties :
#
#
# Convention : Reuss Voigt Hill
#
# Bulk Modulus (GPa) = 45.49764 48.18646 46.84205
# Shear Modulus (GPa) = 16.87079 17.50071 17.18575
#
# Velocity S-wave (km/s) = 3.14309 3.20123 3.17229
# Velocity P-wave (km/s) = 6.30983 6.47149 6.39117
#
# Compressibility (1/GPa) = 0.02197916
#
# Stress axis : x y z
#
# Youngs Moduli (GPa) = 46.07385 46.07385 68.96422
#
# Poissons Ratio (x) = 0.30017 0.39482
# Poissons Ratio (y) = 0.30017 0.39482
# Poissons Ratio (z) = 0.26377 0.26377
#
# Static dielectric constant tensor:
#      x y z
#    x 1.607580 0.000000 0.000000 
#    y 0.000000 1.607580 0.000000 
#    z 0.000000 0.000000 1.565050 
# 
# From -- ./inp_files/4070.got.cif
#   From: 2010.05.17/outbox.cif.g08.bks.cpg/sg136_3_cif.got.tgz:4070.got - 2010.05.20 12:54:53.
