data_PCOD9569990
_publ_section_title
;
Structure prediction by ZEFSAII (Michael W. Deem and Ramdas Pophale) SiO2 
 PCOD9569990
Probable space group: P 42/N M C
;
_chemical_formula_sum "Si O2"
_cell_formula_units_Z 56
_cell_length_a 15.572767
_cell_length_b 15.572767
_cell_length_c 10.062400
_cell_angle_alpha 90.000000
_cell_angle_beta 90.000000
_cell_angle_gamma 90.000000
_cell_volume 2440.243411
_symmetry_space_group_name_H-M "P 42/N M C"
_symmetry_group_IT_number 137
_space_group.IT_coordinate_system_code '2'
_symmetry_cell_setting 'tetragonal'
loop_
_space_group_symop_operation_xyz
x,y,z
1/2-y,x,1/2+z
1/2-x,1/2-y,z
y,1/2-x,1/2+z
1/2+x,-y,-z
-x,1/2+y,-z
1/2+y,1/2+x,1/2-z
-y,-x,1/2-z
-x,-y,-z
1/2+y,-x,1/2-z
1/2+x,1/2+y,-z
-y,1/2+x,1/2-z
1/2-x,y,z
x,1/2-y,z
1/2-y,1/2-x,1/2+z
y,x,1/2+z
loop_
_atom_site_type_symbol
_atom_site_label
_atom_site_fract_x
_atom_site_fract_y
_atom_site_fract_z
Si Si1 0.883076 0.116925 0.250000
Si Si2 0.850083 0.340775 0.949182
Si Si3 0.648890 0.919472 0.182852
Si Si4 0.973211 0.649015 0.397873
O O1 0.845508 0.148185 0.390052
O O2 0.983695 0.137692 0.262326
O O3 0.750000 0.337995 0.908500
O O4 0.890827 0.250000 0.906693
O O5 0.888798 0.430332 0.897625
O O6 0.750000 0.895008 0.191688
O O7 0.585190 0.864338 0.271218
O O8 0.618898 0.923498 0.029969
O O9 0.985543 0.750000 0.422536
#
# Coordination Sequence:
#
# PCOD9569990 Si02
#       4
#     8  16  16  16
#     4  10  18  31  52  80 112 143 184 238 300 364
#     4   9  16  28  50  80 111 144 186 239 296 356
#     4  10  21  36  56  84 118 157 202 253 308 364
#     4   9  20  37  56  84 119 156 203 253 304 366
#
# _framework density 22.948530999999999
#
# number of rings (size 3 to 8) (size 9 to 14) (size 15 to 20)
#    0.000    2.571    0.000    4.286    0.000    7.429 
#    0.000    2.857    0.000    1.714    0.000   12.000 
#    0.000   32.000    0.000    0.000    0.000    0.000 
#
# Total GULP energy -312808.800673 kJ/mol
# GULP energy per Si atom -5585.871441 kJ/mol
# Density = 2.289630 g / cm^3
# Si number density = 22.948531 Si / 1000 Ang^3
#
#
#
# Elastic Constant Matrix: (Units=GPa)
#
#
# Indices 1 2 3 4 5 6 
#
# 1 31.9796 10.8637 23.3647 0.0000 0.0000 0.0000
# 2 10.8637 31.9790 23.3646 0.0000 0.0000 0.0000
# 3 23.3647 23.3646 125.3974 0.0000 0.0000 0.0000
# 4 0.0000 0.0000 0.0000 15.8084 0.0000 0.0000
# 5 0.0000 0.0000 0.0000 0.0000 15.8089 0.0000
# 6 0.0000 0.0000 0.0000 0.0000 0.0000 26.3058
#
#
#
# Elastic Compliance Matrix: (Units=1/GPa)
#
#
# Indices 1 2 3 4 5 6 
#
# 1 0.038326 -0.009032 -0.005458 0.000000 0.000000 0.000000
# 2 -0.009032 0.038327 -0.005458 0.000000 0.000000 0.000000
# 3 -0.005458 -0.005458 0.010009 0.000000 0.000000 0.000000
# 4 0.000000 0.000000 0.000000 0.063257 0.000000 0.000000
# 5 0.000000 0.000000 0.000000 0.000000 0.063255 0.000000
# 6 0.000000 0.000000 0.000000 0.000000 0.000000 0.038014
#
#
# Mechanical properties :
#
#
# Convention : Reuss Voigt Hill
#
# Bulk Modulus (GPa) = 21.38377 33.83800 27.61089
# Shear Modulus (GPa) = 16.30396 20.36882 18.33639
#
# Velocity S-wave (km/s) = 2.66833 2.98247 2.82977
# Velocity P-wave (km/s) = 4.33955 5.16114 4.76807
#
# Compressibility (1/GPa) = 0.04676443
#
# Stress axis : x y z
#
# Youngs Moduli (GPa) = 26.09193 26.09136 99.91335
#
# Poissons Ratio (x) = 0.23566 0.54535
# Poissons Ratio (y) = 0.23566 0.54536
# Poissons Ratio (z) = 0.14242 0.14242
#
# Static dielectric constant tensor:
#      x y z
#    x 1.871750 0.000000 0.000000 
#    y 0.000000 1.871760 0.000000 
#    z 0.000000 0.000000 1.856550 
# 
# From -- ./inp_files/3159.got.cif
#   From: 2010.05.17/outbox.cif.g08.bks.cpg/sg137_2_cif.got.tgz:3159.got - 2010.05.20 13:01:12.
