data_PCOD9569467
_publ_section_title
;
Structure prediction by ZEFSAII (Michael W. Deem and Ramdas Pophale) SiO2 
 PCOD9569467
Probable space group: P 42/M N M
;
_chemical_formula_sum "Si O2"
_cell_formula_units_Z 72
_cell_length_a 20.987554
_cell_length_b 20.987554
_cell_length_c 10.479849
_cell_angle_alpha 90.000000
_cell_angle_beta 90.000000
_cell_angle_gamma 90.000000
_cell_volume 4616.136880
_symmetry_space_group_name_H-M "P 42/M N M"
_symmetry_group_IT_number 136
_symmetry_cell_setting 'tetragonal'
loop_
_space_group_symop_operation_xyz
x,y,z
1/2-y,1/2+x,1/2+z
-x,-y,z
1/2+y,1/2-x,1/2+z
1/2+x,1/2-y,1/2-z
1/2-x,1/2+y,1/2-z
y,x,-z
-y,-x,-z
-x,-y,-z
1/2+y,1/2-x,1/2-z
x,y,-z
1/2-y,1/2+x,1/2-z
1/2-x,1/2+y,1/2+z
1/2+x,1/2-y,1/2+z
-y,-x,z
y,x,z
loop_
_atom_site_type_symbol
_atom_site_label
_atom_site_fract_x
_atom_site_fract_y
_atom_site_fract_z
Si Si1 0.880214 0.229288 0.261463
Si Si2 0.616221 0.273442 0.000000
Si Si3 0.787089 0.897404 0.000000
Si Si4 0.553186 0.446815 0.849572
Si Si5 0.316576 0.208219 0.000000
Si Si6 0.721123 0.170458 0.000000
Si Si7 0.307106 0.527852 0.762304
O O1 0.833988 0.166013 0.265877
O O2 0.857263 0.275533 0.374877
O O3 0.868460 0.264363 0.127414
O O4 0.954460 0.213171 0.274114
O O5 0.572437 0.279448 0.125096
O O6 0.669288 0.330713 0.000000
O O7 0.654298 0.207088 0.000000
O O8 0.791690 0.940418 0.126383
O O9 0.845166 0.845166 0.000000
O O10 0.720676 0.858329 0.000000
O O11 0.500000 0.500000 0.840606
O O12 0.617347 0.469642 0.784004
O O13 0.565380 0.434621 0.000000
O O14 0.260173 0.260173 0.000000
O O15 0.773134 0.226867 0.000000
#
# Coordination Sequence:
#
# PCOD9569467 Si02
#       7
#    16   8   8   8   8   8  16
#     4  10  20  34  50  73 103 138 172 207 256 300
#     4  11  19  34  54  74  99 132 182 217 256 293
#     4  11  21  34  52  74 109 134 172 219 272 309
#     4  11  22  35  49  73 107 153 189 209 233 286
#     4   9  19  34  52  73  96 135 171 219 270 307
#     4   9  19  34  52  69  96 135 171 215 260 307
#     4  12  20  34  51  78 105 139 178 214 250 306
#
# _framework density 15.597457
#
# number of rings (size 3 to 8) (size 9 to 14) (size 15 to 20)
#    0.000    1.444    3.333    3.333    0.000    3.556 
#    0.000    2.222    0.000    0.000    0.000    0.000 
#    0.000   62.222    0.000    0.000    0.000    0.000 
#
# Total GULP energy -401748.128811 kJ/mol
# GULP energy per Si atom -5579.835122 kJ/mol
# Density = 1.556196 g / cm^3
# Si number density = 15.597457 Si / 1000 Ang^3
#
#
#
# Elastic Constant Matrix: (Units=GPa)
#
#
# Indices 1 2 3 4 5 6 
#
# 1 138.6357 19.9348 58.1573 0.0000 0.0000 0.0000
# 2 19.9348 138.6413 58.1576 0.0000 0.0000 0.0000
# 3 58.1573 58.1576 156.9914 0.0000 0.0000 0.0000
# 4 0.0000 0.0000 0.0000 21.7735 0.0000 0.0000
# 5 0.0000 0.0000 0.0000 0.0000 21.7767 0.0000
# 6 0.0000 0.0000 0.0000 0.0000 0.0000 31.8193
#
#
#
# Elastic Compliance Matrix: (Units=1/GPa)
#
#
# Indices 1 2 3 4 5 6 
#
# 1 0.008542 0.000117 -0.003208 0.000000 0.000000 0.000000
# 2 0.000117 0.008542 -0.003208 0.000000 0.000000 0.000000
# 3 -0.003208 -0.003208 0.008746 0.000000 0.000000 0.000000
# 4 0.000000 0.000000 0.000000 0.045927 0.000000 0.000000
# 5 0.000000 0.000000 0.000000 0.000000 0.045921 0.000000
# 6 0.000000 0.000000 0.000000 0.000000 0.000000 0.031427
#
#
# Mechanical properties :
#
#
# Convention : Reuss Voigt Hill
#
# Bulk Modulus (GPa) = 75.56513 78.52974 77.04744
# Shear Modulus (GPa) = 30.10000 34.94182 32.52091
#
# Velocity S-wave (km/s) = 4.39772 4.73824 4.57115
# Velocity P-wave (km/s) = 8.62200 8.96614 8.79575
#
# Compressibility (1/GPa) = 0.01323362
#
# Stress axis : x y z
#
# Youngs Moduli (GPa) = 117.06921 117.07464 114.33239
#
# Poissons Ratio (x) = -0.01375 0.36676
# Poissons Ratio (y) = -0.01375 0.36675
# Poissons Ratio (z) = 0.37554 0.37554
#
# Static dielectric constant tensor:
#      x y z
#    x 1.487810 0.000000 0.000000 
#    y 0.000000 1.487810 0.000000 
#    z 0.000000 0.000000 1.530510 
# 
# From -- ./inp_files/1676.got.cif
#   From: 2010.05.17/outbox.cif.g08.bks.cpg/sg136_1_cif.got.tgz:1676.got - 2010.05.20 12:54:53.
