data_PCOD9569903
_publ_section_title
;
Structure prediction by ZEFSAII (Michael W. Deem and Ramdas Pophale) SiO2 
 PCOD9569903
Probable space group: P 42/M N M
;
_chemical_formula_sum "Si O2"
_cell_formula_units_Z 112
_cell_length_a 15.000000
_cell_length_b 15.000000
_cell_length_c 27.000000
_cell_angle_alpha 90.000000
_cell_angle_beta 90.000000
_cell_angle_gamma 90.000000
_cell_volume 6075.000000
_symmetry_space_group_name_H-M "P 42/M N M"
_symmetry_group_IT_number 136
_symmetry_cell_setting 'tetragonal'
loop_
_space_group_symop_operation_xyz
x,y,z
1/2-y,1/2+x,1/2+z
-x,-y,z
1/2+y,1/2-x,1/2+z
1/2+x,1/2-y,1/2-z
1/2-x,1/2+y,1/2-z
y,x,-z
-y,-x,-z
-x,-y,-z
1/2+y,1/2-x,1/2-z
x,y,-z
1/2-y,1/2+x,1/2-z
1/2-x,1/2+y,1/2+z
1/2+x,1/2-y,1/2+z
-y,-x,z
y,x,z
loop_
_atom_site_type_symbol
_atom_site_label
_atom_site_fract_x
_atom_site_fract_y
_atom_site_fract_z
Si Si1 0.767197 0.017224 0.944340
Si Si2 0.353378 0.494477 0.663677
Si Si3 0.736151 0.113071 0.657667
Si Si4 0.196480 0.651693 0.055599
Si Si5 0.239929 0.088864 0.662305
Si Si6 0.175255 0.673798 0.554539
Si Si7 0.118759 0.271178 0.774071
O O1 0.703488 0.102870 0.942124
O O2 0.825084 0.016394 0.894061
O O3 0.709979 0.926761 0.942442
O O4 0.810805 0.018692 0.000000
O O5 0.428817 0.571184 0.665501
O O6 0.402366 0.402366 0.679860
O O7 0.272438 0.531874 0.698208
O O8 0.813786 0.186215 0.660887
O O9 0.697506 0.116761 0.601840
O O10 0.658443 0.145496 0.695226
O O11 0.776327 0.016268 0.666893
O O12 0.274387 0.725614 0.054598
O O13 0.211094 0.603646 0.109000
O O14 0.199887 0.606746 0.000000
O O15 0.152360 0.152360 0.661533
O O16 0.288578 0.109946 0.715044
O O17 0.134249 0.688255 0.500000
O O18 0.261779 0.738222 0.557480
O O19 0.193767 0.193767 0.778337
#
# Coordination Sequence:
#
# PCOD9569903 Si02
#       7
#    16  16  16  16  16  16  16
#     4  10  18  30  52  80 111 150 192 229 266 328
#     4  10  19  30  49  79 115 150 183 228 277 321
#     4  10  20  37  61  84 112 148 181 227 287 339
#     4   9  19  36  55  77 108 145 183 227 286 344
#     4  10  22  39  61  85 109 142 187 238 285 339
#     4   9  17  31  54  82 113 152 191 227 276 338
#     4   9  19  37  55  77 112 148 185 223 274 344
#
# _framework density 18.436214
#
# number of rings (size 3 to 8) (size 9 to 14) (size 15 to 20)
#    0.000    2.429    1.429    0.857    0.000    4.286 
#    0.000    4.286    0.000    2.571    0.000    4.000 
#    0.000    0.000    0.000    0.000    0.000    0.000 
#
# Total GULP energy -623595.171131 kJ/mol
# GULP energy per Si atom -5567.814028 kJ/mol
# Density = 1.839425 g / cm^3
# Si number density = 18.436214 Si / 1000 Ang^3
#
#
#
# Elastic Constant Matrix: (Units=GPa)
#
#
# Indices 1 2 3 4 5 6 
#
# 1 50.0696 4.3637 32.5405 0.0000 0.0000 0.0000
# 2 4.3637 50.0696 32.5405 0.0000 0.0000 0.0000
# 3 32.5405 32.5405 155.6028 0.0000 0.0000 0.0000
# 4 0.0000 0.0000 0.0000 15.8214 0.0000 0.0000
# 5 0.0000 0.0000 0.0000 0.0000 15.8214 0.0000
# 6 0.0000 0.0000 0.0000 0.0000 0.0000 9.2412
#
#
#
# Elastic Compliance Matrix: (Units=1/GPa)
#
#
# Indices 1 2 3 4 5 6 
#
# 1 0.023187 0.001308 -0.005123 0.000000 0.000000 0.000000
# 2 0.001308 0.023187 -0.005123 0.000000 0.000000 0.000000
# 3 -0.005123 -0.005123 0.008569 0.000000 0.000000 0.000000
# 4 0.000000 0.000000 0.000000 0.063205 0.000000 0.000000
# 5 0.000000 0.000000 0.000000 0.000000 0.063205 0.000000
# 6 0.000000 0.000000 0.000000 0.000000 0.000000 0.108211
#
#
# Mechanical properties :
#
#
# Convention : Reuss Voigt Hill
#
# Bulk Modulus (GPa) = 26.97591 43.84793 35.41192
# Shear Modulus (GPa) = 15.63496 20.59665 18.11580
#
# Velocity S-wave (km/s) = 2.91530 3.34606 3.13808
# Velocity P-wave (km/s) = 5.09860 6.22602 5.69030
#
# Compressibility (1/GPa) = 0.03707011
#
# Stress axis : x y z
#
# Youngs Moduli (GPa) = 43.12680 43.12680 116.69702
#
# Poissons Ratio (x) = -0.05643 0.59781
# Poissons Ratio (y) = -0.05643 0.59781
# Poissons Ratio (z) = 0.22093 0.22093
#
# Static dielectric constant tensor:
#      x y z
#    x 1.625820 0.000000 0.000000 
#    y 0.000000 1.625820 0.000000 
#    z 0.000000 0.000000 1.684420 
# 
# From -- ./inp_files/8495.got.cif
#   From: 2010.05.17/outbox.ucp.g08.bks.cvg/sg136_5_cif.got.tgz:8495.got - 2010.06.11 11:40:42.
