data_PCOD9569176
_publ_section_title
;
Structure prediction by ZEFSAII (Michael W. Deem and Ramdas Pophale) SiO2 
 PCOD9569176
Probable space group: P 42/M N M
;
_chemical_formula_sum "Si O2"
_cell_formula_units_Z 112
_cell_length_a 15.123939
_cell_length_b 15.123939
_cell_length_c 28.369561
_cell_angle_alpha 90.000000
_cell_angle_beta 90.000000
_cell_angle_gamma 90.000000
_cell_volume 6489.069857
_symmetry_space_group_name_H-M "P 42/M N M"
_symmetry_group_IT_number 136
_symmetry_cell_setting 'tetragonal'
loop_
_space_group_symop_operation_xyz
x,y,z
1/2-y,1/2+x,1/2+z
-x,-y,z
1/2+y,1/2-x,1/2+z
1/2+x,1/2-y,1/2-z
1/2-x,1/2+y,1/2-z
y,x,-z
-y,-x,-z
-x,-y,-z
1/2+y,1/2-x,1/2-z
x,y,-z
1/2-y,1/2+x,1/2-z
1/2-x,1/2+y,1/2+z
1/2+x,1/2-y,1/2+z
-y,-x,z
y,x,z
loop_
_atom_site_type_symbol
_atom_site_label
_atom_site_fract_x
_atom_site_fract_y
_atom_site_fract_z
Si Si1 0.647107 0.495764 0.771571
Si Si2 0.248081 0.394141 0.301399
Si Si3 0.452544 0.303833 0.123586
Si Si4 0.394053 0.751678 0.945974
Si Si5 0.902519 0.603882 0.763457
Si Si6 0.880749 0.574870 0.388127
Si Si7 0.415926 0.109932 0.130130
O O1 0.599014 0.400987 0.768460
O O2 0.569069 0.569069 0.771606
O O3 0.707661 0.524074 0.727355
O O4 0.693463 0.510395 0.822497
O O5 0.325004 0.325004 0.311417
O O6 0.175843 0.351989 0.265622
O O7 0.194062 0.414617 0.348566
O O8 0.387907 0.387907 0.117245
O O9 0.533989 0.296093 0.087528
O O10 0.401464 0.211003 0.116112
O O11 0.305416 0.694585 0.943338
O O12 0.374659 0.850615 0.927819
O O13 0.425435 0.753060 0.000000
O O14 0.884000 0.499022 0.757857
O O15 0.903101 0.624669 0.818251
O O16 0.883484 0.471375 0.401973
O O17 0.977786 0.595637 0.366047
#
# Coordination Sequence:
#
# PCOD9569176 Si02
#       7
#    16  16  16  16  16  16  16
#     4   9  18  31  45  66 102 144 178 208 249 311
#     4  11  20  29  47  74 103 137 181 223 265 316
#     4  10  20  34  54  78 109 147 183 219 267 329
#     4  10  22  39  59  82 107 138 182 233 280 330
#     4  11  17  29  46  66  96 136 175 216 259 306
#     4  10  19  35  52  75 101 136 175 227 278 318
#     4  10  18  31  52  72 102 137 173 218 263 316
#
# _framework density 17.259792000000001
#
# number of rings (size 3 to 8) (size 9 to 14) (size 15 to 20)
#    0.000    1.857    4.286    1.714    0.000    1.143 
#    0.000    9.286    0.000    0.000    0.000    0.000 
#    0.000    1.714    0.000   10.143    0.000    0.000 
#
# Total GULP energy -624008.439615 kJ/mol
# GULP energy per Si atom -5571.503925 kJ/mol
# Density = 1.722051 g / cm^3
# Si number density = 17.259792 Si / 1000 Ang^3
#
#
#
# Elastic Constant Matrix: (Units=GPa)
#
#
# Indices 1 2 3 4 5 6 
#
# 1 79.2791 30.2526 26.6837 0.0000 0.0000 0.0000
# 2 30.2526 79.2791 26.6837 0.0000 0.0000 0.0000
# 3 26.6837 26.6837 65.0866 0.0000 0.0000 0.0000
# 4 0.0000 0.0000 0.0000 17.3424 0.0000 0.0000
# 5 0.0000 0.0000 0.0000 0.0000 17.3424 0.0000
# 6 0.0000 0.0000 0.0000 0.0000 0.0000 13.2925
#
#
#
# Elastic Compliance Matrix: (Units=1/GPa)
#
#
# Indices 1 2 3 4 5 6 
#
# 1 0.015903 -0.004494 -0.004677 0.000000 0.000000 0.000000
# 2 -0.004494 0.015903 -0.004677 0.000000 0.000000 0.000000
# 3 -0.004677 -0.004677 0.019199 0.000000 0.000000 0.000000
# 4 0.000000 0.000000 0.000000 0.057662 0.000000 0.000000
# 5 0.000000 0.000000 0.000000 0.000000 0.057662 0.000000
# 6 0.000000 0.000000 0.000000 0.000000 0.000000 0.075230
#
#
# Mechanical properties :
#
#
# Convention : Reuss Voigt Hill
#
# Bulk Modulus (GPa) = 42.90440 43.43162 43.16801
# Shear Modulus (GPa) = 18.04885 18.93046 18.48966
#
# Velocity S-wave (km/s) = 3.23726 3.31538 3.27656
# Velocity P-wave (km/s) = 6.23579 6.31457 6.27531
#
# Compressibility (1/GPa) = 0.02330763
#
# Stress axis : x y z
#
# Youngs Moduli (GPa) = 62.88158 62.88158 52.08545
#
# Poissons Ratio (x) = 0.28260 0.24362
# Poissons Ratio (y) = 0.28260 0.24362
# Poissons Ratio (z) = 0.29411 0.29411
#
# Static dielectric constant tensor:
#      x y z
#    x 1.624650 0.000000 0.000000 
#    y 0.000000 1.624650 0.000000 
#    z 0.000000 0.000000 1.567720 
# 
# From -- ./inp_files/9975.got.cif
#   From: 2010.05.17/outbox.cif.g08.bks.cpg/sg136_5_cif.got.tgz:9975.got - 2010.05.20 12:54:53.
