data_PCOD9569978
_publ_section_title
;
Structure prediction by ZEFSAII (Michael W. Deem and Ramdas Pophale) SiO2 
 PCOD9569978
Probable space group: P 42/N M C
;
_chemical_formula_sum "Si O2"
_cell_formula_units_Z 96
_cell_length_a 14.450673
_cell_length_b 14.450673
_cell_length_c 26.618241
_cell_angle_alpha 90.000000
_cell_angle_beta 90.000000
_cell_angle_gamma 90.000000
_cell_volume 5558.472995
_symmetry_space_group_name_H-M "P 42/N M C"
_symmetry_group_IT_number 137
_space_group.IT_coordinate_system_code '2'
_symmetry_cell_setting 'tetragonal'
loop_
_space_group_symop_operation_xyz
x,y,z
1/2-y,x,1/2+z
1/2-x,1/2-y,z
y,1/2-x,1/2+z
1/2+x,-y,-z
-x,1/2+y,-z
1/2+y,1/2+x,1/2-z
-y,-x,1/2-z
-x,-y,-z
1/2+y,-x,1/2-z
1/2+x,1/2+y,-z
-y,1/2+x,1/2-z
1/2-x,y,z
x,1/2-y,z
1/2-y,1/2-x,1/2+z
y,x,1/2+z
loop_
_atom_site_type_symbol
_atom_site_label
_atom_site_fract_x
_atom_site_fract_y
_atom_site_fract_z
Si Si1 0.250000 0.357666 0.332732
Si Si2 0.408768 0.988238 0.672455
Si Si3 0.645162 0.557367 0.221533
Si Si4 0.250000 0.965198 0.531729
Si Si5 0.250000 0.082261 0.442904
Si Si6 0.750000 0.141828 0.374529
Si Si7 0.963707 0.945770 0.931816
Si Si8 0.046944 0.355643 0.471785
O O1 0.250000 0.250000 0.350465
O O2 0.340060 0.370556 0.298811
O O3 0.250000 0.419405 0.382757
O O4 0.491330 0.927804 0.694841
O O5 0.336637 0.914313 0.648716
O O6 0.443357 0.053160 0.627246
O O7 0.365536 0.044193 0.718741
O O8 0.750000 0.529851 0.207697
O O9 0.250000 0.871636 0.564609
O O10 0.158917 0.016817 0.550934
O O11 0.250000 0.982685 0.471888
O O12 0.343475 0.134273 0.460499
O O13 0.750000 0.250000 0.361690
O O14 0.060611 0.000008 0.940705
O O15 0.884961 0.977671 0.970704
O O16 0.018274 0.250000 0.460631
#
# Coordination Sequence:
#
# PCOD9569978 Si02
#       8
#     8  16  16   8   8   8  16  16
#     4  10  20  32  50  72  98 128 172 223 267 298
#     4  10  19  33  50  70 103 136 171 211 250 305
#     4  10  20  34  49  71  99 132 173 217 256 299
#     4   8  18  32  48  70 104 131 166 205 245 308
#     4  10  18  32  52  74  98 128 168 219 258 302
#     4  10  18  30  50  77 107 146 176 202 245 312
#     4   9  19  33  49  72 101 134 166 205 252 302
#     4  10  19  32  51  75 102 130 169 208 252 308
#
# _framework density 17.270931000000001
#
# number of rings (size 3 to 8) (size 9 to 14) (size 15 to 20)
#    0.000    2.333    0.833    2.250    0.000    4.667 
#    1.500    0.000    0.000    0.000    0.000    0.000 
#    0.000    0.000    0.000    0.000    0.000    0.000 
#
# Total GULP energy -534467.749639 kJ/mol
# GULP energy per Si atom -5567.372392 kJ/mol
# Density = 1.723162 g / cm^3
# Si number density = 17.270931 Si / 1000 Ang^3
#
#
#
# Elastic Constant Matrix: (Units=GPa)
#
#
# Indices 1 2 3 4 5 6 
#
# 1 56.4715 15.8725 24.7808 0.0000 0.0000 0.0000
# 2 15.8725 56.4715 24.7808 0.0000 0.0000 0.0000
# 3 24.7808 24.7808 110.3694 0.0000 0.0000 0.0000
# 4 0.0000 0.0000 0.0000 21.2771 0.0000 0.0000
# 5 0.0000 0.0000 0.0000 0.0000 21.2771 0.0000
# 6 0.0000 0.0000 0.0000 0.0000 0.0000 14.9413
#
#
#
# Elastic Compliance Matrix: (Units=1/GPa)
#
#
# Indices 1 2 3 4 5 6 
#
# 1 0.020483 -0.004148 -0.003668 0.000000 0.000000 0.000000
# 2 -0.004148 0.020483 -0.003668 0.000000 0.000000 0.000000
# 3 -0.003668 -0.003668 0.010707 0.000000 0.000000 0.000000
# 4 0.000000 0.000000 0.000000 0.046999 0.000000 0.000000
# 5 0.000000 0.000000 0.000000 0.000000 0.046999 0.000000
# 6 0.000000 0.000000 0.000000 0.000000 0.000000 0.066929
#
#
# Mechanical properties :
#
#
# Convention : Reuss Voigt Hill
#
# Bulk Modulus (GPa) = 34.83400 39.35341 37.09371
# Shear Modulus (GPa) = 20.39679 22.02430 21.21055
#
# Velocity S-wave (km/s) = 3.44028 3.57490 3.50824
# Velocity P-wave (km/s) = 5.99947 6.31469 6.15910
#
# Compressibility (1/GPa) = 0.02870758
#
# Stress axis : x y z
#
# Youngs Moduli (GPa) = 48.82017 48.82017 93.39249
#
# Poissons Ratio (x) = 0.20250 0.34254
# Poissons Ratio (y) = 0.20250 0.34254
# Poissons Ratio (z) = 0.17906 0.17906
#
# Static dielectric constant tensor:
#      x y z
#    x 1.584760 0.000000 0.000000 
#    y 0.000000 1.584760 0.000000 
#    z 0.000000 0.000000 1.636040 
# 
# From -- ./inp_files/9727.got.cif
#   From: 2010.05.17/outbox.cif.g08.bks.cpg/sg137_5_cif.got.tgz:9727.got - 2010.05.20 13:01:12.
