data_PCOD9569806
_publ_section_title
;
Structure prediction by ZEFSAII (Michael W. Deem and Ramdas Pophale) SiO2 
 PCOD9569806
Probable space group: P 42/M N M
;
_chemical_formula_sum "Si O2"
_cell_formula_units_Z 64
_cell_length_a 16.017670
_cell_length_b 16.017670
_cell_length_c 14.376740
_cell_angle_alpha 90.000000
_cell_angle_beta 90.000000
_cell_angle_gamma 90.000000
_cell_volume 3688.579113
_symmetry_space_group_name_H-M "P 42/M N M"
_symmetry_group_IT_number 136
_symmetry_cell_setting 'tetragonal'
loop_
_space_group_symop_operation_xyz
x,y,z
1/2-y,1/2+x,1/2+z
-x,-y,z
1/2+y,1/2-x,1/2+z
1/2+x,1/2-y,1/2-z
1/2-x,1/2+y,1/2-z
y,x,-z
-y,-x,-z
-x,-y,-z
1/2+y,1/2-x,1/2-z
x,y,-z
1/2-y,1/2+x,1/2-z
1/2-x,1/2+y,1/2+z
1/2+x,1/2-y,1/2+z
-y,-x,z
y,x,z
loop_
_atom_site_type_symbol
_atom_site_label
_atom_site_fract_x
_atom_site_fract_y
_atom_site_fract_z
Si Si1 0.755242 0.895755 0.262659
Si Si2 0.360983 0.495913 0.105364
Si Si3 0.927320 0.620636 0.889943
Si Si4 0.617211 0.937638 0.609374
O O1 0.821965 0.821965 0.254251
O O2 0.703300 0.909219 0.168522
O O3 0.682619 0.880571 0.337821
O O4 0.802302 0.974951 0.310428
O O5 0.433070 0.566931 0.102172
O O6 0.408504 0.408504 0.120208
O O7 0.323348 0.494769 0.000000
O O8 0.879858 0.535258 0.859611
O O9 0.023965 0.595732 0.876595
O O10 0.912297 0.632307 0.000000
O O11 0.632785 0.937117 0.500000
#
# Coordination Sequence:
#
# PCOD9569806 Si02
#       4
#    16  16  16  16
#     4  11  20  29  49  79 107 132 159 201 255 302
#     4   8  15  29  47  67  95 132 170 202 233 278
#     4   9  19  36  55  72  94 130 171 206 243 294
#     4   9  18  35  57  74  91 124 171 214 248 289
#
# _framework density 17.350854000000002
#
# number of rings (size 3 to 8) (size 9 to 14) (size 15 to 20)
#    0.000    2.750    0.000    4.500    0.000    4.000 
#    0.000    5.000    0.000    3.750    0.000    3.500 
#    0.000    0.000    0.000    0.000    0.000    0.000 
#
# Total GULP energy -356335.182542 kJ/mol
# GULP energy per Si atom -5567.737227 kJ/mol
# Density = 1.731136 g / cm^3
# Si number density = 17.350854 Si / 1000 Ang^3
#
#
#
# Elastic Constant Matrix: (Units=GPa)
#
#
# Indices 1 2 3 4 5 6 
#
# 1 85.7496 43.2208 50.8171 0.0000 0.0000 0.0000
# 2 43.2208 85.7496 50.8171 0.0000 0.0000 0.0000
# 3 50.8171 50.8171 105.6991 0.0000 0.0000 0.0000
# 4 0.0000 0.0000 0.0000 -186.6570 0.0000 0.0000
# 5 0.0000 0.0000 0.0000 0.0000 -186.6570 0.0000
# 6 0.0000 0.0000 0.0000 0.0000 0.0000 15.3438
#
#
#
# Elastic Compliance Matrix: (Units=1/GPa)
#
#
# Indices 1 2 3 4 5 6 
#
# 1 0.017998 -0.005515 -0.006002 0.000000 0.000000 0.000000
# 2 -0.005515 0.017998 -0.006002 0.000000 0.000000 0.000000
# 3 -0.006002 -0.006002 0.015232 0.000000 0.000000 0.000000
# 4 0.000000 0.000000 0.000000 -0.005357 0.000000 0.000000
# 5 0.000000 0.000000 0.000000 0.000000 -0.005357 0.000000
# 6 0.000000 0.000000 0.000000 0.000000 0.000000 0.065173
#
#
# Mechanical properties :
#
#
# Convention : Reuss Voigt Hill
#
# Bulk Modulus (GPa) = 61.75995 62.98982 62.37488
# Shear Modulus (GPa) = 34.21842 -62.77117 -14.27638
#
# Velocity S-wave (km/s) = 4.44570 -6.02130 -2.87157
# Velocity P-wave (km/s) = 7.87556 3.45819 5.00327
#
# Compressibility (1/GPa) = 0.01619172
#
# Stress axis : x y z
#
# Youngs Moduli (GPa) = 55.56066 55.56066 65.65295
#
# Poissons Ratio (x) = 0.30642 0.39402
# Poissons Ratio (y) = 0.30642 0.39402
# Poissons Ratio (z) = 0.33345 0.33345
#
# Static dielectric constant tensor:
#      x y z
#    x 1.604760 0.000000 0.000000 
#    y 0.000000 1.604760 0.000000 
#    z 0.000000 0.000000 1.612570 
# 
# From -- ./inp_files/4701.got.cif
#   From: 2010.05.17/outbox.cif.g08.bks.cpg/sg136_3_cif.got.tgz:4701.got - 2010.05.20 12:54:53.
