data_PCOD9569265
_publ_section_title
;
Structure prediction by ZEFSAII (Michael W. Deem and Ramdas Pophale) SiO2 
 PCOD9569265
Probable space group: P 42/M N M
;
_chemical_formula_sum "Si O2"
_cell_formula_units_Z 80
_cell_length_a 15.093557
_cell_length_b 15.093557
_cell_length_c 19.172338
_cell_angle_alpha 90.000000
_cell_angle_beta 90.000000
_cell_angle_gamma 90.000000
_cell_volume 4367.755057
_symmetry_space_group_name_H-M "P 42/M N M"
_symmetry_group_IT_number 136
_symmetry_cell_setting 'tetragonal'
loop_
_space_group_symop_operation_xyz
x,y,z
1/2-y,1/2+x,1/2+z
-x,-y,z
1/2+y,1/2-x,1/2+z
1/2+x,1/2-y,1/2-z
1/2-x,1/2+y,1/2-z
y,x,-z
-y,-x,-z
-x,-y,-z
1/2+y,1/2-x,1/2-z
x,y,-z
1/2-y,1/2+x,1/2-z
1/2-x,1/2+y,1/2+z
1/2+x,1/2-y,1/2+z
-y,-x,z
y,x,z
loop_
_atom_site_type_symbol
_atom_site_label
_atom_site_fract_x
_atom_site_fract_y
_atom_site_fract_z
Si Si1 0.647550 0.502544 0.646056
Si Si2 0.070375 0.217816 0.280079
Si Si3 0.373383 0.776728 0.079987
Si Si4 0.014581 0.664571 0.920502
Si Si5 0.610610 0.928059 0.215938
O O1 0.582456 0.417545 0.639319
O O2 0.588115 0.588115 0.632233
O O3 0.686476 0.503900 0.725192
O O4 0.731989 0.497870 0.596017
O O5 0.135317 0.135317 0.284349
O O6 0.058052 0.246798 0.360108
O O7 0.118598 0.299947 0.240558
O O8 0.284778 0.715222 0.087735
O O9 0.352475 0.880572 0.090738
O O10 0.403725 0.765113 0.000000
O O11 0.956087 0.611681 0.864325
O O12 0.993131 0.642429 0.000000
O O13 0.520926 0.884128 0.241095
#
# Coordination Sequence:
#
# PCOD9569265 Si02
#       5
#    16  16  16  16  16
#     4   9  18  31  48  72 102 133 163 197 241 296
#     4   9  17  31  49  69  94 129 168 203 241 290
#     4   9  16  27  45  69  94 121 158 204 244 278
#     4  10  19  31  48  72 100 127 160 199 243 294
#     4  10  19  33  49  69  98 130 163 201 243 293
#
# _framework density 18.316044999999999
#
# number of rings (size 3 to 8) (size 9 to 14) (size 15 to 20)
#    0.000    2.600    2.000    0.600    0.000    1.600 
#    0.000    4.000    0.000    0.600    0.000    4.200 
#    0.000    3.600    0.000    0.200    0.000    0.000 
#
# Total GULP energy -445405.575327 kJ/mol
# GULP energy per Si atom -5567.569692 kJ/mol
# Density = 1.827436 g / cm^3
# Si number density = 18.316045 Si / 1000 Ang^3
#
#
#
# Elastic Constant Matrix: (Units=GPa)
#
#
# Indices 1 2 3 4 5 6 
#
# 1 18.1151 -10.5907 1.0200 0.0000 0.0000 0.0000
# 2 -10.5907 18.1151 1.0200 0.0000 0.0000 0.0000
# 3 1.0200 1.0200 116.6197 0.0000 0.0000 0.0000
# 4 0.0000 0.0000 0.0000 20.2524 0.0000 0.0000
# 5 0.0000 0.0000 0.0000 0.0000 20.2524 0.0000
# 6 0.0000 0.0000 0.0000 0.0000 0.0000 6.1328
#
#
#
# Elastic Compliance Matrix: (Units=1/GPa)
#
#
# Indices 1 2 3 4 5 6 
#
# 1 0.084027 0.049191 -0.001165 0.000000 0.000000 0.000000
# 2 0.049191 0.084027 -0.001165 0.000000 0.000000 0.000000
# 3 -0.001165 -0.001165 0.008595 0.000000 0.000000 0.000000
# 4 0.000000 0.000000 0.000000 0.049377 0.000000 0.000000
# 5 0.000000 0.000000 0.000000 0.000000 0.049377 0.000000
# 6 0.000000 0.000000 0.000000 0.000000 0.000000 0.163057
#
#
# Mechanical properties :
#
#
# Convention : Reuss Voigt Hill
#
# Bulk Modulus (GPa) = 3.69864 15.08317 9.39091
# Shear Modulus (GPa) = 11.49789 20.08755 15.79272
#
# Velocity S-wave (km/s) = 2.50821 3.31527 2.93957
# Velocity P-wave (km/s) = 3.22675 4.78618 4.08163
#
# Compressibility (1/GPa) = 0.27036939
#
# Stress axis : x y z
#
# Youngs Moduli (GPa) = 11.90096 11.90096 116.34317
#
# Poissons Ratio (x) = -0.58542 0.13556
# Poissons Ratio (y) = -0.58542 0.13556
# Poissons Ratio (z) = 0.01387 0.01387
#
# Static dielectric constant tensor:
#      x y z
#    x 1.658370 0.000000 0.000000 
#    y 0.000000 1.658370 0.000000 
#    z 0.000000 0.000000 1.663990 
# 
# From -- ./inp_files/4873.got.cif
#   From: 2010.05.17/outbox.cif.g08.bks.cpg/sg136_3_cif.got.tgz:4873.got - 2010.05.20 12:54:53.
