data_PCOD9569811
_publ_section_title
;
Structure prediction by ZEFSAII (Michael W. Deem and Ramdas Pophale) SiO2 
 PCOD9569811
Probable space group: P 42/M N M
;
_chemical_formula_sum "Si O2"
_cell_formula_units_Z 56
_cell_length_a 19.897347
_cell_length_b 19.897347
_cell_length_c 8.469351
_cell_angle_alpha 90.000000
_cell_angle_beta 90.000000
_cell_angle_gamma 90.000000
_cell_volume 3353.053475
_symmetry_space_group_name_H-M "P 42/M N M"
_symmetry_group_IT_number 136
_symmetry_cell_setting 'tetragonal'
loop_
_space_group_symop_operation_xyz
x,y,z
1/2-y,1/2+x,1/2+z
-x,-y,z
1/2+y,1/2-x,1/2+z
1/2+x,1/2-y,1/2-z
1/2-x,1/2+y,1/2-z
y,x,-z
-y,-x,-z
-x,-y,-z
1/2+y,1/2-x,1/2-z
x,y,-z
1/2-y,1/2+x,1/2-z
1/2-x,1/2+y,1/2+z
1/2+x,1/2-y,1/2+z
-y,-x,z
y,x,z
loop_
_atom_site_type_symbol
_atom_site_label
_atom_site_fract_x
_atom_site_fract_y
_atom_site_fract_z
Si Si1 0.444923 0.444923 0.810499
Si Si2 0.262623 0.626646 0.809299
Si Si3 0.519993 0.703641 0.310797
Si Si4 0.233274 0.343572 0.692047
O O1 0.500000 0.500000 0.758637
O O2 0.371367 0.465284 0.750344
O O3 0.444105 0.444105 0.000000
O O4 0.325453 0.674548 0.764122
O O5 0.271607 0.552510 0.744163
O O6 0.195252 0.666028 0.756884
O O7 0.262259 0.623621 0.000000
O O8 0.521689 0.701743 0.500000
O O9 0.581043 0.751629 0.254814
O O10 0.231933 0.343884 0.500000
O O11 0.295984 0.295984 0.737738
#
# Coordination Sequence:
#
# PCOD9569811 Si02
#       4
#     8  16  16  16
#     4  11  23  35  47  69 105 143 171 194 241 312
#     4   9  18  33  52  71  97 133 169 200 243 305
#     4  11  20  32  52  76 101 128 166 212 256 291
#     4   8  15  31  52  70  92 130 170 201 243 299
#
# _framework density 16.701195999999999
#
# number of rings (size 3 to 8) (size 9 to 14) (size 15 to 20)
#    0.000    2.429    1.429    3.857    0.000    5.143 
#    0.000    2.857    0.000    0.857    0.000    6.000 
#    0.000    0.000    0.000    0.000    0.000    0.000 
#
# Total GULP energy -312279.685347 kJ/mol
# GULP energy per Si atom -5576.422953 kJ/mol
# Density = 1.666318 g / cm^3
# Si number density = 16.701196 Si / 1000 Ang^3
#
#
#
# Elastic Constant Matrix: (Units=GPa)
#
#
# Indices 1 2 3 4 5 6 
#
# 1 146.3035 120.6750 27.7764 0.0000 0.0000 0.0000
# 2 120.6750 146.3035 27.7764 0.0000 0.0000 0.0000
# 3 27.7764 27.7764 18.7589 0.0000 0.0000 0.0000
# 4 0.0000 0.0000 0.0000 105.7331 0.0000 0.0000
# 5 0.0000 0.0000 0.0000 0.0000 105.7331 0.0000
# 6 0.0000 0.0000 0.0000 0.0000 0.0000 24.9581
#
#
#
# Elastic Compliance Matrix: (Units=1/GPa)
#
#
# Indices 1 2 3 4 5 6 
#
# 1 0.022216 -0.016803 -0.008016 0.000000 0.000000 0.000000
# 2 -0.016803 0.022216 -0.008016 0.000000 0.000000 0.000000
# 3 -0.008016 -0.008016 0.077047 0.000000 0.000000 0.000000
# 4 0.000000 0.000000 0.000000 0.009458 0.000000 0.000000
# 5 0.000000 0.000000 0.000000 0.000000 0.009458 0.000000
# 6 0.000000 0.000000 0.000000 0.000000 0.000000 0.040067
#
#
# Mechanical properties :
#
#
# Convention : Reuss Voigt Hill
#
# Bulk Modulus (GPa) = 17.91794 73.75795 45.83794
# Shear Modulus (GPa) = 18.88687 56.29408 37.59048
#
# Velocity S-wave (km/s) = 3.36649 5.81204 4.74937
# Velocity P-wave (km/s) = 5.08555 9.44981 7.58820
#
# Compressibility (1/GPa) = 0.05580999
#
# Stress axis : x y z
#
# Youngs Moduli (GPa) = 45.01202 45.01202 12.97917
#
# Poissons Ratio (x) = 0.75632 0.10404
# Poissons Ratio (y) = 0.75632 0.10404
# Poissons Ratio (z) = 0.36081 0.36081
#
# Static dielectric constant tensor:
#      x y z
#    x 1.558550 0.000000 0.000000 
#    y 0.000000 1.558550 0.000000 
#    z 0.000000 0.000000 1.577420 
# 
# From -- ./inp_files/1108.got.cif
#   From: 2010.05.17/outbox.cif.g08.bks.cpg/sg136_1_cif.got.tgz:1108.got - 2010.05.20 12:54:53.
