data_PCOD9569330
_publ_section_title
;
Structure prediction by ZEFSAII (Michael W. Deem and Ramdas Pophale) SiO2 
 PCOD9569330
Probable space group: P 42/M N M
;
_chemical_formula_sum "Si O2"
_cell_formula_units_Z 96
_cell_length_a 22.089264
_cell_length_b 22.089264
_cell_length_c 10.755742
_cell_angle_alpha 90.000000
_cell_angle_beta 90.000000
_cell_angle_gamma 90.000000
_cell_volume 5248.109255
_symmetry_space_group_name_H-M "P 42/M N M"
_symmetry_group_IT_number 136
_symmetry_cell_setting 'tetragonal'
loop_
_space_group_symop_operation_xyz
x,y,z
1/2-y,1/2+x,1/2+z
-x,-y,z
1/2+y,1/2-x,1/2+z
1/2+x,1/2-y,1/2-z
1/2-x,1/2+y,1/2-z
y,x,-z
-y,-x,-z
-x,-y,-z
1/2+y,1/2-x,1/2-z
x,y,-z
1/2-y,1/2+x,1/2-z
1/2-x,1/2+y,1/2+z
1/2+x,1/2-y,1/2+z
-y,-x,z
y,x,z
loop_
_atom_site_type_symbol
_atom_site_label
_atom_site_fract_x
_atom_site_fract_y
_atom_site_fract_z
Si Si1 0.952093 0.780214 0.141682
Si Si2 0.630426 0.087198 0.634815
Si Si3 0.232887 0.331643 0.235393
Si Si4 0.256498 0.642357 0.862639
Si Si5 0.074936 0.829006 0.850882
Si Si6 0.147488 0.498690 0.366243
O O1 0.902608 0.767164 0.247059
O O2 0.990953 0.718927 0.132243
O O3 0.003962 0.827547 0.181837
O O4 0.928861 0.792819 0.000000
O O5 0.634855 0.056493 0.500000
O O6 0.685297 0.135232 0.645589
O O7 0.565806 0.120059 0.641713
O O8 0.632379 0.041868 0.749415
O O9 0.278204 0.278204 0.187919
O O10 0.188259 0.298915 0.334051
O O11 0.276115 0.383622 0.291583
O O12 0.315308 0.684693 0.867108
O O13 0.248031 0.613992 0.000000
O O14 0.108718 0.891283 0.818459
O O15 0.077786 0.821310 0.000000
O O16 0.128487 0.471844 0.500000
#
# Coordination Sequence:
#
# PCOD9569330 Si02
#       6
#    16  16  16  16  16  16
#     4  10  19  34  55  80 109 141 176 219 271 320
#     4  11  23  39  56  79 109 143 185 226 270 319
#     4  10  19  33  53  80 113 143 172 215 272 326
#     4  10  21  35  54  82 112 144 183 221 262 320
#     4   9  17  31  53  79 106 137 174 216 263 319
#     4  10  22  39  56  78 108 143 186 229 269 319
#
# _framework density 18.292300999999998
#
# number of rings (size 3 to 8) (size 9 to 14) (size 15 to 20)
#    0.000    2.000    3.333    0.500    0.000    5.000 
#    0.000    3.333    0.000    1.000    0.000    3.500 
#    0.000    0.000    0.000    0.000    0.000    0.000 
#
# Total GULP energy -534641.139643 kJ/mol
# GULP energy per Si atom -5569.178538 kJ/mol
# Density = 1.825067 g / cm^3
# Si number density = 18.292301 Si / 1000 Ang^3
#
#
#
# Elastic Constant Matrix: (Units=GPa)
#
#
# Indices 1 2 3 4 5 6 
#
# 1 35.4010 -11.1906 19.0787 0.0000 0.0000 0.0000
# 2 -11.1906 35.4010 19.0787 0.0000 0.0000 0.0000
# 3 19.0787 19.0787 101.2246 0.0000 0.0000 0.0000
# 4 0.0000 0.0000 0.0000 24.6856 0.0000 0.0000
# 5 0.0000 0.0000 0.0000 0.0000 24.6856 0.0000
# 6 0.0000 0.0000 0.0000 0.0000 0.0000 19.0998
#
#
#
# Elastic Compliance Matrix: (Units=1/GPa)
#
#
# Indices 1 2 3 4 5 6 
#
# 1 0.040111 0.018648 -0.011075 0.000000 0.000000 0.000000
# 2 0.018648 0.040111 -0.011075 0.000000 0.000000 0.000000
# 3 -0.011075 -0.011075 0.014054 0.000000 0.000000 0.000000
# 4 0.000000 0.000000 0.000000 0.040509 0.000000 0.000000
# 5 0.000000 0.000000 0.000000 0.000000 0.040509 0.000000
# 6 0.000000 0.000000 0.000000 0.000000 0.000000 0.052357
#
#
# Mechanical properties :
#
#
# Convention : Reuss Voigt Hill
#
# Bulk Modulus (GPa) = 11.45833 25.10671 18.28252
# Shear Modulus (GPa) = 18.95763 23.36484 21.16123
#
# Velocity S-wave (km/s) = 3.22277 3.57782 3.40492
# Velocity P-wave (km/s) = 4.48619 5.55183 5.04721
#
# Compressibility (1/GPa) = 0.08727272
#
# Stress axis : x y z
#
# Youngs Moduli (GPa) = 24.93072 24.93072 71.15522
#
# Poissons Ratio (x) = -0.46491 0.78804
# Poissons Ratio (y) = -0.46491 0.78804
# Poissons Ratio (z) = 0.27610 0.27610
#
# Static dielectric constant tensor:
#      x y z
#    x 1.648390 0.000000 0.000000 
#    y 0.000000 1.648390 0.000000 
#    z 0.000000 0.000000 1.677370 
# 
# From -- ./inp_files/1971.got.cif
#   From: 2010.05.17/outbox.cif.g08.bks.cpg/sg136_1_cif.got.tgz:1971.got - 2010.05.20 12:54:53.
