data_PCOD9569575
_publ_section_title
;
Structure prediction by ZEFSAII (Michael W. Deem and Ramdas Pophale) SiO2 
 PCOD9569575
Probable space group: P 42/M N M
;
_chemical_formula_sum "Si O2"
_cell_formula_units_Z 72
_cell_length_a 19.997090
_cell_length_b 19.997090
_cell_length_c 7.664799
_cell_angle_alpha 90.000000
_cell_angle_beta 90.000000
_cell_angle_gamma 90.000000
_cell_volume 3065.027482
_symmetry_space_group_name_H-M "P 42/M N M"
_symmetry_group_IT_number 136
_symmetry_cell_setting 'tetragonal'
loop_
_space_group_symop_operation_xyz
x,y,z
1/2-y,1/2+x,1/2+z
-x,-y,z
1/2+y,1/2-x,1/2+z
1/2+x,1/2-y,1/2-z
1/2-x,1/2+y,1/2-z
y,x,-z
-y,-x,-z
-x,-y,-z
1/2+y,1/2-x,1/2-z
x,y,-z
1/2-y,1/2+x,1/2-z
1/2-x,1/2+y,1/2+z
1/2+x,1/2-y,1/2+z
-y,-x,z
y,x,z
loop_
_atom_site_type_symbol
_atom_site_label
_atom_site_fract_x
_atom_site_fract_y
_atom_site_fract_z
Si Si1 0.852533 0.704099 0.693955
Si Si2 0.024075 0.203782 0.793044
Si Si3 0.123863 0.771493 0.787588
Si Si4 0.945472 0.945472 0.785786
Si Si5 0.926400 0.576817 0.202200
O O1 0.837538 0.728725 0.500000
O O2 0.907024 0.755193 0.770007
O O3 0.783843 0.677177 0.778820
O O4 0.892200 0.634708 0.692250
O O5 0.034956 0.128768 0.725906
O O6 0.953239 0.234225 0.725831
O O7 0.013726 0.199092 0.000000
O O8 0.155900 0.844101 0.750850
O O9 0.123841 0.763209 0.000000
O O10 0.944145 0.944145 0.000000
O O11 0.000000 0.000000 0.733904
O O12 0.912311 0.505567 0.285904
O O13 0.905935 0.577972 0.000000
#
# Coordination Sequence:
#
# PCOD9569575 Si02
#       5
#    16  16  16   8  16
#     4  11  22  35  55  82 116 156 201 246 297 359
#     4  10  20  36  60  88 118 152 197 253 314 375
#     4   9  19  36  58  82 111 153 201 245 296 365
#     4   9  18  34  61  93 119 147 195 260 325 384
#     4  11  21  35  55  80 114 153 199 246 296 352
#
# _framework density 23.490817
#
# number of rings (size 3 to 8) (size 9 to 14) (size 15 to 20)
#    0.000    1.889    0.000    5.333    1.556    4.444 
#    0.000    1.111    0.000    6.000    0.000    0.000 
#    0.000    0.000    0.000    0.000    0.000    0.000 
#
# Total GULP energy -401878.119819 kJ/mol
# GULP energy per Si atom -5581.640553 kJ/mol
# Density = 2.343735 g / cm^3
# Si number density = 23.490817 Si / 1000 Ang^3
#
#
#
# Elastic Constant Matrix: (Units=GPa)
#
#
# Indices 1 2 3 4 5 6 
#
# 1 210.8585 -7.2079 0.6444 0.0000 0.0000 0.0000
# 2 -7.2079 210.8585 0.6444 0.0000 0.0000 0.0000
# 3 0.6444 0.6444 63.1646 0.0000 0.0000 0.0000
# 4 0.0000 0.0000 0.0000 3.9511 0.0000 0.0000
# 5 0.0000 0.0000 0.0000 0.0000 3.9511 0.0000
# 6 0.0000 0.0000 0.0000 0.0000 0.0000 65.3990
#
#
#
# Elastic Compliance Matrix: (Units=1/GPa)
#
#
# Indices 1 2 3 4 5 6 
#
# 1 0.004748 0.000162 -0.000050 0.000000 0.000000 0.000000
# 2 0.000162 0.004748 -0.000050 0.000000 0.000000 0.000000
# 3 -0.000050 -0.000050 0.015833 0.000000 0.000000 0.000000
# 4 0.000000 0.000000 0.000000 0.253092 0.000000 0.000000
# 5 0.000000 0.000000 0.000000 0.000000 0.253092 0.000000
# 6 0.000000 0.000000 0.000000 0.000000 0.000000 0.015291
#
#
# Mechanical properties :
#
#
# Convention : Reuss Voigt Hill
#
# Bulk Modulus (GPa) = 39.28708 52.56036 45.92372
# Shear Modulus (GPa) = 9.00634 47.38030 28.19332
#
# Velocity S-wave (km/s) = 1.96018 4.49594 3.46813
# Velocity P-wave (km/s) = 4.67801 7.02672 5.96903
#
# Compressibility (1/GPa) = 0.02545366
#
# Stress axis : x y z
#
# Youngs Moduli (GPa) = 210.60508 210.60508 63.16053
#
# Poissons Ratio (x) = -0.03422 0.00316
# Poissons Ratio (y) = -0.03422 0.00316
# Poissons Ratio (z) = 0.01055 0.01055
#
# Static dielectric constant tensor:
#      x y z
#    x 1.893310 0.000000 0.000000 
#    y 0.000000 1.893310 0.000000 
#    z 0.000000 0.000000 1.907990 
# 
# From -- ./inp_files/1553.got.cif
#   From: 2010.05.17/outbox.cif.g08.bks.cpg/sg136_1_cif.got.tgz:1553.got - 2010.05.20 12:54:53.
