data_PCOD9569950
_publ_section_title
;
Structure prediction by ZEFSAII (Michael W. Deem and Ramdas Pophale) SiO2 
 PCOD9569950
Probable space group: P 42/N M C
;
_chemical_formula_sum "Si O2"
_cell_formula_units_Z 112
_cell_length_a 25.240463
_cell_length_b 25.240463
_cell_length_c 10.865346
_cell_angle_alpha 90.000000
_cell_angle_beta 90.000000
_cell_angle_gamma 90.000000
_cell_volume 6922.105196
_symmetry_space_group_name_H-M "P 42/N M C"
_symmetry_group_IT_number 137
_space_group.IT_coordinate_system_code '2'
_symmetry_cell_setting 'tetragonal'
loop_
_space_group_symop_operation_xyz
x,y,z
1/2-y,x,1/2+z
1/2-x,1/2-y,z
y,1/2-x,1/2+z
1/2+x,-y,-z
-x,1/2+y,-z
1/2+y,1/2+x,1/2-z
-y,-x,1/2-z
-x,-y,-z
1/2+y,-x,1/2-z
1/2+x,1/2+y,-z
-y,1/2+x,1/2-z
1/2-x,y,z
x,1/2-y,z
1/2-y,1/2-x,1/2+z
y,x,1/2+z
loop_
_atom_site_type_symbol
_atom_site_label
_atom_site_fract_x
_atom_site_fract_y
_atom_site_fract_z
Si Si1 0.925601 0.027708 0.376317
Si Si2 0.618583 0.688039 0.376840
Si Si3 0.809685 0.501029 0.461521
Si Si4 0.929004 0.495392 0.911718
Si Si5 0.855435 0.974938 0.707233
Si Si6 0.618201 0.577623 0.091600
Si Si7 0.809268 0.901700 0.302831
O O1 0.940693 0.059308 0.250000
O O2 0.862254 0.021369 0.393893
O O3 0.946257 0.049809 0.509424
O O4 0.962091 0.974160 0.369653
O O5 0.626624 0.750000 0.390783
O O6 0.566184 0.676315 0.294745
O O7 0.611236 0.657062 0.504921
O O8 0.667156 0.656735 0.315179
O O9 0.750000 0.481884 0.427443
O O10 0.819456 0.496345 0.607245
O O11 0.809331 0.563832 0.427010
O O12 0.891549 0.488133 0.793907
O O13 0.895620 0.526362 0.014766
O O14 0.894163 0.936220 0.629188
O O15 0.650743 0.567633 0.214163
O O16 0.750000 0.901187 0.253865
#
# Coordination Sequence:
#
# PCOD9569950 Si02
#       7
#    16  16  16  16  16  16  16
#     4  11  21  33  50  82 109 134 170 211 265 320
#     4  10  19  30  46  64  88 126 173 230 274 305
#     4  11  21  35  51  70 101 143 175 205 256 325
#     4  10  20  30  53  77 107 131 162 220 273 313
#     4  10  18  32  48  69  94 129 170 207 257 326
#     4  10  17  33  48  66  94 125 165 216 270 328
#     4  10  20  32  47  63  87 129 179 228 270 311
#
# _framework density 16.180049
#
# number of rings (size 3 to 8) (size 9 to 14) (size 15 to 20)
#    0.000    1.714    2.857    4.286    2.000    0.286 
#    0.000    0.000    0.000    2.571    0.000    0.000 
#    0.000    0.286    0.000    0.429    0.000    0.286 
#
# Total GULP energy -623768.072712 kJ/mol
# GULP energy per Si atom -5569.357792 kJ/mol
# Density = 1.614322 g / cm^3
# Si number density = 16.180049 Si / 1000 Ang^3
#
#
#
# Elastic Constant Matrix: (Units=GPa)
#
#
# Indices 1 2 3 4 5 6 
#
# 1 66.9266 36.8791 20.9634 0.0000 0.0000 0.0000
# 2 36.8791 66.9268 20.9630 0.0000 0.0000 0.0000
# 3 20.9634 20.9630 66.9549 0.0000 0.0000 0.0000
# 4 0.0000 0.0000 0.0000 17.2055 0.0000 0.0000
# 5 0.0000 0.0000 0.0000 0.0000 17.2056 0.0000
# 6 0.0000 0.0000 0.0000 0.0000 0.0000 8.8949
#
#
#
# Elastic Compliance Matrix: (Units=1/GPa)
#
#
# Indices 1 2 3 4 5 6 
#
# 1 0.022154 -0.011126 -0.003453 0.000000 0.000000 0.000000
# 2 -0.011126 0.022154 -0.003453 0.000000 0.000000 0.000000
# 3 -0.003453 -0.003453 0.017098 0.000000 0.000000 0.000000
# 4 0.000000 0.000000 0.000000 0.058121 0.000000 0.000000
# 5 0.000000 0.000000 0.000000 0.000000 0.058121 0.000000
# 6 0.000000 0.000000 0.000000 0.000000 0.000000 0.112424
#
#
# Mechanical properties :
#
#
# Convention : Reuss Voigt Hill
#
# Bulk Modulus (GPa) = 39.45982 39.82439 39.64210
# Shear Modulus (GPa) = 14.94400 16.79472 15.86936
#
# Velocity S-wave (km/s) = 3.04239 3.22528 3.13517
# Velocity P-wave (km/s) = 6.06485 6.20779 6.13673
#
# Compressibility (1/GPa) = 0.02534223
#
# Stress axis : x y z
#
# Youngs Moduli (GPa) = 45.13788 45.13824 58.48801
#
# Poissons Ratio (x) = 0.50222 0.20195
# Poissons Ratio (y) = 0.50222 0.20194
# Poissons Ratio (z) = 0.15586 0.15585
#
# Static dielectric constant tensor:
#      x y z
#    x 1.562020 0.000000 0.000000 
#    y 0.000000 1.562020 0.000000 
#    z 0.000000 0.000000 1.612620 
# 
# From -- ./inp_files/3944.got.cif
#   From: 2010.05.17/outbox.cif.g08.bks.cpg/sg137_2_cif.got.tgz:3944.got - 2010.05.20 13:01:12.
