data_PCOD9569804
_publ_section_title
;
Structure prediction by ZEFSAII (Michael W. Deem and Ramdas Pophale) SiO2 
 PCOD9569804
Probable space group: P 42/M N M
;
_chemical_formula_sum "Si O2"
_cell_formula_units_Z 64
_cell_length_a 19.004516
_cell_length_b 19.004516
_cell_length_c 11.685519
_cell_angle_alpha 90.000000
_cell_angle_beta 90.000000
_cell_angle_gamma 90.000000
_cell_volume 4220.477926
_symmetry_space_group_name_H-M "P 42/M N M"
_symmetry_group_IT_number 136
_symmetry_cell_setting 'tetragonal'
loop_
_space_group_symop_operation_xyz
x,y,z
1/2-y,1/2+x,1/2+z
-x,-y,z
1/2+y,1/2-x,1/2+z
1/2+x,1/2-y,1/2-z
1/2-x,1/2+y,1/2-z
y,x,-z
-y,-x,-z
-x,-y,-z
1/2+y,1/2-x,1/2-z
x,y,-z
1/2-y,1/2+x,1/2-z
1/2-x,1/2+y,1/2+z
1/2+x,1/2-y,1/2+z
-y,-x,z
y,x,z
loop_
_atom_site_type_symbol
_atom_site_label
_atom_site_fract_x
_atom_site_fract_y
_atom_site_fract_z
Si Si1 0.745343 0.373633 0.365236
Si Si2 0.441289 0.441289 0.133139
Si Si3 0.198026 0.987166 0.235031
Si Si4 0.998984 0.883248 0.000000
Si Si5 0.862174 0.257313 0.634023
O O1 0.746991 0.396852 0.500000
O O2 0.679353 0.320648 0.354293
O O3 0.735146 0.436837 0.275572
O O4 0.814424 0.326175 0.346975
O O5 0.500000 0.500000 0.151912
O O6 0.369652 0.472662 0.185022
O O7 0.429313 0.429313 0.000000
O O8 0.250149 0.926342 0.278216
O O9 0.163171 0.984162 0.110068
O O10 0.053116 0.946885 0.000000
O O11 0.921879 0.921879 0.000000
O O12 0.884759 0.257126 0.500000
O O13 0.809824 0.190177 0.648584
#
# Coordination Sequence:
#
# PCOD9569804 Si02
#       5
#    16   8  16   8  16
#     4   9  18  32  52  76 101 132 175 220 259 303
#     4  11  22  31  45  73 109 140 171 200 253 324
#     4  12  19  30  52  75 103 134 170 214 258 312
#     4  11  20  28  44  76 110 135 156 199 263 324
#     4   9  18  34  53  73  99 137 180 214 252 312
#
# _framework density 15.164160000000001
#
# number of rings (size 3 to 8) (size 9 to 14) (size 15 to 20)
#    0.000    1.750    3.750    4.500    0.000    0.000 
#    0.000    0.000    5.500    0.750    0.000    3.500 
#    0.000    0.000    0.000    0.000    0.000    0.000 
#
# Total GULP energy -356316.933274 kJ/mol
# GULP energy per Si atom -5567.452082 kJ/mol
# Density = 1.512965 g / cm^3
# Si number density = 15.164160 Si / 1000 Ang^3
#
#
#
# Elastic Constant Matrix: (Units=GPa)
#
#
# Indices 1 2 3 4 5 6 
#
# 1 98.6275 56.7318 51.7552 0.0000 0.0000 0.0000
# 2 56.7318 98.6274 51.7552 0.0000 0.0000 0.0000
# 3 51.7552 51.7552 133.9786 0.0000 0.0000 0.0000
# 4 0.0000 0.0000 0.0000 19.2717 0.0000 0.0000
# 5 0.0000 0.0000 0.0000 0.0000 19.2715 0.0000
# 6 0.0000 0.0000 0.0000 0.0000 0.0000 31.0348
#
#
#
# Elastic Compliance Matrix: (Units=1/GPa)
#
#
# Indices 1 2 3 4 5 6 
#
# 1 0.016268 -0.007601 -0.003348 0.000000 0.000000 0.000000
# 2 -0.007601 0.016268 -0.003348 0.000000 0.000000 0.000000
# 3 -0.003348 -0.003348 0.010051 0.000000 0.000000 0.000000
# 4 0.000000 0.000000 0.000000 0.051890 0.000000 0.000000
# 5 0.000000 0.000000 0.000000 0.000000 0.051890 0.000000
# 6 0.000000 0.000000 0.000000 0.000000 0.000000 0.032222
#
#
# Mechanical properties :
#
#
# Convention : Reuss Voigt Hill
#
# Bulk Modulus (GPa) = 71.46520 72.41309 71.93915
# Shear Modulus (GPa) = 23.60195 25.31502 24.45849
#
# Velocity S-wave (km/s) = 3.94944 4.09026 4.02047
# Velocity P-wave (km/s) = 8.24788 8.37636 8.31237
#
# Compressibility (1/GPa) = 0.01399282
#
# Stress axis : x y z
#
# Youngs Moduli (GPa) = 61.46981 61.46977 99.49593
#
# Poissons Ratio (x) = 0.46721 0.33313
# Poissons Ratio (y) = 0.46721 0.33313
# Poissons Ratio (z) = 0.20581 0.20581
#
# Static dielectric constant tensor:
#      x y z
#    x 1.537260 0.000000 0.000000 
#    y 0.000000 1.537260 0.000000 
#    z 0.000000 0.000000 1.573100 
# 
# From -- ./inp_files/3570.got.cif
#   From: 2010.05.17/outbox.cif.g08.bks.cpg/sg136_2_cif.got.tgz:3570.got - 2010.05.20 12:54:53.
