data_PCOD9569529
_publ_section_title
;
Structure prediction by ZEFSAII (Michael W. Deem and Ramdas Pophale) SiO2 
 PCOD9569529
Probable space group: P 42/M N M
;
_chemical_formula_sum "Si O2"
_cell_formula_units_Z 96
_cell_length_a 15.748892
_cell_length_b 15.748892
_cell_length_c 19.959421
_cell_angle_alpha 90.000000
_cell_angle_beta 90.000000
_cell_angle_gamma 90.000000
_cell_volume 4950.487273
_symmetry_space_group_name_H-M "P 42/M N M"
_symmetry_group_IT_number 136
_symmetry_cell_setting 'tetragonal'
loop_
_space_group_symop_operation_xyz
x,y,z
1/2-y,1/2+x,1/2+z
-x,-y,z
1/2+y,1/2-x,1/2+z
1/2+x,1/2-y,1/2-z
1/2-x,1/2+y,1/2-z
y,x,-z
-y,-x,-z
-x,-y,-z
1/2+y,1/2-x,1/2-z
x,y,-z
1/2-y,1/2+x,1/2-z
1/2-x,1/2+y,1/2+z
1/2+x,1/2-y,1/2+z
-y,-x,z
y,x,z
loop_
_atom_site_type_symbol
_atom_site_label
_atom_site_fract_x
_atom_site_fract_y
_atom_site_fract_z
Si Si1 0.818386 0.680331 0.193136
Si Si2 0.539723 0.677012 0.785068
Si Si3 0.739452 0.878443 0.337900
Si Si4 0.922204 0.438045 0.923190
Si Si5 0.441669 0.799235 0.427085
Si Si6 0.496485 0.363499 0.635522
O O1 0.765882 0.765882 0.177757
O O2 0.752141 0.603767 0.195495
O O3 0.857496 0.694677 0.266596
O O4 0.885264 0.668687 0.134254
O O5 0.588332 0.588332 0.797318
O O6 0.452075 0.692272 0.822602
O O7 0.525026 0.682720 0.705140
O O8 0.793224 0.793224 0.358904
O O9 0.665461 0.919657 0.384128
O O10 0.000000 0.500000 0.897960
O O11 0.969501 0.347995 0.925127
O O12 0.904265 0.466217 0.000000
O O13 0.401810 0.814105 0.500000
O O14 0.462842 0.701331 0.415596
O O15 0.565942 0.434059 0.653061
O O16 0.413128 0.413128 0.611069
#
# Coordination Sequence:
#
# PCOD9569529 Si02
#       6
#    16  16  16  16  16  16
#     4  10  21  36  54  85 123 157 204 256 302 357
#     4  10  20  36  58  83 116 156 200 256 314 368
#     4  11  22  37  61  91 120 157 208 262 313 373
#     4  10  23  43  63  87 121 158 199 251 311 375
#     4  11  22  37  58  84 119 162 202 243 299 366
#     4  10  20  35  55  82 118 155 193 240 294 356
#
# _framework density 19.392030999999999
#
# number of rings (size 3 to 8) (size 9 to 14) (size 15 to 20)
#    0.000    1.667    1.667    3.000    0.000    5.000 
#    0.000    2.500    0.000    1.500    0.000    1.167 
#    0.000    0.000    0.000    0.000    0.000    0.000 
#
# Total GULP energy -535355.755863 kJ/mol
# GULP energy per Si atom -5576.622457 kJ/mol
# Density = 1.934789 g / cm^3
# Si number density = 19.392031 Si / 1000 Ang^3
#
#
#
# Elastic Constant Matrix: (Units=GPa)
#
#
# Indices 1 2 3 4 5 6 
#
# 1 80.2674 22.1945 37.9562 0.0000 0.0000 0.0000
# 2 22.1945 80.2674 37.9562 0.0000 0.0000 0.0000
# 3 37.9562 37.9562 69.6836 0.0000 0.0000 0.0000
# 4 0.0000 0.0000 0.0000 18.3722 0.0000 0.0000
# 5 0.0000 0.0000 0.0000 0.0000 18.3722 0.0000
# 6 0.0000 0.0000 0.0000 0.0000 0.0000 27.4393
#
#
#
# Elastic Compliance Matrix: (Units=1/GPa)
#
#
# Indices 1 2 3 4 5 6 
#
# 1 0.016791 -0.000428 -0.008913 0.000000 0.000000 0.000000
# 2 -0.000428 0.016791 -0.008913 0.000000 0.000000 0.000000
# 3 -0.008913 -0.008913 0.024060 0.000000 0.000000 0.000000
# 4 0.000000 0.000000 0.000000 0.054430 0.000000 0.000000
# 5 0.000000 0.000000 0.000000 0.000000 0.054430 0.000000
# 6 0.000000 0.000000 0.000000 0.000000 0.000000 0.036444
#
#
# Mechanical properties :
#
#
# Convention : Reuss Voigt Hill
#
# Bulk Modulus (GPa) = 47.31516 47.38136 47.34826
# Shear Modulus (GPa) = 20.28396 21.64420 20.96408
#
# Velocity S-wave (km/s) = 3.23769 3.34449 3.29153
# Velocity P-wave (km/s) = 6.19912 6.27699 6.23818
#
# Compressibility (1/GPa) = 0.02113487
#
# Stress axis : x y z
#
# Youngs Moduli (GPa) = 59.55412 59.55412 41.56239
#
# Poissons Ratio (x) = 0.02551 0.37044
# Poissons Ratio (y) = 0.02551 0.37044
# Poissons Ratio (z) = 0.53080 0.53080
#
# Static dielectric constant tensor:
#      x y z
#    x 1.698820 0.000000 0.000000 
#    y 0.000000 1.698820 0.000000 
#    z 0.000000 0.000000 1.681160 
# 
# From -- ./inp_files/7481.got.cif
#   From: 2010.05.17/outbox.cif.g08.bks.cpg/sg136_4_cif.got.tgz:7481.got - 2010.05.20 12:54:53.
