data_PCOD9569258
_publ_section_title
;
Structure prediction by ZEFSAII (Michael W. Deem and Ramdas Pophale) SiO2 
 PCOD9569258
Probable space group: P 42/M N M
;
_chemical_formula_sum "Si O2"
_cell_formula_units_Z 72
_cell_length_a 20.058948
_cell_length_b 20.058948
_cell_length_c 7.537728
_cell_angle_alpha 90.000000
_cell_angle_beta 90.000000
_cell_angle_gamma 90.000000
_cell_volume 3032.890752
_symmetry_space_group_name_H-M "P 42/M N M"
_symmetry_group_IT_number 136
_symmetry_cell_setting 'tetragonal'
loop_
_space_group_symop_operation_xyz
x,y,z
1/2-y,1/2+x,1/2+z
-x,-y,z
1/2+y,1/2-x,1/2+z
1/2+x,1/2-y,1/2-z
1/2-x,1/2+y,1/2-z
y,x,-z
-y,-x,-z
-x,-y,-z
1/2+y,1/2-x,1/2-z
x,y,-z
1/2-y,1/2+x,1/2-z
1/2-x,1/2+y,1/2+z
1/2+x,1/2-y,1/2+z
-y,-x,z
y,x,z
loop_
_atom_site_type_symbol
_atom_site_label
_atom_site_fract_x
_atom_site_fract_y
_atom_site_fract_z
Si Si1 0.945907 0.054094 0.783016
Si Si2 0.714300 0.896100 0.711547
Si Si3 0.242175 0.350423 0.716482
Si Si4 0.200605 0.988586 0.213002
Si Si5 0.988641 0.603086 0.700404
O O1 0.967014 0.127562 0.725032
O O2 0.944450 0.055551 0.000000
O O3 0.000000 0.000000 0.728630
O O4 0.703409 0.893603 0.500000
O O5 0.690177 0.823972 0.776837
O O6 0.665419 0.952965 0.785951
O O7 0.783512 0.934568 0.737870
O O8 0.240406 0.351088 0.500000
O O9 0.306760 0.306760 0.766666
O O10 0.250618 0.427452 0.774548
O O11 0.201510 0.986259 0.000000
O O12 0.011565 0.616070 0.500000
O O13 0.930121 0.548012 0.694363
#
# Coordination Sequence:
#
# PCOD9569258 Si02
#       5
#     8  16  16  16  16
#     4   9  18  34  59  89 113 137 179 236 285 332
#     4  10  21  33  49  77 108 136 174 228 277 320
#     4   9  17  33  56  77 101 142 193 228 261 328
#     4  10  19  35  59  82 107 145 189 227 275 337
#     4  10  19  31  47  70 102 139 178 218 266 320
#
# _framework density 23.739725
#
# number of rings (size 3 to 8) (size 9 to 14) (size 15 to 20)
#    0.000    2.333    1.111    2.667    0.000    4.444 
#    0.000    1.667    0.000    2.000    0.000    0.000 
#    0.000    0.000    0.000    0.000    0.000    0.000 
#
# Total GULP energy -401707.356848 kJ/mol
# GULP energy per Si atom -5579.268845 kJ/mol
# Density = 2.368569 g / cm^3
# Si number density = 23.739725 Si / 1000 Ang^3
#
#
#
# Elastic Constant Matrix: (Units=GPa)
#
#
# Indices 1 2 3 4 5 6 
#
# 1 87.6722 57.0228 4.4030 0.0000 0.0000 0.0000
# 2 57.0228 87.6720 4.4030 0.0000 0.0000 0.0000
# 3 4.4030 4.4030 67.3010 0.0000 0.0000 0.0000
# 4 0.0000 0.0000 0.0000 3.4128 0.0000 0.0000
# 5 0.0000 0.0000 0.0000 0.0000 3.4140 0.0000
# 6 0.0000 0.0000 0.0000 0.0000 0.0000 30.5817
#
#
#
# Elastic Compliance Matrix: (Units=1/GPa)
#
#
# Indices 1 2 3 4 5 6 
#
# 1 0.019783 -0.012844 -0.000454 0.000000 0.000000 0.000000
# 2 -0.012844 0.019783 -0.000454 0.000000 0.000000 0.000000
# 3 -0.000454 -0.000454 0.014918 0.000000 0.000000 0.000000
# 4 0.000000 0.000000 0.000000 0.293018 0.000000 0.000000
# 5 0.000000 0.000000 0.000000 0.000000 0.292910 0.000000
# 6 0.000000 0.000000 0.000000 0.000000 0.000000 0.032699
#
#
# Mechanical properties :
#
#
# Convention : Reuss Voigt Hill
#
# Bulk Modulus (GPa) = 37.06497 41.58923 39.32710
# Shear Modulus (GPa) = 7.04614 19.26945 13.15780
#
# Velocity S-wave (km/s) = 1.72468 2.85212 2.35681
# Velocity P-wave (km/s) = 4.42866 5.32944 4.89979
#
# Compressibility (1/GPa) = 0.02697965
#
# Stress axis : x y z
#
# Youngs Moduli (GPa) = 50.54864 50.54852 67.03304
#
# Poissons Ratio (x) = 0.64926 0.03043
# Poissons Ratio (y) = 0.64926 0.03043
# Poissons Ratio (z) = 0.02295 0.02295
#
# Static dielectric constant tensor:
#      x y z
#    x 1.947680 0.000000 0.000000 
#    y 0.000000 1.947680 0.000000 
#    z 0.000000 0.000000 1.890740 
# 
# From -- ./inp_files/1562.got.cif
#   From: 2010.05.17/outbox.cif.g08.bks.cpg/sg136_1_cif.got.tgz:1562.got - 2010.05.20 12:54:53.
