data_PCOD9569158
_publ_section_title
;
Structure prediction by ZEFSAII (Michael W. Deem and Ramdas Pophale) SiO2 
 PCOD9569158
Probable space group: P 42/M N M
;
_chemical_formula_sum "Si O2"
_cell_formula_units_Z 112
_cell_length_a 30.200648
_cell_length_b 30.200648
_cell_length_c 7.779704
_cell_angle_alpha 90.000000
_cell_angle_beta 90.000000
_cell_angle_gamma 90.000000
_cell_volume 7095.705731
_symmetry_space_group_name_H-M "P 42/M N M"
_symmetry_group_IT_number 136
_symmetry_cell_setting 'tetragonal'
loop_
_space_group_symop_operation_xyz
x,y,z
1/2-y,1/2+x,1/2+z
-x,-y,z
1/2+y,1/2-x,1/2+z
1/2+x,1/2-y,1/2-z
1/2-x,1/2+y,1/2-z
y,x,-z
-y,-x,-z
-x,-y,-z
1/2+y,1/2-x,1/2-z
x,y,-z
1/2-y,1/2+x,1/2-z
1/2-x,1/2+y,1/2+z
1/2+x,1/2-y,1/2+z
-y,-x,z
y,x,z
loop_
_atom_site_type_symbol
_atom_site_label
_atom_site_fract_x
_atom_site_fract_y
_atom_site_fract_z
Si Si1 0.330831 0.742366 0.789581
Si Si2 0.465121 0.397855 0.698972
Si Si3 0.889532 0.889532 0.800996
Si Si4 0.542494 0.457507 0.805604
Si Si5 0.303119 0.478792 0.195800
Si Si6 0.207790 0.076910 0.291967
Si Si7 0.763432 0.687880 0.696567
Si Si8 0.879630 0.192253 0.299054
O O1 0.300224 0.699777 0.736785
O O2 0.382209 0.739259 0.738160
O O3 0.306527 0.787363 0.731046
O O4 0.329319 0.742274 0.000000
O O5 0.459616 0.385091 0.500000
O O6 0.419262 0.419262 0.763187
O O7 0.501496 0.435723 0.711542
O O8 0.482868 0.356380 0.802904
O O9 0.920354 0.920354 0.690390
O O10 0.903625 0.839694 0.762112
O O11 0.898860 0.898860 0.000000
O O12 0.531325 0.468676 0.000000
O O13 0.286309 0.525983 0.271078
O O14 0.299375 0.429046 0.274945
O O15 0.285997 0.476298 0.000000
O O16 0.208691 0.074314 0.500000
O O17 0.772161 0.674088 0.500000
O O18 0.727647 0.727647 0.692037
O O19 0.737586 0.648283 0.786776
O O20 0.886346 0.181497 0.500000
O O21 0.847130 0.152871 0.227133
#
# Coordination Sequence:
#
# PCOD9569158 Si02
#       8
#    16  16   8   8  16  16  16  16
#     4   8  13  23  42  64  82  98 124 162 197 235
#     4  11  23  35  45  58  75  93 120 166 216 250
#     4  12  22  31  43  60  82 103 126 164 204 244
#     4  12  23  35  48  57  68  94 130 166 206 252
#     4  10  20  31  45  61  77 103 137 163 193 242
#     4  10  18  30  47  62  78 105 135 161 197 246
#     4   8  14  25  42  62  79  98 126 160 198 239
#     4   9  17  29  42  57  80 105 131 169 204 231
#
# _framework density 15.784196
#
# number of rings (size 3 to 8) (size 9 to 14) (size 15 to 20)
#    0.000    2.286    2.143    3.214    0.000    3.143 
#    0.000    2.143    0.000    0.000    0.000    0.000 
#    0.000    0.000    0.000    0.000    0.000    0.714 
#
# Total GULP energy -623481.939064 kJ/mol
# GULP energy per Si atom -5566.803027 kJ/mol
# Density = 1.574827 g / cm^3
# Si number density = 15.784196 Si / 1000 Ang^3
#
#
#
# Elastic Constant Matrix: (Units=GPa)
#
#
# Indices 1 2 3 4 5 6 
#
# 1 81.8075 58.3343 4.2527 0.0000 0.0000 0.0000
# 2 58.3343 81.8070 4.2526 0.0000 0.0000 0.0000
# 3 4.2527 4.2526 29.9459 0.0000 0.0000 0.0000
# 4 0.0000 0.0000 0.0000 -151.7232 0.0000 0.0000
# 5 0.0000 0.0000 0.0000 0.0000 -151.6507 0.0000
# 6 0.0000 0.0000 0.0000 0.0000 0.0000 33.7194
#
#
#
# Elastic Compliance Matrix: (Units=1/GPa)
#
#
# Indices 1 2 3 4 5 6 
#
# 1 0.024900 -0.017702 -0.001022 0.000000 0.000000 0.000000
# 2 -0.017702 0.024900 -0.001022 0.000000 0.000000 0.000000
# 3 -0.001022 -0.001022 0.033684 0.000000 0.000000 0.000000
# 4 0.000000 0.000000 0.000000 -0.006591 0.000000 0.000000
# 5 0.000000 0.000000 0.000000 0.000000 -0.006594 0.000000
# 6 0.000000 0.000000 0.000000 0.000000 0.000000 0.029656
#
#
# Mechanical properties :
#
#
# Convention : Reuss Voigt Hill
#
# Bulk Modulus (GPa) = 22.73212 36.35995 29.54603
# Shear Modulus (GPa) = 32.44400 -45.48283 -6.51941
#
# Velocity S-wave (km/s) = 4.53865 -5.37382 -2.03453
# Velocity P-wave (km/s) = 6.47294 3.92661 3.63872
#
# Compressibility (1/GPa) = 0.04399063
#
# Stress axis : x y z
#
# Youngs Moduli (GPa) = 40.16091 40.16068 29.68780
#
# Poissons Ratio (x) = 0.71093 0.03035
# Poissons Ratio (y) = 0.71094 0.03034
# Poissons Ratio (z) = 0.04105 0.04105
#
# Static dielectric constant tensor:
#      x y z
#    x 1.560810 0.000000 0.000000 
#    y 0.000000 1.560810 0.000000 
#    z 0.000000 0.000000 1.588210 
# 
# From -- ./inp_files/2409.got.cif
#   From: 2010.05.17/outbox.cif.g08.bks.cpg/sg136_2_cif.got.tgz:2409.got - 2010.05.20 12:54:53.
