data_PCOD9569081
_publ_section_title
;
Structure prediction by ZEFSAII (Michael W. Deem and Ramdas Pophale) SiO2 
 PCOD9569081
Probable space group: P 42/M B C
;
_chemical_formula_sum "Si O2"
_cell_formula_units_Z 112
_cell_length_a 15.000000
_cell_length_b 15.000000
_cell_length_c 27.000000
_cell_angle_alpha 90.000000
_cell_angle_beta 90.000000
_cell_angle_gamma 90.000000
_cell_volume 6075.000000
_symmetry_space_group_name_H-M "P 42/M B C"
_symmetry_group_IT_number 135
_symmetry_cell_setting 'tetragonal'
loop_
_space_group_symop_operation_xyz
x,y,z
-y,x,1/2+z
-x,-y,z
y,-x,1/2+z
1/2+x,1/2-y,-z
1/2-x,1/2+y,-z
1/2+y,1/2+x,1/2-z
1/2-y,1/2-x,1/2-z
-x,-y,-z
y,-x,1/2-z
x,y,-z
-y,x,1/2-z
1/2-x,1/2+y,z
1/2+x,1/2-y,z
1/2-y,1/2-x,1/2+z
1/2+y,1/2+x,1/2+z
loop_
_atom_site_type_symbol
_atom_site_label
_atom_site_fract_x
_atom_site_fract_y
_atom_site_fract_z
Si Si1 0.140896 0.959191 0.241959
Si Si2 0.845778 0.858891 0.941285
Si Si3 0.158939 0.273783 0.802979
Si Si4 0.281667 0.474993 0.872179
Si Si5 0.078226 0.428438 0.128877
Si Si6 0.798024 0.233072 0.106937
Si Si7 0.507969 0.778633 0.060429
O O1 0.200300 0.912821 0.285004
O O2 0.187190 0.972247 0.186804
O O3 0.054295 0.895054 0.238327
O O4 0.768553 0.785068 0.930439
O O5 0.939336 0.805402 0.931884
O O6 0.826613 0.943900 0.904269
O O7 0.843650 0.884372 0.000000
O O8 0.198255 0.301746 0.750000
O O9 0.105569 0.354954 0.829345
O O10 0.242012 0.249216 0.840466
O O11 0.173199 0.480180 0.877764
O O12 0.301954 0.375368 0.893730
O O13 0.000000 0.500000 0.140700
O O14 0.042245 0.366445 0.083195
O O15 0.898670 0.265108 0.091364
O O16 0.522398 0.786226 0.000000
#
# Coordination Sequence:
#
# PCOD9569081 Si02
#       7
#    16  16  16  16  16  16  16
#     4  11  25  42  69 100 135 186 230 286 353 427
#     4  11  24  44  71 100 137 183 235 296 357 430
#     4  11  22  45  65  98 143 178 234 286 353 420
#     4  11  24  45  67 103 139 181 238 288 356 424
#     4  11  24  43  71 100 141 185 233 296 347 431
#     4  11  23  43  70  97 144 182 230 297 352 427
#     4  11  25  44  70 104 141 185 238 298 364 426
#
# _framework density 18.436214
#
# number of rings (size 3 to 8) (size 9 to 14) (size 15 to 20)
#    0.000    1.000    5.714    2.143    2.000    4.000 
#    0.000    1.429    0.000    0.000    0.000    0.000 
#    0.000    0.000    0.000    0.000    0.000    0.000 
#
# Total GULP energy -624149.280576 kJ/mol
# GULP energy per Si atom -5572.761434 kJ/mol
# Density = 1.839425 g / cm^3
# Si number density = 18.436214 Si / 1000 Ang^3
#
#
#
# Elastic Constant Matrix: (Units=GPa)
#
#
# Indices 1 2 3 4 5 6 
#
# 1 128.9275 42.2330 54.5053 0.0000 0.0000 0.0000
# 2 42.2330 128.9278 54.5053 0.0000 0.0000 0.0000
# 3 54.5053 54.5053 138.9901 0.0000 0.0000 0.0000
# 4 0.0000 0.0000 0.0000 42.7952 0.0000 0.0000
# 5 0.0000 0.0000 0.0000 0.0000 42.7950 0.0000
# 6 0.0000 0.0000 0.0000 0.0000 0.0000 44.3081
#
#
#
# Elastic Compliance Matrix: (Units=1/GPa)
#
#
# Indices 1 2 3 4 5 6 
#
# 1 0.009661 -0.001874 -0.003054 0.000000 0.000000 0.000000
# 2 -0.001874 0.009661 -0.003054 0.000000 0.000000 0.000000
# 3 -0.003054 -0.003054 0.009590 0.000000 0.000000 0.000000
# 4 0.000000 0.000000 0.000000 0.023367 0.000000 0.000000
# 5 0.000000 0.000000 0.000000 0.000000 0.023367 0.000000
# 6 0.000000 0.000000 0.000000 0.000000 0.000000 0.022569
#
#
# Mechanical properties :
#
#
# Convention : Reuss Voigt Hill
#
# Bulk Modulus (GPa) = 77.22399 77.70363 77.46381
# Shear Modulus (GPa) = 42.19591 42.35310 42.27451
#
# Velocity S-wave (km/s) = 4.78928 4.79819 4.79374
# Velocity P-wave (km/s) = 8.51827 8.54024 8.52926
#
# Compressibility (1/GPa) = 0.01294934
#
# Stress axis : x y z
#
# Youngs Moduli (GPa) = 103.50782 103.50808 104.27615
#
# Poissons Ratio (x) = 0.19394 0.31845
# Poissons Ratio (y) = 0.19394 0.31845
# Poissons Ratio (z) = 0.31610 0.31610
#
# Static dielectric constant tensor:
#      x y z
#    x 1.665230 0.000000 0.000000 
#    y 0.000000 1.665230 0.000000 
#    z 0.000000 0.000000 1.648130 
# 
# From -- ./inp_files/6538.got.cif
#   From: 2010.05.17/outbox.ucp.g08.bks.cvg/sg135_4_cif.got.tgz:6538.got - 2010.06.11 11:40:18.
