data_PCOD9569405
_publ_section_title
;
Structure prediction by ZEFSAII (Michael W. Deem and Ramdas Pophale) SiO2 
 PCOD9569405
Probable space group: P 42/M N M
;
_chemical_formula_sum "Si O2"
_cell_formula_units_Z 112
_cell_length_a 28.071827
_cell_length_b 28.071827
_cell_length_c 7.518161
_cell_angle_alpha 90.000000
_cell_angle_beta 90.000000
_cell_angle_gamma 90.000000
_cell_volume 5924.517400
_symmetry_space_group_name_H-M "P 42/M N M"
_symmetry_group_IT_number 136
_symmetry_cell_setting 'tetragonal'
loop_
_space_group_symop_operation_xyz
x,y,z
1/2-y,1/2+x,1/2+z
-x,-y,z
1/2+y,1/2-x,1/2+z
1/2+x,1/2-y,1/2-z
1/2-x,1/2+y,1/2-z
y,x,-z
-y,-x,-z
-x,-y,-z
1/2+y,1/2-x,1/2-z
x,y,-z
1/2-y,1/2+x,1/2-z
1/2-x,1/2+y,1/2+z
1/2+x,1/2-y,1/2+z
-y,-x,z
y,x,z
loop_
_atom_site_type_symbol
_atom_site_label
_atom_site_fract_x
_atom_site_fract_y
_atom_site_fract_z
Si Si1 0.862637 0.448148 0.213011
Si Si2 0.424036 0.650380 0.211865
Si Si3 0.374548 0.941054 0.213987
Si Si4 0.174190 0.898592 0.216718
Si Si5 0.255598 0.050067 0.707833
Si Si6 0.022078 0.902830 0.785720
Si Si7 0.440115 0.230761 0.284191
O O1 0.877761 0.502930 0.243550
O O2 0.808690 0.437878 0.282438
O O3 0.904338 0.413894 0.282171
O O4 0.859569 0.442254 0.000000
O O5 0.378111 0.621889 0.282397
O O6 0.432537 0.704356 0.282501
O O7 0.469823 0.615525 0.235369
O O8 0.418385 0.655474 0.000000
O O9 0.321776 0.926866 0.276115
O O10 0.375891 0.938158 0.000000
O O11 0.149623 0.850378 0.275459
O O12 0.139315 0.941728 0.270216
O O13 0.227465 0.906000 0.276807
O O14 0.174114 0.899498 0.000000
O O15 0.256280 0.063832 0.500000
O O16 0.255617 0.992863 0.721715
O O17 0.047442 0.952559 0.725448
O O18 0.021962 0.905011 0.000000
O O19 0.441637 0.230217 0.500000
#
# Coordination Sequence:
#
# PCOD9569405 Si02
#       7
#    16  16  16  16  16  16  16
#     4   9  18  32  48  67  93 119 142 172 211 254
#     4  10  20  31  43  61  85 115 151 187 221 258
#     4   9  18  30  46  70  93 116 145 174 207 249
#     4   8  13  22  39  62  85 108 134 171 219 258
#     4   9  17  30  46  61  82 114 147 179 214 252
#     4   9  17  29  44  62  85 114 146 180 223 269
#     4   9  15  26  46  66  85 109 142 181 214 251
#
# _framework density 18.904492999999999
#
# number of rings (size 3 to 8) (size 9 to 14) (size 15 to 20)
#    0.000    3.000    1.429    0.857    0.000    1.714 
#    0.000    2.857    0.000    1.286    0.000    6.000 
#    0.000    0.000    0.000   14.286    0.000   14.857 
#
# Total GULP energy -623615.791826 kJ/mol
# GULP energy per Si atom -5567.998141 kJ/mol
# Density = 1.886147 g / cm^3
# Si number density = 18.904493 Si / 1000 Ang^3
#
#
#
# Elastic Constant Matrix: (Units=GPa)
#
#
# Indices 1 2 3 4 5 6 
#
# 1 137.6918 104.0252 4.6972 0.0000 0.0000 0.0000
# 2 104.0252 137.6918 4.6972 0.0000 0.0000 0.0000
# 3 4.6972 4.6972 49.6592 0.0000 0.0000 0.0000
# 4 0.0000 0.0000 0.0000 12.2317 0.0000 0.0000
# 5 0.0000 0.0000 0.0000 0.0000 12.2317 0.0000
# 6 0.0000 0.0000 0.0000 0.0000 0.0000 28.1125
#
#
#
# Elastic Compliance Matrix: (Units=1/GPa)
#
#
# Indices 1 2 3 4 5 6 
#
# 1 0.016928 -0.012775 -0.000393 0.000000 0.000000 0.000000
# 2 -0.012775 0.016928 -0.000393 0.000000 0.000000 0.000000
# 3 -0.000393 -0.000393 0.020212 0.000000 0.000000 0.000000
# 4 0.000000 0.000000 0.000000 0.081755 0.000000 0.000000
# 5 0.000000 0.000000 0.000000 0.000000 0.081755 0.000000
# 6 0.000000 0.000000 0.000000 0.000000 0.000000 0.035571
#
#
# Mechanical properties :
#
#
# Convention : Reuss Voigt Hill
#
# Bulk Modulus (GPa) = 37.11236 61.32019 49.21628
# Shear Modulus (GPa) = 17.28604 24.62341 20.95472
#
# Velocity S-wave (km/s) = 3.02716 3.61295 3.33295
# Velocity P-wave (km/s) = 5.64734 7.06483 6.39548
#
# Compressibility (1/GPa) = 0.02694520
#
# Stress axis : x y z
#
# Youngs Moduli (GPa) = 59.07489 59.07489 49.47661
#
# Poissons Ratio (x) = 0.75470 0.01943
# Poissons Ratio (y) = 0.75470 0.01943
# Poissons Ratio (z) = 0.02320 0.02320
#
# Static dielectric constant tensor:
#      x y z
#    x 1.665620 0.000000 0.000000 
#    y 0.000000 1.665620 0.000000 
#    z 0.000000 0.000000 2.071380 
# 
# From -- ./inp_files/4020.got.cif
#   From: 2010.05.17/outbox.cif.g08.bks.cpg/sg136_3_cif.got.tgz:4020.got - 2010.05.20 12:54:53.
