data_PCOD9569532
_publ_section_title
;
Structure prediction by ZEFSAII (Michael W. Deem and Ramdas Pophale) SiO2 
 PCOD9569532
Probable space group: P 42/M N M
;
_chemical_formula_sum "Si O2"
_cell_formula_units_Z 120
_cell_length_a 26.493752
_cell_length_b 26.493752
_cell_length_c 9.514961
_cell_angle_alpha 90.000000
_cell_angle_beta 90.000000
_cell_angle_gamma 90.000000
_cell_volume 6678.730911
_symmetry_space_group_name_H-M "P 42/M N M"
_symmetry_group_IT_number 136
_symmetry_cell_setting 'tetragonal'
loop_
_space_group_symop_operation_xyz
x,y,z
1/2-y,1/2+x,1/2+z
-x,-y,z
1/2+y,1/2-x,1/2+z
1/2+x,1/2-y,1/2-z
1/2-x,1/2+y,1/2-z
y,x,-z
-y,-x,-z
-x,-y,-z
1/2+y,1/2-x,1/2-z
x,y,-z
1/2-y,1/2+x,1/2-z
1/2-x,1/2+y,1/2+z
1/2+x,1/2-y,1/2+z
-y,-x,z
y,x,z
loop_
_atom_site_type_symbol
_atom_site_label
_atom_site_fract_x
_atom_site_fract_y
_atom_site_fract_z
Si Si1 0.041421 0.041421 0.670670
Si Si2 0.692032 0.855845 0.166271
Si Si3 0.892725 0.594881 0.335854
Si Si4 0.001990 0.151640 0.668096
Si Si5 0.817925 0.095753 0.840124
Si Si6 0.661554 0.746353 0.843896
Si Si7 0.356553 0.999976 0.337468
Si Si8 0.561623 0.245481 0.166309
O O1 0.040850 0.040850 0.500000
O O2 0.025972 0.098121 0.712513
O O3 0.000000 0.000000 0.717796
O O4 0.640012 0.870347 0.242856
O O5 0.694241 0.795829 0.185873
O O6 0.734417 0.889096 0.241671
O O7 0.690606 0.866782 0.000000
O O8 0.878293 0.599145 0.500000
O O9 0.873959 0.543178 0.267914
O O10 0.952900 0.604807 0.329291
O O11 0.992714 0.149376 0.500000
O O12 0.037539 0.200062 0.693722
O O13 0.950145 0.161636 0.748394
O O14 0.860660 0.139341 0.841823
O O15 0.768117 0.119237 0.768202
O O16 0.808063 0.080287 0.000000
O O17 0.699403 0.699403 0.848944
O O18 0.638532 0.752908 0.000000
O O19 0.355878 0.981887 0.500000
O O20 0.300709 0.022489 0.305503
O O21 0.573798 0.241692 0.000000
#
# Coordination Sequence:
#
# PCOD9569532 Si02
#       8
#     8  16  16  16  16  16  16  16
#     4   9  18  34  59  89 117 149 195 239 275 329
#     4  10  20  35  56  78 104 141 181 224 272 325
#     4  10  21  35  53  77 106 140 179 225 275 324
#     4  10  20  36  59  84 112 150 192 232 277 331
#     4  10  21  35  53  83 118 144 176 225 279 333
#     4   9  19  36  56  79 107 142 181 217 264 328
#     4   9  19  35  51  72 104 141 180 223 272 329
#     4   9  20  37  54  77 111 144 182 231 277 326
#
# _framework density 17.967486000000001
#
# number of rings (size 3 to 8) (size 9 to 14) (size 15 to 20)
#    0.000    2.467    0.000    2.400    1.867    5.867 
#    1.200    1.667    0.000    1.200    0.000    0.000 
#    0.000    0.000    0.000    0.000    0.000    0.000 
#
# Total GULP energy -669150.667033 kJ/mol
# GULP energy per Si atom -5576.255559 kJ/mol
# Density = 1.792659 g / cm^3
# Si number density = 17.967486 Si / 1000 Ang^3
#
#
#
# Elastic Constant Matrix: (Units=GPa)
#
#
# Indices 1 2 3 4 5 6 
#
# 1 83.8132 40.5505 51.4074 0.0000 0.0000 0.0000
# 2 40.5505 83.8132 51.4074 0.0000 0.0000 0.0000
# 3 51.4074 51.4074 75.1494 0.0000 0.0000 0.0000
# 4 0.0000 0.0000 0.0000 22.6075 0.0000 0.0000
# 5 0.0000 0.0000 0.0000 0.0000 22.6075 0.0000
# 6 0.0000 0.0000 0.0000 0.0000 0.0000 12.9682
#
#
#
# Elastic Compliance Matrix: (Units=1/GPa)
#
#
# Indices 1 2 3 4 5 6 
#
# 1 0.020811 -0.002303 -0.012661 0.000000 0.000000 0.000000
# 2 -0.002303 0.020811 -0.012661 0.000000 0.000000 0.000000
# 3 -0.012661 -0.012661 0.030628 0.000000 0.000000 0.000000
# 4 0.000000 0.000000 0.000000 0.044233 0.000000 0.000000
# 5 0.000000 0.000000 0.000000 0.000000 0.044233 0.000000
# 6 0.000000 0.000000 0.000000 0.000000 0.000000 0.077112
#
#
# Mechanical properties :
#
#
# Convention : Reuss Voigt Hill
#
# Bulk Modulus (GPa) = 58.81856 58.83404 58.82630
# Shear Modulus (GPa) = 16.73668 18.26401 17.50034
#
# Velocity S-wave (km/s) = 3.05536 3.19172 3.12428
# Velocity P-wave (km/s) = 6.72712 6.81165 6.76952
#
# Compressibility (1/GPa) = 0.01700144
#
# Stress axis : x y z
#
# Youngs Moduli (GPa) = 48.05106 48.05106 32.64948
#
# Poissons Ratio (x) = 0.11068 0.41336
# Poissons Ratio (y) = 0.11068 0.41336
# Poissons Ratio (z) = 0.60836 0.60836
#
# Static dielectric constant tensor:
#      x y z
#    x 1.613100 0.000000 0.000000 
#    y 0.000000 1.613100 0.000000 
#    z 0.000000 0.000000 1.614650 
# 
# From -- ./inp_files/2349.got.cif
#   From: 2010.05.17/outbox.cif.g08.bks.cpg/sg136_2_cif.got.tgz:2349.got - 2010.05.20 12:54:53.
