data_PCOD9569828
_publ_section_title
;
Structure prediction by ZEFSAII (Michael W. Deem and Ramdas Pophale) SiO2 
 PCOD9569828
Probable space group: P 42/M N M
;
_chemical_formula_sum "Si O2"
_cell_formula_units_Z 68
_cell_length_a 11.640546
_cell_length_b 11.640546
_cell_length_c 28.650285
_cell_angle_alpha 90.000000
_cell_angle_beta 90.000000
_cell_angle_gamma 90.000000
_cell_volume 3882.179833
_symmetry_space_group_name_H-M "P 42/M N M"
_symmetry_group_IT_number 136
_symmetry_cell_setting 'tetragonal'
loop_
_space_group_symop_operation_xyz
x,y,z
1/2-y,1/2+x,1/2+z
-x,-y,z
1/2+y,1/2-x,1/2+z
1/2+x,1/2-y,1/2-z
1/2-x,1/2+y,1/2-z
y,x,-z
-y,-x,-z
-x,-y,-z
1/2+y,1/2-x,1/2-z
x,y,-z
1/2-y,1/2+x,1/2-z
1/2-x,1/2+y,1/2+z
1/2+x,1/2-y,1/2+z
-y,-x,z
y,x,z
loop_
_atom_site_type_symbol
_atom_site_label
_atom_site_fract_x
_atom_site_fract_y
_atom_site_fract_z
Si Si1 0.390155 0.196104 0.636875
Si Si2 0.500000 0.500000 0.825450
Si Si3 0.494883 0.222505 0.814623
Si Si4 0.993268 0.809154 0.946446
Si Si5 0.584782 0.229380 0.710620
O O1 0.280952 0.280952 0.634790
O O2 0.345466 0.068890 0.647042
O O3 0.465574 0.215680 0.590530
O O4 0.470172 0.232504 0.680115
O O5 0.498603 0.357581 0.824161
O O6 0.555299 0.203538 0.764282
O O7 0.369434 0.167464 0.809486
O O8 0.875619 0.875619 0.933410
O O9 0.983855 0.769028 0.000000
O O10 0.091882 0.908119 0.945761
O O11 0.650063 0.349938 0.708465
#
# Coordination Sequence:
#
# PCOD9569828 Si02
#       5
#    16   4  16  16  16
#     4  11  22  35  56  85 114 150 186 228 288 355
#     4  12  24  40  60  72 105 154 201 242 272 344
#     4  12  24  39  53  77 110 153 195 235 287 327
#     4   8  15  31  55  85 117 145 182 237 294 346
#     4  12  24  36  54  77 111 149 193 242 280 327
#
# _framework density 17.515930999999998
#
# number of rings (size 3 to 8) (size 9 to 14) (size 15 to 20)
#    0.000    1.176    5.882    2.118    1.647    1.412 
#    0.000    0.000    0.000    2.824    0.000    1.647 
#    0.000    0.000    0.000    0.000    0.000    0.000 
#
# Total GULP energy -378545.698226 kJ/mol
# GULP energy per Si atom -5566.848503 kJ/mol
# Density = 1.747606 g / cm^3
# Si number density = 17.515931 Si / 1000 Ang^3
#
#
#
# Elastic Constant Matrix: (Units=GPa)
#
#
# Indices 1 2 3 4 5 6 
#
# 1 50.7567 -6.6502 21.1632 0.0000 0.0000 0.0000
# 2 -6.6502 50.7567 21.1632 0.0000 0.0000 0.0000
# 3 21.1632 21.1632 79.4671 0.0000 0.0000 0.0000
# 4 0.0000 0.0000 0.0000 13.5004 0.0000 0.0000
# 5 0.0000 0.0000 0.0000 0.0000 13.5004 0.0000
# 6 0.0000 0.0000 0.0000 0.0000 0.0000 19.4517
#
#
#
# Elastic Compliance Matrix: (Units=1/GPa)
#
#
# Indices 1 2 3 4 5 6 
#
# 1 0.023938 0.006518 -0.008111 0.000000 0.000000 0.000000
# 2 0.006518 0.023938 -0.008111 0.000000 0.000000 0.000000
# 3 -0.008111 -0.008111 0.016904 0.000000 0.000000 0.000000
# 4 0.000000 0.000000 0.000000 0.074072 0.000000 0.000000
# 5 0.000000 0.000000 0.000000 0.000000 0.074072 0.000000
# 6 0.000000 0.000000 0.000000 0.000000 0.000000 0.051410
#
#
# Mechanical properties :
#
#
# Convention : Reuss Voigt Hill
#
# Bulk Modulus (GPa) = 22.03986 28.03699 25.03842
# Shear Modulus (GPa) = 16.73006 18.97746 17.85376
#
# Velocity S-wave (km/s) = 3.09388 3.29514 3.19609
# Velocity P-wave (km/s) = 5.03715 5.52436 5.28637
#
# Compressibility (1/GPa) = 0.04537235
#
# Stress axis : x y z
#
# Youngs Moduli (GPa) = 41.77510 41.77510 59.15805
#
# Poissons Ratio (x) = -0.27230 0.47982
# Poissons Ratio (y) = -0.27230 0.47982
# Poissons Ratio (z) = 0.33883 0.33883
#
# Static dielectric constant tensor:
#      x y z
#    x 1.591330 0.000000 0.000000 
#    y 0.000000 1.591330 0.000000 
#    z 0.000000 0.000000 1.595670 
# 
# From -- ./inp_files/8889.got.cif
#   From: 2010.05.17/outbox.cif.g08.bks.cpg/sg136_5_cif.got.tgz:8889.got - 2010.05.20 12:54:53.
