data_PCOD9569149
_publ_section_title
;
Structure prediction by ZEFSAII (Michael W. Deem and Ramdas Pophale) SiO2 
 PCOD9569149
Probable space group: P 42/M N M
;
_chemical_formula_sum "Si O2"
_cell_formula_units_Z 104
_cell_length_a 27.676917
_cell_length_b 27.676917
_cell_length_c 7.624109
_cell_angle_alpha 90.000000
_cell_angle_beta 90.000000
_cell_angle_gamma 90.000000
_cell_volume 5840.156960
_symmetry_space_group_name_H-M "P 42/M N M"
_symmetry_group_IT_number 136
_symmetry_cell_setting 'tetragonal'
loop_
_space_group_symop_operation_xyz
x,y,z
1/2-y,1/2+x,1/2+z
-x,-y,z
1/2+y,1/2-x,1/2+z
1/2+x,1/2-y,1/2-z
1/2-x,1/2+y,1/2-z
y,x,-z
-y,-x,-z
-x,-y,-z
1/2+y,1/2-x,1/2-z
x,y,-z
1/2-y,1/2+x,1/2-z
1/2-x,1/2+y,1/2+z
1/2+x,1/2-y,1/2+z
-y,-x,z
y,x,z
loop_
_atom_site_type_symbol
_atom_site_label
_atom_site_fract_x
_atom_site_fract_y
_atom_site_fract_z
Si Si1 0.040715 0.743673 0.210258
Si Si2 0.216367 0.783634 0.715277
Si Si3 0.500601 0.418558 0.500000
Si Si4 0.858599 0.500265 0.711501
Si Si5 0.397420 0.896105 0.290082
Si Si6 0.203938 0.354709 0.790628
Si Si7 0.138128 0.861873 0.712481
Si Si8 0.651215 0.527877 0.797976
O O1 0.013348 0.695469 0.271560
O O2 0.097032 0.736188 0.261079
O O3 0.017023 0.792076 0.284198
O O4 0.038718 0.746187 0.000000
O O5 0.217417 0.782584 0.500000
O O6 0.267396 0.807052 0.773166
O O7 0.176790 0.823211 0.773324
O O8 0.452794 0.452794 0.500000
O O9 0.545619 0.454382 0.500000
O O10 0.500268 0.384041 0.330623
O O11 0.857429 0.498041 0.500000
O O12 0.877355 0.448794 0.777841
O O13 0.890525 0.546913 0.757914
O O14 0.397336 0.889146 0.500000
O O15 0.349440 0.868343 0.220652
O O16 0.199479 0.349214 0.000000
O O17 0.139817 0.860184 0.500000
O O18 0.149206 0.916364 0.764332
O O19 0.635356 0.525010 0.000000
#
# Coordination Sequence:
#
# PCOD9569149 Si02
#       8
#    16   8   8  16  16  16   8  16
#     4  10  18  29  47  71  97 128 164 211 259 309
#     4   9  14  22  40  68  97 123 147 188 245 306
#     4  11  24  38  52  76 108 142 180 219 268 322
#     4   9  19  33  48  70  99 132 166 213 262 306
#     4   9  18  32  48  68  95 131 169 211 254 309
#     4   9  16  27  44  67  96 125 156 197 248 313
#     4   9  16  25  43  72 104 131 158 199 253 312
#     4  11  20  33  52  75 104 138 175 215 263 319
#
# _framework density 17.807739999999999
#
# number of rings (size 3 to 8) (size 9 to 14) (size 15 to 20)
#    0.000    2.385    3.077    0.462    0.000    1.846 
#    0.000    3.462    0.000    0.000    2.000    0.000 
#    0.000    0.000    0.000    0.000    0.000    0.000 
#
# Total GULP energy -579755.802997 kJ/mol
# GULP energy per Si atom -5574.575029 kJ/mol
# Density = 1.776721 g / cm^3
# Si number density = 17.807740 Si / 1000 Ang^3
#
#
#
# Elastic Constant Matrix: (Units=GPa)
#
#
# Indices 1 2 3 4 5 6 
#
# 1 108.8039 75.4423 17.0986 0.0000 0.0000 0.0000
# 2 75.4423 108.8029 17.0986 0.0000 0.0000 0.0000
# 3 17.0986 17.0986 53.4167 0.0000 0.0000 0.0000
# 4 0.0000 0.0000 0.0000 8.9071 0.0000 0.0000
# 5 0.0000 0.0000 0.0000 0.0000 8.9009 0.0000
# 6 0.0000 0.0000 0.0000 0.0000 0.0000 29.1554
#
#
#
# Elastic Compliance Matrix: (Units=1/GPa)
#
#
# Indices 1 2 3 4 5 6 
#
# 1 0.017873 -0.012102 -0.001847 0.000000 0.000000 0.000000
# 2 -0.012102 0.017873 -0.001847 0.000000 0.000000 0.000000
# 3 -0.001847 -0.001847 0.019903 0.000000 0.000000 0.000000
# 4 0.000000 0.000000 0.000000 0.112270 0.000000 0.000000
# 5 0.000000 0.000000 0.000000 0.000000 0.112348 0.000000
# 6 0.000000 0.000000 0.000000 0.000000 0.000000 0.034299
#
#
# Mechanical properties :
#
#
# Convention : Reuss Voigt Hill
#
# Bulk Modulus (GPa) = 41.57032 54.47807 48.02420
# Shear Modulus (GPa) = 14.11722 20.15160 17.13441
#
# Velocity S-wave (km/s) = 2.81865 3.36761 3.10528
# Velocity P-wave (km/s) = 5.82990 6.76608 6.31536
#
# Compressibility (1/GPa) = 0.02405562
#
# Stress axis : x y z
#
# Youngs Moduli (GPa) = 55.95158 55.95103 50.24307
#
# Poissons Ratio (x) = 0.67714 0.09280
# Poissons Ratio (y) = 0.67714 0.09280
# Poissons Ratio (z) = 0.10335 0.10335
#
# Static dielectric constant tensor:
#      x y z
#    x 1.617910 0.000000 0.000000 
#    y 0.000000 1.617910 0.000000 
#    z 0.000000 0.000000 1.664720 
# 
# From -- ./inp_files/2282.got.cif
#   From: 2010.05.17/outbox.cif.g08.bks.cpg/sg136_2_cif.got.tgz:2282.got - 2010.05.20 12:54:53.
