data_PCOD9569457
_publ_section_title
;
Structure prediction by ZEFSAII (Michael W. Deem and Ramdas Pophale) SiO2 
 PCOD9569457
Probable space group: P 42/M N M
;
_chemical_formula_sum "Si O2"
_cell_formula_units_Z 92
_cell_length_a 23.523903
_cell_length_b 23.523903
_cell_length_c 8.324531
_cell_angle_alpha 90.000000
_cell_angle_beta 90.000000
_cell_angle_gamma 90.000000
_cell_volume 4606.579120
_symmetry_space_group_name_H-M "P 42/M N M"
_symmetry_group_IT_number 136
_symmetry_cell_setting 'tetragonal'
loop_
_space_group_symop_operation_xyz
x,y,z
1/2-y,1/2+x,1/2+z
-x,-y,z
1/2+y,1/2-x,1/2+z
1/2+x,1/2-y,1/2-z
1/2-x,1/2+y,1/2-z
y,x,-z
-y,-x,-z
-x,-y,-z
1/2+y,1/2-x,1/2-z
x,y,-z
1/2-y,1/2+x,1/2-z
1/2-x,1/2+y,1/2+z
1/2+x,1/2-y,1/2+z
-y,-x,z
y,x,z
loop_
_atom_site_type_symbol
_atom_site_label
_atom_site_fract_x
_atom_site_fract_y
_atom_site_fract_z
Si Si1 0.389524 0.389524 0.833989
Si Si2 0.544273 0.717870 0.500000
Si Si3 0.887196 0.112805 0.000000
Si Si4 0.160136 0.348502 0.691000
Si Si5 0.219184 0.125039 0.316771
Si Si6 0.837080 0.928822 0.000000
Si Si7 0.918108 0.244388 0.674414
Si Si8 0.567456 0.057469 0.810483
O O1 0.411636 0.411636 0.664758
O O2 0.401631 0.322077 0.833241
O O3 0.413460 0.413460 0.000000
O O4 0.601858 0.680541 0.500000
O O5 0.496068 0.669903 0.500000
O O6 0.542915 0.751889 0.666831
O O7 0.172426 0.355171 0.500000
O O8 0.137616 0.285101 0.713034
O O9 0.216157 0.363993 0.790597
O O10 0.112247 0.394450 0.737500
O O11 0.212766 0.100447 0.500000
O O12 0.183697 0.183697 0.318546
O O13 0.193882 0.090982 0.165211
O O14 0.898219 0.898219 0.000000
O O15 0.943282 0.259375 0.500000
O O16 0.502798 0.076225 0.775826
O O17 0.573550 0.047681 0.000000
#
# Coordination Sequence:
#
# PCOD9569457 Si02
#       8
#     8   8   4  16  16   8  16  16
#     4   8  16  30  46  75 111 149 178 208 266 346
#     4  10  20  38  57  84 119 150 190 240 287 347
#     4   8  16  32  55  76 112 150 176 226 292 328
#     4  10  21  36  53  83 113 141 188 234 277 339
#     4   9  20  39  58  83 118 153 188 231 282 338
#     4  10  22  40  61  84 113 155 202 237 276 335
#     4  10  20  33  53  83 117 148 184 227 287 343
#     4  10  21  38  56  73 101 137 183 232 279 329
#
# _framework density 19.971436000000001
#
# number of rings (size 3 to 8) (size 9 to 14) (size 15 to 20)
#    0.000    2.435    0.870    1.043    2.435    3.478 
#    0.000    1.957    0.000    0.000    0.000    0.000 
#    0.000    9.739    0.000    0.000    0.000    0.000 
#
# Total GULP energy -512414.094284 kJ/mol
# GULP energy per Si atom -5569.718416 kJ/mol
# Density = 1.992598 g / cm^3
# Si number density = 19.971436 Si / 1000 Ang^3
#
#
#
# Elastic Constant Matrix: (Units=GPa)
#
#
# Indices 1 2 3 4 5 6 
#
# 1 38.1007 10.6316 11.1459 0.0000 0.0000 0.0000
# 2 10.6316 38.1032 11.1460 0.0000 0.0000 0.0000
# 3 11.1459 11.1460 143.2563 0.0000 0.0000 0.0000
# 4 0.0000 0.0000 0.0000 6.1907 0.0000 0.0000
# 5 0.0000 0.0000 0.0000 0.0000 6.1906 0.0000
# 6 0.0000 0.0000 0.0000 0.0000 0.0000 11.3350
#
#
#
# Elastic Compliance Matrix: (Units=1/GPa)
#
#
# Indices 1 2 3 4 5 6 
#
# 1 0.028841 -0.007563 -0.001655 0.000000 0.000000 0.000000
# 2 -0.007563 0.028839 -0.001655 0.000000 0.000000 0.000000
# 3 -0.001655 -0.001655 0.007238 0.000000 0.000000 0.000000
# 4 0.000000 0.000000 0.000000 0.161533 0.000000 0.000000
# 5 0.000000 0.000000 0.000000 0.000000 0.161535 0.000000
# 6 0.000000 0.000000 0.000000 0.000000 0.000000 0.088222
#
#
# Mechanical properties :
#
#
# Convention : Reuss Voigt Hill
#
# Bulk Modulus (GPa) = 23.16406 31.70079 27.43243
# Shear Modulus (GPa) = 9.75903 17.17904 13.46904
#
# Velocity S-wave (km/s) = 2.21294 2.93607 2.59977
# Velocity P-wave (km/s) = 4.26066 5.23464 4.77256
#
# Compressibility (1/GPa) = 0.04317032
#
# Stress axis : x y z
#
# Youngs Moduli (GPa) = 34.67296 34.67525 138.15792
#
# Poissons Ratio (x) = 0.26225 0.22872
# Poissons Ratio (y) = 0.26223 0.22870
# Poissons Ratio (z) = 0.05740 0.05740
#
# Static dielectric constant tensor:
#      x y z
#    x 1.688010 0.000000 0.000000 
#    y 0.000000 1.688010 0.000000 
#    z 0.000000 0.000000 1.798310 
# 
# From -- ./inp_files/2107.got.cif
#   From: 2010.05.17/outbox.cif.g08.bks.cpg/sg136_2_cif.got.tgz:2107.got - 2010.05.20 12:54:53.
