data_PCOD9569725
_publ_section_title
;
Structure prediction by ZEFSAII (Michael W. Deem and Ramdas Pophale) SiO2 
 PCOD9569725
Probable space group: P 42/M N M
;
_chemical_formula_sum "Si O2"
_cell_formula_units_Z 84
_cell_length_a 12.365121
_cell_length_b 12.365121
_cell_length_c 27.280060
_cell_angle_alpha 90.000000
_cell_angle_beta 90.000000
_cell_angle_gamma 90.000000
_cell_volume 4171.017983
_symmetry_space_group_name_H-M "P 42/M N M"
_symmetry_group_IT_number 136
_symmetry_cell_setting 'tetragonal'
loop_
_space_group_symop_operation_xyz
x,y,z
1/2-y,1/2+x,1/2+z
-x,-y,z
1/2+y,1/2-x,1/2+z
1/2+x,1/2-y,1/2-z
1/2-x,1/2+y,1/2-z
y,x,-z
-y,-x,-z
-x,-y,-z
1/2+y,1/2-x,1/2-z
x,y,-z
1/2-y,1/2+x,1/2-z
1/2-x,1/2+y,1/2+z
1/2+x,1/2-y,1/2+z
-y,-x,z
y,x,z
loop_
_atom_site_type_symbol
_atom_site_label
_atom_site_fract_x
_atom_site_fract_y
_atom_site_fract_z
Si Si1 0.888464 0.292210 0.292381
Si Si2 0.005315 0.745885 0.804351
Si Si3 0.505683 0.317655 0.500000
Si Si4 0.280706 0.897483 0.089391
Si Si5 0.500000 0.500000 0.718283
Si Si6 0.407588 0.407588 0.055639
Si Si7 0.762275 0.948578 0.623104
O O1 0.813951 0.186050 0.294612
O O2 0.816485 0.392678 0.309606
O O3 0.922926 0.313953 0.236430
O O4 0.992268 0.271012 0.326750
O O5 0.058172 0.751204 0.857604
O O6 0.998139 0.867023 0.784212
O O7 0.414474 0.414474 0.500000
O O8 0.619139 0.380862 0.500000
O O9 0.484750 0.243890 0.547652
O O10 0.201625 0.798376 0.076435
O O11 0.396254 0.841774 0.096851
O O12 0.500000 0.500000 0.052448
O O13 0.462370 0.313341 0.087119
O O14 0.377680 0.377680 0.000000
O O15 0.853776 0.853776 0.631432
#
# Coordination Sequence:
#
# PCOD9569725 Si02
#       7
#    16  16   8  16   4   8  16
#     4  12  25  41  65  96 128 168 217 265 321 395
#     4  12  26  42  66  94 129 168 212 265 325 387
#     4   9  20  34  62  94 127 171 226 281 326 387
#     4  10  21  39  61  93 129 166 215 269 325 387
#     4  12  24  40  70  95 122 170 209 262 316 382
#     4   9  18  34  61  93 124 165 214 256 306 376
#     4  10  22  38  63  93 129 169 212 266 323 385
#
# _framework density 20.138967999999998
#
# number of rings (size 3 to 8) (size 9 to 14) (size 15 to 20)
#    0.000    1.333    3.810    1.143    4.000    4.190 
#    0.000    0.000    2.095    1.143    0.000    0.000 
#    0.000    0.000    0.000    0.000    0.000    0.000 
#
# Total GULP energy -467902.316996 kJ/mol
# GULP energy per Si atom -5570.265679 kJ/mol
# Density = 2.009313 g / cm^3
# Si number density = 20.138968 Si / 1000 Ang^3
#
#
#
# Elastic Constant Matrix: (Units=GPa)
#
#
# Indices 1 2 3 4 5 6 
#
# 1 135.7867 -28.9375 16.6650 0.0000 0.0000 0.0000
# 2 -28.9375 135.7877 16.6658 0.0000 0.0000 0.0000
# 3 16.6650 16.6658 90.3957 0.0000 0.0000 0.0000
# 4 0.0000 0.0000 0.0000 18.6678 0.0000 0.0000
# 5 0.0000 0.0000 0.0000 0.0000 18.6682 0.0000
# 6 0.0000 0.0000 0.0000 0.0000 0.0000 31.0838
#
#
#
# Elastic Compliance Matrix: (Units=1/GPa)
#
#
# Indices 1 2 3 4 5 6 
#
# 1 0.008000 0.001930 -0.001831 0.000000 0.000000 0.000000
# 2 0.001930 0.008000 -0.001831 0.000000 0.000000 0.000000
# 3 -0.001831 -0.001831 0.011737 0.000000 0.000000 0.000000
# 4 0.000000 0.000000 0.000000 0.053568 0.000000 0.000000
# 5 0.000000 0.000000 0.000000 0.000000 0.053567 0.000000
# 6 0.000000 0.000000 0.000000 0.000000 0.000000 0.032171
#
#
# Mechanical properties :
#
#
# Convention : Reuss Voigt Hill
#
# Bulk Modulus (GPa) = 41.19516 41.19520 41.19518
# Shear Modulus (GPa) = 27.99554 37.52240 32.75897
#
# Velocity S-wave (km/s) = 3.73247 4.32113 4.03755
# Velocity P-wave (km/s) = 6.25100 6.73766 6.49889
#
# Compressibility (1/GPa) = 0.02427470
#
# Stress axis : x y z
#
# Youngs Moduli (GPa) = 124.99388 124.99454 85.19706
#
# Poissons Ratio (x) = -0.24119 0.15597
# Poissons Ratio (y) = -0.24119 0.15597
# Poissons Ratio (z) = 0.22882 0.22883
#
# Static dielectric constant tensor:
#      x y z
#    x 1.719840 0.000000 0.000000 
#    y 0.000000 1.719840 0.000000 
#    z 0.000000 0.000000 1.711540 
# 
# From -- ./inp_files/9804.got.cif
#   From: 2010.05.17/outbox.cif.g08.bks.cpg/sg136_5_cif.got.tgz:9804.got - 2010.05.20 12:54:53.
