data_PCOD9569138
_publ_section_title
;
Structure prediction by ZEFSAII (Michael W. Deem and Ramdas Pophale) SiO2 
 PCOD9569138
Probable space group: P 42/M N M
;
_chemical_formula_sum "Si O2"
_cell_formula_units_Z 104
_cell_length_a 17.367177
_cell_length_b 17.367177
_cell_length_c 18.619548
_cell_angle_alpha 90.000000
_cell_angle_beta 90.000000
_cell_angle_gamma 90.000000
_cell_volume 5616.006412
_symmetry_space_group_name_H-M "P 42/M N M"
_symmetry_group_IT_number 136
_symmetry_cell_setting 'tetragonal'
loop_
_space_group_symop_operation_xyz
x,y,z
1/2-y,1/2+x,1/2+z
-x,-y,z
1/2+y,1/2-x,1/2+z
1/2+x,1/2-y,1/2-z
1/2-x,1/2+y,1/2-z
y,x,-z
-y,-x,-z
-x,-y,-z
1/2+y,1/2-x,1/2-z
x,y,-z
1/2-y,1/2+x,1/2-z
1/2-x,1/2+y,1/2+z
1/2+x,1/2-y,1/2+z
-y,-x,z
y,x,z
loop_
_atom_site_type_symbol
_atom_site_label
_atom_site_fract_x
_atom_site_fract_y
_atom_site_fract_z
Si Si1 0.389571 0.610430 0.352051
Si Si2 0.897441 0.332427 0.580355
Si Si3 0.944995 0.181859 0.355745
Si Si4 0.778230 0.778230 0.919041
Si Si5 0.954011 0.177347 0.918086
Si Si6 0.565468 0.434533 0.807995
Si Si7 0.627118 0.753313 0.711007
Si Si8 0.908476 0.583714 0.771981
O O1 0.325030 0.674971 0.360750
O O2 0.357301 0.534244 0.390667
O O3 0.408123 0.591878 0.270203
O O4 0.907773 0.362114 0.500000
O O5 0.949410 0.257470 0.595825
O O6 0.811249 0.297785 0.587497
O O7 0.908846 0.393832 0.643096
O O8 0.878095 0.121906 0.379737
O O9 0.918950 0.212215 0.276753
O O10 0.023345 0.134621 0.348589
O O11 0.802537 0.802537 0.000000
O O12 0.892070 0.107931 0.916927
O O13 0.921305 0.238959 0.861418
O O14 0.961245 0.205482 0.000000
O O15 0.500000 0.500000 0.797055
O O16 0.707600 0.707600 0.705250
O O17 0.632745 0.842292 0.732496
O O18 0.895197 0.494731 0.749767
#
# Coordination Sequence:
#
# PCOD9569138 Si02
#       8
#     8  16  16   8  16   8  16  16
#     4  12  20  29  46  79 121 159 195 246 285 343
#     4  10  21  39  62  84 114 151 193 245 300 346
#     4   9  16  30  52  77 108 146 188 232 284 344
#     4  10  22  34  50  82 115 147 194 248 299 344
#     4  10  19  30  46  74 117 164 199 232 284 348
#     4  10  18  28  49  81 114 156 199 233 285 356
#     4   9  18  34  56  80 111 152 195 239 288 348
#     4  10  23  42  63  88 118 151 195 245 290 352
#
# _framework density 18.518497
#
# number of rings (size 3 to 8) (size 9 to 14) (size 15 to 20)
#    0.000    2.154    2.308    1.385    3.231    0.615 
#    0.000    2.692    6.769    1.385    0.000    0.000 
#    0.000    0.000    0.000    0.000    0.000    0.000 
#
# Total GULP energy -580532.177710 kJ/mol
# GULP energy per Si atom -5582.040170 kJ/mol
# Density = 1.847635 g / cm^3
# Si number density = 18.518497 Si / 1000 Ang^3
#
#
#
# Elastic Constant Matrix: (Units=GPa)
#
#
# Indices 1 2 3 4 5 6 
#
# 1 31.4283 18.6159 26.9911 0.0000 0.0000 0.0000
# 2 18.6159 31.4283 26.9911 0.0000 0.0000 0.0000
# 3 26.9911 26.9911 109.4933 0.0000 0.0000 0.0000
# 4 0.0000 0.0000 0.0000 14.1164 0.0000 0.0000
# 5 0.0000 0.0000 0.0000 0.0000 14.1164 0.0000
# 6 0.0000 0.0000 0.0000 0.0000 0.0000 10.6348
#
#
#
# Elastic Compliance Matrix: (Units=1/GPa)
#
#
# Indices 1 2 3 4 5 6 
#
# 1 0.052635 -0.025415 -0.006710 0.000000 0.000000 0.000000
# 2 -0.025415 0.052635 -0.006710 0.000000 0.000000 0.000000
# 3 -0.006710 -0.006710 0.012441 0.000000 0.000000 0.000000
# 4 0.000000 0.000000 0.000000 0.070840 0.000000 0.000000
# 5 0.000000 0.000000 0.000000 0.000000 0.070840 0.000000
# 6 0.000000 0.000000 0.000000 0.000000 0.000000 0.094031
#
#
# Mechanical properties :
#
#
# Convention : Reuss Voigt Hill
#
# Bulk Modulus (GPa) = 24.97400 35.28291 30.12846
# Shear Modulus (GPa) = 11.25017 14.42364 12.83691
#
# Velocity S-wave (km/s) = 2.46745 2.79387 2.63571
# Velocity P-wave (km/s) = 4.65113 5.43155 5.05642
#
# Compressibility (1/GPa) = 0.04004165
#
# Stress axis : x y z
#
# Youngs Moduli (GPa) = 18.99878 18.99878 80.37827
#
# Poissons Ratio (x) = 0.48285 0.53934
# Poissons Ratio (y) = 0.48285 0.53934
# Poissons Ratio (z) = 0.12748 0.12748
#
# Static dielectric constant tensor:
#      x y z
#    x 1.640070 0.000000 0.000000 
#    y 0.000000 1.640070 0.000000 
#    z 0.000000 0.000000 1.645170 
# 
# From -- ./inp_files/6459.got.cif
#   From: 2010.05.17/outbox.cif.g08.bks.cpg/sg136_4_cif.got.tgz:6459.got - 2010.05.20 12:54:53.
