data_PCOD9569287
_publ_section_title
;
Structure prediction by ZEFSAII (Michael W. Deem and Ramdas Pophale) SiO2 
 PCOD9569287
Probable space group: P 42/M N M
;
_chemical_formula_sum "Si O2"
_cell_formula_units_Z 96
_cell_length_a 15.835333
_cell_length_b 15.835333
_cell_length_c 24.211052
_cell_angle_alpha 90.000000
_cell_angle_beta 90.000000
_cell_angle_gamma 90.000000
_cell_volume 6071.109438
_symmetry_space_group_name_H-M "P 42/M N M"
_symmetry_group_IT_number 136
_symmetry_cell_setting 'tetragonal'
loop_
_space_group_symop_operation_xyz
x,y,z
1/2-y,1/2+x,1/2+z
-x,-y,z
1/2+y,1/2-x,1/2+z
1/2+x,1/2-y,1/2-z
1/2-x,1/2+y,1/2-z
y,x,-z
-y,-x,-z
-x,-y,-z
1/2+y,1/2-x,1/2-z
x,y,-z
1/2-y,1/2+x,1/2-z
1/2-x,1/2+y,1/2+z
1/2+x,1/2-y,1/2+z
-y,-x,z
y,x,z
loop_
_atom_site_type_symbol
_atom_site_label
_atom_site_fract_x
_atom_site_fract_y
_atom_site_fract_z
Si Si1 0.517502 0.754801 0.911404
Si Si2 0.368145 0.940236 0.000000
Si Si3 0.881800 0.564592 0.000000
Si Si4 0.241468 0.475486 0.220625
Si Si5 0.688364 0.827070 0.590065
Si Si6 0.567687 0.567687 0.220380
Si Si7 0.067841 0.932160 0.413983
Si Si8 0.811693 0.331325 0.777956
O O1 0.531928 0.764141 0.845957
O O2 0.417623 0.767823 0.921388
O O3 0.543467 0.661917 0.930018
O O4 0.568679 0.823676 0.945979
O O5 0.327563 0.896117 0.946400
O O6 0.467731 0.915616 0.000000
O O7 0.370726 0.041019 0.000000
O O8 0.338373 0.457967 0.237188
O O9 0.188674 0.399777 0.247824
O O10 0.216305 0.572091 0.234204
O O11 0.751706 0.751706 0.574872
O O12 0.674188 0.824108 0.655879
O O13 0.500000 0.500000 0.240362
O O14 0.566151 0.566151 0.153311
O O15 0.000000 0.000000 0.433437
O O16 0.737730 0.262271 0.764042
#
# Coordination Sequence:
#
# PCOD9569287 Si02
#       8
#    16   8   8  16  16   8   8  16
#     4   9  18  30  46  67  94 130 160 196 237 289
#     4   9  17  30  48  64  87 124 162 193 239 291
#     4   9  18  31  43  62  92 126 163 196 225 287
#     4  10  19  32  50  71 101 133 167 205 257 302
#     4   9  17  30  49  71  95 119 154 205 253 288
#     4   9  16  30  51  70  91 132 177 205 239 299
#     4   9  16  27  46  69  94 124 162 197 233 282
#     4  10  20  33  49  74 103 131 165 210 253 305
#
# _framework density 15.812597
#
# number of rings (size 3 to 8) (size 9 to 14) (size 15 to 20)
#    0.000    2.667    0.833    1.250    0.000    6.000 
#    0.000    5.000    0.000    0.000    0.000    0.000 
#    0.000    0.000    0.000    4.083    0.000    0.083 
#
# Total GULP energy -534847.525576 kJ/mol
# GULP energy per Si atom -5571.328391 kJ/mol
# Density = 1.577661 g / cm^3
# Si number density = 15.812597 Si / 1000 Ang^3
#
#
#
# Elastic Constant Matrix: (Units=GPa)
#
#
# Indices 1 2 3 4 5 6 
#
# 1 127.6337 71.2799 42.9424 0.0000 0.0000 0.0000
# 2 71.2799 127.6337 42.9424 0.0000 0.0000 0.0000
# 3 42.9424 42.9424 39.9024 0.0000 0.0000 0.0000
# 4 0.0000 0.0000 0.0000 19.8759 0.0000 0.0000
# 5 0.0000 0.0000 0.0000 0.0000 19.8759 0.0000
# 6 0.0000 0.0000 0.0000 0.0000 0.0000 31.2960
#
#
#
# Elastic Compliance Matrix: (Units=1/GPa)
#
#
# Indices 1 2 3 4 5 6 
#
# 1 0.013568 -0.004177 -0.010106 0.000000 0.000000 0.000000
# 2 -0.004177 0.013568 -0.010106 0.000000 0.000000 0.000000
# 3 -0.010106 -0.010106 0.046814 0.000000 0.000000 0.000000
# 4 0.000000 0.000000 0.000000 0.050312 0.000000 0.000000
# 5 0.000000 0.000000 0.000000 0.000000 0.050312 0.000000
# 6 0.000000 0.000000 0.000000 0.000000 0.000000 0.031953
#
#
# Mechanical properties :
#
#
# Convention : Reuss Voigt Hill
#
# Bulk Modulus (GPa) = 39.72957 67.72214 53.72586
# Shear Modulus (GPa) = 18.96116 23.40991 21.18554
#
# Velocity S-wave (km/s) = 3.46658 3.85185 3.66428
# Velocity P-wave (km/s) = 6.41894 7.91854 7.20784
#
# Compressibility (1/GPa) = 0.02517017
#
# Stress axis : x y z
#
# Youngs Moduli (GPa) = 73.70286 73.70286 21.36114
#
# Poissons Ratio (x) = 0.30786 0.21588
# Poissons Ratio (y) = 0.30786 0.21588
# Poissons Ratio (z) = 0.74487 0.74487
#
# Static dielectric constant tensor:
#      x y z
#    x 1.519060 0.000000 0.000000 
#    y 0.000000 1.519060 0.000000 
#    z 0.000000 0.000000 1.537880 
# 
# From -- ./inp_files/8464.got.cif
#   From: 2010.05.17/outbox.cif.g08.bks.cpg/sg136_5_cif.got.tgz:8464.got - 2010.05.20 12:54:53.
