data_PCOD9569119
_publ_section_title
;
Structure prediction by ZEFSAII (Michael W. Deem and Ramdas Pophale) SiO2 
 PCOD9569119
Probable space group: P 42/M N M
;
_chemical_formula_sum "Si O2"
_cell_formula_units_Z 112
_cell_length_a 15.149918
_cell_length_b 15.149918
_cell_length_c 31.104691
_cell_angle_alpha 90.000000
_cell_angle_beta 90.000000
_cell_angle_gamma 90.000000
_cell_volume 7139.149158
_symmetry_space_group_name_H-M "P 42/M N M"
_symmetry_group_IT_number 136
_symmetry_cell_setting 'tetragonal'
loop_
_space_group_symop_operation_xyz
x,y,z
1/2-y,1/2+x,1/2+z
-x,-y,z
1/2+y,1/2-x,1/2+z
1/2+x,1/2-y,1/2-z
1/2-x,1/2+y,1/2-z
y,x,-z
-y,-x,-z
-x,-y,-z
1/2+y,1/2-x,1/2-z
x,y,-z
1/2-y,1/2+x,1/2-z
1/2-x,1/2+y,1/2+z
1/2+x,1/2-y,1/2+z
-y,-x,z
y,x,z
loop_
_atom_site_type_symbol
_atom_site_label
_atom_site_fract_x
_atom_site_fract_y
_atom_site_fract_z
Si Si1 0.505592 0.642088 0.175948
Si Si2 0.248065 0.606532 0.050137
Si Si3 0.915980 0.225119 0.411297
Si Si4 0.904419 0.600376 0.871804
Si Si5 0.390356 0.900151 0.118017
Si Si6 0.364652 0.778898 0.800142
Si Si7 0.094899 0.399606 0.231340
O O1 0.430733 0.569268 0.165301
O O2 0.586282 0.586282 0.196674
O O3 0.543216 0.685948 0.132929
O O4 0.453729 0.719268 0.200538
O O5 0.335014 0.664987 0.060616
O O6 0.262816 0.502312 0.059179
O O7 0.167364 0.636475 0.080590
O O8 0.227988 0.619328 0.000000
O O9 0.845097 0.154904 0.428183
O O10 0.869760 0.317091 0.397186
O O11 0.906371 0.496551 0.883270
O O12 0.897635 0.603425 0.819888
O O13 0.998910 0.642002 0.884207
O O14 0.371190 0.853850 0.163573
O O15 0.286740 0.713261 0.812013
O O16 0.349034 0.824805 0.754660
O O17 0.116470 0.494979 0.251599
#
# Coordination Sequence:
#
# PCOD9569119 Si02
#       7
#    16  16  16  16  16  16  16
#     4   9  16  27  43  62  90 128 162 194 234 281
#     4  10  20  33  51  74 100 126 153 196 246 291
#     4  10  19  31  46  67  95 130 166 194 230 288
#     4  10  18  30  49  65  93 128 162 199 240 279
#     4  10  17  32  48  69  91 125 160 195 238 293
#     4  11  19  28  46  70  93 124 163 204 244 287
#     4  11  17  29  45  66  91 122 159 203 243 276
#
# _framework density 15.688143999999999
#
# number of rings (size 3 to 8) (size 9 to 14) (size 15 to 20)
#    0.000    1.857    5.714    1.714    0.000    1.714 
#    0.000    7.143    0.000    0.000    0.000    0.000 
#    0.000    2.286    0.000    1.571    0.000    0.000 
#
# Total GULP energy -623482.085099 kJ/mol
# GULP energy per Si atom -5566.804331 kJ/mol
# Density = 1.565244 g / cm^3
# Si number density = 15.688144 Si / 1000 Ang^3
#
#
#
# Elastic Constant Matrix: (Units=GPa)
#
#
# Indices 1 2 3 4 5 6 
#
# 1 65.0326 24.0723 22.7513 0.0000 0.0000 0.0000
# 2 24.0723 65.0326 22.7513 0.0000 0.0000 0.0000
# 3 22.7513 22.7513 60.3511 0.0000 0.0000 0.0000
# 4 0.0000 0.0000 0.0000 9.2407 0.0000 0.0000
# 5 0.0000 0.0000 0.0000 0.0000 9.2407 0.0000
# 6 0.0000 0.0000 0.0000 0.0000 0.0000 4.7847
#
#
#
# Elastic Compliance Matrix: (Units=1/GPa)
#
#
# Indices 1 2 3 4 5 6 
#
# 1 0.019156 -0.005258 -0.005239 0.000000 0.000000 0.000000
# 2 -0.005258 0.019156 -0.005239 0.000000 0.000000 0.000000
# 3 -0.005239 -0.005239 0.020520 0.000000 0.000000 0.000000
# 4 0.000000 0.000000 0.000000 0.108217 0.000000 0.000000
# 5 0.000000 0.000000 0.000000 0.000000 0.108217 0.000000
# 6 0.000000 0.000000 0.000000 0.000000 0.000000 0.208998
#
#
# Mechanical properties :
#
#
# Convention : Reuss Voigt Hill
#
# Bulk Modulus (GPa) = 36.55106 36.61845 36.58476
# Shear Modulus (GPa) = 9.52642 12.70933 11.11787
#
# Velocity S-wave (km/s) = 2.46689 2.84935 2.66499
# Velocity P-wave (km/s) = 5.60920 5.84955 5.73064
#
# Compressibility (1/GPa) = 0.02735899
#
# Stress axis : x y z
#
# Youngs Moduli (GPa) = 52.20274 52.20274 48.73277
#
# Poissons Ratio (x) = 0.27447 0.25533
# Poissons Ratio (y) = 0.27447 0.25533
# Poissons Ratio (z) = 0.27351 0.27351
#
# Static dielectric constant tensor:
#      x y z
#    x 1.567810 0.000000 0.000000 
#    y 0.000000 1.567810 0.000000 
#    z 0.000000 0.000000 1.506300 
# 
# From -- ./inp_files/9218.got.cif
#   From: 2010.05.17/outbox.cif.g08.bks.cpg/sg136_5_cif.got.tgz:9218.got - 2010.05.20 12:54:53.
