data_PCOD9569343
_publ_section_title
;
Structure prediction by ZEFSAII (Michael W. Deem and Ramdas Pophale) SiO2 
 PCOD9569343
Probable space group: P 42/M N M
;
_chemical_formula_sum "Si O2"
_cell_formula_units_Z 80
_cell_length_a 12.921853
_cell_length_b 12.921853
_cell_length_c 26.793573
_cell_angle_alpha 90.000000
_cell_angle_beta 90.000000
_cell_angle_gamma 90.000000
_cell_volume 4473.837693
_symmetry_space_group_name_H-M "P 42/M N M"
_symmetry_group_IT_number 136
_symmetry_cell_setting 'tetragonal'
loop_
_space_group_symop_operation_xyz
x,y,z
1/2-y,1/2+x,1/2+z
-x,-y,z
1/2+y,1/2-x,1/2+z
1/2+x,1/2-y,1/2-z
1/2-x,1/2+y,1/2-z
y,x,-z
-y,-x,-z
-x,-y,-z
1/2+y,1/2-x,1/2-z
x,y,-z
1/2-y,1/2+x,1/2-z
1/2-x,1/2+y,1/2+z
1/2+x,1/2-y,1/2+z
-y,-x,z
y,x,z
loop_
_atom_site_type_symbol
_atom_site_label
_atom_site_fract_x
_atom_site_fract_y
_atom_site_fract_z
Si Si1 0.166844 0.508339 0.658786
Si Si2 0.997095 0.171373 0.753466
Si Si3 0.931487 0.757521 0.556032
Si Si4 0.524978 0.876870 0.554704
Si Si5 0.179407 0.502389 0.839879
O O1 0.258357 0.498510 0.697413
O O2 0.190516 0.516510 0.599929
O O3 0.095288 0.405045 0.661570
O O4 0.098225 0.609354 0.669950
O O5 0.086991 0.086991 0.756874
O O6 0.014675 0.240484 0.704636
O O7 0.889296 0.110705 0.749121
O O8 0.980406 0.768151 0.500000
O O9 0.853835 0.853835 0.562987
O O10 0.869229 0.649080 0.553282
O O11 0.998515 0.737403 0.606151
O O12 0.482409 0.853840 0.500000
O O13 0.500000 0.000000 0.564587
#
# Coordination Sequence:
#
# PCOD9569343 Si02
#       5
#    16  16  16  16  16
#     4  10  19  33  55  84 106 135 174 222 271 325
#     4  11  25  40  52  70 102 144 186 228 272 321
#     4   9  16  26  46  78 112 143 175 215 265 323
#     4   9  15  28  49  78 112 141 167 211 267 318
#     4  10  19  34  55  81 108 136 175 222 275 330
#
# _framework density 17.881737999999999
#
# number of rings (size 3 to 8) (size 9 to 14) (size 15 to 20)
#    0.000    2.200    4.000    1.800    0.000    8.000 
#    0.000    0.000    0.000    1.200    0.000    7.000 
#    0.000    0.000    0.000    0.000    0.000    0.000 
#
# Total GULP energy -445455.416921 kJ/mol
# GULP energy per Si atom -5568.192712 kJ/mol
# Density = 1.784104 g / cm^3
# Si number density = 17.881738 Si / 1000 Ang^3
#
#
#
# Elastic Constant Matrix: (Units=GPa)
#
#
# Indices 1 2 3 4 5 6 
#
# 1 56.8260 15.9752 40.8089 0.0000 0.0000 0.0000
# 2 15.9752 56.8260 40.8089 0.0000 0.0000 0.0000
# 3 40.8089 40.8089 156.7211 0.0000 0.0000 0.0000
# 4 0.0000 0.0000 0.0000 0.0806 0.0000 0.0000
# 5 0.0000 0.0000 0.0000 0.0000 0.0806 0.0000
# 6 0.0000 0.0000 0.0000 0.0000 0.0000 -2.9720
#
#
#
# Elastic Compliance Matrix: (Units=1/GPa)
#
#
# Indices 1 2 3 4 5 6 
#
# 1 0.021939 -0.002540 -0.005051 0.000000 0.000000 0.000000
# 2 -0.002540 0.021939 -0.005051 0.000000 0.000000 0.000000
# 3 -0.005051 -0.005051 0.009011 0.000000 0.000000 0.000000
# 4 0.000000 0.000000 0.000000 12.408487 0.000000 0.000000
# 5 0.000000 0.000000 0.000000 0.000000 12.408487 0.000000
# 6 0.000000 0.000000 0.000000 0.000000 0.000000 -0.336471
#
#
# Mechanical properties :
#
#
# Convention : Reuss Voigt Hill
#
# Bulk Modulus (GPa) = 36.22630 51.72878 43.97754
# Shear Modulus (GPa) = 0.20352 10.95651 5.58001
#
# Velocity S-wave (km/s) = 0.33773 2.47800 1.76841
# Velocity P-wave (km/s) = 4.52271 6.09741 5.36811
#
# Compressibility (1/GPa) = 0.02760425
#
# Stress axis : x y z
#
# Youngs Moduli (GPa) = 45.58043 45.58043 110.97000
#
# Poissons Ratio (x) = 0.11578 0.56055
# Poissons Ratio (y) = 0.11578 0.56055
# Poissons Ratio (z) = 0.23024 0.23024
#
# Static dielectric constant tensor:
#      x y z
#    x 1.209860 0.000000 0.000000 
#    y 0.000000 1.209860 0.000000 
#    z 0.000000 0.000000 1.675550 
# 
# From -- ./inp_files/9515.got.cif
#   From: 2010.05.17/outbox.cif.g08.bks.cpg/sg136_5_cif.got.tgz:9515.got - 2010.05.20 12:54:53.
