data_PCOD9569435
_publ_section_title
;
Structure prediction by ZEFSAII (Michael W. Deem and Ramdas Pophale) SiO2 
 PCOD9569435
Probable space group: P 42/M N M
;
_chemical_formula_sum "Si O2"
_cell_formula_units_Z 96
_cell_length_a 23.520761
_cell_length_b 23.520761
_cell_length_c 7.693821
_cell_angle_alpha 90.000000
_cell_angle_beta 90.000000
_cell_angle_gamma 90.000000
_cell_volume 4256.423340
_symmetry_space_group_name_H-M "P 42/M N M"
_symmetry_group_IT_number 136
_symmetry_cell_setting 'tetragonal'
loop_
_space_group_symop_operation_xyz
x,y,z
1/2-y,1/2+x,1/2+z
-x,-y,z
1/2+y,1/2-x,1/2+z
1/2+x,1/2-y,1/2-z
1/2-x,1/2+y,1/2-z
y,x,-z
-y,-x,-z
-x,-y,-z
1/2+y,1/2-x,1/2-z
x,y,-z
1/2-y,1/2+x,1/2-z
1/2-x,1/2+y,1/2+z
1/2+x,1/2-y,1/2+z
-y,-x,z
y,x,z
loop_
_atom_site_type_symbol
_atom_site_label
_atom_site_fract_x
_atom_site_fract_y
_atom_site_fract_z
Si Si1 0.995279 0.681877 0.795964
Si Si2 0.155605 0.750429 0.289311
Si Si3 0.199978 0.629092 0.292414
Si Si4 0.573045 0.045835 0.693071
Si Si5 0.582951 0.325936 0.209536
Si Si6 0.538068 0.701312 0.194064
O O1 0.929664 0.667246 0.748962
O O2 0.044472 0.636142 0.763420
O O3 0.011679 0.735686 0.684359
O O4 0.994885 0.696647 0.000000
O O5 0.146801 0.746074 0.500000
O O6 0.209760 0.790241 0.259036
O O7 0.172190 0.687253 0.223014
O O8 0.099343 0.783942 0.222924
O O9 0.198597 0.635189 0.500000
O O10 0.265664 0.614355 0.247565
O O11 0.563722 0.977544 0.684288
O O12 0.566644 0.070282 0.500000
O O13 0.623385 0.376616 0.271931
O O14 0.517394 0.329381 0.275964
O O15 0.578705 0.329216 0.000000
O O16 0.548209 0.677366 0.000000
#
# Coordination Sequence:
#
# PCOD9569435 Si02
#       6
#    16  16  16  16  16  16
#     4  10  20  33  49  73 101 130 166 212 256 302
#     4   9  17  30  50  75  99 127 165 205 248 303
#     4   9  18  31  49  73  99 126 162 206 251 298
#     4  11  22  36  51  69  95 131 175 219 258 297
#     4   9  17  30  48  71  99 128 163 205 250 303
#     4   9  18  32  50  71  96 132 167 203 255 307
#
# _framework density 22.554148000000001
#
# number of rings (size 3 to 8) (size 9 to 14) (size 15 to 20)
#    0.000    2.500    0.000    3.000    2.333    1.667 
#    0.000    0.833    0.000    2.000    0.000    3.500 
#    0.000    0.000    0.000    8.333    0.000    8.667 
#
# Total GULP energy -534690.560888 kJ/mol
# GULP energy per Si atom -5569.693343 kJ/mol
# Density = 2.250281 g / cm^3
# Si number density = 22.554148 Si / 1000 Ang^3
#
#
#
# Elastic Constant Matrix: (Units=GPa)
#
#
# Indices 1 2 3 4 5 6 
#
# 1 72.2776 12.6813 5.9769 0.0000 0.0000 0.0000
# 2 12.6813 72.2776 5.9769 0.0000 0.0000 0.0000
# 3 5.9769 5.9769 56.6630 0.0000 0.0000 0.0000
# 4 0.0000 0.0000 0.0000 -1.4551 0.0000 0.0000
# 5 0.0000 0.0000 0.0000 0.0000 -1.4551 0.0000
# 6 0.0000 0.0000 0.0000 0.0000 0.0000 39.7490
#
#
#
# Elastic Compliance Matrix: (Units=1/GPa)
#
#
# Indices 1 2 3 4 5 6 
#
# 1 0.014364 -0.002416 -0.001260 0.000000 0.000000 0.000000
# 2 -0.002416 0.014364 -0.001260 0.000000 0.000000 0.000000
# 3 -0.001260 -0.001260 0.017914 0.000000 0.000000 0.000000
# 4 0.000000 0.000000 0.000000 -0.687242 0.000000 0.000000
# 5 0.000000 0.000000 0.000000 0.000000 -0.687242 0.000000
# 6 0.000000 0.000000 0.000000 0.000000 0.000000 0.025158
#
#
# Mechanical properties :
#
#
# Convention : Reuss Voigt Hill
#
# Bulk Modulus (GPa) = 27.19724 27.83205 27.51464
# Shear Modulus (GPa) = -3.90456 19.13997 7.61771
#
# Velocity S-wave (km/s) = -1.31718 2.91627 1.83980
# Velocity P-wave (km/s) = 3.12595 4.86893 4.09133
#
# Compressibility (1/GPa) = 0.03676844
#
# Stress axis : x y z
#
# Youngs Moduli (GPa) = 69.62029 69.62029 55.82203
#
# Poissons Ratio (x) = 0.16820 0.07035
# Poissons Ratio (y) = 0.16820 0.07035
# Poissons Ratio (z) = 0.08774 0.08774
#
# Static dielectric constant tensor:
#      x y z
#    x 1.924710 0.000000 0.000000 
#    y 0.000000 1.924710 0.000000 
#    z 0.000000 0.000000 1.841750 
# 
# From -- ./inp_files/1953.got.cif
#   From: 2010.05.17/outbox.cif.g08.bks.cpg/sg136_1_cif.got.tgz:1953.got - 2010.05.20 12:54:53.
