data_PCOD9569968
_publ_section_title
;
Structure prediction by ZEFSAII (Michael W. Deem and Ramdas Pophale) SiO2 
 PCOD9569968
Probable space group: P 42/N M C
;
_chemical_formula_sum "Si O2"
_cell_formula_units_Z 96
_cell_length_a 20.029788
_cell_length_b 20.029788
_cell_length_c 13.291231
_cell_angle_alpha 90.000000
_cell_angle_beta 90.000000
_cell_angle_gamma 90.000000
_cell_volume 5332.340961
_symmetry_space_group_name_H-M "P 42/N M C"
_symmetry_group_IT_number 137
_space_group.IT_coordinate_system_code '2'
_symmetry_cell_setting 'tetragonal'
loop_
_space_group_symop_operation_xyz
x,y,z
1/2-y,x,1/2+z
1/2-x,1/2-y,z
y,1/2-x,1/2+z
1/2+x,-y,-z
-x,1/2+y,-z
1/2+y,1/2+x,1/2-z
-y,-x,1/2-z
-x,-y,-z
1/2+y,-x,1/2-z
1/2+x,1/2+y,-z
-y,1/2+x,1/2-z
1/2-x,y,z
x,1/2-y,z
1/2-y,1/2-x,1/2+z
y,x,1/2+z
loop_
_atom_site_type_symbol
_atom_site_label
_atom_site_fract_x
_atom_site_fract_y
_atom_site_fract_z
Si Si1 0.820156 0.671636 0.027308
Si Si2 0.674762 0.937557 0.407488
Si Si3 0.559075 0.036777 0.367811
Si Si4 0.484520 0.828436 0.235793
Si Si5 0.324411 0.355281 0.246037
Si Si6 0.570982 0.058752 0.906046
O O1 0.750000 0.639544 0.997450
O O2 0.820788 0.750000 0.994276
O O3 0.823752 0.672799 0.145439
O O4 0.889759 0.641577 0.991449
O O5 0.750000 0.957309 0.434877
O O6 0.673791 0.884533 0.317256
O O7 0.628251 0.998086 0.382221
O O8 0.559611 0.059611 0.250000
O O9 0.555869 0.080565 0.472194
O O10 0.497786 0.984339 0.378881
O O11 0.466662 0.750000 0.228637
O O12 0.564983 0.832093 0.243114
O O13 0.458324 0.871819 0.140353
O O14 0.457248 0.864365 0.337174
O O15 0.250000 0.340741 0.206293
#
# Coordination Sequence:
#
# PCOD9569968 Si02
#       6
#    16  16  16  16  16  16
#     4   9  18  30  44  66 102 149 190 229 277 325
#     4  11  21  33  50  76 107 144 193 238 277 333
#     4  11  21  37  58  79 113 159 202 239 303 357
#     4  10  19  36  61  88 112 148 200 251 305 356
#     4  10  18  30  47  72 108 148 188 226 274 330
#     4  10  20  37  58  83 114 150 196 252 303 360
#
# _framework density 18.003350000000001
#
# number of rings (size 3 to 8) (size 9 to 14) (size 15 to 20)
#    0.000    1.833    3.333    2.000    0.000    5.000 
#    0.000    0.833    0.000    4.000    0.000    0.000 
#    0.000    1.667    0.000    0.667    0.000    0.000 
#
# Total GULP energy -534586.906241 kJ/mol
# GULP energy per Si atom -5568.613607 kJ/mol
# Density = 1.796237 g / cm^3
# Si number density = 18.003350 Si / 1000 Ang^3
#
#
#
# Elastic Constant Matrix: (Units=GPa)
#
#
# Indices 1 2 3 4 5 6 
#
# 1 66.8361 23.3277 20.9410 0.0000 0.0000 0.0000
# 2 23.3277 66.8361 20.9410 0.0000 0.0000 0.0000
# 3 20.9410 20.9410 139.7759 0.0000 0.0000 0.0000
# 4 0.0000 0.0000 0.0000 13.2080 0.0000 0.0000
# 5 0.0000 0.0000 0.0000 0.0000 13.2080 0.0000
# 6 0.0000 0.0000 0.0000 0.0000 0.0000 31.4660
#
#
#
# Elastic Compliance Matrix: (Units=1/GPa)
#
#
# Indices 1 2 3 4 5 6 
#
# 1 0.017452 -0.005532 -0.001786 0.000000 0.000000 0.000000
# 2 -0.005532 0.017452 -0.001786 0.000000 0.000000 0.000000
# 3 -0.001786 -0.001786 0.007689 0.000000 0.000000 0.000000
# 4 0.000000 0.000000 0.000000 0.075712 0.000000 0.000000
# 5 0.000000 0.000000 0.000000 0.000000 0.075712 0.000000
# 6 0.000000 0.000000 0.000000 0.000000 0.000000 0.031780
#
#
# Mechanical properties :
#
#
# Convention : Reuss Voigt Hill
#
# Bulk Modulus (GPa) = 41.00582 44.87418 42.94000
# Shear Modulus (GPa) = 19.83074 25.45895 22.64484
#
# Velocity S-wave (km/s) = 3.32249 3.76456 3.55041
# Velocity P-wave (km/s) = 6.12738 6.62386 6.38045
#
# Compressibility (1/GPa) = 0.02438678
#
# Stress axis : x y z
#
# Youngs Moduli (GPa) = 57.29902 57.29902 130.04856
#
# Poissons Ratio (x) = 0.31697 0.23226
# Poissons Ratio (y) = 0.31697 0.23226
# Poissons Ratio (z) = 0.10233 0.10233
#
# Static dielectric constant tensor:
#      x y z
#    x 1.626340 0.000000 0.000000 
#    y 0.000000 1.626340 0.000000 
#    z 0.000000 0.000000 1.723670 
# 
# From -- ./inp_files/3794.got.cif
#   From: 2010.05.17/outbox.cif.g08.bks.cpg/sg137_2_cif.got.tgz:3794.got - 2010.05.20 13:01:12.
