data_PCOD9569585
_publ_section_title
;
Structure prediction by ZEFSAII (Michael W. Deem and Ramdas Pophale) SiO2 
 PCOD9569585
Probable space group: P 42/M N M
;
_chemical_formula_sum "Si O2"
_cell_formula_units_Z 112
_cell_length_a 13.802748
_cell_length_b 13.802748
_cell_length_c 32.565973
_cell_angle_alpha 90.000000
_cell_angle_beta 90.000000
_cell_angle_gamma 90.000000
_cell_volume 6204.334104
_symmetry_space_group_name_H-M "P 42/M N M"
_symmetry_group_IT_number 136
_symmetry_cell_setting 'tetragonal'
loop_
_space_group_symop_operation_xyz
x,y,z
1/2-y,1/2+x,1/2+z
-x,-y,z
1/2+y,1/2-x,1/2+z
1/2+x,1/2-y,1/2-z
1/2-x,1/2+y,1/2-z
y,x,-z
-y,-x,-z
-x,-y,-z
1/2+y,1/2-x,1/2-z
x,y,-z
1/2-y,1/2+x,1/2-z
1/2-x,1/2+y,1/2+z
1/2+x,1/2-y,1/2+z
-y,-x,z
y,x,z
loop_
_atom_site_type_symbol
_atom_site_label
_atom_site_fract_x
_atom_site_fract_y
_atom_site_fract_z
Si Si1 0.840269 0.526582 0.250501
Si Si2 0.618870 0.775811 0.167321
Si Si3 0.286955 0.140339 0.951535
Si Si4 0.612514 0.018708 0.597842
Si Si5 0.782707 0.939707 0.176741
Si Si6 0.321221 0.167612 0.451184
Si Si7 0.529762 0.681896 0.411667
O O1 0.896805 0.426404 0.239199
O O2 0.782742 0.570930 0.212158
O O3 0.767347 0.502821 0.287645
O O4 0.674330 0.674330 0.159987
O O5 0.539718 0.814327 0.135150
O O6 0.702326 0.858507 0.165716
O O7 0.244943 0.244943 0.938744
O O8 0.383697 0.111743 0.928638
O O9 0.206883 0.062655 0.938705
O O10 0.301327 0.139861 0.000000
O O11 0.500000 0.000000 0.610729
O O12 0.656042 0.934534 0.569473
O O13 0.879044 0.879044 0.188962
O O14 0.803925 0.000595 0.135797
O O15 0.343681 0.166370 0.500000
O O16 0.213640 0.213640 0.446949
O O17 0.391701 0.240584 0.427157
O O18 0.578336 0.578336 0.417526
#
# Coordination Sequence:
#
# PCOD9569585 Si02
#       7
#    16  16  16  16  16  16  16
#     4   9  20  34  59  84 112 147 196 240 284 341
#     4  10  21  37  58  86 119 149 183 242 301 345
#     4  11  23  37  55  84 120 154 193 241 291 347
#     4  12  22  35  65  88 113 150 203 242 291 345
#     4  10  20  37  56  82 120 158 192 234 289 349
#     4  10  22  39  58  85 120 153 193 250 304 346
#     4  11  22  36  56  82 117 158 197 234 285 352
#
# _framework density 18.051898000000001
#
# number of rings (size 3 to 8) (size 9 to 14) (size 15 to 20)
#    0.000    1.571    2.857    1.714    6.000    3.143 
#    0.000    1.429    0.000    2.571    0.000    5.000 
#    0.000    0.000    0.000    0.000    0.000    0.000 
#
# Total GULP energy -624771.077742 kJ/mol
# GULP energy per Si atom -5578.313194 kJ/mol
# Density = 1.801081 g / cm^3
# Si number density = 18.051898 Si / 1000 Ang^3
#
#
#
# Elastic Constant Matrix: (Units=GPa)
#
#
# Indices 1 2 3 4 5 6 
#
# 1 46.7762 39.6034 19.8821 0.0000 0.0000 0.0000
# 2 39.6034 46.7762 19.8821 0.0000 0.0000 0.0000
# 3 19.8821 19.8821 54.0577 0.0000 0.0000 0.0000
# 4 0.0000 0.0000 0.0000 30.8098 0.0000 0.0000
# 5 0.0000 0.0000 0.0000 0.0000 30.8098 0.0000
# 6 0.0000 0.0000 0.0000 0.0000 0.0000 24.1525
#
#
#
# Elastic Compliance Matrix: (Units=1/GPa)
#
#
# Indices 1 2 3 4 5 6 
#
# 1 0.076677 -0.062740 -0.005126 0.000000 0.000000 0.000000
# 2 -0.062740 0.076677 -0.005126 0.000000 0.000000 0.000000
# 3 -0.005126 -0.005126 0.022269 0.000000 0.000000 0.000000
# 4 0.000000 0.000000 0.000000 0.032457 0.000000 0.000000
# 5 0.000000 0.000000 0.000000 0.000000 0.032457 0.000000
# 6 0.000000 0.000000 0.000000 0.000000 0.000000 0.041404
#
#
# Mechanical properties :
#
#
# Convention : Reuss Voigt Hill
#
# Bulk Modulus (GPa) = 33.73923 34.03835 33.88879
# Shear Modulus (GPa) = 11.42066 21.70391 16.56228
#
# Velocity S-wave (km/s) = 2.51800 3.47119 3.03228
# Velocity P-wave (km/s) = 5.21387 5.91289 5.57435
#
# Compressibility (1/GPa) = 0.02963909
#
# Stress axis : x y z
#
# Youngs Moduli (GPa) = 13.04180 13.04180 44.90509
#
# Poissons Ratio (x) = 0.81824 0.23017
# Poissons Ratio (y) = 0.81824 0.23017
# Poissons Ratio (z) = 0.06685 0.06685
#
# Static dielectric constant tensor:
#      x y z
#    x 1.616060 0.000000 0.000000 
#    y 0.000000 1.616060 0.000000 
#    z 0.000000 0.000000 1.612810 
# 
# From -- ./inp_files/9977.got.cif
#   From: 2010.05.17/outbox.cif.g08.bks.cpg/sg136_5_cif.got.tgz:9977.got - 2010.05.20 12:54:53.
