data_PCOD9569923
_publ_section_title
;
Structure prediction by ZEFSAII (Michael W. Deem and Ramdas Pophale) SiO2 
 PCOD9569923
Probable space group: P 42/M N M
;
_chemical_formula_sum "Si O2"
_cell_formula_units_Z 80
_cell_length_a 12.000000
_cell_length_b 12.000000
_cell_length_c 30.000000
_cell_angle_alpha 90.000000
_cell_angle_beta 90.000000
_cell_angle_gamma 90.000000
_cell_volume 4320.000000
_symmetry_space_group_name_H-M "P 42/M N M"
_symmetry_group_IT_number 136
_symmetry_cell_setting 'tetragonal'
loop_
_space_group_symop_operation_xyz
x,y,z
1/2-y,1/2+x,1/2+z
-x,-y,z
1/2+y,1/2-x,1/2+z
1/2+x,1/2-y,1/2-z
1/2-x,1/2+y,1/2-z
y,x,-z
-y,-x,-z
-x,-y,-z
1/2+y,1/2-x,1/2-z
x,y,-z
1/2-y,1/2+x,1/2-z
1/2-x,1/2+y,1/2+z
1/2+x,1/2-y,1/2+z
-y,-x,z
y,x,z
loop_
_atom_site_type_symbol
_atom_site_label
_atom_site_fract_x
_atom_site_fract_y
_atom_site_fract_z
Si Si1 0.413161 0.224253 0.856881
Si Si2 0.008072 0.817801 0.102447
Si Si3 0.648434 0.159456 0.551154
Si Si4 0.693704 0.986461 0.193610
Si Si5 0.401513 0.777333 0.789896
O O1 0.319832 0.319832 0.856114
O O2 0.423231 0.183931 0.908405
O O3 0.522644 0.262585 0.830921
O O4 0.367448 0.121331 0.827097
O O5 0.910086 0.910086 0.103203
O O6 0.962208 0.721242 0.069979
O O7 0.020626 0.774466 0.153000
O O8 0.119896 0.880105 0.087559
O O9 0.635955 0.118804 0.500000
O O10 0.745654 0.254347 0.550085
O O11 0.614880 0.090716 0.204115
O O12 0.745922 0.954167 0.241277
O O13 0.283225 0.716776 0.791274
#
# Coordination Sequence:
#
# PCOD9569923 Si02
#       5
#    16  16  16  16  16
#     4  10  21  37  57  82 112 145 185 230 272 320
#     4   9  17  29  48  76 110 143 178 228 283 330
#     4   8  15  30  53  79 106 139 181 227 275 326
#     4  11  21  36  53  75 107 148 187 220 267 329
#     4  12  24  36  56  81 109 147 187 227 271 324
#
# _framework density 18.518519000000001
#
# number of rings (size 3 to 8) (size 9 to 14) (size 15 to 20)
#    0.000    2.000    2.000    4.200    0.000    1.600 
#    0.000    2.000    0.000   10.200    0.000    2.800 
#    0.000    0.000    0.000    0.000    0.000    0.000 
#
# Total GULP energy -445984.250252 kJ/mol
# GULP energy per Si atom -5574.803128 kJ/mol
# Density = 1.847637 g / cm^3
# Si number density = 18.518519 Si / 1000 Ang^3
#
#
#
# Elastic Constant Matrix: (Units=GPa)
#
#
# Indices 1 2 3 4 5 6 
#
# 1 31.5243 -9.5025 6.3790 0.0000 0.0000 0.0000
# 2 -9.5025 31.5243 6.3790 0.0000 0.0000 0.0000
# 3 6.3790 6.3790 148.3169 0.0000 0.0000 0.0000
# 4 0.0000 0.0000 0.0000 20.0687 0.0000 0.0000
# 5 0.0000 0.0000 0.0000 0.0000 20.0687 0.0000
# 6 0.0000 0.0000 0.0000 0.0000 0.0000 6.7835
#
#
#
# Elastic Compliance Matrix: (Units=1/GPa)
#
#
# Indices 1 2 3 4 5 6 
#
# 1 0.035472 0.011098 -0.002003 0.000000 0.000000 0.000000
# 2 0.011098 0.035472 -0.002003 0.000000 0.000000 0.000000
# 3 -0.002003 -0.002003 0.006915 0.000000 0.000000 0.000000
# 4 0.000000 0.000000 0.000000 0.049829 0.000000 0.000000
# 5 0.000000 0.000000 0.000000 0.000000 0.049829 0.000000
# 6 0.000000 0.000000 0.000000 0.000000 0.000000 0.147416
#
#
# Mechanical properties :
#
#
# Convention : Reuss Voigt Hill
#
# Bulk Modulus (GPa) = 10.86449 24.20847 17.53648
# Shear Modulus (GPa) = 14.64434 23.25821 18.95127
#
# Velocity S-wave (km/s) = 2.81516 3.54777 3.20248
# Velocity P-wave (km/s) = 4.05541 5.46655 4.81298
#
# Compressibility (1/GPa) = 0.09204298
#
# Stress axis : x y z
#
# Youngs Moduli (GPa) = 28.19110 28.19110 144.62134
#
# Poissons Ratio (x) = -0.31286 0.28967
# Poissons Ratio (y) = -0.31286 0.28967
# Poissons Ratio (z) = 0.05646 0.05646
#
# Static dielectric constant tensor:
#      x y z
#    x 1.655720 0.000000 0.000000 
#    y 0.000000 1.655720 0.000000 
#    z 0.000000 0.000000 1.634470 
# 
# From -- ./inp_files/9504.got.cif
#   From: 2010.05.17/outbox.ucp.g08.bks.cvg/sg136_5_cif.got.tgz:9504.got - 2010.06.11 11:40:42.
