data_PCOD9569003
_publ_section_title
;
Structure prediction by ZEFSAII (Michael W. Deem and Ramdas Pophale) SiO2 
 PCOD9569003
Probable space group: P 42/M B C
;
_chemical_formula_sum "Si O2"
_cell_formula_units_Z 80
_cell_length_a 16.416515
_cell_length_b 16.416515
_cell_length_c 16.214791
_cell_angle_alpha 90.000000
_cell_angle_beta 90.000000
_cell_angle_gamma 90.000000
_cell_volume 4369.918032
_symmetry_space_group_name_H-M "P 42/M B C"
_symmetry_group_IT_number 135
_symmetry_cell_setting 'tetragonal'
loop_
_space_group_symop_operation_xyz
x,y,z
-y,x,1/2+z
-x,-y,z
y,-x,1/2+z
1/2+x,1/2-y,-z
1/2-x,1/2+y,-z
1/2+y,1/2+x,1/2-z
1/2-y,1/2-x,1/2-z
-x,-y,-z
y,-x,1/2-z
x,y,-z
-y,x,1/2-z
1/2-x,1/2+y,z
1/2+x,1/2-y,z
1/2-y,1/2-x,1/2+z
1/2+y,1/2+x,1/2+z
loop_
_atom_site_type_symbol
_atom_site_label
_atom_site_fract_x
_atom_site_fract_y
_atom_site_fract_z
Si Si1 0.122068 0.975669 0.721337
Si Si2 0.058428 0.392412 0.404598
Si Si3 0.435454 0.109536 0.157452
Si Si4 0.207202 0.091990 0.402157
Si Si5 0.747678 0.640804 0.808034
O O1 0.149404 0.023692 0.639878
O O2 0.088060 0.046883 0.782525
O O3 0.199870 0.927236 0.754974
O O4 0.080776 0.405502 0.500000
O O5 0.089288 0.468779 0.350596
O O6 0.097463 0.312396 0.366992
O O7 0.960730 0.392181 0.396144
O O8 0.403245 0.096756 0.250000
O O9 0.423220 0.199763 0.124398
O O10 0.199188 0.091555 0.500000
O O11 0.182778 0.178272 0.362813
O O12 0.795227 0.704774 0.750000
#
# Coordination Sequence:
#
# PCOD9569003 Si02
#       5
#    16  16  16  16  16
#     4   9  20  40  61  81 111 152 197 235 279 348
#     4  11  21  35  54  82 113 145 186 236 281 335
#     4  11  21  36  57  79 109 151 191 224 279 352
#     4  11  22  38  59  87 115 145 187 244 295 338
#     4  11  22  37  58  83 114 151 189 232 287 345
#
# _framework density 18.306979999999999
#
# number of rings (size 3 to 8) (size 9 to 14) (size 15 to 20)
#    0.000    1.400    0.000    8.400    0.000    1.600 
#    0.000   10.000    0.000    0.000    0.000    0.000 
#    0.000    0.000    0.000    0.000    0.000    0.000 
#
# Total GULP energy -446792.259236 kJ/mol
# GULP energy per Si atom -5584.903240 kJ/mol
# Density = 1.826531 g / cm^3
# Si number density = 18.306980 Si / 1000 Ang^3
#
#
#
# Elastic Constant Matrix: (Units=GPa)
#
#
# Indices 1 2 3 4 5 6 
#
# 1 100.7894 65.7667 53.7729 0.0000 0.0000 0.0000
# 2 65.7667 100.7885 53.7746 0.0000 0.0000 0.0000
# 3 53.7729 53.7746 122.4492 0.0000 0.0000 0.0000
# 4 0.0000 0.0000 0.0000 -2.9357 0.0000 0.0000
# 5 0.0000 0.0000 0.0000 0.0000 -2.9307 0.0000
# 6 0.0000 0.0000 0.0000 0.0000 0.0000 33.3025
#
#
#
# Elastic Compliance Matrix: (Units=1/GPa)
#
#
# Indices 1 2 3 4 5 6 
#
# 1 0.018467 -0.010086 -0.003680 0.000000 0.000000 0.000000
# 2 -0.010086 0.018467 -0.003681 0.000000 0.000000 0.000000
# 3 -0.003680 -0.003681 0.011399 0.000000 0.000000 0.000000
# 4 0.000000 0.000000 0.000000 -0.340640 0.000000 0.000000
# 5 0.000000 0.000000 0.000000 0.000000 -0.341219 0.000000
# 6 0.000000 0.000000 0.000000 0.000000 0.000000 0.030028
#
#
# Mechanical properties :
#
#
# Convention : Reuss Voigt Hill
#
# Bulk Modulus (GPa) = 74.41151 74.51727 74.46439
# Shear Modulus (GPa) = -8.86328 15.53477 3.33574
#
# Velocity S-wave (km/s) = -2.20272 2.91618 1.35132
# Velocity P-wave (km/s) = 5.85367 7.22021 6.57255
#
# Compressibility (1/GPa) = 0.01343878
#
# Stress axis : x y z
#
# Youngs Moduli (GPa) = 54.15193 54.15026 87.72672
#
# Poissons Ratio (x) = 0.54618 0.32283
# Poissons Ratio (y) = 0.54620 0.32289
# Poissons Ratio (z) = 0.19928 0.19930
#
# Static dielectric constant tensor:
#      x y z
#    x 1.635740 0.000000 0.000000 
#    y 0.000000 1.635740 0.000000 
#    z 0.000000 0.000000 1.605960 
# 
# From -- ./inp_files/3436.got.cif
#   From: 2010.05.17/outbox.cif.g08.bks.cpg/sg135_2_cif.got.tgz:3436.got - 2010.05.20 12:50:20.
