data_PCOD9569012
_publ_section_title
;
Structure prediction by ZEFSAII (Michael W. Deem and Ramdas Pophale) SiO2 
 PCOD9569012
Probable space group: P 42/M B C
;
_chemical_formula_sum "Si O2"
_cell_formula_units_Z 96
_cell_length_a 14.043996
_cell_length_b 14.043996
_cell_length_c 22.965264
_cell_angle_alpha 90.000000
_cell_angle_beta 90.000000
_cell_angle_gamma 90.000000
_cell_volume 4529.526830
_symmetry_space_group_name_H-M "P 42/M B C"
_symmetry_group_IT_number 135
_symmetry_cell_setting 'tetragonal'
loop_
_space_group_symop_operation_xyz
x,y,z
-y,x,1/2+z
-x,-y,z
y,-x,1/2+z
1/2+x,1/2-y,-z
1/2-x,1/2+y,-z
1/2+y,1/2+x,1/2-z
1/2-y,1/2-x,1/2-z
-x,-y,-z
y,-x,1/2-z
x,y,-z
-y,x,1/2-z
1/2-x,1/2+y,z
1/2+x,1/2-y,z
1/2-y,1/2-x,1/2+z
1/2+y,1/2+x,1/2+z
loop_
_atom_site_type_symbol
_atom_site_label
_atom_site_fract_x
_atom_site_fract_y
_atom_site_fract_z
Si Si1 0.576799 0.743186 0.844888
Si Si2 0.519238 0.173416 0.736305
Si Si3 0.116168 0.487528 0.104737
Si Si4 0.619414 0.568572 0.227578
Si Si5 0.213870 0.671591 0.063910
Si Si6 0.595546 0.224574 0.932891
O O1 0.558501 0.805551 0.786339
O O2 0.590412 0.634833 0.825352
O O3 0.665451 0.776223 0.882187
O O4 0.487171 0.756409 0.886915
O O5 0.582075 0.082075 0.750000
O O6 0.492863 0.156730 0.669441
O O7 0.581600 0.270202 0.740679
O O8 0.171398 0.565342 0.066605
O O9 0.136242 0.379533 0.084882
O O10 0.000000 0.500000 0.103095
O O11 0.601730 0.455354 0.222554
O O12 0.325609 0.692642 0.069892
O O13 0.187801 0.711839 0.000000
O O14 0.561880 0.217622 0.000000
#
# Coordination Sequence:
#
# PCOD9569012 Si02
#       6
#    16  16  16  16  16  16
#     4  11  22  40  65  95 137 176 220 282 338 406
#     4  11  22  40  62  99 137 171 219 278 340 415
#     4  12  24  43  69 101 141 179 227 282 352 417
#     4   9  21  40  60  91 128 179 218 263 329 413
#     4  11  25  43  68  98 133 183 232 283 347 400
#     4  11  24  43  67  99 136 178 235 287 338 407
#
# _framework density 21.194265999999999
#
# number of rings (size 3 to 8) (size 9 to 14) (size 15 to 20)
#    0.000    1.167    3.333    2.000    0.000    9.667 
#    0.000    0.000    0.000    0.000    0.000   25.667 
#    0.000    0.000    0.000    0.000    0.000    0.000 
#
# Total GULP energy -535859.354750 kJ/mol
# GULP energy per Si atom -5581.868279 kJ/mol
# Density = 2.114603 g / cm^3
# Si number density = 21.194266 Si / 1000 Ang^3
#
#
#
# Elastic Constant Matrix: (Units=GPa)
#
#
# Indices 1 2 3 4 5 6 
#
# 1 32.7176 28.8209 12.0566 0.0000 0.0000 0.0000
# 2 28.8209 32.7176 12.0566 0.0000 0.0000 0.0000
# 3 12.0566 12.0566 125.8804 0.0000 0.0000 0.0000
# 4 0.0000 0.0000 0.0000 28.9449 0.0000 0.0000
# 5 0.0000 0.0000 0.0000 0.0000 28.9449 0.0000
# 6 0.0000 0.0000 0.0000 0.0000 0.0000 27.6754
#
#
#
# Elastic Compliance Matrix: (Units=1/GPa)
#
#
# Indices 1 2 3 4 5 6 
#
# 1 0.136755 -0.119872 -0.001617 0.000000 0.000000 0.000000
# 2 -0.119872 0.136755 -0.001617 0.000000 0.000000 0.000000
# 3 -0.001617 -0.001617 0.008254 0.000000 0.000000 0.000000
# 4 0.000000 0.000000 0.000000 0.034548 0.000000 0.000000
# 5 0.000000 0.000000 0.000000 0.000000 0.034548 0.000000
# 6 0.000000 0.000000 0.000000 0.000000 0.000000 0.036133
#
#
# Mechanical properties :
#
#
# Convention : Reuss Voigt Hill
#
# Bulk Modulus (GPa) = 28.12720 33.02040 30.57380
# Shear Modulus (GPa) = 7.75126 26.33850 17.04488
#
# Velocity S-wave (km/s) = 1.91447 3.52905 2.83896
# Velocity P-wave (km/s) = 4.26461 5.67620 5.02026
#
# Compressibility (1/GPa) = 0.03555277
#
# Stress axis : x y z
#
# Youngs Moduli (GPa) = 7.31234 7.31234 121.15621
#
# Poissons Ratio (x) = 0.87654 0.19592
# Poissons Ratio (y) = 0.87654 0.19592
# Poissons Ratio (z) = 0.01182 0.01182
#
# Static dielectric constant tensor:
#      x y z
#    x 1.786480 0.000000 0.000000 
#    y 0.000000 1.786480 0.000000 
#    z 0.000000 0.000000 2.000700 
# 
# From -- ./inp_files/5456.got.cif
#   From: 2010.05.17/outbox.cif.g08.bks.cpg/sg135_3_cif.got.tgz:5456.got - 2010.05.20 12:50:20.
