data_PCOD9569315
_publ_section_title
;
Structure prediction by ZEFSAII (Michael W. Deem and Ramdas Pophale) SiO2 
 PCOD9569315
Probable space group: P 42/M N M
;
_chemical_formula_sum "Si O2"
_cell_formula_units_Z 80
_cell_length_a 11.791274
_cell_length_b 11.791274
_cell_length_c 31.482317
_cell_angle_alpha 90.000000
_cell_angle_beta 90.000000
_cell_angle_gamma 90.000000
_cell_volume 4377.116949
_symmetry_space_group_name_H-M "P 42/M N M"
_symmetry_group_IT_number 136
_symmetry_cell_setting 'tetragonal'
loop_
_space_group_symop_operation_xyz
x,y,z
1/2-y,1/2+x,1/2+z
-x,-y,z
1/2+y,1/2-x,1/2+z
1/2+x,1/2-y,1/2-z
1/2-x,1/2+y,1/2-z
y,x,-z
-y,-x,-z
-x,-y,-z
1/2+y,1/2-x,1/2-z
x,y,-z
1/2-y,1/2+x,1/2-z
1/2-x,1/2+y,1/2+z
1/2+x,1/2-y,1/2+z
-y,-x,z
y,x,z
loop_
_atom_site_type_symbol
_atom_site_label
_atom_site_fract_x
_atom_site_fract_y
_atom_site_fract_z
Si Si1 0.605997 0.085703 0.046025
Si Si2 0.540365 0.807055 0.842764
Si Si3 0.491807 0.317160 0.069198
Si Si4 0.406075 0.406075 0.684092
Si Si5 0.403679 0.403679 0.214584
Si Si6 0.671600 0.037946 0.140327
O O1 0.550054 0.210309 0.046916
O O2 0.674344 0.062341 0.089412
O O3 0.500000 0.000000 0.048566
O O4 0.663573 0.069519 0.000000
O O5 0.541876 0.731001 0.884976
O O6 0.562660 0.718703 0.805066
O O7 0.419701 0.871549 0.841512
O O8 0.627324 0.911176 0.849569
O O9 0.588245 0.411755 0.073692
O O10 0.382215 0.382215 0.050469
O O11 0.500000 0.500000 0.675381
O O12 0.395191 0.395191 0.734800
O O13 0.442780 0.289327 0.662813
O O14 0.500000 0.500000 0.204139
#
# Coordination Sequence:
#
# PCOD9569315 Si02
#       6
#    16  16  16   8   8  16
#     4  10  20  38  61  88 120 159 206 253 302 370
#     4  10  20  38  65  91 120 165 200 248 307 377
#     4  10  19  32  55  91 126 155 192 245 311 368
#     4  11  28  44  61  89 126 165 210 267 302 353
#     4  11  24  40  64 100 126 154 204 258 316 368
#     4  10  22  43  63  89 122 167 210 247 310 367
#
# _framework density 18.276871
#
# number of rings (size 3 to 8) (size 9 to 14) (size 15 to 20)
#    0.000    1.800    5.000    0.600    8.400    2.400 
#    0.000    3.000    0.000    1.200    0.000    0.000 
#    0.000    0.000    0.000    0.000    0.000    0.000 
#
# Total GULP energy -446084.567792 kJ/mol
# GULP energy per Si atom -5576.057097 kJ/mol
# Density = 1.823527 g / cm^3
# Si number density = 18.276871 Si / 1000 Ang^3
#
#
#
# Elastic Constant Matrix: (Units=GPa)
#
#
# Indices 1 2 3 4 5 6 
#
# 1 116.7430 70.7728 71.5377 0.0000 0.0000 0.0000
# 2 70.7728 116.7430 71.5377 0.0000 0.0000 0.0000
# 3 71.5377 71.5377 134.5966 0.0000 0.0000 0.0000
# 4 0.0000 0.0000 0.0000 20.3062 0.0000 0.0000
# 5 0.0000 0.0000 0.0000 0.0000 20.3062 0.0000
# 6 0.0000 0.0000 0.0000 0.0000 0.0000 7.8805
#
#
#
# Elastic Compliance Matrix: (Units=1/GPa)
#
#
# Indices 1 2 3 4 5 6 
#
# 1 0.015362 -0.006391 -0.004768 0.000000 0.000000 0.000000
# 2 -0.006391 0.015362 -0.004768 0.000000 0.000000 0.000000
# 3 -0.004768 -0.004768 0.012498 0.000000 0.000000 0.000000
# 4 0.000000 0.000000 0.000000 0.049246 0.000000 0.000000
# 5 0.000000 0.000000 0.000000 0.000000 0.049246 0.000000
# 6 0.000000 0.000000 0.000000 0.000000 0.000000 0.126895
#
#
# Mechanical properties :
#
#
# Convention : Reuss Voigt Hill
#
# Bulk Modulus (GPa) = 87.96825 88.41990 88.19407
# Shear Modulus (GPa) = 16.43370 19.98087 18.20729
#
# Velocity S-wave (km/s) = 3.00184 3.30999 3.15968
# Velocity P-wave (km/s) = 7.76210 7.94299 7.85307
#
# Compressibility (1/GPa) = 0.01136774
#
# Stress axis : x y z
#
# Youngs Moduli (GPa) = 65.09545 65.09545 80.01295
#
# Poissons Ratio (x) = 0.41604 0.38150
# Poissons Ratio (y) = 0.41604 0.38150
# Poissons Ratio (z) = 0.31038 0.31038
#
# Static dielectric constant tensor:
#      x y z
#    x 1.640830 0.000000 0.000000 
#    y 0.000000 1.640830 0.000000 
#    z 0.000000 0.000000 1.643590 
# 
# From -- ./inp_files/9589.got.cif
#   From: 2010.05.17/outbox.cif.g08.bks.cpg/sg136_5_cif.got.tgz:9589.got - 2010.05.20 12:54:53.
