data_PCOD9569251
_publ_section_title
;
Structure prediction by ZEFSAII (Michael W. Deem and Ramdas Pophale) SiO2 
 PCOD9569251
Probable space group: P 42/M N M
;
_chemical_formula_sum "Si O2"
_cell_formula_units_Z 64
_cell_length_a 13.316167
_cell_length_b 13.316167
_cell_length_c 19.494581
_cell_angle_alpha 90.000000
_cell_angle_beta 90.000000
_cell_angle_gamma 90.000000
_cell_volume 3456.785021
_symmetry_space_group_name_H-M "P 42/M N M"
_symmetry_group_IT_number 136
_symmetry_cell_setting 'tetragonal'
loop_
_space_group_symop_operation_xyz
x,y,z
1/2-y,1/2+x,1/2+z
-x,-y,z
1/2+y,1/2-x,1/2+z
1/2+x,1/2-y,1/2-z
1/2-x,1/2+y,1/2-z
y,x,-z
-y,-x,-z
-x,-y,-z
1/2+y,1/2-x,1/2-z
x,y,-z
1/2-y,1/2+x,1/2-z
1/2-x,1/2+y,1/2+z
1/2+x,1/2-y,1/2+z
-y,-x,z
y,x,z
loop_
_atom_site_type_symbol
_atom_site_label
_atom_site_fract_x
_atom_site_fract_y
_atom_site_fract_z
Si Si1 0.758491 0.588262 0.000000
Si Si2 0.378987 0.787302 0.757481
Si Si3 0.379746 0.012688 0.000000
Si Si4 0.019349 0.620569 0.849593
Si Si5 0.166440 0.999866 0.367796
O O1 0.867851 0.636142 0.000000
O O2 0.740160 0.523479 0.931178
O O3 0.672413 0.672413 0.000000
O O4 0.283589 0.716412 0.747593
O O5 0.425484 0.826251 0.686748
O O6 0.356428 0.883720 0.804163
O O7 0.461626 0.724841 0.801202
O O8 0.500000 0.000000 0.000000
O O9 0.344951 0.968273 0.072099
O O10 0.000000 0.500000 0.847401
O O11 0.088349 0.088349 0.387941
O O12 0.098347 0.901654 0.354293
#
# Coordination Sequence:
#
# PCOD9569251 Si02
#       5
#     8  16   8  16  16
#     4  10  19  30  52  84 113 148 186 231 291 348
#     4  11  22  36  60  86 112 155 198 239 293 347
#     4  10  22  35  56  77 108 149 186 228 284 348
#     4  11  21  41  58  82 118 151 188 240 292 345
#     4   9  18  32  50  79 117 150 185 232 286 343
#
# _framework density 18.514312
#
# number of rings (size 3 to 8) (size 9 to 14) (size 15 to 20)
#    0.000    1.750    2.500    3.375    0.000    3.500 
#    0.000    1.875    0.000    0.000    0.000    0.000 
#    0.000    7.000    0.000    0.000    0.000    0.000 
#
# Total GULP energy -357469.757437 kJ/mol
# GULP energy per Si atom -5585.464960 kJ/mol
# Density = 1.847217 g / cm^3
# Si number density = 18.514312 Si / 1000 Ang^3
#
#
#
# Elastic Constant Matrix: (Units=GPa)
#
#
# Indices 1 2 3 4 5 6 
#
# 1 66.5053 15.5967 28.7868 0.0000 0.0000 0.0000
# 2 15.5967 66.5053 28.7868 0.0000 0.0000 0.0000
# 3 28.7868 28.7868 113.3775 0.0000 0.0000 0.0000
# 4 0.0000 0.0000 0.0000 5.9770 0.0000 0.0000
# 5 0.0000 0.0000 0.0000 0.0000 5.9770 0.0000
# 6 0.0000 0.0000 0.0000 0.0000 0.0000 27.9254
#
#
#
# Elastic Compliance Matrix: (Units=1/GPa)
#
#
# Indices 1 2 3 4 5 6 
#
# 1 0.017231 -0.002412 -0.003762 0.000000 0.000000 0.000000
# 2 -0.002412 0.017231 -0.003762 0.000000 0.000000 0.000000
# 3 -0.003762 -0.003762 0.010731 0.000000 0.000000 0.000000
# 4 0.000000 0.000000 0.000000 0.167308 0.000000 0.000000
# 5 0.000000 0.000000 0.000000 0.000000 0.167308 0.000000
# 6 0.000000 0.000000 0.000000 0.000000 0.000000 0.035810
#
#
# Mechanical properties :
#
#
# Convention : Reuss Voigt Hill
#
# Bulk Modulus (GPa) = 39.49807 43.63654 41.56731
# Shear Modulus (GPa) = 11.26302 19.52375 15.39339
#
# Velocity S-wave (km/s) = 2.46913 3.25086 2.88658
# Velocity P-wave (km/s) = 5.43221 6.14093 5.79741
#
# Compressibility (1/GPa) = 0.02531769
#
# Stress axis : x y z
#
# Youngs Moduli (GPa) = 58.03595 58.03595 93.19091
#
# Poissons Ratio (x) = 0.14000 0.35062
# Poissons Ratio (y) = 0.14000 0.35062
# Poissons Ratio (z) = 0.21836 0.21836
#
# Static dielectric constant tensor:
#      x y z
#    x 1.607800 0.000000 0.000000 
#    y 0.000000 1.607800 0.000000 
#    z 0.000000 0.000000 1.652090 
# 
# From -- ./inp_files/5984.got.cif
#   From: 2010.05.17/outbox.cif.g08.bks.cpg/sg136_3_cif.got.tgz:5984.got - 2010.05.20 12:54:53.
