data_PCOD9569746
_publ_section_title
;
Structure prediction by ZEFSAII (Michael W. Deem and Ramdas Pophale) SiO2 
 PCOD9569746
Probable space group: P 42/M N M
;
_chemical_formula_sum "Si O2"
_cell_formula_units_Z 96
_cell_length_a 14.945582
_cell_length_b 14.945582
_cell_length_c 21.789154
_cell_angle_alpha 90.000000
_cell_angle_beta 90.000000
_cell_angle_gamma 90.000000
_cell_volume 4867.052509
_symmetry_space_group_name_H-M "P 42/M N M"
_symmetry_group_IT_number 136
_symmetry_cell_setting 'tetragonal'
loop_
_space_group_symop_operation_xyz
x,y,z
1/2-y,1/2+x,1/2+z
-x,-y,z
1/2+y,1/2-x,1/2+z
1/2+x,1/2-y,1/2-z
1/2-x,1/2+y,1/2-z
y,x,-z
-y,-x,-z
-x,-y,-z
1/2+y,1/2-x,1/2-z
x,y,-z
1/2-y,1/2+x,1/2-z
1/2-x,1/2+y,1/2+z
1/2+x,1/2-y,1/2+z
-y,-x,z
y,x,z
loop_
_atom_site_type_symbol
_atom_site_label
_atom_site_fract_x
_atom_site_fract_y
_atom_site_fract_z
Si Si1 0.084395 0.308309 0.622875
Si Si2 0.645172 0.503359 0.329194
Si Si3 0.993030 0.142548 0.568917
Si Si4 0.072031 0.568077 0.646786
Si Si5 0.872585 0.722366 0.237494
Si Si6 0.209844 0.445705 0.428212
O O1 0.047985 0.211174 0.608855
O O2 0.116217 0.310606 0.693182
O O3 0.164954 0.348594 0.583036
O O4 0.995298 0.366668 0.612227
O O5 0.574951 0.425050 0.347256
O O6 0.585113 0.585113 0.304110
O O7 0.713820 0.456294 0.282037
O O8 0.702501 0.538381 0.386884
O O9 0.976753 0.178924 0.500000
O O10 0.061060 0.061060 0.562825
O O11 0.900072 0.099929 0.592698
O O12 0.136177 0.620158 0.693573
O O13 0.136324 0.513562 0.600965
O O14 0.000000 0.500000 0.677238
O O15 0.783648 0.783648 0.230672
O O16 0.224893 0.460917 0.500000
#
# Coordination Sequence:
#
# PCOD9569746 Si02
#       6
#    16  16  16  16  16  16
#     4  11  22  34  58  86 112 150 195 239 289 356
#     4   9  20  40  62  85 116 157 202 248 302 367
#     4   9  19  36  54  74 106 144 182 227 277 332
#     4   9  22  37  59  81 111 153 194 233 284 351
#     4  10  22  38  56  84 119 151 191 246 304 352
#     4  10  22  39  58  87 121 152 192 248 300 348
#
# _framework density 19.724464000000001
#
# number of rings (size 3 to 8) (size 9 to 14) (size 15 to 20)
#    0.000    2.333    0.000    1.500    7.000    7.000 
#    0.000    2.500    0.000    0.000    0.000    0.000 
#    0.000    0.000    0.000    0.000    0.000    0.000 
#
# Total GULP energy -534989.303289 kJ/mol
# GULP energy per Si atom -5572.805243 kJ/mol
# Density = 1.967957 g / cm^3
# Si number density = 19.724464 Si / 1000 Ang^3
#
#
#
# Elastic Constant Matrix: (Units=GPa)
#
#
# Indices 1 2 3 4 5 6 
#
# 1 53.7030 -1.6215 -15.3021 0.0000 0.0000 0.0000
# 2 -1.6215 53.7030 -15.3021 0.0000 0.0000 0.0000
# 3 -15.3021 -15.3021 34.1835 0.0000 0.0000 0.0000
# 4 0.0000 0.0000 0.0000 11.1911 0.0000 0.0000
# 5 0.0000 0.0000 0.0000 0.0000 11.1911 0.0000
# 6 0.0000 0.0000 0.0000 0.0000 0.0000 21.3663
#
#
#
# Elastic Compliance Matrix: (Units=1/GPa)
#
#
# Indices 1 2 3 4 5 6 
#
# 1 0.022065 0.003989 0.011663 0.000000 0.000000 0.000000
# 2 0.003989 0.022065 0.011663 0.000000 0.000000 0.000000
# 3 0.011663 0.011663 0.039696 0.000000 0.000000 0.000000
# 4 0.000000 0.000000 0.000000 0.089356 0.000000 0.000000
# 5 0.000000 0.000000 0.000000 0.000000 0.089356 0.000000
# 6 0.000000 0.000000 0.000000 0.000000 0.000000 0.046803
#
#
# Mechanical properties :
#
#
# Convention : Reuss Voigt Hill
#
# Bulk Modulus (GPa) = 7.22252 8.57091 7.89671
# Shear Modulus (GPa) = 16.61895 20.33739 18.47817
#
# Velocity S-wave (km/s) = 2.90583 3.21452 3.06406
# Velocity P-wave (km/s) = 3.86369 4.25820 4.06573
#
# Compressibility (1/GPa) = 0.13845590
#
# Stress axis : x y z
#
# Youngs Moduli (GPa) = 45.32139 45.32139 25.19166
#
# Poissons Ratio (x) = -0.18081 -0.29381
# Poissons Ratio (y) = -0.18081 -0.29381
# Poissons Ratio (z) = -0.52858 -0.52858
#
# Static dielectric constant tensor:
#      x y z
#    x 1.741230 0.000000 0.000000 
#    y 0.000000 1.741230 0.000000 
#    z 0.000000 0.000000 1.692220 
# 
# From -- ./inp_files/7509.got.cif
#   From: 2010.05.17/outbox.cif.g08.bks.cpg/sg136_4_cif.got.tgz:7509.got - 2010.05.20 12:54:53.
