data_PCOD9569825
_publ_section_title
;
Structure prediction by ZEFSAII (Michael W. Deem and Ramdas Pophale) SiO2 
 PCOD9569825
Probable space group: P 42/M N M
;
_chemical_formula_sum "Si O2"
_cell_formula_units_Z 96
_cell_length_a 14.470098
_cell_length_b 14.470098
_cell_length_c 26.085917
_cell_angle_alpha 90.000000
_cell_angle_beta 90.000000
_cell_angle_gamma 90.000000
_cell_volume 5461.966762
_symmetry_space_group_name_H-M "P 42/M N M"
_symmetry_group_IT_number 136
_symmetry_cell_setting 'tetragonal'
loop_
_space_group_symop_operation_xyz
x,y,z
1/2-y,1/2+x,1/2+z
-x,-y,z
1/2+y,1/2-x,1/2+z
1/2+x,1/2-y,1/2-z
1/2-x,1/2+y,1/2-z
y,x,-z
-y,-x,-z
-x,-y,-z
1/2+y,1/2-x,1/2-z
x,y,-z
1/2-y,1/2+x,1/2-z
1/2-x,1/2+y,1/2+z
1/2+x,1/2-y,1/2+z
-y,-x,z
y,x,z
loop_
_atom_site_type_symbol
_atom_site_label
_atom_site_fract_x
_atom_site_fract_y
_atom_site_fract_z
Si Si1 0.422820 0.422820 0.863659
Si Si2 0.672124 0.167896 0.297983
Si Si3 0.076826 0.923175 0.244882
Si Si4 0.356692 0.929263 0.000000
Si Si5 0.541160 0.772874 0.702207
Si Si6 0.823156 0.666587 0.605648
Si Si7 0.927018 0.371032 0.500000
Si Si8 0.777776 0.538768 0.894114
O O1 0.500000 0.500000 0.862965
O O2 0.399221 0.399221 0.804115
O O3 0.332292 0.459472 0.891324
O O4 0.744873 0.255128 0.296384
O O5 0.685431 0.103422 0.248100
O O6 0.564873 0.196415 0.298837
O O7 0.689823 0.104363 0.347763
O O8 0.165187 0.959104 0.215246
O O9 0.000000 0.000000 0.247113
O O10 0.314154 0.883829 0.050750
O O11 0.465785 0.903777 0.000000
O O12 0.359566 0.040508 0.000000
O O13 0.595470 0.794792 0.650107
O O14 0.757040 0.757040 0.608268
O O15 0.932207 0.690411 0.611972
O O16 0.919792 0.314086 0.447557
#
# Coordination Sequence:
#
# PCOD9569825 Si02
#       8
#     8  16   8   8  16  16   8  16
#     4  11  22  39  60  85 125 170 209 241 308 362
#     4  12  24  41  59  88 125 156 204 249 307 365
#     4  11  22  42  61  87 123 167 209 237 305 371
#     4   9  19  38  56  88 119 160 191 253 312 367
#     4  12  23  39  62  90 120 158 202 257 300 365
#     4  11  22  37  62  90 123 154 208 254 307 361
#     4   9  20  35  61  84 117 157 206 238 314 374
#     4  11  21  40  59  88 124 163 201 255 302 369
#
# _framework density 17.576087000000001
#
# number of rings (size 3 to 8) (size 9 to 14) (size 15 to 20)
#    0.000    1.000    4.167    3.250    0.000    4.000 
#    0.000    1.667    0.000    0.000    0.000    0.583 
#    0.000    0.000    0.000    0.000    0.000    0.000 
#
# Total GULP energy -535894.426433 kJ/mol
# GULP energy per Si atom -5582.233609 kJ/mol
# Density = 1.753608 g / cm^3
# Si number density = 17.576087 Si / 1000 Ang^3
#
#
#
# Elastic Constant Matrix: (Units=GPa)
#
#
# Indices 1 2 3 4 5 6 
#
# 1 136.4862 58.1238 66.1578 0.0000 0.0000 0.0000
# 2 58.1238 136.4862 66.1578 0.0000 0.0000 0.0000
# 3 66.1578 66.1578 157.6577 0.0000 0.0000 0.0000
# 4 0.0000 0.0000 0.0000 30.3263 0.0000 0.0000
# 5 0.0000 0.0000 0.0000 0.0000 30.3263 0.0000
# 6 0.0000 0.0000 0.0000 0.0000 0.0000 27.6164
#
#
#
# Elastic Compliance Matrix: (Units=1/GPa)
#
#
# Indices 1 2 3 4 5 6 
#
# 1 0.009975 -0.002786 -0.003017 0.000000 0.000000 0.000000
# 2 -0.002786 0.009975 -0.003017 0.000000 0.000000 0.000000
# 3 -0.003017 -0.003017 0.008875 0.000000 0.000000 0.000000
# 4 0.000000 0.000000 0.000000 0.032975 0.000000 0.000000
# 5 0.000000 0.000000 0.000000 0.000000 0.032975 0.000000
# 6 0.000000 0.000000 0.000000 0.000000 0.000000 0.036210
#
#
# Mechanical properties :
#
#
# Convention : Reuss Voigt Hill
#
# Bulk Modulus (GPa) = 89.39493 90.16767 89.78130
# Shear Modulus (GPa) = 32.81827 33.66649 33.24238
#
# Velocity S-wave (km/s) = 4.32581 4.38136 4.35367
# Velocity P-wave (km/s) = 8.71334 8.77541 8.74443
#
# Compressibility (1/GPa) = 0.01118632
#
# Stress axis : x y z
#
# Youngs Moduli (GPa) = 100.24562 100.24562 112.67689
#
# Poissons Ratio (x) = 0.27926 0.33995
# Poissons Ratio (y) = 0.27926 0.33995
# Poissons Ratio (z) = 0.30245 0.30245
#
# Static dielectric constant tensor:
#      x y z
#    x 1.616150 0.000000 0.000000 
#    y 0.000000 1.616150 0.000000 
#    z 0.000000 0.000000 1.590760 
# 
# From -- ./inp_files/7575.got.cif
#   From: 2010.05.17/outbox.cif.g08.bks.cpg/sg136_4_cif.got.tgz:7575.got - 2010.05.20 12:54:53.
