data_PCOD9569010
_publ_section_title
;
Structure prediction by ZEFSAII (Michael W. Deem and Ramdas Pophale) SiO2 
 PCOD9569010
Probable space group: P 42/M B C
;
_chemical_formula_sum "Si O2"
_cell_formula_units_Z 96
_cell_length_a 15.154757
_cell_length_b 15.154757
_cell_length_c 22.689460
_cell_angle_alpha 90.000000
_cell_angle_beta 90.000000
_cell_angle_gamma 90.000000
_cell_volume 5211.012489
_symmetry_space_group_name_H-M "P 42/M B C"
_symmetry_group_IT_number 135
_symmetry_cell_setting 'tetragonal'
loop_
_space_group_symop_operation_xyz
x,y,z
-y,x,1/2+z
-x,-y,z
y,-x,1/2+z
1/2+x,1/2-y,-z
1/2-x,1/2+y,-z
1/2+y,1/2+x,1/2-z
1/2-y,1/2-x,1/2-z
-x,-y,-z
y,-x,1/2-z
x,y,-z
-y,x,1/2-z
1/2-x,1/2+y,z
1/2+x,1/2-y,z
1/2-y,1/2-x,1/2+z
1/2+y,1/2+x,1/2+z
loop_
_atom_site_type_symbol
_atom_site_label
_atom_site_fract_x
_atom_site_fract_y
_atom_site_fract_z
Si Si1 0.331950 0.194539 0.319367
Si Si2 0.075028 0.074711 0.429971
Si Si3 0.239103 0.518065 0.379272
Si Si4 0.816928 0.659862 0.680342
Si Si5 0.760075 0.510184 0.879760
Si Si6 0.856464 0.519907 0.500000
Si Si7 0.987643 0.354950 0.500000
O O1 0.325494 0.174507 0.250000
O O2 0.309802 0.104981 0.354704
O O3 0.257325 0.267019 0.334087
O O4 0.428106 0.232114 0.335446
O O5 0.095471 0.092717 0.500000
O O6 0.160038 0.041252 0.394035
O O7 0.040949 0.162210 0.397071
O O8 0.000000 0.000000 0.429113
O O9 0.220717 0.435955 0.336389
O O10 0.199570 0.488076 0.441509
O O11 0.835550 0.664451 0.750000
O O12 0.906466 0.685099 0.645498
O O13 0.800885 0.475378 0.940817
O O14 0.912825 0.608703 0.500000
O O15 0.923544 0.438081 0.500000
#
# Coordination Sequence:
#
# PCOD9569010 Si02
#       7
#    16  16  16  16  16   8   8
#     4  11  25  43  65  91 128 170 218 267 313 375
#     4  11  24  40  63  96 134 169 208 260 324 394
#     4  12  22  42  66  94 128 168 213 260 325 381
#     4  11  25  43  65  91 128 170 218 267 313 375
#     4  12  22  42  66  94 128 168 213 260 325 381
#     4  11  22  37  60  95 131 162 196 259 329 386
#     4  11  22  37  60  95 131 162 196 259 329 386
#
# _framework density 18.422523999999999
#
# number of rings (size 3 to 8) (size 9 to 14) (size 15 to 20)
#    0.000    0.667    6.667    2.000    0.000    0.667 
#    0.000    3.333    0.000    0.000    0.000    0.000 
#    0.000    0.000    0.000    0.000    0.000    0.000 
#
# Total GULP energy -536350.215104 kJ/mol
# GULP energy per Si atom -5586.981407 kJ/mol
# Density = 1.838059 g / cm^3
# Si number density = 18.422524 Si / 1000 Ang^3
#
#
#
# Elastic Constant Matrix: (Units=GPa)
#
#
# Indices 1 2 3 4 5 6 
#
# 1 102.1163 42.9735 37.5915 0.0000 0.0000 0.0000
# 2 42.9735 102.1161 37.5920 0.0000 0.0000 0.0000
# 3 37.5915 37.5920 71.3016 0.0000 0.0000 0.0000
# 4 0.0000 0.0000 0.0000 17.8337 0.0000 0.0000
# 5 0.0000 0.0000 0.0000 0.0000 17.8339 0.0000
# 6 0.0000 0.0000 0.0000 0.0000 0.0000 31.5820
#
#
#
# Elastic Compliance Matrix: (Units=1/GPa)
#
#
# Indices 1 2 3 4 5 6 
#
# 1 0.013196 -0.003713 -0.005000 0.000000 0.000000 0.000000
# 2 -0.003713 0.013196 -0.005000 0.000000 0.000000 0.000000
# 3 -0.005000 -0.005000 0.019297 0.000000 0.000000 0.000000
# 4 0.000000 0.000000 0.000000 0.056074 0.000000 0.000000
# 5 0.000000 0.000000 0.000000 0.000000 0.056073 0.000000
# 6 0.000000 0.000000 0.000000 0.000000 0.000000 0.031664
#
#
# Mechanical properties :
#
#
# Convention : Reuss Voigt Hill
#
# Bulk Modulus (GPa) = 54.75188 56.87200 55.81194
# Shear Modulus (GPa) = 22.42047 23.94170 23.18109
#
# Velocity S-wave (km/s) = 3.49236 3.60889 3.55110
# Velocity P-wave (km/s) = 6.78577 6.95006 6.86841
#
# Compressibility (1/GPa) = 0.01826421
#
# Stress axis : x y z
#
# Youngs Moduli (GPa) = 75.78292 75.78217 51.82206
#
# Poissons Ratio (x) = 0.28135 0.25909
# Poissons Ratio (y) = 0.28135 0.25910
# Poissons Ratio (z) = 0.37888 0.37889
#
# Static dielectric constant tensor:
#      x y z
#    x 1.618200 0.000000 0.000000 
#    y 0.000000 1.618200 0.000000 
#    z 0.000000 0.000000 1.616020 
# 
# From -- ./inp_files/5513.got.cif
#   From: 2010.05.17/outbox.cif.g08.bks.cpg/sg135_3_cif.got.tgz:5513.got - 2010.05.20 12:50:20.
