data_PCOD9569851
_publ_section_title
;
Structure prediction by ZEFSAII (Michael W. Deem and Ramdas Pophale) SiO2 
 PCOD9569851
Probable space group: P 42/M N M
;
_chemical_formula_sum "Si O2"
_cell_formula_units_Z 88
_cell_length_a 10.327611
_cell_length_b 10.327611
_cell_length_c 33.258035
_cell_angle_alpha 90.000000
_cell_angle_beta 90.000000
_cell_angle_gamma 90.000000
_cell_volume 3547.287013
_symmetry_space_group_name_H-M "P 42/M N M"
_symmetry_group_IT_number 136
_symmetry_cell_setting 'tetragonal'
loop_
_space_group_symop_operation_xyz
x,y,z
1/2-y,1/2+x,1/2+z
-x,-y,z
1/2+y,1/2-x,1/2+z
1/2+x,1/2-y,1/2-z
1/2-x,1/2+y,1/2-z
y,x,-z
-y,-x,-z
-x,-y,-z
1/2+y,1/2-x,1/2-z
x,y,-z
1/2-y,1/2+x,1/2-z
1/2-x,1/2+y,1/2+z
1/2+x,1/2-y,1/2+z
-y,-x,z
y,x,z
loop_
_atom_site_type_symbol
_atom_site_label
_atom_site_fract_x
_atom_site_fract_y
_atom_site_fract_z
Si Si1 0.130854 0.130854 0.694093
Si Si2 0.811022 0.586727 0.956497
Si Si3 0.290018 0.985822 0.242468
Si Si4 0.040803 0.737792 0.368734
Si Si5 0.250998 0.530031 0.345259
Si Si6 0.290771 0.485404 0.564776
O O1 0.021263 0.180269 0.726571
O O2 0.074808 0.232874 0.660566
O O3 0.698890 0.698890 0.955319
O O4 0.789853 0.508834 0.915379
O O5 0.947303 0.663741 0.953152
O O6 0.801425 0.521634 0.000000
O O7 0.373019 0.118503 0.241537
O O8 0.254691 0.955270 0.196623
O O9 0.134802 0.865199 0.367459
O O10 0.124492 0.618756 0.352069
O O11 0.371632 0.628368 0.341263
O O12 0.266260 0.462126 0.387960
O O13 0.400511 0.599490 0.562316
O O14 0.357962 0.357962 0.547216
#
# Coordination Sequence:
#
# PCOD9569851 Si02
#       6
#     8  16  16  16  16  16
#     4  12  21  36  57  76 104 148 195 234 283 351
#     4   8  14  26  46  72 108 151 188 233 297 363
#     4  11  23  38  55  77 107 143 186 237 286 336
#     4   9  18  32  52  78 108 145 192 236 292 350
#     4   9  16  32  51  70 104 146 182 226 287 344
#     4   8  14  24  40  67 105 146 186 231 287 350
#
# _framework density 24.807690000000001
#
# number of rings (size 3 to 8) (size 9 to 14) (size 15 to 20)
#    0.000    2.727    2.727    2.455    0.000    0.364 
#    3.273    2.273    0.000    2.182    0.000    0.000 
#    0.000   17.455    0.000    0.000    0.000    0.000 
#
# Total GULP energy -490058.055560 kJ/mol
# GULP energy per Si atom -5568.841540 kJ/mol
# Density = 2.475123 g / cm^3
# Si number density = 24.807690 Si / 1000 Ang^3
#
#
#
# Elastic Constant Matrix: (Units=GPa)
#
#
# Indices 1 2 3 4 5 6 
#
# 1 38.2182 54.0265 23.8881 0.0000 0.0000 0.0000
# 2 54.0265 38.2182 23.8881 0.0000 0.0000 0.0000
# 3 23.8881 23.8881 211.9470 0.0000 0.0000 0.0000
# 4 0.0000 0.0000 0.0000 8.2173 0.0000 0.0000
# 5 0.0000 0.0000 0.0000 0.0000 8.2173 0.0000
# 6 0.0000 0.0000 0.0000 0.0000 0.0000 8.4426
#
#
#
# Elastic Compliance Matrix: (Units=1/GPa)
#
#
# Indices 1 2 3 4 5 6 
#
# 1 -0.025872 0.037385 -0.001298 0.000000 0.000000 0.000000
# 2 0.037385 -0.025872 -0.001298 0.000000 0.000000 0.000000
# 3 -0.001298 -0.001298 0.005011 0.000000 0.000000 0.000000
# 4 0.000000 0.000000 0.000000 0.121695 0.000000 0.000000
# 5 0.000000 0.000000 0.000000 0.000000 0.121695 0.000000
# 6 0.000000 0.000000 0.000000 0.000000 0.000000 0.118447
#
#
# Mechanical properties :
#
#
# Convention : Reuss Voigt Hill
#
# Bulk Modulus (GPa) = 43.77153 54.66543 49.21848
# Shear Modulus (GPa) = 19.75202 17.41412 18.58307
#
# Velocity S-wave (km/s) = 2.82477 2.65234 2.73991
# Velocity P-wave (km/s) = 5.32182 5.60922 5.46741
#
# Compressibility (1/GPa) = 0.02284590
#
# Stress axis : x y z
#
# Youngs Moduli (GPa) = -38.65123 -38.65123 199.57462
#
# Poissons Ratio (x) = 1.44498 0.25896
# Poissons Ratio (y) = 1.44498 0.25896
# Poissons Ratio (z) = -0.05015 -0.05015
#
# Static dielectric constant tensor:
#      x y z
#    x 1.975430 0.000000 0.000000 
#    y 0.000000 1.975430 0.000000 
#    z 0.000000 0.000000 1.921290 
# 
# From -- ./inp_files/9754.got.cif
#   From: 2010.05.17/outbox.cif.g08.bks.cpg/sg136_5_cif.got.tgz:9754.got - 2010.05.20 12:54:53.
