data_PCOD9569627
_publ_section_title
;
Structure prediction by ZEFSAII (Michael W. Deem and Ramdas Pophale) SiO2 
 PCOD9569627
Probable space group: P 42/M N M
;
_chemical_formula_sum "Si O2"
_cell_formula_units_Z 56
_cell_length_a 14.190627
_cell_length_b 14.190627
_cell_length_c 13.016926
_cell_angle_alpha 90.000000
_cell_angle_beta 90.000000
_cell_angle_gamma 90.000000
_cell_volume 2621.269085
_symmetry_space_group_name_H-M "P 42/M N M"
_symmetry_group_IT_number 136
_symmetry_cell_setting 'tetragonal'
loop_
_space_group_symop_operation_xyz
x,y,z
1/2-y,1/2+x,1/2+z
-x,-y,z
1/2+y,1/2-x,1/2+z
1/2+x,1/2-y,1/2-z
1/2-x,1/2+y,1/2-z
y,x,-z
-y,-x,-z
-x,-y,-z
1/2+y,1/2-x,1/2-z
x,y,-z
1/2-y,1/2+x,1/2-z
1/2-x,1/2+y,1/2+z
1/2+x,1/2-y,1/2+z
-y,-x,z
y,x,z
loop_
_atom_site_type_symbol
_atom_site_label
_atom_site_fract_x
_atom_site_fract_y
_atom_site_fract_z
Si Si1 0.078252 0.921749 0.387210
Si Si2 0.055294 0.795495 0.000000
Si Si3 0.445413 0.900442 0.500000
Si Si4 0.781049 0.004691 0.220009
Si Si5 0.832636 0.323567 0.692177
O O1 0.110150 0.889851 0.500000
O O2 0.031211 0.842828 0.317241
O O3 0.000000 0.000000 0.400006
O O4 0.022331 0.685341 0.000000
O O5 0.010862 0.829598 0.891673
O O6 0.161847 0.838154 0.000000
O O7 0.376095 0.883898 0.402707
O O8 0.500000 0.000000 0.500000
O O9 0.736277 0.903551 0.233966
O O10 0.705150 0.089497 0.224469
O O11 0.767302 0.232699 0.665177
#
# Coordination Sequence:
#
# PCOD9569627 Si02
#       5
#     8   8   8  16  16
#     4  11  24  45  69 101 143 187 235 280 348 437
#     4  10  20  43  67  99 136 177 235 292 350 413
#     4  10  25  41  70 108 139 188 242 293 364 447
#     4  11  24  42  71  99 142 182 238 293 356 422
#     4  11  24  43  68 101 142 191 236 295 361 430
#
# _framework density 21.363696999999998
#
# number of rings (size 3 to 8) (size 9 to 14) (size 15 to 20)
#    0.000    1.286    2.857    1.286   10.000    0.000 
#    2.571    2.857    0.000    0.000    0.000    0.000 
#    0.000    0.000    0.000    0.000    0.000    0.000 
#
# Total GULP energy -312280.113481 kJ/mol
# GULP energy per Si atom -5576.430598 kJ/mol
# Density = 2.131507 g / cm^3
# Si number density = 21.363697 Si / 1000 Ang^3
#
#
#
# Elastic Constant Matrix: (Units=GPa)
#
#
# Indices 1 2 3 4 5 6 
#
# 1 83.2692 40.4559 28.7568 0.0000 0.0000 0.0000
# 2 40.4559 83.2702 28.7564 0.0000 0.0000 0.0000
# 3 28.7568 28.7564 155.5370 0.0000 0.0000 0.0000
# 4 0.0000 0.0000 0.0000 16.0388 0.0000 0.0000
# 5 0.0000 0.0000 0.0000 0.0000 16.0385 0.0000
# 6 0.0000 0.0000 0.0000 0.0000 0.0000 49.4865
#
#
#
# Elastic Compliance Matrix: (Units=1/GPa)
#
#
# Indices 1 2 3 4 5 6 
#
# 1 0.016100 -0.007257 -0.001635 0.000000 0.000000 0.000000
# 2 -0.007257 0.016100 -0.001635 0.000000 0.000000 0.000000
# 3 -0.001635 -0.001635 0.007034 0.000000 0.000000 0.000000
# 4 0.000000 0.000000 0.000000 0.062349 0.000000 0.000000
# 5 0.000000 0.000000 0.000000 0.000000 0.062350 0.000000
# 6 0.000000 0.000000 0.000000 0.000000 0.000000 0.020208
#
#
# Mechanical properties :
#
#
# Convention : Reuss Voigt Hill
#
# Bulk Modulus (GPa) = 55.00783 57.55720 56.28251
# Shear Modulus (GPa) = 23.66830 31.25325 27.46078
#
# Velocity S-wave (km/s) = 3.33209 3.82896 3.58913
# Velocity P-wave (km/s) = 6.37243 6.82261 6.60136
#
# Compressibility (1/GPa) = 0.01817923
#
# Stress axis : x y z
#
# Youngs Moduli (GPa) = 62.11266 62.11358 142.16964
#
# Poissons Ratio (x) = 0.45078 0.23243
# Poissons Ratio (y) = 0.45077 0.23242
# Poissons Ratio (z) = 0.10155 0.10154
#
# Static dielectric constant tensor:
#      x y z
#    x 1.799710 0.000000 0.000000 
#    y 0.000000 1.799710 0.000000 
#    z 0.000000 0.000000 1.814160 
# 
# From -- ./inp_files/3145.got.cif
#   From: 2010.05.17/outbox.cif.g08.bks.cpg/sg136_2_cif.got.tgz:3145.got - 2010.05.20 12:54:53.
