data_PCOD9569115
_publ_section_title
;
Structure prediction by ZEFSAII (Michael W. Deem and Ramdas Pophale) SiO2 
 PCOD9569115
Probable space group: P 42/M N M
;
_chemical_formula_sum "Si O2"
_cell_formula_units_Z 64
_cell_length_a 13.072994
_cell_length_b 13.072994
_cell_length_c 19.838528
_cell_angle_alpha 90.000000
_cell_angle_beta 90.000000
_cell_angle_gamma 90.000000
_cell_volume 3390.467365
_symmetry_space_group_name_H-M "P 42/M N M"
_symmetry_group_IT_number 136
_symmetry_cell_setting 'tetragonal'
loop_
_space_group_symop_operation_xyz
x,y,z
1/2-y,1/2+x,1/2+z
-x,-y,z
1/2+y,1/2-x,1/2+z
1/2+x,1/2-y,1/2-z
1/2-x,1/2+y,1/2-z
y,x,-z
-y,-x,-z
-x,-y,-z
1/2+y,1/2-x,1/2-z
x,y,-z
1/2-y,1/2+x,1/2-z
1/2-x,1/2+y,1/2+z
1/2+x,1/2-y,1/2+z
-y,-x,z
y,x,z
loop_
_atom_site_type_symbol
_atom_site_label
_atom_site_fract_x
_atom_site_fract_y
_atom_site_fract_z
Si Si1 0.738572 0.435676 0.000000
Si Si2 0.366796 0.804548 0.768952
Si Si3 0.380341 0.970943 0.000000
Si Si4 0.994344 0.623719 0.852199
Si Si5 0.169305 0.993666 0.359490
O O1 0.847795 0.380668 0.000000
O O2 0.724280 0.501608 0.067785
O O3 0.650143 0.349858 0.000000
O O4 0.273639 0.726362 0.765937
O O5 0.402916 0.841997 0.695949
O O6 0.342253 0.900180 0.816931
O O7 0.462586 0.745408 0.803584
O O8 0.338376 0.011126 0.929004
O O9 0.500000 0.000000 0.000000
O O10 0.000000 0.500000 0.852049
O O11 0.113983 0.886018 0.346240
O O12 0.078301 0.078301 0.363150
#
# Coordination Sequence:
#
# PCOD9569115 Si02
#       5
#     8  16   8  16  16
#     4  10  17  30  54  82 111 149 195 233 280 344
#     4  11  21  35  60  87 113 153 199 241 291 346
#     4  10  22  35  58  79 112 154 189 227 285 349
#     4  11  21  41  59  82 116 153 191 237 287 347
#     4   9  18  31  49  81 121 150 181 235 293 339
#
# _framework density 18.876453000000001
#
# number of rings (size 3 to 8) (size 9 to 14) (size 15 to 20)
#    0.000    1.750    5.000    0.375    0.000    2.500 
#    0.000    0.625    0.000    0.000    0.000    0.000 
#    0.000    7.000    0.000    0.000    0.000    0.000 
#
# Total GULP energy -357355.019219 kJ/mol
# GULP energy per Si atom -5583.672175 kJ/mol
# Density = 1.883349 g / cm^3
# Si number density = 18.876453 Si / 1000 Ang^3
#
#
#
# Elastic Constant Matrix: (Units=GPa)
#
#
# Indices 1 2 3 4 5 6 
#
# 1 54.5381 15.1630 35.4646 0.0000 0.0000 0.0000
# 2 15.1630 54.5378 35.4647 0.0000 0.0000 0.0000
# 3 35.4646 35.4647 169.1667 0.0000 0.0000 0.0000
# 4 0.0000 0.0000 0.0000 15.6647 0.0000 0.0000
# 5 0.0000 0.0000 0.0000 0.0000 15.6647 0.0000
# 6 0.0000 0.0000 0.0000 0.0000 0.0000 36.2498
#
#
#
# Elastic Compliance Matrix: (Units=1/GPa)
#
#
# Indices 1 2 3 4 5 6 
#
# 1 0.021817 -0.003580 -0.003823 0.000000 0.000000 0.000000
# 2 -0.003580 0.021817 -0.003823 0.000000 0.000000 0.000000
# 3 -0.003823 -0.003823 0.007514 0.000000 0.000000 0.000000
# 4 0.000000 0.000000 0.000000 0.063838 0.000000 0.000000
# 5 0.000000 0.000000 0.000000 0.000000 0.063838 0.000000
# 6 0.000000 0.000000 0.000000 0.000000 0.000000 0.027586
#
#
# Mechanical properties :
#
#
# Convention : Reuss Voigt Hill
#
# Bulk Modulus (GPa) = 34.84765 50.04745 42.44755
# Shear Modulus (GPa) = 20.97059 26.32587 23.64823
#
# Velocity S-wave (km/s) = 3.33669 3.73854 3.54332
# Velocity P-wave (km/s) = 5.77457 6.72356 6.26706
#
# Compressibility (1/GPa) = 0.02869634
#
# Stress axis : x y z
#
# Youngs Moduli (GPa) = 45.83527 45.83493 133.07714
#
# Poissons Ratio (x) = 0.16407 0.50881
# Poissons Ratio (y) = 0.16407 0.50881
# Poissons Ratio (z) = 0.17525 0.17525
#
# Static dielectric constant tensor:
#      x y z
#    x 1.650610 0.000000 0.000000 
#    y 0.000000 1.650610 0.000000 
#    z 0.000000 0.000000 1.683090 
# 
# From -- ./inp_files/5948.got.cif
#   From: 2010.05.17/outbox.cif.g08.bks.cpg/sg136_3_cif.got.tgz:5948.got - 2010.05.20 12:54:53.
