data_PCOD9569328
_publ_section_title
;
Structure prediction by ZEFSAII (Michael W. Deem and Ramdas Pophale) SiO2 
 PCOD9569328
Probable space group: P 42/M N M
;
_chemical_formula_sum "Si O2"
_cell_formula_units_Z 104
_cell_length_a 19.253782
_cell_length_b 19.253782
_cell_length_c 16.373643
_cell_angle_alpha 90.000000
_cell_angle_beta 90.000000
_cell_angle_gamma 90.000000
_cell_volume 6069.842435
_symmetry_space_group_name_H-M "P 42/M N M"
_symmetry_group_IT_number 136
_symmetry_cell_setting 'tetragonal'
loop_
_space_group_symop_operation_xyz
x,y,z
1/2-y,1/2+x,1/2+z
-x,-y,z
1/2+y,1/2-x,1/2+z
1/2+x,1/2-y,1/2-z
1/2-x,1/2+y,1/2-z
y,x,-z
-y,-x,-z
-x,-y,-z
1/2+y,1/2-x,1/2-z
x,y,-z
1/2-y,1/2+x,1/2-z
1/2-x,1/2+y,1/2+z
1/2+x,1/2-y,1/2+z
-y,-x,z
y,x,z
loop_
_atom_site_type_symbol
_atom_site_label
_atom_site_fract_x
_atom_site_fract_y
_atom_site_fract_z
Si Si1 0.940508 0.940508 0.405491
Si Si2 0.015600 0.381894 0.500000
Si Si3 0.470554 0.177155 0.830684
Si Si4 0.005547 0.887855 0.138143
Si Si5 0.044729 0.841250 0.318710
Si Si6 0.154189 0.566308 0.673255
Si Si7 0.887959 0.491810 0.500000
Si Si8 0.218255 0.102228 0.911415
O O1 0.926172 0.926172 0.500000
O O2 0.977243 0.874219 0.363901
O O3 0.000000 0.000000 0.399715
O O4 0.007959 0.338544 0.583018
O O5 0.951694 0.436859 0.500000
O O6 0.083166 0.430164 0.500000
O O7 0.449577 0.258532 0.829826
O O8 0.405972 0.123801 0.824602
O O9 0.519352 0.158169 0.753633
O O10 0.945272 0.945272 0.153852
O O11 0.968595 0.826098 0.090599
O O12 0.031352 0.857486 0.223670
O O13 0.068954 0.931047 0.099597
O O14 0.112729 0.887272 0.343695
O O15 0.147069 0.522155 0.588490
O O16 0.227765 0.603389 0.661103
O O17 0.163454 0.163454 0.903501
O O18 0.253166 0.110348 0.000000
#
# Coordination Sequence:
#
# PCOD9569328 Si02
#       8
#     8   8  16  16  16  16   8  16
#     4   9  18  32  52  78 107 141 181 223 266 317
#     4   9  20  36  53  80 106 134 176 236 284 322
#     4  11  23  36  57  82 112 144 189 232 282 335
#     4   9  16  30  53  78 105 137 176 222 268 317
#     4  10  19  33  53  79 110 145 182 224 274 327
#     4  11  21  37  57  82 108 147 187 231 283 337
#     4   9  18  36  59  75 102 136 179 234 281 323
#     4  10  20  34  54  82 114 146 180 222 282 347
#
# _framework density 17.133887999999999
#
# number of rings (size 3 to 8) (size 9 to 14) (size 15 to 20)
#    0.000    2.077    3.077    0.923    1.077    2.462 
#    0.000    1.538    0.000    0.000    0.000    0.000 
#    2.308    0.000    0.000    0.000    0.000    0.000 
#
# Total GULP energy -579149.471788 kJ/mol
# GULP energy per Si atom -5568.744921 kJ/mol
# Density = 1.709489 g / cm^3
# Si number density = 17.133888 Si / 1000 Ang^3
#
#
#
# Elastic Constant Matrix: (Units=GPa)
#
#
# Indices 1 2 3 4 5 6 
#
# 1 88.8545 40.8882 47.2988 0.0000 0.0000 0.0000
# 2 40.8882 88.8545 47.2988 0.0000 0.0000 0.0000
# 3 47.2988 47.2988 116.3653 0.0000 0.0000 0.0000
# 4 0.0000 0.0000 0.0000 14.7327 0.0000 0.0000
# 5 0.0000 0.0000 0.0000 0.0000 14.7327 0.0000
# 6 0.0000 0.0000 0.0000 0.0000 0.0000 16.8073
#
#
#
# Elastic Compliance Matrix: (Units=1/GPa)
#
#
# Indices 1 2 3 4 5 6 
#
# 1 0.015901 -0.004947 -0.004452 0.000000 0.000000 0.000000
# 2 -0.004947 0.015901 -0.004452 0.000000 0.000000 0.000000
# 3 -0.004452 -0.004452 0.012213 0.000000 0.000000 0.000000
# 4 0.000000 0.000000 0.000000 0.067876 0.000000 0.000000
# 5 0.000000 0.000000 0.000000 0.000000 0.067876 0.000000
# 6 0.000000 0.000000 0.000000 0.000000 0.000000 0.059498
#
#
# Mechanical properties :
#
#
# Convention : Reuss Voigt Hill
#
# Bulk Modulus (GPa) = 61.30718 62.78285 62.04502
# Shear Modulus (GPa) = 18.35495 19.82712 19.09103
#
# Velocity S-wave (km/s) = 3.27657 3.40544 3.34162
# Velocity P-wave (km/s) = 7.08332 7.22390 7.15396
#
# Compressibility (1/GPa) = 0.01631130
#
# Stress axis : x y z
#
# Youngs Moduli (GPa) = 62.88941 62.88941 81.87901
#
# Poissons Ratio (x) = 0.31112 0.36456
# Poissons Ratio (y) = 0.31112 0.36456
# Poissons Ratio (z) = 0.28001 0.28001
#
# Static dielectric constant tensor:
#      x y z
#    x 1.595050 0.000000 0.000000 
#    y 0.000000 1.595050 0.000000 
#    z 0.000000 0.000000 1.591620 
# 
# From -- ./inp_files/6465.got.cif
#   From: 2010.05.17/outbox.cif.g08.bks.cpg/sg136_4_cif.got.tgz:6465.got - 2010.05.20 12:54:53.
