data_PCOD9569202
_publ_section_title
;
Structure prediction by ZEFSAII (Michael W. Deem and Ramdas Pophale) SiO2 
 PCOD9569202
Probable space group: P 42/M N M
;
_chemical_formula_sum "Si O2"
_cell_formula_units_Z 112
_cell_length_a 17.693570
_cell_length_b 17.693570
_cell_length_c 19.827853
_cell_angle_alpha 90.000000
_cell_angle_beta 90.000000
_cell_angle_gamma 90.000000
_cell_volume 6207.355631
_symmetry_space_group_name_H-M "P 42/M N M"
_symmetry_group_IT_number 136
_symmetry_cell_setting 'tetragonal'
loop_
_space_group_symop_operation_xyz
x,y,z
1/2-y,1/2+x,1/2+z
-x,-y,z
1/2+y,1/2-x,1/2+z
1/2+x,1/2-y,1/2-z
1/2-x,1/2+y,1/2-z
y,x,-z
-y,-x,-z
-x,-y,-z
1/2+y,1/2-x,1/2-z
x,y,-z
1/2-y,1/2+x,1/2-z
1/2-x,1/2+y,1/2+z
1/2+x,1/2-y,1/2+z
-y,-x,z
y,x,z
loop_
_atom_site_type_symbol
_atom_site_label
_atom_site_fract_x
_atom_site_fract_y
_atom_site_fract_z
Si Si1 0.792044 0.917842 0.212362
Si Si2 0.579184 0.973748 0.418520
Si Si3 0.785448 0.091783 0.811656
Si Si4 0.172758 0.704344 0.697609
Si Si5 0.419265 0.698375 0.125633
Si Si6 0.432911 0.226811 0.920685
Si Si7 0.657629 0.821261 0.420121
O O1 0.860820 0.860820 0.192066
O O2 0.711929 0.877442 0.195203
O O3 0.795549 0.924917 0.293603
O O4 0.797634 0.002163 0.182855
O O5 0.577270 0.979428 0.500000
O O6 0.597532 0.887337 0.404179
O O7 0.500000 0.000000 0.389998
O O8 0.648333 0.026839 0.398440
O O9 0.862806 0.137195 0.794694
O O10 0.723462 0.109252 0.753018
O O11 0.749850 0.130942 0.877562
O O12 0.242005 0.757996 0.719345
O O13 0.139434 0.731448 0.626584
O O14 0.380939 0.619062 0.107783
O O15 0.501154 0.712617 0.093760
O O16 0.360651 0.763537 0.101368
O O17 0.415800 0.225391 0.000000
O O18 0.660251 0.806951 0.500000
#
# Coordination Sequence:
#
# PCOD9569202 Si02
#       7
#    16  16  16  16  16  16  16
#     4  10  21  38  59  82 113 151 192 240 286 334
#     4   8  16  30  47  74 110 142 171 210 270 341
#     4  11  22  37  59  84 111 148 194 241 284 336
#     4  10  21  38  57  79 108 144 187 231 274 330
#     4  10  18  33  56  84 116 147 183 228 284 347
#     4  10  20  33  53  80 111 147 183 223 275 337
#     4  10  20  33  54  85 117 148 183 232 294 349
#
# _framework density 18.043109999999999
#
# number of rings (size 3 to 8) (size 9 to 14) (size 15 to 20)
#    0.000    2.143    2.857    1.714    2.000    2.571 
#    0.000    0.000    0.000    1.714    0.000    2.000 
#    0.000    0.000    0.000    0.000    0.000    0.000 
#
# Total GULP energy -624182.959948 kJ/mol
# GULP energy per Si atom -5573.062142 kJ/mol
# Density = 1.800204 g / cm^3
# Si number density = 18.043110 Si / 1000 Ang^3
#
#
#
# Elastic Constant Matrix: (Units=GPa)
#
#
# Indices 1 2 3 4 5 6 
#
# 1 52.8392 39.9777 3.0043 0.0000 0.0000 0.0000
# 2 39.9777 52.8392 3.0043 0.0000 0.0000 0.0000
# 3 3.0043 3.0043 56.2557 0.0000 0.0000 0.0000
# 4 0.0000 0.0000 0.0000 20.9113 0.0000 0.0000
# 5 0.0000 0.0000 0.0000 0.0000 20.9113 0.0000
# 6 0.0000 0.0000 0.0000 0.0000 0.0000 22.9797
#
#
#
# Elastic Compliance Matrix: (Units=1/GPa)
#
#
# Indices 1 2 3 4 5 6 
#
# 1 0.044281 -0.033470 -0.000577 0.000000 0.000000 0.000000
# 2 -0.033470 0.044281 -0.000577 0.000000 0.000000 0.000000
# 3 -0.000577 -0.000577 0.017838 0.000000 0.000000 0.000000
# 4 0.000000 0.000000 0.000000 0.047821 0.000000 0.000000
# 5 0.000000 0.000000 0.000000 0.000000 0.047821 0.000000
# 6 0.000000 0.000000 0.000000 0.000000 0.000000 0.043517
#
#
# Mechanical properties :
#
#
# Convention : Reuss Voigt Hill
#
# Bulk Modulus (GPa) = 26.91739 28.21186 27.56463
# Shear Modulus (GPa) = 15.28154 20.69033 17.98594
#
# Velocity S-wave (km/s) = 2.91339 3.38999 3.16069
# Velocity P-wave (km/s) = 5.12522 5.56709 5.35072
#
# Compressibility (1/GPa) = 0.03715071
#
# Stress axis : x y z
#
# Youngs Moduli (GPa) = 22.58287 22.58287 56.06119
#
# Poissons Ratio (x) = 0.75585 0.03237
# Poissons Ratio (y) = 0.75585 0.03237
# Poissons Ratio (z) = 0.01304 0.01304
#
# Static dielectric constant tensor:
#      x y z
#    x 1.648480 0.000000 0.000000 
#    y 0.000000 1.648480 0.000000 
#    z 0.000000 0.000000 1.609500 
# 
# From -- ./inp_files/7773.got.cif
#   From: 2010.05.17/outbox.cif.g08.bks.cpg/sg136_4_cif.got.tgz:7773.got - 2010.05.20 12:54:53.
