data_PCOD9569346
_publ_section_title
;
Structure prediction by ZEFSAII (Michael W. Deem and Ramdas Pophale) SiO2 
 PCOD9569346
Probable space group: P 42/M N M
;
_chemical_formula_sum "Si O2"
_cell_formula_units_Z 96
_cell_length_a 15.102788
_cell_length_b 15.102788
_cell_length_c 24.023306
_cell_angle_alpha 90.000000
_cell_angle_beta 90.000000
_cell_angle_gamma 90.000000
_cell_volume 5479.576893
_symmetry_space_group_name_H-M "P 42/M N M"
_symmetry_group_IT_number 136
_symmetry_cell_setting 'tetragonal'
loop_
_space_group_symop_operation_xyz
x,y,z
1/2-y,1/2+x,1/2+z
-x,-y,z
1/2+y,1/2-x,1/2+z
1/2+x,1/2-y,1/2-z
1/2-x,1/2+y,1/2-z
y,x,-z
-y,-x,-z
-x,-y,-z
1/2+y,1/2-x,1/2-z
x,y,-z
1/2-y,1/2+x,1/2-z
1/2-x,1/2+y,1/2+z
1/2+x,1/2-y,1/2+z
-y,-x,z
y,x,z
loop_
_atom_site_type_symbol
_atom_site_label
_atom_site_fract_x
_atom_site_fract_y
_atom_site_fract_z
Si Si1 0.062005 0.793969 0.706108
Si Si2 0.572755 0.427246 0.783629
Si Si3 0.866980 0.273362 0.589796
Si Si4 0.472800 0.148338 0.500000
Si Si5 0.022126 0.630998 0.776306
Si Si6 0.723622 0.958481 0.111592
Si Si7 0.355885 0.982623 0.500000
Si Si8 0.426269 0.573732 0.649407
O O1 0.125988 0.874013 0.723592
O O2 0.100425 0.752007 0.650753
O O3 0.059158 0.722062 0.753454
O O4 0.964843 0.834343 0.696266
O O5 0.500000 0.500000 0.801993
O O6 0.576148 0.423853 0.716695
O O7 0.808176 0.191824 0.567817
O O8 0.804527 0.358961 0.594982
O O9 0.950516 0.299828 0.552771
O O10 0.482609 0.204852 0.556636
O O11 0.556819 0.080520 0.500000
O O12 0.388457 0.083175 0.500000
O O13 0.096339 0.555987 0.765291
O O14 0.987917 0.656041 0.838201
O O15 0.826980 0.953819 0.129471
O O16 0.500000 0.500000 0.633315
#
# Coordination Sequence:
#
# PCOD9569346 Si02
#       8
#    16   8  16   8  16  16   8   8
#     4  10  20  35  56  83 114 146 187 233 290 349
#     4   9  18  34  55  81 113 147 183 230 285 345
#     4  10  19  33  56  85 112 145 192 245 287 341
#     4   9  22  35  54  81 111 155 190 241 279 350
#     4  11  23  34  54  82 118 153 186 236 290 355
#     4  11  21  37  57  81 114 150 196 236 291 341
#     4   9  19  34  55  79 113 147 190 238 297 328
#     4  11  22  37  62  85 113 153 194 241 290 343
#
# _framework density 17.519601999999999
#
# number of rings (size 3 to 8) (size 9 to 14) (size 15 to 20)
#    0.000    1.833    4.167    0.250    2.333    1.667 
#    1.500    0.833    0.000    0.500    2.167    2.917 
#    0.000    0.000    0.000    0.000    0.000    0.000 
#
# Total GULP energy -534601.994178 kJ/mol
# GULP energy per Si atom -5568.770773 kJ/mol
# Density = 1.747973 g / cm^3
# Si number density = 17.519602 Si / 1000 Ang^3
#
#
#
# Elastic Constant Matrix: (Units=GPa)
#
#
# Indices 1 2 3 4 5 6 
#
# 1 62.7289 29.0644 16.8163 0.0000 0.0000 0.0000
# 2 29.0644 62.7289 16.8163 0.0000 0.0000 0.0000
# 3 16.8163 16.8163 58.5359 0.0000 0.0000 0.0000
# 4 0.0000 0.0000 0.0000 5.7105 0.0000 0.0000
# 5 0.0000 0.0000 0.0000 0.0000 5.7105 0.0000
# 6 0.0000 0.0000 0.0000 0.0000 0.0000 27.9328
#
#
#
# Elastic Compliance Matrix: (Units=1/GPa)
#
#
# Indices 1 2 3 4 5 6 
#
# 1 0.020940 -0.008765 -0.003498 0.000000 0.000000 0.000000
# 2 -0.008765 0.020940 -0.003498 0.000000 0.000000 0.000000
# 3 -0.003498 -0.003498 0.019093 0.000000 0.000000 0.000000
# 4 0.000000 0.000000 0.000000 0.175115 0.000000 0.000000
# 5 0.000000 0.000000 0.000000 0.000000 0.175115 0.000000
# 6 0.000000 0.000000 0.000000 0.000000 0.000000 0.035800
#
#
# Mechanical properties :
#
#
# Convention : Reuss Voigt Hill
#
# Bulk Modulus (GPa) = 33.95221 34.37642 34.16431
# Shear Modulus (GPa) = 10.23872 15.95721 13.09797
#
# Velocity S-wave (km/s) = 2.42009 3.02125 2.73723
# Velocity P-wave (km/s) = 5.21831 5.64224 5.43441
#
# Compressibility (1/GPa) = 0.02945316
#
# Stress axis : x y z
#
# Youngs Moduli (GPa) = 47.75486 47.75486 52.37449
#
# Poissons Ratio (x) = 0.41855 0.18320
# Poissons Ratio (y) = 0.41855 0.18320
# Poissons Ratio (z) = 0.16704 0.16704
#
# Static dielectric constant tensor:
#      x y z
#    x 1.630900 0.000000 0.000000 
#    y 0.000000 1.630900 0.000000 
#    z 0.000000 0.000000 1.600820 
# 
# From -- ./inp_files/8468.got.cif
#   From: 2010.05.17/outbox.cif.g08.bks.cpg/sg136_5_cif.got.tgz:8468.got - 2010.05.20 12:54:53.
