data_PCOD9569698
_publ_section_title
;
Structure prediction by ZEFSAII (Michael W. Deem and Ramdas Pophale) SiO2 
 PCOD9569698
Probable space group: P 42/M N M
;
_chemical_formula_sum "Si O2"
_cell_formula_units_Z 64
_cell_length_a 14.397663
_cell_length_b 14.397663
_cell_length_c 14.544133
_cell_angle_alpha 90.000000
_cell_angle_beta 90.000000
_cell_angle_gamma 90.000000
_cell_volume 3014.892597
_symmetry_space_group_name_H-M "P 42/M N M"
_symmetry_group_IT_number 136
_symmetry_cell_setting 'tetragonal'
loop_
_space_group_symop_operation_xyz
x,y,z
1/2-y,1/2+x,1/2+z
-x,-y,z
1/2+y,1/2-x,1/2+z
1/2+x,1/2-y,1/2-z
1/2-x,1/2+y,1/2-z
y,x,-z
-y,-x,-z
-x,-y,-z
1/2+y,1/2-x,1/2-z
x,y,-z
1/2-y,1/2+x,1/2-z
1/2-x,1/2+y,1/2+z
1/2+x,1/2-y,1/2+z
-y,-x,z
y,x,z
loop_
_atom_site_type_symbol
_atom_site_label
_atom_site_fract_x
_atom_site_fract_y
_atom_site_fract_z
Si Si1 0.175976 0.321573 0.107259
Si Si2 0.957214 0.186887 0.285684
Si Si3 0.463562 0.208545 0.607975
Si Si4 0.272055 0.123952 0.606691
O O1 0.217767 0.217767 0.121196
O O2 0.236897 0.388314 0.169584
O O3 0.066973 0.329921 0.124121
O O4 0.192236 0.344874 0.000000
O O5 0.912980 0.087021 0.307618
O O6 0.955645 0.205852 0.177261
O O7 0.055248 0.214242 0.329336
O O8 0.455233 0.232602 0.500000
O O9 0.380620 0.136102 0.628481
O O10 0.263220 0.093858 0.500000
O O11 0.225253 0.225253 0.614069
#
# Coordination Sequence:
#
# PCOD9569698 Si02
#       4
#    16  16  16  16
#     4   9  19  37  60  86 115 145 183 235 290 342
#     4  11  22  36  58  86 116 150 189 235 287 343
#     4  10  21  37  59  85 115 153 192 233 286 345
#     4  10  22  40  60  83 114 152 195 241 286 336
#
# _framework density 21.227954
#
# number of rings (size 3 to 8) (size 9 to 14) (size 15 to 20)
#    0.000    2.000    0.000    3.000    0.000    7.500 
#    0.000    7.500    0.000    2.250    0.000   17.500 
#    0.000    0.000    0.000    0.000    0.000    0.000 
#
# Total GULP energy -357362.709311 kJ/mol
# GULP energy per Si atom -5583.792333 kJ/mol
# Density = 2.117964 g / cm^3
# Si number density = 21.227954 Si / 1000 Ang^3
#
#
#
# Elastic Constant Matrix: (Units=GPa)
#
#
# Indices 1 2 3 4 5 6 
#
# 1 97.3794 19.9090 18.4033 0.0000 0.0000 0.0000
# 2 19.9090 97.3794 18.4033 0.0000 0.0000 0.0000
# 3 18.4033 18.4033 59.7012 0.0000 0.0000 0.0000
# 4 0.0000 0.0000 0.0000 24.7678 0.0000 0.0000
# 5 0.0000 0.0000 0.0000 0.0000 24.7678 0.0000
# 6 0.0000 0.0000 0.0000 0.0000 0.0000 17.6131
#
#
#
# Elastic Compliance Matrix: (Units=1/GPa)
#
#
# Indices 1 2 3 4 5 6 
#
# 1 0.011174 -0.001735 -0.002910 0.000000 0.000000 0.000000
# 2 -0.001735 0.011174 -0.002910 0.000000 0.000000 0.000000
# 3 -0.002910 -0.002910 0.018544 0.000000 0.000000 0.000000
# 4 0.000000 0.000000 0.000000 0.040375 0.000000 0.000000
# 5 0.000000 0.000000 0.000000 0.000000 0.040375 0.000000
# 6 0.000000 0.000000 0.000000 0.000000 0.000000 0.056776
#
#
# Mechanical properties :
#
#
# Convention : Reuss Voigt Hill
#
# Bulk Modulus (GPa) = 38.78457 40.87679 39.83068
# Shear Modulus (GPa) = 24.73787 26.61270 25.67528
#
# Velocity S-wave (km/s) = 3.41742 3.54455 3.48156
# Velocity P-wave (km/s) = 5.82081 6.00414 5.91319
#
# Compressibility (1/GPa) = 0.02578345
#
# Stress axis : x y z
#
# Youngs Moduli (GPa) = 89.49653 89.49653 53.92608
#
# Poissons Ratio (x) = 0.15524 0.15691
# Poissons Ratio (y) = 0.15524 0.15691
# Poissons Ratio (z) = 0.26040 0.26040
#
# Static dielectric constant tensor:
#      x y z
#    x 1.757330 0.000000 0.000000 
#    y 0.000000 1.757330 0.000000 
#    z 0.000000 0.000000 1.792020 
# 
# From -- ./inp_files/4686.got.cif
#   From: 2010.05.17/outbox.cif.g08.bks.cpg/sg136_3_cif.got.tgz:4686.got - 2010.05.20 12:54:53.
