data_PCOD9569045
_publ_section_title
;
Structure prediction by ZEFSAII (Michael W. Deem and Ramdas Pophale) SiO2 
 PCOD9569045
Probable space group: P 42/M B C
;
_chemical_formula_sum "Si O2"
_cell_formula_units_Z 36
_cell_length_a 8.245633
_cell_length_b 8.245633
_cell_length_c 20.154547
_cell_angle_alpha 90.000000
_cell_angle_beta 90.000000
_cell_angle_gamma 90.000000
_cell_volume 1370.316994
_symmetry_space_group_name_H-M "P 42/M B C"
_symmetry_group_IT_number 135
_symmetry_cell_setting 'tetragonal'
loop_
_space_group_symop_operation_xyz
x,y,z
-y,x,1/2+z
-x,-y,z
y,-x,1/2+z
1/2+x,1/2-y,-z
1/2-x,1/2+y,-z
1/2+y,1/2+x,1/2-z
1/2-y,1/2-x,1/2-z
-x,-y,-z
y,-x,1/2-z
x,y,-z
-y,x,1/2-z
1/2-x,1/2+y,z
1/2+x,1/2-y,z
1/2-y,1/2-x,1/2+z
1/2+y,1/2+x,1/2+z
loop_
_atom_site_type_symbol
_atom_site_label
_atom_site_fract_x
_atom_site_fract_y
_atom_site_fract_z
Si Si1 0.138223 0.361163 0.574038
Si Si2 0.000000 0.500000 0.750000
Si Si3 0.553310 0.670940 0.839795
O O1 0.137097 0.292938 0.500000
O O2 0.139191 0.233260 0.633537
O O3 0.300953 0.455997 0.591674
O O4 0.000000 0.500000 0.577294
O O5 0.830735 0.479815 0.706383
O O6 0.500000 0.500000 0.812232
#
# Coordination Sequence:
#
# PCOD9569045 Si02
#       3
#    16   4  16
#     4  11  25  53  88 129 174 223 299 377 458 547
#     4  12  32  64  76 130 188 228 316 360 438 576
#     4  12  28  56  84 121 172 237 290 372 457 532
#
# _framework density 26.271293
#
# number of rings (size 3 to 8) (size 9 to 14) (size 15 to 20)
#    0.000    0.444    2.222    4.000    0.000    8.889 
#   16.000    0.000    0.000    0.000    0.000    0.000 
#    0.000    0.000    0.000    0.000    0.000    0.000 
#
# Total GULP energy -200811.909505 kJ/mol
# GULP energy per Si atom -5578.108597 kJ/mol
# Density = 2.621150 g / cm^3
# Si number density = 26.271293 Si / 1000 Ang^3
#
#
#
# Elastic Constant Matrix: (Units=GPa)
#
#
# Indices 1 2 3 4 5 6 
#
# 1 205.1892 64.4329 101.5924 0.0000 0.0000 0.0000
# 2 64.4329 205.1892 101.5924 0.0000 0.0000 0.0000
# 3 101.5924 101.5924 192.4098 0.0000 0.0000 0.0000
# 4 0.0000 0.0000 0.0000 22.9477 0.0000 0.0000
# 5 0.0000 0.0000 0.0000 0.0000 22.9477 0.0000
# 6 0.0000 0.0000 0.0000 0.0000 0.0000 32.6935
#
#
#
# Elastic Compliance Matrix: (Units=1/GPa)
#
#
# Indices 1 2 3 4 5 6 
#
# 1 0.006632 -0.000472 -0.003252 0.000000 0.000000 0.000000
# 2 -0.000472 0.006632 -0.003252 0.000000 0.000000 0.000000
# 3 -0.003252 -0.003252 0.008632 0.000000 0.000000 0.000000
# 4 0.000000 0.000000 0.000000 0.043577 0.000000 0.000000
# 5 0.000000 0.000000 0.000000 0.000000 0.043577 0.000000
# 6 0.000000 0.000000 0.000000 0.000000 0.000000 0.030587
#
#
# Mechanical properties :
#
#
# Convention : Reuss Voigt Hill
#
# Bulk Modulus (GPa) = 125.91461 126.44706 126.18084
# Shear Modulus (GPa) = 32.00211 38.06246 35.03228
#
# Velocity S-wave (km/s) = 3.49397 3.81047 3.65565
# Velocity P-wave (km/s) = 8.01934 8.22164 8.12112
#
# Compressibility (1/GPa) = 0.00794189
#
# Stress axis : x y z
#
# Youngs Moduli (GPa) = 150.77991 150.77991 115.85073
#
# Poissons Ratio (x) = 0.07121 0.37680
# Poissons Ratio (y) = 0.07121 0.37680
# Poissons Ratio (z) = 0.49040 0.49040
#
# Static dielectric constant tensor:
#      x y z
#    x 2.310440 0.000000 0.000000 
#    y 0.000000 2.310440 0.000000 
#    z 0.000000 0.000000 2.060810 
# 
# From -- ./inp_files/4810.got.cif
#   From: 2010.05.17/outbox.cif.g08.bks.cpg/sg135_3_cif.got.tgz:4810.got - 2010.05.20 12:50:20.
