data_PCOD9569497
_publ_section_title
;
Structure prediction by ZEFSAII (Michael W. Deem and Ramdas Pophale) SiO2 
 PCOD9569497
Probable space group: P 42/M N M
;
_chemical_formula_sum "Si O2"
_cell_formula_units_Z 72
_cell_length_a 11.202140
_cell_length_b 11.202140
_cell_length_c 29.877480
_cell_angle_alpha 90.000000
_cell_angle_beta 90.000000
_cell_angle_gamma 90.000000
_cell_volume 3749.263435
_symmetry_space_group_name_H-M "P 42/M N M"
_symmetry_group_IT_number 136
_symmetry_cell_setting 'tetragonal'
loop_
_space_group_symop_operation_xyz
x,y,z
1/2-y,1/2+x,1/2+z
-x,-y,z
1/2+y,1/2-x,1/2+z
1/2+x,1/2-y,1/2-z
1/2-x,1/2+y,1/2-z
y,x,-z
-y,-x,-z
-x,-y,-z
1/2+y,1/2-x,1/2-z
x,y,-z
1/2-y,1/2+x,1/2-z
1/2-x,1/2+y,1/2+z
1/2+x,1/2-y,1/2+z
-y,-x,z
y,x,z
loop_
_atom_site_type_symbol
_atom_site_label
_atom_site_fract_x
_atom_site_fract_y
_atom_site_fract_z
Si Si1 0.396506 0.099463 0.140645
Si Si2 0.403879 0.596122 0.945536
Si Si3 0.948141 0.758745 0.300248
Si Si4 0.715032 0.081667 0.449387
Si Si5 0.257169 0.445409 0.298419
O O1 0.449835 0.214734 0.166049
O O2 0.375055 0.127369 0.088940
O O3 0.500000 0.000000 0.142891
O O4 0.285441 0.047565 0.167878
O O5 0.500000 0.500000 0.928035
O O6 0.454534 0.726411 0.934577
O O7 0.408819 0.591182 0.000000
O O8 0.876308 0.876308 0.314830
O O9 0.850273 0.652097 0.296285
O O10 0.002534 0.775195 0.251050
O O11 0.667125 0.071750 0.500000
O O12 0.824536 0.175465 0.451283
O O13 0.374299 0.374299 0.312990
#
# Coordination Sequence:
#
# PCOD9569497 Si02
#       5
#    16   8  16  16  16
#     4  10  21  34  54  80 112 146 176 226 275 323
#     4   7  12  26  48  74 104 136 169 215 273 327
#     4  10  20  34  55  80 107 143 183 223 274 333
#     4   9  18  33  53  77 107 142 180 223 274 329
#     4  10  20  36  56  76 107 147 184 224 276 330
#
# _framework density 19.203772000000001
#
# number of rings (size 3 to 8) (size 9 to 14) (size 15 to 20)
#    0.000    2.556    2.222    1.333    1.556    2.667 
#    0.000    0.000    0.000    0.667    0.000    1.556 
#    0.000    0.000    0.000    0.000    0.000    0.000 
#
# Total GULP energy -401600.289067 kJ/mol
# GULP energy per Si atom -5577.781793 kJ/mol
# Density = 1.916006 g / cm^3
# Si number density = 19.203772 Si / 1000 Ang^3
#
#
#
# Elastic Constant Matrix: (Units=GPa)
#
#
# Indices 1 2 3 4 5 6 
#
# 1 53.0449 37.4099 39.8055 0.0000 0.0000 0.0000
# 2 37.4099 53.0449 39.8055 0.0000 0.0000 0.0000
# 3 39.8055 39.8055 126.4951 0.0000 0.0000 0.0000
# 4 0.0000 0.0000 0.0000 7.4234 0.0000 0.0000
# 5 0.0000 0.0000 0.0000 0.0000 7.4235 0.0000
# 6 0.0000 0.0000 0.0000 0.0000 0.0000 11.8076
#
#
#
# Elastic Compliance Matrix: (Units=1/GPa)
#
#
# Indices 1 2 3 4 5 6 
#
# 1 0.039624 -0.024335 -0.004811 0.000000 0.000000 0.000000
# 2 -0.024335 0.039624 -0.004811 0.000000 0.000000 0.000000
# 3 -0.004811 -0.004811 0.010934 0.000000 0.000000 0.000000
# 4 0.000000 0.000000 0.000000 0.134709 0.000000 0.000000
# 5 0.000000 0.000000 0.000000 0.000000 0.134707 0.000000
# 6 0.000000 0.000000 0.000000 0.000000 0.000000 0.084691
#
#
# Mechanical properties :
#
#
# Convention : Reuss Voigt Hill
#
# Bulk Modulus (GPa) = 44.90823 51.84740 48.37781
# Shear Modulus (GPa) = 9.62228 13.03516 11.32872
#
# Velocity S-wave (km/s) = 2.24087 2.60817 2.43147
# Velocity P-wave (km/s) = 5.48919 6.01059 5.75580
#
# Compressibility (1/GPa) = 0.02226763
#
# Stress axis : x y z
#
# Youngs Moduli (GPa) = 25.23693 25.23698 91.46145
#
# Poissons Ratio (x) = 0.61413 0.44006
# Poissons Ratio (y) = 0.61413 0.44006
# Poissons Ratio (z) = 0.12143 0.12143
#
# Static dielectric constant tensor:
#      x y z
#    x 1.696070 0.000000 0.000000 
#    y 0.000000 1.696070 0.000000 
#    z 0.000000 0.000000 1.646680 
# 
# From -- ./inp_files/9461.got.cif
#   From: 2010.05.17/outbox.cif.g08.bks.cpg/sg136_5_cif.got.tgz:9461.got - 2010.05.20 12:54:53.
