data_PCOD9569027
_publ_section_title
;
Structure prediction by ZEFSAII (Michael W. Deem and Ramdas Pophale) SiO2 
 PCOD9569027
Probable space group: P 42/M B C
;
_chemical_formula_sum "Si O2"
_cell_formula_units_Z 48
_cell_length_a 8.852743
_cell_length_b 8.852743
_cell_length_c 24.218532
_cell_angle_alpha 90.000000
_cell_angle_beta 90.000000
_cell_angle_gamma 90.000000
_cell_volume 1898.031991
_symmetry_space_group_name_H-M "P 42/M B C"
_symmetry_group_IT_number 135
_symmetry_cell_setting 'tetragonal'
loop_
_space_group_symop_operation_xyz
x,y,z
-y,x,1/2+z
-x,-y,z
y,-x,1/2+z
1/2+x,1/2-y,-z
1/2-x,1/2+y,-z
1/2+y,1/2+x,1/2-z
1/2-y,1/2-x,1/2-z
-x,-y,-z
y,-x,1/2-z
x,y,-z
-y,x,1/2-z
1/2-x,1/2+y,z
1/2+x,1/2-y,z
1/2-y,1/2-x,1/2+z
1/2+y,1/2+x,1/2+z
loop_
_atom_site_type_symbol
_atom_site_label
_atom_site_fract_x
_atom_site_fract_y
_atom_site_fract_z
Si Si1 0.038651 0.725970 0.062928
Si Si2 0.729145 0.043816 0.895880
Si Si3 0.272953 0.457660 0.229382
O O1 0.162677 0.592160 0.068197
O O2 0.122158 0.877435 0.080789
O O3 0.902577 0.671405 0.101778
O O4 0.984038 0.734063 0.000000
O O5 0.754117 0.991747 0.833464
O O6 0.122403 0.377598 0.250000
O O7 0.332256 0.594091 0.266869
#
# Coordination Sequence:
#
# PCOD9569027 Si02
#       3
#    16  16  16
#     4  11  23  42  66  98 132 171 215 263 321 388
#     4  11  23  41  64  92 130 171 213 267 320 379
#     4  11  24  42  63  92 125 165 214 263 317 381
#
# _framework density 25.289349999999999
#
# number of rings (size 3 to 8) (size 9 to 14) (size 15 to 20)
#    0.000    1.000    0.000    8.000    0.000    7.333 
#    0.000    3.333    0.000    0.000    0.000    0.000 
#    0.000    0.000    0.000    0.000    0.000    0.000 
#
# Total GULP energy -269334.258918 kJ/mol
# GULP energy per Si atom -5611.130394 kJ/mol
# Density = 2.523179 g / cm^3
# Si number density = 25.289350 Si / 1000 Ang^3
#
#
#
# Elastic Constant Matrix: (Units=GPa)
#
#
# Indices 1 2 3 4 5 6 
#
# 1 61.1350 67.9780 -0.4604 0.0000 0.0000 0.0000
# 2 67.9780 61.1331 -0.4590 0.0000 0.0000 0.0000
# 3 -0.4604 -0.4590 110.9698 0.0000 0.0000 0.0000
# 4 0.0000 0.0000 0.0000 12.3180 0.0000 0.0000
# 5 0.0000 0.0000 0.0000 0.0000 12.3176 0.0000
# 6 0.0000 0.0000 0.0000 0.0000 0.0000 68.1820
#
#
#
# Elastic Compliance Matrix: (Units=1/GPa)
#
#
# Indices 1 2 3 4 5 6 
#
# 1 -0.069184 0.076930 0.000031 0.000000 0.000000 0.000000
# 2 0.076930 -0.069186 0.000033 0.000000 0.000000 0.000000
# 3 0.000031 0.000033 0.009012 0.000000 0.000000 0.000000
# 4 0.000000 0.000000 0.000000 0.081182 0.000000 0.000000
# 5 0.000000 0.000000 0.000000 0.000000 0.081184 0.000000
# 6 0.000000 0.000000 0.000000 0.000000 0.000000 0.014667
#
#
# Mechanical properties :
#
#
# Convention : Reuss Voigt Hill
#
# Bulk Modulus (GPa) = 40.59932 40.81723 40.70828
# Shear Modulus (GPa) = -50.96689 29.64215 -10.66237
#
# Velocity S-wave (km/s) = -4.49414 3.42734 -2.05555
# Velocity P-wave (km/s) = 3.29255 5.64246 3.24009
#
# Compressibility (1/GPa) = 0.02463095
#
# Stress axis : x y z
#
# Youngs Moduli (GPa) = -14.45430 -14.45385 110.96648
#
# Poissons Ratio (x) = 1.11194 -0.00346
# Poissons Ratio (y) = 1.11197 -0.00366
# Poissons Ratio (z) = 0.00045 0.00048
#
# Static dielectric constant tensor:
#      x y z
#    x 2.016940 0.000000 0.000000 
#    y 0.000000 2.016940 0.000000 
#    z 0.000000 0.000000 1.846320 
# 
# From -- ./inp_files/6602.got.cif
#   From: 2010.05.17/outbox.cif.g08.bks.cpg/sg135_4_cif.got.tgz:6602.got - 2010.05.20 12:50:20.
