data_PCOD9569150
_publ_section_title
;
Structure prediction by ZEFSAII (Michael W. Deem and Ramdas Pophale) SiO2 
 PCOD9569150
Probable space group: P 42/M N M
;
_chemical_formula_sum "Si O2"
_cell_formula_units_Z 96
_cell_length_a 17.293418
_cell_length_b 17.293418
_cell_length_c 20.862517
_cell_angle_alpha 90.000000
_cell_angle_beta 90.000000
_cell_angle_gamma 90.000000
_cell_volume 6239.192446
_symmetry_space_group_name_H-M "P 42/M N M"
_symmetry_group_IT_number 136
_symmetry_cell_setting 'tetragonal'
loop_
_space_group_symop_operation_xyz
x,y,z
1/2-y,1/2+x,1/2+z
-x,-y,z
1/2+y,1/2-x,1/2+z
1/2+x,1/2-y,1/2-z
1/2-x,1/2+y,1/2-z
y,x,-z
-y,-x,-z
-x,-y,-z
1/2+y,1/2-x,1/2-z
x,y,-z
1/2-y,1/2+x,1/2-z
1/2-x,1/2+y,1/2+z
1/2+x,1/2-y,1/2+z
-y,-x,z
y,x,z
loop_
_atom_site_type_symbol
_atom_site_label
_atom_site_fract_x
_atom_site_fract_y
_atom_site_fract_z
Si Si1 0.206365 0.921387 0.378439
Si Si2 0.275991 0.593128 0.073931
Si Si3 0.273750 0.594241 0.688976
Si Si4 0.921351 0.206855 0.776036
Si Si5 0.669339 0.198326 0.810446
Si Si6 0.170593 0.303284 0.927689
O O1 0.133511 0.866490 0.395380
O O2 0.210720 0.924760 0.301333
O O3 0.282841 0.878805 0.404775
O O4 0.200251 0.006547 0.407105
O O5 0.349200 0.650801 0.080991
O O6 0.211767 0.622876 0.124110
O O7 0.250854 0.596094 0.000000
O O8 0.345606 0.654395 0.689503
O O9 0.301729 0.506947 0.696688
O O10 0.220144 0.616306 0.749808
O O11 0.224844 0.609354 0.624687
O O12 0.864621 0.135380 0.792427
O O13 0.881667 0.285699 0.801125
O O14 0.737419 0.262582 0.809477
O O15 0.235927 0.235927 0.928176
O O16 0.141118 0.312336 0.000000
#
# Coordination Sequence:
#
# PCOD9569150 Si02
#       6
#    16  16  16  16  16  16
#     4  10  18  29  48  75 103 130 161 200 246 289
#     4  10  20  32  47  69 101 139 169 196 235 287
#     4  10  18  31  52  74  98 129 161 200 244 287
#     4  10  19  31  51  77 102 127 160 204 245 284
#     4   9  17  32  49  67  94 130 171 203 228 275
#     4   9  17  30  49  72  96 124 162 205 246 290
#
# _framework density 15.386607
#
# number of rings (size 3 to 8) (size 9 to 14) (size 15 to 20)
#    0.000    2.333    3.333    0.500    0.000    1.667 
#    0.000    3.333    0.000    5.000    0.000    4.667 
#    0.000    0.000    0.000    0.000    0.000    0.000 
#
# Total GULP energy -534899.782866 kJ/mol
# GULP energy per Si atom -5571.872738 kJ/mol
# Density = 1.535159 g / cm^3
# Si number density = 15.386607 Si / 1000 Ang^3
#
#
#
# Elastic Constant Matrix: (Units=GPa)
#
#
# Indices 1 2 3 4 5 6 
#
# 1 45.4518 56.0054 47.2914 0.0000 0.0000 0.0000
# 2 56.0054 45.4518 47.2914 0.0000 0.0000 0.0000
# 3 47.2914 47.2914 121.1747 0.0000 0.0000 0.0000
# 4 0.0000 0.0000 0.0000 19.1730 0.0000 0.0000
# 5 0.0000 0.0000 0.0000 0.0000 19.1730 0.0000
# 6 0.0000 0.0000 0.0000 0.0000 0.0000 12.6806
#
#
#
# Elastic Compliance Matrix: (Units=1/GPa)
#
#
# Indices 1 2 3 4 5 6 
#
# 1 -0.039631 0.055124 -0.006047 0.000000 0.000000 0.000000
# 2 0.055124 -0.039631 -0.006047 0.000000 0.000000 0.000000
# 3 -0.006047 -0.006047 0.012972 0.000000 0.000000 0.000000
# 4 0.000000 0.000000 0.000000 0.052157 0.000000 0.000000
# 5 0.000000 0.000000 0.000000 0.000000 0.052157 0.000000
# 6 0.000000 0.000000 0.000000 0.000000 0.000000 0.078861
#
#
# Mechanical properties :
#
#
# Convention : Reuss Voigt Hill
#
# Bulk Modulus (GPa) = 50.57581 57.02831 53.80206
# Shear Modulus (GPa) = 133.64087 14.30466 73.97277
#
# Velocity S-wave (km/s) = 9.32973 3.05238 6.94121
# Velocity P-wave (km/s) = 12.20655 7.04037 9.96410
#
# Compressibility (1/GPa) = 0.01977230
#
# Stress axis : x y z
#
# Youngs Moduli (GPa) = -25.23289 -25.23289 77.08756
#
# Poissons Ratio (x) = 1.39094 0.46612
# Poissons Ratio (y) = 1.39094 0.46612
# Poissons Ratio (z) = -0.15257 -0.15257
#
# Static dielectric constant tensor:
#      x y z
#    x 1.497480 0.000000 0.000000 
#    y 0.000000 1.497480 0.000000 
#    z 0.000000 0.000000 1.523600 
# 
# From -- ./inp_files/6299.got.cif
#   From: 2010.05.17/outbox.cif.g08.bks.cpg/sg136_4_cif.got.tgz:6299.got - 2010.05.20 12:54:53.
