data_PCOD9569970
_publ_section_title
;
Structure prediction by ZEFSAII (Michael W. Deem and Ramdas Pophale) SiO2 
 PCOD9569970
Probable space group: P 42/N M C
;
_chemical_formula_sum "Si O2"
_cell_formula_units_Z 80
_cell_length_a 14.655603
_cell_length_b 14.655603
_cell_length_c 25.301222
_cell_angle_alpha 90.000000
_cell_angle_beta 90.000000
_cell_angle_gamma 90.000000
_cell_volume 5434.365961
_symmetry_space_group_name_H-M "P 42/N M C"
_symmetry_group_IT_number 137
_space_group.IT_coordinate_system_code '2'
_symmetry_cell_setting 'tetragonal'
loop_
_space_group_symop_operation_xyz
x,y,z
1/2-y,x,1/2+z
1/2-x,1/2-y,z
y,1/2-x,1/2+z
1/2+x,-y,-z
-x,1/2+y,-z
1/2+y,1/2+x,1/2-z
-y,-x,1/2-z
-x,-y,-z
1/2+y,-x,1/2-z
1/2+x,1/2+y,-z
-y,1/2+x,1/2-z
1/2-x,y,z
x,1/2-y,z
1/2-y,1/2-x,1/2+z
y,x,1/2+z
loop_
_atom_site_type_symbol
_atom_site_label
_atom_site_fract_x
_atom_site_fract_y
_atom_site_fract_z
Si Si1 0.856335 0.856126 0.481863
Si Si2 0.357805 0.498815 0.228899
Si Si3 0.856195 0.489332 0.895303
Si Si4 0.359218 0.022841 0.415576
Si Si5 0.639444 0.646264 0.684569
O O1 0.750000 0.869208 0.467368
O O2 0.865802 0.750000 0.499196
O O3 0.878121 0.923084 0.530260
O O4 0.923286 0.870463 0.432761
O O5 0.417136 0.582865 0.250000
O O6 0.250000 0.515275 0.238422
O O7 0.370793 0.487506 0.166351
O O8 0.384776 0.410017 0.262879
O O9 0.750000 0.460769 0.901120
O O10 0.927826 0.411982 0.911602
O O11 0.250000 0.009030 0.411923
O O12 0.387835 0.087126 0.366437
O O13 0.750000 0.650919 0.682997
O O14 0.605106 0.750000 0.683559
#
# Coordination Sequence:
#
# PCOD9569970 Si02
#       5
#    16  16  16  16  16
#     4   9  18  32  49  69  92 121 156 194 238 277
#     4  10  19  31  45  65  95 127 154 184 222 271
#     4  10  20  31  46  68  96 127 156 188 229 278
#     4  10  18  30  48  68  94 124 154 191 230 275
#     4   9  17  29  46  67  89 117 154 193 230 266
#
# _framework density 14.721128
#
# number of rings (size 3 to 8) (size 9 to 14) (size 15 to 20)
#    0.000    2.400    2.000    1.200    0.000    3.800 
#    0.000    6.000    0.000    0.000    0.000    0.000 
#    0.000    2.000    0.000    0.000    0.000    0.000 
#
# Total GULP energy -445727.873877 kJ/mol
# GULP energy per Si atom -5571.598423 kJ/mol
# Density = 1.468762 g / cm^3
# Si number density = 14.721128 Si / 1000 Ang^3
#
#
#
# Elastic Constant Matrix: (Units=GPa)
#
#
# Indices 1 2 3 4 5 6 
#
# 1 83.3511 60.5813 69.8572 0.0000 0.0000 0.0000
# 2 60.5813 83.3481 69.8583 0.0000 0.0000 0.0000
# 3 69.8572 69.8583 122.9266 0.0000 0.0000 0.0000
# 4 0.0000 0.0000 0.0000 21.7038 0.0000 0.0000
# 5 0.0000 0.0000 0.0000 0.0000 21.7046 0.0000
# 6 0.0000 0.0000 0.0000 0.0000 0.0000 21.2637
#
#
#
# Elastic Compliance Matrix: (Units=1/GPa)
#
#
# Indices 1 2 3 4 5 6 
#
# 1 0.029707 -0.014212 -0.008805 0.000000 0.000000 0.000000
# 2 -0.014212 0.029710 -0.008807 0.000000 0.000000 0.000000
# 3 -0.008805 -0.008807 0.018144 0.000000 0.000000 0.000000
# 4 0.000000 0.000000 0.000000 0.046075 0.000000 0.000000
# 5 0.000000 0.000000 0.000000 0.000000 0.046073 0.000000
# 6 0.000000 0.000000 0.000000 0.000000 0.000000 0.047029
#
#
# Mechanical properties :
#
#
# Convention : Reuss Voigt Hill
#
# Bulk Modulus (GPa) = 71.88497 76.69107 74.28802
# Shear Modulus (GPa) = 17.54238 18.88969 18.21603
#
# Velocity S-wave (km/s) = 3.45577 3.58602 3.52150
# Velocity P-wave (km/s) = 8.05359 8.32797 8.19193
#
# Compressibility (1/GPa) = 0.01391111
#
# Stress axis : x y z
#
# Youngs Moduli (GPa) = 33.66210 33.65883 55.11486
#
# Poissons Ratio (x) = 0.47837 0.48530
# Poissons Ratio (y) = 0.47842 0.48541
# Poissons Ratio (z) = 0.29640 0.29644
#
# Static dielectric constant tensor:
#      x y z
#    x 1.471810 0.000000 0.000000 
#    y 0.000000 1.471810 0.000000 
#    z 0.000000 0.000000 1.485390 
# 
# From -- ./inp_files/7546.got.cif
#   From: 2010.05.17/outbox.cif.g08.bks.cpg/sg137_4_cif.got.tgz:7546.got - 2010.05.20 13:01:12.
