data_PCOD9569082
_publ_section_title
;
Structure prediction by ZEFSAII (Michael W. Deem and Ramdas Pophale) SiO2 
 PCOD9569082
Probable space group: P 42/M B C
;
_chemical_formula_sum "Si O2"
_cell_formula_units_Z 112
_cell_length_a 15.000000
_cell_length_b 15.000000
_cell_length_c 24.000000
_cell_angle_alpha 90.000000
_cell_angle_beta 90.000000
_cell_angle_gamma 90.000000
_cell_volume 5400.000000
_symmetry_space_group_name_H-M "P 42/M B C"
_symmetry_group_IT_number 135
_symmetry_cell_setting 'tetragonal'
loop_
_space_group_symop_operation_xyz
x,y,z
-y,x,1/2+z
-x,-y,z
y,-x,1/2+z
1/2+x,1/2-y,-z
1/2-x,1/2+y,-z
1/2+y,1/2+x,1/2-z
1/2-y,1/2-x,1/2-z
-x,-y,-z
y,-x,1/2-z
x,y,-z
-y,x,1/2-z
1/2-x,1/2+y,z
1/2+x,1/2-y,z
1/2-y,1/2-x,1/2+z
1/2+y,1/2+x,1/2+z
loop_
_atom_site_type_symbol
_atom_site_label
_atom_site_fract_x
_atom_site_fract_y
_atom_site_fract_z
Si Si1 0.092187 0.044281 0.130783
Si Si2 0.777948 0.006518 0.628788
Si Si3 0.561222 0.675116 0.252020
Si Si4 0.839151 0.673284 0.605388
Si Si5 0.829928 0.284187 0.934807
Si Si6 0.021063 0.730191 0.565455
Si Si7 0.388117 0.758581 0.277518
O O1 0.075596 0.144986 0.111361
O O2 0.106811 0.035206 0.197921
O O3 0.177825 0.007951 0.099000
O O4 0.000000 0.000000 0.115425
O O5 0.694850 0.075314 0.624498
O O6 0.818211 0.970956 0.687975
O O7 0.758173 0.916188 0.595368
O O8 0.495792 0.755421 0.273334
O O9 0.668239 0.657698 0.248493
O O10 0.770075 0.737291 0.572747
O O11 0.856961 0.732671 0.659884
O O12 0.934054 0.669686 0.574491
O O13 0.813052 0.385773 0.914598
O O14 0.851066 0.286913 0.000000
O O15 0.030555 0.749895 0.500000
O O16 0.344903 0.844903 0.250000
#
# Coordination Sequence:
#
# PCOD9569082 Si02
#       7
#    16  16  16  16  16  16  16
#     4  12  24  40  69 108 142 177 230 290 352 419
#     4  12  25  41  70 104 133 183 236 281 350 423
#     4  12  23  38  66  99 138 177 217 272 347 414
#     4  12  23  44  71  99 137 182 232 286 351 419
#     4  11  26  48  69  99 138 182 239 297 353 416
#     4  11  26  46  69  98 139 188 238 295 354 412
#     4  12  24  39  67 100 134 177 222 272 336 419
#
# _framework density 20.740741
#
# number of rings (size 3 to 8) (size 9 to 14) (size 15 to 20)
#    0.000    0.286    7.143    2.143    0.000    2.571 
#    0.000    1.429    0.000    0.429    0.000    0.000 
#    0.000    0.000    0.000    0.000    0.000    0.000 
#
# Total GULP energy -623519.630478 kJ/mol
# GULP energy per Si atom -5567.139558 kJ/mol
# Density = 2.069353 g / cm^3
# Si number density = 20.740741 Si / 1000 Ang^3
#
#
#
# Elastic Constant Matrix: (Units=GPa)
#
#
# Indices 1 2 3 4 5 6 
#
# 1 72.3779 6.4168 23.4610 0.0000 0.0000 0.0000
# 2 6.4168 72.3779 23.4610 0.0000 0.0000 0.0000
# 3 23.4610 23.4610 71.5944 0.0000 0.0000 0.0000
# 4 0.0000 0.0000 0.0000 20.7172 0.0000 0.0000
# 5 0.0000 0.0000 0.0000 0.0000 20.7172 0.0000
# 6 0.0000 0.0000 0.0000 0.0000 0.0000 39.5155
#
#
#
# Elastic Compliance Matrix: (Units=1/GPa)
#
#
# Indices 1 2 3 4 5 6 
#
# 1 0.015464 0.000304 -0.005167 0.000000 0.000000 0.000000
# 2 0.000304 0.015464 -0.005167 0.000000 0.000000 0.000000
# 3 -0.005167 -0.005167 0.017354 0.000000 0.000000 0.000000
# 4 0.000000 0.000000 0.000000 0.048269 0.000000 0.000000
# 5 0.000000 0.000000 0.000000 0.000000 0.048269 0.000000
# 6 0.000000 0.000000 0.000000 0.000000 0.000000 0.025307
#
#
# Mechanical properties :
#
#
# Convention : Reuss Voigt Hill
#
# Bulk Modulus (GPa) = 35.43344 35.89198 35.66271
# Shear Modulus (GPa) = 25.05067 27.05741 26.05404
#
# Velocity S-wave (km/s) = 3.47911 3.61578 3.54810
# Velocity P-wave (km/s) = 5.76715 5.89699 5.83243
#
# Compressibility (1/GPa) = 0.02822193
#
# Stress axis : x y z
#
# Youngs Moduli (GPa) = 64.66491 64.66491 57.62342
#
# Poissons Ratio (x) = -0.01965 0.29775
# Poissons Ratio (y) = -0.01965 0.29775
# Poissons Ratio (z) = 0.33413 0.33413
#
# Static dielectric constant tensor:
#      x y z
#    x 1.895100 0.000000 0.000000 
#    y 0.000000 1.895100 0.000000 
#    z 0.000000 0.000000 1.794770 
# 
# From -- ./inp_files/6111.got.cif
#   From: 2010.05.17/outbox.ucp.g08.bks.cvg/sg135_4_cif.got.tgz:6111.got - 2010.06.11 11:40:18.
