data_PCOD9569829
_publ_section_title
;
Structure prediction by ZEFSAII (Michael W. Deem and Ramdas Pophale) SiO2 
 PCOD9569829
Probable space group: P 42/M N M
;
_chemical_formula_sum "Si O2"
_cell_formula_units_Z 48
_cell_length_a 10.888675
_cell_length_b 10.888675
_cell_length_c 22.359120
_cell_angle_alpha 90.000000
_cell_angle_beta 90.000000
_cell_angle_gamma 90.000000
_cell_volume 2650.969784
_symmetry_space_group_name_H-M "P 42/M N M"
_symmetry_group_IT_number 136
_symmetry_cell_setting 'tetragonal'
loop_
_space_group_symop_operation_xyz
x,y,z
1/2-y,1/2+x,1/2+z
-x,-y,z
1/2+y,1/2-x,1/2+z
1/2+x,1/2-y,1/2-z
1/2-x,1/2+y,1/2-z
y,x,-z
-y,-x,-z
-x,-y,-z
1/2+y,1/2-x,1/2-z
x,y,-z
1/2-y,1/2+x,1/2-z
1/2-x,1/2+y,1/2+z
1/2+x,1/2-y,1/2+z
-y,-x,z
y,x,z
loop_
_atom_site_type_symbol
_atom_site_label
_atom_site_fract_x
_atom_site_fract_y
_atom_site_fract_z
Si Si1 0.919806 0.621090 0.328095
Si Si2 0.797424 0.007017 0.569448
Si Si3 0.999869 0.804823 0.223148
O O1 0.963546 0.689278 0.387694
O O2 0.945540 0.716795 0.274384
O O3 0.781102 0.571360 0.323638
O O4 0.000000 0.500000 0.319599
O O5 0.760365 0.018762 0.500000
O O6 0.901730 0.901730 0.572516
O O7 0.866595 0.133406 0.587597
O O8 0.889281 0.889281 0.198773
O O9 0.100648 0.899353 0.249172
#
# Coordination Sequence:
#
# PCOD9569829 Si02
#       3
#    16  16  16
#     4  12  22  35  55  83 114 150 184 241 286 340
#     4   9  19  37  61  86 112 147 191 238 286 337
#     4  11  22  36  55  79 112 152 191 234 284 339
#
# _framework density 18.106583000000001
#
# number of rings (size 3 to 8) (size 9 to 14) (size 15 to 20)
#    0.000    1.333    3.333    5.000    0.000    4.667 
#    0.000    0.000    0.000    1.000    0.000    4.667 
#    0.000    0.000    0.000    0.000    0.000    0.000 
#
# Total GULP energy -267788.972832 kJ/mol
# GULP energy per Si atom -5578.936934 kJ/mol
# Density = 1.806537 g / cm^3
# Si number density = 18.106583 Si / 1000 Ang^3
#
#
#
# Elastic Constant Matrix: (Units=GPa)
#
#
# Indices 1 2 3 4 5 6 
#
# 1 123.8428 64.7200 48.3703 0.0000 0.0000 0.0000
# 2 64.7200 123.8428 48.3703 0.0000 0.0000 0.0000
# 3 48.3703 48.3703 80.5110 0.0000 0.0000 0.0000
# 4 0.0000 0.0000 0.0000 18.6867 0.0000 0.0000
# 5 0.0000 0.0000 0.0000 0.0000 18.6867 0.0000
# 6 0.0000 0.0000 0.0000 0.0000 0.0000 44.7352
#
#
#
# Elastic Compliance Matrix: (Units=1/GPa)
#
#
# Indices 1 2 3 4 5 6 
#
# 1 0.012290 -0.004624 -0.004606 0.000000 0.000000 0.000000
# 2 -0.004624 0.012290 -0.004606 0.000000 0.000000 0.000000
# 3 -0.004606 -0.004606 0.017955 0.000000 0.000000 0.000000
# 4 0.000000 0.000000 0.000000 0.053514 0.000000 0.000000
# 5 0.000000 0.000000 0.000000 0.000000 0.053514 0.000000
# 6 0.000000 0.000000 0.000000 0.000000 0.000000 0.022354
#
#
# Mechanical properties :
#
#
# Convention : Reuss Voigt Hill
#
# Bulk Modulus (GPa) = 67.27589 72.34643 69.81116
# Shear Modulus (GPa) = 24.44482 27.53747 25.99114
#
# Velocity S-wave (km/s) = 3.67829 3.90404 3.79285
# Velocity P-wave (km/s) = 7.43478 7.76947 7.60397
#
# Compressibility (1/GPa) = 0.01486417
#
# Stress axis : x y z
#
# Youngs Moduli (GPa) = 81.36636 81.36636 55.69505
#
# Poissons Ratio (x) = 0.37623 0.25652
# Poissons Ratio (y) = 0.37623 0.25652
# Poissons Ratio (z) = 0.37476 0.37476
#
# Static dielectric constant tensor:
#      x y z
#    x 1.656530 0.000000 0.000000 
#    y 0.000000 1.656530 0.000000 
#    z 0.000000 0.000000 1.613730 
# 
# From -- ./inp_files/5705.got.cif
#   From: 2010.05.17/outbox.cif.g08.bks.cpg/sg136_3_cif.got.tgz:5705.got - 2010.05.20 12:54:53.
