data_PCOD9569413
_publ_section_title
;
Structure prediction by ZEFSAII (Michael W. Deem and Ramdas Pophale) SiO2 
 PCOD9569413
Probable space group: P 42/M N M
;
_chemical_formula_sum "Si O2"
_cell_formula_units_Z 96
_cell_length_a 25.817009
_cell_length_b 25.817009
_cell_length_c 9.197745
_cell_angle_alpha 90.000000
_cell_angle_beta 90.000000
_cell_angle_gamma 90.000000
_cell_volume 6130.462176
_symmetry_space_group_name_H-M "P 42/M N M"
_symmetry_group_IT_number 136
_symmetry_cell_setting 'tetragonal'
loop_
_space_group_symop_operation_xyz
x,y,z
1/2-y,1/2+x,1/2+z
-x,-y,z
1/2+y,1/2-x,1/2+z
1/2+x,1/2-y,1/2-z
1/2-x,1/2+y,1/2-z
y,x,-z
-y,-x,-z
-x,-y,-z
1/2+y,1/2-x,1/2-z
x,y,-z
1/2-y,1/2+x,1/2-z
1/2-x,1/2+y,1/2+z
1/2+x,1/2-y,1/2+z
-y,-x,z
y,x,z
loop_
_atom_site_type_symbol
_atom_site_label
_atom_site_fract_x
_atom_site_fract_y
_atom_site_fract_z
Si Si1 0.600676 0.685892 0.174631
Si Si2 0.688259 0.001059 0.166035
Si Si3 0.105049 0.693768 0.325783
Si Si4 0.804293 0.891024 0.672319
Si Si5 0.306306 0.113691 0.176376
Si Si6 0.504580 0.314011 0.332697
O O1 0.648033 0.648033 0.210403
O O2 0.612076 0.745766 0.215550
O O3 0.547997 0.668856 0.253943
O O4 0.592845 0.684683 0.000000
O O5 0.672183 0.943597 0.215348
O O6 0.751086 0.998018 0.166969
O O7 0.674391 0.050743 0.260535
O O8 0.671319 0.008944 0.000000
O O9 0.101800 0.691847 0.500000
O O10 0.153162 0.658038 0.281844
O O11 0.796770 0.899336 0.500000
O O12 0.843946 0.843946 0.693493
O O13 0.749185 0.879562 0.747946
O O14 0.826494 0.943360 0.744994
O O15 0.299340 0.113937 0.000000
O O16 0.507193 0.331158 0.500000
#
# Coordination Sequence:
#
# PCOD9569413 Si02
#       6
#    16  16  16  16  16  16
#     4   9  17  29  46  69  96 124 153 187 228 272
#     4   8  15  28  44  63  87 116 151 189 226 264
#     4   9  17  29  46  68  92 120 154 189 225 268
#     4  10  20  32  47  69  95 121 150 185 226 272
#     4   9  18  31  47  68  94 122 152 188 228 269
#     4   9  17  30  48  67  88 119 157 192 225 264
#
# _framework density 15.659504
#
# number of rings (size 3 to 8) (size 9 to 14) (size 15 to 20)
#    0.000    3.000    0.000    2.000    0.000    7.000 
#    0.000    1.667    0.000    1.000    0.000    7.000 
#    0.000    0.000    0.000    0.000    0.000    0.000 
#
# Total GULP energy -534508.915540 kJ/mol
# GULP energy per Si atom -5567.801204 kJ/mol
# Density = 1.562386 g / cm^3
# Si number density = 15.659504 Si / 1000 Ang^3
#
#
#
# Elastic Constant Matrix: (Units=GPa)
#
#
# Indices 1 2 3 4 5 6 
#
# 1 96.1004 64.0123 49.5968 0.0000 0.0000 0.0000
# 2 64.0123 96.1004 49.5968 0.0000 0.0000 0.0000
# 3 49.5968 49.5968 49.9192 0.0000 0.0000 0.0000
# 4 0.0000 0.0000 0.0000 21.7481 0.0000 0.0000
# 5 0.0000 0.0000 0.0000 0.0000 21.7481 0.0000
# 6 0.0000 0.0000 0.0000 0.0000 0.0000 -1.2181
#
#
#
# Elastic Compliance Matrix: (Units=1/GPa)
#
#
# Indices 1 2 3 4 5 6 
#
# 1 0.023704 -0.007460 -0.016139 0.000000 0.000000 0.000000
# 2 -0.007460 0.023704 -0.016139 0.000000 0.000000 0.000000
# 3 -0.016139 -0.016139 0.052103 0.000000 0.000000 0.000000
# 4 0.000000 0.000000 0.000000 0.045981 0.000000 0.000000
# 5 0.000000 0.000000 0.000000 0.000000 0.045981 0.000000
# 6 0.000000 0.000000 0.000000 0.000000 0.000000 -0.820932
#
#
# Mechanical properties :
#
#
# Convention : Reuss Voigt Hill
#
# Bulk Modulus (GPa) = 49.91581 63.17020 56.54300
# Shear Modulus (GPa) = -9.20296 13.71657 2.25680
#
# Velocity S-wave (km/s) = -2.42687 2.96282 1.20179
# Velocity P-wave (km/s) = 4.90836 7.22023 6.17348
#
# Compressibility (1/GPa) = 0.02003373
#
# Stress axis : x y z
#
# Youngs Moduli (GPa) = 42.18651 42.18651 19.19285
#
# Poissons Ratio (x) = 0.31471 0.30976
# Poissons Ratio (y) = 0.31471 0.30976
# Poissons Ratio (z) = 0.68087 0.68087
#
# Static dielectric constant tensor:
#      x y z
#    x 1.513820 0.000000 0.000000 
#    y 0.000000 1.513820 0.000000 
#    z 0.000000 0.000000 1.530550 
# 
# From -- ./inp_files/2125.got.cif
#   From: 2010.05.17/outbox.cif.g08.bks.cpg/sg136_2_cif.got.tgz:2125.got - 2010.05.20 12:54:53.
