data_PCOD9569277
_publ_section_title
;
Structure prediction by ZEFSAII (Michael W. Deem and Ramdas Pophale) SiO2 
 PCOD9569277
Probable space group: P 42/M N M
;
_chemical_formula_sum "Si O2"
_cell_formula_units_Z 88
_cell_length_a 15.528288
_cell_length_b 15.528288
_cell_length_c 19.606260
_cell_angle_alpha 90.000000
_cell_angle_beta 90.000000
_cell_angle_gamma 90.000000
_cell_volume 4727.612933
_symmetry_space_group_name_H-M "P 42/M N M"
_symmetry_group_IT_number 136
_symmetry_cell_setting 'tetragonal'
loop_
_space_group_symop_operation_xyz
x,y,z
1/2-y,1/2+x,1/2+z
-x,-y,z
1/2+y,1/2-x,1/2+z
1/2+x,1/2-y,1/2-z
1/2-x,1/2+y,1/2-z
y,x,-z
-y,-x,-z
-x,-y,-z
1/2+y,1/2-x,1/2-z
x,y,-z
1/2-y,1/2+x,1/2-z
1/2-x,1/2+y,1/2+z
1/2+x,1/2-y,1/2+z
-y,-x,z
y,x,z
loop_
_atom_site_type_symbol
_atom_site_label
_atom_site_fract_x
_atom_site_fract_y
_atom_site_fract_z
Si Si1 0.177126 0.569344 0.920821
Si Si2 0.500000 0.000000 0.866911
Si Si3 0.884271 0.741821 0.079441
Si Si4 0.262553 0.396954 0.917127
Si Si5 0.514003 0.184721 0.300723
Si Si6 0.821220 0.679409 0.291198
O O1 0.083527 0.524520 0.910966
O O2 0.244055 0.494842 0.897973
O O3 0.180877 0.650000 0.870477
O O4 0.190284 0.590254 0.000000
O O5 0.583735 0.983888 0.820944
O O6 0.829109 0.829109 0.085435
O O7 0.817848 0.665303 0.100348
O O8 0.963980 0.735412 0.129831
O O9 0.906868 0.729221 0.000000
O O10 0.348716 0.348716 0.892857
O O11 0.264476 0.396429 0.000000
O O12 0.591486 0.201263 0.249232
O O13 0.418790 0.204203 0.274064
O O14 0.746750 0.746750 0.276131
#
# Coordination Sequence:
#
# PCOD9569277 Si02
#       6
#    16   8  16  16  16  16
#     4  10  19  32  52  79 115 152 185 226 271 328
#     4  10  19  31  52  86 113 137 176 226 293 355
#     4   9  17  30  53  84 112 141 181 226 270 316
#     4   8  14  26  47  79 112 141 176 217 262 311
#     4  11  21  37  56  80 111 146 177 232 285 340
#     4  11  25  41  57  81 111 148 189 227 280 342
#
# _framework density 18.614045999999998
#
# number of rings (size 3 to 8) (size 9 to 14) (size 15 to 20)
#    0.000    2.182    1.818    4.091    0.000    4.000 
#    0.000    0.000    0.000    3.818    0.000    3.818 
#    0.000    0.000    0.000    0.000    0.000    0.000 
#
# Total GULP energy -491229.529323 kJ/mol
# GULP energy per Si atom -5582.153742 kJ/mol
# Density = 1.857168 g / cm^3
# Si number density = 18.614046 Si / 1000 Ang^3
#
#
#
# Elastic Constant Matrix: (Units=GPa)
#
#
# Indices 1 2 3 4 5 6 
#
# 1 71.5582 54.3451 30.6992 0.0000 0.0000 0.0000
# 2 54.3451 71.5582 30.6992 0.0000 0.0000 0.0000
# 3 30.6992 30.6992 71.5317 0.0000 0.0000 0.0000
# 4 0.0000 0.0000 0.0000 13.1002 0.0000 0.0000
# 5 0.0000 0.0000 0.0000 0.0000 13.1002 0.0000
# 6 0.0000 0.0000 0.0000 0.0000 0.0000 28.2991
#
#
#
# Elastic Compliance Matrix: (Units=1/GPa)
#
#
# Indices 1 2 3 4 5 6 
#
# 1 0.034070 -0.024025 -0.004311 0.000000 0.000000 0.000000
# 2 -0.024025 0.034070 -0.004311 0.000000 0.000000 0.000000
# 3 -0.004311 -0.004311 0.017680 0.000000 0.000000 0.000000
# 4 0.000000 0.000000 0.000000 0.076334 0.000000 0.000000
# 5 0.000000 0.000000 0.000000 0.000000 0.076334 0.000000
# 6 0.000000 0.000000 0.000000 0.000000 0.000000 0.035337
#
#
# Mechanical properties :
#
#
# Convention : Reuss Voigt Hill
#
# Bulk Modulus (GPa) = 48.71860 49.57055 49.14457
# Shear Modulus (GPa) = 14.45244 17.49357 15.97300
#
# Velocity S-wave (km/s) = 2.78947 3.06895 2.93254
# Velocity P-wave (km/s) = 6.05018 6.26470 6.15837
#
# Compressibility (1/GPa) = 0.02052604
#
# Stress axis : x y z
#
# Youngs Moduli (GPa) = 29.35123 29.35123 56.56082
#
# Poissons Ratio (x) = 0.70517 0.24383
# Poissons Ratio (y) = 0.70517 0.24383
# Poissons Ratio (z) = 0.12653 0.12653
#
# Static dielectric constant tensor:
#      x y z
#    x 1.643130 0.000000 0.000000 
#    y 0.000000 1.643130 0.000000 
#    z 0.000000 0.000000 1.697160 
# 
# From -- ./inp_files/7350.got.cif
#   From: 2010.05.17/outbox.cif.g08.bks.cpg/sg136_4_cif.got.tgz:7350.got - 2010.05.20 12:54:53.
