data_PCOD9569431
_publ_section_title
;
Structure prediction by ZEFSAII (Michael W. Deem and Ramdas Pophale) SiO2 
 PCOD9569431
Probable space group: P 42/M N M
;
_chemical_formula_sum "Si O2"
_cell_formula_units_Z 72
_cell_length_a 23.270277
_cell_length_b 23.270277
_cell_length_c 9.082708
_cell_angle_alpha 90.000000
_cell_angle_beta 90.000000
_cell_angle_gamma 90.000000
_cell_volume 4918.338986
_symmetry_space_group_name_H-M "P 42/M N M"
_symmetry_group_IT_number 136
_symmetry_cell_setting 'tetragonal'
loop_
_space_group_symop_operation_xyz
x,y,z
1/2-y,1/2+x,1/2+z
-x,-y,z
1/2+y,1/2-x,1/2+z
1/2+x,1/2-y,1/2-z
1/2-x,1/2+y,1/2-z
y,x,-z
-y,-x,-z
-x,-y,-z
1/2+y,1/2-x,1/2-z
x,y,-z
1/2-y,1/2+x,1/2-z
1/2-x,1/2+y,1/2+z
1/2+x,1/2-y,1/2+z
-y,-x,z
y,x,z
loop_
_atom_site_type_symbol
_atom_site_label
_atom_site_fract_x
_atom_site_fract_y
_atom_site_fract_z
Si Si1 0.787375 0.311329 0.169104
Si Si2 0.548659 0.548659 0.326204
Si Si3 0.703130 0.394121 0.325199
Si Si4 0.487399 0.332103 0.176687
Si Si5 0.131252 0.772694 0.324805
O O1 0.738882 0.261118 0.171266
O O2 0.759581 0.362554 0.262589
O O3 0.843068 0.281547 0.239270
O O4 0.796541 0.328253 0.000000
O O5 0.500000 0.500000 0.312322
O O6 0.558762 0.558762 0.500000
O O7 0.527148 0.606638 0.249013
O O8 0.707668 0.403096 0.500000
O O9 0.649693 0.350308 0.299751
O O10 0.690908 0.453283 0.242316
O O11 0.433694 0.290272 0.210361
O O12 0.490950 0.338161 0.000000
O O13 0.135905 0.762442 0.500000
O O14 0.172363 0.827638 0.291860
#
# Coordination Sequence:
#
# PCOD9569431 Si02
#       5
#    16   8  16  16  16
#     4   9  17  29  47  69  88 112 149 190 233 280
#     4  11  23  35  45  61  89 127 167 203 237 274
#     4  10  20  33  47  65  91 124 157 193 237 279
#     4  11  21  33  48  67  91 122 160 199 235 276
#     4   9  17  31  47  65  90 118 149 188 237 281
#
# _framework density 14.639087999999999
#
# number of rings (size 3 to 8) (size 9 to 14) (size 15 to 20)
#    0.000    2.111    1.111    3.000    0.000    9.333 
#    0.000    0.000    0.000    0.000    0.000    0.000 
#    0.000    0.889    0.000    9.333    0.000    4.000 
#
# Total GULP energy -401675.530997 kJ/mol
# GULP energy per Si atom -5578.826819 kJ/mol
# Density = 1.460577 g / cm^3
# Si number density = 14.639088 Si / 1000 Ang^3
#
#
#
# Elastic Constant Matrix: (Units=GPa)
#
#
# Indices 1 2 3 4 5 6 
#
# 1 76.4598 75.6782 67.5124 0.0000 0.0000 0.0000
# 2 75.6782 76.4598 67.5124 0.0000 0.0000 0.0000
# 3 67.5124 67.5124 94.4512 0.0000 0.0000 0.0000
# 4 0.0000 0.0000 0.0000 23.9853 0.0000 0.0000
# 5 0.0000 0.0000 0.0000 0.0000 23.9853 0.0000
# 6 0.0000 0.0000 0.0000 0.0000 0.0000 20.5541
#
#
#
# Elastic Compliance Matrix: (Units=1/GPa)
#
#
# Indices 1 2 3 4 5 6 
#
# 1 0.648705 -0.630728 -0.012850 0.000000 0.000000 0.000000
# 2 -0.630728 0.648705 -0.012850 0.000000 0.000000 0.000000
# 3 -0.012850 -0.012850 0.028958 0.000000 0.000000 0.000000
# 4 0.000000 0.000000 0.000000 0.041692 0.000000 0.000000
# 5 0.000000 0.000000 0.000000 0.000000 0.041692 0.000000
# 6 0.000000 0.000000 0.000000 0.000000 0.000000 0.048652
#
#
# Mechanical properties :
#
#
# Convention : Reuss Voigt Hill
#
# Bulk Modulus (GPa) = 74.00630 74.30850 74.15740
# Shear Modulus (GPa) = 1.80130 16.14947 8.97539
#
# Velocity S-wave (km/s) = 1.11047 3.32501 2.47879
# Velocity P-wave (km/s) = 7.23242 8.10009 7.67852
#
# Compressibility (1/GPa) = 0.01351236
#
# Stress axis : x y z
#
# Youngs Moduli (GPa) = 1.54153 1.54153 34.53297
#
# Poissons Ratio (x) = 0.97229 0.44376
# Poissons Ratio (y) = 0.97229 0.44376
# Poissons Ratio (z) = 0.01981 0.01981
#
# Static dielectric constant tensor:
#      x y z
#    x 1.464560 0.000000 0.000000 
#    y 0.000000 1.464560 0.000000 
#    z 0.000000 0.000000 1.488650 
# 
# From -- ./inp_files/1559.got.cif
#   From: 2010.05.17/outbox.cif.g08.bks.cpg/sg136_1_cif.got.tgz:1559.got - 2010.05.20 12:54:53.
