data_PCOD9569693
_publ_section_title
;
Structure prediction by ZEFSAII (Michael W. Deem and Ramdas Pophale) SiO2 
 PCOD9569693
Probable space group: P 42/M N M
;
_chemical_formula_sum "Si O2"
_cell_formula_units_Z 72
_cell_length_a 19.013383
_cell_length_b 19.013383
_cell_length_c 11.888706
_cell_angle_alpha 90.000000
_cell_angle_beta 90.000000
_cell_angle_gamma 90.000000
_cell_volume 4297.871044
_symmetry_space_group_name_H-M "P 42/M N M"
_symmetry_group_IT_number 136
_symmetry_cell_setting 'tetragonal'
loop_
_space_group_symop_operation_xyz
x,y,z
1/2-y,1/2+x,1/2+z
-x,-y,z
1/2+y,1/2-x,1/2+z
1/2+x,1/2-y,1/2-z
1/2-x,1/2+y,1/2-z
y,x,-z
-y,-x,-z
-x,-y,-z
1/2+y,1/2-x,1/2-z
x,y,-z
1/2-y,1/2+x,1/2-z
1/2-x,1/2+y,1/2+z
1/2+x,1/2-y,1/2+z
-y,-x,z
y,x,z
loop_
_atom_site_type_symbol
_atom_site_label
_atom_site_fract_x
_atom_site_fract_y
_atom_site_fract_z
Si Si1 0.225105 0.655311 0.763370
Si Si2 0.176901 0.702750 0.000000
Si Si3 0.440230 0.559771 0.867949
Si Si4 0.801421 0.988946 0.236221
Si Si5 0.874009 0.243464 0.366993
Si Si6 0.060535 0.819612 0.000000
O O1 0.293386 0.706615 0.765791
O O2 0.189713 0.659273 0.886618
O O3 0.250462 0.578050 0.732475
O O4 0.170844 0.690540 0.676748
O O5 0.236866 0.763135 0.000000
O O6 0.104438 0.746296 0.000000
O O7 0.500000 0.500000 0.860183
O O8 0.467027 0.629998 0.807366
O O9 0.426483 0.573518 0.000000
O O10 0.765544 0.054560 0.298817
O O11 0.822769 0.014325 0.112197
O O12 0.886361 0.246820 0.500000
O O13 0.824861 0.175140 0.343460
O O14 0.117729 0.882272 0.000000
#
# Coordination Sequence:
#
# PCOD9569693 Si02
#       6
#    16   8   8  16  16   8
#     4  10  21  37  58  86 115 149 197 251 290 342
#     4   9  18  36  61  81 111 151 199 254 290 343
#     4  11  24  39  55  83 127 162 195 232 289 366
#     4  12  23  37  60  89 118 156 201 244 297 358
#     4  10  21  38  59  81 116 156 197 240 294 348
#     4  11  22  39  60  86 122 163 203 237 304 371
#
# _framework density 16.752479000000001
#
# number of rings (size 3 to 8) (size 9 to 14) (size 15 to 20)
#    0.000    1.444    3.333    2.667    4.667    2.222 
#    0.000    1.111    0.000    0.667    0.000    3.111 
#    0.000    0.000    0.000    0.000    0.000    0.000 
#
# Total GULP energy -402196.372832 kJ/mol
# GULP energy per Si atom -5586.060734 kJ/mol
# Density = 1.671435 g / cm^3
# Si number density = 16.752479 Si / 1000 Ang^3
#
#
#
# Elastic Constant Matrix: (Units=GPa)
#
#
# Indices 1 2 3 4 5 6 
#
# 1 91.2263 72.7173 65.1264 0.0000 0.0000 0.0000
# 2 72.7173 91.2259 65.1266 0.0000 0.0000 0.0000
# 3 65.1264 65.1266 123.3895 0.0000 0.0000 0.0000
# 4 0.0000 0.0000 0.0000 21.1069 0.0000 0.0000
# 5 0.0000 0.0000 0.0000 0.0000 21.1071 0.0000
# 6 0.0000 0.0000 0.0000 0.0000 0.0000 22.2222
#
#
#
# Elastic Compliance Matrix: (Units=1/GPa)
#
#
# Indices 1 2 3 4 5 6 
#
# 1 0.032267 -0.021762 -0.005544 0.000000 0.000000 0.000000
# 2 -0.021762 0.032267 -0.005545 0.000000 0.000000 0.000000
# 3 -0.005544 -0.005545 0.013957 0.000000 0.000000 0.000000
# 4 0.000000 0.000000 0.000000 0.047378 0.000000 0.000000
# 5 0.000000 0.000000 0.000000 0.000000 0.047377 0.000000
# 6 0.000000 0.000000 0.000000 0.000000 0.000000 0.045000
#
#
# Mechanical properties :
#
#
# Convention : Reuss Voigt Hill
#
# Bulk Modulus (GPa) = 78.19368 79.08693 78.64030
# Shear Modulus (GPa) = 17.34842 19.74534 18.54688
#
# Velocity S-wave (km/s) = 3.22152 3.43687 3.33094
# Velocity P-wave (km/s) = 7.78555 7.94110 7.86371
#
# Compressibility (1/GPa) = 0.01278876
#
# Stress axis : x y z
#
# Youngs Moduli (GPa) = 30.99189 30.99162 71.64647
#
# Poissons Ratio (x) = 0.67443 0.39724
# Poissons Ratio (y) = 0.67444 0.39726
# Poissons Ratio (z) = 0.17183 0.17184
#
# Static dielectric constant tensor:
#      x y z
#    x 1.544670 0.000000 0.000000 
#    y 0.000000 1.544670 0.000000 
#    z 0.000000 0.000000 1.565100 
# 
# From -- ./inp_files/3470.got.cif
#   From: 2010.05.17/outbox.cif.g08.bks.cpg/sg136_2_cif.got.tgz:3470.got - 2010.05.20 12:54:53.
