data_PCOD9569858
_publ_section_title
;
Structure prediction by ZEFSAII (Michael W. Deem and Ramdas Pophale) SiO2 
 PCOD9569858
Probable space group: P 42/M N M
;
_chemical_formula_sum "Si O2"
_cell_formula_units_Z 64
_cell_length_a 10.808117
_cell_length_b 10.808117
_cell_length_c 24.529290
_cell_angle_alpha 90.000000
_cell_angle_beta 90.000000
_cell_angle_gamma 90.000000
_cell_volume 2865.398653
_symmetry_space_group_name_H-M "P 42/M N M"
_symmetry_group_IT_number 136
_symmetry_cell_setting 'tetragonal'
loop_
_space_group_symop_operation_xyz
x,y,z
1/2-y,1/2+x,1/2+z
-x,-y,z
1/2+y,1/2-x,1/2+z
1/2+x,1/2-y,1/2-z
1/2-x,1/2+y,1/2-z
y,x,-z
-y,-x,-z
-x,-y,-z
1/2+y,1/2-x,1/2-z
x,y,-z
1/2-y,1/2+x,1/2-z
1/2-x,1/2+y,1/2+z
1/2+x,1/2-y,1/2+z
-y,-x,z
y,x,z
loop_
_atom_site_type_symbol
_atom_site_label
_atom_site_fract_x
_atom_site_fract_y
_atom_site_fract_z
Si Si1 0.508581 0.692796 0.434519
Si Si2 0.391201 0.178833 0.060840
Si Si3 0.876101 0.578760 0.824469
Si Si4 0.501184 0.302914 0.727256
O O1 0.506140 0.680903 0.500000
O O2 0.406033 0.593968 0.414068
O O3 0.642103 0.642103 0.416503
O O4 0.456696 0.830300 0.428877
O O5 0.280124 0.280124 0.058476
O O6 0.453983 0.195407 0.119355
O O7 0.449724 0.181465 0.000000
O O8 0.786973 0.550229 0.773858
O O9 0.000000 0.500000 0.820460
O O10 0.927061 0.718862 0.816710
O O11 0.602804 0.397197 0.750441
O O12 0.388555 0.388555 0.706405
#
# Coordination Sequence:
#
# PCOD9569858 Si02
#       4
#    16  16  16  16
#     4   7  10  19  37  63  98 140 184 229 277 329
#     4   9  18  32  52  80 118 162 205 250 300 365
#     4  12  23  39  62  91 127 164 204 261 318 372
#     4  11  23  41  66  92 121 161 209 264 320 374
#
# _framework density 22.335460999999999
#
# number of rings (size 3 to 8) (size 9 to 14) (size 15 to 20)
#    0.000    2.250    2.500    4.500    0.000    1.500 
#    0.000    2.500    0.000    0.750    0.000    7.000 
#    0.000    0.000    0.000    0.000    0.000    0.000 
#
# Total GULP energy -356365.500716 kJ/mol
# GULP energy per Si atom -5568.210949 kJ/mol
# Density = 2.228462 g / cm^3
# Si number density = 22.335461 Si / 1000 Ang^3
#
#
#
# Elastic Constant Matrix: (Units=GPa)
#
#
# Indices 1 2 3 4 5 6 
#
# 1 47.5110 29.2789 20.0954 0.0000 0.0000 0.0000
# 2 29.2789 47.5110 20.0954 0.0000 0.0000 0.0000
# 3 20.0954 20.0954 162.9991 0.0000 0.0000 0.0000
# 4 0.0000 0.0000 0.0000 8.0608 0.0000 0.0000
# 5 0.0000 0.0000 0.0000 0.0000 8.0608 0.0000
# 6 0.0000 0.0000 0.0000 0.0000 0.0000 28.9860
#
#
#
# Elastic Compliance Matrix: (Units=1/GPa)
#
#
# Indices 1 2 3 4 5 6 
#
# 1 0.034385 -0.020464 -0.001716 0.000000 0.000000 0.000000
# 2 -0.020464 0.034385 -0.001716 0.000000 0.000000 0.000000
# 3 -0.001716 -0.001716 0.006558 0.000000 0.000000 0.000000
# 4 0.000000 0.000000 0.000000 0.124058 0.000000 0.000000
# 5 0.000000 0.000000 0.000000 0.000000 0.124058 0.000000
# 6 0.000000 0.000000 0.000000 0.000000 0.000000 0.034499
#
#
# Mechanical properties :
#
#
# Convention : Reuss Voigt Hill
#
# Bulk Modulus (GPa) = 36.31761 44.10671 40.21216
# Shear Modulus (GPa) = 12.05071 21.59159 16.82115
#
# Velocity S-wave (km/s) = 2.32530 3.11255 2.74727
# Velocity P-wave (km/s) = 4.84817 5.71905 5.30152
#
# Compressibility (1/GPa) = 0.02753485
#
# Stress axis : x y z
#
# Youngs Moduli (GPa) = 29.08278 29.08278 152.48151
#
# Poissons Ratio (x) = 0.59514 0.26169
# Poissons Ratio (y) = 0.59514 0.26169
# Poissons Ratio (z) = 0.04991 0.04991
#
# Static dielectric constant tensor:
#      x y z
#    x 1.894390 0.000000 0.000000 
#    y 0.000000 1.894390 0.000000 
#    z 0.000000 0.000000 1.893210 
# 
# From -- ./inp_files/8819.got.cif
#   From: 2010.05.17/outbox.cif.g08.bks.cpg/sg136_5_cif.got.tgz:8819.got - 2010.05.20 12:54:53.
