data_PCOD9569460
_publ_section_title
;
Structure prediction by ZEFSAII (Michael W. Deem and Ramdas Pophale) SiO2 
 PCOD9569460
Probable space group: P 42/M N M
;
_chemical_formula_sum "Si O2"
_cell_formula_units_Z 112
_cell_length_a 14.525292
_cell_length_b 14.525292
_cell_length_c 27.148885
_cell_angle_alpha 90.000000
_cell_angle_beta 90.000000
_cell_angle_gamma 90.000000
_cell_volume 5727.983276
_symmetry_space_group_name_H-M "P 42/M N M"
_symmetry_group_IT_number 136
_symmetry_cell_setting 'tetragonal'
loop_
_space_group_symop_operation_xyz
x,y,z
1/2-y,1/2+x,1/2+z
-x,-y,z
1/2+y,1/2-x,1/2+z
1/2+x,1/2-y,1/2-z
1/2-x,1/2+y,1/2-z
y,x,-z
-y,-x,-z
-x,-y,-z
1/2+y,1/2-x,1/2-z
x,y,-z
1/2-y,1/2+x,1/2-z
1/2-x,1/2+y,1/2+z
1/2+x,1/2-y,1/2+z
-y,-x,z
y,x,z
loop_
_atom_site_type_symbol
_atom_site_label
_atom_site_fract_x
_atom_site_fract_y
_atom_site_fract_z
Si Si1 0.143599 0.007682 0.669676
Si Si2 0.105807 0.510188 0.059038
Si Si3 0.309531 0.163572 0.225525
Si Si4 0.375367 0.221618 0.559357
Si Si5 0.276392 0.876662 0.619507
Si Si6 0.152258 0.003561 0.879307
Si Si7 0.733075 0.522153 0.729687
O O1 0.108847 0.108847 0.657861
O O2 0.229665 0.969261 0.641097
O O3 0.159282 0.995530 0.727599
O O4 0.064465 0.935536 0.655869
O O5 0.136927 0.614262 0.074102
O O6 0.158407 0.419950 0.078793
O O7 0.000000 0.500000 0.074644
O O8 0.111210 0.508727 0.000000
O O9 0.209556 0.209556 0.232411
O O10 0.334358 0.175381 0.167910
O O11 0.380124 0.221588 0.258531
O O12 0.308217 0.057247 0.238066
O O13 0.386405 0.224491 0.500000
O O14 0.287597 0.287597 0.571743
O O15 0.465762 0.267649 0.584652
O O16 0.198650 0.801351 0.604173
O O17 0.104015 0.104015 0.886730
O O18 0.190249 0.992243 0.823835
O O19 0.070056 0.929945 0.885538
#
# Coordination Sequence:
#
# PCOD9569460 Si02
#       7
#    16  16  16  16  16  16  16
#     4   9  17  32  55  80 108 144 182 223 274 328
#     4  10  22  40  61  85 112 146 190 235 283 347
#     4  10  22  38  54  77 111 148 186 230 283 340
#     4   9  20  39  59  82 116 153 188 237 299 355
#     4   9  20  38  57  81 112 144 181 230 284 336
#     4  10  20  33  55  86 113 147 196 244 291 344
#     4  11  21  35  53  77 112 151 190 235 281 332
#
# _framework density 19.553128999999998
#
# number of rings (size 3 to 8) (size 9 to 14) (size 15 to 20)
#    0.000    2.286    0.000    3.429    2.000    4.857 
#    0.000    2.857    0.000    2.571    0.000    4.000 
#    0.000    0.000    0.000    0.000    0.000    0.000 
#
# Total GULP energy -623985.027226 kJ/mol
# GULP energy per Si atom -5571.294886 kJ/mol
# Density = 1.950862 g / cm^3
# Si number density = 19.553129 Si / 1000 Ang^3
#
#
#
# Elastic Constant Matrix: (Units=GPa)
#
#
# Indices 1 2 3 4 5 6 
#
# 1 11.1669 94.5055 22.1774 0.0000 0.0000 0.0000
# 2 94.5055 11.1669 22.1774 0.0000 0.0000 0.0000
# 3 22.1774 22.1774 27.5379 0.0000 0.0000 0.0000
# 4 0.0000 0.0000 0.0000 -68.5321 0.0000 0.0000
# 5 0.0000 0.0000 0.0000 0.0000 -68.5321 0.0000
# 6 0.0000 0.0000 0.0000 0.0000 0.0000 26.8459
#
#
#
# Elastic Compliance Matrix: (Units=1/GPa)
#
#
# Indices 1 2 3 4 5 6 
#
# 1 0.001148 0.013147 -0.011513 0.000000 0.000000 0.000000
# 2 0.013147 0.001148 -0.011513 0.000000 0.000000 0.000000
# 3 -0.011513 -0.011513 0.054857 0.000000 0.000000 0.000000
# 4 0.000000 0.000000 0.000000 -0.014592 0.000000 0.000000
# 5 0.000000 0.000000 0.000000 0.000000 -0.014592 0.000000
# 6 0.000000 0.000000 0.000000 0.000000 0.000000 0.037250
#
#
# Mechanical properties :
#
#
# Convention : Reuss Voigt Hill
#
# Bulk Modulus (GPa) = 26.74013 36.39916 31.56964
# Shear Modulus (GPa) = 51.31271 -27.97623 11.66824
#
# Velocity S-wave (km/s) = 5.12832 -3.78667 2.44549
# Velocity P-wave (km/s) = 6.98366 0.68012 4.91472
#
# Compressibility (1/GPa) = 0.03739698
#
# Stress axis : x y z
#
# Youngs Moduli (GPa) = 870.95403 870.95403 18.22919
#
# Poissons Ratio (x) = -11.45079 0.20987
# Poissons Ratio (y) = -11.45079 0.20987
# Poissons Ratio (z) = 10.02713 10.02713
#
# Static dielectric constant tensor:
#      x y z
#    x 1.770740 0.000000 0.000000 
#    y 0.000000 1.770740 0.000000 
#    z 0.000000 0.000000 1.666790 
# 
# From -- ./inp_files/8516.got.cif
#   From: 2010.05.17/outbox.cif.g08.bks.cpg/sg136_5_cif.got.tgz:8516.got - 2010.05.20 12:54:53.
