data_PCOD9569367
_publ_section_title
;
Structure prediction by ZEFSAII (Michael W. Deem and Ramdas Pophale) SiO2 
 PCOD9569367
Probable space group: P 42/M N M
;
_chemical_formula_sum "Si O2"
_cell_formula_units_Z 80
_cell_length_a 12.316157
_cell_length_b 12.316157
_cell_length_c 28.257988
_cell_angle_alpha 90.000000
_cell_angle_beta 90.000000
_cell_angle_gamma 90.000000
_cell_volume 4286.389863
_symmetry_space_group_name_H-M "P 42/M N M"
_symmetry_group_IT_number 136
_symmetry_cell_setting 'tetragonal'
loop_
_space_group_symop_operation_xyz
x,y,z
1/2-y,1/2+x,1/2+z
-x,-y,z
1/2+y,1/2-x,1/2+z
1/2+x,1/2-y,1/2-z
1/2-x,1/2+y,1/2-z
y,x,-z
-y,-x,-z
-x,-y,-z
1/2+y,1/2-x,1/2-z
x,y,-z
1/2-y,1/2+x,1/2-z
1/2-x,1/2+y,1/2+z
1/2+x,1/2-y,1/2+z
-y,-x,z
y,x,z
loop_
_atom_site_type_symbol
_atom_site_label
_atom_site_fract_x
_atom_site_fract_y
_atom_site_fract_z
Si Si1 0.630477 0.995465 0.632744
Si Si2 0.366339 0.812449 0.296280
Si Si3 0.294866 0.879442 0.808133
Si Si4 0.824885 0.009525 0.943238
Si Si5 0.162144 0.344531 0.943554
O O1 0.664849 0.083525 0.672252
O O2 0.674120 0.042980 0.583733
O O3 0.500000 0.000000 0.631326
O O4 0.658249 0.875704 0.650285
O O5 0.287372 0.712629 0.307353
O O6 0.491032 0.784816 0.306984
O O7 0.350621 0.844289 0.241461
O O8 0.181094 0.818907 0.811030
O O9 0.917447 0.917447 0.936968
O O10 0.715492 0.949751 0.926491
O O11 0.811743 0.022802 0.000000
O O12 0.878583 0.121418 0.924667
O O13 0.260881 0.260881 0.933989
O O14 0.155762 0.358109 0.000000
#
# Coordination Sequence:
#
# PCOD9569367 Si02
#       5
#    16  16  16  16  16
#     4  10  20  33  54  78 107 146 186 230 275 332
#     4  10  19  34  57  82 111 144 181 225 276 336
#     4  10  20  35  56  81 111 145 182 229 278 330
#     4   7  10  19  38  65  97 131 166 209 263 316
#     4   9  17  30  49  75 106 142 188 236 281 331
#
# _framework density 18.663726
#
# number of rings (size 3 to 8) (size 9 to 14) (size 15 to 20)
#    0.000    2.800    2.000    2.400    0.000    0.800 
#    0.000    4.000    0.000    7.800    0.000    1.400 
#    0.000    0.000    0.000    3.000    0.000    0.000 
#
# Total GULP energy -445926.563388 kJ/mol
# GULP energy per Si atom -5574.082042 kJ/mol
# Density = 1.862125 g / cm^3
# Si number density = 18.663726 Si / 1000 Ang^3
#
#
#
# Elastic Constant Matrix: (Units=GPa)
#
#
# Indices 1 2 3 4 5 6 
#
# 1 49.8289 28.7691 11.8124 0.0000 0.0000 0.0000
# 2 28.7691 49.8289 11.8124 0.0000 0.0000 0.0000
# 3 11.8124 11.8124 55.7378 0.0000 0.0000 0.0000
# 4 0.0000 0.0000 0.0000 21.4231 0.0000 0.0000
# 5 0.0000 0.0000 0.0000 0.0000 21.4231 0.0000
# 6 0.0000 0.0000 0.0000 0.0000 0.0000 15.8439
#
#
#
# Elastic Compliance Matrix: (Units=1/GPa)
#
#
# Indices 1 2 3 4 5 6 
#
# 1 0.030536 -0.016948 -0.002880 0.000000 0.000000 0.000000
# 2 -0.016948 0.030536 -0.002880 0.000000 0.000000 0.000000
# 3 -0.002880 -0.002880 0.019162 0.000000 0.000000 0.000000
# 4 0.000000 0.000000 0.000000 0.046679 0.000000 0.000000
# 5 0.000000 0.000000 0.000000 0.000000 0.046679 0.000000
# 6 0.000000 0.000000 0.000000 0.000000 0.000000 0.063116
#
#
# Mechanical properties :
#
#
# Convention : Reuss Voigt Hill
#
# Bulk Modulus (GPa) = 28.71939 28.90929 28.81434
# Shear Modulus (GPa) = 17.02255 18.60480 17.81367
#
# Velocity S-wave (km/s) = 3.02332 3.16071 3.09278
# Velocity P-wave (km/s) = 5.25438 5.37059 5.31280
#
# Compressibility (1/GPa) = 0.03481969
#
# Stress axis : x y z
#
# Youngs Moduli (GPa) = 32.74807 32.74807 52.18723
#
# Poissons Ratio (x) = 0.55500 0.15029
# Poissons Ratio (y) = 0.55500 0.15029
# Poissons Ratio (z) = 0.09431 0.09431
#
# Static dielectric constant tensor:
#      x y z
#    x 1.648690 0.000000 0.000000 
#    y 0.000000 1.648690 0.000000 
#    z 0.000000 0.000000 1.691240 
# 
# From -- ./inp_files/9501.got.cif
#   From: 2010.05.17/outbox.cif.g08.bks.cpg/sg136_5_cif.got.tgz:9501.got - 2010.05.20 12:54:53.
