data_PCOD9569256
_publ_section_title
;
Structure prediction by ZEFSAII (Michael W. Deem and Ramdas Pophale) SiO2 
 PCOD9569256
Probable space group: P 42/M N M
;
_chemical_formula_sum "Si O2"
_cell_formula_units_Z 96
_cell_length_a 16.888271
_cell_length_b 16.888271
_cell_length_c 18.955824
_cell_angle_alpha 90.000000
_cell_angle_beta 90.000000
_cell_angle_gamma 90.000000
_cell_volume 5406.460650
_symmetry_space_group_name_H-M "P 42/M N M"
_symmetry_group_IT_number 136
_symmetry_cell_setting 'tetragonal'
loop_
_space_group_symop_operation_xyz
x,y,z
1/2-y,1/2+x,1/2+z
-x,-y,z
1/2+y,1/2-x,1/2+z
1/2+x,1/2-y,1/2-z
1/2-x,1/2+y,1/2-z
y,x,-z
-y,-x,-z
-x,-y,-z
1/2+y,1/2-x,1/2-z
x,y,-z
1/2-y,1/2+x,1/2-z
1/2-x,1/2+y,1/2+z
1/2+x,1/2-y,1/2+z
-y,-x,z
y,x,z
loop_
_atom_site_type_symbol
_atom_site_label
_atom_site_fract_x
_atom_site_fract_y
_atom_site_fract_z
Si Si1 0.549379 0.679864 0.081487
Si Si2 0.098640 0.565046 0.080403
Si Si3 0.613611 0.050145 0.222263
Si Si4 0.116281 0.642048 0.579557
Si Si5 0.675739 0.194392 0.283496
Si Si6 0.766977 0.893581 0.356755
O O1 0.610068 0.610068 0.097831
O O2 0.594459 0.764179 0.082836
O O3 0.474680 0.685563 0.132725
O O4 0.521452 0.669924 0.000000
O O5 0.046478 0.609590 0.138300
O O6 0.100481 0.469601 0.090785
O O7 0.187670 0.594443 0.097249
O O8 0.076697 0.580283 0.000000
O O9 0.534142 0.099936 0.242851
O O10 0.683367 0.104697 0.252280
O O11 0.142938 0.623686 0.500000
O O12 0.179461 0.632499 0.641917
O O13 0.756484 0.243517 0.292901
O O14 0.626450 0.240987 0.223322
O O15 0.820617 0.820617 0.381285
#
# Coordination Sequence:
#
# PCOD9569256 Si02
#       6
#    16  16  16  16  16  16
#     4   9  17  28  44  67  93 122 153 188 235 288
#     4   9  17  30  48  67  92 123 157 195 235 284
#     4  10  19  33  50  69  94 126 159 197 241 283
#     4   9  16  29  47  68  91 117 155 199 238 281
#     4  10  19  31  47  67  93 126 160 194 235 287
#     4   9  18  29  42  64  94 126 159 191 229 282
#
# _framework density 17.756535
#
# number of rings (size 3 to 8) (size 9 to 14) (size 15 to 20)
#    0.000    2.667    1.667    2.000    0.000    2.667 
#    0.000    3.333    0.000    0.000    0.000    0.000 
#    0.000    0.667    0.000    3.667    0.000    0.000 
#
# Total GULP energy -535286.019768 kJ/mol
# GULP energy per Si atom -5575.896039 kJ/mol
# Density = 1.771612 g / cm^3
# Si number density = 17.756535 Si / 1000 Ang^3
#
#
#
# Elastic Constant Matrix: (Units=GPa)
#
#
# Indices 1 2 3 4 5 6 
#
# 1 45.4866 19.2264 15.6078 0.0000 0.0000 0.0000
# 2 19.2264 45.4866 15.6078 0.0000 0.0000 0.0000
# 3 15.6078 15.6078 113.3417 0.0000 0.0000 0.0000
# 4 0.0000 0.0000 0.0000 22.3992 0.0000 0.0000
# 5 0.0000 0.0000 0.0000 0.0000 22.3992 0.0000
# 6 0.0000 0.0000 0.0000 0.0000 0.0000 24.8743
#
#
#
# Elastic Compliance Matrix: (Units=1/GPa)
#
#
# Indices 1 2 3 4 5 6 
#
# 1 0.027316 -0.010764 -0.002279 0.000000 0.000000 0.000000
# 2 -0.010764 0.027316 -0.002279 0.000000 0.000000 0.000000
# 3 -0.002279 -0.002279 0.009451 0.000000 0.000000 0.000000
# 4 0.000000 0.000000 0.000000 0.044644 0.000000 0.000000
# 5 0.000000 0.000000 0.000000 0.000000 0.044644 0.000000
# 6 0.000000 0.000000 0.000000 0.000000 0.000000 0.040202
#
#
# Mechanical properties :
#
#
# Convention : Reuss Voigt Hill
#
# Bulk Modulus (GPa) = 29.90619 33.91100 31.90860
# Shear Modulus (GPa) = 21.24352 24.19274 22.71813
#
# Velocity S-wave (km/s) = 3.46262 3.69517 3.58078
# Velocity P-wave (km/s) = 5.73282 6.11105 5.92495
#
# Compressibility (1/GPa) = 0.03343789
#
# Stress axis : x y z
#
# Youngs Moduli (GPa) = 36.60807 36.60807 105.81296
#
# Poissons Ratio (x) = 0.39405 0.24118
# Poissons Ratio (y) = 0.39405 0.24118
# Poissons Ratio (z) = 0.08344 0.08344
#
# Static dielectric constant tensor:
#      x y z
#    x 1.637940 0.000000 0.000000 
#    y 0.000000 1.637940 0.000000 
#    z 0.000000 0.000000 1.666320 
# 
# From -- ./inp_files/7651.got.cif
#   From: 2010.05.17/outbox.cif.g08.bks.cpg/sg136_4_cif.got.tgz:7651.got - 2010.05.20 12:54:53.
