data_PCOD9569092
_publ_section_title
;
Structure prediction by ZEFSAII (Michael W. Deem and Ramdas Pophale) SiO2 
 PCOD9569092
Probable space group: P 42/M N M
;
_chemical_formula_sum "Si O2"
_cell_formula_units_Z 80
_cell_length_a 15.221722
_cell_length_b 15.221722
_cell_length_c 22.179020
_cell_angle_alpha 90.000000
_cell_angle_beta 90.000000
_cell_angle_gamma 90.000000
_cell_volume 5138.897135
_symmetry_space_group_name_H-M "P 42/M N M"
_symmetry_group_IT_number 136
_symmetry_cell_setting 'tetragonal'
loop_
_space_group_symop_operation_xyz
x,y,z
1/2-y,1/2+x,1/2+z
-x,-y,z
1/2+y,1/2-x,1/2+z
1/2+x,1/2-y,1/2-z
1/2-x,1/2+y,1/2-z
y,x,-z
-y,-x,-z
-x,-y,-z
1/2+y,1/2-x,1/2-z
x,y,-z
1/2-y,1/2+x,1/2-z
1/2-x,1/2+y,1/2+z
1/2+x,1/2-y,1/2+z
-y,-x,z
y,x,z
loop_
_atom_site_type_symbol
_atom_site_label
_atom_site_fract_x
_atom_site_fract_y
_atom_site_fract_z
Si Si1 0.068452 0.786698 0.930581
Si Si2 0.893736 0.399314 0.893284
Si Si3 0.604588 0.248732 0.353821
Si Si4 0.410826 0.096929 0.070976
Si Si5 0.067192 0.372239 0.741679
O O1 0.133528 0.866473 0.916339
O O2 0.120292 0.693788 0.925026
O O3 0.984931 0.781230 0.886414
O O4 0.038582 0.795546 0.000000
O O5 0.862969 0.492179 0.920722
O O6 0.860706 0.394683 0.825013
O O7 0.000427 0.408908 0.897409
O O8 0.672879 0.327121 0.348215
O O9 0.642982 0.170527 0.396410
O O10 0.583805 0.204203 0.289418
O O11 0.395487 0.083664 0.000000
O O12 0.108968 0.463353 0.765647
#
# Coordination Sequence:
#
# PCOD9569092 Si02
#       5
#    16  16  16  16  16
#     4  10  21  36  53  74 103 139 174 208 248 299
#     4  10  16  29  50  71 100 126 160 211 255 298
#     4  11  22  34  49  74 104 136 174 208 244 297
#     4  10  17  28  49  76 101 129 163 207 259 302
#     4  11  17  32  52  72  98 129 161 211 260 303
#
# _framework density 15.567543000000001
#
# number of rings (size 3 to 8) (size 9 to 14) (size 15 to 20)
#    0.000    1.600    6.000    5.400    0.000    2.800 
#    0.000    1.000    0.000    0.000    0.000    0.000 
#    0.000    0.800    0.000    4.200    0.000    0.000 
#
# Total GULP energy -445456.584094 kJ/mol
# GULP energy per Si atom -5568.207301 kJ/mol
# Density = 1.553211 g / cm^3
# Si number density = 15.567543 Si / 1000 Ang^3
#
#
#
# Elastic Constant Matrix: (Units=GPa)
#
#
# Indices 1 2 3 4 5 6 
#
# 1 73.3783 47.6813 40.2695 0.0000 0.0000 0.0000
# 2 47.6813 73.3783 40.2695 0.0000 0.0000 0.0000
# 3 40.2695 40.2695 117.1314 0.0000 0.0000 0.0000
# 4 0.0000 0.0000 0.0000 12.1452 0.0000 0.0000
# 5 0.0000 0.0000 0.0000 0.0000 12.1452 0.0000
# 6 0.0000 0.0000 0.0000 0.0000 0.0000 11.4750
#
#
#
# Elastic Compliance Matrix: (Units=1/GPa)
#
#
# Indices 1 2 3 4 5 6 
#
# 1 0.024813 -0.014103 -0.003682 0.000000 0.000000 0.000000
# 2 -0.014103 0.024813 -0.003682 0.000000 0.000000 0.000000
# 3 -0.003682 -0.003682 0.011069 0.000000 0.000000 0.000000
# 4 0.000000 0.000000 0.000000 0.082337 0.000000 0.000000
# 5 0.000000 0.000000 0.000000 0.000000 0.082337 0.000000
# 6 0.000000 0.000000 0.000000 0.000000 0.000000 0.087146
#
#
# Mechanical properties :
#
#
# Convention : Reuss Voigt Hill
#
# Bulk Modulus (GPa) = 56.30336 57.81427 57.05881
# Shear Modulus (GPa) = 13.83634 16.19761 15.01698
#
# Velocity S-wave (km/s) = 2.98450 3.22914 3.10922
# Velocity P-wave (km/s) = 6.93700 7.14992 7.04427
#
# Compressibility (1/GPa) = 0.01776093
#
# Stress axis : x y z
#
# Youngs Moduli (GPa) = 40.30222 40.30222 90.34074
#
# Poissons Ratio (x) = 0.56836 0.33264
# Poissons Ratio (y) = 0.56836 0.33264
# Poissons Ratio (z) = 0.14840 0.14840
#
# Static dielectric constant tensor:
#      x y z
#    x 1.530670 0.000000 0.000000 
#    y 0.000000 1.530670 0.000000 
#    z 0.000000 0.000000 1.549560 
# 
# From -- ./inp_files/7245.got.cif
#   From: 2010.05.17/outbox.cif.g08.bks.cpg/sg136_4_cif.got.tgz:7245.got - 2010.05.20 12:54:53.
