data_PCOD9569684
_publ_section_title
;
Structure prediction by ZEFSAII (Michael W. Deem and Ramdas Pophale) SiO2 
 PCOD9569684
Probable space group: P 42/M N M
;
_chemical_formula_sum "Si O2"
_cell_formula_units_Z 112
_cell_length_a 15.253858
_cell_length_b 15.253858
_cell_length_c 24.349173
_cell_angle_alpha 90.000000
_cell_angle_beta 90.000000
_cell_angle_gamma 90.000000
_cell_volume 5665.570051
_symmetry_space_group_name_H-M "P 42/M N M"
_symmetry_group_IT_number 136
_symmetry_cell_setting 'tetragonal'
loop_
_space_group_symop_operation_xyz
x,y,z
1/2-y,1/2+x,1/2+z
-x,-y,z
1/2+y,1/2-x,1/2+z
1/2+x,1/2-y,1/2-z
1/2-x,1/2+y,1/2-z
y,x,-z
-y,-x,-z
-x,-y,-z
1/2+y,1/2-x,1/2-z
x,y,-z
1/2-y,1/2+x,1/2-z
1/2-x,1/2+y,1/2+z
1/2+x,1/2-y,1/2+z
-y,-x,z
y,x,z
loop_
_atom_site_type_symbol
_atom_site_label
_atom_site_fract_x
_atom_site_fract_y
_atom_site_fract_z
Si Si1 0.525542 0.332864 0.761393
Si Si2 0.577126 0.932904 0.833817
Si Si3 0.352701 0.216322 0.562201
Si Si4 0.164195 0.509552 0.064061
Si Si5 0.501634 0.644815 0.112898
Si Si6 0.259195 0.938022 0.834226
Si Si7 0.325166 0.813790 0.748044
O O1 0.576090 0.423911 0.755196
O O2 0.486775 0.331918 0.822467
O O3 0.463640 0.313301 0.710192
O O4 0.597600 0.255750 0.756853
O O5 0.545391 0.890374 0.891014
O O6 0.605494 0.858477 0.789699
O O7 0.500000 0.000000 0.815733
O O8 0.666139 0.988264 0.839360
O O9 0.380451 0.231979 0.500000
O O10 0.254565 0.254565 0.567913
O O11 0.412712 0.267287 0.605071
O O12 0.357185 0.112525 0.572240
O O13 0.266849 0.499379 0.078065
O O14 0.146478 0.487524 0.000000
O O15 0.411643 0.588358 0.108633
O O16 0.579833 0.579833 0.096416
O O17 0.303166 0.852734 0.807213
O O18 0.241393 0.758608 0.726374
#
# Coordination Sequence:
#
# PCOD9569684 Si02
#       7
#    16  16  16  16  16  16  16
#     4   9  20  37  56  82 115 150 186 233 294 367
#     4  11  24  37  56  87 122 157 193 257 310 366
#     4  10  21  37  57  80 106 142 193 248 297 353
#     4  11  23  39  57  80 115 159 203 248 307 374
#     4  10  21  38  60  88 122 159 204 257 312 377
#     4  11  21  34  59  83 112 150 192 239 296 358
#     4  10  22  38  59  85 118 157 198 241 301 377
#
# _framework density 19.768530999999999
#
# number of rings (size 3 to 8) (size 9 to 14) (size 15 to 20)
#    0.000    1.714    1.429    2.571    4.000    6.000 
#    0.000    0.714    0.000    0.429    0.000    5.000 
#    0.000    0.000    0.000    0.000    0.000    0.000 
#
# Total GULP energy -625534.745325 kJ/mol
# GULP energy per Si atom -5585.131655 kJ/mol
# Density = 1.972354 g / cm^3
# Si number density = 19.768531 Si / 1000 Ang^3
#
#
#
# Elastic Constant Matrix: (Units=GPa)
#
#
# Indices 1 2 3 4 5 6 
#
# 1 41.8379 17.9756 16.4422 0.0000 0.0000 0.0000
# 2 17.9756 41.8379 16.4422 0.0000 0.0000 0.0000
# 3 16.4422 16.4422 90.0654 0.0000 0.0000 0.0000
# 4 0.0000 0.0000 0.0000 20.5173 0.0000 0.0000
# 5 0.0000 0.0000 0.0000 0.0000 20.5173 0.0000
# 6 0.0000 0.0000 0.0000 0.0000 0.0000 29.3080
#
#
#
# Elastic Compliance Matrix: (Units=1/GPa)
#
#
# Indices 1 2 3 4 5 6 
#
# 1 0.030245 -0.011662 -0.003393 0.000000 0.000000 0.000000
# 2 -0.011662 0.030245 -0.003393 0.000000 0.000000 0.000000
# 3 -0.003393 -0.003393 0.012342 0.000000 0.000000 0.000000
# 4 0.000000 0.000000 0.000000 0.048739 0.000000 0.000000
# 5 0.000000 0.000000 0.000000 0.000000 0.048739 0.000000
# 6 0.000000 0.000000 0.000000 0.000000 0.000000 0.034120
#
#
# Mechanical properties :
#
#
# Convention : Reuss Voigt Hill
#
# Bulk Modulus (GPa) = 27.82502 30.60681 29.21591
# Shear Modulus (GPa) = 19.73903 22.26059 20.99981
#
# Velocity S-wave (km/s) = 3.16334 3.35932 3.26281
# Velocity P-wave (km/s) = 5.23911 5.52838 5.38569
#
# Compressibility (1/GPa) = 0.03593888
#
# Stress axis : x y z
#
# Youngs Moduli (GPa) = 33.06281 33.06281 81.02573
#
# Poissons Ratio (x) = 0.38557 0.27489
# Poissons Ratio (y) = 0.38557 0.27489
# Poissons Ratio (z) = 0.11217 0.11217
#
# Static dielectric constant tensor:
#      x y z
#    x 1.720750 0.000000 0.000000 
#    y 0.000000 1.720750 0.000000 
#    z 0.000000 0.000000 1.689230 
# 
# From -- ./inp_files/8513.got.cif
#   From: 2010.05.17/outbox.cif.g08.bks.cpg/sg136_5_cif.got.tgz:8513.got - 2010.05.20 12:54:53.
