data_PCOD9569146
_publ_section_title
;
Structure prediction by ZEFSAII (Michael W. Deem and Ramdas Pophale) SiO2 
 PCOD9569146
Probable space group: P 42/M N M
;
_chemical_formula_sum "Si O2"
_cell_formula_units_Z 120
_cell_length_a 16.479817
_cell_length_b 16.479817
_cell_length_c 28.904143
_cell_angle_alpha 90.000000
_cell_angle_beta 90.000000
_cell_angle_gamma 90.000000
_cell_volume 7849.913419
_symmetry_space_group_name_H-M "P 42/M N M"
_symmetry_group_IT_number 136
_symmetry_cell_setting 'tetragonal'
loop_
_space_group_symop_operation_xyz
x,y,z
1/2-y,1/2+x,1/2+z
-x,-y,z
1/2+y,1/2-x,1/2+z
1/2+x,1/2-y,1/2-z
1/2-x,1/2+y,1/2-z
y,x,-z
-y,-x,-z
-x,-y,-z
1/2+y,1/2-x,1/2-z
x,y,-z
1/2-y,1/2+x,1/2-z
1/2-x,1/2+y,1/2+z
1/2+x,1/2-y,1/2+z
-y,-x,z
y,x,z
loop_
_atom_site_type_symbol
_atom_site_label
_atom_site_fract_x
_atom_site_fract_y
_atom_site_fract_z
Si Si1 0.187452 0.055802 0.283758
Si Si2 0.687987 0.174094 0.786065
Si Si3 0.651785 0.214038 0.375108
Si Si4 0.750096 0.111282 0.307638
Si Si5 0.476806 0.753669 0.444994
Si Si6 0.837457 0.965656 0.823325
Si Si7 0.388796 0.258138 0.374324
Si Si8 0.434673 0.565328 0.555648
O O1 0.114636 0.114636 0.300478
O O2 0.267851 0.111108 0.280244
O O3 0.164312 0.027841 0.231903
O O4 0.208745 0.975991 0.312395
O O5 0.765447 0.234554 0.787228
O O6 0.702995 0.117395 0.741655
O O7 0.690386 0.130482 0.835725
O O8 0.725331 0.274670 0.388133
O O9 0.689201 0.138087 0.348235
O O10 0.594924 0.198186 0.419125
O O11 0.595503 0.265450 0.339337
O O12 0.819758 0.180243 0.306688
O O13 0.479441 0.764119 0.500000
O O14 0.561170 0.770767 0.418872
O O15 0.456204 0.658571 0.433939
O O16 0.920768 0.920768 0.836938
O O17 0.818710 0.050351 0.846990
O O18 0.308695 0.308695 0.387237
O O19 0.500000 0.500000 0.573269
O O20 0.438991 0.561010 0.500000
#
# Coordination Sequence:
#
# PCOD9569146 Si02
#       8
#    16  16  16  16  16  16  16   8
#     4  10  18  29  46  65  91 123 150 190 244 288
#     4   9  17  30  44  62  90 125 162 194 228 279
#     4   9  16  28  44  62  87 124 165 193 225 276
#     4  10  18  29  47  69  92 120 156 198 236 285
#     4  10  19  30  44  64  94 128 162 201 234 269
#     4   9  16  25  39  60  86 121 159 191 227 269
#     4  10  19  28  41  62  92 130 169 200 226 272
#     4   9  16  26  40  62  96 132 159 191 235 267
#
# _framework density 15.286792
#
# number of rings (size 3 to 8) (size 9 to 14) (size 15 to 20)
#    0.000    2.467    3.333    0.400    0.933    1.333 
#    0.000    1.333    0.000    6.800    0.000    1.867 
#    0.000    1.600    0.000    2.933    0.000    0.000 
#
# Total GULP energy -668472.657119 kJ/mol
# GULP energy per Si atom -5570.605476 kJ/mol
# Density = 1.525200 g / cm^3
# Si number density = 15.286792 Si / 1000 Ang^3
#
#
#
# Elastic Constant Matrix: (Units=GPa)
#
#
# Indices 1 2 3 4 5 6 
#
# 1 37.3326 24.1123 29.5619 0.0000 0.0000 0.0000
# 2 24.1123 37.3326 29.5619 0.0000 0.0000 0.0000
# 3 29.5619 29.5619 90.0930 0.0000 0.0000 0.0000
# 4 0.0000 0.0000 0.0000 19.7022 0.0000 0.0000
# 5 0.0000 0.0000 0.0000 0.0000 19.7021 0.0000
# 6 0.0000 0.0000 0.0000 0.0000 0.0000 17.1646
#
#
#
# Elastic Compliance Matrix: (Units=1/GPa)
#
#
# Indices 1 2 3 4 5 6 
#
# 1 0.049713 -0.025928 -0.007804 0.000000 0.000000 0.000000
# 2 -0.025928 0.049713 -0.007804 0.000000 0.000000 0.000000
# 3 -0.007804 -0.007804 0.016221 0.000000 0.000000 0.000000
# 4 0.000000 0.000000 0.000000 0.050756 0.000000 0.000000
# 5 0.000000 0.000000 0.000000 0.000000 0.050756 0.000000
# 6 0.000000 0.000000 0.000000 0.000000 0.000000 0.058259
#
#
# Mechanical properties :
#
#
# Convention : Reuss Voigt Hill
#
# Bulk Modulus (GPa) = 30.70058 36.80336 33.75197
# Shear Modulus (GPa) = 13.53733 16.74859 15.14296
#
# Velocity S-wave (km/s) = 2.97906 3.31361 3.15078
# Velocity P-wave (km/s) = 5.65329 6.22636 5.94673
#
# Compressibility (1/GPa) = 0.03257268
#
# Stress axis : x y z
#
# Youngs Moduli (GPa) = 20.11559 20.11558 61.64775
#
# Poissons Ratio (x) = 0.52157 0.48111
# Poissons Ratio (y) = 0.52157 0.48111
# Poissons Ratio (z) = 0.15699 0.15699
#
# Static dielectric constant tensor:
#      x y z
#    x 1.518330 0.000000 0.000000 
#    y 0.000000 1.518330 0.000000 
#    z 0.000000 0.000000 1.531740 
# 
# From -- ./inp_files/9266.got.cif
#   From: 2010.05.17/outbox.cif.g08.bks.cpg/sg136_5_cif.got.tgz:9266.got - 2010.05.20 12:54:53.
