data_PCOD9569750
_publ_section_title
;
Structure prediction by ZEFSAII (Michael W. Deem and Ramdas Pophale) SiO2 
 PCOD9569750
Probable space group: P 42/M N M
;
_chemical_formula_sum "Si O2"
_cell_formula_units_Z 88
_cell_length_a 15.904526
_cell_length_b 15.904526
_cell_length_c 20.312740
_cell_angle_alpha 90.000000
_cell_angle_beta 90.000000
_cell_angle_gamma 90.000000
_cell_volume 5138.187763
_symmetry_space_group_name_H-M "P 42/M N M"
_symmetry_group_IT_number 136
_symmetry_cell_setting 'tetragonal'
loop_
_space_group_symop_operation_xyz
x,y,z
1/2-y,1/2+x,1/2+z
-x,-y,z
1/2+y,1/2-x,1/2+z
1/2+x,1/2-y,1/2-z
1/2-x,1/2+y,1/2-z
y,x,-z
-y,-x,-z
-x,-y,-z
1/2+y,1/2-x,1/2-z
x,y,-z
1/2-y,1/2+x,1/2-z
1/2-x,1/2+y,1/2+z
1/2+x,1/2-y,1/2+z
-y,-x,z
y,x,z
loop_
_atom_site_type_symbol
_atom_site_label
_atom_site_fract_x
_atom_site_fract_y
_atom_site_fract_z
Si Si1 0.570037 0.429964 0.424845
Si Si2 0.274153 0.409234 0.000000
Si Si3 0.253758 0.606362 0.000000
Si Si4 0.176549 0.318940 0.882292
Si Si5 0.757962 0.998174 0.077562
Si Si6 0.597768 0.102175 0.747351
Si Si7 0.672136 0.814393 0.371771
O O1 0.500000 0.500000 0.429412
O O2 0.595563 0.404438 0.500000
O O3 0.651820 0.470671 0.393940
O O4 0.225858 0.375053 0.935377
O O5 0.365079 0.365079 0.000000
O O6 0.274389 0.508808 0.000000
O O7 0.202022 0.632953 0.064839
O O8 0.337408 0.662593 0.000000
O O9 0.235726 0.235726 0.871739
O O10 0.086243 0.295610 0.913566
O O11 0.151889 0.367412 0.815480
O O12 0.724188 0.080976 0.112020
O O13 0.766252 0.018758 0.000000
O O14 0.497108 0.112285 0.737957
O O15 0.627631 0.158506 0.808513
O O16 0.740358 0.740358 0.361188
#
# Coordination Sequence:
#
# PCOD9569750 Si02
#       7
#     8   8   8  16  16  16  16
#     4   9  18  28  48  80 116 148 180 221 267 323
#     4  10  22  38  63  89 110 142 183 227 277 329
#     4  10  22  40  61  86 113 143 182 228 276 330
#     4  11  21  37  58  83 114 147 184 230 277 328
#     4  11  19  33  55  83 114 147 185 226 273 325
#     4  11  23  38  56  80 111 146 188 234 280 330
#     4  11  22  38  58  81 114 150 187 227 276 334
#
# _framework density 17.126662
#
# number of rings (size 3 to 8) (size 9 to 14) (size 15 to 20)
#    0.000    1.364    4.545    2.182    0.000    0.909 
#    0.000    0.909    0.000    0.000    0.000    0.000 
#    0.000    0.000    0.000    0.000    0.000    0.000 
#
# Total GULP energy -490850.964952 kJ/mol
# GULP energy per Si atom -5577.851874 kJ/mol
# Density = 1.708768 g / cm^3
# Si number density = 17.126662 Si / 1000 Ang^3
#
#
#
# Elastic Constant Matrix: (Units=GPa)
#
#
# Indices 1 2 3 4 5 6 
#
# 1 112.3829 47.1525 38.9390 0.0000 0.0000 0.0000
# 2 47.1525 112.3820 38.9395 0.0000 0.0000 0.0000
# 3 38.9390 38.9395 100.4144 0.0000 0.0000 0.0000
# 4 0.0000 0.0000 0.0000 26.3492 0.0000 0.0000
# 5 0.0000 0.0000 0.0000 0.0000 26.3490 0.0000
# 6 0.0000 0.0000 0.0000 0.0000 0.0000 20.9456
#
#
#
# Elastic Compliance Matrix: (Units=1/GPa)
#
#
# Indices 1 2 3 4 5 6 
#
# 1 0.011531 -0.003799 -0.002998 0.000000 0.000000 0.000000
# 2 -0.003799 0.011531 -0.002998 0.000000 0.000000 0.000000
# 3 -0.002998 -0.002998 0.012284 0.000000 0.000000 0.000000
# 4 0.000000 0.000000 0.000000 0.037952 0.000000 0.000000
# 5 0.000000 0.000000 0.000000 0.000000 0.037952 0.000000
# 6 0.000000 0.000000 0.000000 0.000000 0.000000 0.047743
#
#
# Mechanical properties :
#
#
# Convention : Reuss Voigt Hill
#
# Bulk Modulus (GPa) = 63.47334 63.91569 63.69452
# Shear Modulus (GPa) = 27.19812 28.07199 27.63506
#
# Velocity S-wave (km/s) = 3.98937 4.05295 4.02128
# Velocity P-wave (km/s) = 7.63948 7.70080 7.67020
#
# Compressibility (1/GPa) = 0.01575465
#
# Stress axis : x y z
#
# Youngs Moduli (GPa) = 86.72234 86.72123 81.40582
#
# Poissons Ratio (x) = 0.32948 0.24407
# Poissons Ratio (y) = 0.32948 0.24408
# Poissons Ratio (z) = 0.26001 0.26002
#
# Static dielectric constant tensor:
#      x y z
#    x 1.571640 0.000000 0.000000 
#    y 0.000000 1.571640 0.000000 
#    z 0.000000 0.000000 1.579580 
# 
# From -- ./inp_files/7428.got.cif
#   From: 2010.05.17/outbox.cif.g08.bks.cpg/sg136_4_cif.got.tgz:7428.got - 2010.05.20 12:54:53.
