data_PCOD9569311
_publ_section_title
;
Structure prediction by ZEFSAII (Michael W. Deem and Ramdas Pophale) SiO2 
 PCOD9569311
Probable space group: P 42/M N M
;
_chemical_formula_sum "Si O2"
_cell_formula_units_Z 112
_cell_length_a 15.132111
_cell_length_b 15.132111
_cell_length_c 25.400747
_cell_angle_alpha 90.000000
_cell_angle_beta 90.000000
_cell_angle_gamma 90.000000
_cell_volume 5816.282945
_symmetry_space_group_name_H-M "P 42/M N M"
_symmetry_group_IT_number 136
_symmetry_cell_setting 'tetragonal'
loop_
_space_group_symop_operation_xyz
x,y,z
1/2-y,1/2+x,1/2+z
-x,-y,z
1/2+y,1/2-x,1/2+z
1/2+x,1/2-y,1/2-z
1/2-x,1/2+y,1/2-z
y,x,-z
-y,-x,-z
-x,-y,-z
1/2+y,1/2-x,1/2-z
x,y,-z
1/2-y,1/2+x,1/2-z
1/2-x,1/2+y,1/2+z
1/2+x,1/2-y,1/2+z
-y,-x,z
y,x,z
loop_
_atom_site_type_symbol
_atom_site_label
_atom_site_fract_x
_atom_site_fract_y
_atom_site_fract_z
Si Si1 0.738647 0.996069 0.940152
Si Si2 0.495142 0.646814 0.663283
Si Si3 0.763936 0.091871 0.663678
Si Si4 0.164130 0.616301 0.058986
Si Si5 0.250686 0.111490 0.666571
Si Si6 0.087056 0.651065 0.559572
Si Si7 0.377907 0.228197 0.722569
O O1 0.809472 0.982734 0.894263
O O2 0.692054 0.091266 0.934290
O O3 0.657638 0.927154 0.935792
O O4 0.774448 0.988961 0.000000
O O5 0.405942 0.594059 0.679296
O O6 0.572155 0.572155 0.660835
O O7 0.532725 0.725634 0.700701
O O8 0.854525 0.145476 0.664607
O O9 0.716812 0.104838 0.607807
O O10 0.710076 0.122348 0.715207
O O11 0.775274 0.988756 0.673530
O O12 0.234937 0.624647 0.104468
O O13 0.123925 0.516598 0.064000
O O14 0.200195 0.622925 0.000000
O O15 0.174541 0.174541 0.687395
O O16 0.343426 0.142167 0.692133
O O17 0.096975 0.688427 0.500000
O O18 0.303557 0.303557 0.712755
#
# Coordination Sequence:
#
# PCOD9569311 Si02
#       7
#    16  16  16  16  16  16  16
#     4  10  19  32  55  83 112 148 189 229 274 337
#     4  10  21  36  54  78 112 149 182 227 281 327
#     4  10  22  38  58  84 114 148 186 232 285 342
#     4   9  17  32  55  82 112 145 184 232 281 327
#     4  10  20  36  59  84 113 148 185 233 283 330
#     4   9  19  35  55  81 111 144 185 231 283 338
#     4   9  19  38  57  77 109 146 191 235 275 332
#
# _framework density 19.256284999999998
#
# number of rings (size 3 to 8) (size 9 to 14) (size 15 to 20)
#    0.000    2.429    1.429    0.429    0.000    5.429 
#    0.000    6.429    0.000    0.000    0.000    4.000 
#    0.000    0.000    0.000    0.000    0.000    0.000 
#
# Total GULP energy -624067.089539 kJ/mol
# GULP energy per Si atom -5572.027585 kJ/mol
# Density = 1.921246 g / cm^3
# Si number density = 19.256285 Si / 1000 Ang^3
#
#
#
# Elastic Constant Matrix: (Units=GPa)
#
#
# Indices 1 2 3 4 5 6 
#
# 1 12.1000 -7.4214 7.0492 0.0000 0.0000 0.0000
# 2 -7.4214 12.1000 7.0492 0.0000 0.0000 0.0000
# 3 7.0492 7.0492 84.4957 0.0000 0.0000 0.0000
# 4 0.0000 0.0000 0.0000 15.5061 0.0000 0.0000
# 5 0.0000 0.0000 0.0000 0.0000 15.5061 0.0000
# 6 0.0000 0.0000 0.0000 0.0000 0.0000 25.5700
#
#
#
# Elastic Compliance Matrix: (Units=1/GPa)
#
#
# Indices 1 2 3 4 5 6 
#
# 1 0.168370 0.117145 -0.023820 0.000000 0.000000 0.000000
# 2 0.117145 0.168370 -0.023820 0.000000 0.000000 0.000000
# 3 -0.023820 -0.023820 0.015809 0.000000 0.000000 0.000000
# 4 0.000000 0.000000 0.000000 0.064491 0.000000 0.000000
# 5 0.000000 0.000000 0.000000 0.000000 0.064491 0.000000
# 6 0.000000 0.000000 0.000000 0.000000 0.000000 0.039108
#
#
# Mechanical properties :
#
#
# Convention : Reuss Voigt Hill
#
# Bulk Modulus (GPa) = 2.03433 13.56108 7.79771
# Shear Modulus (GPa) = 9.16620 18.11772 13.64196
#
# Velocity S-wave (km/s) = 2.18413 3.07069 2.66454
# Velocity P-wave (km/s) = 2.72385 4.43057 3.67758
#
# Compressibility (1/GPa) = 0.49156113
#
# Stress axis : x y z
#
# Youngs Moduli (GPa) = 5.93928 5.93928 63.25393
#
# Poissons Ratio (x) = -0.69576 1.50668
# Poissons Ratio (y) = -0.69576 1.50668
# Poissons Ratio (z) = 0.14147 0.14147
#
# Static dielectric constant tensor:
#      x y z
#    x 1.670950 0.000000 0.000000 
#    y 0.000000 1.670950 0.000000 
#    z 0.000000 0.000000 1.687170 
# 
# From -- ./inp_files/8494.got.cif
#   From: 2010.05.17/outbox.cif.g08.bks.cpg/sg136_5_cif.got.tgz:8494.got - 2010.05.20 12:54:53.
