data_PCOD9569468
_publ_section_title
;
Structure prediction by ZEFSAII (Michael W. Deem and Ramdas Pophale) SiO2 
 PCOD9569468
Probable space group: P 42/M N M
;
_chemical_formula_sum "Si O2"
_cell_formula_units_Z 96
_cell_length_a 24.760588
_cell_length_b 24.760588
_cell_length_c 7.673057
_cell_angle_alpha 90.000000
_cell_angle_beta 90.000000
_cell_angle_gamma 90.000000
_cell_volume 4704.249334
_symmetry_space_group_name_H-M "P 42/M N M"
_symmetry_group_IT_number 136
_symmetry_cell_setting 'tetragonal'
loop_
_space_group_symop_operation_xyz
x,y,z
1/2-y,1/2+x,1/2+z
-x,-y,z
1/2+y,1/2-x,1/2+z
1/2+x,1/2-y,1/2-z
1/2-x,1/2+y,1/2-z
y,x,-z
-y,-x,-z
-x,-y,-z
1/2+y,1/2-x,1/2-z
x,y,-z
1/2-y,1/2+x,1/2-z
1/2-x,1/2+y,1/2+z
1/2+x,1/2-y,1/2+z
-y,-x,z
y,x,z
loop_
_atom_site_type_symbol
_atom_site_label
_atom_site_fract_x
_atom_site_fract_y
_atom_site_fract_z
Si Si1 0.552159 0.636306 0.289791
Si Si2 0.981561 0.583043 0.699869
Si Si3 0.199268 0.489071 0.210219
Si Si4 0.261129 0.261129 0.286477
Si Si5 0.743048 0.616262 0.708307
Si Si6 0.804533 0.948048 0.292319
Si Si7 0.672950 0.327051 0.214257
O O1 0.553785 0.637207 0.500000
O O2 0.581864 0.581864 0.230664
O O3 0.588266 0.687505 0.226388
O O4 0.490587 0.647320 0.238656
O O5 0.041171 0.556680 0.702736
O O6 0.962507 0.585524 0.500000
O O7 0.987336 0.642830 0.774195
O O8 0.209955 0.426500 0.253313
O O9 0.250529 0.522907 0.277289
O O10 0.198051 0.492597 0.000000
O O11 0.260325 0.260325 0.500000
O O12 0.322673 0.248861 0.229290
O O13 0.217145 0.217145 0.230169
O O14 0.737321 0.619999 0.500000
O O15 0.797813 0.943738 0.500000
O O16 0.813211 0.887716 0.226628
O O17 0.672881 0.327119 0.000000
#
# Coordination Sequence:
#
# PCOD9569468 Si02
#       7
#    16  16  16   8  16  16   8
#     4   9  16  29  50  74  99 123 152 199 249 289
#     4  10  20  34  51  71  97 128 164 206 249 294
#     4   9  19  33  49  72 102 130 160 201 248 297
#     4   9  16  28  49  76 100 126 163 208 251 289
#     4   9  16  28  49  76 101 124 160 203 243 293
#     4   9  18  33  50  70  96 128 165 198 237 289
#     4   9  18  32  50  70  97 132 167 203 236 279
#
# _framework density 20.407080000000001
#
# number of rings (size 3 to 8) (size 9 to 14) (size 15 to 20)
#    0.000    2.833    0.833    1.000    0.000    3.000 
#    0.000    4.583    0.000    4.500    0.000    0.000 
#    0.000    0.000    0.000    0.000    0.000    0.000 
#
# Total GULP energy -535390.104888 kJ/mol
# GULP energy per Si atom -5576.980259 kJ/mol
# Density = 2.036063 g / cm^3
# Si number density = 20.407080 Si / 1000 Ang^3
#
#
#
# Elastic Constant Matrix: (Units=GPa)
#
#
# Indices 1 2 3 4 5 6 
#
# 1 112.2926 49.4358 1.0793 0.0000 0.0000 0.0000
# 2 49.4358 112.2928 1.0791 0.0000 0.0000 0.0000
# 3 1.0793 1.0791 34.8651 0.0000 0.0000 0.0000
# 4 0.0000 0.0000 0.0000 12.6473 0.0000 0.0000
# 5 0.0000 0.0000 0.0000 0.0000 12.6473 0.0000
# 6 0.0000 0.0000 0.0000 0.0000 0.0000 19.5597
#
#
#
# Elastic Compliance Matrix: (Units=1/GPa)
#
#
# Indices 1 2 3 4 5 6 
#
# 1 0.011047 -0.004862 -0.000192 0.000000 0.000000 0.000000
# 2 -0.004862 0.011047 -0.000191 0.000000 0.000000 0.000000
# 3 -0.000192 -0.000191 0.028694 0.000000 0.000000 0.000000
# 4 0.000000 0.000000 0.000000 0.079068 0.000000 0.000000
# 5 0.000000 0.000000 0.000000 0.000000 0.079068 0.000000
# 6 0.000000 0.000000 0.000000 0.000000 0.000000 0.051126
#
#
# Mechanical properties :
#
#
# Convention : Reuss Voigt Hill
#
# Bulk Modulus (GPa) = 24.81421 40.29320 32.55370
# Shear Modulus (GPa) = 17.60728 22.82793 20.21761
#
# Velocity S-wave (km/s) = 2.94054 3.34822 3.15098
# Velocity P-wave (km/s) = 4.86981 5.89364 5.40602
#
# Compressibility (1/GPa) = 0.04029949
#
# Stress axis : x y z
#
# Youngs Moduli (GPa) = 90.51852 90.51868 34.85066
#
# Poissons Ratio (x) = 0.44007 0.00667
# Poissons Ratio (y) = 0.44007 0.00667
# Poissons Ratio (z) = 0.01734 0.01733
#
# Static dielectric constant tensor:
#      x y z
#    x 1.717210 0.000000 0.000000 
#    y 0.000000 1.717210 0.000000 
#    z 0.000000 0.000000 1.757710 
# 
# From -- ./inp_files/2059.got.cif
#   From: 2010.05.17/outbox.cif.g08.bks.cpg/sg136_2_cif.got.tgz:2059.got - 2010.05.20 12:54:53.
