data_PCOD9569404
_publ_section_title
;
Structure prediction by ZEFSAII (Michael W. Deem and Ramdas Pophale) SiO2 
 PCOD9569404
Probable space group: P 42/M N M
;
_chemical_formula_sum "Si O2"
_cell_formula_units_Z 64
_cell_length_a 17.395926
_cell_length_b 17.395926
_cell_length_c 8.546735
_cell_angle_alpha 90.000000
_cell_angle_beta 90.000000
_cell_angle_gamma 90.000000
_cell_volume 2586.397915
_symmetry_space_group_name_H-M "P 42/M N M"
_symmetry_group_IT_number 136
_symmetry_cell_setting 'tetragonal'
loop_
_space_group_symop_operation_xyz
x,y,z
1/2-y,1/2+x,1/2+z
-x,-y,z
1/2+y,1/2-x,1/2+z
1/2+x,1/2-y,1/2-z
1/2-x,1/2+y,1/2-z
y,x,-z
-y,-x,-z
-x,-y,-z
1/2+y,1/2-x,1/2-z
x,y,-z
1/2-y,1/2+x,1/2-z
1/2-x,1/2+y,1/2+z
1/2+x,1/2-y,1/2+z
-y,-x,z
y,x,z
loop_
_atom_site_type_symbol
_atom_site_label
_atom_site_fract_x
_atom_site_fract_y
_atom_site_fract_z
Si Si1 0.521758 0.347729 0.000000
Si Si2 0.288473 0.498292 0.321676
Si Si3 0.350066 0.780660 0.000000
Si Si4 0.888940 0.535892 0.681846
Si Si5 0.287368 0.160906 0.166187
O O1 0.480851 0.341435 0.170269
O O2 0.579551 0.420450 0.000000
O O3 0.572535 0.269159 0.000000
O O4 0.311295 0.473786 0.500000
O O5 0.202414 0.468343 0.287659
O O6 0.274335 0.590767 0.331609
O O7 0.342824 0.824475 0.837397
O O8 0.282348 0.717653 0.000000
O O9 0.947339 0.583186 0.789536
O O10 0.904291 0.552330 0.500000
O O11 0.239468 0.239468 0.164790
O O12 0.329461 0.156923 0.000000
#
# Coordination Sequence:
#
# PCOD9569404 Si02
#       5
#     8  16   8  16  16
#     4   9  16  24  40  59  77  95 109 138 190 240
#     4   9  17  26  38  55  72  92 120 150 197 247
#     4   7  10  16  24  40  59  77  95 109 138 190
#     4  10  20  31  43  54  68  96 134 182 223 246
#     4   8  12  19  31  46  65  82  96 122 165 219
#
# _framework density 24.74484
#
# number of rings (size 3 to 8) (size 9 to 14) (size 15 to 20)
#    0.000    3.250    0.000    3.750    3.500    1.500 
#    0.000    0.000    0.000    0.000    0.000    0.000 
#    0.000    0.000    0.000    0.000    0.000    0.000 
#
# Total GULP energy -356895.792909 kJ/mol
# GULP energy per Si atom -5576.496764 kJ/mol
# Density = 2.468852 g / cm^3
# Si number density = 24.744840 Si / 1000 Ang^3
#
#
#
# Elastic Constant Matrix: (Units=GPa)
#
#
# Indices 1 2 3 4 5 6 
#
# 1 22.3456 24.3990 27.9725 0.0000 0.0000 0.0000
# 2 24.3990 22.3449 27.9722 0.0000 0.0000 0.0000
# 3 27.9725 27.9722 291.8521 0.0000 0.0000 0.0000
# 4 0.0000 0.0000 0.0000 23.8181 0.0000 0.0000
# 5 0.0000 0.0000 0.0000 0.0000 23.8178 0.0000
# 6 0.0000 0.0000 0.0000 0.0000 0.0000 14.5000
#
#
#
# Elastic Compliance Matrix: (Units=1/GPa)
#
#
# Indices 1 2 3 4 5 6 
#
# 1 -0.231368 0.255537 -0.002316 0.000000 0.000000 0.000000
# 2 0.255537 -0.231376 -0.002316 0.000000 0.000000 0.000000
# 3 -0.002316 -0.002316 0.003870 0.000000 0.000000 0.000000
# 4 0.000000 0.000000 0.000000 0.041985 0.000000 0.000000
# 5 0.000000 0.000000 0.000000 0.000000 0.041985 0.000000
# 6 0.000000 0.000000 0.000000 0.000000 0.000000 0.068966
#
#
# Mechanical properties :
#
#
# Convention : Reuss Voigt Hill
#
# Bulk Modulus (GPa) = 23.29054 55.24777 39.26915
# Shear Modulus (GPa) = -6.30171 29.50710 11.60269
#
# Velocity S-wave (km/s) = -1.59756 3.45694 2.16774
# Velocity P-wave (km/s) = 2.45556 6.18946 4.70846
#
# Compressibility (1/GPa) = 0.04293589
#
# Stress axis : x y z
#
# Youngs Moduli (GPa) = -4.32211 -4.32198 258.37418
#
# Poissons Ratio (x) = 1.10442 0.59844
# Poissons Ratio (y) = 1.10446 0.59838
# Poissons Ratio (z) = -0.01001 -0.01001
#
# Static dielectric constant tensor:
#      x y z
#    x 1.969190 0.000000 0.000000 
#    y 0.000000 1.969190 0.000000 
#    z 0.000000 0.000000 2.039210 
# 
# From -- ./inp_files/1430.got.cif
#   From: 2010.05.17/outbox.cif.g08.bks.cpg/sg136_1_cif.got.tgz:1430.got - 2010.05.20 12:54:53.
