data_PCOD9569635
_publ_section_title
;
Structure prediction by ZEFSAII (Michael W. Deem and Ramdas Pophale) SiO2 
 PCOD9569635
Probable space group: P 42/M N M
;
_chemical_formula_sum "Si O2"
_cell_formula_units_Z 84
_cell_length_a 11.286921
_cell_length_b 11.286921
_cell_length_c 32.704868
_cell_angle_alpha 90.000000
_cell_angle_beta 90.000000
_cell_angle_gamma 90.000000
_cell_volume 4166.423108
_symmetry_space_group_name_H-M "P 42/M N M"
_symmetry_group_IT_number 136
_symmetry_cell_setting 'tetragonal'
loop_
_space_group_symop_operation_xyz
x,y,z
1/2-y,1/2+x,1/2+z
-x,-y,z
1/2+y,1/2-x,1/2+z
1/2+x,1/2-y,1/2-z
1/2-x,1/2+y,1/2-z
y,x,-z
-y,-x,-z
-x,-y,-z
1/2+y,1/2-x,1/2-z
x,y,-z
1/2-y,1/2+x,1/2-z
1/2-x,1/2+y,1/2+z
1/2+x,1/2-y,1/2+z
-y,-x,z
y,x,z
loop_
_atom_site_type_symbol
_atom_site_label
_atom_site_fract_x
_atom_site_fract_y
_atom_site_fract_z
Si Si1 0.689350 0.029504 0.086744
Si Si2 0.808777 0.519080 0.894674
Si Si3 0.805374 0.995666 0.000000
Si Si4 0.686457 0.509555 0.667675
Si Si5 0.000000 0.500000 0.750000
Si Si6 0.099717 0.900284 0.546706
Si Si7 0.377127 0.176524 0.193505
O O1 0.614083 0.144941 0.099216
O O2 0.731407 0.022128 0.040560
O O3 0.603933 0.918115 0.093897
O O4 0.794859 0.017583 0.119001
O O5 0.706853 0.548375 0.926620
O O6 0.781802 0.554927 0.847776
O O7 0.912071 0.087930 0.000000
O O8 0.864975 0.864975 0.000000
O O9 0.585599 0.414402 0.676863
O O10 0.636224 0.636224 0.682671
O O11 0.803962 0.445230 0.683590
O O12 0.121930 0.471465 0.774843
O O13 0.133139 0.866862 0.500000
O O14 0.000000 0.000000 0.544156
O O15 0.281119 0.281119 0.204348
#
# Coordination Sequence:
#
# PCOD9569635 Si02
#       7
#    16  16   8  16   4   8  16
#     4  10  21  33  57  84 110 160 207 259 311 371
#     4  10  22  42  62  85 118 160 219 260 315 393
#     4  11  24  35  48  83 127 158 197 258 322 370
#     4   9  17  32  56  85 116 154 200 248 308 380
#     4  12  24  40  68 100 130 160 224 276 316 420
#     4  11  26  42  62  90 124 170 218 272 320 376
#     4  10  21  41  65  91 127 168 204 266 333 388
#
# _framework density 20.161180000000002
#
# number of rings (size 3 to 8) (size 9 to 14) (size 15 to 20)
#    0.000    1.905    0.952    3.429    5.333    4.571 
#    0.000    0.952    0.000    0.000    0.000    0.000 
#    0.000    0.000    0.000    0.000    0.000    0.000 
#
# Total GULP energy -468097.265543 kJ/mol
# GULP energy per Si atom -5572.586495 kJ/mol
# Density = 2.011529 g / cm^3
# Si number density = 20.161180 Si / 1000 Ang^3
#
#
#
# Elastic Constant Matrix: (Units=GPa)
#
#
# Indices 1 2 3 4 5 6 
#
# 1 11.7394 55.3342 22.2564 0.0000 0.0000 0.0000
# 2 55.3342 11.7382 22.2564 0.0000 0.0000 0.0000
# 3 22.2564 22.2564 97.5968 0.0000 0.0000 0.0000
# 4 0.0000 0.0000 0.0000 5.4778 0.0000 0.0000
# 5 0.0000 0.0000 0.0000 0.0000 5.4856 0.0000
# 6 0.0000 0.0000 0.0000 0.0000 0.0000 28.4108
#
#
#
# Elastic Compliance Matrix: (Units=1/GPa)
#
#
# Indices 1 2 3 4 5 6 
#
# 1 -0.002685 0.020253 -0.004006 0.000000 0.000000 0.000000
# 2 0.020253 -0.002685 -0.004006 0.000000 0.000000 0.000000
# 3 -0.004006 -0.004006 0.012073 0.000000 0.000000 0.000000
# 4 0.000000 0.000000 0.000000 0.182554 0.000000 0.000000
# 5 0.000000 0.000000 0.000000 0.000000 0.182295 0.000000
# 6 0.000000 0.000000 0.000000 0.000000 0.000000 0.035198
#
#
# Mechanical properties :
#
#
# Convention : Reuss Voigt Hill
#
# Bulk Modulus (GPa) = 32.06755 35.64092 33.85424
# Shear Modulus (GPa) = 12.73355 9.29001 11.01178
#
# Velocity S-wave (km/s) = 2.51587 2.14892 2.33960
# Velocity P-wave (km/s) = 4.93757 4.88606 4.91188
#
# Compressibility (1/GPa) = 0.03118417
#
# Stress axis : x y z
#
# Youngs Moduli (GPa) = -372.44835 -372.38520 82.82645
#
# Poissons Ratio (x) = 7.54192 0.33183
# Poissons Ratio (y) = 7.54320 0.33182
# Poissons Ratio (z) = -1.49214 -1.49185
#
# Static dielectric constant tensor:
#      x y z
#    x 1.785070 0.000000 0.000000 
#    y 0.000000 1.785070 0.000000 
#    z 0.000000 0.000000 1.723100 
# 
# From -- ./inp_files/9777.got.cif
#   From: 2010.05.17/outbox.cif.g08.bks.cpg/sg136_5_cif.got.tgz:9777.got - 2010.05.20 12:54:53.
