data_PCOD9569371
_publ_section_title
;
Structure prediction by ZEFSAII (Michael W. Deem and Ramdas Pophale) SiO2 
 PCOD9569371
Probable space group: P 42/M N M
;
_chemical_formula_sum "Si O2"
_cell_formula_units_Z 80
_cell_length_a 15.160894
_cell_length_b 15.160894
_cell_length_c 16.154600
_cell_angle_alpha 90.000000
_cell_angle_beta 90.000000
_cell_angle_gamma 90.000000
_cell_volume 3713.178539
_symmetry_space_group_name_H-M "P 42/M N M"
_symmetry_group_IT_number 136
_symmetry_cell_setting 'tetragonal'
loop_
_space_group_symop_operation_xyz
x,y,z
1/2-y,1/2+x,1/2+z
-x,-y,z
1/2+y,1/2-x,1/2+z
1/2+x,1/2-y,1/2-z
1/2-x,1/2+y,1/2-z
y,x,-z
-y,-x,-z
-x,-y,-z
1/2+y,1/2-x,1/2-z
x,y,-z
1/2-y,1/2+x,1/2-z
1/2-x,1/2+y,1/2+z
1/2+x,1/2-y,1/2+z
-y,-x,z
y,x,z
loop_
_atom_site_type_symbol
_atom_site_label
_atom_site_fract_x
_atom_site_fract_y
_atom_site_fract_z
Si Si1 0.182052 0.966170 0.089777
Si Si2 0.791076 0.523549 0.091798
Si Si3 0.324478 0.817640 0.872043
Si Si4 0.599211 0.900393 0.222202
Si Si5 0.144694 0.005113 0.729888
O O1 0.092299 0.907702 0.088591
O O2 0.260911 0.895260 0.097293
O O3 0.180754 0.017616 0.176605
O O4 0.188025 0.011895 0.000000
O O5 0.822216 0.421669 0.090389
O O6 0.868114 0.584498 0.129318
O O7 0.715449 0.522343 0.161563
O O8 0.762968 0.549531 0.000000
O O9 0.272548 0.727452 0.888953
O O10 0.342929 0.831727 0.774111
O O11 0.503938 0.884446 0.266762
O O12 0.073515 0.926486 0.734353
O O13 0.092649 0.092649 0.703957
#
# Coordination Sequence:
#
# PCOD9569371 Si02
#       5
#    16  16  16  16  16
#     4   9  17  31  52  77 102 133 180 232 280 328
#     4  11  22  36  57  84 114 150 193 236 285 342
#     4  10  19  34  58  83 111 145 187 238 287 333
#     4   9  19  37  58  80 112 148 189 240 289 336
#     4  10  21  36  53  78 115 154 188 228 282 343
#
# _framework density 21.544882999999999
#
# number of rings (size 3 to 8) (size 9 to 14) (size 15 to 20)
#    0.000    2.200    2.000    1.200    0.000    3.200 
#    0.000   12.000    0.000    0.000    0.000    0.000 
#    0.000    0.000    0.000    0.000    0.000    0.000 
#
# Total GULP energy -446507.465763 kJ/mol
# GULP energy per Si atom -5581.343322 kJ/mol
# Density = 2.149585 g / cm^3
# Si number density = 21.544883 Si / 1000 Ang^3
#
#
#
# Elastic Constant Matrix: (Units=GPa)
#
#
# Indices 1 2 3 4 5 6 
#
# 1 29.2937 -6.9242 16.4525 0.0000 0.0000 0.0000
# 2 -6.9242 29.2937 16.4525 0.0000 0.0000 0.0000
# 3 16.4525 16.4525 161.6842 0.0000 0.0000 0.0000
# 4 0.0000 0.0000 0.0000 11.8851 0.0000 0.0000
# 5 0.0000 0.0000 0.0000 0.0000 11.8851 0.0000
# 6 0.0000 0.0000 0.0000 0.0000 0.0000 19.3817
#
#
#
# Elastic Compliance Matrix: (Units=1/GPa)
#
#
# Indices 1 2 3 4 5 6 
#
# 1 0.040092 0.012481 -0.005350 0.000000 0.000000 0.000000
# 2 0.012481 0.040092 -0.005350 0.000000 0.000000 0.000000
# 3 -0.005350 -0.005350 0.007274 0.000000 0.000000 0.000000
# 4 0.000000 0.000000 0.000000 0.084139 0.000000 0.000000
# 5 0.000000 0.000000 0.000000 0.000000 0.084139 0.000000
# 6 0.000000 0.000000 0.000000 0.000000 0.000000 0.051595
#
#
# Mechanical properties :
#
#
# Convention : Reuss Voigt Hill
#
# Bulk Modulus (GPa) = 10.98650 30.24813 20.61731
# Shear Modulus (GPa) = 14.96530 21.58312 18.27421
#
# Velocity S-wave (km/s) = 2.63841 3.16852 2.91553
# Velocity P-wave (km/s) = 3.79368 5.23985 4.57428
#
# Compressibility (1/GPa) = 0.09102081
#
# Stress axis : x y z
#
# Youngs Moduli (GPa) = 24.94277 24.94277 137.48300
#
# Poissons Ratio (x) = -0.31131 0.73549
# Poissons Ratio (y) = -0.31131 0.73549
# Poissons Ratio (z) = 0.13344 0.13344
#
# Static dielectric constant tensor:
#      x y z
#    x 1.797110 0.000000 0.000000 
#    y 0.000000 1.797110 0.000000 
#    z 0.000000 0.000000 1.824580 
# 
# From -- ./inp_files/4899.got.cif
#   From: 2010.05.17/outbox.cif.g08.bks.cpg/sg136_3_cif.got.tgz:4899.got - 2010.05.20 12:54:53.
