data_PCOD9569803
_publ_section_title
;
Structure prediction by ZEFSAII (Michael W. Deem and Ramdas Pophale) SiO2 
 PCOD9569803
Probable space group: P 42/M N M
;
_chemical_formula_sum "Si O2"
_cell_formula_units_Z 64
_cell_length_a 19.116008
_cell_length_b 19.116008
_cell_length_c 11.769736
_cell_angle_alpha 90.000000
_cell_angle_beta 90.000000
_cell_angle_gamma 90.000000
_cell_volume 4300.917666
_symmetry_space_group_name_H-M "P 42/M N M"
_symmetry_group_IT_number 136
_symmetry_cell_setting 'tetragonal'
loop_
_space_group_symop_operation_xyz
x,y,z
1/2-y,1/2+x,1/2+z
-x,-y,z
1/2+y,1/2-x,1/2+z
1/2+x,1/2-y,1/2-z
1/2-x,1/2+y,1/2-z
y,x,-z
-y,-x,-z
-x,-y,-z
1/2+y,1/2-x,1/2-z
x,y,-z
1/2-y,1/2+x,1/2-z
1/2-x,1/2+y,1/2+z
1/2+x,1/2-y,1/2+z
-y,-x,z
y,x,z
loop_
_atom_site_type_symbol
_atom_site_label
_atom_site_fract_x
_atom_site_fract_y
_atom_site_fract_z
Si Si1 0.762634 0.355742 0.366460
Si Si2 0.558000 0.442001 0.136084
Si Si3 0.197573 0.013027 0.234660
Si Si4 0.117148 0.001259 0.000000
Si Si5 0.877153 0.240323 0.634754
O O1 0.765897 0.375833 0.500000
O O2 0.696082 0.303919 0.354671
O O3 0.749549 0.422520 0.288580
O O4 0.830449 0.308792 0.340667
O O5 0.500000 0.500000 0.171125
O O6 0.632758 0.463717 0.186258
O O7 0.559918 0.440083 0.000000
O O8 0.233263 0.946077 0.290878
O O9 0.163193 0.996159 0.112723
O O10 0.075060 0.075060 0.000000
O O11 0.059046 0.940955 0.000000
O O12 0.893692 0.240646 0.500000
O O13 0.826573 0.173428 0.654634
#
# Coordination Sequence:
#
# PCOD9569803 Si02
#       5
#    16   8  16   8  16
#     4   9  17  33  53  74  96 133 177 211 248 307
#     4  11  22  31  45  73 109 140 167 198 251 316
#     4  12  19  31  52  74 103 135 169 211 253 305
#     4  11  20  28  44  76 110 135 156 195 257 326
#     4   9  19  34  53  73 100 135 176 212 248 299
#
# _framework density 14.880545
#
# number of rings (size 3 to 8) (size 9 to 14) (size 15 to 20)
#    0.000    1.750    3.750    4.500    0.000    2.000 
#    0.000    0.000    5.500    0.750    0.000    3.500 
#    0.000    0.000    0.000    0.000    0.000    0.000 
#
# Total GULP energy -357165.405005 kJ/mol
# GULP energy per Si atom -5580.709453 kJ/mol
# Density = 1.484668 g / cm^3
# Si number density = 14.880545 Si / 1000 Ang^3
#
#
#
# Elastic Constant Matrix: (Units=GPa)
#
#
# Indices 1 2 3 4 5 6 
#
# 1 105.9351 71.9984 58.8414 0.0000 0.0000 0.0000
# 2 71.9984 105.9350 58.8411 0.0000 0.0000 0.0000
# 3 58.8414 58.8411 78.9647 0.0000 0.0000 0.0000
# 4 0.0000 0.0000 0.0000 18.7147 0.0000 0.0000
# 5 0.0000 0.0000 0.0000 0.0000 18.7161 0.0000
# 6 0.0000 0.0000 0.0000 0.0000 0.0000 20.9138
#
#
#
# Elastic Compliance Matrix: (Units=1/GPa)
#
#
# Indices 1 2 3 4 5 6 
#
# 1 0.020274 -0.009193 -0.008257 0.000000 0.000000 0.000000
# 2 -0.009193 0.020274 -0.008257 0.000000 0.000000 0.000000
# 3 -0.008257 -0.008257 0.024970 0.000000 0.000000 0.000000
# 4 0.000000 0.000000 0.000000 0.053434 0.000000 0.000000
# 5 0.000000 0.000000 0.000000 0.000000 0.053430 0.000000
# 6 0.000000 0.000000 0.000000 0.000000 0.000000 0.047815
#
#
# Mechanical properties :
#
#
# Convention : Reuss Voigt Hill
#
# Bulk Modulus (GPa) = 70.90575 74.46627 72.68601
# Shear Modulus (GPa) = 18.09541 18.41252 18.25396
#
# Velocity S-wave (km/s) = 3.49097 3.52142 3.50623
# Velocity P-wave (km/s) = 8.00016 8.16610 8.08356
#
# Compressibility (1/GPa) = 0.01410323
#
# Stress axis : x y z
#
# Youngs Moduli (GPa) = 49.32406 49.32437 40.04805
#
# Poissons Ratio (x) = 0.45342 0.33070
# Poissons Ratio (y) = 0.45342 0.33069
# Poissons Ratio (z) = 0.40729 0.40729
#
# Static dielectric constant tensor:
#      x y z
#    x 1.486760 0.000000 0.000000 
#    y 0.000000 1.486760 0.000000 
#    z 0.000000 0.000000 1.483180 
# 
# From -- ./inp_files/3571.got.cif
#   From: 2010.05.17/outbox.cif.g08.bks.cpg/sg136_2_cif.got.tgz:3571.got - 2010.05.20 12:54:53.
