data_PCOD9569002
_publ_section_title
;
Structure prediction by ZEFSAII (Michael W. Deem and Ramdas Pophale) SiO2 
 PCOD9569002
Probable space group: P 42/M B C
;
_chemical_formula_sum "Si O2"
_cell_formula_units_Z 64
_cell_length_a 19.954311
_cell_length_b 19.954311
_cell_length_c 8.397932
_cell_angle_alpha 90.000000
_cell_angle_beta 90.000000
_cell_angle_gamma 90.000000
_cell_volume 3343.842606
_symmetry_space_group_name_H-M "P 42/M B C"
_symmetry_group_IT_number 135
_symmetry_cell_setting 'tetragonal'
loop_
_space_group_symop_operation_xyz
x,y,z
-y,x,1/2+z
-x,-y,z
y,-x,1/2+z
1/2+x,1/2-y,-z
1/2-x,1/2+y,-z
1/2+y,1/2+x,1/2-z
1/2-y,1/2-x,1/2-z
-x,-y,-z
y,-x,1/2-z
x,y,-z
-y,x,1/2-z
1/2-x,1/2+y,z
1/2+x,1/2-y,z
1/2-y,1/2-x,1/2+z
1/2+y,1/2+x,1/2+z
loop_
_atom_site_type_symbol
_atom_site_label
_atom_site_fract_x
_atom_site_fract_y
_atom_site_fract_z
Si Si1 0.594498 0.520641 0.177627
Si Si2 0.763968 0.986202 0.689324
Si Si3 0.273295 0.665202 0.190939
Si Si4 0.121762 0.270056 0.309319
O O1 0.563299 0.446618 0.195405
O O2 0.670251 0.512223 0.221021
O O3 0.584390 0.547325 0.000000
O O4 0.772061 0.985677 0.500000
O O5 0.715755 0.047812 0.737602
O O6 0.756979 0.909437 0.746083
O O7 0.214654 0.714654 0.250000
O O8 0.342083 0.700128 0.253573
O O9 0.276206 0.663992 0.000000
O O10 0.172765 0.327236 0.250000
O O11 0.118510 0.269103 0.500000
#
# Coordination Sequence:
#
# PCOD9569002 Si02
#       4
#    16  16  16  16
#     4  11  21  34  49  72 105 143 181 222 269 327
#     4  12  23  37  56  81 110 146 187 232 279 332
#     4  11  22  39  60  86 116 151 190 235 284 338
#     4  11  22  39  60  86 116 151 190 235 284 338
#
# _framework density 19.139655999999999
#
# number of rings (size 3 to 8) (size 9 to 14) (size 15 to 20)
#    0.000    0.750    0.000   12.750    0.000    0.000 
#    0.000    0.000    0.000    0.750    0.000    5.250 
#    0.000    0.000    0.000    0.000    0.000    0.000 
#
# Total GULP energy -357406.083857 kJ/mol
# GULP energy per Si atom -5584.470060 kJ/mol
# Density = 1.909609 g / cm^3
# Si number density = 19.139656 Si / 1000 Ang^3
#
#
#
# Elastic Constant Matrix: (Units=GPa)
#
#
# Indices 1 2 3 4 5 6 
#
# 1 98.5191 19.5331 16.8559 0.0000 0.0000 0.0000
# 2 19.5331 98.5196 16.8563 0.0000 0.0000 0.0000
# 3 16.8559 16.8563 150.6910 0.0000 0.0000 0.0000
# 4 0.0000 0.0000 0.0000 34.3649 0.0000 0.0000
# 5 0.0000 0.0000 0.0000 0.0000 34.3661 0.0000
# 6 0.0000 0.0000 0.0000 0.0000 0.0000 -1.7491
#
#
#
# Elastic Compliance Matrix: (Units=1/GPa)
#
#
# Indices 1 2 3 4 5 6 
#
# 1 0.010705 -0.001955 -0.000979 0.000000 0.000000 0.000000
# 2 -0.001955 0.010705 -0.000979 0.000000 0.000000 0.000000
# 3 -0.000979 -0.000979 0.006855 0.000000 0.000000 0.000000
# 4 0.000000 0.000000 0.000000 0.029099 0.000000 0.000000
# 5 0.000000 0.000000 0.000000 0.000000 0.029098 0.000000
# 6 0.000000 0.000000 0.000000 0.000000 0.000000 -0.571734
#
#
# Mechanical properties :
#
#
# Convention : Reuss Voigt Hill
#
# Bulk Modulus (GPa) = 48.92243 50.46893 49.69568
# Shear Modulus (GPa) = -10.62402 33.02868 11.20233
#
# Velocity S-wave (km/s) = -2.35857 4.15862 2.42191
# Velocity P-wave (km/s) = 4.26604 7.03455 5.81739
#
# Compressibility (1/GPa) = 0.02044052
#
# Stress axis : x y z
#
# Youngs Moduli (GPa) = 93.41080 93.41121 145.87743
#
# Poissons Ratio (x) = 0.18262 0.14278
# Poissons Ratio (y) = 0.18262 0.14279
# Poissons Ratio (z) = 0.09143 0.09143
#
# Static dielectric constant tensor:
#      x y z
#    x 1.757960 0.000000 0.000000 
#    y 0.000000 1.757960 0.000000 
#    z 0.000000 0.000000 0.954960 
# 
# From -- ./inp_files/942.got.cif
#   From: 2010.05.17/outbox.cif.g08.bks.cpg/sg135_1_cif.got.tgz:942.got - 2010.05.20 12:50:20.
