data_PCOD9569208
_publ_section_title
;
Structure prediction by ZEFSAII (Michael W. Deem and Ramdas Pophale) SiO2 
 PCOD9569208
Probable space group: P 42/M N M
;
_chemical_formula_sum "Si O2"
_cell_formula_units_Z 116
_cell_length_a 18.746248
_cell_length_b 18.746248
_cell_length_c 14.712610
_cell_angle_alpha 90.000000
_cell_angle_beta 90.000000
_cell_angle_gamma 90.000000
_cell_volume 5170.332096
_symmetry_space_group_name_H-M "P 42/M N M"
_symmetry_group_IT_number 136
_symmetry_cell_setting 'tetragonal'
loop_
_space_group_symop_operation_xyz
x,y,z
1/2-y,1/2+x,1/2+z
-x,-y,z
1/2+y,1/2-x,1/2+z
1/2+x,1/2-y,1/2-z
1/2-x,1/2+y,1/2-z
y,x,-z
-y,-x,-z
-x,-y,-z
1/2+y,1/2-x,1/2-z
x,y,-z
1/2-y,1/2+x,1/2-z
1/2-x,1/2+y,1/2+z
1/2+x,1/2-y,1/2+z
-y,-x,z
y,x,z
loop_
_atom_site_type_symbol
_atom_site_label
_atom_site_fract_x
_atom_site_fract_y
_atom_site_fract_z
Si Si1 0.835770 0.344717 0.366512
Si Si2 0.804639 0.921740 0.152669
Si Si3 0.328103 0.671898 0.000000
Si Si4 0.747561 0.434969 0.137597
Si Si5 0.914004 0.200412 0.859070
Si Si6 0.878161 0.351887 0.838947
Si Si7 0.797672 0.091906 0.363140
Si Si8 0.512717 0.082077 0.603898
O O1 0.758644 0.374990 0.391479
O O2 0.841905 0.338672 0.257620
O O3 0.857917 0.266565 0.396699
O O4 0.892351 0.406310 0.390847
O O5 0.878318 0.878318 0.145481
O O6 0.780545 0.928294 0.258542
O O7 0.806179 0.002707 0.116169
O O8 0.373812 0.713059 0.921481
O O9 0.832259 0.419086 0.126548
O O10 0.721452 0.512509 0.106780
O O11 0.865340 0.134661 0.888944
O O12 0.879825 0.275947 0.889423
O O13 0.911043 0.202224 0.747926
O O14 0.961282 0.372290 0.831394
O O15 0.872562 0.127439 0.389858
O O16 0.487677 0.094430 0.500000
O O17 0.500000 0.000000 0.625660
#
# Coordination Sequence:
#
# PCOD9569208 Si02
#       8
#    16  16   4  16  16  16  16  16
#     4  10  20  35  61  86 112 153 200 247 296 354
#     4  10  18  34  57  88 115 146 197 250 292 346
#     4  12  24  40  57  84 122 168 195 240 298 370
#     4  10  22  36  55  82 116 155 196 238 294 355
#     4   9  18  32  55  86 116 146 188 248 299 346
#     4  10  21  36  59  85 115 153 200 246 294 357
#     4   9  18  36  57  81 111 147 196 249 293 333
#     4  11  24  37  53  85 123 156 188 240 300 361
#
# _framework density 22.435696
#
# number of rings (size 3 to 8) (size 9 to 14) (size 15 to 20)
#    0.000    2.069    2.069    1.241    5.793    1.931 
#    1.241    1.034    0.000    1.241    0.000    0.000 
#    0.000    1.103    0.000    0.000    0.000    0.000 
#
# Total GULP energy -646587.578487 kJ/mol
# GULP energy per Si atom -5574.030849 kJ/mol
# Density = 2.238463 g / cm^3
# Si number density = 22.435696 Si / 1000 Ang^3
#
#
#
# Elastic Constant Matrix: (Units=GPa)
#
#
# Indices 1 2 3 4 5 6 
#
# 1 76.9766 74.8055 -4.2199 0.0000 0.0000 0.0000
# 2 74.8055 76.9741 -4.2204 0.0000 0.0000 0.0000
# 3 -4.2199 -4.2204 49.6001 0.0000 0.0000 0.0000
# 4 0.0000 0.0000 0.0000 158.8465 0.0000 0.0000
# 5 0.0000 0.0000 0.0000 0.0000 158.8674 0.0000
# 6 0.0000 0.0000 0.0000 0.0000 0.0000 40.8489
#
#
#
# Elastic Compliance Matrix: (Units=1/GPa)
#
#
# Indices 1 2 3 4 5 6 
#
# 1 0.233732 -0.227116 0.000561 0.000000 0.000000 0.000000
# 2 -0.227116 0.233740 0.000566 0.000000 0.000000 0.000000
# 3 0.000561 0.000566 0.020257 0.000000 0.000000 0.000000
# 4 0.000000 0.000000 0.000000 0.006295 0.000000 0.000000
# 5 0.000000 0.000000 0.000000 0.000000 0.006295 0.000000
# 6 0.000000 0.000000 0.000000 0.000000 0.000000 0.024480
#
#
# Mechanical properties :
#
#
# Convention : Reuss Voigt Hill
#
# Bulk Modulus (GPa) = 27.97235 37.36457 32.66846
# Shear Modulus (GPa) = 5.05717 80.85828 42.95773
#
# Velocity S-wave (km/s) = 1.50299 6.00985 4.38048
# Velocity P-wave (km/s) = 3.93787 8.05282 6.33856
#
# Compressibility (1/GPa) = 0.03574959
#
# Stress axis : x y z
#
# Youngs Moduli (GPa) = 4.27841 4.27826 49.36539
#
# Poissons Ratio (x) = 0.97166 -0.02768
# Poissons Ratio (y) = 0.97169 -0.02793
# Poissons Ratio (z) = -0.00240 -0.00242
#
# Static dielectric constant tensor:
#      x y z
#    x 1.814930 0.000000 0.000000 
#    y 0.000000 1.814930 0.000000 
#    z 0.000000 0.000000 1.914380 
# 
# From -- ./inp_files/6490.got.cif
#   From: 2010.05.17/outbox.cif.g08.bks.cpg/sg136_4_cif.got.tgz:6490.got - 2010.05.20 12:54:53.
