data_PCOD9569482
_publ_section_title
;
Structure prediction by ZEFSAII (Michael W. Deem and Ramdas Pophale) SiO2 
 PCOD9569482
Probable space group: P 42/M N M
;
_chemical_formula_sum "Si O2"
_cell_formula_units_Z 66
_cell_length_a 13.660221
_cell_length_b 13.660221
_cell_length_c 18.181324
_cell_angle_alpha 90.000000
_cell_angle_beta 90.000000
_cell_angle_gamma 90.000000
_cell_volume 3392.664835
_symmetry_space_group_name_H-M "P 42/M N M"
_symmetry_group_IT_number 136
_symmetry_cell_setting 'tetragonal'
loop_
_space_group_symop_operation_xyz
x,y,z
1/2-y,1/2+x,1/2+z
-x,-y,z
1/2+y,1/2-x,1/2+z
1/2+x,1/2-y,1/2-z
1/2-x,1/2+y,1/2-z
y,x,-z
-y,-x,-z
-x,-y,-z
1/2+y,1/2-x,1/2-z
x,y,-z
1/2-y,1/2+x,1/2-z
1/2-x,1/2+y,1/2+z
1/2+x,1/2-y,1/2+z
-y,-x,z
y,x,z
loop_
_atom_site_type_symbol
_atom_site_label
_atom_site_fract_x
_atom_site_fract_y
_atom_site_fract_z
Si Si1 0.000000 0.000000 0.500000
Si Si2 0.630027 0.369974 0.885326
Si Si3 0.083671 0.083671 0.215245
Si Si4 0.552721 0.863335 0.785582
Si Si5 0.357420 0.082251 0.584851
Si Si6 0.570148 0.729256 0.332489
O O1 0.061335 0.061335 0.435244
O O2 0.614045 0.385956 0.797827
O O3 0.743009 0.391922 0.903977
O O4 0.032703 0.172751 0.171861
O O5 0.000000 0.000000 0.222440
O O6 0.451429 0.879252 0.740003
O O7 0.516962 0.872128 0.868389
O O8 0.592209 0.763338 0.751993
O O9 0.380095 0.069453 0.500000
O O10 0.417636 0.173285 0.619000
O O11 0.652120 0.652120 0.356882
#
# Coordination Sequence:
#
# PCOD9569482 Si02
#       6
#     2   8   8  16  16  16
#     4  12  24  32  52  88 136 154 170 252 306 352
#     4  12  20  34  53  85 119 152 188 231 295 353
#     4  10  20  34  53  81 113 147 195 238 281 338
#     4   9  19  36  55  80 112 145 193 236 282 345
#     4  11  21  36  58  85 115 149 189 235 292 356
#     4  10  20  34  55  80 112 150 193 237 283 339
#
# _framework density 19.453735999999999
#
# number of rings (size 3 to 8) (size 9 to 14) (size 15 to 20)
#    0.000    1.697    5.455    0.000    0.000    0.000 
#    0.000   10.303    0.000    2.182    0.000    0.000 
#    0.000    0.000    0.000    0.000    0.000    0.000 
#
# Total GULP energy -367556.820608 kJ/mol
# GULP energy per Si atom -5569.042736 kJ/mol
# Density = 1.940946 g / cm^3
# Si number density = 19.453736 Si / 1000 Ang^3
#
#
#
# Elastic Constant Matrix: (Units=GPa)
#
#
# Indices 1 2 3 4 5 6 
#
# 1 51.8415 19.5990 19.7415 0.0000 0.0000 0.0000
# 2 19.5990 51.8415 19.7415 0.0000 0.0000 0.0000
# 3 19.7415 19.7415 130.1091 0.0000 0.0000 0.0000
# 4 0.0000 0.0000 0.0000 18.6541 0.0000 0.0000
# 5 0.0000 0.0000 0.0000 0.0000 18.6541 0.0000
# 6 0.0000 0.0000 0.0000 0.0000 0.0000 27.4572
#
#
#
# Elastic Compliance Matrix: (Units=1/GPa)
#
#
# Indices 1 2 3 4 5 6 
#
# 1 0.023147 -0.007868 -0.002318 0.000000 0.000000 0.000000
# 2 -0.007868 0.023147 -0.002318 0.000000 0.000000 0.000000
# 3 -0.002318 -0.002318 0.008389 0.000000 0.000000 0.000000
# 4 0.000000 0.000000 0.000000 0.053607 0.000000 0.000000
# 5 0.000000 0.000000 0.000000 0.000000 0.053607 0.000000
# 6 0.000000 0.000000 0.000000 0.000000 0.000000 0.036420
#
#
# Mechanical properties :
#
#
# Convention : Reuss Voigt Hill
#
# Bulk Modulus (GPa) = 33.69947 39.10625 36.40286
# Shear Modulus (GPa) = 21.43908 24.60043 23.01976
#
# Velocity S-wave (km/s) = 3.32332 3.55992 3.44366
# Velocity P-wave (km/s) = 5.66449 6.08631 5.87919
#
# Compressibility (1/GPa) = 0.02967405
#
# Stress axis : x y z
#
# Youngs Moduli (GPa) = 43.20230 43.20230 119.19857
#
# Poissons Ratio (x) = 0.33992 0.27633
# Poissons Ratio (y) = 0.33992 0.27633
# Poissons Ratio (z) = 0.10015 0.10015
#
# Static dielectric constant tensor:
#      x y z
#    x 1.727270 0.000000 0.000000 
#    y 0.000000 1.727270 0.000000 
#    z 0.000000 0.000000 1.692180 
# 
# From -- ./inp_files/7194.got.cif
#   From: 2010.05.17/outbox.cif.g08.bks.cpg/sg136_4_cif.got.tgz:7194.got - 2010.05.20 12:54:53.
