data_PCOD9569677
_publ_section_title
;
Structure prediction by ZEFSAII (Michael W. Deem and Ramdas Pophale) SiO2 
 PCOD9569677
Probable space group: P 42/M N M
;
_chemical_formula_sum "Si O2"
_cell_formula_units_Z 80
_cell_length_a 12.535665
_cell_length_b 12.535665
_cell_length_c 29.185856
_cell_angle_alpha 90.000000
_cell_angle_beta 90.000000
_cell_angle_gamma 90.000000
_cell_volume 4586.349963
_symmetry_space_group_name_H-M "P 42/M N M"
_symmetry_group_IT_number 136
_symmetry_cell_setting 'tetragonal'
loop_
_space_group_symop_operation_xyz
x,y,z
1/2-y,1/2+x,1/2+z
-x,-y,z
1/2+y,1/2-x,1/2+z
1/2+x,1/2-y,1/2-z
1/2-x,1/2+y,1/2-z
y,x,-z
-y,-x,-z
-x,-y,-z
1/2+y,1/2-x,1/2-z
x,y,-z
1/2-y,1/2+x,1/2-z
1/2-x,1/2+y,1/2+z
1/2+x,1/2-y,1/2+z
-y,-x,z
y,x,z
loop_
_atom_site_type_symbol
_atom_site_label
_atom_site_fract_x
_atom_site_fract_y
_atom_site_fract_z
Si Si1 0.273269 0.545309 0.682764
Si Si2 0.495469 0.677765 0.781956
Si Si3 0.099160 0.580894 0.551230
Si Si4 0.506844 0.675637 0.583715
Si Si5 0.208640 0.389545 0.857944
O O1 0.373497 0.626504 0.686191
O O2 0.264729 0.494447 0.732756
O O3 0.298812 0.476375 0.637775
O O4 0.171011 0.614730 0.669296
O O5 0.383160 0.616841 0.785084
O O6 0.586958 0.586958 0.782249
O O7 0.515777 0.751061 0.825780
O O8 0.101854 0.627327 0.500000
O O9 0.212661 0.521655 0.560010
O O10 0.084573 0.665352 0.591933
O O11 0.000000 0.500000 0.553718
O O12 0.403555 0.596446 0.580494
O O13 0.607398 0.607398 0.566243
O O14 0.303804 0.303804 0.862678
#
# Coordination Sequence:
#
# PCOD9569677 Si02
#       5
#    16  16  16  16  16
#     4   8  14  27  46  71 103 132 157 194 252 314
#     4   9  16  28  48  71  97 130 165 204 248 293
#     4  10  21  37  53  70 101 139 171 209 263 322
#     4   9  17  31  55  85 109 130 166 216 266 319
#     4   9  18  33  51  72  98 128 170 214 250 303
#
# _framework density 17.443065000000001
#
# number of rings (size 3 to 8) (size 9 to 14) (size 15 to 20)
#    0.000    3.000    0.000    2.400    0.000    4.400 
#    7.200    2.000    0.000    1.800    0.000    2.800 
#    0.000    0.000    0.000    0.000    0.000    0.000 
#
# Total GULP energy -445484.098549 kJ/mol
# GULP energy per Si atom -5568.551232 kJ/mol
# Density = 1.740336 g / cm^3
# Si number density = 17.443065 Si / 1000 Ang^3
#
#
#
# Elastic Constant Matrix: (Units=GPa)
#
#
# Indices 1 2 3 4 5 6 
#
# 1 39.7495 10.6045 29.3779 0.0000 0.0000 0.0000
# 2 10.6045 39.7495 29.3779 0.0000 0.0000 0.0000
# 3 29.3779 29.3779 136.3832 0.0000 0.0000 0.0000
# 4 0.0000 0.0000 0.0000 711.3407 0.0000 0.0000
# 5 0.0000 0.0000 0.0000 0.0000 711.3407 0.0000
# 6 0.0000 0.0000 0.0000 0.0000 0.0000 6.6875
#
#
#
# Elastic Compliance Matrix: (Units=1/GPa)
#
#
# Indices 1 2 3 4 5 6 
#
# 1 0.030419 -0.003892 -0.005714 0.000000 0.000000 0.000000
# 2 -0.003892 0.030419 -0.005714 0.000000 0.000000 0.000000
# 3 -0.005714 -0.005714 0.009794 0.000000 0.000000 0.000000
# 4 0.000000 0.000000 0.000000 0.001406 0.000000 0.000000
# 5 0.000000 0.000000 0.000000 0.000000 0.001406 0.000000
# 6 0.000000 0.000000 0.000000 0.000000 0.000000 0.149534
#
#
# Mechanical properties :
#
#
# Convention : Reuss Voigt Hill
#
# Bulk Modulus (GPa) = 25.00534 39.40031 32.20282
# Shear Modulus (GPa) = 18.73021 295.64188 157.18605
#
# Velocity S-wave (km/s) = 3.28043 13.03294 9.50313
# Velocity P-wave (km/s) = 5.35862 15.78334 11.78619
#
# Compressibility (1/GPa) = 0.03999147
#
# Stress axis : x y z
#
# Youngs Moduli (GPa) = 32.87411 32.87411 102.10345
#
# Poissons Ratio (x) = 0.12795 0.58343
# Poissons Ratio (y) = 0.12795 0.58343
# Poissons Ratio (z) = 0.18785 0.18785
#
# Static dielectric constant tensor:
#      x y z
#    x 1.597900 0.000000 0.000000 
#    y 0.000000 1.597900 0.000000 
#    z 0.000000 0.000000 1.611320 
# 
# From -- ./inp_files/9518.got.cif
#   From: 2010.05.17/outbox.cif.g08.bks.cpg/sg136_5_cif.got.tgz:9518.got - 2010.05.20 12:54:53.
