data_PCOD9569872
_publ_section_title
;
Structure prediction by ZEFSAII (Michael W. Deem and Ramdas Pophale) SiO2 
 PCOD9569872
Probable space group: P 42/M N M
;
_chemical_formula_sum "Si O2"
_cell_formula_units_Z 56
_cell_length_a 10.779889
_cell_length_b 10.779889
_cell_length_c 23.097657
_cell_angle_alpha 90.000000
_cell_angle_beta 90.000000
_cell_angle_gamma 90.000000
_cell_volume 2684.086488
_symmetry_space_group_name_H-M "P 42/M N M"
_symmetry_group_IT_number 136
_symmetry_cell_setting 'tetragonal'
loop_
_space_group_symop_operation_xyz
x,y,z
1/2-y,1/2+x,1/2+z
-x,-y,z
1/2+y,1/2-x,1/2+z
1/2+x,1/2-y,1/2-z
1/2-x,1/2+y,1/2-z
y,x,-z
-y,-x,-z
-x,-y,-z
1/2+y,1/2-x,1/2-z
x,y,-z
1/2-y,1/2+x,1/2-z
1/2-x,1/2+y,1/2+z
1/2+x,1/2-y,1/2+z
-y,-x,z
y,x,z
loop_
_atom_site_type_symbol
_atom_site_label
_atom_site_fract_x
_atom_site_fract_y
_atom_site_fract_z
Si Si1 0.069404 0.374549 0.606867
Si Si2 0.200860 0.005250 0.843145
Si Si3 0.504137 0.702107 0.000000
Si Si4 0.791907 0.003537 0.286098
O O1 0.208273 0.427323 0.615911
O O2 0.000000 0.500000 0.593649
O O3 0.034543 0.280252 0.556217
O O4 0.020633 0.310535 0.665628
O O5 0.086747 0.913254 0.832730
O O6 0.259081 0.016953 0.778956
O O7 0.136529 0.136529 0.861376
O O8 0.643403 0.643403 0.000000
O O9 0.413111 0.586890 0.000000
O O10 0.864614 0.135387 0.291768
O O11 0.897791 0.897791 0.293981
#
# Coordination Sequence:
#
# PCOD9569872 Si02
#       4
#    16  16   8  16
#     4  12  25  38  61  95 131 162 203 270 327 388
#     4   9  20  38  59  87 126 171 214 256 313 386
#     4  11  25  48  73  91 115 165 226 275 322 382
#     4   9  19  37  61  89 123 168 220 267 312 371
#
# _framework density 20.863709
#
# number of rings (size 3 to 8) (size 9 to 14) (size 15 to 20)
#    0.000    1.857    0.000    5.571    4.000    4.571 
#    0.000    0.714    0.000    2.571    0.000    0.000 
#    0.000    0.000    0.000    0.000    0.000    0.000 
#
# Total GULP energy -312215.843878 kJ/mol
# GULP energy per Si atom -5575.282926 kJ/mol
# Density = 2.081622 g / cm^3
# Si number density = 20.863709 Si / 1000 Ang^3
#
#
#
# Elastic Constant Matrix: (Units=GPa)
#
#
# Indices 1 2 3 4 5 6 
#
# 1 75.4315 72.9703 56.2628 0.0000 0.0000 0.0000
# 2 72.9703 75.4310 56.2629 0.0000 0.0000 0.0000
# 3 56.2628 56.2629 93.5201 0.0000 0.0000 0.0000
# 4 0.0000 0.0000 0.0000 30.9809 0.0000 0.0000
# 5 0.0000 0.0000 0.0000 0.0000 30.9776 0.0000
# 6 0.0000 0.0000 0.0000 0.0000 0.0000 36.9149
#
#
#
# Elastic Compliance Matrix: (Units=1/GPa)
#
#
# Indices 1 2 3 4 5 6 
#
# 1 0.209366 -0.196977 -0.007453 0.000000 0.000000 0.000000
# 2 -0.196977 0.209370 -0.007456 0.000000 0.000000 0.000000
# 3 -0.007453 -0.007456 0.019662 0.000000 0.000000 0.000000
# 4 0.000000 0.000000 0.000000 0.032278 0.000000 0.000000
# 5 0.000000 0.000000 0.000000 0.000000 0.032281 0.000000
# 6 0.000000 0.000000 0.000000 0.000000 0.000000 0.027089
#
#
# Mechanical properties :
#
#
# Convention : Reuss Voigt Hill
#
# Bulk Modulus (GPa) = 68.37111 68.37495 68.37303
# Shear Modulus (GPa) = 5.21542 23.70045 14.45794
#
# Velocity S-wave (km/s) = 1.58278 3.37406 2.63529
# Velocity P-wave (km/s) = 6.01513 6.92982 6.48861
#
# Compressibility (1/GPa) = 0.01462606
#
# Stress axis : x y z
#
# Youngs Moduli (GPa) = 4.77632 4.77624 50.85875
#
# Poissons Ratio (x) = 0.94081 0.37906
# Poissons Ratio (y) = 0.94083 0.37919
# Poissons Ratio (z) = 0.03560 0.03561
#
# Static dielectric constant tensor:
#      x y z
#    x 1.329190 0.000000 0.000000 
#    y 0.000000 1.329220 0.000000 
#    z 0.000000 0.000000 1.763130 
# 
# From -- ./inp_files/6919.got.cif
#   From: 2010.05.17/outbox.cif.g08.bks.cpg/sg136_4_cif.got.tgz:6919.got - 2010.05.20 12:54:53.
