data_PCOD9569014
_publ_section_title
;
Structure prediction by ZEFSAII (Michael W. Deem and Ramdas Pophale) SiO2 
 PCOD9569014
Probable space group: P 42/M B C
;
_chemical_formula_sum "Si O2"
_cell_formula_units_Z 96
_cell_length_a 15.189320
_cell_length_b 15.189320
_cell_length_c 20.473130
_cell_angle_alpha 90.000000
_cell_angle_beta 90.000000
_cell_angle_gamma 90.000000
_cell_volume 4723.467238
_symmetry_space_group_name_H-M "P 42/M B C"
_symmetry_group_IT_number 135
_symmetry_cell_setting 'tetragonal'
loop_
_space_group_symop_operation_xyz
x,y,z
-y,x,1/2+z
-x,-y,z
y,-x,1/2+z
1/2+x,1/2-y,-z
1/2-x,1/2+y,-z
1/2+y,1/2+x,1/2-z
1/2-y,1/2-x,1/2-z
-x,-y,-z
y,-x,1/2-z
x,y,-z
-y,x,1/2-z
1/2-x,1/2+y,z
1/2+x,1/2-y,z
1/2-y,1/2-x,1/2+z
1/2+y,1/2+x,1/2+z
loop_
_atom_site_type_symbol
_atom_site_label
_atom_site_fract_x
_atom_site_fract_y
_atom_site_fract_z
Si Si1 0.956941 0.233982 0.621984
Si Si2 0.074790 0.574224 0.173118
Si Si3 0.275381 0.323909 0.572942
Si Si4 0.730721 0.974507 0.575198
Si Si5 0.319456 0.347996 0.123616
Si Si6 0.578892 0.615986 0.747112
O O1 0.959834 0.336437 0.639265
O O2 0.874979 0.210951 0.576275
O O3 0.931308 0.182602 0.688286
O O4 0.053087 0.201795 0.600631
O O5 0.093123 0.593123 0.250000
O O6 0.044031 0.657843 0.130599
O O7 0.000000 0.500000 0.170651
O O8 0.240192 0.308731 0.500000
O O9 0.269326 0.427809 0.585833
O O10 0.214303 0.265530 0.619433
O O11 0.696505 0.970829 0.500000
O O12 0.803059 0.898279 0.583618
O O13 0.353431 0.354956 0.197890
O O14 0.605416 0.518790 0.722461
#
# Coordination Sequence:
#
# PCOD9569014 Si02
#       6
#    16  16  16  16  16  16
#     4  11  23  39  66  96 128 172 220 277 335 400
#     4  11  24  43  66  98 137 177 228 281 337 407
#     4  11  25  42  64  96 129 173 229 271 331 408
#     4  11  24  44  67  93 134 180 224 282 342 405
#     4  11  22  41  65  94 133 172 218 280 335 399
#     4   9  19  36  61  97 133 168 214 270 340 409
#
# _framework density 20.324054
#
# number of rings (size 3 to 8) (size 9 to 14) (size 15 to 20)
#    0.000    1.333    1.667    3.500    0.000    5.000 
#    0.000    1.667    0.000    0.000    0.000    0.000 
#    0.000    0.000    0.000    0.000    0.000    0.000 
#
# Total GULP energy -536454.044469 kJ/mol
# GULP energy per Si atom -5588.062963 kJ/mol
# Density = 2.027780 g / cm^3
# Si number density = 20.324054 Si / 1000 Ang^3
#
#
#
# Elastic Constant Matrix: (Units=GPa)
#
#
# Indices 1 2 3 4 5 6 
#
# 1 118.8115 44.2252 44.1575 0.0000 0.0000 0.0000
# 2 44.2252 118.8115 44.1575 0.0000 0.0000 0.0000
# 3 44.1575 44.1575 81.9050 0.0000 0.0000 0.0000
# 4 0.0000 0.0000 0.0000 26.5220 0.0000 0.0000
# 5 0.0000 0.0000 0.0000 0.0000 26.5220 0.0000
# 6 0.0000 0.0000 0.0000 0.0000 0.0000 37.7068
#
#
#
# Elastic Compliance Matrix: (Units=1/GPa)
#
#
# Indices 1 2 3 4 5 6 
#
# 1 0.011036 -0.002372 -0.004671 0.000000 0.000000 0.000000
# 2 -0.002372 0.011036 -0.004671 0.000000 0.000000 0.000000
# 3 -0.004671 -0.004671 0.017246 0.000000 0.000000 0.000000
# 4 0.000000 0.000000 0.000000 0.037705 0.000000 0.000000
# 5 0.000000 0.000000 0.000000 0.000000 0.037705 0.000000
# 6 0.000000 0.000000 0.000000 0.000000 0.000000 0.026520
#
#
# Mechanical properties :
#
#
# Convention : Reuss Voigt Hill
#
# Bulk Modulus (GPa) = 62.93408 64.95648 63.94528
# Shear Modulus (GPa) = 29.41698 30.61603 30.01650
#
# Velocity S-wave (km/s) = 3.80859 3.88544 3.84721
# Velocity P-wave (km/s) = 7.09740 7.22209 7.16002
#
# Compressibility (1/GPa) = 0.01588964
#
# Stress axis : x y z
#
# Youngs Moduli (GPa) = 90.61644 90.61644 57.98540
#
# Poissons Ratio (x) = 0.21492 0.27084
# Poissons Ratio (y) = 0.21492 0.27084
# Poissons Ratio (z) = 0.42326 0.42326
#
# Static dielectric constant tensor:
#      x y z
#    x 1.710100 0.000000 0.000000 
#    y 0.000000 1.710100 0.000000 
#    z 0.000000 0.000000 1.715360 
# 
# From -- ./inp_files/5445.got.cif
#   From: 2010.05.17/outbox.cif.g08.bks.cpg/sg135_3_cif.got.tgz:5445.got - 2010.05.20 12:50:20.
