data_PCOD9569929
_publ_section_title
;
Structure prediction by ZEFSAII (Michael W. Deem and Ramdas Pophale) SiO2 
 PCOD9569929
Probable space group: P 42/M N M
;
_chemical_formula_sum "Si O2"
_cell_formula_units_Z 104
_cell_length_a 18.000000
_cell_length_b 18.000000
_cell_length_c 18.000000
_cell_angle_alpha 90.000000
_cell_angle_beta 90.000000
_cell_angle_gamma 90.000000
_cell_volume 5832.000000
_symmetry_space_group_name_H-M "P 42/M N M"
_symmetry_group_IT_number 136
_symmetry_cell_setting 'tetragonal'
loop_
_space_group_symop_operation_xyz
x,y,z
1/2-y,1/2+x,1/2+z
-x,-y,z
1/2+y,1/2-x,1/2+z
1/2+x,1/2-y,1/2-z
1/2-x,1/2+y,1/2-z
y,x,-z
-y,-x,-z
-x,-y,-z
1/2+y,1/2-x,1/2-z
x,y,-z
1/2-y,1/2+x,1/2-z
1/2-x,1/2+y,1/2+z
1/2+x,1/2-y,1/2+z
-y,-x,z
y,x,z
loop_
_atom_site_type_symbol
_atom_site_label
_atom_site_fract_x
_atom_site_fract_y
_atom_site_fract_z
Si Si1 0.016857 0.587845 0.346656
Si Si2 0.838572 0.437727 0.291929
Si Si3 0.040943 0.794481 0.175742
Si Si4 0.440707 0.440707 0.587722
Si Si5 0.060756 0.268744 0.585749
Si Si6 0.123555 0.996914 0.328172
Si Si7 0.694142 0.187668 0.821434
O O1 0.995371 0.616718 0.262759
O O2 0.978736 0.652066 0.395078
O O3 0.000000 0.500000 0.358709
O O4 0.105129 0.589036 0.354296
O O5 0.764574 0.474494 0.321922
O O6 0.823790 0.368225 0.240019
O O7 0.040118 0.857852 0.114172
O O8 0.114412 0.743718 0.167982
O O9 0.034566 0.840843 0.252222
O O10 0.500000 0.500000 0.619696
O O11 0.444041 0.444041 0.500000
O O12 0.054175 0.253075 0.500000
O O13 0.025601 0.197046 0.627792
O O14 0.146065 0.283824 0.608938
O O15 0.067269 0.067269 0.317122
O O16 0.069922 0.930079 0.358947
O O17 0.748730 0.251271 0.796236
#
# Coordination Sequence:
#
# PCOD9569929 Si02
#       7
#    16  16  16   8  16  16  16
#     4  11  18  35  60  85 120 160 202 255 316 378
#     4  11  18  32  60  92 115 151 198 257 311 366
#     4  12  21  38  65  94 122 158 208 259 316 384
#     4  11  26  46  66  90 129 175 216 264 320 383
#     4  11  25  40  56  87 131 173 211 259 320 384
#     4  11  22  39  66  95 122 162 217 269 321 383
#     4  11  21  34  55  86 122 157 198 254 317 369
#
# _framework density 17.832647000000001
#
# number of rings (size 3 to 8) (size 9 to 14) (size 15 to 20)
#    0.000    0.846    7.692    1.846    0.000    3.077 
#    0.000    1.538    0.000    0.000    0.000    0.000 
#    0.000    0.000    0.000    0.000    0.000    0.000 
#
# Total GULP energy -579238.113911 kJ/mol
# GULP energy per Si atom -5569.597249 kJ/mol
# Density = 1.779206 g / cm^3
# Si number density = 17.832647 Si / 1000 Ang^3
#
#
#
# Elastic Constant Matrix: (Units=GPa)
#
#
# Indices 1 2 3 4 5 6 
#
# 1 124.3854 66.4571 27.3164 0.0000 0.0000 0.0000
# 2 66.4571 124.3854 27.3164 0.0000 0.0000 0.0000
# 3 27.3164 27.3164 60.8737 0.0000 0.0000 0.0000
# 4 0.0000 0.0000 0.0000 19.0687 0.0000 0.0000
# 5 0.0000 0.0000 0.0000 0.0000 19.0687 0.0000
# 6 0.0000 0.0000 0.0000 0.0000 0.0000 49.1729
#
#
#
# Elastic Compliance Matrix: (Units=1/GPa)
#
#
# Indices 1 2 3 4 5 6 
#
# 1 0.011637 -0.005625 -0.002698 0.000000 0.000000 0.000000
# 2 -0.005625 0.011637 -0.002698 0.000000 0.000000 0.000000
# 3 -0.002698 -0.002698 0.018849 0.000000 0.000000 0.000000
# 4 0.000000 0.000000 0.000000 0.052442 0.000000 0.000000
# 5 0.000000 0.000000 0.000000 0.000000 0.052442 0.000000
# 6 0.000000 0.000000 0.000000 0.000000 0.000000 0.020336
#
#
# Mechanical properties :
#
#
# Convention : Reuss Voigt Hill
#
# Bulk Modulus (GPa) = 49.79690 61.31380 55.55535
# Shear Modulus (GPa) = 25.49977 30.03236 27.76606
#
# Velocity S-wave (km/s) = 3.78557 4.10826 3.95021
# Velocity P-wave (km/s) = 6.86240 7.54727 7.21297
#
# Compressibility (1/GPa) = 0.02008157
#
# Stress axis : x y z
#
# Youngs Moduli (GPa) = 85.92919 85.92919 53.05379
#
# Poissons Ratio (x) = 0.48337 0.14314
# Poissons Ratio (y) = 0.48337 0.14314
# Poissons Ratio (z) = 0.23183 0.23183
#
# Static dielectric constant tensor:
#      x y z
#    x 1.647670 0.000000 0.000000 
#    y 0.000000 1.647670 0.000000 
#    z 0.000000 0.000000 1.630460 
# 
# From -- ./inp_files/6440.got.cif
#   From: 2010.05.17/outbox.ucp.g08.bks.cvg/sg136_4_cif.got.tgz:6440.got - 2010.06.11 11:40:42.
