data_PCOD9569353
_publ_section_title
;
Structure prediction by ZEFSAII (Michael W. Deem and Ramdas Pophale) SiO2 
 PCOD9569353
Probable space group: P 42/M N M
;
_chemical_formula_sum "Si O2"
_cell_formula_units_Z 128
_cell_length_a 20.659166
_cell_length_b 20.659166
_cell_length_c 17.353979
_cell_angle_alpha 90.000000
_cell_angle_beta 90.000000
_cell_angle_gamma 90.000000
_cell_volume 7406.698018
_symmetry_space_group_name_H-M "P 42/M N M"
_symmetry_group_IT_number 136
_symmetry_cell_setting 'tetragonal'
loop_
_space_group_symop_operation_xyz
x,y,z
1/2-y,1/2+x,1/2+z
-x,-y,z
1/2+y,1/2-x,1/2+z
1/2+x,1/2-y,1/2-z
1/2-x,1/2+y,1/2-z
y,x,-z
-y,-x,-z
-x,-y,-z
1/2+y,1/2-x,1/2-z
x,y,-z
1/2-y,1/2+x,1/2-z
1/2-x,1/2+y,1/2+z
1/2+x,1/2-y,1/2+z
-y,-x,z
y,x,z
loop_
_atom_site_type_symbol
_atom_site_label
_atom_site_fract_x
_atom_site_fract_y
_atom_site_fract_z
Si Si1 0.848308 0.255244 0.411996
Si Si2 0.773222 0.875553 0.649327
Si Si3 0.510395 0.786410 0.854485
Si Si4 0.276693 0.829711 0.085157
Si Si5 0.305771 0.132226 0.801110
Si Si6 0.576483 0.829980 0.703254
Si Si7 0.490632 0.071523 0.912663
Si Si8 0.152154 0.531345 0.587653
O O1 0.835057 0.276349 0.500000
O O2 0.815327 0.184674 0.402865
O O3 0.925024 0.262250 0.397552
O O4 0.814943 0.302811 0.350406
O O5 0.842789 0.842789 0.637379
O O6 0.721890 0.834294 0.599068
O O7 0.749787 0.864809 0.737614
O O8 0.761492 0.950731 0.633386
O O9 0.531650 0.795195 0.765760
O O10 0.489351 0.859594 0.878659
O O11 0.211325 0.788676 0.088537
O O12 0.281001 0.879712 0.154516
O O13 0.283598 0.858775 0.000000
O O14 0.373195 0.125694 0.751535
O O15 0.299255 0.074128 0.861665
O O16 0.532616 0.862753 0.637765
O O17 0.412652 0.074474 0.916462
O O18 0.500000 0.000000 0.875805
O O19 0.517687 0.066909 0.000000
O O20 0.171905 0.517478 0.500000
#
# Coordination Sequence:
#
# PCOD9569353 Si02
#       8
#    16  16  16  16  16  16  16  16
#     4  10  20  35  57  81 104 135 174 222 277 326
#     4  10  21  36  55  76 102 140 181 223 271 319
#     4  11  21  36  53  76 107 137 179 221 269 321
#     4   9  19  35  53  75 103 136 180 228 270 314
#     4  10  19  34  53  74 104 139 180 223 261 310
#     4  10  20  31  49  74 100 141 175 215 262 308
#     4  10  22  35  49  71 104 147 184 216 253 303
#     4  11  20  32  48  73 107 141 178 213 255 312
#
# _framework density 17.281656000000002
#
# number of rings (size 3 to 8) (size 9 to 14) (size 15 to 20)
#    0.000    1.875    3.750    1.500    3.500    4.000 
#    0.000    0.000    0.000    0.375    0.000    0.875 
#    0.000    0.000    0.000    1.375    0.000    0.000 
#
# Total GULP energy -713389.122713 kJ/mol
# GULP energy per Si atom -5573.352521 kJ/mol
# Density = 1.724232 g / cm^3
# Si number density = 17.281656 Si / 1000 Ang^3
#
#
#
# Elastic Constant Matrix: (Units=GPa)
#
#
# Indices 1 2 3 4 5 6 
#
# 1 61.9981 32.6125 22.3427 0.0000 0.0000 0.0000
# 2 32.6125 61.9981 22.3427 0.0000 0.0000 0.0000
# 3 22.3427 22.3427 93.7606 0.0000 0.0000 0.0000
# 4 0.0000 0.0000 0.0000 20.5528 0.0000 0.0000
# 5 0.0000 0.0000 0.0000 0.0000 20.5528 0.0000
# 6 0.0000 0.0000 0.0000 0.0000 0.0000 23.4207
#
#
#
# Elastic Compliance Matrix: (Units=1/GPa)
#
#
# Indices 1 2 3 4 5 6 
#
# 1 0.022970 -0.011060 -0.002838 0.000000 0.000000 0.000000
# 2 -0.011060 0.022970 -0.002838 0.000000 0.000000 0.000000
# 3 -0.002838 -0.002838 0.012018 0.000000 0.000000 0.000000
# 4 0.000000 0.000000 0.000000 0.048655 0.000000 0.000000
# 5 0.000000 0.000000 0.000000 0.000000 0.048655 0.000000
# 6 0.000000 0.000000 0.000000 0.000000 0.000000 0.042697
#
#
# Mechanical properties :
#
#
# Convention : Reuss Voigt Hill
#
# Bulk Modulus (GPa) = 40.83999 41.37253 41.10626
# Shear Modulus (GPa) = 20.86806 22.26919 21.56862
#
# Velocity S-wave (km/s) = 3.47872 3.59361 3.53663
# Velocity P-wave (km/s) = 6.31020 6.41956 6.36512
#
# Compressibility (1/GPa) = 0.02448580
#
# Stress axis : x y z
#
# Youngs Moduli (GPa) = 43.53467 43.53467 83.20791
#
# Poissons Ratio (x) = 0.48150 0.23615
# Poissons Ratio (y) = 0.48150 0.23615
# Poissons Ratio (z) = 0.12356 0.12356
#
# Static dielectric constant tensor:
#      x y z
#    x 1.605510 0.000000 0.000000 
#    y 0.000000 1.605510 0.000000 
#    z 0.000000 0.000000 1.633930 
# 
# From -- ./inp_files/6668.got.cif
#   From: 2010.05.17/outbox.cif.g08.bks.cpg/sg136_4_cif.got.tgz:6668.got - 2010.05.20 12:54:53.
