data_PCOD9569966
_publ_section_title
;
Structure prediction by ZEFSAII (Michael W. Deem and Ramdas Pophale) SiO2 
 PCOD9569966
Probable space group: P 42/N M C
;
_chemical_formula_sum "Si O2"
_cell_formula_units_Z 112
_cell_length_a 22.509047
_cell_length_b 22.509047
_cell_length_c 14.264447
_cell_angle_alpha 90.000000
_cell_angle_beta 90.000000
_cell_angle_gamma 90.000000
_cell_volume 7227.184732
_symmetry_space_group_name_H-M "P 42/N M C"
_symmetry_group_IT_number 137
_space_group.IT_coordinate_system_code '2'
_symmetry_cell_setting 'tetragonal'
loop_
_space_group_symop_operation_xyz
x,y,z
1/2-y,x,1/2+z
1/2-x,1/2-y,z
y,1/2-x,1/2+z
1/2+x,-y,-z
-x,1/2+y,-z
1/2+y,1/2+x,1/2-z
-y,-x,1/2-z
-x,-y,-z
1/2+y,-x,1/2-z
1/2+x,1/2+y,-z
-y,1/2+x,1/2-z
1/2-x,y,z
x,1/2-y,z
1/2-y,1/2-x,1/2+z
y,x,1/2+z
loop_
_atom_site_type_symbol
_atom_site_label
_atom_site_fract_x
_atom_site_fract_y
_atom_site_fract_z
Si Si1 0.875813 0.682091 0.189600
Si Si2 0.316195 0.180926 0.001477
Si Si3 0.898759 0.884984 0.366029
Si Si4 0.987001 0.318839 0.860159
Si Si5 0.975122 0.320425 0.642150
Si Si6 0.933646 0.428800 0.956017
Si Si7 0.993523 0.033666 0.142393
O O1 0.876070 0.750000 0.226700
O O2 0.866960 0.635173 0.271034
O O3 0.941750 0.672031 0.146913
O O4 0.827332 0.677792 0.109128
O O5 0.250000 0.159910 0.026413
O O6 0.321029 0.250000 0.028614
O O7 0.366993 0.143023 0.049577
O O8 0.919340 0.952574 0.363484
O O9 0.957433 0.843437 0.371934
O O10 0.976916 0.250000 0.883410
O O11 0.963529 0.329469 0.753619
O O12 0.956834 0.363422 0.932083
O O13 0.969395 0.250000 0.622272
O O14 0.937413 0.366170 0.579411
O O15 0.975547 0.472402 0.892771
O O16 0.945268 0.448372 0.063523
O O17 0.972637 0.027364 0.250000
#
# Coordination Sequence:
#
# PCOD9569966 Si02
#       7
#    16  16  16  16  16  16  16
#     4   9  17  28  42  60  84 116 153 192 228 267
#     4  10  20  31  43  62  89 123 163 199 231 275
#     4  10  18  30  47  63  88 119 155 196 236 277
#     4   9  16  28  47  70  93 118 152 188 225 276
#     4   9  17  28  46  70  93 120 154 189 225 277
#     4  10  18  30  49  69  94 124 149 186 237 285
#     4  10  20  31  47  72  95 117 152 197 245 292
#
# _framework density 15.497044000000001
#
# number of rings (size 3 to 8) (size 9 to 14) (size 15 to 20)
#    0.000    2.429    0.000    6.000    0.000    2.857 
#    0.000    1.429    0.000    2.143    0.000    2.000 
#    0.000    0.000    0.000    1.286    0.000    0.143 
#
# Total GULP energy -624152.915911 kJ/mol
# GULP energy per Si atom -5572.793892 kJ/mol
# Density = 1.546177 g / cm^3
# Si number density = 15.497044 Si / 1000 Ang^3
#
#
#
# Elastic Constant Matrix: (Units=GPa)
#
#
# Indices 1 2 3 4 5 6 
#
# 1 42.9678 14.8624 27.1633 0.0000 0.0000 0.0000
# 2 14.8624 42.9679 27.1633 0.0000 0.0000 0.0000
# 3 27.1633 27.1633 73.8499 0.0000 0.0000 0.0000
# 4 0.0000 0.0000 0.0000 19.6687 0.0000 0.0000
# 5 0.0000 0.0000 0.0000 0.0000 19.6681 0.0000
# 6 0.0000 0.0000 0.0000 0.0000 0.0000 1.8982
#
#
#
# Elastic Compliance Matrix: (Units=1/GPa)
#
#
# Indices 1 2 3 4 5 6 
#
# 1 0.031001 -0.004579 -0.009718 0.000000 0.000000 0.000000
# 2 -0.004579 0.031001 -0.009718 0.000000 0.000000 0.000000
# 3 -0.009718 -0.009718 0.020690 0.000000 0.000000 0.000000
# 4 0.000000 0.000000 0.000000 0.050842 0.000000 0.000000
# 5 0.000000 0.000000 0.000000 0.000000 0.050844 0.000000
# 6 0.000000 0.000000 0.000000 0.000000 0.000000 0.526829
#
#
# Mechanical properties :
#
#
# Convention : Reuss Voigt Hill
#
# Bulk Modulus (GPa) = 28.85178 33.12930 30.99054
# Shear Modulus (GPa) = 6.48684 14.28678 10.38681
#
# Velocity S-wave (km/s) = 2.04816 3.03958 2.59172
# Velocity P-wave (km/s) = 4.92456 5.80887 5.38490
#
# Compressibility (1/GPa) = 0.03465991
#
# Stress axis : x y z
#
# Youngs Moduli (GPa) = 32.25710 32.25716 48.33234
#
# Poissons Ratio (x) = 0.14772 0.46971
# Poissons Ratio (y) = 0.14772 0.46971
# Poissons Ratio (z) = 0.31348 0.31348
#
# Static dielectric constant tensor:
#      x y z
#    x 1.507680 0.000000 0.000000 
#    y 0.000000 1.507670 0.000000 
#    z 0.000000 0.000000 1.540810 
# 
# From -- ./inp_files/3948.got.cif
#   From: 2010.05.17/outbox.cif.g08.bks.cpg/sg137_2_cif.got.tgz:3948.got - 2010.05.20 13:01:12.
