data_PCOD9569965
_publ_section_title
;
Structure prediction by ZEFSAII (Michael W. Deem and Ramdas Pophale) SiO2 
 PCOD9569965
Probable space group: P 42/N M C
;
_chemical_formula_sum "Si O2"
_cell_formula_units_Z 80
_cell_length_a 13.986691
_cell_length_b 13.986691
_cell_length_c 21.759529
_cell_angle_alpha 90.000000
_cell_angle_beta 90.000000
_cell_angle_gamma 90.000000
_cell_volume 4256.762806
_symmetry_space_group_name_H-M "P 42/N M C"
_symmetry_group_IT_number 137
_space_group.IT_coordinate_system_code '2'
_symmetry_cell_setting 'tetragonal'
loop_
_space_group_symop_operation_xyz
x,y,z
1/2-y,x,1/2+z
1/2-x,1/2-y,z
y,1/2-x,1/2+z
1/2+x,-y,-z
-x,1/2+y,-z
1/2+y,1/2+x,1/2-z
-y,-x,1/2-z
-x,-y,-z
1/2+y,-x,1/2-z
1/2+x,1/2+y,-z
-y,1/2+x,1/2-z
1/2-x,y,z
x,1/2-y,z
1/2-y,1/2-x,1/2+z
y,x,1/2+z
loop_
_atom_site_type_symbol
_atom_site_label
_atom_site_fract_x
_atom_site_fract_y
_atom_site_fract_z
Si Si1 0.948244 0.866448 0.873172
Si Si2 0.138330 0.366046 0.997427
Si Si3 0.138082 0.365592 0.863229
Si Si4 0.856892 0.365413 0.181150
Si Si5 0.635220 0.979193 0.756905
O O1 0.935847 0.750000 0.866277
O O2 0.893754 0.920950 0.818315
O O3 0.060204 0.889671 0.865608
O O4 0.912802 0.896537 0.940325
O O5 0.250000 0.392186 0.001162
O O6 0.133874 0.250000 0.997315
O O7 0.101949 0.398143 0.930376
O O8 0.250000 0.388909 0.858093
O O9 0.132529 0.250000 0.863596
O O10 0.081993 0.396311 0.802957
O O11 0.890225 0.390225 0.250000
O O12 0.750000 0.401340 0.169019
O O13 0.850831 0.250000 0.182374
O O14 0.750000 0.991248 0.756091
O O15 0.578258 0.078258 0.750000
#
# Coordination Sequence:
#
# PCOD9569965 Si02
#       5
#    16  16  16  16  16
#     4  10  18  29  52  84 111 133 165 214 265 310
#     4   8  14  26  47  77 110 139 164 199 258 319
#     4   8  15  31  55  79 104 135 168 206 260 324
#     4   8  14  25  41  64 101 146 178 199 237 301
#     4  11  23  37  53  74 100 133 178 225 267 313
#
# _framework density 18.793623
#
# number of rings (size 3 to 8) (size 9 to 14) (size 15 to 20)
#    0.000    3.000    0.000    3.600    0.000    2.200 
#    0.000    2.000    0.000    1.200    0.000    5.600 
#    0.000    0.000    0.000    0.000    0.000    0.000 
#
# Total GULP energy -446059.791105 kJ/mol
# GULP energy per Si atom -5575.747389 kJ/mol
# Density = 1.875085 g / cm^3
# Si number density = 18.793623 Si / 1000 Ang^3
#
#
#
# Elastic Constant Matrix: (Units=GPa)
#
#
# Indices 1 2 3 4 5 6 
#
# 1 85.0337 19.2142 55.2843 0.0000 0.0000 0.0000
# 2 19.2142 85.0337 55.2843 0.0000 0.0000 0.0000
# 3 55.2843 55.2843 167.1737 0.0000 0.0000 0.0000
# 4 0.0000 0.0000 0.0000 16.3016 0.0000 0.0000
# 5 0.0000 0.0000 0.0000 0.0000 16.3016 0.0000
# 6 0.0000 0.0000 0.0000 0.0000 0.0000 15.3611
#
#
#
# Elastic Compliance Matrix: (Units=1/GPa)
#
#
# Indices 1 2 3 4 5 6 
#
# 1 0.014984 -0.000209 -0.004886 0.000000 0.000000 0.000000
# 2 -0.000209 0.014984 -0.004886 0.000000 0.000000 0.000000
# 3 -0.004886 -0.004886 0.009213 0.000000 0.000000 0.000000
# 4 0.000000 0.000000 0.000000 0.061344 0.000000 0.000000
# 5 0.000000 0.000000 0.000000 0.000000 0.061344 0.000000
# 6 0.000000 0.000000 0.000000 0.000000 0.000000 0.065099
#
#
# Mechanical properties :
#
#
# Convention : Reuss Voigt Hill
#
# Bulk Modulus (GPa) = 52.03209 66.31187 59.17198
# Shear Modulus (GPa) = 19.73658 23.42342 21.58000
#
# Velocity S-wave (km/s) = 3.24416 3.53420 3.39228
# Velocity P-wave (km/s) = 6.46366 7.21214 6.84813
#
# Compressibility (1/GPa) = 0.01921891
#
# Stress axis : x y z
#
# Youngs Moduli (GPa) = 66.73818 66.73818 108.53737
#
# Poissons Ratio (x) = 0.01396 0.53032
# Poissons Ratio (y) = 0.01396 0.53032
# Poissons Ratio (z) = 0.32608 0.32608
#
# Static dielectric constant tensor:
#      x y z
#    x 1.657100 0.000000 0.000000 
#    y 0.000000 1.657100 0.000000 
#    z 0.000000 0.000000 1.658350 
# 
# From -- ./inp_files/7534.got.cif
#   From: 2010.05.17/outbox.cif.g08.bks.cpg/sg137_4_cif.got.tgz:7534.got - 2010.05.20 13:01:12.
