data_PCOD9569314
_publ_section_title
;
Structure prediction by ZEFSAII (Michael W. Deem and Ramdas Pophale) SiO2 
 PCOD9569314
Probable space group: P 42/M N M
;
_chemical_formula_sum "Si O2"
_cell_formula_units_Z 88
_cell_length_a 17.971387
_cell_length_b 17.971387
_cell_length_c 14.617401
_cell_angle_alpha 90.000000
_cell_angle_beta 90.000000
_cell_angle_gamma 90.000000
_cell_volume 4720.992974
_symmetry_space_group_name_H-M "P 42/M N M"
_symmetry_group_IT_number 136
_symmetry_cell_setting 'tetragonal'
loop_
_space_group_symop_operation_xyz
x,y,z
1/2-y,1/2+x,1/2+z
-x,-y,z
1/2+y,1/2-x,1/2+z
1/2+x,1/2-y,1/2-z
1/2-x,1/2+y,1/2-z
y,x,-z
-y,-x,-z
-x,-y,-z
1/2+y,1/2-x,1/2-z
x,y,-z
1/2-y,1/2+x,1/2-z
1/2-x,1/2+y,1/2+z
1/2+x,1/2-y,1/2+z
-y,-x,z
y,x,z
loop_
_atom_site_type_symbol
_atom_site_label
_atom_site_fract_x
_atom_site_fract_y
_atom_site_fract_z
Si Si1 0.644759 0.524651 0.840951
Si Si2 0.594115 0.990977 0.000000
Si Si3 0.410931 0.823919 0.328237
Si Si4 0.440858 0.559143 0.318500
Si Si5 0.143386 0.542222 0.000000
Si Si6 0.191732 0.083013 0.500000
Si Si7 0.326340 0.673661 0.606374
Si Si8 0.958612 0.310665 0.317326
O O1 0.582263 0.582263 0.872746
O O2 0.613995 0.488172 0.747855
O O3 0.659052 0.459854 0.913192
O O4 0.725133 0.563242 0.834658
O O5 0.635020 0.952090 0.085876
O O6 0.500000 0.000000 0.000000
O O7 0.603738 0.079471 0.000000
O O8 0.362329 0.750261 0.352782
O O9 0.475147 0.806970 0.255512
O O10 0.357165 0.887324 0.287372
O O11 0.500000 0.500000 0.359461
O O12 0.389779 0.610222 0.381755
O O13 0.221586 0.581665 0.000000
O O14 0.149543 0.490743 0.909161
O O15 0.166013 0.166013 0.500000
O O16 0.311650 0.688351 0.500000
#
# Coordination Sequence:
#
# PCOD9569314 Si02
#       8
#    16   8  16   8   8   8   8  16
#     4  10  20  34  55  86 124 160 203 255 307 374
#     4  12  22  43  64  90 125 164 216 270 320 386
#     4  12  25  41  67  94 129 174 216 270 329 395
#     4  10  20  40  66  86 117 163 217 268 312 369
#     4  10  22  39  60  89 127 158 209 254 308 381
#     4  10  19  32  55  88 123 166 199 237 317 382
#     4  12  26  47  65  95 132 173 222 278 341 390
#     4  11  23  39  61  94 124 167 209 259 323 389
#
# _framework density 18.640146000000001
#
# number of rings (size 3 to 8) (size 9 to 14) (size 15 to 20)
#    0.000    1.091    5.455    1.364    1.273    0.545 
#    0.000    0.000    0.000    1.091    0.000    0.000 
#    0.000    0.000    0.000    0.000    0.000    0.000 
#
# Total GULP energy -490196.237821 kJ/mol
# GULP energy per Si atom -5570.411793 kJ/mol
# Density = 1.859772 g / cm^3
# Si number density = 18.640146 Si / 1000 Ang^3
#
#
#
# Elastic Constant Matrix: (Units=GPa)
#
#
# Indices 1 2 3 4 5 6 
#
# 1 100.6996 71.5486 18.1205 0.0000 0.0000 0.0000
# 2 71.5486 100.6992 18.1204 0.0000 0.0000 0.0000
# 3 18.1205 18.1204 61.5633 0.0000 0.0000 0.0000
# 4 0.0000 0.0000 0.0000 5.2823 0.0000 0.0000
# 5 0.0000 0.0000 0.0000 0.0000 5.2825 0.0000
# 6 0.0000 0.0000 0.0000 0.0000 0.0000 25.4433
#
#
#
# Elastic Compliance Matrix: (Units=1/GPa)
#
#
# Indices 1 2 3 4 5 6 
#
# 1 0.020247 -0.014058 -0.001822 0.000000 0.000000 0.000000
# 2 -0.014058 0.020247 -0.001822 0.000000 0.000000 0.000000
# 3 -0.001822 -0.001822 0.017316 0.000000 0.000000 0.000000
# 4 0.000000 0.000000 0.000000 0.189312 0.000000 0.000000
# 5 0.000000 0.000000 0.000000 0.000000 0.189306 0.000000
# 6 0.000000 0.000000 0.000000 0.000000 0.000000 0.039303
#
#
# Mechanical properties :
#
#
# Convention : Reuss Voigt Hill
#
# Bulk Modulus (GPa) = 44.62886 53.17123 48.90004
# Shear Modulus (GPa) = 9.64132 17.54645 13.59389
#
# Velocity S-wave (km/s) = 2.27675 3.07143 2.70345
# Velocity P-wave (km/s) = 5.55929 6.41602 6.00296
#
# Compressibility (1/GPa) = 0.02240702
#
# Stress axis : x y z
#
# Youngs Moduli (GPa) = 49.39095 49.39080 57.75076
#
# Poissons Ratio (x) = 0.69433 0.10520
# Poissons Ratio (y) = 0.69433 0.10520
# Poissons Ratio (z) = 0.08997 0.08997
#
# Static dielectric constant tensor:
#      x y z
#    x 1.686610 0.000000 0.000000 
#    y 0.000000 1.686610 0.000000 
#    z 0.000000 0.000000 1.663400 
# 
# From -- ./inp_files/5122.got.cif
#   From: 2010.05.17/outbox.cif.g08.bks.cpg/sg136_3_cif.got.tgz:5122.got - 2010.05.20 12:54:53.
