data_PCOD9569878
_publ_section_title
;
Structure prediction by ZEFSAII (Michael W. Deem and Ramdas Pophale) SiO2 
 PCOD9569878
Probable space group: P 42/M N M
;
_chemical_formula_sum "Si O2"
_cell_formula_units_Z 72
_cell_length_a 11.429386
_cell_length_b 11.429386
_cell_length_c 29.685228
_cell_angle_alpha 90.000000
_cell_angle_beta 90.000000
_cell_angle_gamma 90.000000
_cell_volume 3877.806992
_symmetry_space_group_name_H-M "P 42/M N M"
_symmetry_group_IT_number 136
_symmetry_cell_setting 'tetragonal'
loop_
_space_group_symop_operation_xyz
x,y,z
1/2-y,1/2+x,1/2+z
-x,-y,z
1/2+y,1/2-x,1/2+z
1/2+x,1/2-y,1/2-z
1/2-x,1/2+y,1/2-z
y,x,-z
-y,-x,-z
-x,-y,-z
1/2+y,1/2-x,1/2-z
x,y,-z
1/2-y,1/2+x,1/2-z
1/2-x,1/2+y,1/2+z
1/2+x,1/2-y,1/2+z
-y,-x,z
y,x,z
loop_
_atom_site_type_symbol
_atom_site_label
_atom_site_fract_x
_atom_site_fract_y
_atom_site_fract_z
Si Si1 0.899508 0.594359 0.860403
Si Si2 0.504893 0.306541 0.799612
Si Si3 0.193411 0.994751 0.803199
Si Si4 0.918986 0.719891 0.050978
Si Si5 0.093810 0.906191 0.945247
O O1 0.790830 0.537487 0.834308
O O2 0.953421 0.707353 0.835130
O O3 0.873585 0.632509 0.911462
O O4 0.000000 0.500000 0.861500
O O5 0.631548 0.368453 0.806706
O O6 0.410794 0.410794 0.801968
O O7 0.494933 0.260690 0.748275
O O8 0.088884 0.088884 0.803663
O O9 0.129972 0.870029 0.813864
O O10 0.827760 0.827760 0.049156
O O11 0.042962 0.778932 0.065795
O O12 0.929555 0.673487 0.000000
O O13 0.088050 0.911951 0.000000
O O14 0.000000 0.000000 0.926247
#
# Coordination Sequence:
#
# PCOD9569878 Si02
#       5
#    16  16  16  16   8
#     4  12  25  34  53  87 121 155 181 226 290 351
#     4   9  20  40  60  77 106 153 202 241 275 325
#     4   9  20  38  60  84 109 144 193 246 291 334
#     4   9  18  35  58  82 109 145 190 233 278 335
#     4   7  12  26  52  82 106 132 173 229 283 329
#
# _framework density 18.567194000000001
#
# number of rings (size 3 to 8) (size 9 to 14) (size 15 to 20)
#    0.000    2.556    0.000    4.667    4.667    1.333 
#    0.000    0.000    0.000    0.667    0.000    3.111 
#    0.000    0.000    0.000    0.000    0.000    0.000 
#
# Total GULP energy -401270.001800 kJ/mol
# GULP energy per Si atom -5573.194469 kJ/mol
# Density = 1.852493 g / cm^3
# Si number density = 18.567194 Si / 1000 Ang^3
#
#
#
# Elastic Constant Matrix: (Units=GPa)
#
#
# Indices 1 2 3 4 5 6 
#
# 1 40.5285 6.8921 44.7089 0.0000 0.0000 0.0000
# 2 6.8921 40.5285 44.7089 0.0000 0.0000 0.0000
# 3 44.7089 44.7089 117.5791 0.0000 0.0000 0.0000
# 4 0.0000 0.0000 0.0000 31.3730 0.0000 0.0000
# 5 0.0000 0.0000 0.0000 0.0000 31.3729 0.0000
# 6 0.0000 0.0000 0.0000 0.0000 0.0000 15.7082
#
#
#
# Elastic Compliance Matrix: (Units=1/GPa)
#
#
# Indices 1 2 3 4 5 6 
#
# 1 0.052123 0.022393 -0.028335 0.000000 0.000000 0.000000
# 2 0.022393 0.052123 -0.028335 0.000000 0.000000 0.000000
# 3 -0.028335 -0.028335 0.030053 0.000000 0.000000 0.000000
# 4 0.000000 0.000000 0.000000 0.031875 0.000000 0.000000
# 5 0.000000 0.000000 0.000000 0.000000 0.031875 0.000000
# 6 0.000000 0.000000 0.000000 0.000000 0.000000 0.063661
#
#
# Mechanical properties :
#
#
# Convention : Reuss Voigt Hill
#
# Bulk Modulus (GPa) = 15.20964 43.47290 29.34127
# Shear Modulus (GPa) = 14.19740 22.51255 18.35497
#
# Velocity S-wave (km/s) = 2.76823 3.48586 3.14756
# Velocity P-wave (km/s) = 4.29266 6.29812 5.38949
#
# Compressibility (1/GPa) = 0.06574777
#
# Stress axis : x y z
#
# Youngs Moduli (GPa) = 19.18538 19.18532 33.27441
#
# Poissons Ratio (x) = -0.42962 0.94282
# Poissons Ratio (y) = -0.42963 0.94282
# Poissons Ratio (z) = 0.54361 0.54361
#
# Static dielectric constant tensor:
#      x y z
#    x 1.577260 0.000000 0.000000 
#    y 0.000000 1.577260 0.000000 
#    z 0.000000 0.000000 1.699520 
# 
# From -- ./inp_files/9462.got.cif
#   From: 2010.05.17/outbox.cif.g08.bks.cpg/sg136_5_cif.got.tgz:9462.got - 2010.05.20 12:54:53.
