data_PCOD9569304
_publ_section_title
;
Structure prediction by ZEFSAII (Michael W. Deem and Ramdas Pophale) SiO2 
 PCOD9569304
Probable space group: P 42/M N M
;
_chemical_formula_sum "Si O2"
_cell_formula_units_Z 96
_cell_length_a 25.498776
_cell_length_b 25.498776
_cell_length_c 8.792911
_cell_angle_alpha 90.000000
_cell_angle_beta 90.000000
_cell_angle_gamma 90.000000
_cell_volume 5717.041502
_symmetry_space_group_name_H-M "P 42/M N M"
_symmetry_group_IT_number 136
_symmetry_cell_setting 'tetragonal'
loop_
_space_group_symop_operation_xyz
x,y,z
1/2-y,1/2+x,1/2+z
-x,-y,z
1/2+y,1/2-x,1/2+z
1/2+x,1/2-y,1/2-z
1/2-x,1/2+y,1/2-z
y,x,-z
-y,-x,-z
-x,-y,-z
1/2+y,1/2-x,1/2-z
x,y,-z
1/2-y,1/2+x,1/2-z
1/2-x,1/2+y,1/2+z
1/2+x,1/2-y,1/2+z
-y,-x,z
y,x,z
loop_
_atom_site_type_symbol
_atom_site_label
_atom_site_fract_x
_atom_site_fract_y
_atom_site_fract_z
Si Si1 0.097898 0.252043 0.818976
Si Si2 0.128929 0.577746 0.682181
Si Si3 0.576555 0.423446 0.817693
Si Si4 0.229754 0.984632 0.682394
Si Si5 0.664554 0.335447 0.181463
Si Si6 0.380884 0.467480 0.682137
Si Si7 0.534698 0.847808 0.183498
O O1 0.102352 0.313895 0.788186
O O2 0.145060 0.218450 0.753197
O O3 0.044854 0.232350 0.737993
O O4 0.092802 0.244328 0.000000
O O5 0.124055 0.571233 0.500000
O O6 0.130037 0.520406 0.756375
O O7 0.082496 0.615682 0.735284
O O8 0.620443 0.379558 0.781634
O O9 0.595136 0.478960 0.750719
O O10 0.572622 0.427379 0.000000
O O11 0.225652 0.983246 0.500000
O O12 0.177770 0.960070 0.754341
O O13 0.286410 0.960949 0.728867
O O14 0.668151 0.331850 0.000000
O O15 0.378889 0.472698 0.500000
O O16 0.419491 0.419491 0.720716
O O17 0.533577 0.848376 0.000000
#
# Coordination Sequence:
#
# PCOD9569304 Si02
#       7
#    16  16   8  16   8  16  16
#     4  10  19  32  53  76 100 133 171 211 256 306
#     4   9  19  35  54  80 109 138 173 210 253 308
#     4  11  22  34  51  76 105 136 168 214 262 308
#     4  10  19  33  53  75  99 133 172 210 254 302
#     4  11  21  32  50  77 105 132 169 219 265 307
#     4  11  23  36  51  73 102 136 172 214 260 307
#     4   9  19  35  55  79 109 138 169 212 256 304
#
# _framework density 16.791900999999999
#
# number of rings (size 3 to 8) (size 9 to 14) (size 15 to 20)
#    0.000    2.000    1.667    2.250    0.000    5.333 
#    0.000    1.667    1.833    0.000    0.000    0.000 
#    0.000    0.000    0.000    0.000    0.000    0.000 
#
# Total GULP energy -535760.072972 kJ/mol
# GULP energy per Si atom -5580.834093 kJ/mol
# Density = 1.675368 g / cm^3
# Si number density = 16.791901 Si / 1000 Ang^3
#
#
#
# Elastic Constant Matrix: (Units=GPa)
#
#
# Indices 1 2 3 4 5 6 
#
# 1 113.7934 86.4877 40.3207 0.0000 0.0000 0.0000
# 2 86.4877 113.7933 40.3209 0.0000 0.0000 0.0000
# 3 40.3207 40.3209 37.0324 0.0000 0.0000 0.0000
# 4 0.0000 0.0000 0.0000 21.7823 0.0000 0.0000
# 5 0.0000 0.0000 0.0000 0.0000 21.7824 0.0000
# 6 0.0000 0.0000 0.0000 0.0000 0.0000 30.9337
#
#
#
# Elastic Compliance Matrix: (Units=1/GPa)
#
#
# Indices 1 2 3 4 5 6 
#
# 1 0.022756 -0.013866 -0.009680 0.000000 0.000000 0.000000
# 2 -0.013866 0.022757 -0.009680 0.000000 0.000000 0.000000
# 3 -0.009680 -0.009680 0.048083 0.000000 0.000000 0.000000
# 4 0.000000 0.000000 0.000000 0.045909 0.000000 0.000000
# 5 0.000000 0.000000 0.000000 0.000000 0.045909 0.000000
# 6 0.000000 0.000000 0.000000 0.000000 0.000000 0.032327
#
#
# Mechanical properties :
#
#
# Convention : Reuss Voigt Hill
#
# Bulk Modulus (GPa) = 36.84112 66.54198 51.69155
# Shear Modulus (GPa) = 17.05086 21.39900 19.22493
#
# Velocity S-wave (km/s) = 3.19003 3.57370 3.38730
# Velocity P-wave (km/s) = 5.96287 7.53272 6.79329
#
# Compressibility (1/GPa) = 0.02714358
#
# Stress axis : x y z
#
# Youngs Moduli (GPa) = 43.94356 43.94321 20.79755
#
# Poissons Ratio (x) = 0.60932 0.20132
# Poissons Ratio (y) = 0.60932 0.20133
# Poissons Ratio (z) = 0.42537 0.42538
#
# Static dielectric constant tensor:
#      x y z
#    x 1.562680 0.000000 0.000000 
#    y 0.000000 1.562680 0.000000 
#    z 0.000000 0.000000 1.564910 
# 
# From -- ./inp_files/2043.got.cif
#   From: 2010.05.17/outbox.cif.g08.bks.cpg/sg136_2_cif.got.tgz:2043.got - 2010.05.20 12:54:53.
