data_PCOD9569862
_publ_section_title
;
Structure prediction by ZEFSAII (Michael W. Deem and Ramdas Pophale) SiO2 
 PCOD9569862
Probable space group: P 42/M N M
;
_chemical_formula_sum "Si O2"
_cell_formula_units_Z 60
_cell_length_a 11.560604
_cell_length_b 11.560604
_cell_length_c 21.151407
_cell_angle_alpha 90.000000
_cell_angle_beta 90.000000
_cell_angle_gamma 90.000000
_cell_volume 2826.834039
_symmetry_space_group_name_H-M "P 42/M N M"
_symmetry_group_IT_number 136
_symmetry_cell_setting 'tetragonal'
loop_
_space_group_symop_operation_xyz
x,y,z
1/2-y,1/2+x,1/2+z
-x,-y,z
1/2+y,1/2-x,1/2+z
1/2+x,1/2-y,1/2-z
1/2-x,1/2+y,1/2-z
y,x,-z
-y,-x,-z
-x,-y,-z
1/2+y,1/2-x,1/2-z
x,y,-z
1/2-y,1/2+x,1/2-z
1/2-x,1/2+y,1/2+z
1/2+x,1/2-y,1/2+z
-y,-x,z
y,x,z
loop_
_atom_site_type_symbol
_atom_site_label
_atom_site_fract_x
_atom_site_fract_y
_atom_site_fract_z
Si Si1 0.031065 0.294704 0.889705
Si Si2 0.127223 0.127223 0.000000
Si Si3 0.331030 0.017549 0.370181
Si Si4 0.909980 0.909980 0.425250
Si Si5 0.999134 0.191688 0.248982
O O1 0.134647 0.388077 0.889879
O O2 0.016689 0.229924 0.823102
O O3 0.922993 0.384665 0.890511
O O4 0.056030 0.202148 0.944488
O O5 0.214574 0.053912 0.403240
O O6 0.301006 0.011812 0.295538
O O7 0.914504 0.914504 0.500000
O O8 0.000000 0.000000 0.397020
O O9 0.100781 0.100781 0.264704
O O10 0.877744 0.122257 0.256474
#
# Coordination Sequence:
#
# PCOD9569862 Si02
#       5
#    16   4  16   8  16
#     4  11  27  45  71 105 148 200 248 301 377 457
#     4  12  28  48  73 103 154 220 240 292 378 469
#     4  11  25  45  73 106 141 188 252 318 376 435
#     4  11  26  41  68 105 135 179 234 301 366 434
#     4  11  23  43  72 108 141 182 245 317 383 443
#
# _framework density 21.225156999999999
#
# number of rings (size 3 to 8) (size 9 to 14) (size 15 to 20)
#    0.000    0.933    2.667    2.400    9.333    5.333 
#    0.000    1.333    0.000    0.000    0.000    0.000 
#    0.000    0.000    0.000    0.000    0.000    0.000 
#
# Total GULP energy -334179.229098 kJ/mol
# GULP energy per Si atom -5569.653818 kJ/mol
# Density = 2.117685 g / cm^3
# Si number density = 21.225157 Si / 1000 Ang^3
#
#
#
# Elastic Constant Matrix: (Units=GPa)
#
#
# Indices 1 2 3 4 5 6 
#
# 1 76.4179 41.9775 26.1889 0.0000 0.0000 0.0000
# 2 41.9775 76.4179 26.1889 0.0000 0.0000 0.0000
# 3 26.1889 26.1889 138.8944 0.0000 0.0000 0.0000
# 4 0.0000 0.0000 0.0000 -20.2800 0.0000 0.0000
# 5 0.0000 0.0000 0.0000 0.0000 -20.2800 0.0000
# 6 0.0000 0.0000 0.0000 0.0000 0.0000 33.1833
#
#
#
# Elastic Compliance Matrix: (Units=1/GPa)
#
#
# Indices 1 2 3 4 5 6 
#
# 1 0.019125 -0.009910 -0.001737 0.000000 0.000000 0.000000
# 2 -0.009910 0.019125 -0.001737 0.000000 0.000000 0.000000
# 3 -0.001737 -0.001737 0.007855 0.000000 0.000000 0.000000
# 4 0.000000 0.000000 0.000000 -0.049310 0.000000 0.000000
# 5 0.000000 0.000000 0.000000 0.000000 -0.049310 0.000000
# 6 0.000000 0.000000 0.000000 0.000000 0.000000 0.030136
#
#
# Mechanical properties :
#
#
# Convention : Reuss Voigt Hill
#
# Bulk Modulus (GPa) = 51.72016 53.38229 52.55123
# Shear Modulus (GPa) = 461.36469 11.68299 236.52384
#
# Velocity S-wave (km/s) = 14.75936 2.34867 10.56776
# Velocity P-wave (km/s) = 17.74463 5.70615 13.18014
#
# Compressibility (1/GPa) = 0.01933482
#
# Stress axis : x y z
#
# Youngs Moduli (GPa) = 52.28681 52.28681 127.30848
#
# Poissons Ratio (x) = 0.51818 0.22120
# Poissons Ratio (y) = 0.51818 0.22120
# Poissons Ratio (z) = 0.09085 0.09085
#
# Static dielectric constant tensor:
#      x y z
#    x 1.782920 0.000000 0.000000 
#    y 0.000000 1.782920 0.000000 
#    z 0.000000 0.000000 1.772940 
# 
# From -- ./inp_files/7068.got.cif
#   From: 2010.05.17/outbox.cif.g08.bks.cpg/sg136_4_cif.got.tgz:7068.got - 2010.05.20 12:54:53.
