data_PCOD9569905
_publ_section_title
;
Structure prediction by ZEFSAII (Michael W. Deem and Ramdas Pophale) SiO2 
 PCOD9569905
Probable space group: P 42/M N M
;
_chemical_formula_sum "Si O2"
_cell_formula_units_Z 96
_cell_length_a 24.000000
_cell_length_b 24.000000
_cell_length_c 9.000000
_cell_angle_alpha 90.000000
_cell_angle_beta 90.000000
_cell_angle_gamma 90.000000
_cell_volume 5184.000000
_symmetry_space_group_name_H-M "P 42/M N M"
_symmetry_group_IT_number 136
_symmetry_cell_setting 'tetragonal'
loop_
_space_group_symop_operation_xyz
x,y,z
1/2-y,1/2+x,1/2+z
-x,-y,z
1/2+y,1/2-x,1/2+z
1/2+x,1/2-y,1/2-z
1/2-x,1/2+y,1/2-z
y,x,-z
-y,-x,-z
-x,-y,-z
1/2+y,1/2-x,1/2-z
x,y,-z
1/2-y,1/2+x,1/2-z
1/2-x,1/2+y,1/2+z
1/2+x,1/2-y,1/2+z
-y,-x,z
y,x,z
loop_
_atom_site_type_symbol
_atom_site_label
_atom_site_fract_x
_atom_site_fract_y
_atom_site_fract_z
Si Si1 0.292692 0.292692 0.679406
Si Si2 0.923034 0.683192 0.822439
Si Si3 0.379911 0.379911 0.180929
Si Si4 0.684246 0.142687 0.175914
Si Si5 0.968299 0.289745 0.668628
Si Si6 0.840218 0.999892 0.667945
Si Si7 0.809031 0.893274 0.822435
O O1 0.296980 0.296980 0.500000
O O2 0.336238 0.336238 0.751020
O O3 0.311130 0.230226 0.721593
O O4 0.873288 0.645601 0.764286
O O5 0.902035 0.745327 0.779483
O O6 0.981059 0.675190 0.737623
O O7 0.930424 0.680128 0.000000
O O8 0.443021 0.366411 0.225099
O O9 0.375865 0.375865 0.000000
O O10 0.709603 0.083559 0.221146
O O11 0.674812 0.147411 0.000000
O O12 0.953885 0.306989 0.500000
O O13 0.987790 0.225798 0.660969
O O14 0.860322 0.989632 0.500000
O O15 0.845183 0.945050 0.765201
O O16 0.836630 0.836630 0.766010
O O17 0.809722 0.893268 0.000000
#
# Coordination Sequence:
#
# PCOD9569905 Si02
#       7
#     8  16   8  16  16  16  16
#     4  10  22  34  50  79 115 146 176 218 271 318
#     4  10  21  36  56  81 109 143 181 222 269 320
#     4  10  18  32  51  75 104 135 176 222 269 325
#     4  11  22  36  54  82 116 146 180 222 267 320
#     4  10  19  35  57  79 106 142 182 221 267 321
#     4   9  18  31  50  74  99 133 176 221 268 320
#     4   9  19  35  52  71  99 137 180 223 266 318
#
# _framework density 18.518519000000001
#
# number of rings (size 3 to 8) (size 9 to 14) (size 15 to 20)
#    0.000    2.167    1.667    1.500    1.167    3.000 
#    0.000    0.417    0.000    3.000    0.000    3.500 
#    0.000    0.000    0.000    0.000    0.000    0.000 
#
# Total GULP energy -534926.461018 kJ/mol
# GULP energy per Si atom -5572.150636 kJ/mol
# Density = 1.847637 g / cm^3
# Si number density = 18.518519 Si / 1000 Ang^3
#
#
#
# Elastic Constant Matrix: (Units=GPa)
#
#
# Indices 1 2 3 4 5 6 
#
# 1 -146.0238 168.9405 -0.3663 0.0000 0.0000 0.0000
# 2 168.9405 -146.0238 -0.3663 0.0000 0.0000 0.0000
# 3 -0.3663 -0.3663 5.6935 0.0000 0.0000 0.0000
# 4 0.0000 0.0000 0.0000 23.3187 0.0000 0.0000
# 5 0.0000 0.0000 0.0000 0.0000 23.3187 0.0000
# 6 0.0000 0.0000 0.0000 0.0000 0.0000 19.0350
#
#
#
# Elastic Compliance Matrix: (Units=1/GPa)
#
#
# Indices 1 2 3 4 5 6 
#
# 1 0.020276 0.023451 0.002813 0.000000 0.000000 0.000000
# 2 0.023451 0.020276 0.002813 0.000000 0.000000 0.000000
# 3 0.002813 0.002813 0.176000 0.000000 0.000000 0.000000
# 4 0.000000 0.000000 0.000000 0.042884 0.000000 0.000000
# 5 0.000000 0.000000 0.000000 0.000000 0.042884 0.000000
# 6 0.000000 0.000000 0.000000 0.000000 0.000000 0.052535
#
#
# Mechanical properties :
#
#
# Convention : Reuss Voigt Hill
#
# Bulk Modulus (GPa) = 3.64029 5.56243 4.60136
# Shear Modulus (GPa) = 12.87767 -17.16966 -2.14600
#
# Velocity S-wave (km/s) = 2.63989 -3.04824 -1.07766
# Velocity P-wave (km/s) = 3.35590 3.06248 0.97039
#
# Compressibility (1/GPa) = 0.27470360
#
# Stress axis : x y z
#
# Youngs Moduli (GPa) = 49.32026 49.32026 5.68183
#
# Poissons Ratio (x) = -1.15659 -0.01598
# Poissons Ratio (y) = -1.15659 -0.01598
# Poissons Ratio (z) = -0.13873 -0.13873
#
# Static dielectric constant tensor:
#      x y z
#    x 1.670050 0.000000 0.000000 
#    y 0.000000 1.670050 0.000000 
#    z 0.000000 0.000000 1.629880 
# 
# From -- ./inp_files/2065.got.cif
#   From: 2010.05.17/outbox.ucp.g08.bks.cvg/sg136_2_cif.got.tgz:2065.got - 2010.06.11 11:40:42.
