data_PCOD9569421
_publ_section_title
;
Structure prediction by ZEFSAII (Michael W. Deem and Ramdas Pophale) SiO2 
 PCOD9569421
Probable space group: P 42/M N M
;
_chemical_formula_sum "Si O2"
_cell_formula_units_Z 88
_cell_length_a 17.683285
_cell_length_b 17.683285
_cell_length_c 14.062041
_cell_angle_alpha 90.000000
_cell_angle_beta 90.000000
_cell_angle_gamma 90.000000
_cell_volume 4397.180089
_symmetry_space_group_name_H-M "P 42/M N M"
_symmetry_group_IT_number 136
_symmetry_cell_setting 'tetragonal'
loop_
_space_group_symop_operation_xyz
x,y,z
1/2-y,1/2+x,1/2+z
-x,-y,z
1/2+y,1/2-x,1/2+z
1/2+x,1/2-y,1/2-z
1/2-x,1/2+y,1/2-z
y,x,-z
-y,-x,-z
-x,-y,-z
1/2+y,1/2-x,1/2-z
x,y,-z
1/2-y,1/2+x,1/2-z
1/2-x,1/2+y,1/2+z
1/2+x,1/2-y,1/2+z
-y,-x,z
y,x,z
loop_
_atom_site_type_symbol
_atom_site_label
_atom_site_fract_x
_atom_site_fract_y
_atom_site_fract_z
Si Si1 0.147954 0.619380 0.385910
Si Si2 0.297793 0.702208 0.894074
Si Si3 0.259642 0.740359 0.611133
Si Si4 0.617935 0.816636 0.610218
Si Si5 0.005481 0.239897 0.779949
Si Si6 0.128794 0.128794 0.208672
Si Si7 0.346831 0.019824 0.386772
O O1 0.157519 0.614722 0.500000
O O2 0.183224 0.700449 0.352735
O O3 0.199114 0.557050 0.336646
O O4 0.059455 0.612531 0.366253
O O5 0.208187 0.690311 0.886027
O O6 0.339379 0.660622 0.808786
O O7 0.322038 0.677963 0.000000
O O8 0.247368 0.752633 0.500000
O O9 0.323611 0.676390 0.630281
O O10 0.593968 0.806596 0.500000
O O11 0.575943 0.756545 0.675972
O O12 0.606366 0.904725 0.638571
O O13 0.042958 0.158023 0.796123
O O14 0.014103 0.268867 0.672016
O O15 0.332592 0.024318 0.500000
#
# Coordination Sequence:
#
# PCOD9569421 Si02
#       7
#    16   8   8  16  16   8  16
#     4   9  18  32  49  72 104 138 175 213 259 314
#     4  10  20  38  58  79 106 141 186 230 268 321
#     4   8  16  30  48  70 100 137 173 214 255 303
#     4  10  21  36  55  77 106 142 183 225 276 329
#     4  11  20  33  52  77 104 140 176 222 268 324
#     4  10  20  32  54  77 104 134 180 220 274 315
#     4  10  20  32  48  74 107 143 178 216 264 325
#
# _framework density 20.012826
#
# number of rings (size 3 to 8) (size 9 to 14) (size 15 to 20)
#    0.000    2.182    1.818    1.636    2.545    1.455 
#    0.000    4.545    0.000    0.545    0.000    1.909 
#    0.000    0.727    0.000   19.364    0.000    0.000 
#
# Total GULP energy -490728.582822 kJ/mol
# GULP energy per Si atom -5576.461168 kJ/mol
# Density = 1.996728 g / cm^3
# Si number density = 20.012826 Si / 1000 Ang^3
#
#
#
# Elastic Constant Matrix: (Units=GPa)
#
#
# Indices 1 2 3 4 5 6 
#
# 1 20.6447 8.1502 1.2740 0.0000 0.0000 0.0000
# 2 8.1502 20.6451 1.2735 0.0000 0.0000 0.0000
# 3 1.2740 1.2735 59.1765 0.0000 0.0000 0.0000
# 4 0.0000 0.0000 0.0000 18.6532 0.0000 0.0000
# 5 0.0000 0.0000 0.0000 0.0000 18.6532 0.0000
# 6 0.0000 0.0000 0.0000 0.0000 0.0000 21.6284
#
#
#
# Elastic Compliance Matrix: (Units=1/GPa)
#
#
# Indices 1 2 3 4 5 6 
#
# 1 0.057415 -0.022620 -0.000749 0.000000 0.000000 0.000000
# 2 -0.022620 0.057413 -0.000749 0.000000 0.000000 0.000000
# 3 -0.000749 -0.000749 0.016931 0.000000 0.000000 0.000000
# 4 0.000000 0.000000 0.000000 0.053610 0.000000 0.000000
# 5 0.000000 0.000000 0.000000 0.000000 0.053610 0.000000
# 6 0.000000 0.000000 0.000000 0.000000 0.000000 0.046236
#
#
# Mechanical properties :
#
#
# Convention : Reuss Voigt Hill
#
# Bulk Modulus (GPa) = 11.97261 13.54018 12.75640
# Shear Modulus (GPa) = 13.83926 17.77153 15.80540
#
# Velocity S-wave (km/s) = 2.63253 2.98318 2.81332
# Velocity P-wave (km/s) = 3.90330 4.31813 4.11594
#
# Compressibility (1/GPa) = 0.08352395
#
# Stress axis : x y z
#
# Youngs Moduli (GPa) = 17.41714 17.41754 59.06380
#
# Poissons Ratio (x) = 0.39398 0.04426
# Poissons Ratio (y) = 0.39397 0.04422
# Poissons Ratio (z) = 0.01305 0.01304
#
# Static dielectric constant tensor:
#      x y z
#    x 1.745940 0.000000 0.000000 
#    y 0.000000 1.745940 0.000000 
#    z 0.000000 0.000000 1.762390 
# 
# From -- ./inp_files/5103.got.cif
#   From: 2010.05.17/outbox.cif.g08.bks.cpg/sg136_3_cif.got.tgz:5103.got - 2010.05.20 12:54:53.
