data_PCOD9569051
_publ_section_title
;
Structure prediction by ZEFSAII (Michael W. Deem and Ramdas Pophale) SiO2 
 PCOD9569051
Probable space group: P 42/M B C
;
_chemical_formula_sum "Si O2"
_cell_formula_units_Z 48
_cell_length_a 9.027630
_cell_length_b 9.027630
_cell_length_c 22.815102
_cell_angle_alpha 90.000000
_cell_angle_beta 90.000000
_cell_angle_gamma 90.000000
_cell_volume 1859.387542
_symmetry_space_group_name_H-M "P 42/M B C"
_symmetry_group_IT_number 135
_symmetry_cell_setting 'tetragonal'
loop_
_space_group_symop_operation_xyz
x,y,z
-y,x,1/2+z
-x,-y,z
y,-x,1/2+z
1/2+x,1/2-y,-z
1/2-x,1/2+y,-z
1/2+y,1/2+x,1/2-z
1/2-y,1/2-x,1/2-z
-x,-y,-z
y,-x,1/2-z
x,y,-z
-y,x,1/2-z
1/2-x,1/2+y,z
1/2+x,1/2-y,z
1/2-y,1/2-x,1/2+z
1/2+y,1/2+x,1/2+z
loop_
_atom_site_type_symbol
_atom_site_label
_atom_site_fract_x
_atom_site_fract_y
_atom_site_fract_z
Si Si1 0.166642 0.055100 0.435818
Si Si2 0.132188 0.394151 0.107085
Si Si3 0.730014 0.545987 0.227839
O O1 0.230928 0.015422 0.500000
O O2 0.164391 0.231739 0.431161
O O3 0.249189 0.969602 0.383290
O O4 0.000000 0.000000 0.435257
O O5 0.223753 0.470463 0.159831
O O6 0.000000 0.500000 0.084714
O O7 0.881646 0.618355 0.250000
O O8 0.666772 0.398266 0.257651
#
# Coordination Sequence:
#
# PCOD9569051 Si02
#       3
#    16  16  16
#     4  11  26  47  75 112 154 199 258 326 397 482
#     4  12  27  46  77 110 152 205 259 323 397 480
#     4  11  28  47  72 107 149 198 257 321 391 469
#
# _framework density 25.814948999999999
#
# number of rings (size 3 to 8) (size 9 to 14) (size 15 to 20)
#    0.000    0.667    0.000    5.000   18.667    5.333 
#    0.000    0.000    0.000    0.000    0.000    0.000 
#    0.000    0.000    0.000    0.000    0.000    0.000 
#
# Total GULP energy -267891.036140 kJ/mol
# GULP energy per Si atom -5581.063253 kJ/mol
# Density = 2.575619 g / cm^3
# Si number density = 25.814949 Si / 1000 Ang^3
#
#
#
# Elastic Constant Matrix: (Units=GPa)
#
#
# Indices 1 2 3 4 5 6 
#
# 1 157.2969 81.1069 27.0493 0.0000 0.0000 0.0000
# 2 81.1069 157.2996 27.0483 0.0000 0.0000 0.0000
# 3 27.0493 27.0483 57.2577 0.0000 0.0000 0.0000
# 4 0.0000 0.0000 0.0000 30.0291 0.0000 0.0000
# 5 0.0000 0.0000 0.0000 0.0000 30.0289 0.0000
# 6 0.0000 0.0000 0.0000 0.0000 0.0000 76.2754
#
#
#
# Elastic Compliance Matrix: (Units=1/GPa)
#
#
# Indices 1 2 3 4 5 6 
#
# 1 0.008912 -0.004213 -0.002220 0.000000 0.000000 0.000000
# 2 -0.004213 0.008911 -0.002219 0.000000 0.000000 0.000000
# 3 -0.002220 -0.002219 0.019562 0.000000 0.000000 0.000000
# 4 0.000000 0.000000 0.000000 0.033301 0.000000 0.000000
# 5 0.000000 0.000000 0.000000 0.000000 0.033301 0.000000
# 6 0.000000 0.000000 0.000000 0.000000 0.000000 0.013110
#
#
# Mechanical properties :
#
#
# Convention : Reuss Voigt Hill
#
# Bulk Modulus (GPa) = 49.79974 71.36257 60.58116
# Shear Modulus (GPa) = 35.43702 43.04333 39.24018
#
# Velocity S-wave (km/s) = 3.70906 4.08779 3.90302
# Velocity P-wave (km/s) = 6.13806 7.06993 6.62041
#
# Compressibility (1/GPa) = 0.02008042
#
# Stress axis : x y z
#
# Youngs Moduli (GPa) = 112.21307 112.21601 51.11998
#
# Poissons Ratio (x) = 0.47280 0.11347
# Poissons Ratio (y) = 0.47279 0.11345
# Poissons Ratio (z) = 0.24907 0.24904
#
# Static dielectric constant tensor:
#      x y z
#    x 1.997200 0.000000 0.000000 
#    y 0.000000 1.997230 0.000000 
#    z 0.000000 0.000000 2.231910 
# 
# From -- ./inp_files/6574.got.cif
#   From: 2010.05.17/outbox.cif.g08.bks.cpg/sg135_4_cif.got.tgz:6574.got - 2010.05.20 12:50:20.
