data_PCOD9569438
_publ_section_title
;
Structure prediction by ZEFSAII (Michael W. Deem and Ramdas Pophale) SiO2 
 PCOD9569438
Probable space group: P 42/M N M
;
_chemical_formula_sum "Si O2"
_cell_formula_units_Z 96
_cell_length_a 18.090862
_cell_length_b 18.090862
_cell_length_c 15.187788
_cell_angle_alpha 90.000000
_cell_angle_beta 90.000000
_cell_angle_gamma 90.000000
_cell_volume 4970.648441
_symmetry_space_group_name_H-M "P 42/M N M"
_symmetry_group_IT_number 136
_symmetry_cell_setting 'tetragonal'
loop_
_space_group_symop_operation_xyz
x,y,z
1/2-y,1/2+x,1/2+z
-x,-y,z
1/2+y,1/2-x,1/2+z
1/2+x,1/2-y,1/2-z
1/2-x,1/2+y,1/2-z
y,x,-z
-y,-x,-z
-x,-y,-z
1/2+y,1/2-x,1/2-z
x,y,-z
1/2-y,1/2+x,1/2-z
1/2-x,1/2+y,1/2+z
1/2+x,1/2-y,1/2+z
-y,-x,z
y,x,z
loop_
_atom_site_type_symbol
_atom_site_label
_atom_site_fract_x
_atom_site_fract_y
_atom_site_fract_z
Si Si1 0.020329 0.351558 0.157233
Si Si2 0.275713 0.387074 0.104036
Si Si3 0.972832 0.372760 0.354496
Si Si4 0.539937 0.343784 0.101111
Si Si5 0.136377 0.643042 0.904405
Si Si6 0.632575 0.248716 0.757346
O O1 0.990142 0.380101 0.251314
O O2 0.947310 0.328245 0.106021
O O3 0.061093 0.421094 0.113613
O O4 0.080970 0.289664 0.183793
O O5 0.312529 0.312529 0.141183
O O6 0.200472 0.422623 0.138164
O O7 0.334757 0.453303 0.113929
O O8 0.263871 0.375423 0.000000
O O9 0.052834 0.366536 0.399090
O O10 0.575198 0.424803 0.108271
O O11 0.580805 0.293719 0.173536
O O12 0.555374 0.318108 0.000000
O O13 0.185213 0.666234 0.820643
O O14 0.166598 0.664464 0.000000
O O15 0.694532 0.305469 0.724437
#
# Coordination Sequence:
#
# PCOD9569438 Si02
#       6
#    16  16  16  16  16  16
#     4  11  21  34  53  78 108 141 187 228 274 336
#     4  10  20  33  50  74 108 148 185 221 267 332
#     4  11  20  34  52  76 111 144 180 228 274 324
#     4   9  16  28  48  74 105 140 180 227 276 327
#     4  11  22  35  57  84 110 143 184 234 282 331
#     4  10  20  34  56  81 111 149 183 231 288 340
#
# _framework density 19.313375000000001
#
# number of rings (size 3 to 8) (size 9 to 14) (size 15 to 20)
#    0.000    1.667    6.667    1.500    0.000    4.000 
#    0.000    1.667    0.000    0.500    0.000    0.000 
#    0.000    0.000    0.000    1.500    0.000    0.000 
#
# Total GULP energy -535353.788201 kJ/mol
# GULP energy per Si atom -5576.601960 kJ/mol
# Density = 1.926942 g / cm^3
# Si number density = 19.313375 Si / 1000 Ang^3
#
#
#
# Elastic Constant Matrix: (Units=GPa)
#
#
# Indices 1 2 3 4 5 6 
#
# 1 84.5465 27.6551 5.1006 0.0000 0.0000 0.0000
# 2 27.6551 84.5465 5.1006 0.0000 0.0000 0.0000
# 3 5.1006 5.1006 35.5935 0.0000 0.0000 0.0000
# 4 0.0000 0.0000 0.0000 7.8714 0.0000 0.0000
# 5 0.0000 0.0000 0.0000 0.0000 7.8714 0.0000
# 6 0.0000 0.0000 0.0000 0.0000 0.0000 45.5440
#
#
#
# Elastic Compliance Matrix: (Units=1/GPa)
#
#
# Indices 1 2 3 4 5 6 
#
# 1 0.013304 -0.004274 -0.001294 0.000000 0.000000 0.000000
# 2 -0.004274 0.013304 -0.001294 0.000000 0.000000 0.000000
# 3 -0.001294 -0.001294 0.028466 0.000000 0.000000 0.000000
# 4 0.000000 0.000000 0.000000 0.127042 0.000000 0.000000
# 5 0.000000 0.000000 0.000000 0.000000 0.127042 0.000000
# 6 0.000000 0.000000 0.000000 0.000000 0.000000 0.021957
#
#
# Mechanical properties :
#
#
# Convention : Reuss Voigt Hill
#
# Bulk Modulus (GPa) = 24.18372 31.15544 27.66958
# Shear Modulus (GPa) = 13.94231 23.37939 18.66085
#
# Velocity S-wave (km/s) = 2.68973 3.48304 3.11177
# Velocity P-wave (km/s) = 4.71117 5.68700 5.22193
#
# Compressibility (1/GPa) = 0.04135013
#
# Stress axis : x y z
#
# Youngs Moduli (GPa) = 75.16674 75.16674 35.12975
#
# Poissons Ratio (x) = 0.32123 0.04546
# Poissons Ratio (y) = 0.32123 0.04546
# Poissons Ratio (z) = 0.09727 0.09727
#
# Static dielectric constant tensor:
#      x y z
#    x 1.723730 0.000000 0.000000 
#    y 0.000000 1.723730 0.000000 
#    z 0.000000 0.000000 1.680340 
# 
# From -- ./inp_files/6307.got.cif
#   From: 2010.05.17/outbox.cif.g08.bks.cpg/sg136_4_cif.got.tgz:6307.got - 2010.05.20 12:54:53.
