data_PCOD9569186
_publ_section_title
;
Structure prediction by ZEFSAII (Michael W. Deem and Ramdas Pophale) SiO2 
 PCOD9569186
Probable space group: P 42/M N M
;
_chemical_formula_sum "Si O2"
_cell_formula_units_Z 72
_cell_length_a 14.306913
_cell_length_b 14.306913
_cell_length_c 14.241905
_cell_angle_alpha 90.000000
_cell_angle_beta 90.000000
_cell_angle_gamma 90.000000
_cell_volume 2915.143627
_symmetry_space_group_name_H-M "P 42/M N M"
_symmetry_group_IT_number 136
_symmetry_cell_setting 'tetragonal'
loop_
_space_group_symop_operation_xyz
x,y,z
1/2-y,1/2+x,1/2+z
-x,-y,z
1/2+y,1/2-x,1/2+z
1/2+x,1/2-y,1/2-z
1/2-x,1/2+y,1/2-z
y,x,-z
-y,-x,-z
-x,-y,-z
1/2+y,1/2-x,1/2-z
x,y,-z
1/2-y,1/2+x,1/2-z
1/2-x,1/2+y,1/2+z
1/2+x,1/2-y,1/2+z
-y,-x,z
y,x,z
loop_
_atom_site_type_symbol
_atom_site_label
_atom_site_fract_x
_atom_site_fract_y
_atom_site_fract_z
Si Si1 0.093597 0.619517 0.112541
Si Si2 0.615227 0.384774 0.396257
Si Si3 0.106583 0.337016 0.889523
Si Si4 0.096662 0.096662 0.305609
Si Si5 0.754955 0.031091 0.612371
Si Si6 0.755079 0.755079 0.613161
O O1 0.170297 0.541410 0.136094
O O2 0.148551 0.716224 0.130125
O O3 0.988716 0.619188 0.151584
O O4 0.082876 0.611288 0.000000
O O5 0.584840 0.415161 0.500000
O O6 0.726340 0.401050 0.387320
O O7 0.575208 0.424793 0.301670
O O8 0.206124 0.373614 0.853389
O O9 0.108488 0.363337 0.000000
O O10 0.006773 0.148391 0.347750
O O11 0.176900 0.176900 0.327121
O O12 0.768613 0.032408 0.500000
O O13 0.773968 0.773968 0.500000
#
# Coordination Sequence:
#
# PCOD9569186 Si02
#       6
#    16   8  16   8  16   8
#     4   8  13  24  47  78 109 137 166 206 264 322
#     4  10  22  38  50  66 103 154 193 214 253 325
#     4   9  17  31  51  72 101 143 182 217 261 325
#     4  10  18  32  48  75 103 136 174 221 277 333
#     4   9  16  29  53  82 107 129 163 222 289 337
#     4   8  14  26  48  79 112 140 167 212 273 327
#
# _framework density 24.698611
#
# number of rings (size 3 to 8) (size 9 to 14) (size 15 to 20)
#    0.000    3.111    0.000    3.000    0.000    2.667 
#    8.000    0.000    0.000    1.333    0.000   10.111 
#    0.000    0.000    0.000    0.000    0.000    0.000 
#
# Total GULP energy -401760.971150 kJ/mol
# GULP energy per Si atom -5580.013488 kJ/mol
# Density = 2.464240 g / cm^3
# Si number density = 24.698611 Si / 1000 Ang^3
#
#
#
# Elastic Constant Matrix: (Units=GPa)
#
#
# Indices 1 2 3 4 5 6 
#
# 1 18.2613 110.3943 22.6981 0.0000 0.0000 0.0000
# 2 110.3943 18.2604 22.6979 0.0000 0.0000 0.0000
# 3 22.6981 22.6979 135.3082 0.0000 0.0000 0.0000
# 4 0.0000 0.0000 0.0000 -3.4852 0.0000 0.0000
# 5 0.0000 0.0000 0.0000 0.0000 -3.4852 0.0000
# 6 0.0000 0.0000 0.0000 0.0000 0.0000 36.6583
#
#
#
# Elastic Compliance Matrix: (Units=1/GPa)
#
#
# Indices 1 2 3 4 5 6 
#
# 1 -0.001296 0.009558 -0.001386 0.000000 0.000000 0.000000
# 2 0.009558 -0.001296 -0.001386 0.000000 0.000000 0.000000
# 3 -0.001386 -0.001386 0.007856 0.000000 0.000000 0.000000
# 4 0.000000 0.000000 0.000000 -0.286928 0.000000 0.000000
# 5 0.000000 0.000000 0.000000 0.000000 -0.286929 0.000000
# 6 0.000000 0.000000 0.000000 0.000000 0.000000 0.027279
#
#
# Mechanical properties :
#
#
# Convention : Reuss Voigt Hill
#
# Bulk Modulus (GPa) = 53.09168 53.71228 53.40198
# Shear Modulus (GPa) = -9.11397 7.00690 -1.05354
#
# Velocity S-wave (km/s) = -1.92304 1.68616 -0.65382
# Velocity P-wave (km/s) = 4.07575 5.05817 4.59330
#
# Compressibility (1/GPa) = 0.01883534
#
# Stress axis : x y z
#
# Youngs Moduli (GPa) = -771.60025 -771.55458 127.29925
#
# Poissons Ratio (x) = 7.37435 0.17643
# Poissons Ratio (y) = 7.37479 0.17642
# Poissons Ratio (z) = -1.06937 -1.06930
#
# Static dielectric constant tensor:
#      x y z
#    x 1.958520 0.000000 0.000000 
#    y 0.000000 1.958520 0.000000 
#    z 0.000000 0.000000 1.992150 
# 
# From -- ./inp_files/6136.got.cif
#   From: 2010.05.17/outbox.cif.g08.bks.cpg/sg136_4_cif.got.tgz:6136.got - 2010.05.20 12:54:53.
