data_PCOD9569603
_publ_section_title
;
Structure prediction by ZEFSAII (Michael W. Deem and Ramdas Pophale) SiO2 
 PCOD9569603
Probable space group: P 42/M N M
;
_chemical_formula_sum "Si O2"
_cell_formula_units_Z 96
_cell_length_a 24.242929
_cell_length_b 24.242929
_cell_length_c 7.884253
_cell_angle_alpha 90.000000
_cell_angle_beta 90.000000
_cell_angle_gamma 90.000000
_cell_volume 4633.730071
_symmetry_space_group_name_H-M "P 42/M N M"
_symmetry_group_IT_number 136
_symmetry_cell_setting 'tetragonal'
loop_
_space_group_symop_operation_xyz
x,y,z
1/2-y,1/2+x,1/2+z
-x,-y,z
1/2+y,1/2-x,1/2+z
1/2+x,1/2-y,1/2-z
1/2-x,1/2+y,1/2-z
y,x,-z
-y,-x,-z
-x,-y,-z
1/2+y,1/2-x,1/2-z
x,y,-z
1/2-y,1/2+x,1/2-z
1/2-x,1/2+y,1/2+z
1/2+x,1/2-y,1/2+z
-y,-x,z
y,x,z
loop_
_atom_site_type_symbol
_atom_site_label
_atom_site_fract_x
_atom_site_fract_y
_atom_site_fract_z
Si Si1 0.363744 0.544919 0.798040
Si Si2 0.039771 0.342221 0.197501
Si Si3 0.135521 0.776230 0.000000
Si Si4 0.176377 0.704432 0.314428
Si Si5 0.614247 0.256815 0.195568
Si Si6 0.639528 0.544400 0.500000
Si Si7 0.426497 0.121700 0.808204
O O1 0.419838 0.580163 0.784804
O O2 0.313410 0.586037 0.746573
O O3 0.364245 0.493830 0.668589
O O4 0.355780 0.530707 0.000000
O O5 0.067170 0.290568 0.289974
O O6 0.065520 0.400173 0.261835
O O7 0.974739 0.348070 0.210790
O O8 0.055480 0.336783 0.000000
O O9 0.158304 0.743946 0.836793
O O10 0.073021 0.799042 0.000000
O O11 0.166970 0.833031 0.000000
O O12 0.178395 0.730853 0.500000
O O13 0.231521 0.668349 0.284277
O O14 0.126806 0.660424 0.314385
O O15 0.629711 0.264410 0.000000
O O16 0.588341 0.588341 0.500000
O O17 0.446787 0.112724 0.000000
#
# Coordination Sequence:
#
# PCOD9569603 Si02
#       7
#    16  16   8  16  16   8  16
#     4  10  24  44  69 104 137 172 220 280 353 416
#     4  10  21  33  52  80 114 161 214 268 324 379
#     4  11  26  45  66  95 130 176 220 258 323 390
#     4  10  22  40  62  93 131 172 217 267 322 385
#     4  10  20  37  62  94 132 170 214 271 331 397
#     4  11  27  48  71 102 138 179 232 282 329 412
#     4   9  20  35  50  77 113 155 209 261 317 376
#
# _framework density 20.717649999999999
#
# number of rings (size 3 to 8) (size 9 to 14) (size 15 to 20)
#    0.000    2.000    0.833    2.250    5.833    4.333 
#    0.000    4.167    0.000    0.000    0.000    0.000 
#    0.000    0.000    0.000    0.000    0.000    0.000 
#
# Total GULP energy -535351.485278 kJ/mol
# GULP energy per Si atom -5576.577972 kJ/mol
# Density = 2.067050 g / cm^3
# Si number density = 20.717650 Si / 1000 Ang^3
#
#
#
# Elastic Constant Matrix: (Units=GPa)
#
#
# Indices 1 2 3 4 5 6 
#
# 1 100.9638 23.4992 47.2646 0.0000 0.0000 0.0000
# 2 23.4992 100.9667 47.2662 0.0000 0.0000 0.0000
# 3 47.2646 47.2662 120.9222 0.0000 0.0000 0.0000
# 4 0.0000 0.0000 0.0000 9.5743 0.0000 0.0000
# 5 0.0000 0.0000 0.0000 0.0000 9.4402 0.0000
# 6 0.0000 0.0000 0.0000 0.0000 0.0000 27.3083
#
#
#
# Elastic Compliance Matrix: (Units=1/GPa)
#
#
# Indices 1 2 3 4 5 6 
#
# 1 0.012168 -0.000741 -0.004466 0.000000 0.000000 0.000000
# 2 -0.000741 0.012168 -0.004466 0.000000 0.000000 0.000000
# 3 -0.004466 -0.004466 0.011761 0.000000 0.000000 0.000000
# 4 0.000000 0.000000 0.000000 0.104446 0.000000 0.000000
# 5 0.000000 0.000000 0.000000 0.000000 0.105930 0.000000
# 6 0.000000 0.000000 0.000000 0.000000 0.000000 0.036619
#
#
# Mechanical properties :
#
#
# Convention : Reuss Voigt Hill
#
# Bulk Modulus (GPa) = 59.70461 62.10141 60.90301
# Shear Modulus (GPa) = 16.23261 22.91943 19.57602
#
# Velocity S-wave (km/s) = 2.80217 3.32968 3.07725
# Velocity P-wave (km/s) = 6.27299 6.69497 6.48741
#
# Compressibility (1/GPa) = 0.01674912
#
# Stress axis : x y z
#
# Youngs Moduli (GPa) = 82.18364 82.18519 85.02415
#
# Poissons Ratio (x) = 0.06091 0.37975
# Poissons Ratio (y) = 0.06091 0.37975
# Poissons Ratio (z) = 0.36706 0.36707
#
# Static dielectric constant tensor:
#      x y z
#    x 1.775360 0.000000 0.000000 
#    y 0.000000 1.775360 0.000000 
#    z 0.000000 0.000000 1.674860 
# 
# From -- ./inp_files/2029.got.cif
#   From: 2010.05.17/outbox.cif.g08.bks.cpg/sg136_2_cif.got.tgz:2029.got - 2010.05.20 12:54:53.
