data_PCOD9569570
_publ_section_title
;
Structure prediction by ZEFSAII (Michael W. Deem and Ramdas Pophale) SiO2 
 PCOD9569570
Probable space group: P 42/M N M
;
_chemical_formula_sum "Si O2"
_cell_formula_units_Z 92
_cell_length_a 23.612932
_cell_length_b 23.612932
_cell_length_c 8.316606
_cell_angle_alpha 90.000000
_cell_angle_beta 90.000000
_cell_angle_gamma 90.000000
_cell_volume 4637.094645
_symmetry_space_group_name_H-M "P 42/M N M"
_symmetry_group_IT_number 136
_symmetry_cell_setting 'tetragonal'
loop_
_space_group_symop_operation_xyz
x,y,z
1/2-y,1/2+x,1/2+z
-x,-y,z
1/2+y,1/2-x,1/2+z
1/2+x,1/2-y,1/2-z
1/2-x,1/2+y,1/2-z
y,x,-z
-y,-x,-z
-x,-y,-z
1/2+y,1/2-x,1/2-z
x,y,-z
1/2-y,1/2+x,1/2-z
1/2-x,1/2+y,1/2+z
1/2+x,1/2-y,1/2+z
-y,-x,z
y,x,z
loop_
_atom_site_type_symbol
_atom_site_label
_atom_site_fract_x
_atom_site_fract_y
_atom_site_fract_z
Si Si1 0.386385 0.386385 0.833706
Si Si2 0.543899 0.717520 0.500000
Si Si3 0.886254 0.113747 0.000000
Si Si4 0.148475 0.339553 0.809929
Si Si5 0.218096 0.124209 0.320703
Si Si6 0.928588 0.836598 0.000000
Si Si7 0.916995 0.246485 0.677271
Si Si8 0.564689 0.059797 0.689535
O O1 0.409716 0.409716 0.666884
O O2 0.398365 0.319159 0.832572
O O3 0.410073 0.410073 0.000000
O O4 0.601714 0.680934 0.500000
O O5 0.495752 0.669774 0.500000
O O6 0.542932 0.751609 0.666656
O O7 0.137177 0.283537 0.710024
O O8 0.211794 0.364250 0.796222
O O9 0.106351 0.390054 0.760758
O O10 0.138639 0.327136 0.000000
O O11 0.209734 0.098214 0.500000
O O12 0.182180 0.182180 0.319666
O O13 0.194648 0.090749 0.164993
O O14 0.897145 0.897145 0.000000
O O15 0.941320 0.261466 0.500000
O O16 0.572843 0.050003 0.500000
O O17 0.499382 0.075527 0.721512
#
# Coordination Sequence:
#
# PCOD9569570 Si02
#       8
#     8   8   4  16  16   8  16  16
#     4   8  14  28  48  71 109 155 172 204 274 336
#     4  10  20  36  59  84 113 156 188 236 295 339
#     4   8  16  32  51  80 116 134 184 238 272 336
#     4  10  21  36  55  84 114 144 186 236 285 337
#     4  10  22  39  59  86 117 153 191 233 285 341
#     4  10  22  42  61  82 117 157 200 237 278 339
#     4   9  19  33  50  83 118 145 185 226 281 344
#     4  10  21  38  56  75 102 142 188 235 288 332
#
# _framework density 19.840008999999998
#
# number of rings (size 3 to 8) (size 9 to 14) (size 15 to 20)
#    0.000    2.435    0.870    1.043    2.435    3.478 
#    0.000    1.957    0.000    0.000    0.000    0.000 
#    0.000    9.739    0.000    0.000    0.000    0.000 
#
# Total GULP energy -512394.444388 kJ/mol
# GULP energy per Si atom -5569.504830 kJ/mol
# Density = 1.979485 g / cm^3
# Si number density = 19.840009 Si / 1000 Ang^3
#
#
#
# Elastic Constant Matrix: (Units=GPa)
#
#
# Indices 1 2 3 4 5 6 
#
# 1 38.1371 11.9951 14.5646 0.0000 0.0000 0.0000
# 2 11.9951 38.1394 14.5646 0.0000 0.0000 0.0000
# 3 14.5646 14.5646 149.8215 0.0000 0.0000 0.0000
# 4 0.0000 0.0000 0.0000 8.9975 0.0000 0.0000
# 5 0.0000 0.0000 0.0000 0.0000 8.9975 0.0000
# 6 0.0000 0.0000 0.0000 0.0000 0.0000 7.2263
#
#
#
# Elastic Compliance Matrix: (Units=1/GPa)
#
#
# Indices 1 2 3 4 5 6 
#
# 1 0.029697 -0.008555 -0.002055 0.000000 0.000000 0.000000
# 2 -0.008555 0.029695 -0.002055 0.000000 0.000000 0.000000
# 3 -0.002055 -0.002055 0.007074 0.000000 0.000000 0.000000
# 4 0.000000 0.000000 0.000000 0.111142 0.000000 0.000000
# 5 0.000000 0.000000 0.000000 0.000000 0.111143 0.000000
# 6 0.000000 0.000000 0.000000 0.000000 0.000000 0.138384
#
#
# Mechanical properties :
#
#
# Convention : Reuss Voigt Hill
#
# Bulk Modulus (GPa) = 24.30999 34.26072 29.28536
# Shear Modulus (GPa) = 10.72554 17.37583 14.05069
#
# Velocity S-wave (km/s) = 2.32761 2.96260 2.66409
# Velocity P-wave (km/s) = 4.41625 5.38597 4.92503
#
# Compressibility (1/GPa) = 0.04113536
#
# Stress axis : x y z
#
# Youngs Moduli (GPa) = 33.67362 33.67569 141.35893
#
# Poissons Ratio (x) = 0.28810 0.29053
# Poissons Ratio (y) = 0.28808 0.29051
# Poissons Ratio (z) = 0.06921 0.06921
#
# Static dielectric constant tensor:
#      x y z
#    x 1.676450 0.000000 0.000000 
#    y 0.000000 1.676440 0.000000 
#    z 0.000000 0.000000 1.810100 
# 
# From -- ./inp_files/2108.got.cif
#   From: 2010.05.17/outbox.cif.g08.bks.cpg/sg136_2_cif.got.tgz:2108.got - 2010.05.20 12:54:53.
