data_PCOD9569660
_publ_section_title
;
Structure prediction by ZEFSAII (Michael W. Deem and Ramdas Pophale) SiO2 
 PCOD9569660
Probable space group: P 42/M N M
;
_chemical_formula_sum "Si O2"
_cell_formula_units_Z 64
_cell_length_a 19.766834
_cell_length_b 19.766834
_cell_length_c 7.390628
_cell_angle_alpha 90.000000
_cell_angle_beta 90.000000
_cell_angle_gamma 90.000000
_cell_volume 2887.723275
_symmetry_space_group_name_H-M "P 42/M N M"
_symmetry_group_IT_number 136
_symmetry_cell_setting 'tetragonal'
loop_
_space_group_symop_operation_xyz
x,y,z
1/2-y,1/2+x,1/2+z
-x,-y,z
1/2+y,1/2-x,1/2+z
1/2+x,1/2-y,1/2-z
1/2-x,1/2+y,1/2-z
y,x,-z
-y,-x,-z
-x,-y,-z
1/2+y,1/2-x,1/2-z
x,y,-z
1/2-y,1/2+x,1/2-z
1/2-x,1/2+y,1/2+z
1/2+x,1/2-y,1/2+z
-y,-x,z
y,x,z
loop_
_atom_site_type_symbol
_atom_site_label
_atom_site_fract_x
_atom_site_fract_y
_atom_site_fract_z
Si Si1 0.695653 0.024847 0.217385
Si Si2 0.045029 0.846866 0.779023
Si Si3 0.374503 0.837349 0.714532
Si Si4 0.101897 0.101897 0.219788
Si Si5 0.213738 0.213738 0.779760
O O1 0.769625 0.047742 0.281294
O O2 0.643950 0.084626 0.259475
O O3 0.678997 0.949587 0.285851
O O4 0.698654 0.020198 0.000000
O O5 0.106681 0.893320 0.718436
O O6 0.973002 0.877606 0.722426
O O7 0.045503 0.847297 0.000000
O O8 0.377437 0.824712 0.500000
O O9 0.316139 0.785915 0.783659
O O10 0.157533 0.157533 0.270953
O O11 0.101701 0.101701 0.000000
O O12 0.216894 0.216894 0.000000
#
# Coordination Sequence:
#
# PCOD9569660 Si02
#       5
#    16  16  16   8   8
#     4  10  21  36  54  78 106 137 174 219 263 303
#     4   9  16  26  44  75 110 136 163 207 261 311
#     4  10  21  37  56  77 105 139 175 214 258 310
#     4   9  13  24  47  73 103 137 168 202 252 314
#     4   9  16  31  53  74 101 137 171 204 250 309
#
# _framework density 22.162790000000001
#
# number of rings (size 3 to 8) (size 9 to 14) (size 15 to 20)
#    0.000    2.500    2.500    0.375    1.750    3.000 
#    0.000    2.500    0.000    0.000    0.000    0.875 
#    0.000    2.000    0.000    0.000    0.000    0.000 
#
# Total GULP energy -357502.910793 kJ/mol
# GULP energy per Si atom -5585.982981 kJ/mol
# Density = 2.211235 g / cm^3
# Si number density = 22.162790 Si / 1000 Ang^3
#
#
#
# Elastic Constant Matrix: (Units=GPa)
#
#
# Indices 1 2 3 4 5 6 
#
# 1 89.4069 82.2220 -1.2432 0.0000 0.0000 0.0000
# 2 82.2220 89.4069 -1.2432 0.0000 0.0000 0.0000
# 3 -1.2432 -1.2432 73.9526 0.0000 0.0000 0.0000
# 4 0.0000 0.0000 0.0000 7.2552 0.0000 0.0000
# 5 0.0000 0.0000 0.0000 0.0000 7.2552 0.0000
# 6 0.0000 0.0000 0.0000 0.0000 0.0000 36.0961
#
#
#
# Elastic Compliance Matrix: (Units=1/GPa)
#
#
# Indices 1 2 3 4 5 6 
#
# 1 0.072504 -0.066676 0.000098 0.000000 0.000000 0.000000
# 2 -0.066676 0.072504 0.000098 0.000000 0.000000 0.000000
# 3 0.000098 0.000098 0.013525 0.000000 0.000000 0.000000
# 4 0.000000 0.000000 0.000000 0.137832 0.000000 0.000000
# 5 0.000000 0.000000 0.000000 0.000000 0.137832 0.000000
# 6 0.000000 0.000000 0.000000 0.000000 0.000000 0.027704
#
#
# Mechanical properties :
#
#
# Convention : Reuss Voigt Hill
#
# Bulk Modulus (GPa) = 39.10339 45.80420 42.45380
# Shear Modulus (GPa) = 8.28657 21.65671 14.97164
#
# Velocity S-wave (km/s) = 1.93574 3.12936 2.60192
# Velocity P-wave (km/s) = 4.76215 5.81113 5.31259
#
# Compressibility (1/GPa) = 0.02557323
#
# Stress axis : x y z
#
# Youngs Moduli (GPa) = 13.79230 13.79230 73.93461
#
# Poissons Ratio (x) = 0.91962 -0.00724
# Poissons Ratio (y) = 0.91962 -0.00724
# Poissons Ratio (z) = -0.00135 -0.00135
#
# Static dielectric constant tensor:
#      x y z
#    x 1.783970 0.000000 0.000000 
#    y 0.000000 1.783970 0.000000 
#    z 0.000000 0.000000 1.905070 
# 
# From -- ./inp_files/1469.got.cif
#   From: 2010.05.17/outbox.cif.g08.bks.cpg/sg136_1_cif.got.tgz:1469.got - 2010.05.20 12:54:53.
