data_PCOD9569620
_publ_section_title
;
Structure prediction by ZEFSAII (Michael W. Deem and Ramdas Pophale) SiO2 
 PCOD9569620
Probable space group: P 42/M N M
;
_chemical_formula_sum "Si O2"
_cell_formula_units_Z 78
_cell_length_a 11.465337
_cell_length_b 11.465337
_cell_length_c 30.298163
_cell_angle_alpha 90.000000
_cell_angle_beta 90.000000
_cell_angle_gamma 90.000000
_cell_volume 3982.813281
_symmetry_space_group_name_H-M "P 42/M N M"
_symmetry_group_IT_number 136
_symmetry_cell_setting 'tetragonal'
loop_
_space_group_symop_operation_xyz
x,y,z
1/2-y,1/2+x,1/2+z
-x,-y,z
1/2+y,1/2-x,1/2+z
1/2+x,1/2-y,1/2-z
1/2-x,1/2+y,1/2-z
y,x,-z
-y,-x,-z
-x,-y,-z
1/2+y,1/2-x,1/2-z
x,y,-z
1/2-y,1/2+x,1/2-z
1/2-x,1/2+y,1/2+z
1/2+x,1/2-y,1/2+z
-y,-x,z
y,x,z
loop_
_atom_site_type_symbol
_atom_site_label
_atom_site_fract_x
_atom_site_fract_y
_atom_site_fract_z
Si Si1 0.899644 0.899644 0.682208
Si Si2 0.281880 0.983665 0.000000
Si Si3 0.072731 0.270911 0.185857
Si Si4 0.795107 0.795107 0.595464
Si Si5 0.500000 0.500000 0.500000
Si Si6 0.206196 0.206196 0.500000
Si Si7 0.565242 0.757511 0.232404
Si Si8 0.980080 0.362464 0.095767
O O1 0.861192 0.861192 0.634104
O O2 0.949435 0.789066 0.708662
O O3 0.000000 0.000000 0.681175
O O4 0.331735 0.027272 0.046755
O O5 0.143688 0.999092 0.000000
O O6 0.311394 0.845651 0.000000
O O7 0.161073 0.161073 0.189876
O O8 0.127751 0.384509 0.209941
O O9 0.958500 0.253378 0.215615
O O10 0.045525 0.295769 0.135171
O O11 0.837372 0.837372 0.547070
O O12 0.822730 0.656222 0.598249
O O13 0.663138 0.663138 0.221982
O O14 0.000000 0.500000 0.102758
#
# Coordination Sequence:
#
# PCOD9569620 Si02
#       8
#     8   8  16   8   2   4  16  16
#     4  10  20  39  59  80 114 163 202 255 323 377
#     4   9  20  40  64  91 137 171 205 267 332 395
#     4  11  25  39  59  90 125 161 218 267 325 396
#     4  10  21  38  65  92 122 166 217 263 330 385
#     4  10  20  40  72 108 134 178 222 272 362 412
#     4   7  16  37  55  92 121 154 208 248 303 388
#     4  10  23  40  56  80 119 162 204 260 323 388
#     4  11  24  41  64  98 127 176 220 273 331 408
#
# _framework density 19.584144999999999
#
# number of rings (size 3 to 8) (size 9 to 14) (size 15 to 20)
#    0.000    1.846    1.026    2.154    8.615    0.000 
#    0.000    0.256    0.000    0.000    0.000    0.000 
#    0.000    0.000    0.000    0.000    0.000    0.000 
#
# Total GULP energy -434493.417469 kJ/mol
# GULP energy per Si atom -5570.428429 kJ/mol
# Density = 1.953957 g / cm^3
# Si number density = 19.584145 Si / 1000 Ang^3
#
#
#
# Elastic Constant Matrix: (Units=GPa)
#
#
# Indices 1 2 3 4 5 6 
#
# 1 35.9637 16.9928 -0.4874 0.0000 0.0000 0.0000
# 2 16.9928 35.9637 -0.4874 0.0000 0.0000 0.0000
# 3 -0.4874 -0.4874 135.7360 0.0000 0.0000 0.0000
# 4 0.0000 0.0000 0.0000 16.3075 0.0000 0.0000
# 5 0.0000 0.0000 0.0000 0.0000 16.3075 0.0000
# 6 0.0000 0.0000 0.0000 0.0000 0.0000 20.9401
#
#
#
# Elastic Compliance Matrix: (Units=1/GPa)
#
#
# Indices 1 2 3 4 5 6 
#
# 1 0.035799 -0.016914 0.000068 0.000000 0.000000 0.000000
# 2 -0.016914 0.035799 0.000068 0.000000 0.000000 0.000000
# 3 0.000068 0.000068 0.007368 0.000000 0.000000 0.000000
# 4 0.000000 0.000000 0.000000 0.061322 0.000000 0.000000
# 5 0.000000 0.000000 0.000000 0.000000 0.061322 0.000000
# 6 0.000000 0.000000 0.000000 0.000000 0.000000 0.047755
#
#
# Mechanical properties :
#
#
# Convention : Reuss Voigt Hill
#
# Bulk Modulus (GPa) = 22.02238 26.63326 24.32782
# Shear Modulus (GPa) = 16.77538 23.48736 20.13137
#
# Velocity S-wave (km/s) = 2.92991 3.46686 3.20963
# Velocity P-wave (km/s) = 4.76605 5.44558 5.11711
#
# Compressibility (1/GPa) = 0.04540835
#
# Stress axis : x y z
#
# Youngs Moduli (GPa) = 27.93410 27.93410 135.72701
#
# Poissons Ratio (x) = 0.47247 -0.00920
# Poissons Ratio (y) = 0.47247 -0.00920
# Poissons Ratio (z) = -0.00189 -0.00189
#
# Static dielectric constant tensor:
#      x y z
#    x 1.719550 0.000000 0.000000 
#    y 0.000000 1.719550 0.000000 
#    z 0.000000 0.000000 1.696990 
# 
# From -- ./inp_files/9669.got.cif
#   From: 2010.05.17/outbox.cif.g08.bks.cpg/sg136_5_cif.got.tgz:9669.got - 2010.05.20 12:54:53.
