data_PCOD9569988
_publ_section_title
;
Structure prediction by ZEFSAII (Michael W. Deem and Ramdas Pophale) SiO2 
 PCOD9569988
Probable space group: P 42/N M C
;
_chemical_formula_sum "Si O2"
_cell_formula_units_Z 96
_cell_length_a 24.312410
_cell_length_b 24.312410
_cell_length_c 10.662719
_cell_angle_alpha 90.000000
_cell_angle_beta 90.000000
_cell_angle_gamma 90.000000
_cell_volume 6302.661548
_symmetry_space_group_name_H-M "P 42/N M C"
_symmetry_group_IT_number 137
_space_group.IT_coordinate_system_code '2'
_symmetry_cell_setting 'tetragonal'
loop_
_space_group_symop_operation_xyz
x,y,z
1/2-y,x,1/2+z
1/2-x,1/2-y,z
y,1/2-x,1/2+z
1/2+x,-y,-z
-x,1/2+y,-z
1/2+y,1/2+x,1/2-z
-y,-x,1/2-z
-x,-y,-z
1/2+y,-x,1/2-z
1/2+x,1/2+y,-z
-y,1/2+x,1/2-z
1/2-x,y,z
x,1/2-y,z
1/2-y,1/2-x,1/2+z
y,x,1/2+z
loop_
_atom_site_type_symbol
_atom_site_label
_atom_site_fract_x
_atom_site_fract_y
_atom_site_fract_z
Si Si1 0.013976 0.930476 0.872341
Si Si2 0.928921 0.022619 0.877797
Si Si3 0.188212 0.501647 0.729124
Si Si4 0.506366 0.312136 0.519759
Si Si5 0.626005 0.813711 0.478276
Si Si6 0.630454 0.686879 0.753389
O O1 0.043675 0.956326 0.750000
O O2 0.015224 0.864905 0.853921
O O3 0.043273 0.949204 0.000394
O O4 0.953804 0.960138 0.874588
O O5 0.948655 0.051346 0.750000
O O6 0.863660 0.025464 0.898500
O O7 0.250000 0.518736 0.687685
O O8 0.188563 0.435468 0.738100
O O9 0.180124 0.521990 0.872844
O O10 0.523050 0.250000 0.557244
O O11 0.440010 0.314386 0.524045
O O12 0.642955 0.750000 0.469835
O O13 0.650982 0.846146 0.364005
O O14 0.644594 0.834860 0.614739
O O15 0.650063 0.750000 0.763785
#
# Coordination Sequence:
#
# PCOD9569988 Si02
#       6
#    16  16  16  16  16  16
#     4  10  18  31  50  72 101 130 163 199 239 290
#     4  10  20  31  48  75 102 131 159 198 246 288
#     4   9  17  31  50  69  92 125 161 195 234 285
#     4   9  17  32  50  67  93 127 160 192 236 290
#     4   9  18  31  46  62  83 116 156 196 234 276
#     4   9  18  31  45  61  84 116 154 195 237 277
#
# _framework density 15.23166
#
# number of rings (size 3 to 8) (size 9 to 14) (size 15 to 20)
#    0.000    2.667    1.667    3.000    0.000    1.000 
#    3.000    2.500    0.000    0.000    0.000    0.000 
#    0.000    4.000    0.000    0.000    0.000    0.000 
#
# Total GULP energy -534417.150050 kJ/mol
# GULP energy per Si atom -5566.845313 kJ/mol
# Density = 1.519699 g / cm^3
# Si number density = 15.231660 Si / 1000 Ang^3
#
#
#
# Elastic Constant Matrix: (Units=GPa)
#
#
# Indices 1 2 3 4 5 6 
#
# 1 73.4961 18.6897 33.0435 0.0000 0.0000 0.0000
# 2 18.6897 73.4963 33.0433 0.0000 0.0000 0.0000
# 3 33.0435 33.0433 95.2852 0.0000 0.0000 0.0000
# 4 0.0000 0.0000 0.0000 21.7021 0.0000 0.0000
# 5 0.0000 0.0000 0.0000 0.0000 21.7018 0.0000
# 6 0.0000 0.0000 0.0000 0.0000 0.0000 15.4819
#
#
#
# Elastic Compliance Matrix: (Units=1/GPa)
#
#
# Indices 1 2 3 4 5 6 
#
# 1 0.016341 -0.001905 -0.005006 0.000000 0.000000 0.000000
# 2 -0.001905 0.016341 -0.005006 0.000000 0.000000 0.000000
# 3 -0.005006 -0.005006 0.013967 0.000000 0.000000 0.000000
# 4 0.000000 0.000000 0.000000 0.046079 0.000000 0.000000
# 5 0.000000 0.000000 0.000000 0.000000 0.046079 0.000000
# 6 0.000000 0.000000 0.000000 0.000000 0.000000 0.064592
#
#
# Mechanical properties :
#
#
# Convention : Reuss Voigt Hill
#
# Bulk Modulus (GPa) = 43.83118 45.75894 44.79506
# Shear Modulus (GPa) = 21.29119 22.27723 21.78421
#
# Velocity S-wave (km/s) = 3.74281 3.82849 3.78589
# Velocity P-wave (km/s) = 6.89325 7.04630 6.97020
#
# Compressibility (1/GPa) = 0.02281481
#
# Stress axis : x y z
#
# Youngs Moduli (GPa) = 61.19429 61.19462 71.59686
#
# Poissons Ratio (x) = 0.11656 0.35845
# Poissons Ratio (y) = 0.11656 0.35844
# Poissons Ratio (z) = 0.30637 0.30636
#
# Static dielectric constant tensor:
#      x y z
#    x 1.513410 0.000000 0.000000 
#    y 0.000000 1.513410 0.000000 
#    z 0.000000 0.000000 1.506170 
# 
# From -- ./inp_files/3846.got.cif
#   From: 2010.05.17/outbox.cif.g08.bks.cpg/sg137_2_cif.got.tgz:3846.got - 2010.05.20 13:01:12.
