data_PCOD9569604
_publ_section_title
;
Structure prediction by ZEFSAII (Michael W. Deem and Ramdas Pophale) SiO2 
 PCOD9569604
Probable space group: P 42/M N M
;
_chemical_formula_sum "Si O2"
_cell_formula_units_Z 64
_cell_length_a 18.780759
_cell_length_b 18.780759
_cell_length_c 7.977968
_cell_angle_alpha 90.000000
_cell_angle_beta 90.000000
_cell_angle_gamma 90.000000
_cell_volume 2813.964210
_symmetry_space_group_name_H-M "P 42/M N M"
_symmetry_group_IT_number 136
_symmetry_cell_setting 'tetragonal'
loop_
_space_group_symop_operation_xyz
x,y,z
1/2-y,1/2+x,1/2+z
-x,-y,z
1/2+y,1/2-x,1/2+z
1/2+x,1/2-y,1/2-z
1/2-x,1/2+y,1/2-z
y,x,-z
-y,-x,-z
-x,-y,-z
1/2+y,1/2-x,1/2-z
x,y,-z
1/2-y,1/2+x,1/2-z
1/2-x,1/2+y,1/2+z
1/2+x,1/2-y,1/2+z
-y,-x,z
y,x,z
loop_
_atom_site_type_symbol
_atom_site_label
_atom_site_fract_x
_atom_site_fract_y
_atom_site_fract_z
Si Si1 0.732708 0.152036 0.000000
Si Si2 0.352654 0.467030 0.500000
Si Si3 0.293592 0.176421 0.185731
Si Si4 0.010603 0.615798 0.800730
Si Si5 0.465296 0.726749 0.194620
O O1 0.689002 0.149028 0.829741
O O2 0.770369 0.229632 0.000000
O O3 0.794687 0.095908 0.000000
O O4 0.429847 0.429847 0.500000
O O5 0.331436 0.507888 0.670691
O O6 0.249083 0.249083 0.168174
O O7 0.241824 0.116189 0.256398
O O8 0.319256 0.156613 0.000000
O O9 0.937146 0.571265 0.769541
O O10 0.000417 0.694625 0.722328
O O11 0.019636 0.624364 0.000000
O O12 0.473989 0.706451 0.000000
#
# Coordination Sequence:
#
# PCOD9569604 Si02
#       5
#     8   8  16  16  16
#     4   9  20  38  62  88 122 159 194 252 308 365
#     4  11  26  46  61  88 129 168 210 253 317 376
#     4  10  20  37  63  94 122 153 203 260 313 362
#     4  11  22  38  56  86 127 167 208 251 300 365
#     4  12  24  39  63  91 119 165 207 254 309 367
#
# _framework density 22.743715000000002
#
# number of rings (size 3 to 8) (size 9 to 14) (size 15 to 20)
#    0.000    1.250    3.750    3.000    3.500    1.500 
#    0.000    2.500    0.000    1.500    0.000    1.750 
#    0.000    0.000    0.000    0.000    0.000    0.000 
#
# Total GULP energy -357829.542729 kJ/mol
# GULP energy per Si atom -5591.086605 kJ/mol
# Density = 2.269195 g / cm^3
# Si number density = 22.743715 Si / 1000 Ang^3
#
#
#
# Elastic Constant Matrix: (Units=GPa)
#
#
# Indices 1 2 3 4 5 6 
#
# 1 34.5982 -8.2460 15.4341 0.0000 0.0000 0.0000
# 2 -8.2460 34.5976 15.4344 0.0000 0.0000 0.0000
# 3 15.4341 15.4344 219.0356 0.0000 0.0000 0.0000
# 4 0.0000 0.0000 0.0000 -5.2159 0.0000 0.0000
# 5 0.0000 0.0000 0.0000 0.0000 -5.2128 0.0000
# 6 0.0000 0.0000 0.0000 0.0000 0.0000 42.2733
#
#
#
# Elastic Compliance Matrix: (Units=1/GPa)
#
#
# Indices 1 2 3 4 5 6 
#
# 1 0.032351 0.009011 -0.002915 0.000000 0.000000 0.000000
# 2 0.009011 0.032352 -0.002915 0.000000 0.000000 0.000000
# 3 -0.002915 -0.002915 0.004976 0.000000 0.000000 0.000000
# 4 0.000000 0.000000 0.000000 -0.191721 0.000000 0.000000
# 5 0.000000 0.000000 0.000000 0.000000 -0.191834 0.000000
# 6 0.000000 0.000000 0.000000 0.000000 0.000000 0.023656
#
#
# Mechanical properties :
#
#
# Convention : Reuss Voigt Hill
#
# Bulk Modulus (GPa) = 13.15059 37.05292 25.10176
# Shear Modulus (GPa) = -18.43407 24.07616 2.82104
#
# Velocity S-wave (km/s) = -2.85004 3.25712 1.11492
# Velocity P-wave (km/s) = 2.24403 5.52014 3.56625
#
# Compressibility (1/GPa) = 0.07604222
#
# Stress axis : x y z
#
# Youngs Moduli (GPa) = 30.91090 30.91036 200.95587
#
# Poissons Ratio (x) = -0.27853 0.58569
# Poissons Ratio (y) = -0.27853 0.58571
# Poissons Ratio (z) = 0.09009 0.09009
#
# Static dielectric constant tensor:
#      x y z
#    x 1.884170 0.000000 0.000000 
#    y 0.000000 1.884170 0.000000 
#    z 0.000000 0.000000 1.857910 
# 
# From -- ./inp_files/1467.got.cif
#   From: 2010.05.17/outbox.cif.g08.bks.cpg/sg136_1_cif.got.tgz:1467.got - 2010.05.20 12:54:53.
