data_PCOD9569142
_publ_section_title
;
Structure prediction by ZEFSAII (Michael W. Deem and Ramdas Pophale) SiO2 
 PCOD9569142
Probable space group: P 42/M N M
;
_chemical_formula_sum "Si O2"
_cell_formula_units_Z 128
_cell_length_a 17.356273
_cell_length_b 17.356273
_cell_length_c 17.506108
_cell_angle_alpha 90.000000
_cell_angle_beta 90.000000
_cell_angle_gamma 90.000000
_cell_volume 5273.543693
_symmetry_space_group_name_H-M "P 42/M N M"
_symmetry_group_IT_number 136
_symmetry_cell_setting 'tetragonal'
loop_
_space_group_symop_operation_xyz
x,y,z
1/2-y,1/2+x,1/2+z
-x,-y,z
1/2+y,1/2-x,1/2+z
1/2+x,1/2-y,1/2-z
1/2-x,1/2+y,1/2-z
y,x,-z
-y,-x,-z
-x,-y,-z
1/2+y,1/2-x,1/2-z
x,y,-z
1/2-y,1/2+x,1/2-z
1/2-x,1/2+y,1/2+z
1/2+x,1/2-y,1/2+z
-y,-x,z
y,x,z
loop_
_atom_site_type_symbol
_atom_site_label
_atom_site_fract_x
_atom_site_fract_y
_atom_site_fract_z
Si Si1 0.529289 0.878213 0.226744
Si Si2 0.852898 0.270050 0.222411
Si Si3 0.402322 0.062266 0.086638
Si Si4 0.262856 0.145913 0.846655
Si Si5 0.895152 0.343351 0.084476
Si Si6 0.837475 0.963389 0.247561
Si Si7 0.130589 0.000186 0.584905
Si Si8 0.540346 0.668950 0.581244
O O1 0.446199 0.908648 0.251345
O O2 0.558135 0.797856 0.262471
O O3 0.540331 0.885959 0.136541
O O4 0.813361 0.186640 0.207956
O O5 0.818351 0.295588 0.302954
O O6 0.833783 0.327718 0.151539
O O7 0.316070 0.094931 0.099851
O O8 0.395323 0.970475 0.103730
O O9 0.424879 0.068283 0.000000
O O10 0.193462 0.193462 0.884386
O O11 0.226537 0.098570 0.776585
O O12 0.928464 0.255971 0.080011
O O13 0.866623 0.364395 0.000000
O O14 0.918351 0.918351 0.254963
O O15 0.826204 0.998812 0.332705
O O16 0.844664 0.006661 0.165627
O O17 0.169951 0.996750 0.500000
O O18 0.076260 0.076260 0.582770
O O19 0.072724 0.927277 0.588153
O O20 0.494965 0.658859 0.500000
O O21 0.610178 0.610178 0.575824
#
# Coordination Sequence:
#
# PCOD9569142 Si02
#       8
#    16  16  16  16  16  16  16  16
#     4  10  20  37  60  89 122 159 199 255 322 371
#     4  10  20  36  57  82 112 153 201 245 294 364
#     4  10  19  34  56  82 114 152 197 244 299 369
#     4   9  19  33  51  77 108 143 189 241 294 357
#     4  10  19  34  53  77 106 144 190 239 289 352
#     4  10  18  29  45  67  99 136 174 226 291 351
#     4   8  14  25  41  60  83 118 168 221 272 331
#     4  10  20  31  44  68 103 143 187 229 273 336
#
# _framework density 24.272103000000001
#
# number of rings (size 3 to 8) (size 9 to 14) (size 15 to 20)
#    0.000    2.375    2.500    1.125    0.000    2.000 
#    0.000    4.375    0.000    2.250    0.000    7.000 
#    0.000    8.500    0.000    0.000    0.000    0.000 
#
# Total GULP energy -712658.399512 kJ/mol
# GULP energy per Si atom -5567.643746 kJ/mol
# Density = 2.421686 g / cm^3
# Si number density = 24.272103 Si / 1000 Ang^3
#
#
#
# Elastic Constant Matrix: (Units=GPa)
#
#
# Indices 1 2 3 4 5 6 
#
# 1 36.7183 27.0039 27.2631 0.0000 0.0000 0.0000
# 2 27.0039 36.7183 27.2631 0.0000 0.0000 0.0000
# 3 27.2631 27.2631 167.5747 0.0000 0.0000 0.0000
# 4 0.0000 0.0000 0.0000 -8.0562 0.0000 0.0000
# 5 0.0000 0.0000 0.0000 0.0000 -8.0562 0.0000
# 6 0.0000 0.0000 0.0000 0.0000 0.0000 30.1312
#
#
#
# Elastic Compliance Matrix: (Units=1/GPa)
#
#
# Indices 1 2 3 4 5 6 
#
# 1 0.060585 -0.042354 -0.002966 0.000000 0.000000 0.000000
# 2 -0.042354 0.060585 -0.002966 0.000000 0.000000 0.000000
# 3 -0.002966 -0.002966 0.006933 0.000000 0.000000 0.000000
# 4 0.000000 0.000000 0.000000 -0.124128 0.000000 0.000000
# 5 0.000000 0.000000 0.000000 0.000000 -0.124128 0.000000
# 6 0.000000 0.000000 0.000000 0.000000 0.000000 0.033188
#
#
# Mechanical properties :
#
#
# Convention : Reuss Voigt Hill
#
# Bulk Modulus (GPa) = 31.71520 44.89682 38.30601
# Shear Modulus (GPa) = 248.51708 13.43584 130.97646
#
# Velocity S-wave (km/s) = 10.12967 2.35532 7.35383
# Velocity P-wave (km/s) = 12.24371 5.09256 9.37664
#
# Compressibility (1/GPa) = 0.03153063
#
# Stress axis : x y z
#
# Youngs Moduli (GPa) = 16.50564 16.50564 144.24613
#
# Poissons Ratio (x) = 0.69908 0.42784
# Poissons Ratio (y) = 0.69908 0.42784
# Poissons Ratio (z) = 0.04896 0.04896
#
# Static dielectric constant tensor:
#      x y z
#    x 2.015040 0.000000 0.000000 
#    y 0.000000 2.015040 0.000000 
#    z 0.000000 0.000000 2.347900 
# 
# From -- ./inp_files/6619.got.cif
#   From: 2010.05.17/outbox.cif.g08.bks.cpg/sg136_4_cif.got.tgz:6619.got - 2010.05.20 12:54:53.
