data_PCOD9569410
_publ_section_title
;
Structure prediction by ZEFSAII (Michael W. Deem and Ramdas Pophale) SiO2 
 PCOD9569410
Probable space group: P 42/M N M
;
_chemical_formula_sum "Si O2"
_cell_formula_units_Z 96
_cell_length_a 25.806181
_cell_length_b 25.806181
_cell_length_c 8.641146
_cell_angle_alpha 90.000000
_cell_angle_beta 90.000000
_cell_angle_gamma 90.000000
_cell_volume 5754.648757
_symmetry_space_group_name_H-M "P 42/M N M"
_symmetry_group_IT_number 136
_symmetry_cell_setting 'tetragonal'
loop_
_space_group_symop_operation_xyz
x,y,z
1/2-y,1/2+x,1/2+z
-x,-y,z
1/2+y,1/2-x,1/2+z
1/2+x,1/2-y,1/2-z
1/2-x,1/2+y,1/2-z
y,x,-z
-y,-x,-z
-x,-y,-z
1/2+y,1/2-x,1/2-z
x,y,-z
1/2-y,1/2+x,1/2-z
1/2-x,1/2+y,1/2+z
1/2+x,1/2-y,1/2+z
-y,-x,z
y,x,z
loop_
_atom_site_type_symbol
_atom_site_label
_atom_site_fract_x
_atom_site_fract_y
_atom_site_fract_z
Si Si1 0.842405 0.244644 0.816065
Si Si2 0.262850 0.176998 0.816148
Si Si3 0.564846 0.243782 0.821071
Si Si4 0.450893 0.242864 0.814356
Si Si5 0.054386 0.364106 0.825179
Si Si6 0.129051 0.440608 0.322686
O O1 0.800225 0.199776 0.784811
O O2 0.814801 0.298270 0.759979
O O3 0.896561 0.231171 0.732847
O O4 0.850798 0.248147 0.000000
O O5 0.216255 0.216255 0.775037
O O6 0.247372 0.118940 0.766550
O O7 0.270701 0.178285 0.000000
O O8 0.507978 0.265792 0.771897
O O9 0.557099 0.182225 0.796591
O O10 0.572696 0.256928 0.000000
O O11 0.445748 0.188759 0.723407
O O12 0.452032 0.235035 0.000000
O O13 0.100211 0.403012 0.792416
O O14 0.999140 0.391904 0.811321
O O15 0.057305 0.342310 0.000000
O O16 0.123843 0.422787 0.500000
#
# Coordination Sequence:
#
# PCOD9569410 Si02
#       6
#    16  16  16  16  16  16
#     4  10  20  33  50  72  98 128 160 195 236 281
#     4  10  20  33  50  72  98 128 160 195 236 281
#     4  10  20  33  49  68  91 120 153 189 229 274
#     4  10  20  33  49  68  91 120 153 189 229 274
#     4  10  20  32  45  60  80 109 145 186 230 273
#     4  10  20  32  45  60  80 109 145 186 230 273
#
# _framework density 16.682165000000001
#
# number of rings (size 3 to 8) (size 9 to 14) (size 15 to 20)
#    0.000    2.000    0.000    4.000    0.000    6.333 
#    0.000    1.667    0.000    0.000    0.000    0.000 
#    0.000    0.667    0.000    7.333    0.000    5.333 
#
# Total GULP energy -534882.480599 kJ/mol
# GULP energy per Si atom -5571.692506 kJ/mol
# Density = 1.664420 g / cm^3
# Si number density = 16.682165 Si / 1000 Ang^3
#
#
#
# Elastic Constant Matrix: (Units=GPa)
#
#
# Indices 1 2 3 4 5 6 
#
# 1 69.3218 12.7442 15.0272 0.0000 0.0000 0.0000
# 2 12.7442 69.3218 15.0272 0.0000 0.0000 0.0000
# 3 15.0272 15.0272 40.8995 0.0000 0.0000 0.0000
# 4 0.0000 0.0000 0.0000 21.7994 0.0000 0.0000
# 5 0.0000 0.0000 0.0000 0.0000 21.7994 0.0000
# 6 0.0000 0.0000 0.0000 0.0000 0.0000 16.1134
#
#
#
# Elastic Compliance Matrix: (Units=1/GPa)
#
#
# Indices 1 2 3 4 5 6 
#
# 1 0.015877 -0.001797 -0.005173 0.000000 0.000000 0.000000
# 2 -0.001797 0.015877 -0.005173 0.000000 0.000000 0.000000
# 3 -0.005173 -0.005173 0.028252 0.000000 0.000000 0.000000
# 4 0.000000 0.000000 0.000000 0.045873 0.000000 0.000000
# 5 0.000000 0.000000 0.000000 0.000000 0.045873 0.000000
# 6 0.000000 0.000000 0.000000 0.000000 0.000000 0.062060
#
#
# Mechanical properties :
#
#
# Convention : Reuss Voigt Hill
#
# Bulk Modulus (GPa) = 27.99663 29.46002 28.72833
# Shear Modulus (GPa) = 19.99950 21.05872 20.52911
#
# Velocity S-wave (km/s) = 3.46621 3.55681 3.51180
# Velocity P-wave (km/s) = 5.73047 5.87927 5.80534
#
# Compressibility (1/GPa) = 0.03571858
#
# Stress axis : x y z
#
# Youngs Moduli (GPa) = 62.98280 62.98280 35.39622
#
# Poissons Ratio (x) = 0.11321 0.18311
# Poissons Ratio (y) = 0.11321 0.18311
# Poissons Ratio (z) = 0.32582 0.32582
#
# Static dielectric constant tensor:
#      x y z
#    x 1.597890 0.000000 0.000000 
#    y 0.000000 1.597890 0.000000 
#    z 0.000000 0.000000 1.561340 
# 
# From -- ./inp_files/1964.got.cif
#   From: 2010.05.17/outbox.cif.g08.bks.cpg/sg136_1_cif.got.tgz:1964.got - 2010.05.20 12:54:53.
