data_PCOD9569184
_publ_section_title
;
Structure prediction by ZEFSAII (Michael W. Deem and Ramdas Pophale) SiO2 
 PCOD9569184
Probable space group: P 42/M N M
;
_chemical_formula_sum "Si O2"
_cell_formula_units_Z 116
_cell_length_a 28.980890
_cell_length_b 28.980890
_cell_length_c 8.024908
_cell_angle_alpha 90.000000
_cell_angle_beta 90.000000
_cell_angle_gamma 90.000000
_cell_volume 6740.055911
_symmetry_space_group_name_H-M "P 42/M N M"
_symmetry_group_IT_number 136
_symmetry_cell_setting 'tetragonal'
loop_
_space_group_symop_operation_xyz
x,y,z
1/2-y,1/2+x,1/2+z
-x,-y,z
1/2+y,1/2-x,1/2+z
1/2+x,1/2-y,1/2-z
1/2-x,1/2+y,1/2-z
y,x,-z
-y,-x,-z
-x,-y,-z
1/2+y,1/2-x,1/2-z
x,y,-z
1/2-y,1/2+x,1/2-z
1/2-x,1/2+y,1/2+z
1/2+x,1/2-y,1/2+z
-y,-x,z
y,x,z
loop_
_atom_site_type_symbol
_atom_site_label
_atom_site_fract_x
_atom_site_fract_y
_atom_site_fract_z
Si Si1 0.722842 0.925132 0.690266
Si Si2 0.901676 0.198630 0.687791
Si Si3 0.753984 0.828323 0.198697
Si Si4 0.474931 0.235943 0.307488
Si Si5 0.131745 0.463466 0.298807
Si Si6 0.362862 0.362862 0.500000
Si Si7 0.242498 0.321460 0.308472
Si Si8 0.067934 0.378920 0.198026
O O1 0.729099 0.938797 0.500000
O O2 0.751224 0.879235 0.728950
O O3 0.668721 0.914910 0.721508
O O4 0.735956 0.969700 0.797423
O O5 0.897777 0.178784 0.500000
O O6 0.951084 0.222614 0.710927
O O7 0.864571 0.240409 0.703766
O O8 0.889700 0.166643 0.847917
O O9 0.796242 0.796242 0.260127
O O10 0.707269 0.800719 0.243534
O O11 0.757079 0.831264 0.000000
O O12 0.460480 0.239368 0.500000
O O13 0.459885 0.185140 0.243811
O O14 0.131865 0.462271 0.500000
O O15 0.099744 0.422326 0.237561
O O16 0.114446 0.514546 0.247535
O O17 0.234696 0.335366 0.500000
O O18 0.285486 0.285486 0.307603
O O19 0.067540 0.371338 0.000000
#
# Coordination Sequence:
#
# PCOD9569184 Si02
#       8
#    16  16  16  16  16   4  16  16
#     4  11  22  37  55  76 103 138 179 225 272 327
#     4  12  22  35  56  80 108 149 185 220 271 326
#     4  10  21  35  53  77 103 138 180 221 272 328
#     4  10  21  39  56  76 107 141 182 227 272 323
#     4   9  20  36  53  72  97 127 169 221 275 333
#     4  12  22  40  52  82 116 144 179 228 272 308
#     4  10  18  32  48  72 106 137 172 220 268 315
#     4  10  21  36  53  73  97 128 166 220 278 329
#
# _framework density 17.210540999999999
#
# number of rings (size 3 to 8) (size 9 to 14) (size 15 to 20)
#    0.000    1.655    2.069    3.931    1.931    4.966 
#    0.000    1.379    0.000    0.000    0.000    0.000 
#    0.000    0.000    0.000    1.241    0.000    5.310 
#
# Total GULP energy -646341.830802 kJ/mol
# GULP energy per Si atom -5571.912334 kJ/mol
# Density = 1.717137 g / cm^3
# Si number density = 17.210541 Si / 1000 Ang^3
#
#
#
# Elastic Constant Matrix: (Units=GPa)
#
#
# Indices 1 2 3 4 5 6 
#
# 1 50.2642 29.7514 7.3857 0.0000 0.0000 0.0000
# 2 29.7514 50.2642 7.3857 0.0000 0.0000 0.0000
# 3 7.3857 7.3857 76.9512 0.0000 0.0000 0.0000
# 4 0.0000 0.0000 0.0000 21.8252 0.0000 0.0000
# 5 0.0000 0.0000 0.0000 0.0000 21.8252 0.0000
# 6 0.0000 0.0000 0.0000 0.0000 0.0000 27.6157
#
#
#
# Elastic Compliance Matrix: (Units=1/GPa)
#
#
# Indices 1 2 3 4 5 6 
#
# 1 0.030736 -0.018013 -0.001221 0.000000 0.000000 0.000000
# 2 -0.018013 0.030736 -0.001221 0.000000 0.000000 0.000000
# 3 -0.001221 -0.001221 0.013230 0.000000 0.000000 0.000000
# 4 0.000000 0.000000 0.000000 0.045819 0.000000 0.000000
# 5 0.000000 0.000000 0.000000 0.000000 0.045819 0.000000
# 6 0.000000 0.000000 0.000000 0.000000 0.000000 0.036211
#
#
# Mechanical properties :
#
#
# Convention : Reuss Voigt Hill
#
# Bulk Modulus (GPa) = 29.59360 29.61391 29.60376
# Shear Modulus (GPa) = 19.62891 23.11700 21.37296
#
# Velocity S-wave (km/s) = 3.38082 3.66893 3.52782
# Velocity P-wave (km/s) = 5.69845 5.93231 5.81655
#
# Compressibility (1/GPa) = 0.03379108
#
# Stress axis : x y z
#
# Youngs Moduli (GPa) = 32.53464 32.53464 75.58778
#
# Poissons Ratio (x) = 0.58606 0.09230
# Poissons Ratio (y) = 0.58606 0.09230
# Poissons Ratio (z) = 0.03973 0.03973
#
# Static dielectric constant tensor:
#      x y z
#    x 1.592610 0.000000 0.000000 
#    y 0.000000 1.592610 0.000000 
#    z 0.000000 0.000000 1.621790 
# 
# From -- ./inp_files/2295.got.cif
#   From: 2010.05.17/outbox.cif.g08.bks.cpg/sg136_2_cif.got.tgz:2295.got - 2010.05.20 12:54:53.
