data_PCOD9569307
_publ_section_title
;
Structure prediction by ZEFSAII (Michael W. Deem and Ramdas Pophale) SiO2 
 PCOD9569307
Probable space group: P 42/M N M
;
_chemical_formula_sum "Si O2"
_cell_formula_units_Z 96
_cell_length_a 24.969299
_cell_length_b 24.969299
_cell_length_c 7.807277
_cell_angle_alpha 90.000000
_cell_angle_beta 90.000000
_cell_angle_gamma 90.000000
_cell_volume 4867.570923
_symmetry_space_group_name_H-M "P 42/M N M"
_symmetry_group_IT_number 136
_symmetry_cell_setting 'tetragonal'
loop_
_space_group_symop_operation_xyz
x,y,z
1/2-y,1/2+x,1/2+z
-x,-y,z
1/2+y,1/2-x,1/2+z
1/2+x,1/2-y,1/2-z
1/2-x,1/2+y,1/2-z
y,x,-z
-y,-x,-z
-x,-y,-z
1/2+y,1/2-x,1/2-z
x,y,-z
1/2-y,1/2+x,1/2-z
1/2-x,1/2+y,1/2+z
1/2+x,1/2-y,1/2+z
-y,-x,z
y,x,z
loop_
_atom_site_type_symbol
_atom_site_label
_atom_site_fract_x
_atom_site_fract_y
_atom_site_fract_z
Si Si1 0.733090 0.351629 0.203967
Si Si2 0.059530 0.856153 0.790859
Si Si3 0.646873 0.146167 0.792735
Si Si4 0.768718 0.146241 0.791180
Si Si5 0.935834 0.446388 0.692266
Si Si6 0.938773 0.853952 0.792679
O O1 0.700092 0.299908 0.272681
O O2 0.792775 0.362781 0.268283
O O3 0.695338 0.402356 0.234765
O O4 0.738261 0.342921 0.000000
O O5 0.089333 0.910668 0.739656
O O6 0.097944 0.807514 0.738273
O O7 0.999205 0.851484 0.729403
O O8 0.058598 0.855434 0.000000
O O9 0.708124 0.136152 0.735465
O O10 0.602443 0.103353 0.737545
O O11 0.646045 0.145332 0.000000
O O12 0.798417 0.201584 0.738235
O O13 0.767883 0.147640 0.000000
O O14 0.929811 0.501548 0.797277
O O15 0.923445 0.463232 0.500000
O O16 0.907523 0.907523 0.738583
O O17 0.939668 0.853318 0.000000
#
# Coordination Sequence:
#
# PCOD9569307 Si02
#       6
#    16  16  16  16  16  16
#     4   9  18  32  49  70 100 137 172 208 252 301
#     4   8  14  25  42  66  94 123 159 204 250 291
#     4  10  19  32  53  80 104 130 168 209 251 303
#     4   8  14  26  46  72 101 132 168 211 253 295
#     4  11  23  41  61  80 105 135 168 208 256 306
#     4   9  17  28  43  66  96 128 163 206 254 300
#
# _framework density 19.722363000000001
#
# number of rings (size 3 to 8) (size 9 to 14) (size 15 to 20)
#    0.000    2.833    0.000    3.500    0.000    4.333 
#    0.000    3.333    0.000    2.000    0.000    4.667 
#    0.000    0.000    0.000    0.000    0.000    0.000 
#
# Total GULP energy -535206.071588 kJ/mol
# GULP energy per Si atom -5575.063246 kJ/mol
# Density = 1.967747 g / cm^3
# Si number density = 19.722363 Si / 1000 Ang^3
#
#
#
# Elastic Constant Matrix: (Units=GPa)
#
#
# Indices 1 2 3 4 5 6 
#
# 1 153.4655 88.5268 0.7349 0.0000 0.0000 0.0000
# 2 88.5268 153.4655 0.7349 0.0000 0.0000 0.0000
# 3 0.7349 0.7349 26.6309 0.0000 0.0000 0.0000
# 4 0.0000 0.0000 0.0000 17.1486 0.0000 0.0000
# 5 0.0000 0.0000 0.0000 0.0000 17.1486 0.0000
# 6 0.0000 0.0000 0.0000 0.0000 0.0000 23.8373
#
#
#
# Elastic Compliance Matrix: (Units=1/GPa)
#
#
# Indices 1 2 3 4 5 6 
#
# 1 0.009766 -0.005633 -0.000114 0.000000 0.000000 0.000000
# 2 -0.005633 0.009766 -0.000114 0.000000 0.000000 0.000000
# 3 -0.000114 -0.000114 0.037557 0.000000 0.000000 0.000000
# 4 0.000000 0.000000 0.000000 0.058314 0.000000 0.000000
# 5 0.000000 0.000000 0.000000 0.000000 0.058314 0.000000
# 6 0.000000 0.000000 0.000000 0.000000 0.000000 0.041951
#
#
# Mechanical properties :
#
#
# Convention : Reuss Voigt Hill
#
# Bulk Modulus (GPa) = 22.04263 57.06165 39.55214
# Shear Modulus (GPa) = 20.61754 27.86459 24.24106
#
# Velocity S-wave (km/s) = 3.23676 3.76286 3.50968
# Velocity P-wave (km/s) = 5.01692 6.91911 6.04333
#
# Compressibility (1/GPa) = 0.04536663
#
# Stress axis : x y z
#
# Youngs Moduli (GPa) = 102.39508 102.39508 26.62640
#
# Poissons Ratio (x) = 0.57680 0.00304
# Poissons Ratio (y) = 0.57680 0.00304
# Poissons Ratio (z) = 0.01168 0.01168
#
# Static dielectric constant tensor:
#      x y z
#    x 1.678810 0.000000 0.000000 
#    y 0.000000 1.678810 0.000000 
#    z 0.000000 0.000000 1.732840 
# 
# From -- ./inp_files/1997.got.cif
#   From: 2010.05.17/outbox.cif.g08.bks.cpg/sg136_1_cif.got.tgz:1997.got - 2010.05.20 12:54:53.
