data_PCOD9569588
_publ_section_title
;
Structure prediction by ZEFSAII (Michael W. Deem and Ramdas Pophale) SiO2 
 PCOD9569588
Probable space group: P 42/M N M
;
_chemical_formula_sum "Si O2"
_cell_formula_units_Z 72
_cell_length_a 19.107971
_cell_length_b 19.107971
_cell_length_c 12.006452
_cell_angle_alpha 90.000000
_cell_angle_beta 90.000000
_cell_angle_gamma 90.000000
_cell_volume 4383.730388
_symmetry_space_group_name_H-M "P 42/M N M"
_symmetry_group_IT_number 136
_symmetry_cell_setting 'tetragonal'
loop_
_space_group_symop_operation_xyz
x,y,z
1/2-y,1/2+x,1/2+z
-x,-y,z
1/2+y,1/2-x,1/2+z
1/2+x,1/2-y,1/2-z
1/2-x,1/2+y,1/2-z
y,x,-z
-y,-x,-z
-x,-y,-z
1/2+y,1/2-x,1/2-z
x,y,-z
1/2-y,1/2+x,1/2-z
1/2-x,1/2+y,1/2+z
1/2+x,1/2-y,1/2+z
-y,-x,z
y,x,z
loop_
_atom_site_type_symbol
_atom_site_label
_atom_site_fract_x
_atom_site_fract_y
_atom_site_fract_z
Si Si1 0.192235 0.688017 0.500000
Si Si2 0.754921 0.364004 0.270297
Si Si3 0.267244 0.851169 0.131364
Si Si4 0.940666 0.059334 0.129942
Si Si5 0.479102 0.298178 0.244005
Si Si6 0.078976 0.802067 0.500000
O O1 0.250088 0.749913 0.500000
O O2 0.206437 0.645358 0.388428
O O3 0.118582 0.727495 0.500000
O O4 0.687189 0.312812 0.270364
O O5 0.807306 0.333044 0.177274
O O6 0.731186 0.443169 0.256053
O O7 0.199966 0.800035 0.149245
O O8 0.252960 0.920633 0.202479
O O9 0.272799 0.865579 0.000000
O O10 0.968267 0.128889 0.190588
O O11 0.924968 0.075033 0.000000
O O12 0.000000 0.000000 0.134028
O O13 0.463268 0.308922 0.113878
O O14 0.138316 0.861685 0.500000
#
# Coordination Sequence:
#
# PCOD9569588 Si02
#       6
#     8  16  16   8  16   8
#     4   9  18  36  58  80 110 146 195 250 281 329
#     4  10  22  37  56  85 116 147 190 240 287 333
#     4  10  20  37  58  81 111 149 196 238 279 337
#     4  11  24  39  55  83 123 162 193 226 281 354
#     4  12  22  37  59  86 115 154 193 237 290 347
#     4  11  20  38  60  83 113 155 198 234 285 357
#
# _framework density 16.424368000000001
#
# number of rings (size 3 to 8) (size 9 to 14) (size 15 to 20)
#    0.000    1.444    4.444    1.333    4.667    0.000 
#    0.000    2.222    0.000    0.667    0.000    3.111 
#    0.000    0.000    0.000    0.000    0.000    0.000 
#
# Total GULP energy -401988.520868 kJ/mol
# GULP energy per Si atom -5583.173901 kJ/mol
# Density = 1.638699 g / cm^3
# Si number density = 16.424368 Si / 1000 Ang^3
#
#
#
# Elastic Constant Matrix: (Units=GPa)
#
#
# Indices 1 2 3 4 5 6 
#
# 1 86.7948 45.7666 48.5006 0.0000 0.0000 0.0000
# 2 45.7666 86.7938 48.5004 0.0000 0.0000 0.0000
# 3 48.5006 48.5004 144.1571 0.0000 0.0000 0.0000
# 4 0.0000 0.0000 0.0000 17.3731 0.0000 0.0000
# 5 0.0000 0.0000 0.0000 0.0000 17.3724 0.0000
# 6 0.0000 0.0000 0.0000 0.0000 0.0000 19.3849
#
#
#
# Elastic Compliance Matrix: (Units=1/GPa)
#
#
# Indices 1 2 3 4 5 6 
#
# 1 0.017191 -0.007183 -0.003367 0.000000 0.000000 0.000000
# 2 -0.007183 0.017191 -0.003367 0.000000 0.000000 0.000000
# 3 -0.003367 -0.003367 0.009202 0.000000 0.000000 0.000000
# 4 0.000000 0.000000 0.000000 0.057560 0.000000 0.000000
# 5 0.000000 0.000000 0.000000 0.000000 0.057563 0.000000
# 6 0.000000 0.000000 0.000000 0.000000 0.000000 0.051586
#
#
# Mechanical properties :
#
#
# Convention : Reuss Voigt Hill
#
# Bulk Modulus (GPa) = 63.49364 67.03122 65.26243
# Shear Modulus (GPa) = 20.54428 22.49129 21.51778
#
# Velocity S-wave (km/s) = 3.54056 3.70454 3.62348
# Velocity P-wave (km/s) = 7.44689 7.69407 7.57149
#
# Compressibility (1/GPa) = 0.01574961
#
# Stress axis : x y z
#
# Youngs Moduli (GPa) = 58.17163 58.17092 108.66699
#
# Poissons Ratio (x) = 0.41785 0.36587
# Poissons Ratio (y) = 0.41786 0.36588
# Poissons Ratio (z) = 0.19586 0.19586
#
# Static dielectric constant tensor:
#      x y z
#    x 1.535120 0.000000 0.000000 
#    y 0.000000 1.535120 0.000000 
#    z 0.000000 0.000000 1.557370 
# 
# From -- ./inp_files/3483.got.cif
#   From: 2010.05.17/outbox.cif.g08.bks.cpg/sg136_2_cif.got.tgz:3483.got - 2010.05.20 12:54:53.
