data_PCOD9569504
_publ_section_title
;
Structure prediction by ZEFSAII (Michael W. Deem and Ramdas Pophale) SiO2 
 PCOD9569504
Probable space group: P 42/M N M
;
_chemical_formula_sum "Si O2"
_cell_formula_units_Z 80
_cell_length_a 11.432870
_cell_length_b 11.432870
_cell_length_c 28.837018
_cell_angle_alpha 90.000000
_cell_angle_beta 90.000000
_cell_angle_gamma 90.000000
_cell_volume 3769.301515
_symmetry_space_group_name_H-M "P 42/M N M"
_symmetry_group_IT_number 136
_symmetry_cell_setting 'tetragonal'
loop_
_space_group_symop_operation_xyz
x,y,z
1/2-y,1/2+x,1/2+z
-x,-y,z
1/2+y,1/2-x,1/2+z
1/2+x,1/2-y,1/2-z
1/2-x,1/2+y,1/2-z
y,x,-z
-y,-x,-z
-x,-y,-z
1/2+y,1/2-x,1/2-z
x,y,-z
1/2-y,1/2+x,1/2-z
1/2-x,1/2+y,1/2+z
1/2+x,1/2-y,1/2+z
-y,-x,z
y,x,z
loop_
_atom_site_type_symbol
_atom_site_label
_atom_site_fract_x
_atom_site_fract_y
_atom_site_fract_z
Si Si1 0.630299 0.831758 0.947432
Si Si2 0.186137 0.991534 0.056491
Si Si3 0.226512 0.961560 0.639913
Si Si4 0.106674 0.290843 0.802389
Si Si5 0.342804 0.162390 0.304001
O O1 0.737639 0.737639 0.948538
O O2 0.689576 0.952911 0.930077
O O3 0.539529 0.775484 0.912302
O O4 0.587643 0.846173 0.000000
O O5 0.087919 0.087919 0.069713
O O6 0.188924 0.990565 0.000000
O O7 0.133518 0.866483 0.071849
O O8 0.096675 0.903326 0.641146
O O9 0.306225 0.869507 0.667928
O O10 0.261215 0.081575 0.664188
O O11 0.158482 0.158482 0.806210
O O12 0.115434 0.327393 0.748428
O O13 0.976910 0.324221 0.817663
O O14 0.291666 0.291666 0.303354
#
# Coordination Sequence:
#
# PCOD9569504 Si02
#       5
#    16  16  16  16  16
#     4   8  14  26  46  75 112 153 197 244 294 351
#     4   7   9  15  31  57  91 134 183 232 281 332
#     4  10  20  34  56  88 121 157 201 245 293 358
#     4  10  21  37  59  87 116 152 198 244 300 367
#     4  11  22  37  60  86 117 158 197 246 308 359
#
# _framework density 21.224091000000001
#
# number of rings (size 3 to 8) (size 9 to 14) (size 15 to 20)
#    0.000    2.800    2.000    2.400    0.000    0.800 
#    0.000    3.000    0.000    6.600    0.000    2.800 
#    0.000    0.000    0.000    1.800    0.000    0.000 
#
# Total GULP energy -445632.667990 kJ/mol
# GULP energy per Si atom -5570.408350 kJ/mol
# Density = 2.117578 g / cm^3
# Si number density = 21.224091 Si / 1000 Ang^3
#
#
#
# Elastic Constant Matrix: (Units=GPa)
#
#
# Indices 1 2 3 4 5 6 
#
# 1 -71.4140 173.1633 15.6829 0.0000 0.0000 0.0000
# 2 173.1633 -71.4140 15.6829 0.0000 0.0000 0.0000
# 3 15.6829 15.6829 90.6248 0.0000 0.0000 0.0000
# 4 0.0000 0.0000 0.0000 6.2186 0.0000 0.0000
# 5 0.0000 0.0000 0.0000 0.0000 6.2186 0.0000
# 6 0.0000 0.0000 0.0000 0.0000 0.0000 14.6097
#
#
#
# Elastic Compliance Matrix: (Units=1/GPa)
#
#
# Indices 1 2 3 4 5 6 
#
# 1 0.003147 0.007235 -0.001797 0.000000 0.000000 0.000000
# 2 0.007235 0.003147 -0.001797 0.000000 0.000000 0.000000
# 3 -0.001797 -0.001797 0.011656 0.000000 0.000000 0.000000
# 4 0.000000 0.000000 0.000000 0.160808 0.000000 0.000000
# 5 0.000000 0.000000 0.000000 0.000000 0.160808 0.000000
# 6 0.000000 0.000000 0.000000 0.000000 0.000000 0.068448
#
#
# Mechanical properties :
#
#
# Convention : Reuss Voigt Hill
#
# Bulk Modulus (GPa) = 39.62959 39.65056 39.64007
# Shear Modulus (GPa) = 12.22075 -11.70609 0.25733
#
# Velocity S-wave (km/s) = 2.40218 -2.35105 0.34858
# Velocity P-wave (km/s) = 5.13872 3.36935 4.34505
#
# Compressibility (1/GPa) = 0.02523367
#
# Stress axis : x y z
#
# Youngs Moduli (GPa) = 317.80221 317.80221 85.79035
#
# Poissons Ratio (x) = -2.29939 0.15413
# Poissons Ratio (y) = -2.29939 0.15413
# Poissons Ratio (z) = 0.57097 0.57097
#
# Static dielectric constant tensor:
#      x y z
#    x 1.782570 0.000000 0.000000 
#    y 0.000000 1.782570 0.000000 
#    z 0.000000 0.000000 1.790720 
# 
# From -- ./inp_files/9557.got.cif
#   From: 2010.05.17/outbox.cif.g08.bks.cpg/sg136_5_cif.got.tgz:9557.got - 2010.05.20 12:54:53.
