data_PCOD9569563
_publ_section_title
;
Structure prediction by ZEFSAII (Michael W. Deem and Ramdas Pophale) SiO2 
 PCOD9569563
Probable space group: P 42/M N M
;
_chemical_formula_sum "Si O2"
_cell_formula_units_Z 120
_cell_length_a 14.498769
_cell_length_b 14.498769
_cell_length_c 30.770263
_cell_angle_alpha 90.000000
_cell_angle_beta 90.000000
_cell_angle_gamma 90.000000
_cell_volume 6468.349375
_symmetry_space_group_name_H-M "P 42/M N M"
_symmetry_group_IT_number 136
_symmetry_cell_setting 'tetragonal'
loop_
_space_group_symop_operation_xyz
x,y,z
1/2-y,1/2+x,1/2+z
-x,-y,z
1/2+y,1/2-x,1/2+z
1/2+x,1/2-y,1/2-z
1/2-x,1/2+y,1/2-z
y,x,-z
-y,-x,-z
-x,-y,-z
1/2+y,1/2-x,1/2-z
x,y,-z
1/2-y,1/2+x,1/2-z
1/2-x,1/2+y,1/2+z
1/2+x,1/2-y,1/2+z
-y,-x,z
y,x,z
loop_
_atom_site_type_symbol
_atom_site_label
_atom_site_fract_x
_atom_site_fract_y
_atom_site_fract_z
Si Si1 0.685484 0.937203 0.450757
Si Si2 0.653729 0.807534 0.928145
Si Si3 0.741450 0.111100 0.330891
Si Si4 0.903642 0.764831 0.640267
Si Si5 0.136761 0.437076 0.748659
Si Si6 0.650278 0.499060 0.500000
Si Si7 0.299319 0.980212 0.927921
Si Si8 0.758583 0.607393 0.664352
O O1 0.709710 0.911286 0.500000
O O2 0.749546 0.903069 0.411638
O O3 0.586153 0.886822 0.440563
O O4 0.695399 0.048742 0.446435
O O5 0.726986 0.726986 0.942673
O O6 0.649571 0.799217 0.875793
O O7 0.680735 0.912573 0.936394
O O8 0.836493 0.163508 0.322808
O O9 0.677803 0.119095 0.288962
O O10 0.753834 0.004005 0.340799
O O11 0.863598 0.863598 0.651304
O O12 0.834241 0.688187 0.658176
O O13 0.109948 0.539940 0.764029
O O14 0.209221 0.439981 0.709090
O O15 0.563729 0.563729 0.500000
O O16 0.606178 0.393823 0.500000
O O17 0.711841 0.530704 0.540963
O O18 0.271606 0.956140 0.878274
O O19 0.659948 0.659948 0.666062
#
# Coordination Sequence:
#
# PCOD9569563 Si02
#       8
#    16  16  16  16  16   8  16  16
#     4  10  21  36  55  88 118 150 192 246 288 341
#     4  10  22  37  57  82 117 157 191 234 293 352
#     4  10  20  37  56  80 112 148 188 229 280 341
#     4   9  19  36  56  79 110 148 189 233 284 336
#     4  11  21  34  56  86 116 147 185 233 291 348
#     4  11  24  40  59  86 119 155 197 244 294 354
#     4  11  21  38  59  84 113 153 199 242 291 349
#     4  10  20  36  57  82 112 146 188 242 291 338
#
# _framework density 18.551873000000001
#
# number of rings (size 3 to 8) (size 9 to 14) (size 15 to 20)
#    0.000    1.800    2.000    2.400    0.933    1.867 
#    0.000    0.000    0.000    0.800    0.000    3.733 
#    0.000    0.000    0.000    0.000    0.000    0.000 
#
# Total GULP energy -668076.478233 kJ/mol
# GULP energy per Si atom -5567.303985 kJ/mol
# Density = 1.850965 g / cm^3
# Si number density = 18.551873 Si / 1000 Ang^3
#
#
#
# Elastic Constant Matrix: (Units=GPa)
#
#
# Indices 1 2 3 4 5 6 
#
# 1 19.4402 77.7786 -0.1559 0.0000 0.0000 0.0000
# 2 77.7786 19.4421 -0.1557 0.0000 0.0000 0.0000
# 3 -0.1559 -0.1557 67.8542 0.0000 0.0000 0.0000
# 4 0.0000 0.0000 0.0000 8.0183 0.0000 0.0000
# 5 0.0000 0.0000 0.0000 0.0000 8.0193 0.0000
# 6 0.0000 0.0000 0.0000 0.0000 0.0000 32.7582
#
#
#
# Elastic Compliance Matrix: (Units=1/GPa)
#
#
# Indices 1 2 3 4 5 6 
#
# 1 -0.003428 0.013714 0.000024 0.000000 0.000000 0.000000
# 2 0.013714 -0.003428 0.000024 0.000000 0.000000 0.000000
# 3 0.000024 0.000024 0.014738 0.000000 0.000000 0.000000
# 4 0.000000 0.000000 0.000000 0.124714 0.000000 0.000000
# 5 0.000000 0.000000 0.000000 0.000000 0.124699 0.000000
# 6 0.000000 0.000000 0.000000 0.000000 0.000000 0.030527
#
#
# Mechanical properties :
#
#
# Convention : Reuss Voigt Hill
#
# Bulk Modulus (GPa) = 28.24527 29.07450 28.65989
# Shear Modulus (GPa) = 18.37550 11.71047 15.04298
#
# Velocity S-wave (km/s) = 3.15062 2.51515 2.85065
# Velocity P-wave (km/s) = 5.33791 4.91332 5.13001
#
# Compressibility (1/GPa) = 0.03540416
#
# Stress axis : x y z
#
# Youngs Moduli (GPa) = -291.71884 -291.74698 67.85373
#
# Poissons Ratio (x) = 4.00097 -0.00160
# Poissons Ratio (y) = 4.00059 -0.00160
# Poissons Ratio (z) = 0.00688 0.00690
#
# Static dielectric constant tensor:
#      x y z
#    x 1.643550 0.000000 0.000000 
#    y 0.000000 1.643550 0.000000 
#    z 0.000000 0.000000 1.657470 
# 
# From -- ./inp_files/10044.got.cif
#   From: 2010.05.17/outbox.cif.g08.bks.cpg/sg136_6_cif.got.tgz:10044.got - 2010.05.20 12:54:53.
