data_PCOD9569019
_publ_section_title
;
Structure prediction by ZEFSAII (Michael W. Deem and Ramdas Pophale) SiO2 
 PCOD9569019
Probable space group: P 42/M B C
;
_chemical_formula_sum "Si O2"
_cell_formula_units_Z 88
_cell_length_a 11.989443
_cell_length_b 11.989443
_cell_length_c 26.528305
_cell_angle_alpha 90.000000
_cell_angle_beta 90.000000
_cell_angle_gamma 90.000000
_cell_volume 3813.357453
_symmetry_space_group_name_H-M "P 42/M B C"
_symmetry_group_IT_number 135
_symmetry_cell_setting 'tetragonal'
loop_
_space_group_symop_operation_xyz
x,y,z
-y,x,1/2+z
-x,-y,z
y,-x,1/2+z
1/2+x,1/2-y,-z
1/2-x,1/2+y,-z
1/2+y,1/2+x,1/2-z
1/2-y,1/2-x,1/2-z
-x,-y,-z
y,-x,1/2-z
x,y,-z
-y,x,1/2-z
1/2-x,1/2+y,z
1/2+x,1/2-y,z
1/2-y,1/2-x,1/2+z
1/2+y,1/2+x,1/2+z
loop_
_atom_site_type_symbol
_atom_site_label
_atom_site_fract_x
_atom_site_fract_y
_atom_site_fract_z
Si Si1 0.466958 0.384282 0.414692
Si Si2 0.000000 0.500000 0.084078
Si Si3 0.382862 0.682936 0.179203
Si Si4 0.208713 0.398573 0.142677
Si Si5 0.179950 0.548350 0.500000
Si Si6 0.277664 0.041238 0.756369
Si Si7 0.308233 0.303023 0.500000
O O1 0.500000 0.500000 0.440214
O O2 0.401197 0.418227 0.363948
O O3 0.567002 0.308540 0.394195
O O4 0.387260 0.315060 0.451232
O O5 0.097597 0.447145 0.117313
O O6 0.045511 0.598778 0.048455
O O7 0.299336 0.768128 0.152368
O O8 0.320459 0.622593 0.225036
O O9 0.483950 0.748369 0.203998
O O10 0.215765 0.454384 0.197740
O O11 0.238558 0.422779 0.500000
O O12 0.238949 0.673351 0.500000
O O13 0.389872 0.110129 0.750000
#
# Coordination Sequence:
#
# PCOD9569019 Si02
#       7
#    16   8  16  16   8  16   8
#     4  11  27  46  74 104 150 192 246 320 385 465
#     4  11  22  46  73 104 148 202 251 311 384 460
#     4  11  26  42  69 104 141 195 243 308 378 456
#     4  11  23  44  70 101 145 192 254 302 381 455
#     4  11  26  44  80 110 155 202 255 326 389 473
#     4  11  24  40  66  99 144 185 248 301 368 442
#     4  12  25  52  72 120 147 202 262 316 401 471
#
# _framework density 23.076775999999999
#
# number of rings (size 3 to 8) (size 9 to 14) (size 15 to 20)
#    0.000    0.909    1.818    4.091    7.636    3.636 
#    0.000    0.000    0.000    0.000    0.000    0.000 
#    0.000    0.000    0.000    0.000    0.000    0.000 
#
# Total GULP energy -492216.296888 kJ/mol
# GULP energy per Si atom -5593.367010 kJ/mol
# Density = 2.302425 g / cm^3
# Si number density = 23.076776 Si / 1000 Ang^3
#
#
#
# Elastic Constant Matrix: (Units=GPa)
#
#
# Indices 1 2 3 4 5 6 
#
# 1 97.5899 26.9085 24.1515 0.0000 0.0000 0.0000
# 2 26.9085 97.5900 24.1521 0.0000 0.0000 0.0000
# 3 24.1515 24.1521 97.9088 0.0000 0.0000 0.0000
# 4 0.0000 0.0000 0.0000 -39.2685 0.0000 0.0000
# 5 0.0000 0.0000 0.0000 0.0000 -39.2909 0.0000
# 6 0.0000 0.0000 0.0000 0.0000 0.0000 39.1283
#
#
#
# Elastic Compliance Matrix: (Units=1/GPa)
#
#
# Indices 1 2 3 4 5 6 
#
# 1 0.011515 -0.002633 -0.002191 0.000000 0.000000 0.000000
# 2 -0.002633 0.011515 -0.002191 0.000000 0.000000 0.000000
# 3 -0.002191 -0.002191 0.011295 0.000000 0.000000 0.000000
# 4 0.000000 0.000000 0.000000 -0.025466 0.000000 0.000000
# 5 0.000000 0.000000 0.000000 0.000000 -0.025451 0.000000
# 6 0.000000 0.000000 0.000000 0.000000 0.000000 0.025557
#
#
# Mechanical properties :
#
#
# Convention : Reuss Voigt Hill
#
# Bulk Modulus (GPa) = 49.27331 49.27921 49.27626
# Shear Modulus (GPa) = 168.01161 6.63888 87.32524
#
# Velocity S-wave (km/s) = 8.54187 1.69797 6.15819
# Velocity P-wave (km/s) = 10.89417 5.02444 8.48316
#
# Compressibility (1/GPa) = 0.02029496
#
# Stress axis : x y z
#
# Youngs Moduli (GPa) = 86.84213 86.84200 88.53821
#
# Poissons Ratio (x) = 0.22864 0.19399
# Poissons Ratio (y) = 0.22864 0.19400
# Poissons Ratio (z) = 0.19027 0.19028
#
# Static dielectric constant tensor:
#      x y z
#    x 1.876110 0.000000 0.000000 
#    y 0.000000 1.876130 0.000000 
#    z 0.000000 0.000000 1.797430 
# 
# From -- ./inp_files/6811.got.cif
#   From: 2010.05.17/outbox.cif.g08.bks.cpg/sg135_4_cif.got.tgz:6811.got - 2010.05.20 12:50:20.
