data_PCOD9569409
_publ_section_title
;
Structure prediction by ZEFSAII (Michael W. Deem and Ramdas Pophale) SiO2 
 PCOD9569409
Probable space group: P 42/M N M
;
_chemical_formula_sum "Si O2"
_cell_formula_units_Z 96
_cell_length_a 25.601997
_cell_length_b 25.601997
_cell_length_c 8.985928
_cell_angle_alpha 90.000000
_cell_angle_beta 90.000000
_cell_angle_gamma 90.000000
_cell_volume 5889.936589
_symmetry_space_group_name_H-M "P 42/M N M"
_symmetry_group_IT_number 136
_symmetry_cell_setting 'tetragonal'
loop_
_space_group_symop_operation_xyz
x,y,z
1/2-y,1/2+x,1/2+z
-x,-y,z
1/2+y,1/2-x,1/2+z
1/2+x,1/2-y,1/2-z
1/2-x,1/2+y,1/2-z
y,x,-z
-y,-x,-z
-x,-y,-z
1/2+y,1/2-x,1/2-z
x,y,-z
1/2-y,1/2+x,1/2-z
1/2-x,1/2+y,1/2+z
1/2+x,1/2-y,1/2+z
-y,-x,z
y,x,z
loop_
_atom_site_type_symbol
_atom_site_label
_atom_site_fract_x
_atom_site_fract_y
_atom_site_fract_z
Si Si1 0.554649 0.752145 0.670867
Si Si2 0.941800 0.377721 0.834966
Si Si3 0.634579 0.944525 0.170385
Si Si4 0.671495 0.759397 0.322184
Si Si5 0.662363 0.249720 0.323331
Si Si6 0.244322 0.552862 0.175625
O O1 0.551009 0.733173 0.500000
O O2 0.553776 0.815289 0.666417
O O3 0.613509 0.742517 0.729666
O O4 0.502580 0.735426 0.758797
O O5 0.903418 0.397965 0.710818
O O6 0.001057 0.396259 0.813853
O O7 0.923148 0.393643 0.000000
O O8 0.682991 0.945489 0.281693
O O9 0.653923 0.941885 0.000000
O O10 0.667463 0.769875 0.500000
O O11 0.712092 0.712092 0.299718
O O12 0.697945 0.810139 0.246384
O O13 0.656619 0.242207 0.500000
O O14 0.703412 0.296589 0.297042
O O15 0.606529 0.263419 0.251852
O O16 0.252266 0.554590 0.000000
#
# Coordination Sequence:
#
# PCOD9569409 Si02
#       6
#    16  16  16  16  16  16
#     4   9  18  32  47  65  92 122 152 187 225 269
#     4   9  18  30  42  58  80 109 145 184 227 269
#     4  10  20  32  45  60  80 108 143 185 230 273
#     4   9  17  30  50  75 101 129 159 192 233 280
#     4  10  20  33  50  72  98 127 157 192 236 284
#     4  11  21  32  48  67  89 119 154 191 229 272
#
# _framework density 16.298985999999999
#
# number of rings (size 3 to 8) (size 9 to 14) (size 15 to 20)
#    0.000    2.333    0.000    4.500    0.000    6.667 
#    0.000    1.667    0.000    0.000    0.000    0.000 
#    0.000    0.667    0.000    7.667    0.000    2.167 
#
# Total GULP energy -534850.213349 kJ/mol
# GULP energy per Si atom -5571.356389 kJ/mol
# Density = 1.626189 g / cm^3
# Si number density = 16.298986 Si / 1000 Ang^3
#
#
#
# Elastic Constant Matrix: (Units=GPa)
#
#
# Indices 1 2 3 4 5 6 
#
# 1 76.0827 14.0721 31.0182 0.0000 0.0000 0.0000
# 2 14.0721 76.0827 31.0182 0.0000 0.0000 0.0000
# 3 31.0182 31.0182 67.5374 0.0000 0.0000 0.0000
# 4 0.0000 0.0000 0.0000 19.8730 0.0000 0.0000
# 5 0.0000 0.0000 0.0000 0.0000 19.8730 0.0000
# 6 0.0000 0.0000 0.0000 0.0000 0.0000 15.1540
#
#
#
# Elastic Compliance Matrix: (Units=1/GPa)
#
#
# Indices 1 2 3 4 5 6 
#
# 1 0.016172 0.000045 -0.007448 0.000000 0.000000 0.000000
# 2 0.000045 0.016172 -0.007448 0.000000 0.000000 0.000000
# 3 -0.007448 -0.007448 0.021648 0.000000 0.000000 0.000000
# 4 0.000000 0.000000 0.000000 0.050320 0.000000 0.000000
# 5 0.000000 0.000000 0.000000 0.000000 0.050320 0.000000
# 6 0.000000 0.000000 0.000000 0.000000 0.000000 0.065989
#
#
# Mechanical properties :
#
#
# Convention : Reuss Voigt Hill
#
# Bulk Modulus (GPa) = 41.16941 41.32445 41.24693
# Shear Modulus (GPa) = 19.34848 20.55294 19.95071
#
# Velocity S-wave (km/s) = 3.44917 3.55490 3.50243
# Velocity P-wave (km/s) = 6.41686 6.50068 6.45890
#
# Compressibility (1/GPa) = 0.02428988
#
# Stress axis : x y z
#
# Youngs Moduli (GPa) = 61.83631 61.83631 46.19341
#
# Poissons Ratio (x) = -0.00281 0.34406
# Poissons Ratio (y) = -0.00281 0.34406
# Poissons Ratio (z) = 0.46057 0.46057
#
# Static dielectric constant tensor:
#      x y z
#    x 1.573470 0.000000 0.000000 
#    y 0.000000 1.573470 0.000000 
#    z 0.000000 0.000000 1.561270 
# 
# From -- ./inp_files/1983.got.cif
#   From: 2010.05.17/outbox.cif.g08.bks.cpg/sg136_1_cif.got.tgz:1983.got - 2010.05.20 12:54:53.
