data_PCOD9569382
_publ_section_title
;
Structure prediction by ZEFSAII (Michael W. Deem and Ramdas Pophale) SiO2 
 PCOD9569382
Probable space group: P 42/M N M
;
_chemical_formula_sum "Si O2"
_cell_formula_units_Z 108
_cell_length_a 15.325516
_cell_length_b 15.325516
_cell_length_c 24.932752
_cell_angle_alpha 90.000000
_cell_angle_beta 90.000000
_cell_angle_gamma 90.000000
_cell_volume 5855.991382
_symmetry_space_group_name_H-M "P 42/M N M"
_symmetry_group_IT_number 136
_symmetry_cell_setting 'tetragonal'
loop_
_space_group_symop_operation_xyz
x,y,z
1/2-y,1/2+x,1/2+z
-x,-y,z
1/2+y,1/2-x,1/2+z
1/2+x,1/2-y,1/2-z
1/2-x,1/2+y,1/2-z
y,x,-z
-y,-x,-z
-x,-y,-z
1/2+y,1/2-x,1/2-z
x,y,-z
1/2-y,1/2+x,1/2-z
1/2-x,1/2+y,1/2+z
1/2+x,1/2-y,1/2+z
-y,-x,z
y,x,z
loop_
_atom_site_type_symbol
_atom_site_label
_atom_site_fract_x
_atom_site_fract_y
_atom_site_fract_z
Si Si1 0.057941 0.586511 0.386725
Si Si2 0.000972 0.852145 0.798484
Si Si3 0.097393 0.406543 0.767926
Si Si4 0.997610 0.854454 0.000000
Si Si5 0.594372 0.260771 0.207286
Si Si6 0.812397 0.812397 0.500000
Si Si7 0.725736 0.020028 0.099519
Si Si8 0.099240 0.312478 0.588994
O O1 0.075015 0.627173 0.327909
O O2 0.151391 0.554068 0.406767
O O3 0.000000 0.500000 0.376087
O O4 0.994816 0.643680 0.423987
O O5 0.917596 0.917596 0.807660
O O6 0.984257 0.801450 0.742527
O O7 0.009165 0.780866 0.845746
O O8 0.085530 0.914471 0.797332
O O9 0.108774 0.492523 0.732188
O O10 0.132989 0.321164 0.740127
O O11 0.011364 0.794437 0.948287
O O12 0.071866 0.928134 0.000000
O O13 0.905636 0.905636 0.000000
O O14 0.664496 0.335505 0.205126
O O15 0.581179 0.229929 0.146889
O O16 0.864556 0.755800 0.546711
O O17 0.672355 0.111232 0.096109
#
# Coordination Sequence:
#
# PCOD9569382 Si02
#       8
#    16  16  16   8  16   4  16  16
#     4  10  19  35  56  89 116 160 202 254 324 392
#     4  10  22  38  58  89 132 173 208 251 313 389
#     4  11  17  31  58  83 120 156 196 247 314 392
#     4  11  25  42  63  89 126 176 220 250 303 392
#     4  11  22  36  55  89 126 164 208 256 320 386
#     4  12  26  44  54  86 126 166 216 292 320 368
#     4  11  22  38  63  91 127 167 212 263 321 394
#     4  11  24  38  61  87 124 164 218 275 337 375
#
# _framework density 18.44265
#
# number of rings (size 3 to 8) (size 9 to 14) (size 15 to 20)
#    0.000    1.259    5.185    2.222    3.111    1.778 
#    0.000    2.222    0.000    0.889    0.000    1.037 
#    0.000    0.000    0.000    0.000    0.000    0.000 
#
# Total GULP energy -601400.974712 kJ/mol
# GULP energy per Si atom -5568.527544 kJ/mol
# Density = 1.840067 g / cm^3
# Si number density = 18.442650 Si / 1000 Ang^3
#
#
#
# Elastic Constant Matrix: (Units=GPa)
#
#
# Indices 1 2 3 4 5 6 
#
# 1 92.1946 40.0883 47.9429 0.0000 0.0000 0.0000
# 2 40.0883 92.1950 47.9431 0.0000 0.0000 0.0000
# 3 47.9429 47.9431 108.6776 0.0000 0.0000 0.0000
# 4 0.0000 0.0000 0.0000 37.6235 0.0000 0.0000
# 5 0.0000 0.0000 0.0000 0.0000 37.6151 0.0000
# 6 0.0000 0.0000 0.0000 0.0000 0.0000 20.7649
#
#
#
# Elastic Compliance Matrix: (Units=1/GPa)
#
#
# Indices 1 2 3 4 5 6 
#
# 1 0.015152 -0.004039 -0.004903 0.000000 0.000000 0.000000
# 2 -0.004039 0.015152 -0.004903 0.000000 0.000000 0.000000
# 3 -0.004903 -0.004903 0.013527 0.000000 0.000000 0.000000
# 4 0.000000 0.000000 0.000000 0.026579 0.000000 0.000000
# 5 0.000000 0.000000 0.000000 0.000000 0.026585 0.000000
# 6 0.000000 0.000000 0.000000 0.000000 0.000000 0.048158
#
#
# Mechanical properties :
#
#
# Convention : Reuss Voigt Hill
#
# Bulk Modulus (GPa) = 61.94575 62.77952 62.36264
# Shear Modulus (GPa) = 28.05465 29.67357 28.86411
#
# Velocity S-wave (km/s) = 3.90447 4.01554 3.96039
# Velocity P-wave (km/s) = 7.34763 7.45746 7.40275
#
# Compressibility (1/GPa) = 0.01614316
#
# Stress axis : x y z
#
# Youngs Moduli (GPa) = 65.99640 65.99661 73.92593
#
# Poissons Ratio (x) = 0.26657 0.36243
# Poissons Ratio (y) = 0.26657 0.36243
# Poissons Ratio (z) = 0.32355 0.32355
#
# Static dielectric constant tensor:
#      x y z
#    x 1.656570 0.000000 0.000000 
#    y 0.000000 1.656570 0.000000 
#    z 0.000000 0.000000 1.656920 
# 
# From -- ./inp_files/8535.got.cif
#   From: 2010.05.17/outbox.cif.g08.bks.cpg/sg136_5_cif.got.tgz:8535.got - 2010.05.20 12:54:53.
