data_PCOD9569185
_publ_section_title
;
Structure prediction by ZEFSAII (Michael W. Deem and Ramdas Pophale) SiO2 
 PCOD9569185
Probable space group: P 42/M N M
;
_chemical_formula_sum "Si O2"
_cell_formula_units_Z 128
_cell_length_a 17.328187
_cell_length_b 17.328187
_cell_length_c 23.969546
_cell_angle_alpha 90.000000
_cell_angle_beta 90.000000
_cell_angle_gamma 90.000000
_cell_volume 7197.241250
_symmetry_space_group_name_H-M "P 42/M N M"
_symmetry_group_IT_number 136
_symmetry_cell_setting 'tetragonal'
loop_
_space_group_symop_operation_xyz
x,y,z
1/2-y,1/2+x,1/2+z
-x,-y,z
1/2+y,1/2-x,1/2+z
1/2+x,1/2-y,1/2-z
1/2-x,1/2+y,1/2-z
y,x,-z
-y,-x,-z
-x,-y,-z
1/2+y,1/2-x,1/2-z
x,y,-z
1/2-y,1/2+x,1/2-z
1/2-x,1/2+y,1/2+z
1/2+x,1/2-y,1/2+z
-y,-x,z
y,x,z
loop_
_atom_site_type_symbol
_atom_site_label
_atom_site_fract_x
_atom_site_fract_y
_atom_site_fract_z
Si Si1 0.389623 0.947172 0.729760
Si Si2 0.603350 0.154502 0.062395
Si Si3 0.821346 0.700830 0.242311
Si Si4 0.003915 0.870434 0.735460
Si Si5 0.499496 0.805133 0.566027
Si Si6 0.908014 0.783762 0.344769
Si Si7 0.541236 0.921323 0.893807
Si Si8 0.204536 0.074986 0.159950
O O1 0.470380 0.901547 0.741613
O O2 0.325020 0.890035 0.752301
O O3 0.375362 0.954546 0.663993
O O4 0.663355 0.086259 0.078825
O O5 0.595244 0.223637 0.105410
O O6 0.518923 0.115345 0.063858
O O7 0.622900 0.179813 0.000000
O O8 0.737305 0.737305 0.237093
O O9 0.864016 0.742489 0.293518
O O10 0.871377 0.729098 0.188696
O O11 0.084372 0.915629 0.735346
O O12 0.987147 0.814776 0.682684
O O13 0.983812 0.825002 0.792296
O O14 0.936442 0.936442 0.732612
O O15 0.496482 0.786907 0.500000
O O16 0.443814 0.878079 0.579178
O O17 0.470187 0.738186 0.606979
O O18 0.857780 0.857780 0.361644
O O19 0.500000 0.000000 0.874128
O O20 0.133889 0.133889 0.146995
#
# Coordination Sequence:
#
# PCOD9569185 Si02
#       8
#    16  16  16  16  16  16  16  16
#     4  11  19  27  48  81 102 130 168 214 273 314
#     4  10  21  35  52  72 101 142 182 220 265 311
#     4   9  18  31  47  72 107 138 163 200 261 329
#     4   8  15  31  57  84 105 130 168 214 267 323
#     4  10  20  33  50  73 101 140 187 225 259 309
#     4   9  18  32  53  78 103 135 170 211 261 318
#     4  10  18  32  48  73 100 128 171 221 264 310
#     4   9  17  31  52  77 106 139 174 219 267 313
#
# _framework density 17.784593000000001
#
# number of rings (size 3 to 8) (size 9 to 14) (size 15 to 20)
#    0.000    2.500    2.500    2.625    1.750    2.000 
#    0.000    0.625    0.000   12.000    0.000    3.500 
#    0.000    0.000    0.000    0.000    0.000    0.000 
#
# Total GULP energy -713336.319759 kJ/mol
# GULP energy per Si atom -5572.939998 kJ/mol
# Density = 1.774411 g / cm^3
# Si number density = 17.784593 Si / 1000 Ang^3
#
#
#
# Elastic Constant Matrix: (Units=GPa)
#
#
# Indices 1 2 3 4 5 6 
#
# 1 71.0728 40.0984 42.4463 0.0000 0.0000 0.0000
# 2 40.0984 71.0728 42.4463 0.0000 0.0000 0.0000
# 3 42.4463 42.4463 100.7720 0.0000 0.0000 0.0000
# 4 0.0000 0.0000 0.0000 17.6376 0.0000 0.0000
# 5 0.0000 0.0000 0.0000 0.0000 17.6376 0.0000
# 6 0.0000 0.0000 0.0000 0.0000 0.0000 17.6305
#
#
#
# Elastic Compliance Matrix: (Units=1/GPa)
#
#
# Indices 1 2 3 4 5 6 
#
# 1 0.022772 -0.009512 -0.005585 0.000000 0.000000 0.000000
# 2 -0.009512 0.022772 -0.005585 0.000000 0.000000 0.000000
# 3 -0.005585 -0.005585 0.014629 0.000000 0.000000 0.000000
# 4 0.000000 0.000000 0.000000 0.056697 0.000000 0.000000
# 5 0.000000 0.000000 0.000000 0.000000 0.056697 0.000000
# 6 0.000000 0.000000 0.000000 0.000000 0.000000 0.056720
#
#
# Mechanical properties :
#
#
# Convention : Reuss Voigt Hill
#
# Bulk Modulus (GPa) = 53.16986 54.76662 53.96824
# Shear Modulus (GPa) = 17.99063 18.44293 18.21678
#
# Velocity S-wave (km/s) = 3.18399 3.22377 3.20394
# Velocity P-wave (km/s) = 6.59383 6.68717 6.64066
#
# Compressibility (1/GPa) = 0.01880765
#
# Stress axis : x y z
#
# Youngs Moduli (GPa) = 43.91272 43.91272 68.35915
#
# Poissons Ratio (x) = 0.41771 0.38181
# Poissons Ratio (y) = 0.41771 0.38181
# Poissons Ratio (z) = 0.24527 0.24527
#
# Static dielectric constant tensor:
#      x y z
#    x 1.642130 0.000000 0.000000 
#    y 0.000000 1.642130 0.000000 
#    z 0.000000 0.000000 1.602220 
# 
# From -- ./inp_files/8637.got.cif
#   From: 2010.05.17/outbox.cif.g08.bks.cpg/sg136_5_cif.got.tgz:8637.got - 2010.05.20 12:54:53.
