data_PCOD9569268
_publ_section_title
;
Structure prediction by ZEFSAII (Michael W. Deem and Ramdas Pophale) SiO2 
 PCOD9569268
Probable space group: P 42/M N M
;
_chemical_formula_sum "Si O2"
_cell_formula_units_Z 96
_cell_length_a 25.855046
_cell_length_b 25.855046
_cell_length_c 9.162338
_cell_angle_alpha 90.000000
_cell_angle_beta 90.000000
_cell_angle_gamma 90.000000
_cell_volume 6124.870892
_symmetry_space_group_name_H-M "P 42/M N M"
_symmetry_group_IT_number 136
_symmetry_cell_setting 'tetragonal'
loop_
_space_group_symop_operation_xyz
x,y,z
1/2-y,1/2+x,1/2+z
-x,-y,z
1/2+y,1/2-x,1/2+z
1/2+x,1/2-y,1/2-z
1/2-x,1/2+y,1/2-z
y,x,-z
-y,-x,-z
-x,-y,-z
1/2+y,1/2-x,1/2-z
x,y,-z
1/2-y,1/2+x,1/2-z
1/2-x,1/2+y,1/2+z
1/2+x,1/2-y,1/2+z
-y,-x,z
y,x,z
loop_
_atom_site_type_symbol
_atom_site_label
_atom_site_fract_x
_atom_site_fract_y
_atom_site_fract_z
Si Si1 0.443863 0.860658 0.175534
Si Si2 0.248481 0.438008 0.167899
Si Si3 0.357586 0.558973 0.324569
Si Si4 0.061052 0.853971 0.175477
Si Si5 0.643127 0.054559 0.825610
Si Si6 0.246779 0.063579 0.666823
O O1 0.498263 0.867824 0.256789
O O2 0.403626 0.906188 0.205282
O O3 0.420853 0.804247 0.216965
O O4 0.453370 0.858517 0.000000
O O5 0.301126 0.421436 0.247054
O O6 0.196390 0.424980 0.254841
O O7 0.250567 0.500855 0.167743
O O8 0.246269 0.420885 0.000000
O O9 0.355840 0.560402 0.500000
O O10 0.404119 0.595882 0.274968
O O11 0.364894 0.498726 0.282324
O O12 0.302577 0.577721 0.262509
O O13 0.098730 0.901271 0.212123
O O14 0.062032 0.846687 0.000000
O O15 0.649271 0.049969 0.000000
O O16 0.238882 0.080616 0.500000
#
# Coordination Sequence:
#
# PCOD9569268 Si02
#       6
#    16  16  16  16  16  16
#     4   9  19  33  47  68  96 122 151 188 228 270
#     4   9  17  30  47  66  90 119 153 192 230 269
#     4   9  17  28  43  66  94 120 148 185 227 269
#     4   9  17  29  46  68  93 122 155 187 223 273
#     4  10  19  31  49  70  93 122 154 188 227 273
#     4   8  15  29  46  62  84 116 152 186 219 261
#
# _framework density 15.6738
#
# number of rings (size 3 to 8) (size 9 to 14) (size 15 to 20)
#    0.000    3.000    0.000    2.000    0.000    6.667 
#    0.000    3.333    0.000    1.000    0.000    7.000 
#    0.000    0.000    0.000    0.000    0.000    0.000 
#
# Total GULP energy -534508.033984 kJ/mol
# GULP energy per Si atom -5567.792021 kJ/mol
# Density = 1.563813 g / cm^3
# Si number density = 15.673800 Si / 1000 Ang^3
#
#
#
# Elastic Constant Matrix: (Units=GPa)
#
#
# Indices 1 2 3 4 5 6 
#
# 1 103.6152 72.0473 49.1471 0.0000 0.0000 0.0000
# 2 72.0473 103.6152 49.1471 0.0000 0.0000 0.0000
# 3 49.1471 49.1471 46.3219 0.0000 0.0000 0.0000
# 4 0.0000 0.0000 0.0000 21.3790 0.0000 0.0000
# 5 0.0000 0.0000 0.0000 0.0000 21.3790 0.0000
# 6 0.0000 0.0000 0.0000 0.0000 0.0000 -1.0114
#
#
#
# Elastic Compliance Matrix: (Units=1/GPa)
#
#
# Indices 1 2 3 4 5 6 
#
# 1 0.022844 -0.008833 -0.014865 0.000000 0.000000 0.000000
# 2 -0.008833 0.022844 -0.014865 0.000000 0.000000 0.000000
# 3 -0.014865 -0.014865 0.053132 0.000000 0.000000 0.000000
# 4 0.000000 0.000000 0.000000 0.046775 0.000000 0.000000
# 5 0.000000 0.000000 0.000000 0.000000 0.046775 0.000000
# 6 0.000000 0.000000 0.000000 0.000000 0.000000 -0.988689
#
#
# Mechanical properties :
#
#
# Convention : Reuss Voigt Hill
#
# Bulk Modulus (GPa) = 46.09929 66.02616 56.06272
# Shear Modulus (GPa) = -7.02288 13.89669 3.43691
#
# Velocity S-wave (km/s) = -2.11905 2.98085 1.48241
# Velocity P-wave (km/s) = 4.84648 7.35281 6.22705
#
# Compressibility (1/GPa) = 0.02169231
#
# Stress axis : x y z
#
# Youngs Moduli (GPa) = 43.77455 43.77455 18.82097
#
# Poissons Ratio (x) = 0.38668 0.27978
# Poissons Ratio (y) = 0.38668 0.27978
# Poissons Ratio (z) = 0.65073 0.65073
#
# Static dielectric constant tensor:
#      x y z
#    x 1.515990 0.000000 0.000000 
#    y 0.000000 1.515990 0.000000 
#    z 0.000000 0.000000 1.531780 
# 
# From -- ./inp_files/2122.got.cif
#   From: 2010.05.17/outbox.cif.g08.bks.cpg/sg136_2_cif.got.tgz:2122.got - 2010.05.20 12:54:53.
