data_PCOD9569753
_publ_section_title
;
Structure prediction by ZEFSAII (Michael W. Deem and Ramdas Pophale) SiO2 
 PCOD9569753
Probable space group: P 42/M N M
;
_chemical_formula_sum "Si O2"
_cell_formula_units_Z 112
_cell_length_a 14.399948
_cell_length_b 14.399948
_cell_length_c 26.773196
_cell_angle_alpha 90.000000
_cell_angle_beta 90.000000
_cell_angle_gamma 90.000000
_cell_volume 5551.649827
_symmetry_space_group_name_H-M "P 42/M N M"
_symmetry_group_IT_number 136
_symmetry_cell_setting 'tetragonal'
loop_
_space_group_symop_operation_xyz
x,y,z
1/2-y,1/2+x,1/2+z
-x,-y,z
1/2+y,1/2-x,1/2+z
1/2+x,1/2-y,1/2-z
1/2-x,1/2+y,1/2-z
y,x,-z
-y,-x,-z
-x,-y,-z
1/2+y,1/2-x,1/2-z
x,y,-z
1/2-y,1/2+x,1/2-z
1/2-x,1/2+y,1/2+z
1/2+x,1/2-y,1/2+z
-y,-x,z
y,x,z
loop_
_atom_site_type_symbol
_atom_site_label
_atom_site_fract_x
_atom_site_fract_y
_atom_site_fract_z
Si Si1 0.495326 0.647902 0.688495
Si Si2 0.646118 0.202708 0.199269
Si Si3 0.605442 0.758901 0.390710
Si Si4 0.236066 0.438434 0.221972
Si Si5 0.849211 0.991160 0.558080
Si Si6 0.470280 0.893355 0.558257
Si Si7 0.371640 0.221978 0.888505
O O1 0.391362 0.608638 0.685860
O O2 0.565008 0.565008 0.676229
O O3 0.524248 0.722807 0.647167
O O4 0.524115 0.678571 0.744250
O O5 0.697897 0.302104 0.207246
O O6 0.677063 0.168674 0.144805
O O7 0.687356 0.131092 0.239662
O O8 0.536791 0.193612 0.206232
O O9 0.672035 0.672035 0.406604
O O10 0.554863 0.822129 0.431432
O O11 0.240386 0.383760 0.170249
O O12 0.825906 0.976997 0.500000
O O13 0.929847 0.070154 0.559936
O O14 0.764706 0.034863 0.587235
O O15 0.897408 0.897408 0.578020
O O16 0.442287 0.888117 0.500000
O O17 0.383544 0.866704 0.593489
O O18 0.500000 0.000000 0.568673
O O19 0.283473 0.283473 0.906032
#
# Coordination Sequence:
#
# PCOD9569753 Si02
#       7
#    16  16  16  16  16  16  16
#     4   9  18  34  57  86 121 160 199 248 311 371
#     4  10  22  39  58  86 122 162 210 261 315 378
#     4   9  20  41  64  87 118 158 211 265 317 384
#     4  11  22  36  56  85 123 163 207 253 308 373
#     4   8  15  30  52  79 114 155 196 240 296 362
#     4  11  25  44  65  92 127 166 210 263 327 392
#     4  11  23  38  61  92 125 160 208 266 321 382
#
# _framework density 20.174181999999998
#
# number of rings (size 3 to 8) (size 9 to 14) (size 15 to 20)
#    0.000    2.143    0.000    4.286    4.000    3.143 
#    0.000    2.143    0.000    0.857    0.000    3.000 
#    0.000    0.000    0.000    0.000    0.000    0.000 
#
# Total GULP energy -623993.988906 kJ/mol
# GULP energy per Si atom -5571.374901 kJ/mol
# Density = 2.012826 g / cm^3
# Si number density = 20.174182 Si / 1000 Ang^3
#
#
#
# Elastic Constant Matrix: (Units=GPa)
#
#
# Indices 1 2 3 4 5 6 
#
# 1 75.9937 27.6073 24.1213 0.0000 0.0000 0.0000
# 2 27.6073 75.9937 24.1213 0.0000 0.0000 0.0000
# 3 24.1213 24.1213 49.2068 0.0000 0.0000 0.0000
# 4 0.0000 0.0000 0.0000 38.5158 0.0000 0.0000
# 5 0.0000 0.0000 0.0000 0.0000 38.5158 0.0000
# 6 0.0000 0.0000 0.0000 0.0000 0.0000 33.9473
#
#
#
# Elastic Compliance Matrix: (Units=1/GPa)
#
#
# Indices 1 2 3 4 5 6 
#
# 1 0.016587 -0.004080 -0.006131 0.000000 0.000000 0.000000
# 2 -0.004080 0.016587 -0.006131 0.000000 0.000000 0.000000
# 3 -0.006131 -0.006131 0.026333 0.000000 0.000000 0.000000
# 4 0.000000 0.000000 0.000000 0.025963 0.000000 0.000000
# 5 0.000000 0.000000 0.000000 0.000000 0.025963 0.000000
# 6 0.000000 0.000000 0.000000 0.000000 0.000000 0.029457
#
#
# Mechanical properties :
#
#
# Convention : Reuss Voigt Hill
#
# Bulk Modulus (GPa) = 37.28059 39.21043 38.24551
# Shear Modulus (GPa) = 27.39466 30.55207 28.97337
#
# Velocity S-wave (km/s) = 3.68898 3.89577 3.79378
# Velocity P-wave (km/s) = 6.05510 6.30192 6.17974
#
# Compressibility (1/GPa) = 0.02682361
#
# Stress axis : x y z
#
# Youngs Moduli (GPa) = 60.28750 60.28750 37.97460
#
# Poissons Ratio (x) = 0.24596 0.23283
# Poissons Ratio (y) = 0.24596 0.23283
# Poissons Ratio (z) = 0.36963 0.36963
#
# Static dielectric constant tensor:
#      x y z
#    x 1.800100 0.000000 0.000000 
#    y 0.000000 1.800100 0.000000 
#    z 0.000000 0.000000 1.705440 
# 
# From -- ./inp_files/8483.got.cif
#   From: 2010.05.17/outbox.cif.g08.bks.cpg/sg136_5_cif.got.tgz:8483.got - 2010.05.20 12:54:53.
