data_PCOD9569270
_publ_section_title
;
Structure prediction by ZEFSAII (Michael W. Deem and Ramdas Pophale) SiO2 
 PCOD9569270
Probable space group: P 42/M N M
;
_chemical_formula_sum "Si O2"
_cell_formula_units_Z 72
_cell_length_a 10.859873
_cell_length_b 10.859873
_cell_length_c 27.684605
_cell_angle_alpha 90.000000
_cell_angle_beta 90.000000
_cell_angle_gamma 90.000000
_cell_volume 3265.034874
_symmetry_space_group_name_H-M "P 42/M N M"
_symmetry_group_IT_number 136
_symmetry_cell_setting 'tetragonal'
loop_
_space_group_symop_operation_xyz
x,y,z
1/2-y,1/2+x,1/2+z
-x,-y,z
1/2+y,1/2-x,1/2+z
1/2+x,1/2-y,1/2-z
1/2-x,1/2+y,1/2-z
y,x,-z
-y,-x,-z
-x,-y,-z
1/2+y,1/2-x,1/2-z
x,y,-z
1/2-y,1/2+x,1/2-z
1/2-x,1/2+y,1/2+z
1/2+x,1/2-y,1/2+z
-y,-x,z
y,x,z
loop_
_atom_site_type_symbol
_atom_site_label
_atom_site_fract_x
_atom_site_fract_y
_atom_site_fract_z
Si Si1 0.703158 0.491356 0.871582
Si Si2 0.881765 0.669293 0.910983
Si Si3 0.004573 0.792130 0.000000
Si Si4 0.991112 0.190787 0.163932
Si Si5 0.299284 0.007814 0.737647
O O1 0.633186 0.366815 0.885750
O O2 0.598789 0.598789 0.870465
O O3 0.811851 0.539652 0.906424
O O4 0.753296 0.481133 0.816767
O O5 0.770036 0.770036 0.913317
O O6 0.960665 0.687956 0.862006
O O7 0.972783 0.707246 0.953898
O O8 0.134814 0.865187 0.000000
O O9 0.901619 0.901619 0.000000
O O10 0.087321 0.087321 0.146900
O O11 0.000928 0.197381 0.221171
O O12 0.856444 0.143557 0.149857
O O13 0.378676 0.885477 0.747211
#
# Coordination Sequence:
#
# PCOD9569270 Si02
#       5
#    16  16   8  16  16
#     4  10  20  34  52  74 105 149 194 236 294 365
#     4   9  17  31  49  75 111 145 186 243 301 362
#     4   9  16  28  51  81 112 149 192 247 317 375
#     4  10  19  31  50  75 104 141 183 230 290 356
#     4  11  22  34  49  73 105 144 189 234 289 349
#
# _framework density 22.051832999999998
#
# number of rings (size 3 to 8) (size 9 to 14) (size 15 to 20)
#    0.000    2.111    2.222    2.000    0.000    7.111 
#    0.000    0.556    0.000    3.333    0.000    3.111 
#    0.000    3.556    0.000    0.000    0.000    0.000 
#
# Total GULP energy -401615.757314 kJ/mol
# GULP energy per Si atom -5577.996629 kJ/mol
# Density = 2.200164 g / cm^3
# Si number density = 22.051833 Si / 1000 Ang^3
#
#
#
# Elastic Constant Matrix: (Units=GPa)
#
#
# Indices 1 2 3 4 5 6 
#
# 1 77.7854 66.4151 33.3645 0.0000 0.0000 0.0000
# 2 66.4151 77.7857 33.3646 0.0000 0.0000 0.0000
# 3 33.3645 33.3646 96.0493 0.0000 0.0000 0.0000
# 4 0.0000 0.0000 0.0000 -14.6158 0.0000 0.0000
# 5 0.0000 0.0000 0.0000 0.0000 -14.6147 0.0000
# 6 0.0000 0.0000 0.0000 0.0000 0.0000 -202.8945
#
#
#
# Elastic Compliance Matrix: (Units=1/GPa)
#
#
# Indices 1 2 3 4 5 6 
#
# 1 0.048105 -0.039842 -0.002870 0.000000 0.000000 0.000000
# 2 -0.039842 0.048105 -0.002870 0.000000 0.000000 0.000000
# 3 -0.002870 -0.002870 0.012405 0.000000 0.000000 0.000000
# 4 0.000000 0.000000 0.000000 -0.068419 0.000000 0.000000
# 5 0.000000 0.000000 0.000000 0.000000 -0.068424 0.000000
# 6 0.000000 0.000000 0.000000 0.000000 0.000000 -0.004929
#
#
# Mechanical properties :
#
#
# Convention : Reuss Voigt Hill
#
# Bulk Modulus (GPa) = 57.30587 57.54541 57.42564
# Shear Modulus (GPa) = 78.33885 -38.52656 19.90614
#
# Velocity S-wave (km/s) = 5.96674 -4.18436 3.00775
# Velocity P-wave (km/s) = 8.57395 1.67543 6.17737
#
# Compressibility (1/GPa) = 0.01745022
#
# Stress axis : x y z
#
# Youngs Moduli (GPa) = 20.78781 20.78788 80.60988
#
# Poissons Ratio (x) = 0.82823 0.23137
# Poissons Ratio (y) = 0.82823 0.23138
# Poissons Ratio (z) = 0.05967 0.05967
#
# Static dielectric constant tensor:
#      x y z
#    x 1.881930 0.000000 0.000000 
#    y 0.000000 1.881930 0.000000 
#    z 0.000000 0.000000 1.790070 
# 
# From -- ./inp_files/8905.got.cif
#   From: 2010.05.17/outbox.cif.g08.bks.cpg/sg136_5_cif.got.tgz:8905.got - 2010.05.20 12:54:53.
