data_PCOD9569269
_publ_section_title
;
Structure prediction by ZEFSAII (Michael W. Deem and Ramdas Pophale) SiO2 
 PCOD9569269
Probable space group: P 42/M N M
;
_chemical_formula_sum "Si O2"
_cell_formula_units_Z 80
_cell_length_a 17.076356
_cell_length_b 17.076356
_cell_length_c 14.702495
_cell_angle_alpha 90.000000
_cell_angle_beta 90.000000
_cell_angle_gamma 90.000000
_cell_volume 4287.275980
_symmetry_space_group_name_H-M "P 42/M N M"
_symmetry_group_IT_number 136
_symmetry_cell_setting 'tetragonal'
loop_
_space_group_symop_operation_xyz
x,y,z
1/2-y,1/2+x,1/2+z
-x,-y,z
1/2+y,1/2-x,1/2+z
1/2+x,1/2-y,1/2-z
1/2-x,1/2+y,1/2-z
y,x,-z
-y,-x,-z
-x,-y,-z
1/2+y,1/2-x,1/2-z
x,y,-z
1/2-y,1/2+x,1/2-z
1/2-x,1/2+y,1/2+z
1/2+x,1/2-y,1/2+z
-y,-x,z
y,x,z
loop_
_atom_site_type_symbol
_atom_site_label
_atom_site_fract_x
_atom_site_fract_y
_atom_site_fract_z
Si Si1 0.720800 0.950653 0.798890
Si Si2 0.167330 0.705289 0.605235
Si Si3 0.286542 0.021637 0.601176
Si Si4 0.996490 0.124510 0.109019
Si Si5 0.462364 0.084703 0.396043
O O1 0.699480 0.863841 0.831950
O O2 0.789795 0.987810 0.856940
O O3 0.750365 0.950855 0.695244
O O4 0.644817 0.004557 0.821713
O O5 0.185704 0.684921 0.500000
O O6 0.213372 0.786629 0.624619
O O7 0.072969 0.707391 0.610533
O O8 0.252940 0.036663 0.500000
O O9 0.370361 0.065958 0.604643
O O10 0.067166 0.067166 0.137311
O O11 0.995532 0.124761 0.000000
O O12 0.916215 0.083786 0.140793
O O13 0.483963 0.110651 0.500000
O O14 0.500000 0.000000 0.381282
#
# Coordination Sequence:
#
# PCOD9569269 Si02
#       5
#    16  16  16  16  16
#     4  12  20  31  56  82 105 143 187 222 270 336
#     4  10  20  35  56  81 106 134 180 238 281 317
#     4  10  22  36  48  73 113 152 184 222 270 324
#     4   9  19  36  57  83 112 136 169 228 291 337
#     4  10  19  31  49  75 111 142 170 215 270 330
#
# _framework density 18.659867999999999
#
# number of rings (size 3 to 8) (size 9 to 14) (size 15 to 20)
#    0.000    1.800    2.000    4.200    0.000    2.400 
#    0.000    0.000    0.000    2.400    0.000    4.200 
#    0.000    0.000    0.000    0.000    0.000    0.000 
#
# Total GULP energy -446005.941067 kJ/mol
# GULP energy per Si atom -5575.074263 kJ/mol
# Density = 1.861740 g / cm^3
# Si number density = 18.659868 Si / 1000 Ang^3
#
#
#
# Elastic Constant Matrix: (Units=GPa)
#
#
# Indices 1 2 3 4 5 6 
#
# 1 32.7534 2.4334 12.8710 0.0000 0.0000 0.0000
# 2 2.4334 32.7534 12.8710 0.0000 0.0000 0.0000
# 3 12.8710 12.8710 82.5444 0.0000 0.0000 0.0000
# 4 0.0000 0.0000 0.0000 2.1581 0.0000 0.0000
# 5 0.0000 0.0000 0.0000 0.0000 2.1581 0.0000
# 6 0.0000 0.0000 0.0000 0.0000 0.0000 18.1686
#
#
#
# Elastic Compliance Matrix: (Units=1/GPa)
#
#
# Indices 1 2 3 4 5 6 
#
# 1 0.032530 -0.000451 -0.005002 0.000000 0.000000 0.000000
# 2 -0.000451 0.032530 -0.005002 0.000000 0.000000 0.000000
# 3 -0.005002 -0.005002 0.013675 0.000000 0.000000 0.000000
# 4 0.000000 0.000000 0.000000 0.463372 0.000000 0.000000
# 5 0.000000 0.000000 0.000000 0.000000 0.463372 0.000000
# 6 0.000000 0.000000 0.000000 0.000000 0.000000 0.055040
#
#
# Mechanical properties :
#
#
# Convention : Reuss Voigt Hill
#
# Bulk Modulus (GPa) = 17.29365 22.71135 20.00250
# Shear Modulus (GPa) = 4.54254 12.48868 8.51561
#
# Velocity S-wave (km/s) = 1.56195 2.58985 2.13858
# Velocity P-wave (km/s) = 3.54131 4.59791 4.10376
#
# Compressibility (1/GPa) = 0.05782469
#
# Stress axis : x y z
#
# Youngs Moduli (GPa) = 30.74050 30.74050 73.12823
#
# Poissons Ratio (x) = 0.01387 0.36579
# Poissons Ratio (y) = 0.01387 0.36579
# Poissons Ratio (z) = 0.15377 0.15377
#
# Static dielectric constant tensor:
#      x y z
#    x 1.591330 0.000000 0.000000 
#    y 0.000000 1.591330 0.000000 
#    z 0.000000 0.000000 1.711250 
# 
# From -- ./inp_files/4868.got.cif
#   From: 2010.05.17/outbox.cif.g08.bks.cpg/sg136_3_cif.got.tgz:4868.got - 2010.05.20 12:54:53.
