data_PCOD9569205
_publ_section_title
;
Structure prediction by ZEFSAII (Michael W. Deem and Ramdas Pophale) SiO2 
 PCOD9569205
Probable space group: P 42/M N M
;
_chemical_formula_sum "Si O2"
_cell_formula_units_Z 80
_cell_length_a 11.944765
_cell_length_b 11.944765
_cell_length_c 25.497740
_cell_angle_alpha 90.000000
_cell_angle_beta 90.000000
_cell_angle_gamma 90.000000
_cell_volume 3637.951527
_symmetry_space_group_name_H-M "P 42/M N M"
_symmetry_group_IT_number 136
_symmetry_cell_setting 'tetragonal'
loop_
_space_group_symop_operation_xyz
x,y,z
1/2-y,1/2+x,1/2+z
-x,-y,z
1/2+y,1/2-x,1/2+z
1/2+x,1/2-y,1/2-z
1/2-x,1/2+y,1/2-z
y,x,-z
-y,-x,-z
-x,-y,-z
1/2+y,1/2-x,1/2-z
x,y,-z
1/2-y,1/2+x,1/2-z
1/2-x,1/2+y,1/2+z
1/2+x,1/2-y,1/2+z
-y,-x,z
y,x,z
loop_
_atom_site_type_symbol
_atom_site_label
_atom_site_fract_x
_atom_site_fract_y
_atom_site_fract_z
Si Si1 0.595448 0.595448 0.366014
Si Si2 0.577422 0.852128 0.614422
Si Si3 0.660630 0.832980 0.891711
Si Si4 0.781822 0.967578 0.342037
Si Si5 0.746540 0.421492 0.500000
Si Si6 0.905267 0.094733 0.743462
Si Si7 0.164544 0.347372 0.500000
O O1 0.500000 0.500000 0.373583
O O2 0.717284 0.566387 0.388241
O O3 0.615438 0.615438 0.303961
O O4 0.451090 0.883838 0.630793
O O5 0.673199 0.888447 0.654896
O O6 0.622739 0.892690 0.556397
O O7 0.773679 0.773679 0.869620
O O8 0.563129 0.743090 0.884728
O O9 0.690041 0.869264 0.950395
O O10 0.889351 0.889351 0.351974
O O11 0.803953 0.038839 0.289177
O O12 0.622242 0.377759 0.500000
O O13 0.746197 0.553022 0.500000
O O14 0.000000 0.000000 0.742950
O O15 0.227702 0.227702 0.500000
#
# Coordination Sequence:
#
# PCOD9569205 Si02
#       7
#     8  16  16  16   8   8   8
#     4  11  22  43  64  92 128 164 211 262 323 385
#     4  11  22  39  62  96 130 165 207 259 318 388
#     4  10  20  37  60  90 126 167 207 259 311 374
#     4  11  21  41  64  87 121 166 214 260 318 374
#     4   8  18  32  50  83 125 163 208 251 307 368
#     4   9  22  42  65  87 118 168 211 265 323 366
#     4  10  18  34  55  89 131 169 200 244 317 391
#
# _framework density 21.990396
#
# number of rings (size 3 to 8) (size 9 to 14) (size 15 to 20)
#    0.000    1.800    3.000    1.200    0.000    1.800 
#    3.600    4.500    0.000    1.800    0.000    0.000 
#    0.000    0.000    0.000    0.000    0.000    0.000 
#
# Total GULP energy -445508.455890 kJ/mol
# GULP energy per Si atom -5568.855699 kJ/mol
# Density = 2.194034 g / cm^3
# Si number density = 21.990396 Si / 1000 Ang^3
#
#
#
# Elastic Constant Matrix: (Units=GPa)
#
#
# Indices 1 2 3 4 5 6 
#
# 1 96.0270 30.7684 26.9550 0.0000 0.0000 0.0000
# 2 30.7684 96.0263 26.9548 0.0000 0.0000 0.0000
# 3 26.9550 26.9548 90.6547 0.0000 0.0000 0.0000
# 4 0.0000 0.0000 0.0000 -4.5458 0.0000 0.0000
# 5 0.0000 0.0000 0.0000 0.0000 -4.5447 0.0000
# 6 0.0000 0.0000 0.0000 0.0000 0.0000 54.0164
#
#
#
# Elastic Compliance Matrix: (Units=1/GPa)
#
#
# Indices 1 2 3 4 5 6 
#
# 1 0.012176 -0.003148 -0.002684 0.000000 0.000000 0.000000
# 2 -0.003148 0.012176 -0.002684 0.000000 0.000000 0.000000
# 3 -0.002684 -0.002684 0.012627 0.000000 0.000000 0.000000
# 4 0.000000 0.000000 0.000000 -0.219985 0.000000 0.000000
# 5 0.000000 0.000000 0.000000 0.000000 -0.220034 0.000000
# 6 0.000000 0.000000 0.000000 0.000000 0.000000 0.018513
#
#
# Mechanical properties :
#
#
# Convention : Reuss Voigt Hill
#
# Bulk Modulus (GPa) = 50.13574 50.22935 50.18255
# Shear Modulus (GPa) = -13.85632 22.18717 4.16542
#
# Velocity S-wave (km/s) = -2.51292 3.17984 1.37779
# Velocity P-wave (km/s) = 3.79852 6.03100 5.03992
#
# Compressibility (1/GPa) = 0.01994585
#
# Stress axis : x y z
#
# Youngs Moduli (GPa) = 82.12971 82.12917 79.19425
#
# Poissons Ratio (x) = 0.25853 0.21259
# Poissons Ratio (y) = 0.25853 0.21259
# Poissons Ratio (z) = 0.22047 0.22046
#
# Static dielectric constant tensor:
#      x y z
#    x 1.870310 0.000000 0.000000 
#    y 0.000000 1.870310 0.000000 
#    z 0.000000 0.000000 1.846000 
# 
# From -- ./inp_files/9653.got.cif
#   From: 2010.05.17/outbox.cif.g08.bks.cpg/sg136_5_cif.got.tgz:9653.got - 2010.05.20 12:54:53.
