data_PCOD9569892
_publ_section_title
;
Structure prediction by ZEFSAII (Michael W. Deem and Ramdas Pophale) SiO2 
 PCOD9569892
Probable space group: P 42/M N M
;
_chemical_formula_sum "Si O2"
_cell_formula_units_Z 48
_cell_length_a 9.422735
_cell_length_b 9.422735
_cell_length_c 20.091337
_cell_angle_alpha 90.000000
_cell_angle_beta 90.000000
_cell_angle_gamma 90.000000
_cell_volume 1783.868321
_symmetry_space_group_name_H-M "P 42/M N M"
_symmetry_group_IT_number 136
_symmetry_cell_setting 'tetragonal'
loop_
_space_group_symop_operation_xyz
x,y,z
1/2-y,1/2+x,1/2+z
-x,-y,z
1/2+y,1/2-x,1/2+z
1/2+x,1/2-y,1/2-z
1/2-x,1/2+y,1/2-z
y,x,-z
-y,-x,-z
-x,-y,-z
1/2+y,1/2-x,1/2-z
x,y,-z
1/2-y,1/2+x,1/2-z
1/2-x,1/2+y,1/2+z
1/2+x,1/2-y,1/2+z
-y,-x,z
y,x,z
loop_
_atom_site_type_symbol
_atom_site_label
_atom_site_fract_x
_atom_site_fract_y
_atom_site_fract_z
Si Si1 0.736505 0.507737 0.862777
Si Si2 0.309651 0.934460 0.071845
Si Si3 0.763874 0.003457 0.784922
O O1 0.610752 0.389249 0.862206
O O2 0.655913 0.655913 0.872174
O O3 0.841273 0.451773 0.919083
O O4 0.805379 0.497926 0.788466
O O5 0.176132 0.823869 0.072386
O O6 0.300397 0.015667 0.141822
O O7 0.303380 0.006458 0.000000
O O8 0.843823 0.156178 0.784932
O O9 0.886000 0.886000 0.781789
#
# Coordination Sequence:
#
# PCOD9569892 Si02
#       3
#    16  16  16
#     4   8  14  25  40  59  87 123 160 196 234 281
#     4   9  16  24  38  65  95 120 153 197 242 288
#     4   8  14  25  40  59  87 123 160 196 234 281
#
# _framework density 26.907816
#
# number of rings (size 3 to 8) (size 9 to 14) (size 15 to 20)
#    0.000    3.667    0.000    2.000    0.000    1.333 
#    0.000    6.667    0.000    1.000    0.000    4.667 
#    0.000   13.333    0.000    1.333    0.000    0.000 
#
# Total GULP energy -268373.746514 kJ/mol
# GULP energy per Si atom -5591.119719 kJ/mol
# Density = 2.684657 g / cm^3
# Si number density = 26.907816 Si / 1000 Ang^3
#
#
#
# Elastic Constant Matrix: (Units=GPa)
#
#
# Indices 1 2 3 4 5 6 
#
# 1 55.7379 10.0727 24.8086 0.0000 0.0000 0.0000
# 2 10.0727 55.7379 24.8086 0.0000 0.0000 0.0000
# 3 24.8086 24.8086 195.4619 0.0000 0.0000 0.0000
# 4 0.0000 0.0000 0.0000 30.3530 0.0000 0.0000
# 5 0.0000 0.0000 0.0000 0.0000 30.3530 0.0000
# 6 0.0000 0.0000 0.0000 0.0000 0.0000 41.7529
#
#
#
# Elastic Compliance Matrix: (Units=1/GPa)
#
#
# Indices 1 2 3 4 5 6 
#
# 1 0.019351 -0.002548 -0.002133 0.000000 0.000000 0.000000
# 2 -0.002548 0.019351 -0.002133 0.000000 0.000000 0.000000
# 3 -0.002133 -0.002133 0.005657 0.000000 0.000000 0.000000
# 4 0.000000 0.000000 0.000000 0.032946 0.000000 0.000000
# 5 0.000000 0.000000 0.000000 0.000000 0.032946 0.000000
# 6 0.000000 0.000000 0.000000 0.000000 0.000000 0.023950
#
#
# Mechanical properties :
#
#
# Convention : Reuss Voigt Hill
#
# Bulk Modulus (GPa) = 32.53855 47.36861 39.95358
# Shear Modulus (GPa) = 31.63132 36.97499 34.30315
#
# Velocity S-wave (km/s) = 3.43234 3.71095 3.57436
# Velocity P-wave (km/s) = 5.27511 6.00032 5.64936
#
# Compressibility (1/GPa) = 0.03073278
#
# Stress axis : x y z
#
# Youngs Moduli (GPa) = 51.67752 51.67752 176.75771
#
# Poissons Ratio (x) = 0.13166 0.37697
# Poissons Ratio (y) = 0.13166 0.37697
# Poissons Ratio (z) = 0.11021 0.11021
#
# Static dielectric constant tensor:
#      x y z
#    x 2.162410 0.000000 0.000000 
#    y 0.000000 2.162410 0.000000 
#    z 0.000000 0.000000 1.987960 
# 
# From -- ./inp_files/5693.got.cif
#   From: 2010.05.17/outbox.cif.g08.bks.cpg/sg136_3_cif.got.tgz:5693.got - 2010.05.20 12:54:53.
