data_PCOD9569496
_publ_section_title
;
Structure prediction by ZEFSAII (Michael W. Deem and Ramdas Pophale) SiO2 
 PCOD9569496
Probable space group: P 42/M N M
;
_chemical_formula_sum "Si O2"
_cell_formula_units_Z 72
_cell_length_a 21.591160
_cell_length_b 21.591160
_cell_length_c 9.055759
_cell_angle_alpha 90.000000
_cell_angle_beta 90.000000
_cell_angle_gamma 90.000000
_cell_volume 4221.597341
_symmetry_space_group_name_H-M "P 42/M N M"
_symmetry_group_IT_number 136
_symmetry_cell_setting 'tetragonal'
loop_
_space_group_symop_operation_xyz
x,y,z
1/2-y,1/2+x,1/2+z
-x,-y,z
1/2+y,1/2-x,1/2+z
1/2+x,1/2-y,1/2-z
1/2-x,1/2+y,1/2-z
y,x,-z
-y,-x,-z
-x,-y,-z
1/2+y,1/2-x,1/2-z
x,y,-z
1/2-y,1/2+x,1/2-z
1/2-x,1/2+y,1/2+z
1/2+x,1/2-y,1/2+z
-y,-x,z
y,x,z
loop_
_atom_site_type_symbol
_atom_site_label
_atom_site_fract_x
_atom_site_fract_y
_atom_site_fract_z
Si Si1 0.448271 0.551730 0.822720
Si Si2 0.271882 0.374292 0.671513
Si Si3 0.511312 0.320153 0.675451
Si Si4 0.149545 0.404772 0.175610
Si Si5 0.465742 0.819468 0.678159
O O1 0.500000 0.500000 0.778232
O O2 0.466289 0.619324 0.760591
O O3 0.446766 0.553235 0.000000
O O4 0.250966 0.377088 0.500000
O O5 0.316933 0.316933 0.690496
O O6 0.309362 0.437873 0.697934
O O7 0.213137 0.372159 0.776583
O O8 0.522270 0.328981 0.500000
O O9 0.540259 0.253332 0.720255
O O10 0.153143 0.471516 0.253348
O O11 0.091974 0.362046 0.221279
O O12 0.146900 0.413163 0.000000
O O13 0.471342 0.820038 0.500000
#
# Coordination Sequence:
#
# PCOD9569496 Si02
#       5
#     8  16  16  16  16
#     4  11  23  35  49  77 111 137 169 219 269 308
#     4   9  18  34  55  78 105 137 174 215 260 312
#     4   9  18  35  56  73  98 139 177 210 250 308
#     4  10  20  34  55  80 105 137 175 218 264 311
#     4   9  20  38  55  76 107 139 174 216 264 315
#
# _framework density 17.055156
#
# number of rings (size 3 to 8) (size 9 to 14) (size 15 to 20)
#    0.000    2.556    0.000    3.000    0.000    8.000 
#    2.000    2.222    0.000    0.000    0.000    0.000 
#    0.000    0.000    0.000    0.000    0.000    0.000 
#
# Total GULP energy -401466.707800 kJ/mol
# GULP energy per Si atom -5575.926497 kJ/mol
# Density = 1.701634 g / cm^3
# Si number density = 17.055156 Si / 1000 Ang^3
#
#
#
# Elastic Constant Matrix: (Units=GPa)
#
#
# Indices 1 2 3 4 5 6 
#
# 1 102.8334 89.7751 44.1035 0.0000 0.0000 0.0000
# 2 89.7751 102.8336 44.1035 0.0000 0.0000 0.0000
# 3 44.1035 44.1035 32.4943 0.0000 0.0000 0.0000
# 4 0.0000 0.0000 0.0000 25.9241 0.0000 0.0000
# 5 0.0000 0.0000 0.0000 0.0000 25.9240 0.0000
# 6 0.0000 0.0000 0.0000 0.0000 0.0000 27.6939
#
#
#
# Elastic Compliance Matrix: (Units=1/GPa)
#
#
# Indices 1 2 3 4 5 6 
#
# 1 0.045149 -0.031430 -0.018621 0.000000 0.000000 0.000000
# 2 -0.031430 0.045149 -0.018621 0.000000 0.000000 0.000000
# 3 -0.018621 -0.018621 0.081323 0.000000 0.000000 0.000000
# 4 0.000000 0.000000 0.000000 0.038574 0.000000 0.000000
# 5 0.000000 0.000000 0.000000 0.000000 0.038574 0.000000
# 6 0.000000 0.000000 0.000000 0.000000 0.000000 0.036109
#
#
# Mechanical properties :
#
#
# Convention : Reuss Voigt Hill
#
# Bulk Modulus (GPa) = 29.17409 66.01394 47.59402
# Shear Modulus (GPa) = 11.53007 19.92035 15.72521
#
# Velocity S-wave (km/s) = 2.60291 3.42130 3.03977
# Velocity P-wave (km/s) = 5.11629 7.37545 6.34719
#
# Compressibility (1/GPa) = 0.03427699
#
# Stress axis : x y z
#
# Youngs Moduli (GPa) = 22.14868 22.14874 12.29670
#
# Poissons Ratio (x) = 0.69613 0.22898
# Poissons Ratio (y) = 0.69613 0.22898
# Poissons Ratio (z) = 0.41244 0.41244
#
# Static dielectric constant tensor:
#      x y z
#    x 1.564690 0.000000 0.000000 
#    y 0.000000 1.564690 0.000000 
#    z 0.000000 0.000000 1.576580 
# 
# From -- ./inp_files/1548.got.cif
#   From: 2010.05.17/outbox.cif.g08.bks.cpg/sg136_1_cif.got.tgz:1548.got - 2010.05.20 12:54:53.
