data_PCOD9569785
_publ_section_title
;
Structure prediction by ZEFSAII (Michael W. Deem and Ramdas Pophale) SiO2 
 PCOD9569785
Probable space group: P 42/M N M
;
_chemical_formula_sum "Si O2"
_cell_formula_units_Z 80
_cell_length_a 11.565810
_cell_length_b 11.565810
_cell_length_c 29.386877
_cell_angle_alpha 90.000000
_cell_angle_beta 90.000000
_cell_angle_gamma 90.000000
_cell_volume 3931.022615
_symmetry_space_group_name_H-M "P 42/M N M"
_symmetry_group_IT_number 136
_symmetry_cell_setting 'tetragonal'
loop_
_space_group_symop_operation_xyz
x,y,z
1/2-y,1/2+x,1/2+z
-x,-y,z
1/2+y,1/2-x,1/2+z
1/2+x,1/2-y,1/2-z
1/2-x,1/2+y,1/2-z
y,x,-z
-y,-x,-z
-x,-y,-z
1/2+y,1/2-x,1/2-z
x,y,-z
1/2-y,1/2+x,1/2-z
1/2-x,1/2+y,1/2+z
1/2+x,1/2-y,1/2+z
-y,-x,z
y,x,z
loop_
_atom_site_type_symbol
_atom_site_label
_atom_site_fract_x
_atom_site_fract_y
_atom_site_fract_z
Si Si1 0.498720 0.697370 0.636012
Si Si2 0.595992 0.595992 0.218292
Si Si3 0.399322 0.399322 0.882152
Si Si4 0.679826 0.015620 0.768742
Si Si5 0.364612 0.968567 0.052879
Si Si6 0.961970 0.772326 0.549350
O O1 0.389955 0.610046 0.641419
O O2 0.613375 0.613375 0.635950
O O3 0.504224 0.788879 0.677936
O O4 0.489174 0.771944 0.589549
O O5 0.500000 0.500000 0.213116
O O6 0.634205 0.634205 0.168303
O O7 0.541175 0.699778 0.245382
O O8 0.500000 0.500000 0.879897
O O9 0.449812 0.291807 0.910142
O O10 0.594997 0.120314 0.754733
O O11 0.371904 0.829762 0.056583
O O12 0.500000 0.000000 0.061800
O O13 0.338819 0.999025 0.000000
O O14 0.018937 0.752549 0.500000
O O15 0.890111 0.890111 0.546580
#
# Coordination Sequence:
#
# PCOD9569785 Si02
#       6
#    16   8   8  16  16  16
#     4  11  25  45  71 100 134 178 229 285 342 409
#     4  11  24  41  66  96 136 171 223 284 341 411
#     4   9  19  32  55  90 121 158 204 255 317 383
#     4  11  27  46  69  98 132 179 229 282 349 416
#     4  10  23  42  64  95 133 171 219 275 334 401
#     4   9  17  33  57  86 123 164 207 254 312 380
#
# _framework density 20.350937999999999
#
# number of rings (size 3 to 8) (size 9 to 14) (size 15 to 20)
#    0.000    1.800    1.000    1.500    8.400    2.800 
#    1.800    1.000    0.000    0.000    0.000    0.000 
#    0.000    0.000    0.000    0.000    0.000    0.000 
#
# Total GULP energy -446231.409580 kJ/mol
# GULP energy per Si atom -5577.892620 kJ/mol
# Density = 2.030462 g / cm^3
# Si number density = 20.350938 Si / 1000 Ang^3
#
#
#
# Elastic Constant Matrix: (Units=GPa)
#
#
# Indices 1 2 3 4 5 6 
#
# 1 85.6880 22.7105 49.5614 0.0000 0.0000 0.0000
# 2 22.7105 85.6880 49.5614 0.0000 0.0000 0.0000
# 3 49.5614 49.5614 156.7651 0.0000 0.0000 0.0000
# 4 0.0000 0.0000 0.0000 36.3502 0.0000 0.0000
# 5 0.0000 0.0000 0.0000 0.0000 36.3502 0.0000
# 6 0.0000 0.0000 0.0000 0.0000 0.0000 14.9285
#
#
#
# Elastic Compliance Matrix: (Units=1/GPa)
#
#
# Indices 1 2 3 4 5 6 
#
# 1 0.014428 -0.001451 -0.004103 0.000000 0.000000 0.000000
# 2 -0.001451 0.014428 -0.004103 0.000000 0.000000 0.000000
# 3 -0.004103 -0.004103 0.008973 0.000000 0.000000 0.000000
# 4 0.000000 0.000000 0.000000 0.027510 0.000000 0.000000
# 5 0.000000 0.000000 0.000000 0.000000 0.027510 0.000000
# 6 0.000000 0.000000 0.000000 0.000000 0.000000 0.066986
#
#
# Mechanical properties :
#
#
# Convention : Reuss Voigt Hill
#
# Bulk Modulus (GPa) = 54.00693 63.53417 58.77055
# Shear Modulus (GPa) = 26.98045 31.27962 29.13003
#
# Velocity S-wave (km/s) = 3.64505 3.92473 3.78747
# Velocity P-wave (km/s) = 6.65662 7.19896 6.93310
#
# Compressibility (1/GPa) = 0.01851614
#
# Stress axis : x y z
#
# Youngs Moduli (GPa) = 69.31097 69.31097 111.44471
#
# Poissons Ratio (x) = 0.10057 0.45721
# Poissons Ratio (y) = 0.10057 0.45721
# Poissons Ratio (z) = 0.28436 0.28436
#
# Static dielectric constant tensor:
#      x y z
#    x 1.718690 0.000000 0.000000 
#    y 0.000000 1.718690 0.000000 
#    z 0.000000 0.000000 1.759020 
# 
# From -- ./inp_files/9637.got.cif
#   From: 2010.05.17/outbox.cif.g08.bks.cpg/sg136_5_cif.got.tgz:9637.got - 2010.05.20 12:54:53.
