data_PCOD9569033
_publ_section_title
;
Structure prediction by ZEFSAII (Michael W. Deem and Ramdas Pophale) SiO2 
 PCOD9569033
Probable space group: P 42/M B C
;
_chemical_formula_sum "Si O2"
_cell_formula_units_Z 80
_cell_length_a 10.255185
_cell_length_b 10.255185
_cell_length_c 36.634304
_cell_angle_alpha 90.000000
_cell_angle_beta 90.000000
_cell_angle_gamma 90.000000
_cell_volume 3852.786501
_symmetry_space_group_name_H-M "P 42/M B C"
_symmetry_group_IT_number 135
_symmetry_cell_setting 'tetragonal'
loop_
_space_group_symop_operation_xyz
x,y,z
-y,x,1/2+z
-x,-y,z
y,-x,1/2+z
1/2+x,1/2-y,-z
1/2-x,1/2+y,-z
1/2+y,1/2+x,1/2-z
1/2-y,1/2-x,1/2-z
-x,-y,-z
y,-x,1/2-z
x,y,-z
-y,x,1/2-z
1/2-x,1/2+y,z
1/2+x,1/2-y,z
1/2-y,1/2-x,1/2+z
1/2+y,1/2+x,1/2+z
loop_
_atom_site_type_symbol
_atom_site_label
_atom_site_fract_x
_atom_site_fract_y
_atom_site_fract_z
Si Si1 0.710879 0.486967 0.709377
Si Si2 0.889807 0.408921 0.648832
Si Si3 0.144042 0.367529 0.956561
Si Si4 0.279571 0.501634 0.789585
Si Si5 0.840367 0.352018 0.570968
O O1 0.798392 0.498211 0.673978
O O2 0.779012 0.492502 0.748834
O O3 0.603893 0.600480 0.711007
O O4 0.638493 0.347409 0.705619
O O5 0.956456 0.312858 0.677908
O O6 0.822222 0.341118 0.614737
O O7 0.000000 0.500000 0.631714
O O8 0.178927 0.509538 0.939842
O O9 0.254446 0.261295 0.947650
O O10 0.003013 0.322588 0.941055
O O11 0.131039 0.383425 0.000000
#
# Coordination Sequence:
#
# PCOD9569033 Si02
#       5
#    16  16  16  16  16
#     4   9  21  40  61  85 120 169 218 264 314 365
#     4  12  25  38  61  93 130 161 209 259 320 381
#     4  11  23  49  73 100 135 174 217 271 330 405
#     4   9  21  40  61  85 120 169 218 264 314 365
#     4  11  26  42  71 105 137 174 220 269 335 398
#
# _framework density 20.764191
#
# number of rings (size 3 to 8) (size 9 to 14) (size 15 to 20)
#    0.000    1.600    2.000    4.200    8.400    2.400 
#    0.000    2.000    0.000    0.000    0.000    0.000 
#    0.000    0.000    0.000    0.000    0.000    0.000 
#
# Total GULP energy -447021.312392 kJ/mol
# GULP energy per Si atom -5587.766405 kJ/mol
# Density = 2.071693 g / cm^3
# Si number density = 20.764191 Si / 1000 Ang^3
#
#
#
# Elastic Constant Matrix: (Units=GPa)
#
#
# Indices 1 2 3 4 5 6 
#
# 1 76.7837 42.0667 18.8143 0.0000 0.0000 0.0000
# 2 42.0667 76.7837 18.8143 0.0000 0.0000 0.0000
# 3 18.8143 18.8143 147.6704 0.0000 0.0000 0.0000
# 4 0.0000 0.0000 0.0000 31.1521 0.0000 0.0000
# 5 0.0000 0.0000 0.0000 0.0000 31.1521 0.0000
# 6 0.0000 0.0000 0.0000 0.0000 0.0000 40.9883
#
#
#
# Elastic Compliance Matrix: (Units=1/GPa)
#
#
# Indices 1 2 3 4 5 6 
#
# 1 0.018786 -0.010018 -0.001117 0.000000 0.000000 0.000000
# 2 -0.010018 0.018786 -0.001117 0.000000 0.000000 0.000000
# 3 -0.001117 -0.001117 0.007056 0.000000 0.000000 0.000000
# 4 0.000000 0.000000 0.000000 0.032101 0.000000 0.000000
# 5 0.000000 0.000000 0.000000 0.000000 0.032101 0.000000
# 6 0.000000 0.000000 0.000000 0.000000 0.000000 0.024397
#
#
# Mechanical properties :
#
#
# Convention : Reuss Voigt Hill
#
# Bulk Modulus (GPa) = 49.69322 51.18091 50.43707
# Shear Modulus (GPa) = 30.40629 35.42799 32.91714
#
# Velocity S-wave (km/s) = 3.83085 4.13511 3.98588
# Velocity P-wave (km/s) = 6.59934 6.89209 6.74731
#
# Compressibility (1/GPa) = 0.02012347
#
# Stress axis : x y z
#
# Youngs Moduli (GPa) = 53.23117 53.23117 141.71374
#
# Poissons Ratio (x) = 0.53329 0.15830
# Poissons Ratio (y) = 0.53329 0.15830
# Poissons Ratio (z) = 0.05946 0.05946
#
# Static dielectric constant tensor:
#      x y z
#    x 1.760950 0.000000 0.000000 
#    y 0.000000 1.760950 0.000000 
#    z 0.000000 0.000000 1.706360 
# 
# From -- ./inp_files/6695.got.cif
#   From: 2010.05.17/outbox.cif.g08.bks.cpg/sg135_4_cif.got.tgz:6695.got - 2010.05.20 12:50:20.
