data_PCOD9569550
_publ_section_title
;
Structure prediction by ZEFSAII (Michael W. Deem and Ramdas Pophale) SiO2 
 PCOD9569550
Probable space group: P 42/M N M
;
_chemical_formula_sum "Si O2"
_cell_formula_units_Z 64
_cell_length_a 12.317552
_cell_length_b 12.317552
_cell_length_c 18.954554
_cell_angle_alpha 90.000000
_cell_angle_beta 90.000000
_cell_angle_gamma 90.000000
_cell_volume 2875.824496
_symmetry_space_group_name_H-M "P 42/M N M"
_symmetry_group_IT_number 136
_symmetry_cell_setting 'tetragonal'
loop_
_space_group_symop_operation_xyz
x,y,z
1/2-y,1/2+x,1/2+z
-x,-y,z
1/2+y,1/2-x,1/2+z
1/2+x,1/2-y,1/2-z
1/2-x,1/2+y,1/2-z
y,x,-z
-y,-x,-z
-x,-y,-z
1/2+y,1/2-x,1/2-z
x,y,-z
1/2-y,1/2+x,1/2-z
1/2-x,1/2+y,1/2+z
1/2+x,1/2-y,1/2+z
-y,-x,z
y,x,z
loop_
_atom_site_type_symbol
_atom_site_label
_atom_site_fract_x
_atom_site_fract_y
_atom_site_fract_z
Si Si1 0.031636 0.326322 0.224217
Si Si2 0.241440 0.938978 0.918796
Si Si3 0.481003 0.881872 0.921338
Si Si4 0.671912 0.494803 0.844568
O O1 0.916828 0.379813 0.251643
O O2 0.019810 0.275901 0.145071
O O3 0.050992 0.223954 0.273890
O O4 0.137288 0.862712 0.903158
O O5 0.351407 0.866616 0.921741
O O6 0.228710 0.982193 0.000000
O O7 0.530603 0.775263 0.889334
O O8 0.500000 0.000000 0.885417
O O9 0.524190 0.894043 0.000000
O O10 0.597412 0.402589 0.879888
O O11 0.594541 0.594541 0.828462
#
# Coordination Sequence:
#
# PCOD9569550 Si02
#       4
#    16  16  16  16
#     4  11  22  38  62  92 123 165 220 269 325 381
#     4  10  20  35  59  89 120 160 212 264 315 377
#     4  10  20  37  61  89 123 167 218 263 308 379
#     4  11  24  39  59  94 135 171 208 262 339 410
#
# _framework density 22.254487999999998
#
# number of rings (size 3 to 8) (size 9 to 14) (size 15 to 20)
#    0.000    1.500    2.500    3.000    0.000    3.000 
#    0.000    1.250    0.000    0.750    0.000    3.500 
#    0.000    1.000    0.000    6.500    0.000    0.000 
#
# Total GULP energy -356435.067673 kJ/mol
# GULP energy per Si atom -5569.297932 kJ/mol
# Density = 2.220384 g / cm^3
# Si number density = 22.254488 Si / 1000 Ang^3
#
#
#
# Elastic Constant Matrix: (Units=GPa)
#
#
# Indices 1 2 3 4 5 6 
#
# 1 81.5331 32.3594 16.1445 0.0000 0.0000 0.0000
# 2 32.3594 81.5331 16.1445 0.0000 0.0000 0.0000
# 3 16.1445 16.1445 117.6021 0.0000 0.0000 0.0000
# 4 0.0000 0.0000 0.0000 16.7505 0.0000 0.0000
# 5 0.0000 0.0000 0.0000 0.0000 16.7505 0.0000
# 6 0.0000 0.0000 0.0000 0.0000 0.0000 25.2574
#
#
#
# Elastic Compliance Matrix: (Units=1/GPa)
#
#
# Indices 1 2 3 4 5 6 
#
# 1 0.014736 -0.005600 -0.001254 0.000000 0.000000 0.000000
# 2 -0.005600 0.014736 -0.001254 0.000000 0.000000 0.000000
# 3 -0.001254 -0.001254 0.008848 0.000000 0.000000 0.000000
# 4 0.000000 0.000000 0.000000 0.059700 0.000000 0.000000
# 5 0.000000 0.000000 0.000000 0.000000 0.059700 0.000000
# 6 0.000000 0.000000 0.000000 0.000000 0.000000 0.039592
#
#
# Mechanical properties :
#
#
# Convention : Reuss Voigt Hill
#
# Bulk Modulus (GPa) = 45.24378 45.55166 45.39772
# Shear Modulus (GPa) = 22.63514 26.15303 24.39409
#
# Velocity S-wave (km/s) = 3.19267 3.43181 3.31440
# Velocity P-wave (km/s) = 5.82796 6.01798 5.92373
#
# Compressibility (1/GPa) = 0.02210249
#
# Stress axis : x y z
#
# Youngs Moduli (GPa) = 67.86144 67.86144 113.02509
#
# Poissons Ratio (x) = 0.38003 0.14175
# Poissons Ratio (y) = 0.38003 0.14175
# Poissons Ratio (z) = 0.08511 0.08511
#
# Static dielectric constant tensor:
#      x y z
#    x 1.799770 0.000000 0.000000 
#    y 0.000000 1.799770 0.000000 
#    z 0.000000 0.000000 1.950510 
# 
# From -- ./inp_files/7021.got.cif
#   From: 2010.05.17/outbox.cif.g08.bks.cpg/sg136_4_cif.got.tgz:7021.got - 2010.05.20 12:54:53.
