data_PCOD9569690
_publ_section_title
;
Structure prediction by ZEFSAII (Michael W. Deem and Ramdas Pophale) SiO2 
 PCOD9569690
Probable space group: P 42/M N M
;
_chemical_formula_sum "Si O2"
_cell_formula_units_Z 96
_cell_length_a 24.483665
_cell_length_b 24.483665
_cell_length_c 7.616728
_cell_angle_alpha 90.000000
_cell_angle_beta 90.000000
_cell_angle_gamma 90.000000
_cell_volume 4565.846471
_symmetry_space_group_name_H-M "P 42/M N M"
_symmetry_group_IT_number 136
_symmetry_cell_setting 'tetragonal'
loop_
_space_group_symop_operation_xyz
x,y,z
1/2-y,1/2+x,1/2+z
-x,-y,z
1/2+y,1/2-x,1/2+z
1/2+x,1/2-y,1/2-z
1/2-x,1/2+y,1/2-z
y,x,-z
-y,-x,-z
-x,-y,-z
1/2+y,1/2-x,1/2-z
x,y,-z
1/2-y,1/2+x,1/2-z
1/2-x,1/2+y,1/2+z
1/2+x,1/2-y,1/2+z
-y,-x,z
y,x,z
loop_
_atom_site_type_symbol
_atom_site_label
_atom_site_fract_x
_atom_site_fract_y
_atom_site_fract_z
Si Si1 0.573166 0.805877 0.796733
Si Si2 0.516680 0.914158 0.797464
Si Si3 0.217475 0.131508 0.213965
Si Si4 0.911984 0.998867 0.287736
Si Si5 0.286444 0.508927 0.705175
Si Si6 0.279187 0.807013 0.285508
O O1 0.541954 0.858607 0.720717
O O2 0.534702 0.753200 0.791526
O O3 0.632048 0.789988 0.720494
O O4 0.583648 0.821224 0.000000
O O5 0.462481 0.938409 0.708896
O O6 0.501281 0.904355 0.000000
O O7 0.162230 0.162230 0.270933
O O8 0.222238 0.069984 0.277378
O O9 0.267614 0.170516 0.262968
O O10 0.216155 0.129817 0.000000
O O11 0.910584 0.998293 0.500000
O O12 0.950516 0.049485 0.234662
O O13 0.850559 0.003328 0.222955
O O14 0.943810 0.943810 0.230409
O O15 0.271961 0.508915 0.500000
O O16 0.276951 0.808237 0.500000
O O17 0.223861 0.776140 0.228023
#
# Coordination Sequence:
#
# PCOD9569690 Si02
#       6
#    16  16  16  16  16  16
#     4  10  22  36  53  80 110 145 187 228 269 329
#     4  10  21  37  58  81 109 143 184 234 286 342
#     4   8  15  29  51  78 103 130 169 216 266 317
#     4   9  19  37  59  80 107 148 192 231 274 328
#     4  11  22  33  52  82 115 145 175 225 281 330
#     4   8  15  31  54  75  97 132 177 219 259 311
#
# _framework density 21.025673000000001
#
# number of rings (size 3 to 8) (size 9 to 14) (size 15 to 20)
#    0.000    2.667    0.000    3.500    2.333    3.333 
#    0.000    2.500    0.000    0.000    0.000    4.667 
#    0.000    0.000    0.000    0.000    0.000    0.000 
#
# Total GULP energy -535875.134678 kJ/mol
# GULP energy per Si atom -5582.032653 kJ/mol
# Density = 2.097782 g / cm^3
# Si number density = 21.025673 Si / 1000 Ang^3
#
#
#
# Elastic Constant Matrix: (Units=GPa)
#
#
# Indices 1 2 3 4 5 6 
#
# 1 -99.2627 293.5486 -10.2150 0.0000 0.0000 0.0000
# 2 293.5486 -99.2627 -10.2150 0.0000 0.0000 0.0000
# 3 -10.2150 -10.2150 43.4590 0.0000 0.0000 0.0000
# 4 0.0000 0.0000 0.0000 16.7535 0.0000 0.0000
# 5 0.0000 0.0000 0.0000 0.0000 16.7535 0.0000
# 6 0.0000 0.0000 0.0000 0.0000 0.0000 17.8261
#
#
#
# Elastic Compliance Matrix: (Units=1/GPa)
#
#
# Indices 1 2 3 4 5 6 
#
# 1 0.001366 0.003912 0.001240 0.000000 0.000000 0.000000
# 2 0.003912 0.001366 0.001240 0.000000 0.000000 0.000000
# 3 0.001240 0.001240 0.023593 0.000000 0.000000 0.000000
# 4 0.000000 0.000000 0.000000 0.059689 0.000000 0.000000
# 5 0.000000 0.000000 0.000000 0.000000 0.059689 0.000000
# 6 0.000000 0.000000 0.000000 0.000000 0.000000 0.056097
#
#
# Mechanical properties :
#
#
# Convention : Reuss Voigt Hill
#
# Bulk Modulus (GPa) = 25.56876 43.46342 34.51609
# Shear Modulus (GPa) = 24.74611 -18.27903 3.23354
#
# Velocity S-wave (km/s) = 3.43439 -2.95170 1.24147
# Velocity P-wave (km/s) = 5.28335 3.01658 4.30195
#
# Compressibility (1/GPa) = 0.03911023
#
# Stress axis : x y z
#
# Youngs Moduli (GPa) = 732.13323 732.13323 42.38482
#
# Poissons Ratio (x) = -2.86383 -0.05258
# Poissons Ratio (y) = -2.86383 -0.05258
# Poissons Ratio (z) = -0.90819 -0.90819
#
# Static dielectric constant tensor:
#      x y z
#    x 1.733680 0.000000 0.000000 
#    y 0.000000 1.733680 0.000000 
#    z 0.000000 0.000000 1.795970 
# 
# From -- ./inp_files/1990.got.cif
#   From: 2010.05.17/outbox.cif.g08.bks.cpg/sg136_1_cif.got.tgz:1990.got - 2010.05.20 12:54:53.
