data_PCOD9569025
_publ_section_title
;
Structure prediction by ZEFSAII (Michael W. Deem and Ramdas Pophale) SiO2 
 PCOD9569025
Probable space group: P 42/M B C
;
_chemical_formula_sum "Si O2"
_cell_formula_units_Z 96
_cell_length_a 17.726518
_cell_length_b 17.726518
_cell_length_c 18.180031
_cell_angle_alpha 90.000000
_cell_angle_beta 90.000000
_cell_angle_gamma 90.000000
_cell_volume 5712.700968
_symmetry_space_group_name_H-M "P 42/M B C"
_symmetry_group_IT_number 135
_symmetry_cell_setting 'tetragonal'
loop_
_space_group_symop_operation_xyz
x,y,z
-y,x,1/2+z
-x,-y,z
y,-x,1/2+z
1/2+x,1/2-y,-z
1/2-x,1/2+y,-z
1/2+y,1/2+x,1/2-z
1/2-y,1/2-x,1/2-z
-x,-y,-z
y,-x,1/2-z
x,y,-z
-y,x,1/2-z
1/2-x,1/2+y,z
1/2+x,1/2-y,z
1/2-y,1/2-x,1/2+z
1/2+y,1/2+x,1/2+z
loop_
_atom_site_type_symbol
_atom_site_label
_atom_site_fract_x
_atom_site_fract_y
_atom_site_fract_z
Si Si1 0.170499 0.331859 0.913193
Si Si2 0.224563 0.578908 0.086457
Si Si3 0.590029 0.583452 0.770686
Si Si4 0.571962 0.323046 0.416377
Si Si5 0.699250 0.703690 0.691903
Si Si6 0.519838 0.082741 0.589388
O O1 0.253872 0.369225 0.906286
O O2 0.164488 0.260799 0.860626
O O3 0.112717 0.397682 0.890089
O O4 0.159549 0.314439 0.000000
O O5 0.285240 0.510779 0.092088
O O6 0.246617 0.646969 0.138501
O O7 0.145211 0.541869 0.109385
O O8 0.220984 0.600590 0.000000
O O9 0.602113 0.497877 0.741742
O O10 0.613528 0.583750 0.856010
O O11 0.645348 0.642573 0.730870
O O12 0.579128 0.350374 0.500000
O O13 0.744638 0.755362 0.750000
O O14 0.520070 0.081688 0.500000
O O15 0.500000 0.000000 0.616716
#
# Coordination Sequence:
#
# PCOD9569025 Si02
#       6
#    16  16  16  16  16  16
#     4   9  18  33  56  83 109 143 184 225 270 328
#     4   9  18  34  58  83 109 145 187 226 269 336
#     4  11  23  41  59  80 111 150 186 230 285 334
#     4   9  17  36  60  80 107 146 189 225 272 336
#     4  12  22  35  56  81 114 145 183 232 281 331
#     4   8  15  32  57  82 110 143 177 216 270 329
#
# _framework density 16.804659999999998
#
# number of rings (size 3 to 8) (size 9 to 14) (size 15 to 20)
#    0.000    2.333    3.333    2.500    0.000    0.000 
#    3.000    3.333    0.000    0.000    0.000    0.000 
#    0.000    0.000    0.000    0.000    0.000    0.000 
#
# Total GULP energy -535223.555598 kJ/mol
# GULP energy per Si atom -5575.245371 kJ/mol
# Density = 1.676641 g / cm^3
# Si number density = 16.804660 Si / 1000 Ang^3
#
#
#
# Elastic Constant Matrix: (Units=GPa)
#
#
# Indices 1 2 3 4 5 6 
#
# 1 106.6451 63.2776 55.0354 0.0000 0.0000 0.0000
# 2 63.2776 106.6454 55.0355 0.0000 0.0000 0.0000
# 3 55.0354 55.0355 85.7809 0.0000 0.0000 0.0000
# 4 0.0000 0.0000 0.0000 17.4488 0.0000 0.0000
# 5 0.0000 0.0000 0.0000 0.0000 17.4475 0.0000
# 6 0.0000 0.0000 0.0000 0.0000 0.0000 18.7143
#
#
#
# Elastic Compliance Matrix: (Units=1/GPa)
#
#
# Indices 1 2 3 4 5 6 
#
# 1 0.016564 -0.006494 -0.006461 0.000000 0.000000 0.000000
# 2 -0.006494 0.016564 -0.006461 0.000000 0.000000 0.000000
# 3 -0.006461 -0.006461 0.019948 0.000000 0.000000 0.000000
# 4 0.000000 0.000000 0.000000 0.057310 0.000000 0.000000
# 5 0.000000 0.000000 0.000000 0.000000 0.057315 0.000000
# 6 0.000000 0.000000 0.000000 0.000000 0.000000 0.053435
#
#
# Mechanical properties :
#
#
# Convention : Reuss Voigt Hill
#
# Bulk Modulus (GPa) = 70.20052 71.75203 70.97627
# Shear Modulus (GPa) = 18.88809 19.10365 18.99587
#
# Velocity S-wave (km/s) = 3.35622 3.37531 3.36578
# Velocity P-wave (km/s) = 7.54215 7.61451 7.57842
#
# Compressibility (1/GPa) = 0.01424491
#
# Stress axis : x y z
#
# Youngs Moduli (GPa) = 60.37039 60.37044 50.13054
#
# Poissons Ratio (x) = 0.39206 0.32388
# Poissons Ratio (y) = 0.39206 0.32389
# Poissons Ratio (z) = 0.39004 0.39004
#
# Static dielectric constant tensor:
#      x y z
#    x 1.557530 0.000000 0.000000 
#    y 0.000000 1.557530 0.000000 
#    z 0.000000 0.000000 1.559060 
# 
# From -- ./inp_files/4454.got.cif
#   From: 2010.05.17/outbox.cif.g08.bks.cpg/sg135_3_cif.got.tgz:4454.got - 2010.05.20 12:50:20.
