data_PCOD9569034
_publ_section_title
;
Structure prediction by ZEFSAII (Michael W. Deem and Ramdas Pophale) SiO2 
 PCOD9569034
Probable space group: P 42/M B C
;
_chemical_formula_sum "Si O2"
_cell_formula_units_Z 48
_cell_length_a 10.067298
_cell_length_b 10.067298
_cell_length_c 22.993891
_cell_angle_alpha 90.000000
_cell_angle_beta 90.000000
_cell_angle_gamma 90.000000
_cell_volume 2330.442097
_symmetry_space_group_name_H-M "P 42/M B C"
_symmetry_group_IT_number 135
_symmetry_cell_setting 'tetragonal'
loop_
_space_group_symop_operation_xyz
x,y,z
-y,x,1/2+z
-x,-y,z
y,-x,1/2+z
1/2+x,1/2-y,-z
1/2-x,1/2+y,-z
1/2+y,1/2+x,1/2-z
1/2-y,1/2-x,1/2-z
-x,-y,-z
y,-x,1/2-z
x,y,-z
-y,x,1/2-z
1/2-x,1/2+y,z
1/2+x,1/2-y,z
1/2-y,1/2-x,1/2+z
1/2+y,1/2+x,1/2+z
loop_
_atom_site_type_symbol
_atom_site_label
_atom_site_fract_x
_atom_site_fract_y
_atom_site_fract_z
Si Si1 0.819724 0.113322 0.272391
Si Si2 0.003487 0.258587 0.500000
Si Si3 0.255532 0.091231 0.500000
Si Si4 0.081388 0.124270 0.099820
O O1 0.694368 0.194368 0.250000
O O2 0.807596 0.129920 0.342262
O O3 0.958902 0.175135 0.248058
O O4 0.912275 0.388145 0.500000
O O5 0.945010 0.186053 0.557105
O O6 0.161448 0.225864 0.500000
O O7 0.211113 0.010345 0.557141
O O8 0.000000 0.000000 0.124584
#
# Coordination Sequence:
#
# PCOD9569034 Si02
#       4
#    16   8   8  16
#     4  11  24  41  66  91 125 170 213 258 318 373
#     4   9  19  31  60  84 112 153 200 254 302 366
#     4   9  19  35  60  86 116 155 204 252 316 363
#     4   9  18  37  57  83 117 161 204 245 309 381
#
# _framework density 20.59695
#
# number of rings (size 3 to 8) (size 9 to 14) (size 15 to 20)
#    0.000    2.333    3.333    2.000    4.667    0.667 
#    0.000    3.333    7.333    0.000    0.000    0.000 
#    0.000    0.000    0.000    0.000    0.000    0.000 
#
# Total GULP energy -267371.547196 kJ/mol
# GULP energy per Si atom -5570.240567 kJ/mol
# Density = 2.055007 g / cm^3
# Si number density = 20.596950 Si / 1000 Ang^3
#
#
#
# Elastic Constant Matrix: (Units=GPa)
#
#
# Indices 1 2 3 4 5 6 
#
# 1 36.9785 32.9077 2.3527 0.0000 0.0000 0.0000
# 2 32.9077 36.9785 2.3527 0.0000 0.0000 0.0000
# 3 2.3527 2.3527 140.6434 0.0000 0.0000 0.0000
# 4 0.0000 0.0000 0.0000 -84.2701 0.0000 0.0000
# 5 0.0000 0.0000 0.0000 0.0000 -84.2701 0.0000
# 6 0.0000 0.0000 0.0000 0.0000 0.0000 38.3561
#
#
#
# Elastic Compliance Matrix: (Units=1/GPa)
#
#
# Indices 1 2 3 4 5 6 
#
# 1 0.129990 -0.115665 -0.000240 0.000000 0.000000 0.000000
# 2 -0.115665 0.129990 -0.000240 0.000000 0.000000 0.000000
# 3 -0.000240 -0.000240 0.007118 0.000000 0.000000 0.000000
# 4 0.000000 0.000000 0.000000 -0.011867 0.000000 0.000000
# 5 0.000000 0.000000 0.000000 0.000000 -0.011867 0.000000
# 6 0.000000 0.000000 0.000000 0.000000 0.000000 0.026071
#
#
# Mechanical properties :
#
#
# Convention : Reuss Voigt Hill
#
# Bulk Modulus (GPa) = 28.72747 32.20295 30.46521
# Shear Modulus (GPa) = 9.74038 -14.23768 -2.24865
#
# Velocity S-wave (km/s) = 2.17700 -2.63202 -1.04600
# Velocity P-wave (km/s) = 4.50520 2.53615 3.65574
#
# Compressibility (1/GPa) = 0.03480989
#
# Stress axis : x y z
#
# Youngs Moduli (GPa) = 7.69292 7.69292 140.48500
#
# Poissons Ratio (x) = 0.88980 0.03366
# Poissons Ratio (y) = 0.88980 0.03366
# Poissons Ratio (z) = 0.00184 0.00184
#
# Static dielectric constant tensor:
#      x y z
#    x 1.811820 0.000000 0.000000 
#    y 0.000000 1.811820 0.000000 
#    z 0.000000 0.000000 1.720910 
# 
# From -- ./inp_files/4913.got.cif
#   From: 2010.05.17/outbox.cif.g08.bks.cpg/sg135_3_cif.got.tgz:4913.got - 2010.05.20 12:50:20.
