data_PCOD9569391
_publ_section_title
;
Structure prediction by ZEFSAII (Michael W. Deem and Ramdas Pophale) SiO2 
 PCOD9569391
Probable space group: P 42/M N M
;
_chemical_formula_sum "Si O2"
_cell_formula_units_Z 64
_cell_length_a 13.942789
_cell_length_b 13.942789
_cell_length_c 15.936964
_cell_angle_alpha 90.000000
_cell_angle_beta 90.000000
_cell_angle_gamma 90.000000
_cell_volume 3098.167557
_symmetry_space_group_name_H-M "P 42/M N M"
_symmetry_group_IT_number 136
_symmetry_cell_setting 'tetragonal'
loop_
_space_group_symop_operation_xyz
x,y,z
1/2-y,1/2+x,1/2+z
-x,-y,z
1/2+y,1/2-x,1/2+z
1/2+x,1/2-y,1/2-z
1/2-x,1/2+y,1/2-z
y,x,-z
-y,-x,-z
-x,-y,-z
1/2+y,1/2-x,1/2-z
x,y,-z
1/2-y,1/2+x,1/2-z
1/2-x,1/2+y,1/2+z
1/2+x,1/2-y,1/2+z
-y,-x,z
y,x,z
loop_
_atom_site_type_symbol
_atom_site_label
_atom_site_fract_x
_atom_site_fract_y
_atom_site_fract_z
Si Si1 0.815518 0.027971 0.902329
Si Si2 0.680365 0.841736 0.352955
Si Si3 0.204531 0.640450 0.330495
Si Si4 0.702457 0.142126 0.500000
Si Si5 0.445701 0.717352 0.000000
O O1 0.909131 0.090870 0.878746
O O2 0.724125 0.098111 0.892566
O O3 0.787393 0.938062 0.846051
O O4 0.826168 0.000039 0.000000
O O5 0.770704 0.770704 0.343028
O O6 0.655835 0.876754 0.259377
O O7 0.719500 0.917895 0.418807
O O8 0.255153 0.744848 0.327123
O O9 0.140008 0.641289 0.414249
O O10 0.754658 0.245343 0.500000
O O11 0.783279 0.060114 0.500000
O O12 0.379803 0.620198 0.000000
#
# Coordination Sequence:
#
# PCOD9569391 Si02
#       5
#    16  16  16   8   8
#     4  10  19  35  60  84 108 144 192 236 275 334
#     4   9  19  36  57  78 107 146 187 229 280 333
#     4  10  21  37  55  81 117 153 182 224 290 347
#     4  10  22  38  56  81 117 151 179 223 289 346
#     4  10  20  38  61  82 105 145 197 239 272 322
#
# _framework density 20.657371000000001
#
# number of rings (size 3 to 8) (size 9 to 14) (size 15 to 20)
#    0.000    2.250    2.500    0.000    3.500    0.750 
#    0.000    3.750    0.000    4.500    0.000    0.000 
#    0.000    0.000    0.000    0.000    0.000    0.000 
#
# Total GULP energy -356499.962243 kJ/mol
# GULP energy per Si atom -5570.311910 kJ/mol
# Density = 2.061035 g / cm^3
# Si number density = 20.657371 Si / 1000 Ang^3
#
#
#
# Elastic Constant Matrix: (Units=GPa)
#
#
# Indices 1 2 3 4 5 6 
#
# 1 -26.5522 79.1347 14.8708 0.0000 0.0000 0.0000
# 2 79.1347 -26.5339 14.8735 0.0000 0.0000 0.0000
# 3 14.8708 14.8735 137.0404 0.0000 0.0000 0.0000
# 4 0.0000 0.0000 0.0000 1.9653 0.0000 0.0000
# 5 0.0000 0.0000 0.0000 0.0000 1.9652 0.0000
# 6 0.0000 0.0000 0.0000 0.0000 0.0000 24.1377
#
#
#
# Elastic Compliance Matrix: (Units=1/GPa)
#
#
# Indices 1 2 3 4 5 6 
#
# 1 0.005396 0.014860 -0.002198 0.000000 0.000000 0.000000
# 2 0.014860 0.005399 -0.002199 0.000000 0.000000 0.000000
# 3 -0.002198 -0.002199 0.007774 0.000000 0.000000 0.000000
# 4 0.000000 0.000000 0.000000 0.508823 0.000000 0.000000
# 5 0.000000 0.000000 0.000000 0.000000 0.508845 0.000000
# 6 0.000000 0.000000 0.000000 0.000000 0.000000 0.041429
#
#
# Mechanical properties :
#
#
# Convention : Reuss Voigt Hill
#
# Bulk Modulus (GPa) = 25.31897 33.52357 29.42127
# Shear Modulus (GPa) = 4.67331 3.95200 4.31266
#
# Velocity S-wave (km/s) = 1.50573 1.38466 1.44646
# Velocity P-wave (km/s) = 3.91231 4.33820 4.13075
#
# Compressibility (1/GPa) = 0.03949608
#
# Stress axis : x y z
#
# Youngs Moduli (GPa) = 185.32809 185.21160 128.62919
#
# Poissons Ratio (x) = -2.75229 0.28277
# Poissons Ratio (y) = -2.75402 0.28280
# Poissons Ratio (z) = 0.40742 0.40719
#
# Static dielectric constant tensor:
#      x y z
#    x 1.735610 0.000000 0.000000 
#    y 0.000000 1.735610 0.000000 
#    z 0.000000 0.000000 1.814270 
# 
# From -- ./inp_files/5985.got.cif
#   From: 2010.05.17/outbox.cif.g08.bks.cpg/sg136_3_cif.got.tgz:5985.got - 2010.05.20 12:54:53.
