data_PCOD9569793
_publ_section_title
;
Structure prediction by ZEFSAII (Michael W. Deem and Ramdas Pophale) SiO2 
 PCOD9569793
Probable space group: P 42/M N M
;
_chemical_formula_sum "Si O2"
_cell_formula_units_Z 32
_cell_length_a 8.513736
_cell_length_b 8.513736
_cell_length_c 18.564978
_cell_angle_alpha 90.000000
_cell_angle_beta 90.000000
_cell_angle_gamma 90.000000
_cell_volume 1345.658308
_symmetry_space_group_name_H-M "P 42/M N M"
_symmetry_group_IT_number 136
_symmetry_cell_setting 'tetragonal'
loop_
_space_group_symop_operation_xyz
x,y,z
1/2-y,1/2+x,1/2+z
-x,-y,z
1/2+y,1/2-x,1/2+z
1/2+x,1/2-y,1/2-z
1/2-x,1/2+y,1/2-z
y,x,-z
-y,-x,-z
-x,-y,-z
1/2+y,1/2-x,1/2-z
x,y,-z
1/2-y,1/2+x,1/2-z
1/2-x,1/2+y,1/2+z
1/2+x,1/2-y,1/2+z
-y,-x,z
y,x,z
loop_
_atom_site_type_symbol
_atom_site_label
_atom_site_fract_x
_atom_site_fract_y
_atom_site_fract_z
Si Si1 0.197492 0.802509 0.418717
Si Si2 0.582197 0.171693 0.841450
Si Si3 0.126200 0.126200 0.209142
O O1 0.238575 0.761426 0.500000
O O2 0.295677 0.704324 0.359448
O O3 0.018509 0.764966 0.400521
O O4 0.763780 0.236221 0.851822
O O5 0.545665 0.247217 0.762768
O O6 0.500000 0.000000 0.846461
O O7 0.000000 0.000000 0.188351
#
# Coordination Sequence:
#
# PCOD9569793 Si02
#       3
#     8  16   8
#     4  12  27  45  76 119 162 206 264 348 426 492
#     4  10  24  46  79 113 151 214 276 339 410 513
#     4  10  24  46  77 114 148 224 282 348 407 525
#
# _framework density 23.780183000000001
#
# number of rings (size 3 to 8) (size 9 to 14) (size 15 to 20)
#    1.500    0.000    2.500    0.750    7.000    5.500 
#    0.000    0.000    0.000    0.000    0.000    0.000 
#    0.000    0.000    0.000    0.000    0.000    0.000 
#
# Total GULP energy -178287.753679 kJ/mol
# GULP energy per Si atom -5571.492302 kJ/mol
# Density = 2.372606 g / cm^3
# Si number density = 23.780183 Si / 1000 Ang^3
#
#
#
# Elastic Constant Matrix: (Units=GPa)
#
#
# Indices 1 2 3 4 5 6 
#
# 1 131.2515 98.6151 20.8130 0.0000 0.0000 0.0000
# 2 98.6151 131.2523 20.8137 0.0000 0.0000 0.0000
# 3 20.8130 20.8137 140.0090 0.0000 0.0000 0.0000
# 4 0.0000 0.0000 0.0000 40.4256 0.0000 0.0000
# 5 0.0000 0.0000 0.0000 0.0000 40.4238 0.0000
# 6 0.0000 0.0000 0.0000 0.0000 0.0000 71.0181
#
#
#
# Elastic Compliance Matrix: (Units=1/GPa)
#
#
# Indices 1 2 3 4 5 6 
#
# 1 0.017556 -0.013085 -0.000665 0.000000 0.000000 0.000000
# 2 -0.013085 0.017555 -0.000665 0.000000 0.000000 0.000000
# 3 -0.000665 -0.000665 0.007340 0.000000 0.000000 0.000000
# 4 0.000000 0.000000 0.000000 0.024737 0.000000 0.000000
# 5 0.000000 0.000000 0.000000 0.000000 0.024738 0.000000
# 6 0.000000 0.000000 0.000000 0.000000 0.000000 0.014081
#
#
# Mechanical properties :
#
#
# Convention : Reuss Voigt Hill
#
# Bulk Modulus (GPa) = 73.40539 75.88850 74.64695
# Shear Modulus (GPa) = 35.87430 47.85823 41.86626
#
# Velocity S-wave (km/s) = 3.88826 4.49098 4.20045
# Velocity P-wave (km/s) = 7.14796 7.67292 7.41509
#
# Compressibility (1/GPa) = 0.01362298
#
# Stress axis : x y z
#
# Youngs Moduli (GPa) = 56.96217 56.96241 136.23988
#
# Poissons Ratio (x) = 0.74534 0.09054
# Poissons Ratio (y) = 0.74534 0.09055
# Poissons Ratio (z) = 0.03785 0.03786
#
# Static dielectric constant tensor:
#      x y z
#    x 2.050190 0.000000 0.000000 
#    y 0.000000 2.050190 0.000000 
#    z 0.000000 0.000000 1.812050 
# 
# From -- ./inp_files/6687.got.cif
#   From: 2010.05.17/outbox.cif.g08.bks.cpg/sg136_4_cif.got.tgz:6687.got - 2010.05.20 12:54:53.
