data_PCOD9569173
_publ_section_title
;
Structure prediction by ZEFSAII (Michael W. Deem and Ramdas Pophale) SiO2 
 PCOD9569173
Probable space group: P 42/M N M
;
_chemical_formula_sum "Si O2"
_cell_formula_units_Z 72
_cell_length_a 23.825025
_cell_length_b 23.825025
_cell_length_c 7.845079
_cell_angle_alpha 90.000000
_cell_angle_beta 90.000000
_cell_angle_gamma 90.000000
_cell_volume 4453.116441
_symmetry_space_group_name_H-M "P 42/M N M"
_symmetry_group_IT_number 136
_symmetry_cell_setting 'tetragonal'
loop_
_space_group_symop_operation_xyz
x,y,z
1/2-y,1/2+x,1/2+z
-x,-y,z
1/2+y,1/2-x,1/2+z
1/2+x,1/2-y,1/2-z
1/2-x,1/2+y,1/2-z
y,x,-z
-y,-x,-z
-x,-y,-z
1/2+y,1/2-x,1/2-z
x,y,-z
1/2-y,1/2+x,1/2-z
1/2-x,1/2+y,1/2+z
1/2+x,1/2-y,1/2+z
-y,-x,z
y,x,z
loop_
_atom_site_type_symbol
_atom_site_label
_atom_site_fract_x
_atom_site_fract_y
_atom_site_fract_z
Si Si1 0.544088 0.756225 0.195945
Si Si2 0.673576 0.764322 0.698950
Si Si3 0.236751 0.671491 0.500000
Si Si4 0.740267 0.962541 0.000000
Si Si5 0.032103 0.878228 0.687600
Si Si6 0.458711 0.625672 0.500000
O O1 0.607736 0.766613 0.257633
O O2 0.497858 0.777945 0.331812
O O3 0.538587 0.688618 0.194068
O O4 0.536364 0.775829 0.000000
O O5 0.681770 0.779507 0.500000
O O6 0.702729 0.702729 0.721613
O O7 0.706071 0.803850 0.832060
O O8 0.298851 0.701150 0.500000
O O9 0.229466 0.604175 0.500000
O O10 0.807874 0.963968 0.000000
O O11 0.010936 0.893499 0.500000
O O12 0.091459 0.908542 0.712416
O O13 0.990549 0.896274 0.834599
O O14 0.395798 0.604203 0.500000
#
# Coordination Sequence:
#
# PCOD9569173 Si02
#       6
#    16  16   8   8  16   8
#     4  10  18  31  51  74 100 132 167 211 260 310
#     4  10  19  31  52  81 108 136 172 219 270 318
#     4  10  21  36  53  76 111 149 177 210 262 319
#     4  10  21  35  50  72 102 137 172 209 248 308
#     4   9  18  29  42  63  89 118 158 208 257 294
#     4  10  20  32  44  59  84 127 174 206 237 282
#
# _framework density 16.168453
#
# number of rings (size 3 to 8) (size 9 to 14) (size 15 to 20)
#    0.000    2.222    2.222    1.333    0.000    3.111 
#    0.000    1.111    0.000    4.000    0.000    0.000 
#    0.000    2.667    0.000    0.000    0.000    0.000 
#
# Total GULP energy -400837.955432 kJ/mol
# GULP energy per Si atom -5567.193825 kJ/mol
# Density = 1.613165 g / cm^3
# Si number density = 16.168453 Si / 1000 Ang^3
#
#
#
# Elastic Constant Matrix: (Units=GPa)
#
#
# Indices 1 2 3 4 5 6 
#
# 1 51.8266 37.0268 49.0708 0.0000 0.0000 0.0000
# 2 37.0268 51.8306 49.0731 0.0000 0.0000 0.0000
# 3 49.0708 49.0731 143.4007 0.0000 0.0000 0.0000
# 4 0.0000 0.0000 0.0000 16.9504 0.0000 0.0000
# 5 0.0000 0.0000 0.0000 0.0000 16.9489 0.0000
# 6 0.0000 0.0000 0.0000 0.0000 0.0000 19.2282
#
#
#
# Elastic Compliance Matrix: (Units=1/GPa)
#
#
# Indices 1 2 3 4 5 6 
#
# 1 0.042828 -0.024733 -0.006191 0.000000 0.000000 0.000000
# 2 -0.024733 0.042825 -0.006191 0.000000 0.000000 0.000000
# 3 -0.006191 -0.006191 0.011211 0.000000 0.000000 0.000000
# 4 0.000000 0.000000 0.000000 0.058996 0.000000 0.000000
# 5 0.000000 0.000000 0.000000 0.000000 0.059001 0.000000
# 6 0.000000 0.000000 0.000000 0.000000 0.000000 0.052007
#
#
# Mechanical properties :
#
#
# Convention : Reuss Voigt Hill
#
# Bulk Modulus (GPa) = 44.18719 57.48881 50.83800
# Shear Modulus (GPa) = 14.34134 18.08464 16.21299
#
# Velocity S-wave (km/s) = 2.98148 3.34805 3.17007
# Velocity P-wave (km/s) = 6.26425 7.11191 6.70150
#
# Compressibility (1/GPa) = 0.02263099
#
# Stress axis : x y z
#
# Youngs Moduli (GPa) = 23.34946 23.35104 89.19900
#
# Poissons Ratio (x) = 0.57755 0.55226
# Poissons Ratio (y) = 0.57751 0.55227
# Poissons Ratio (z) = 0.14456 0.14458
#
# Static dielectric constant tensor:
#      x y z
#    x 1.529110 0.000000 0.000000 
#    y 0.000000 1.529110 0.000000 
#    z 0.000000 0.000000 1.577730 
# 
# From -- ./inp_files/1633.got.cif
#   From: 2010.05.17/outbox.cif.g08.bks.cpg/sg136_1_cif.got.tgz:1633.got - 2010.05.20 12:54:53.
