data_PCOD9569246
_publ_section_title
;
Structure prediction by ZEFSAII (Michael W. Deem and Ramdas Pophale) SiO2 
 PCOD9569246
Probable space group: P 42/M N M
;
_chemical_formula_sum "Si O2"
_cell_formula_units_Z 64
_cell_length_a 20.648907
_cell_length_b 20.648907
_cell_length_c 7.600250
_cell_angle_alpha 90.000000
_cell_angle_beta 90.000000
_cell_angle_gamma 90.000000
_cell_volume 3240.574533
_symmetry_space_group_name_H-M "P 42/M N M"
_symmetry_group_IT_number 136
_symmetry_cell_setting 'tetragonal'
loop_
_space_group_symop_operation_xyz
x,y,z
1/2-y,1/2+x,1/2+z
-x,-y,z
1/2+y,1/2-x,1/2+z
1/2+x,1/2-y,1/2-z
1/2-x,1/2+y,1/2-z
y,x,-z
-y,-x,-z
-x,-y,-z
1/2+y,1/2-x,1/2-z
x,y,-z
1/2-y,1/2+x,1/2-z
1/2-x,1/2+y,1/2+z
1/2+x,1/2-y,1/2+z
-y,-x,z
y,x,z
loop_
_atom_site_type_symbol
_atom_site_label
_atom_site_fract_x
_atom_site_fract_y
_atom_site_fract_z
Si Si1 0.926175 0.073826 0.214544
Si Si2 0.322072 0.677929 0.288702
Si Si3 0.821449 0.178552 0.783676
Si Si4 0.573667 0.426334 0.285219
Si Si5 0.917349 0.437704 0.797077
Si Si6 0.673005 0.824683 0.292227
O O1 0.873890 0.126111 0.273334
O O2 0.999924 0.088815 0.268714
O O3 0.925599 0.074401 0.000000
O O4 0.322366 0.677635 0.500000
O O5 0.374188 0.625813 0.224679
O O6 0.249211 0.661902 0.229510
O O7 0.748336 0.162298 0.724047
O O8 0.820479 0.179522 0.000000
O O9 0.574269 0.425732 0.500000
O O10 0.915014 0.507938 0.708501
O O11 0.871259 0.382208 0.719381
O O12 0.898885 0.448729 0.000000
O O13 0.658108 0.821851 0.500000
#
# Coordination Sequence:
#
# PCOD9569246 Si02
#       6
#     8   8   8   8  16  16
#     4   8  13  24  42  64  93 122 149 189 231 271
#     4  10  19  30  48  73  99 126 159 204 246 283
#     4   8  14  27  46  64  86 122 163 194 226 277
#     4   8  15  25  39  67  99 120 145 187 239 279
#     4  10  20  34  52  73  99 130 164 206 251 299
#     4   9  19  34  49  68  96 130 165 199 241 293
#
# _framework density 19.749585
#
# number of rings (size 3 to 8) (size 9 to 14) (size 15 to 20)
#    0.000    3.000    0.000    3.375    0.000    4.000 
#    0.000    5.000    0.000    0.000    0.000    8.750 
#    0.000    0.000    0.000    0.000    0.000    0.000 
#
# Total GULP energy -356891.649255 kJ/mol
# GULP energy per Si atom -5576.432020 kJ/mol
# Density = 1.970463 g / cm^3
# Si number density = 19.749585 Si / 1000 Ang^3
#
#
#
# Elastic Constant Matrix: (Units=GPa)
#
#
# Indices 1 2 3 4 5 6 
#
# 1 131.5101 138.3994 -13.8584 0.0000 0.0000 0.0000
# 2 138.3994 131.5124 -13.8576 0.0000 0.0000 0.0000
# 3 -13.8584 -13.8576 37.8997 0.0000 0.0000 0.0000
# 4 0.0000 0.0000 0.0000 18.7002 0.0000 0.0000
# 5 0.0000 0.0000 0.0000 0.0000 18.7002 0.0000
# 6 0.0000 0.0000 0.0000 0.0000 0.0000 50.0306
#
#
#
# Elastic Compliance Matrix: (Units=1/GPa)
#
#
# Indices 1 2 3 4 5 6 
#
# 1 -0.070664 0.074513 0.001406 0.000000 0.000000 0.000000
# 2 0.074513 -0.070662 0.001409 0.000000 0.000000 0.000000
# 3 0.001406 0.001409 0.027415 0.000000 0.000000 0.000000
# 4 0.000000 0.000000 0.000000 0.053475 0.000000 0.000000
# 5 0.000000 0.000000 0.000000 0.000000 0.053475 0.000000
# 6 0.000000 0.000000 0.000000 0.000000 0.000000 0.019988
#
#
# Mechanical properties :
#
#
# Convention : Reuss Voigt Hill
#
# Bulk Modulus (GPa) = 24.54353 58.03212 41.28782
# Shear Modulus (GPa) = -39.04805 30.16878 -4.43963
#
# Velocity S-wave (km/s) = -4.45135 3.91265 -1.50095
# Velocity P-wave (km/s) = 3.73698 7.06113 4.23642
#
# Compressibility (1/GPa) = 0.04074394
#
# Stress axis : x y z
#
# Youngs Moduli (GPa) = -14.15147 -14.15181 36.47666
#
# Poissons Ratio (x) = 1.05449 -0.05127
# Poissons Ratio (y) = 1.05446 -0.05141
# Poissons Ratio (z) = 0.01989 0.01995
#
# Static dielectric constant tensor:
#      x y z
#    x 1.680910 0.000000 0.000000 
#    y 0.000000 1.680910 0.000000 
#    z 0.000000 0.000000 1.728930 
# 
# From -- ./inp_files/1503.got.cif
#   From: 2010.05.17/outbox.cif.g08.bks.cpg/sg136_1_cif.got.tgz:1503.got - 2010.05.20 12:54:53.
