data_PCOD9569358
_publ_section_title
;
Structure prediction by ZEFSAII (Michael W. Deem and Ramdas Pophale) SiO2 
 PCOD9569358
Probable space group: P 42/M N M
;
_chemical_formula_sum "Si O2"
_cell_formula_units_Z 96
_cell_length_a 24.581887
_cell_length_b 24.581887
_cell_length_c 8.645881
_cell_angle_alpha 90.000000
_cell_angle_beta 90.000000
_cell_angle_gamma 90.000000
_cell_volume 5224.439323
_symmetry_space_group_name_H-M "P 42/M N M"
_symmetry_group_IT_number 136
_symmetry_cell_setting 'tetragonal'
loop_
_space_group_symop_operation_xyz
x,y,z
1/2-y,1/2+x,1/2+z
-x,-y,z
1/2+y,1/2-x,1/2+z
1/2+x,1/2-y,1/2-z
1/2-x,1/2+y,1/2-z
y,x,-z
-y,-x,-z
-x,-y,-z
1/2+y,1/2-x,1/2-z
x,y,-z
1/2-y,1/2+x,1/2-z
1/2-x,1/2+y,1/2+z
1/2+x,1/2-y,1/2+z
-y,-x,z
y,x,z
loop_
_atom_site_type_symbol
_atom_site_label
_atom_site_fract_x
_atom_site_fract_y
_atom_site_fract_z
Si Si1 0.548380 0.633795 0.313669
Si Si2 0.987318 0.581497 0.682907
Si Si3 0.202292 0.484877 0.186166
Si Si4 0.263218 0.263218 0.183824
Si Si5 0.741785 0.616534 0.684677
Si Si6 0.808476 0.947774 0.313907
Si Si7 0.676709 0.323292 0.187608
O O1 0.545531 0.634291 0.500000
O O2 0.578697 0.578697 0.264265
O O3 0.587839 0.684496 0.268350
O O4 0.488711 0.645513 0.248351
O O5 0.976222 0.575887 0.500000
O O6 0.944666 0.545860 0.778375
O O7 0.989562 0.644445 0.725642
O O8 0.212823 0.426705 0.263994
O O9 0.251497 0.524480 0.232669
O O10 0.204256 0.477867 0.000000
O O11 0.324529 0.251108 0.241359
O O12 0.219989 0.219989 0.249701
O O13 0.261624 0.261624 0.000000
O O14 0.740965 0.622654 0.500000
O O15 0.811471 0.948088 0.500000
O O16 0.811334 0.885401 0.263126
O O17 0.678898 0.321103 0.000000
#
# Coordination Sequence:
#
# PCOD9569358 Si02
#       7
#    16  16  16   8  16  16   8
#     4   9  17  32  55  82 110 137 171 218 270 325
#     4  10  20  34  52  74 104 138 179 227 277 332
#     4   9  19  35  54  80 109 138 178 228 277 329
#     4  12  24  36  54  81 113 147 185 229 276 326
#     4  10  19  34  55  81 111 141 177 220 270 327
#     4   9  19  36  56  78 105 141 184 225 272 324
#     4  10  22  40  57  75 108 153 195 233 272 328
#
# _framework density 18.375177000000001
#
# number of rings (size 3 to 8) (size 9 to 14) (size 15 to 20)
#    0.000    2.333    0.833    2.250    0.000    4.333 
#    0.000    2.083    0.000    2.500    0.000    0.000 
#    0.000    0.000    0.000    0.000    0.000    0.000 
#
# Total GULP energy -535643.650142 kJ/mol
# GULP energy per Si atom -5579.621356 kJ/mol
# Density = 1.833335 g / cm^3
# Si number density = 18.375177 Si / 1000 Ang^3
#
#
#
# Elastic Constant Matrix: (Units=GPa)
#
#
# Indices 1 2 3 4 5 6 
#
# 1 102.7922 45.1855 20.9408 0.0000 0.0000 0.0000
# 2 45.1855 102.7924 20.9405 0.0000 0.0000 0.0000
# 3 20.9408 20.9405 22.2970 0.0000 0.0000 0.0000
# 4 0.0000 0.0000 0.0000 23.6677 0.0000 0.0000
# 5 0.0000 0.0000 0.0000 0.0000 23.6677 0.0000
# 6 0.0000 0.0000 0.0000 0.0000 0.0000 15.5680
#
#
#
# Elastic Compliance Matrix: (Units=1/GPa)
#
#
# Indices 1 2 3 4 5 6 
#
# 1 0.013282 -0.004077 -0.008645 0.000000 0.000000 0.000000
# 2 -0.004077 0.013282 -0.008644 0.000000 0.000000 0.000000
# 3 -0.008645 -0.008644 0.061086 0.000000 0.000000 0.000000
# 4 0.000000 0.000000 0.000000 0.042252 0.000000 0.000000
# 5 0.000000 0.000000 0.000000 0.000000 0.042252 0.000000
# 6 0.000000 0.000000 0.000000 0.000000 0.000000 0.064234
#
#
# Mechanical properties :
#
#
# Convention : Reuss Voigt Hill
#
# Bulk Modulus (GPa) = 22.26320 44.66835 33.46577
# Shear Modulus (GPa) = 17.00147 21.96833 19.48490
#
# Velocity S-wave (km/s) = 3.04508 3.46142 3.25990
# Velocity P-wave (km/s) = 4.95031 6.35114 5.69397
#
# Compressibility (1/GPa) = 0.04491718
#
# Stress axis : x y z
#
# Youngs Moduli (GPa) = 75.29112 75.29191 16.37030
#
# Poissons Ratio (x) = 0.30699 0.14152
# Poissons Ratio (y) = 0.30699 0.14151
# Poissons Ratio (z) = 0.65087 0.65084
#
# Static dielectric constant tensor:
#      x y z
#    x 1.625660 0.000000 0.000000 
#    y 0.000000 1.625660 0.000000 
#    z 0.000000 0.000000 1.620000 
# 
# From -- ./inp_files/2060.got.cif
#   From: 2010.05.17/outbox.cif.g08.bks.cpg/sg136_2_cif.got.tgz:2060.got - 2010.05.20 12:54:53.
