data_PCOD9569823
_publ_section_title
;
Structure prediction by ZEFSAII (Michael W. Deem and Ramdas Pophale) SiO2 
 PCOD9569823
Probable space group: P 42/M N M
;
_chemical_formula_sum "Si O2"
_cell_formula_units_Z 56
_cell_length_a 10.656366
_cell_length_b 10.656366
_cell_length_c 25.502913
_cell_angle_alpha 90.000000
_cell_angle_beta 90.000000
_cell_angle_gamma 90.000000
_cell_volume 2896.063271
_symmetry_space_group_name_H-M "P 42/M N M"
_symmetry_group_IT_number 136
_symmetry_cell_setting 'tetragonal'
loop_
_space_group_symop_operation_xyz
x,y,z
1/2-y,1/2+x,1/2+z
-x,-y,z
1/2+y,1/2-x,1/2+z
1/2+x,1/2-y,1/2-z
1/2-x,1/2+y,1/2-z
y,x,-z
-y,-x,-z
-x,-y,-z
1/2+y,1/2-x,1/2-z
x,y,-z
1/2-y,1/2+x,1/2-z
1/2-x,1/2+y,1/2+z
1/2+x,1/2-y,1/2+z
-y,-x,z
y,x,z
loop_
_atom_site_type_symbol
_atom_site_label
_atom_site_fract_x
_atom_site_fract_y
_atom_site_fract_z
Si Si1 0.954784 0.645691 0.059205
Si Si2 0.102663 0.897338 0.937068
Si Si3 0.996025 0.199472 0.248458
Si Si4 0.396039 0.109239 0.831673
O O1 0.058312 0.753762 0.074216
O O2 0.000000 0.500000 0.056136
O O3 0.862825 0.645575 0.109077
O O4 0.910027 0.677162 0.000000
O O5 0.095672 0.904329 0.000000
O O6 0.000000 0.000000 0.916256
O O7 0.876610 0.123391 0.227425
O O8 0.953409 0.278364 0.298454
O O9 0.053637 0.284952 0.203424
O O10 0.100482 0.100482 0.264734
O O11 0.500000 0.000000 0.833876
#
# Coordination Sequence:
#
# PCOD9569823 Si02
#       4
#    16   8  16  16
#     4   9  20  38  59  89 123 159 199 244 306 370
#     4   9  18  34  58  90 123 153 199 259 305 349
#     4  11  23  38  59  86 118 157 197 243 300 357
#     4  11  21  38  60  86 117 154 193 245 298 357
#
# _framework density 19.336594999999999
#
# number of rings (size 3 to 8) (size 9 to 14) (size 15 to 20)
#    0.000    1.857    2.857    0.857    2.000    2.286 
#    7.714    0.000    0.000    0.000    0.000    2.000 
#    0.000    0.000    0.000    0.000    0.000    0.000 
#
# Total GULP energy -311966.710646 kJ/mol
# GULP energy per Si atom -5570.834119 kJ/mol
# Density = 1.929258 g / cm^3
# Si number density = 19.336595 Si / 1000 Ang^3
#
#
#
# Elastic Constant Matrix: (Units=GPa)
#
#
# Indices 1 2 3 4 5 6 
#
# 1 96.9468 42.2682 34.8009 0.0000 0.0000 0.0000
# 2 42.2682 96.9468 34.8010 0.0000 0.0000 0.0000
# 3 34.8009 34.8010 161.8553 0.0000 0.0000 0.0000
# 4 0.0000 0.0000 0.0000 -26.3751 0.0000 0.0000
# 5 0.0000 0.0000 0.0000 0.0000 -26.3753 0.0000
# 6 0.0000 0.0000 0.0000 0.0000 0.0000 29.4256
#
#
#
# Elastic Compliance Matrix: (Units=1/GPa)
#
#
# Indices 1 2 3 4 5 6 
#
# 1 0.013168 -0.005120 -0.001730 0.000000 0.000000 0.000000
# 2 -0.005120 0.013168 -0.001730 0.000000 0.000000 0.000000
# 3 -0.001730 -0.001730 0.006923 0.000000 0.000000 0.000000
# 4 0.000000 0.000000 0.000000 -0.037914 0.000000 0.000000
# 5 0.000000 0.000000 0.000000 0.000000 -0.037914 0.000000
# 6 0.000000 0.000000 0.000000 0.000000 0.000000 0.033984
#
#
# Mechanical properties :
#
#
# Convention : Reuss Voigt Hill
#
# Bulk Modulus (GPa) = 62.12270 64.38767 63.25519
# Shear Modulus (GPa) = 358.60951 11.59363 185.10157
#
# Velocity S-wave (km/s) = 13.63301 2.45127 9.79458
# Velocity P-wave (km/s) = 16.73346 6.43290 12.67657
#
# Compressibility (1/GPa) = 0.01609718
#
# Stress axis : x y z
#
# Youngs Moduli (GPa) = 75.93883 75.93883 144.45622
#
# Poissons Ratio (x) = 0.38882 0.24998
# Poissons Ratio (y) = 0.38882 0.24998
# Poissons Ratio (z) = 0.13141 0.13141
#
# Static dielectric constant tensor:
#      x y z
#    x 1.541900 0.000000 0.000000 
#    y 0.000000 1.541900 0.000000 
#    z 0.000000 0.000000 1.700790 
# 
# From -- ./inp_files/8770.got.cif
#   From: 2010.05.17/outbox.cif.g08.bks.cpg/sg136_5_cif.got.tgz:8770.got - 2010.05.20 12:54:53.
