data_PCOD9569462
_publ_section_title
;
Structure prediction by ZEFSAII (Michael W. Deem and Ramdas Pophale) SiO2 
 PCOD9569462
Probable space group: P 42/M N M
;
_chemical_formula_sum "Si O2"
_cell_formula_units_Z 128
_cell_length_a 20.155823
_cell_length_b 20.155823
_cell_length_c 18.197056
_cell_angle_alpha 90.000000
_cell_angle_beta 90.000000
_cell_angle_gamma 90.000000
_cell_volume 7392.685033
_symmetry_space_group_name_H-M "P 42/M N M"
_symmetry_group_IT_number 136
_symmetry_cell_setting 'tetragonal'
loop_
_space_group_symop_operation_xyz
x,y,z
1/2-y,1/2+x,1/2+z
-x,-y,z
1/2+y,1/2-x,1/2+z
1/2+x,1/2-y,1/2-z
1/2-x,1/2+y,1/2-z
y,x,-z
-y,-x,-z
-x,-y,-z
1/2+y,1/2-x,1/2-z
x,y,-z
1/2-y,1/2+x,1/2-z
1/2-x,1/2+y,1/2+z
1/2+x,1/2-y,1/2+z
-y,-x,z
y,x,z
loop_
_atom_site_type_symbol
_atom_site_label
_atom_site_fract_x
_atom_site_fract_y
_atom_site_fract_z
Si Si1 0.932899 0.776890 0.581631
Si Si2 0.423328 0.310900 0.412265
Si Si3 0.389993 0.497662 0.156776
Si Si4 0.251800 0.643113 0.228568
Si Si5 0.952783 0.840390 0.187294
Si Si6 0.893599 0.323377 0.174023
Si Si7 0.473014 0.100562 0.223301
Si Si8 0.954631 0.620161 0.418162
O O1 0.906692 0.792023 0.500000
O O2 0.990348 0.828345 0.603014
O O3 0.882406 0.779570 0.649718
O O4 0.954245 0.700215 0.580769
O O5 0.427521 0.298205 0.500000
O O6 0.371224 0.371224 0.401452
O O7 0.494817 0.329000 0.377409
O O8 0.397660 0.245739 0.368605
O O9 0.442653 0.557348 0.143111
O O10 0.429625 0.429625 0.147539
O O11 0.365417 0.507256 0.240515
O O12 0.291606 0.708395 0.250215
O O13 0.274119 0.586583 0.286294
O O14 0.176127 0.661364 0.213921
O O15 0.896928 0.896928 0.171651
O O16 0.948328 0.332921 0.237653
O O17 0.902068 0.384051 0.116117
O O18 0.542602 0.078744 0.259008
O O19 0.487557 0.101541 0.137592
O O20 0.962730 0.594551 0.500000
#
# Coordination Sequence:
#
# PCOD9569462 Si02
#       8
#    16  16  16  16  16  16  16  16
#     4   9  17  27  44  70  97 129 169 206 250 307
#     4  11  24  37  52  80 115 147 182 229 288 342
#     4   9  17  28  43  66  96 130 169 213 259 304
#     4   9  18  33  54  77 101 136 176 215 260 317
#     4   9  19  36  57  76 101 141 191 231 261 313
#     4  10  20  33  57  78 111 136 173 216 276 326
#     4   9  19  34  53  79 103 134 175 216 261 321
#     4   9  18  34  52  73 102 138 170 212 262 319
#
# _framework density 17.314412999999998
#
# number of rings (size 3 to 8) (size 9 to 14) (size 15 to 20)
#    0.000    2.625    0.000    2.250    7.000    2.750 
#    0.000    6.875    0.000    0.000    0.000    0.000 
#    0.000    0.000    0.000    0.000    0.000    0.000 
#
# Total GULP energy -713063.248258 kJ/mol
# GULP energy per Si atom -5570.806627 kJ/mol
# Density = 1.727500 g / cm^3
# Si number density = 17.314413 Si / 1000 Ang^3
#
#
#
# Elastic Constant Matrix: (Units=GPa)
#
#
# Indices 1 2 3 4 5 6 
#
# 1 55.2327 34.2182 34.0792 0.0000 0.0000 0.0000
# 2 34.2182 55.2327 34.0792 0.0000 0.0000 0.0000
# 3 34.0792 34.0792 86.6429 0.0000 0.0000 0.0000
# 4 0.0000 0.0000 0.0000 18.2147 0.0000 0.0000
# 5 0.0000 0.0000 0.0000 0.0000 18.2147 0.0000
# 6 0.0000 0.0000 0.0000 0.0000 0.0000 20.8503
#
#
#
# Elastic Compliance Matrix: (Units=1/GPa)
#
#
# Indices 1 2 3 4 5 6 
#
# 1 0.031775 -0.015811 -0.006279 0.000000 0.000000 0.000000
# 2 -0.015811 0.031775 -0.006279 0.000000 0.000000 0.000000
# 3 -0.006279 -0.006279 0.016481 0.000000 0.000000 0.000000
# 4 0.000000 0.000000 0.000000 0.054901 0.000000 0.000000
# 5 0.000000 0.000000 0.000000 0.000000 0.054901 0.000000
# 6 0.000000 0.000000 0.000000 0.000000 0.000000 0.047961
#
#
# Mechanical properties :
#
#
# Convention : Reuss Voigt Hill
#
# Bulk Modulus (GPa) = 42.93236 44.65129 43.79183
# Shear Modulus (GPa) = 16.54008 17.77138 17.15573
#
# Velocity S-wave (km/s) = 3.09411 3.20721 3.15117
# Velocity P-wave (km/s) = 6.13305 6.28963 6.21183
#
# Compressibility (1/GPa) = 0.02329246
#
# Stress axis : x y z
#
# Youngs Moduli (GPa) = 31.47132 31.47132 60.67573
#
# Poissons Ratio (x) = 0.49760 0.38098
# Poissons Ratio (y) = 0.49760 0.38098
# Poissons Ratio (z) = 0.19761 0.19761
#
# Static dielectric constant tensor:
#      x y z
#    x 1.610030 0.000000 0.000000 
#    y 0.000000 1.610030 0.000000 
#    z 0.000000 0.000000 1.596170 
# 
# From -- ./inp_files/6651.got.cif
#   From: 2010.05.17/outbox.cif.g08.bks.cpg/sg136_4_cif.got.tgz:6651.got - 2010.05.20 12:54:53.
