data_PCOD9569848
_publ_section_title
;
Structure prediction by ZEFSAII (Michael W. Deem and Ramdas Pophale) SiO2 
 PCOD9569848
Probable space group: P 42/M N M
;
_chemical_formula_sum "Si O2"
_cell_formula_units_Z 72
_cell_length_a 22.033790
_cell_length_b 22.033790
_cell_length_c 8.128674
_cell_angle_alpha 90.000000
_cell_angle_beta 90.000000
_cell_angle_gamma 90.000000
_cell_volume 3946.372884
_symmetry_space_group_name_H-M "P 42/M N M"
_symmetry_group_IT_number 136
_symmetry_cell_setting 'tetragonal'
loop_
_space_group_symop_operation_xyz
x,y,z
1/2-y,1/2+x,1/2+z
-x,-y,z
1/2+y,1/2-x,1/2+z
1/2+x,1/2-y,1/2-z
1/2-x,1/2+y,1/2-z
y,x,-z
-y,-x,-z
-x,-y,-z
1/2+y,1/2-x,1/2-z
x,y,-z
1/2-y,1/2+x,1/2-z
1/2-x,1/2+y,1/2+z
1/2+x,1/2-y,1/2+z
-y,-x,z
y,x,z
loop_
_atom_site_type_symbol
_atom_site_label
_atom_site_fract_x
_atom_site_fract_y
_atom_site_fract_z
Si Si1 0.401195 0.853824 0.198596
Si Si2 0.779484 0.874803 0.299361
Si Si3 0.318425 0.965047 0.302357
Si Si4 0.009604 0.816224 0.301495
Si Si5 0.950273 0.049728 0.195590
O O1 0.371779 0.790144 0.252047
O O2 0.361865 0.910058 0.256842
O O3 0.471206 0.847972 0.255249
O O4 0.402099 0.855634 0.000000
O O5 0.779757 0.874306 0.500000
O O6 0.820067 0.820067 0.238738
O O7 0.808299 0.939232 0.251470
O O8 0.315148 0.968901 0.500000
O O9 0.247871 0.960099 0.245298
O O10 0.012306 0.816845 0.500000
O O11 0.034411 0.881005 0.244830
O O12 0.953635 0.046366 0.000000
O O13 0.000000 0.000000 0.261599
#
# Coordination Sequence:
#
# PCOD9569848 Si02
#       5
#    16  16  16  16   8
#     4   9  18  32  51  74 100 132 166 205 257 307
#     4   8  14  28  51  75  95 121 166 214 247 289
#     4   9  19  35  52  74 103 132 169 214 254 298
#     4   9  18  34  55  74  97 134 173 209 249 299
#     4  11  23  35  49  77 111 137 167 211 259 304
#
# _framework density 18.244599999999998
#
# number of rings (size 3 to 8) (size 9 to 14) (size 15 to 20)
#    0.000    3.000    0.000    3.667    0.000    4.000 
#    2.000    5.556    0.000    1.333    0.000    0.000 
#    0.000    0.000    0.000    0.000    0.000    0.000 
#
# Total GULP energy -401045.395623 kJ/mol
# GULP energy per Si atom -5570.074939 kJ/mol
# Density = 1.820307 g / cm^3
# Si number density = 18.244600 Si / 1000 Ang^3
#
#
#
# Elastic Constant Matrix: (Units=GPa)
#
#
# Indices 1 2 3 4 5 6 
#
# 1 164.5408 143.4519 18.7700 0.0000 0.0000 0.0000
# 2 143.4519 164.5411 18.7700 0.0000 0.0000 0.0000
# 3 18.7700 18.7700 14.0771 0.0000 0.0000 0.0000
# 4 0.0000 0.0000 0.0000 22.0710 0.0000 0.0000
# 5 0.0000 0.0000 0.0000 0.0000 22.0709 0.0000
# 6 0.0000 0.0000 0.0000 0.0000 0.0000 37.0563
#
#
#
# Elastic Compliance Matrix: (Units=1/GPa)
#
#
# Indices 1 2 3 4 5 6 
#
# 1 0.025647 -0.021771 -0.005169 0.000000 0.000000 0.000000
# 2 -0.021771 0.025647 -0.005169 0.000000 0.000000 0.000000
# 3 -0.005169 -0.005169 0.084822 0.000000 0.000000 0.000000
# 4 0.000000 0.000000 0.000000 0.045308 0.000000 0.000000
# 5 0.000000 0.000000 0.000000 0.000000 0.045309 0.000000
# 6 0.000000 0.000000 0.000000 0.000000 0.000000 0.026986
#
#
# Mechanical properties :
#
#
# Convention : Reuss Voigt Hill
#
# Bulk Modulus (GPa) = 13.90843 78.34921 46.12882
# Shear Modulus (GPa) = 14.62395 27.05077 20.83736
#
# Velocity S-wave (km/s) = 2.83424 3.85473 3.38318
# Velocity P-wave (km/s) = 4.28374 7.92773 6.37178
#
# Compressibility (1/GPa) = 0.07189885
#
# Stress axis : x y z
#
# Youngs Moduli (GPa) = 38.99017 38.99020 11.78934
#
# Poissons Ratio (x) = 0.84884 0.06094
# Poissons Ratio (y) = 0.84884 0.06094
# Poissons Ratio (z) = 0.20155 0.20156
#
# Static dielectric constant tensor:
#      x y z
#    x 1.621590 0.000000 0.000000 
#    y 0.000000 1.621590 0.000000 
#    z 0.000000 0.000000 1.657240 
# 
# From -- ./inp_files/1579.got.cif
#   From: 2010.05.17/outbox.cif.g08.bks.cpg/sg136_1_cif.got.tgz:1579.got - 2010.05.20 12:54:53.
