data_PCOD9569592
_publ_section_title
;
Structure prediction by ZEFSAII (Michael W. Deem and Ramdas Pophale) SiO2 
 PCOD9569592
Probable space group: P 42/M N M
;
_chemical_formula_sum "Si O2"
_cell_formula_units_Z 96
_cell_length_a 23.372379
_cell_length_b 23.372379
_cell_length_c 8.111041
_cell_angle_alpha 90.000000
_cell_angle_beta 90.000000
_cell_angle_gamma 90.000000
_cell_volume 4430.802957
_symmetry_space_group_name_H-M "P 42/M N M"
_symmetry_group_IT_number 136
_symmetry_cell_setting 'tetragonal'
loop_
_space_group_symop_operation_xyz
x,y,z
1/2-y,1/2+x,1/2+z
-x,-y,z
1/2+y,1/2-x,1/2+z
1/2+x,1/2-y,1/2-z
1/2-x,1/2+y,1/2-z
y,x,-z
-y,-x,-z
-x,-y,-z
1/2+y,1/2-x,1/2-z
x,y,-z
1/2-y,1/2+x,1/2-z
1/2-x,1/2+y,1/2+z
1/2+x,1/2-y,1/2+z
-y,-x,z
y,x,z
loop_
_atom_site_type_symbol
_atom_site_label
_atom_site_fract_x
_atom_site_fract_y
_atom_site_fract_z
Si Si1 0.327161 0.586796 0.806349
Si Si2 0.103631 0.799101 0.683587
Si Si3 0.213279 0.306820 0.698409
Si Si4 0.983506 0.589246 0.694744
Si Si5 0.519912 0.611370 0.310026
Si Si6 0.701389 0.918733 0.701562
O O1 0.355495 0.644506 0.734676
O O2 0.373059 0.536819 0.785626
O O3 0.265686 0.566843 0.741502
O O4 0.318039 0.597697 0.000000
O O5 0.078884 0.791411 0.500000
O O6 0.155777 0.844224 0.673104
O O7 0.133876 0.742336 0.746820
O O8 0.058697 0.831603 0.796746
O O9 0.213978 0.304408 0.500000
O O10 0.253535 0.253535 0.755707
O O11 0.147625 0.305474 0.751628
O O12 0.995676 0.593705 0.500000
O O13 0.935000 0.540512 0.719999
O O14 0.959200 0.649772 0.758088
O O15 0.506143 0.599777 0.500000
O O16 0.558936 0.558936 0.246522
O O17 0.698687 0.920987 0.500000
#
# Coordination Sequence:
#
# PCOD9569592 Si02
#       6
#    16  16  16  16  16  16
#     4  10  21  38  59  82 110 144 183 227 274 325
#     4   9  17  30  49  75 106 137 174 223 274 321
#     4   9  16  29  51  77 108 147 187 224 269 327
#     4  10  20  37  59  82 111 142 177 220 267 320
#     4  10  21  37  56  78 107 144 185 229 278 329
#     4   9  19  35  56  82 110 144 184 224 267 321
#
# _framework density 21.666502000000001
#
# number of rings (size 3 to 8) (size 9 to 14) (size 15 to 20)
#    0.000    2.500    0.000    2.500    0.000    7.000 
#    0.000    9.167    0.000    2.000    0.000    0.000 
#    0.000    0.000    0.000    0.000    0.000    0.000 
#
# Total GULP energy -535527.108703 kJ/mol
# GULP energy per Si atom -5578.407382 kJ/mol
# Density = 2.161719 g / cm^3
# Si number density = 21.666502 Si / 1000 Ang^3
#
#
#
# Elastic Constant Matrix: (Units=GPa)
#
#
# Indices 1 2 3 4 5 6 
#
# 1 85.0539 49.8252 -5.8550 0.0000 0.0000 0.0000
# 2 49.8252 85.0539 -5.8550 0.0000 0.0000 0.0000
# 3 -5.8550 -5.8550 15.5327 0.0000 0.0000 0.0000
# 4 0.0000 0.0000 0.0000 12.6859 0.0000 0.0000
# 5 0.0000 0.0000 0.0000 0.0000 12.6859 0.0000
# 6 0.0000 0.0000 0.0000 0.0000 0.0000 33.8532
#
#
#
# Elastic Compliance Matrix: (Units=1/GPa)
#
#
# Indices 1 2 3 4 5 6 
#
# 1 0.018025 -0.010361 0.002889 0.000000 0.000000 0.000000
# 2 -0.010361 0.018025 0.002889 0.000000 0.000000 0.000000
# 3 0.002889 0.002889 0.066558 0.000000 0.000000 0.000000
# 4 0.000000 0.000000 0.000000 0.078828 0.000000 0.000000
# 5 0.000000 0.000000 0.000000 0.000000 0.078828 0.000000
# 6 0.000000 0.000000 0.000000 0.000000 0.000000 0.029539
#
#
# Mechanical properties :
#
#
# Convention : Reuss Voigt Hill
#
# Bulk Modulus (GPa) = 10.70147 29.09677 19.89912
# Shear Modulus (GPa) = 15.14619 21.68003 18.41311
#
# Velocity S-wave (km/s) = 2.64684 3.16670 2.91837
# Velocity P-wave (km/s) = 3.78034 5.17969 4.53432
#
# Compressibility (1/GPa) = 0.09344507
#
# Stress axis : x y z
#
# Youngs Moduli (GPa) = 55.47722 55.47722 15.02442
#
# Poissons Ratio (x) = 0.57477 -0.04341
# Poissons Ratio (y) = 0.57477 -0.04341
# Poissons Ratio (z) = -0.16029 -0.16029
#
# Static dielectric constant tensor:
#      x y z
#    x 1.808630 0.000000 0.000000 
#    y 0.000000 1.808630 0.000000 
#    z 0.000000 0.000000 1.770770 
# 
# From -- ./inp_files/1926.got.cif
#   From: 2010.05.17/outbox.cif.g08.bks.cpg/sg136_1_cif.got.tgz:1926.got - 2010.05.20 12:54:53.
