data_PCOD9569341
_publ_section_title
;
Structure prediction by ZEFSAII (Michael W. Deem and Ramdas Pophale) SiO2 
 PCOD9569341
Probable space group: P 42/M N M
;
_chemical_formula_sum "Si O2"
_cell_formula_units_Z 64
_cell_length_a 13.728103
_cell_length_b 13.728103
_cell_length_c 20.092625
_cell_angle_alpha 90.000000
_cell_angle_beta 90.000000
_cell_angle_gamma 90.000000
_cell_volume 3786.672422
_symmetry_space_group_name_H-M "P 42/M N M"
_symmetry_group_IT_number 136
_symmetry_cell_setting 'tetragonal'
loop_
_space_group_symop_operation_xyz
x,y,z
1/2-y,1/2+x,1/2+z
-x,-y,z
1/2+y,1/2-x,1/2+z
1/2+x,1/2-y,1/2-z
1/2-x,1/2+y,1/2-z
y,x,-z
-y,-x,-z
-x,-y,-z
1/2+y,1/2-x,1/2-z
x,y,-z
1/2-y,1/2+x,1/2-z
1/2-x,1/2+y,1/2+z
1/2+x,1/2-y,1/2+z
-y,-x,z
y,x,z
loop_
_atom_site_type_symbol
_atom_site_label
_atom_site_fract_x
_atom_site_fract_y
_atom_site_fract_z
Si Si1 0.094082 0.251680 0.699139
Si Si2 0.805556 0.650426 0.577884
Si Si3 0.049861 0.394266 0.077963
Si Si4 0.871752 0.290385 0.309671
O O1 0.148544 0.148544 0.707972
O O2 0.121611 0.291551 0.625824
O O3 0.145105 0.326466 0.750199
O O4 0.979092 0.252698 0.708267
O O5 0.831294 0.663197 0.500000
O O6 0.700281 0.700281 0.588624
O O7 0.816381 0.536117 0.591932
O O8 0.139945 0.380017 0.126362
O O9 0.000000 0.500000 0.089284
O O10 0.076461 0.388877 0.000000
O O11 0.798399 0.201602 0.321474
#
# Coordination Sequence:
#
# PCOD9569341 Si02
#       4
#    16  16  16  16
#     4  10  21  35  53  79 108 142 183 224 267 322
#     4   9  17  31  53  79 106 137 179 228 270 311
#     4  10  19  33  55  82 108 140 184 229 270 315
#     4  11  23  36  54  81 110 143 180 221 276 332
#
# _framework density 16.901382999999999
#
# number of rings (size 3 to 8) (size 9 to 14) (size 15 to 20)
#    0.000    2.000    2.500    1.500    0.000    1.000 
#    0.000    0.000    0.000    2.250    0.000    8.750 
#    0.000    0.000    0.000    0.000    0.000    0.000 
#
# Total GULP energy -356992.363485 kJ/mol
# GULP energy per Si atom -5578.005679 kJ/mol
# Density = 1.686292 g / cm^3
# Si number density = 16.901383 Si / 1000 Ang^3
#
#
#
# Elastic Constant Matrix: (Units=GPa)
#
#
# Indices 1 2 3 4 5 6 
#
# 1 124.9260 84.6214 53.2611 0.0000 0.0000 0.0000
# 2 84.6214 124.9260 53.2611 0.0000 0.0000 0.0000
# 3 53.2611 53.2611 61.2333 0.0000 0.0000 0.0000
# 4 0.0000 0.0000 0.0000 20.9893 0.0000 0.0000
# 5 0.0000 0.0000 0.0000 0.0000 20.9893 0.0000
# 6 0.0000 0.0000 0.0000 0.0000 0.0000 19.4998
#
#
#
# Elastic Compliance Matrix: (Units=1/GPa)
#
#
# Indices 1 2 3 4 5 6 
#
# 1 0.016683 -0.008128 -0.007441 0.000000 0.000000 0.000000
# 2 -0.008128 0.016683 -0.007441 0.000000 0.000000 0.000000
# 3 -0.007441 -0.007441 0.029275 0.000000 0.000000 0.000000
# 4 0.000000 0.000000 0.000000 0.047643 0.000000 0.000000
# 5 0.000000 0.000000 0.000000 0.000000 0.047643 0.000000
# 6 0.000000 0.000000 0.000000 0.000000 0.000000 0.051283
#
#
# Mechanical properties :
#
#
# Convention : Reuss Voigt Hill
#
# Bulk Modulus (GPa) = 60.16488 77.04142 68.60315
# Shear Modulus (GPa) = 19.17390 20.29179 19.73284
#
# Velocity S-wave (km/s) = 3.37182 3.46873 3.42062
# Velocity P-wave (km/s) = 7.12978 7.85650 7.50195
#
# Compressibility (1/GPa) = 0.01662099
#
# Stress axis : x y z
#
# Youngs Moduli (GPa) = 59.94151 59.94151 34.15833
#
# Poissons Ratio (x) = 0.48721 0.25417
# Poissons Ratio (y) = 0.48721 0.25417
# Poissons Ratio (z) = 0.44602 0.44602
#
# Static dielectric constant tensor:
#      x y z
#    x 1.564770 0.000000 0.000000 
#    y 0.000000 1.564770 0.000000 
#    z 0.000000 0.000000 1.580640 
# 
# From -- ./inp_files/5906.got.cif
#   From: 2010.05.17/outbox.cif.g08.bks.cpg/sg136_3_cif.got.tgz:5906.got - 2010.05.20 12:54:53.
