data_PCOD9569169
_publ_section_title
;
Structure prediction by ZEFSAII (Michael W. Deem and Ramdas Pophale) SiO2 
 PCOD9569169
Probable space group: P 42/M N M
;
_chemical_formula_sum "Si O2"
_cell_formula_units_Z 104
_cell_length_a 27.016387
_cell_length_b 27.016387
_cell_length_c 7.731504
_cell_angle_alpha 90.000000
_cell_angle_beta 90.000000
_cell_angle_gamma 90.000000
_cell_volume 5643.110085
_symmetry_space_group_name_H-M "P 42/M N M"
_symmetry_group_IT_number 136
_symmetry_cell_setting 'tetragonal'
loop_
_space_group_symop_operation_xyz
x,y,z
1/2-y,1/2+x,1/2+z
-x,-y,z
1/2+y,1/2-x,1/2+z
1/2+x,1/2-y,1/2-z
1/2-x,1/2+y,1/2-z
y,x,-z
-y,-x,-z
-x,-y,-z
1/2+y,1/2-x,1/2-z
x,y,-z
1/2-y,1/2+x,1/2-z
1/2-x,1/2+y,1/2+z
1/2+x,1/2-y,1/2+z
-y,-x,z
y,x,z
loop_
_atom_site_type_symbol
_atom_site_label
_atom_site_fract_x
_atom_site_fract_y
_atom_site_fract_z
Si Si1 0.022004 0.750411 0.209993
Si Si2 0.196719 0.803282 0.704869
Si Si3 0.540985 0.459016 0.287356
Si Si4 0.858550 0.493096 0.795294
Si Si5 0.389624 0.898037 0.202663
Si Si6 0.216625 0.370509 0.706924
Si Si7 0.116825 0.883176 0.290952
Si Si8 0.642627 0.504600 0.703939
O O1 0.994966 0.700394 0.265685
O O2 0.079409 0.744494 0.268931
O O3 0.998777 0.801769 0.274478
O O4 0.022393 0.751719 0.000000
O O5 0.194211 0.805790 0.500000
O O6 0.250707 0.822592 0.755814
O O7 0.156788 0.843213 0.773978
O O8 0.500000 0.500000 0.235841
O O9 0.540744 0.459257 0.500000
O O10 0.525141 0.404512 0.226218
O O11 0.881172 0.442197 0.723602
O O12 0.880912 0.543177 0.715944
O O13 0.868417 0.496341 0.000000
O O14 0.339524 0.873088 0.275861
O O15 0.391646 0.884542 0.000000
O O16 0.213381 0.375327 0.500000
O O17 0.116493 0.883507 0.500000
O O18 0.062508 0.869544 0.225697
O O19 0.644801 0.493050 0.500000
#
# Coordination Sequence:
#
# PCOD9569169 Si02
#       8
#    16   8   8  16  16  16   8  16
#     4   9  18  31  49  71  96 127 163 199 238 293
#     4  11  21  29  42  71 104 126 157 205 253 294
#     4   9  16  26  46  69  88 119 169 215 240 278
#     4  10  20  34  55  78 102 130 160 200 244 287
#     4   9  20  37  53  76 105 133 168 200 237 295
#     4   9  17  31  50  69  94 128 164 196 234 291
#     4  11  21  28  40  67 101 129 156 206 255 297
#     4  10  18  31  48  66  92 130 170 204 244 295
#
# _framework density 18.429552999999999
#
# number of rings (size 3 to 8) (size 9 to 14) (size 15 to 20)
#    0.000    2.385    2.308    1.846    0.000    5.231 
#    0.000    2.308    0.000    0.923    0.000    2.154 
#    0.000    0.000    0.000    0.000    0.000    0.000 
#
# Total GULP energy -579848.702085 kJ/mol
# GULP energy per Si atom -5575.468289 kJ/mol
# Density = 1.838761 g / cm^3
# Si number density = 18.429553 Si / 1000 Ang^3
#
#
#
# Elastic Constant Matrix: (Units=GPa)
#
#
# Indices 1 2 3 4 5 6 
#
# 1 110.5575 79.9843 -10.4789 0.0000 0.0000 0.0000
# 2 79.9843 110.5570 -10.4789 0.0000 0.0000 0.0000
# 3 -10.4789 -10.4789 22.5137 0.0000 0.0000 0.0000
# 4 0.0000 0.0000 0.0000 12.4781 0.0000 0.0000
# 5 0.0000 0.0000 0.0000 0.0000 12.4782 0.0000
# 6 0.0000 0.0000 0.0000 0.0000 0.0000 29.6952
#
#
#
# Elastic Compliance Matrix: (Units=1/GPa)
#
#
# Indices 1 2 3 4 5 6 
#
# 1 0.019120 -0.013589 0.002575 0.000000 0.000000 0.000000
# 2 -0.013589 0.019120 0.002575 0.000000 0.000000 0.000000
# 3 0.002575 0.002575 0.046814 0.000000 0.000000 0.000000
# 4 0.000000 0.000000 0.000000 0.080140 0.000000 0.000000
# 5 0.000000 0.000000 0.000000 0.000000 0.080140 0.000000
# 6 0.000000 0.000000 0.000000 0.000000 0.000000 0.033675
#
#
# Mechanical properties :
#
#
# Convention : Reuss Voigt Hill
#
# Bulk Modulus (GPa) = 14.66810 40.18678 27.42744
# Shear Modulus (GPa) = 15.69298 23.23709 19.46504
#
# Velocity S-wave (km/s) = 2.92123 3.55471 3.25343
# Velocity P-wave (km/s) = 4.39937 6.22101 5.38773
#
# Compressibility (1/GPa) = 0.06817516
#
# Stress axis : x y z
#
# Youngs Moduli (GPa) = 52.30134 52.30107 21.36108
#
# Poissons Ratio (x) = 0.71070 -0.05499
# Poissons Ratio (y) = 0.71070 -0.05500
# Poissons Ratio (z) = -0.13465 -0.13465
#
# Static dielectric constant tensor:
#      x y z
#    x 1.638490 0.000000 0.000000 
#    y 0.000000 1.638490 0.000000 
#    z 0.000000 0.000000 1.661940 
# 
# From -- ./inp_files/2283.got.cif
#   From: 2010.05.17/outbox.cif.g08.bks.cpg/sg136_2_cif.got.tgz:2283.got - 2010.05.20 12:54:53.
