data_PCOD9569046
_publ_section_title
;
Structure prediction by ZEFSAII (Michael W. Deem and Ramdas Pophale) SiO2 
 PCOD9569046
Probable space group: P 42/M B C
;
_chemical_formula_sum "Si O2"
_cell_formula_units_Z 56
_cell_length_a 10.041862
_cell_length_b 10.041862
_cell_length_c 22.642348
_cell_angle_alpha 90.000000
_cell_angle_beta 90.000000
_cell_angle_gamma 90.000000
_cell_volume 2283.231559
_symmetry_space_group_name_H-M "P 42/M B C"
_symmetry_group_IT_number 135
_symmetry_cell_setting 'tetragonal'
loop_
_space_group_symop_operation_xyz
x,y,z
-y,x,1/2+z
-x,-y,z
y,-x,1/2+z
1/2+x,1/2-y,-z
1/2-x,1/2+y,-z
1/2+y,1/2+x,1/2-z
1/2-y,1/2-x,1/2-z
-x,-y,-z
y,-x,1/2-z
x,y,-z
-y,x,1/2-z
1/2-x,1/2+y,z
1/2+x,1/2-y,z
1/2-y,1/2-x,1/2+z
1/2+y,1/2+x,1/2+z
loop_
_atom_site_type_symbol
_atom_site_label
_atom_site_fract_x
_atom_site_fract_y
_atom_site_fract_z
Si Si1 0.670087 0.170087 0.250000
Si Si2 0.500000 0.500000 0.886660
Si Si3 0.500000 0.000000 0.901509
Si Si4 0.597038 0.628494 0.500000
Si Si5 0.185376 0.371854 0.000000
Si Si6 0.590669 0.760399 0.180854
O O1 0.516446 0.203134 0.233489
O O2 0.736606 0.255514 0.302545
O O3 0.440305 0.386675 0.844570
O O4 0.432789 0.599827 0.934935
O O5 0.602226 0.078647 0.943690
O O6 0.428322 0.113589 0.862643
O O7 0.449711 0.680586 0.500000
O O8 0.719563 0.726194 0.500000
#
# Coordination Sequence:
#
# PCOD9569046 Si02
#       6
#     8   8   8   8   8  16
#     4  12  28  48  72 106 140 188 260 300 361 431
#     4  11  26  43  72 104 148 189 240 295 378 432
#     4  11  26  43  72 104 148 189 240 297 384 428
#     4  11  26  44  69 111 145 189 246 297 364 467
#     4  11  26  44  69 111 145 191 242 301 360 473
#     4  12  26  47  74 102 144 193 240 312 363 434
#
# _framework density 24.52664
#
# number of rings (size 3 to 8) (size 9 to 14) (size 15 to 20)
#    0.000    0.571    2.857    3.429   12.000    0.000 
#    0.000    0.000    0.000    0.000    0.000    0.000 
#    0.000    0.000    0.000    0.000    0.000    0.000 
#
# Total GULP energy -311982.934697 kJ/mol
# GULP energy per Si atom -5571.123834 kJ/mol
# Density = 2.447082 g / cm^3
# Si number density = 24.526640 Si / 1000 Ang^3
#
#
#
# Elastic Constant Matrix: (Units=GPa)
#
#
# Indices 1 2 3 4 5 6 
#
# 1 88.6982 -7.8637 6.2235 0.0000 0.0000 0.0000
# 2 -7.8637 88.6982 6.2235 0.0000 0.0000 0.0000
# 3 6.2235 6.2235 59.9924 0.0000 0.0000 0.0000
# 4 0.0000 0.0000 0.0000 -150.0404 0.0000 0.0000
# 5 0.0000 0.0000 0.0000 0.0000 -150.0404 0.0000
# 6 0.0000 0.0000 0.0000 0.0000 0.0000 33.6131
#
#
#
# Elastic Compliance Matrix: (Units=1/GPa)
#
#
# Indices 1 2 3 4 5 6 
#
# 1 0.011464 0.001108 -0.001304 0.000000 0.000000 0.000000
# 2 0.001108 0.011464 -0.001304 0.000000 0.000000 0.000000
# 3 -0.001304 -0.001304 0.016939 0.000000 0.000000 0.000000
# 4 0.000000 0.000000 0.000000 -0.006665 0.000000 0.000000
# 5 0.000000 0.000000 0.000000 0.000000 -0.006665 0.000000
# 6 0.000000 0.000000 0.000000 0.000000 0.000000 0.029750
#
#
# Mechanical properties :
#
#
# Convention : Reuss Voigt Hill
#
# Bulk Modulus (GPa) = 27.12511 27.39505 27.26008
# Shear Modulus (GPa) = 69.85437 -37.77316 16.04061
#
# Velocity S-wave (km/s) = 5.34255 -3.92865 2.56013
# Velocity P-wave (km/s) = 7.01004 3.06355 4.45843
#
# Compressibility (1/GPa) = 0.03686621
#
# Stress axis : x y z
#
# Youngs Moduli (GPa) = 87.23020 87.23020 59.03412
#
# Poissons Ratio (x) = -0.09664 0.07699
# Poissons Ratio (y) = -0.09664 0.07699
# Poissons Ratio (z) = 0.11376 0.11376
#
# Static dielectric constant tensor:
#      x y z
#    x 1.916820 0.000000 0.000000 
#    y 0.000000 1.916820 0.000000 
#    z 0.000000 0.000000 2.030420 
# 
# From -- ./inp_files/5024.got.cif
#   From: 2010.05.17/outbox.cif.g08.bks.cpg/sg135_3_cif.got.tgz:5024.got - 2010.05.20 12:50:20.
