data_PCOD9569048
_publ_section_title
;
Structure prediction by ZEFSAII (Michael W. Deem and Ramdas Pophale) SiO2 
 PCOD9569048
Probable space group: P 42/M B C
;
_chemical_formula_sum "Si O2"
_cell_formula_units_Z 48
_cell_length_a 10.679489
_cell_length_b 10.679489
_cell_length_c 17.566424
_cell_angle_alpha 90.000000
_cell_angle_beta 90.000000
_cell_angle_gamma 90.000000
_cell_volume 2003.476749
_symmetry_space_group_name_H-M "P 42/M B C"
_symmetry_group_IT_number 135
_symmetry_cell_setting 'tetragonal'
loop_
_space_group_symop_operation_xyz
x,y,z
-y,x,1/2+z
-x,-y,z
y,-x,1/2+z
1/2+x,1/2-y,-z
1/2-x,1/2+y,-z
1/2+y,1/2+x,1/2-z
1/2-y,1/2-x,1/2-z
-x,-y,-z
y,-x,1/2-z
x,y,-z
-y,x,1/2-z
1/2-x,1/2+y,z
1/2+x,1/2-y,z
1/2-y,1/2-x,1/2+z
1/2+y,1/2+x,1/2+z
loop_
_atom_site_type_symbol
_atom_site_label
_atom_site_fract_x
_atom_site_fract_y
_atom_site_fract_z
Si Si1 0.942206 0.864455 0.642345
Si Si2 0.899227 0.611936 0.418648
Si Si3 0.283238 0.029251 0.711013
O O1 0.793489 0.883735 0.653001
O O2 0.993884 0.812762 0.722612
O O3 0.000000 0.000000 0.623604
O O4 0.830132 0.603262 0.500000
O O5 0.823969 0.587917 0.340581
O O6 0.000000 0.500000 0.417756
O O7 0.962189 0.747909 0.413124
O O8 0.397242 0.102759 0.750000
#
# Coordination Sequence:
#
# PCOD9569048 Si02
#       3
#    16  16  16
#     4  12  25  44  71 112 147 189 252 322 386 446
#     4  11  26  45  70 106 150 201 250 307 386 465
#     4  12  22  43  74 108 144 192 254 322 374 446
#
# _framework density 23.958349999999999
#
# number of rings (size 3 to 8) (size 9 to 14) (size 15 to 20)
#    0.000    0.333    6.667    3.000    0.000    2.000 
#    0.000    3.333    0.000    1.000    0.000    0.000 
#    0.000    0.000    0.000    0.000    0.000    0.000 
#
# Total GULP energy -268295.640608 kJ/mol
# GULP energy per Si atom -5589.492513 kJ/mol
# Density = 2.390382 g / cm^3
# Si number density = 23.958350 Si / 1000 Ang^3
#
#
#
# Elastic Constant Matrix: (Units=GPa)
#
#
# Indices 1 2 3 4 5 6 
#
# 1 134.9794 45.7632 33.5057 0.0000 0.0000 0.0000
# 2 45.7632 134.9812 33.5050 0.0000 0.0000 0.0000
# 3 33.5057 33.5050 101.5104 0.0000 0.0000 0.0000
# 4 0.0000 0.0000 0.0000 1028.7324 0.0000 0.0000
# 5 0.0000 0.0000 0.0000 0.0000 1029.3629 0.0000
# 6 0.0000 0.0000 0.0000 0.0000 0.0000 35.7799
#
#
#
# Elastic Compliance Matrix: (Units=1/GPa)
#
#
# Indices 1 2 3 4 5 6 
#
# 1 0.008756 -0.002452 -0.002081 0.000000 0.000000 0.000000
# 2 -0.002452 0.008756 -0.002081 0.000000 0.000000 0.000000
# 3 -0.002081 -0.002081 0.011225 0.000000 0.000000 0.000000
# 4 0.000000 0.000000 0.000000 0.000972 0.000000 0.000000
# 5 0.000000 0.000000 0.000000 0.000000 0.000971 0.000000
# 6 0.000000 0.000000 0.000000 0.000000 0.000000 0.027949
#
#
# Mechanical properties :
#
#
# Convention : Reuss Voigt Hill
#
# Bulk Modulus (GPa) = 64.47482 66.33543 65.40512
# Shear Modulus (GPa) = 64.91193 436.02152 250.46672
#
# Velocity S-wave (km/s) = 5.21080 13.50506 10.23570
# Velocity P-wave (km/s) = 7.94814 16.45995 12.92484
#
# Compressibility (1/GPa) = 0.01550993
#
# Stress axis : x y z
#
# Youngs Moduli (GPa) = 114.20135 114.20338 89.08825
#
# Poissons Ratio (x) = 0.28005 0.18538
# Poissons Ratio (y) = 0.28005 0.18537
# Poissons Ratio (z) = 0.23764 0.23763
#
# Static dielectric constant tensor:
#      x y z
#    x 1.969190 0.000000 0.000000 
#    y 0.000000 1.969190 0.000000 
#    z 0.000000 0.000000 1.923670 
# 
# From -- ./inp_files/2970.got.cif
#   From: 2010.05.17/outbox.cif.g08.bks.cpg/sg135_2_cif.got.tgz:2970.got - 2010.05.20 12:50:20.
