data_PCOD9569296
_publ_section_title
;
Structure prediction by ZEFSAII (Michael W. Deem and Ramdas Pophale) SiO2 
 PCOD9569296
Probable space group: P 42/M N M
;
_chemical_formula_sum "Si O2"
_cell_formula_units_Z 112
_cell_length_a 14.476183
_cell_length_b 14.476183
_cell_length_c 27.623671
_cell_angle_alpha 90.000000
_cell_angle_beta 90.000000
_cell_angle_gamma 90.000000
_cell_volume 5788.813021
_symmetry_space_group_name_H-M "P 42/M N M"
_symmetry_group_IT_number 136
_symmetry_cell_setting 'tetragonal'
loop_
_space_group_symop_operation_xyz
x,y,z
1/2-y,1/2+x,1/2+z
-x,-y,z
1/2+y,1/2-x,1/2+z
1/2+x,1/2-y,1/2-z
1/2-x,1/2+y,1/2-z
y,x,-z
-y,-x,-z
-x,-y,-z
1/2+y,1/2-x,1/2-z
x,y,-z
1/2-y,1/2+x,1/2-z
1/2-x,1/2+y,1/2+z
1/2+x,1/2-y,1/2+z
-y,-x,z
y,x,z
loop_
_atom_site_type_symbol
_atom_site_label
_atom_site_fract_x
_atom_site_fract_y
_atom_site_fract_z
Si Si1 0.797714 0.569169 0.865618
Si Si2 0.298991 0.033175 0.122465
Si Si3 0.712952 0.441428 0.057617
Si Si4 0.428154 0.918681 0.806913
Si Si5 0.863651 0.281271 0.942629
Si Si6 0.770638 0.628042 0.239853
Si Si7 0.003891 0.147305 0.196600
O O1 0.877472 0.637201 0.886506
O O2 0.730086 0.528090 0.906605
O O3 0.843817 0.481217 0.838693
O O4 0.762477 0.621362 0.817735
O O5 0.205093 0.047553 0.152443
O O6 0.353596 0.965820 0.158856
O O7 0.284699 0.966919 0.076997
O O8 0.621580 0.378421 0.067360
O O9 0.800809 0.372562 0.065538
O O10 0.711302 0.465352 0.000000
O O11 0.374492 0.879657 0.760269
O O12 0.500000 0.000000 0.797526
O O13 0.804437 0.195564 0.921512
O O14 0.867103 0.270756 0.000000
O O15 0.722162 0.722162 0.256732
O O16 0.713244 0.544517 0.264138
O O17 0.083486 0.083486 0.218807
O O18 0.922484 0.077517 0.179402
#
# Coordination Sequence:
#
# PCOD9569296 Si02
#       7
#    16  16  16  16  16  16  16
#     4  11  22  33  52  82 112 151 188 235 292 347
#     4  10  19  32  50  79 113 144 183 230 288 345
#     4   9  19  36  56  80 110 145 190 242 297 356
#     4   9  20  33  52  76 111 152 186 225 278 343
#     4   9  17  31  52  78 109 144 183 231 286 346
#     4  10  23  38  54  80 113 149 191 237 282 341
#     4   9  19  37  58  78 106 149 194 233 277 337
#
# _framework density 19.347663000000001
#
# number of rings (size 3 to 8) (size 9 to 14) (size 15 to 20)
#    0.000    2.429    1.429    1.286    6.000    2.857 
#    0.000    1.429    0.000    0.857    0.000    5.000 
#    0.000    0.000    0.000    0.000    0.000    0.000 
#
# Total GULP energy -623973.301942 kJ/mol
# GULP energy per Si atom -5571.190196 kJ/mol
# Density = 1.930363 g / cm^3
# Si number density = 19.347663 Si / 1000 Ang^3
#
#
#
# Elastic Constant Matrix: (Units=GPa)
#
#
# Indices 1 2 3 4 5 6 
#
# 1 61.8320 37.1440 28.4354 0.0000 0.0000 0.0000
# 2 37.1440 61.8320 28.4354 0.0000 0.0000 0.0000
# 3 28.4354 28.4354 76.5331 0.0000 0.0000 0.0000
# 4 0.0000 0.0000 0.0000 10.0962 0.0000 0.0000
# 5 0.0000 0.0000 0.0000 0.0000 10.0962 0.0000
# 6 0.0000 0.0000 0.0000 0.0000 0.0000 19.0090
#
#
#
# Elastic Compliance Matrix: (Units=1/GPa)
#
#
# Indices 1 2 3 4 5 6 
#
# 1 0.026676 -0.013830 -0.004773 0.000000 0.000000 0.000000
# 2 -0.013830 0.026676 -0.004773 0.000000 0.000000 0.000000
# 3 -0.004773 -0.004773 0.016613 0.000000 0.000000 0.000000
# 4 0.000000 0.000000 0.000000 0.099047 0.000000 0.000000
# 5 0.000000 0.000000 0.000000 0.000000 0.099047 0.000000
# 6 0.000000 0.000000 0.000000 0.000000 0.000000 0.052607
#
#
# Mechanical properties :
#
#
# Convention : Reuss Voigt Hill
#
# Bulk Modulus (GPa) = 43.07858 43.13628 43.10743
# Shear Modulus (GPa) = 13.32788 14.91911 14.12350
#
# Velocity S-wave (km/s) = 2.62747 2.77989 2.70475
# Velocity P-wave (km/s) = 5.61415 5.71380 5.66419
#
# Compressibility (1/GPa) = 0.02321339
#
# Stress axis : x y z
#
# Youngs Moduli (GPa) = 37.48732 37.48732 60.19440
#
# Poissons Ratio (x) = 0.51844 0.28730
# Poissons Ratio (y) = 0.51844 0.28730
# Poissons Ratio (z) = 0.17892 0.17892
#
# Static dielectric constant tensor:
#      x y z
#    x 1.738690 0.000000 0.000000 
#    y 0.000000 1.738690 0.000000 
#    z 0.000000 0.000000 1.690330 
# 
# From -- ./inp_files/9200.got.cif
#   From: 2010.05.17/outbox.cif.g08.bks.cpg/sg136_5_cif.got.tgz:9200.got - 2010.05.20 12:54:53.
