data_PCOD9569026
_publ_section_title
;
Structure prediction by ZEFSAII (Michael W. Deem and Ramdas Pophale) SiO2 
 PCOD9569026
Probable space group: P 42/M B C
;
_chemical_formula_sum "Si O2"
_cell_formula_units_Z 96
_cell_length_a 23.419577
_cell_length_b 23.419577
_cell_length_c 8.566586
_cell_angle_alpha 90.000000
_cell_angle_beta 90.000000
_cell_angle_gamma 90.000000
_cell_volume 4698.571850
_symmetry_space_group_name_H-M "P 42/M B C"
_symmetry_group_IT_number 135
_symmetry_cell_setting 'tetragonal'
loop_
_space_group_symop_operation_xyz
x,y,z
-y,x,1/2+z
-x,-y,z
y,-x,1/2+z
1/2+x,1/2-y,-z
1/2-x,1/2+y,-z
1/2+y,1/2+x,1/2-z
1/2-y,1/2-x,1/2-z
-x,-y,-z
y,-x,1/2-z
x,y,-z
-y,x,1/2-z
1/2-x,1/2+y,z
1/2+x,1/2-y,z
1/2-y,1/2-x,1/2+z
1/2+y,1/2+x,1/2+z
loop_
_atom_site_type_symbol
_atom_site_label
_atom_site_fract_x
_atom_site_fract_y
_atom_site_fract_z
Si Si1 0.792363 0.538567 0.188312
Si Si2 0.901121 0.483917 0.177422
Si Si3 0.424633 0.199118 0.182910
Si Si4 0.531986 0.416332 0.686335
Si Si5 0.398302 0.690157 0.815520
Si Si6 0.687049 0.725278 0.815265
O O1 0.859726 0.534923 0.239167
O O2 0.766054 0.481702 0.270138
O O3 0.752842 0.589130 0.244987
O O4 0.791166 0.534196 0.000000
O O5 0.957720 0.457720 0.250000
O O6 0.853965 0.433521 0.200279
O O7 0.913940 0.496548 0.000000
O O8 0.367157 0.233185 0.207155
O O9 0.428595 0.181664 0.000000
O O10 0.469831 0.428740 0.760145
O O11 0.526702 0.416916 0.500000
O O12 0.560317 0.357430 0.741324
O O13 0.333510 0.675650 0.772096
O O14 0.406565 0.691143 0.000000
O O15 0.742165 0.757836 0.750000
O O16 0.693105 0.714664 0.000000
#
# Coordination Sequence:
#
# PCOD9569026 Si02
#       6
#    16  16  16  16  16  16
#     4   9  20  35  52  76 108 143 183 229 279 334
#     4   9  17  27  46  72 104 139 173 218 274 333
#     4   9  18  32  52  76 106 141 179 224 276 333
#     4  11  23  41  61  83 112 146 193 249 301 351
#     4  12  25  40  60  82 111 152 197 243 297 352
#     4  11  24  40  58  82 114 150 194 242 293 355
#
# _framework density 20.431742
#
# number of rings (size 3 to 8) (size 9 to 14) (size 15 to 20)
#    1.000    0.833    0.000    5.500    2.333    4.000 
#    0.000    0.000    0.000    0.000    0.000    0.000 
#    0.000    0.667    0.000    7.000    0.000    3.833 
#
# Total GULP energy -534803.179655 kJ/mol
# GULP energy per Si atom -5570.866455 kJ/mol
# Density = 2.038524 g / cm^3
# Si number density = 20.431742 Si / 1000 Ang^3
#
#
#
# Elastic Constant Matrix: (Units=GPa)
#
#
# Indices 1 2 3 4 5 6 
#
# 1 95.1824 -23.0473 15.2025 0.0000 0.0000 0.0000
# 2 -23.0473 95.1775 15.2115 0.0000 0.0000 0.0000
# 3 15.2025 15.2115 82.0894 0.0000 0.0000 0.0000
# 4 0.0000 0.0000 0.0000 20.7835 0.0000 0.0000
# 5 0.0000 0.0000 0.0000 0.0000 20.7831 0.0000
# 6 0.0000 0.0000 0.0000 0.0000 0.0000 27.7231
#
#
#
# Elastic Compliance Matrix: (Units=1/GPa)
#
#
# Indices 1 2 3 4 5 6 
#
# 1 0.011748 0.003290 -0.002785 0.000000 0.000000 0.000000
# 2 0.003290 0.011749 -0.002786 0.000000 0.000000 0.000000
# 3 -0.002785 -0.002786 0.013214 0.000000 0.000000 0.000000
# 4 0.000000 0.000000 0.000000 0.048115 0.000000 0.000000
# 5 0.000000 0.000000 0.000000 0.000000 0.048116 0.000000
# 6 0.000000 0.000000 0.000000 0.000000 0.000000 0.036071
#
#
# Mechanical properties :
#
#
# Convention : Reuss Voigt Hill
#
# Bulk Modulus (GPa) = 31.10731 31.90919 31.50825
# Shear Modulus (GPa) = 27.13095 31.53010 29.33053
#
# Velocity S-wave (km/s) = 3.64797 3.93261 3.79296
# Velocity P-wave (km/s) = 5.74470 6.02262 5.88530
#
# Compressibility (1/GPa) = 0.03214678
#
# Stress axis : x y z
#
# Youngs Moduli (GPa) = 85.12376 85.11618 75.67750
#
# Poissons Ratio (x) = -0.28002 0.21078
# Poissons Ratio (y) = -0.28004 0.21086
# Poissons Ratio (z) = 0.23709 0.23716
#
# Static dielectric constant tensor:
#      x y z
#    x 1.782260 0.000000 0.000000 
#    y 0.000000 1.782260 0.000000 
#    z 0.000000 0.000000 1.701960 
# 
# From -- ./inp_files/1287.got.cif
#   From: 2010.05.17/outbox.cif.g08.bks.cpg/sg135_1_cif.got.tgz:1287.got - 2010.05.20 12:50:20.
