data_PCOD9569113
_publ_section_title
;
Structure prediction by ZEFSAII (Michael W. Deem and Ramdas Pophale) SiO2 
 PCOD9569113
Probable space group: P 42/M N M
;
_chemical_formula_sum "Si O2"
_cell_formula_units_Z 128
_cell_length_a 21.168870
_cell_length_b 21.168870
_cell_length_c 17.886015
_cell_angle_alpha 90.000000
_cell_angle_beta 90.000000
_cell_angle_gamma 90.000000
_cell_volume 8015.099949
_symmetry_space_group_name_H-M "P 42/M N M"
_symmetry_group_IT_number 136
_symmetry_cell_setting 'tetragonal'
loop_
_space_group_symop_operation_xyz
x,y,z
1/2-y,1/2+x,1/2+z
-x,-y,z
1/2+y,1/2-x,1/2+z
1/2+x,1/2-y,1/2-z
1/2-x,1/2+y,1/2-z
y,x,-z
-y,-x,-z
-x,-y,-z
1/2+y,1/2-x,1/2-z
x,y,-z
1/2-y,1/2+x,1/2-z
1/2-x,1/2+y,1/2+z
1/2+x,1/2-y,1/2+z
-y,-x,z
y,x,z
loop_
_atom_site_type_symbol
_atom_site_label
_atom_site_fract_x
_atom_site_fract_y
_atom_site_fract_z
Si Si1 0.905721 0.508052 0.285197
Si Si2 0.078151 0.672080 0.411778
Si Si3 0.584027 0.960257 0.585002
Si Si4 0.850713 0.686740 0.587603
Si Si5 0.205089 0.693901 0.330983
Si Si6 0.241270 0.860830 0.813846
Si Si7 0.520782 0.762737 0.771198
Si Si8 0.716104 0.383733 0.216136
O O1 0.936645 0.442238 0.260760
O O2 0.930431 0.528242 0.366188
O O3 0.832292 0.508334 0.265616
O O4 0.075411 0.688661 0.500000
O O5 0.151085 0.666045 0.385025
O O6 0.050396 0.723124 0.353004
O O7 0.030219 0.612635 0.402295
O O8 0.564133 0.956723 0.500000
O O9 0.643565 0.913062 0.596582
O O10 0.843564 0.702505 0.500000
O O11 0.791374 0.647211 0.619364
O O12 0.858399 0.745761 0.643273
O O13 0.251712 0.748289 0.363616
O O14 0.170078 0.725609 0.259572
O O15 0.248319 0.641982 0.290351
O O16 0.179580 0.820421 0.831063
O O17 0.229925 0.931281 0.786080
O O18 0.458083 0.723133 0.782338
O O19 0.647569 0.352432 0.214797
#
# Coordination Sequence:
#
# PCOD9569113 Si02
#       8
#    16  16  16  16  16  16  16  16
#     4  11  21  31  48  68  88 136 178 200 232 290
#     4  10  19  29  47  70  96 130 164 205 252 289
#     4  10  19  32  46  70 105 135 165 206 246 291
#     4  10  17  29  49  76 106 132 156 196 252 306
#     4   8  17  31  48  68  92 124 171 216 245 282
#     4   9  18  31  48  71  96 127 162 197 242 288
#     4  11  20  33  52  68  99 127 165 210 243 297
#     4  10  20  33  52  75  95 126 166 206 254 301
#
# _framework density 15.969856999999999
#
# number of rings (size 3 to 8) (size 9 to 14) (size 15 to 20)
#    0.000    2.125    3.750    1.125    3.500    1.250 
#    0.000    1.875    0.000    1.125    0.000    0.000 
#    0.000    0.000    0.000    8.500    0.000    0.000 
#
# Total GULP energy -713117.780345 kJ/mol
# GULP energy per Si atom -5571.232659 kJ/mol
# Density = 1.593351 g / cm^3
# Si number density = 15.969857 Si / 1000 Ang^3
#
#
#
# Elastic Constant Matrix: (Units=GPa)
#
#
# Indices 1 2 3 4 5 6 
#
# 1 51.9880 22.7791 34.7613 0.0000 0.0000 0.0000
# 2 22.7791 51.9880 34.7613 0.0000 0.0000 0.0000
# 3 34.7613 34.7613 81.8322 0.0000 0.0000 0.0000
# 4 0.0000 0.0000 0.0000 15.5176 0.0000 0.0000
# 5 0.0000 0.0000 0.0000 0.0000 15.5176 0.0000
# 6 0.0000 0.0000 0.0000 0.0000 0.0000 7.0939
#
#
#
# Elastic Compliance Matrix: (Units=1/GPa)
#
#
# Indices 1 2 3 4 5 6 
#
# 1 0.028172 -0.006065 -0.009391 0.000000 0.000000 0.000000
# 2 -0.006065 0.028172 -0.009391 0.000000 0.000000 0.000000
# 3 -0.009391 -0.009391 0.020198 0.000000 0.000000 0.000000
# 4 0.000000 0.000000 0.000000 0.064443 0.000000 0.000000
# 5 0.000000 0.000000 0.000000 0.000000 0.064443 0.000000
# 6 0.000000 0.000000 0.000000 0.000000 0.000000 0.140967
#
#
# Mechanical properties :
#
#
# Convention : Reuss Voigt Hill
#
# Bulk Modulus (GPa) = 37.24515 41.15682 39.20099
# Shear Modulus (GPa) = 12.34458 13.85958 13.10208
#
# Velocity S-wave (km/s) = 2.78329 2.94914 2.86741
# Velocity P-wave (km/s) = 5.80532 6.11752 5.96346
#
# Compressibility (1/GPa) = 0.02684913
#
# Stress axis : x y z
#
# Youngs Moduli (GPa) = 35.49686 35.49686 49.50918
#
# Poissons Ratio (x) = 0.21527 0.46493
# Poissons Ratio (y) = 0.21527 0.46493
# Poissons Ratio (z) = 0.33334 0.33334
#
# Static dielectric constant tensor:
#      x y z
#    x 1.552460 0.000000 0.000000 
#    y 0.000000 1.552460 0.000000 
#    z 0.000000 0.000000 1.567700 
# 
# From -- ./inp_files/6660.got.cif
#   From: 2010.05.17/outbox.cif.g08.bks.cpg/sg136_4_cif.got.tgz:6660.got - 2010.05.20 12:54:53.
