data_PCOD9569121
_publ_section_title
;
Structure prediction by ZEFSAII (Michael W. Deem and Ramdas Pophale) SiO2 
 PCOD9569121
Probable space group: P 42/M N M
;
_chemical_formula_sum "Si O2"
_cell_formula_units_Z 88
_cell_length_a 12.946680
_cell_length_b 12.946680
_cell_length_c 29.558695
_cell_angle_alpha 90.000000
_cell_angle_beta 90.000000
_cell_angle_gamma 90.000000
_cell_volume 4954.525681
_symmetry_space_group_name_H-M "P 42/M N M"
_symmetry_group_IT_number 136
_symmetry_cell_setting 'tetragonal'
loop_
_space_group_symop_operation_xyz
x,y,z
1/2-y,1/2+x,1/2+z
-x,-y,z
1/2+y,1/2-x,1/2+z
1/2+x,1/2-y,1/2-z
1/2-x,1/2+y,1/2-z
y,x,-z
-y,-x,-z
-x,-y,-z
1/2+y,1/2-x,1/2-z
x,y,-z
1/2-y,1/2+x,1/2-z
1/2-x,1/2+y,1/2+z
1/2+x,1/2-y,1/2+z
-y,-x,z
y,x,z
loop_
_atom_site_type_symbol
_atom_site_label
_atom_site_fract_x
_atom_site_fract_y
_atom_site_fract_z
Si Si1 0.415538 0.584463 0.822845
Si Si2 0.342098 0.915269 0.803847
Si Si3 0.868459 0.699875 0.853201
Si Si4 0.463520 0.219257 0.792245
Si Si5 0.166544 0.833457 0.947475
Si Si6 0.434275 0.740678 0.551192
Si Si7 0.231426 0.231426 0.367365
O O1 0.500000 0.500000 0.836088
O O2 0.470872 0.676108 0.795173
O O3 0.355677 0.644324 0.862715
O O4 0.459664 0.879400 0.794786
O O5 0.287144 0.905252 0.755350
O O6 0.304700 0.833111 0.840709
O O7 0.317318 0.028644 0.823269
O O8 0.810069 0.810069 0.847189
O O9 0.790697 0.613378 0.834415
O O10 0.899302 0.690517 0.906068
O O11 0.237998 0.762003 0.917279
O O12 0.047057 0.806123 0.938488
O O13 0.184656 0.815345 0.000000
O O14 0.436411 0.786561 0.500000
O O15 0.353061 0.646940 0.549669
#
# Coordination Sequence:
#
# PCOD9569121 Si02
#       7
#     8  16  16  16   8  16   8
#     4  10  24  42  59  80 108 150 197 250 284 336
#     4  11  22  36  55  81 114 152 191 234 280 334
#     4  11  22  34  56  85 117 152 195 229 278 346
#     4  11  23  38  59  79 112 156 197 235 289 338
#     4  10  17  32  56  83 118 155 191 232 289 352
#     4   9  18  33  54  83 119 156 191 233 287 348
#     4  10  22  37  56  85 117 152 190 235 286 347
#
# _framework density 17.761538000000002
#
# number of rings (size 3 to 8) (size 9 to 14) (size 15 to 20)
#    0.000    1.636    3.636    1.364    3.818    1.091 
#    0.000    0.455    0.000    6.818    0.000    0.000 
#    0.000    0.000    0.000    0.000    0.000    0.000 
#
# Total GULP energy -490564.182941 kJ/mol
# GULP energy per Si atom -5574.592988 kJ/mol
# Density = 1.772111 g / cm^3
# Si number density = 17.761538 Si / 1000 Ang^3
#
#
#
# Elastic Constant Matrix: (Units=GPa)
#
#
# Indices 1 2 3 4 5 6 
#
# 1 69.0395 37.4610 34.8311 0.0000 0.0000 0.0000
# 2 37.4610 69.0395 34.8309 0.0000 0.0000 0.0000
# 3 34.8311 34.8309 108.1972 0.0000 0.0000 0.0000
# 4 0.0000 0.0000 0.0000 18.7410 0.0000 0.0000
# 5 0.0000 0.0000 0.0000 0.0000 18.7410 0.0000
# 6 0.0000 0.0000 0.0000 0.0000 0.0000 36.3255
#
#
#
# Elastic Compliance Matrix: (Units=1/GPa)
#
#
# Indices 1 2 3 4 5 6 
#
# 1 0.021781 -0.009886 -0.003829 0.000000 0.000000 0.000000
# 2 -0.009886 0.021781 -0.003829 0.000000 0.000000 0.000000
# 3 -0.003829 -0.003829 0.011708 0.000000 0.000000 0.000000
# 4 0.000000 0.000000 0.000000 0.053359 0.000000 0.000000
# 5 0.000000 0.000000 0.000000 0.000000 0.053359 0.000000
# 6 0.000000 0.000000 0.000000 0.000000 0.000000 0.027529
#
#
# Mechanical properties :
#
#
# Convention : Reuss Voigt Hill
#
# Bulk Modulus (GPa) = 49.55394 51.16915 50.36155
# Shear Modulus (GPa) = 21.61404 24.03839 22.82621
#
# Velocity S-wave (km/s) = 3.49220 3.68284 3.58879
# Velocity P-wave (km/s) = 6.64987 6.85244 6.75191
#
# Compressibility (1/GPa) = 0.02018003
#
# Stress axis : x y z
#
# Youngs Moduli (GPa) = 45.91226 45.91238 85.41425
#
# Poissons Ratio (x) = 0.45391 0.32705
# Poissons Ratio (y) = 0.45391 0.32705
# Poissons Ratio (z) = 0.17580 0.17580
#
# Static dielectric constant tensor:
#      x y z
#    x 1.621690 0.000000 0.000000 
#    y 0.000000 1.621690 0.000000 
#    z 0.000000 0.000000 1.598280 
# 
# From -- ./inp_files/9794.got.cif
#   From: 2010.05.17/outbox.cif.g08.bks.cpg/sg136_5_cif.got.tgz:9794.got - 2010.05.20 12:54:53.
