data_PCOD9569098
_publ_section_title
;
Structure prediction by ZEFSAII (Michael W. Deem and Ramdas Pophale) SiO2 
 PCOD9569098
Probable space group: P 42/M N M
;
_chemical_formula_sum "Si O2"
_cell_formula_units_Z 84
_cell_length_a 12.122084
_cell_length_b 12.122084
_cell_length_c 29.302297
_cell_angle_alpha 90.000000
_cell_angle_beta 90.000000
_cell_angle_gamma 90.000000
_cell_volume 4305.823703
_symmetry_space_group_name_H-M "P 42/M N M"
_symmetry_group_IT_number 136
_symmetry_cell_setting 'tetragonal'
loop_
_space_group_symop_operation_xyz
x,y,z
1/2-y,1/2+x,1/2+z
-x,-y,z
1/2+y,1/2-x,1/2+z
1/2+x,1/2-y,1/2-z
1/2-x,1/2+y,1/2-z
y,x,-z
-y,-x,-z
-x,-y,-z
1/2+y,1/2-x,1/2-z
x,y,-z
1/2-y,1/2+x,1/2-z
1/2-x,1/2+y,1/2+z
1/2+x,1/2-y,1/2+z
-y,-x,z
y,x,z
loop_
_atom_site_type_symbol
_atom_site_label
_atom_site_fract_x
_atom_site_fract_y
_atom_site_fract_z
Si Si1 0.325474 0.989645 0.100752
Si Si2 0.092893 0.907108 0.094647
Si Si3 0.010982 0.671655 0.369792
Si Si4 0.409848 0.409848 0.760628
Si Si5 0.909704 0.090297 0.372001
Si Si6 0.827810 0.514019 0.764205
Si Si7 0.869173 0.523947 0.500000
Si Si8 0.810982 0.189019 0.000000
O O1 0.204187 0.956182 0.116726
O O2 0.408689 0.885186 0.104518
O O3 0.387199 0.086550 0.127323
O O4 0.323938 0.024514 0.047462
O O5 0.134462 0.865539 0.044827
O O6 0.000000 0.000000 0.091524
O O7 0.051001 0.789452 0.387681
O O8 0.978485 0.684239 0.316851
O O9 0.500000 0.500000 0.747723
O O10 0.404449 0.404449 0.816325
O O11 0.289169 0.447337 0.745407
O O12 0.000000 0.000000 0.384396
O O13 0.884960 0.413577 0.738143
O O14 0.816534 0.648712 0.500000
O O15 0.000000 0.500000 0.500000
#
# Coordination Sequence:
#
# PCOD9569098 Si02
#       8
#    16   8  16   8   8  16   8   4
#     4  10  20  34  57  81 109 143 180 223 268 326
#     4  10  21  34  53  81 112 143 180 222 273 322
#     4  10  20  36  56  80 108 139 182 221 265 321
#     4   9  20  36  55  81 105 139 181 219 263 319
#     4   9  20  36  56  77 105 142 182 224 261 312
#     4  10  20  36  58  79 107 141 177 221 268 318
#     4  10  16  33  53  83 109 142 184 222 272 318
#     4   8  19  32  52  76 112 145 182 229 262 330
#
# _framework density 19.508462999999999
#
# number of rings (size 3 to 8) (size 9 to 14) (size 15 to 20)
#    0.000    2.286    1.905    2.429    4.000    0.000 
#    0.000    2.857    0.000    6.286    0.000    2.667 
#    0.000    0.000    0.000    0.000    0.000    0.000 
#
# Total GULP energy -468233.357506 kJ/mol
# GULP energy per Si atom -5574.206637 kJ/mol
# Density = 1.946406 g / cm^3
# Si number density = 19.508463 Si / 1000 Ang^3
#
#
#
# Elastic Constant Matrix: (Units=GPa)
#
#
# Indices 1 2 3 4 5 6 
#
# 1 135.1323 85.2233 -7.6353 0.0000 0.0000 0.0000
# 2 85.2233 135.1321 -7.6353 0.0000 0.0000 0.0000
# 3 -7.6353 -7.6353 37.1706 0.0000 0.0000 0.0000
# 4 0.0000 0.0000 0.0000 14.2411 0.0000 0.0000
# 5 0.0000 0.0000 0.0000 0.0000 14.2410 0.0000
# 6 0.0000 0.0000 0.0000 0.0000 0.0000 21.4145
#
#
#
# Elastic Compliance Matrix: (Units=1/GPa)
#
#
# Indices 1 2 3 4 5 6 
#
# 1 0.012320 -0.007716 0.000946 0.000000 0.000000 0.000000
# 2 -0.007716 0.012320 0.000946 0.000000 0.000000 0.000000
# 3 0.000946 0.000946 0.027292 0.000000 0.000000 0.000000
# 4 0.000000 0.000000 0.000000 0.070219 0.000000 0.000000
# 5 0.000000 0.000000 0.000000 0.000000 0.070220 0.000000
# 6 0.000000 0.000000 0.000000 0.000000 0.000000 0.046697
#
#
# Mechanical properties :
#
#
# Convention : Reuss Voigt Hill
#
# Bulk Modulus (GPa) = 24.82535 49.70448 37.26492
# Shear Modulus (GPa) = 18.92894 25.81145 22.37019
#
# Velocity S-wave (km/s) = 3.11833 3.64138 3.38996
# Velocity P-wave (km/s) = 5.07133 6.57368 5.87076
#
# Compressibility (1/GPa) = 0.04028141
#
# Stress axis : x y z
#
# Youngs Moduli (GPa) = 81.16827 81.16815 36.64144
#
# Poissons Ratio (x) = 0.62633 -0.03465
# Poissons Ratio (y) = 0.62633 -0.03465
# Poissons Ratio (z) = -0.07676 -0.07676
#
# Static dielectric constant tensor:
#      x y z
#    x 1.679060 0.000000 0.000000 
#    y 0.000000 1.679060 0.000000 
#    z 0.000000 0.000000 1.689380 
# 
# From -- ./inp_files/9839.got.cif
#   From: 2010.05.17/outbox.cif.g08.bks.cpg/sg136_5_cif.got.tgz:9839.got - 2010.05.20 12:54:53.
