data_PCOD9569642
_publ_section_title
;
Structure prediction by ZEFSAII (Michael W. Deem and Ramdas Pophale) SiO2 
 PCOD9569642
Probable space group: P 42/M N M
;
_chemical_formula_sum "Si O2"
_cell_formula_units_Z 64
_cell_length_a 12.715266
_cell_length_b 12.715266
_cell_length_c 23.174079
_cell_angle_alpha 90.000000
_cell_angle_beta 90.000000
_cell_angle_gamma 90.000000
_cell_volume 3746.738500
_symmetry_space_group_name_H-M "P 42/M N M"
_symmetry_group_IT_number 136
_symmetry_cell_setting 'tetragonal'
loop_
_space_group_symop_operation_xyz
x,y,z
1/2-y,1/2+x,1/2+z
-x,-y,z
1/2+y,1/2-x,1/2+z
1/2+x,1/2-y,1/2-z
1/2-x,1/2+y,1/2-z
y,x,-z
-y,-x,-z
-x,-y,-z
1/2+y,1/2-x,1/2-z
x,y,-z
1/2-y,1/2+x,1/2-z
1/2-x,1/2+y,1/2+z
1/2+x,1/2-y,1/2+z
-y,-x,z
y,x,z
loop_
_atom_site_type_symbol
_atom_site_label
_atom_site_fract_x
_atom_site_fract_y
_atom_site_fract_z
Si Si1 0.995822 0.173131 0.895568
Si Si2 0.925306 0.601833 0.935205
Si Si3 0.705907 0.117771 0.322534
Si Si4 0.274561 0.550334 0.267462
O O1 0.894111 0.105890 0.914237
O O2 0.014499 0.287203 0.923440
O O3 0.991498 0.191071 0.826329
O O4 0.097977 0.097977 0.905995
O O5 0.840573 0.590024 0.884621
O O6 0.000000 0.500000 0.931896
O O7 0.881107 0.606693 0.000000
O O8 0.790304 0.209697 0.330340
O O9 0.612020 0.168540 0.284701
O O10 0.755611 0.024407 0.286148
O O11 0.364037 0.635964 0.254902
#
# Coordination Sequence:
#
# PCOD9569642 Si02
#       4
#    16  16  16  16
#     4   9  18  34  58  85 110 136 171 226 288 333
#     4  10  22  38  53  75 108 146 186 224 265 315
#     4  10  21  34  54  82 106 141 179 213 269 320
#     4   9  19  33  52  82 113 138 171 217 269 328
#
# _framework density 17.081524999999999
#
# number of rings (size 3 to 8) (size 9 to 14) (size 15 to 20)
#    0.000    2.500    0.000    3.000    7.000    4.000 
#    0.000    1.250    0.000    2.250    0.000    1.750 
#    0.000    0.000    0.000    0.000    0.000    0.000 
#
# Total GULP energy -356917.700707 kJ/mol
# GULP energy per Si atom -5576.839074 kJ/mol
# Density = 1.704265 g / cm^3
# Si number density = 17.081525 Si / 1000 Ang^3
#
#
#
# Elastic Constant Matrix: (Units=GPa)
#
#
# Indices 1 2 3 4 5 6 
#
# 1 64.3808 4.3302 15.6423 0.0000 0.0000 0.0000
# 2 4.3302 64.3808 15.6423 0.0000 0.0000 0.0000
# 3 15.6423 15.6423 48.1882 0.0000 0.0000 0.0000
# 4 0.0000 0.0000 0.0000 -0.3354 0.0000 0.0000
# 5 0.0000 0.0000 0.0000 0.0000 -0.3354 0.0000
# 6 0.0000 0.0000 0.0000 0.0000 0.0000 12.7067
#
#
#
# Elastic Compliance Matrix: (Units=1/GPa)
#
#
# Indices 1 2 3 4 5 6 
#
# 1 0.016865 0.000213 -0.005544 0.000000 0.000000 0.000000
# 2 0.000213 0.016865 -0.005544 0.000000 0.000000 0.000000
# 3 -0.005544 -0.005544 0.024351 0.000000 0.000000 0.000000
# 4 0.000000 0.000000 0.000000 -2.981907 0.000000 0.000000
# 5 0.000000 0.000000 0.000000 0.000000 -2.981907 0.000000
# 6 0.000000 0.000000 0.000000 0.000000 0.000000 0.078699
#
#
# Mechanical properties :
#
#
# Convention : Reuss Voigt Hill
#
# Bulk Modulus (GPa) = 27.52387 27.57550 27.54968
# Shear Modulus (GPa) = -0.86308 11.82953 5.48322
#
# Velocity S-wave (km/s) = -0.71160 2.63446 1.79360
# Velocity P-wave (km/s) = 3.93358 5.04305 4.52247
#
# Compressibility (1/GPa) = 0.03633211
#
# Stress axis : x y z
#
# Youngs Moduli (GPa) = 59.29374 59.29374 41.06613
#
# Poissons Ratio (x) = -0.01260 0.22765
# Poissons Ratio (y) = -0.01260 0.22765
# Poissons Ratio (z) = 0.32870 0.32870
#
# Static dielectric constant tensor:
#      x y z
#    x 1.582530 0.000000 0.000000 
#    y 0.000000 1.582530 0.000000 
#    z 0.000000 0.000000 1.569020 
# 
# From -- ./inp_files/7029.got.cif
#   From: 2010.05.17/outbox.cif.g08.bks.cpg/sg136_4_cif.got.tgz:7029.got - 2010.05.20 12:54:53.
