data_PCOD9569130
_publ_section_title
;
Structure prediction by ZEFSAII (Michael W. Deem and Ramdas Pophale) SiO2 
 PCOD9569130
Probable space group: P 42/M N M
;
_chemical_formula_sum "Si O2"
_cell_formula_units_Z 112
_cell_length_a 21.287373
_cell_length_b 21.287373
_cell_length_c 17.165663
_cell_angle_alpha 90.000000
_cell_angle_beta 90.000000
_cell_angle_gamma 90.000000
_cell_volume 7778.658798
_symmetry_space_group_name_H-M "P 42/M N M"
_symmetry_group_IT_number 136
_symmetry_cell_setting 'tetragonal'
loop_
_space_group_symop_operation_xyz
x,y,z
1/2-y,1/2+x,1/2+z
-x,-y,z
1/2+y,1/2-x,1/2+z
1/2+x,1/2-y,1/2-z
1/2-x,1/2+y,1/2-z
y,x,-z
-y,-x,-z
-x,-y,-z
1/2+y,1/2-x,1/2-z
x,y,-z
1/2-y,1/2+x,1/2-z
1/2-x,1/2+y,1/2+z
1/2+x,1/2-y,1/2+z
-y,-x,z
y,x,z
loop_
_atom_site_type_symbol
_atom_site_label
_atom_site_fract_x
_atom_site_fract_y
_atom_site_fract_z
Si Si1 0.450594 0.450594 0.093801
Si Si2 0.775197 0.881560 0.910370
Si Si3 0.776109 0.115611 0.733935
Si Si4 0.552882 0.552882 0.589908
Si Si5 0.176324 0.283052 0.233777
Si Si6 0.002457 0.174217 0.175241
Si Si7 0.806847 0.910826 0.675876
Si Si8 0.194614 0.966709 0.408811
O O1 0.500000 0.500000 0.127630
O O2 0.379243 0.464720 0.113603
O O3 0.454456 0.454456 0.000000
O O4 0.837710 0.837710 0.898678
O O5 0.723186 0.855785 0.850778
O O6 0.791908 0.952646 0.887215
O O7 0.757115 0.875834 0.000000
O O8 0.834020 0.165981 0.736801
O O9 0.711321 0.152085 0.749753
O O10 0.774152 0.083779 0.648299
O O11 0.788964 0.058452 0.793012
O O12 0.500000 0.500000 0.585616
O O13 0.569931 0.569931 0.500000
O O14 0.610937 0.523659 0.637128
O O15 0.232165 0.232165 0.232799
O O16 0.126770 0.254386 0.294572
O O17 0.049037 0.167651 0.249831
O O18 0.860765 0.860765 0.652586
O O19 0.787977 0.961790 0.611518
O O20 0.201657 0.952429 0.500000
#
# Coordination Sequence:
#
# PCOD9569130 Si02
#       8
#     8  16  16   8  16  16  16  16
#     4   9  16  25  35  53  85 122 149 169 195 238
#     4   9  16  28  45  65  86 110 143 186 225 255
#     4  10  18  30  43  60  86 121 150 180 216 258
#     4  11  20  27  39  61  88 123 155 181 210 245
#     4   8  16  29  45  61  79 108 153 187 217 256
#     4  10  18  28  40  61  88 117 148 180 214 258
#     4   9  17  29  44  60  79 114 152 188 217 247
#     4  10  19  28  41  63  90 116 147 182 218 254
#
# _framework density 14.398369000000001
#
# number of rings (size 3 to 8) (size 9 to 14) (size 15 to 20)
#    0.000    2.571    1.429    3.000    0.000    2.571 
#    0.000    3.571    0.000    1.714    0.000    0.000 
#    0.000   46.286    0.000   23.143    0.000    0.000 
#
# Total GULP energy -623494.837876 kJ/mol
# GULP energy per Si atom -5566.918195 kJ/mol
# Density = 1.436560 g / cm^3
# Si number density = 14.398369 Si / 1000 Ang^3
#
#
#
# Elastic Constant Matrix: (Units=GPa)
#
#
# Indices 1 2 3 4 5 6 
#
# 1 18.5077 81.0819 16.3380 0.0000 0.0000 0.0000
# 2 81.0819 18.5077 16.3380 0.0000 0.0000 0.0000
# 3 16.3380 16.3380 31.0251 0.0000 0.0000 0.0000
# 4 0.0000 0.0000 0.0000 9.2881 0.0000 0.0000
# 5 0.0000 0.0000 0.0000 0.0000 9.2881 0.0000
# 6 0.0000 0.0000 0.0000 0.0000 0.0000 30.1838
#
#
#
# Elastic Compliance Matrix: (Units=1/GPa)
#
#
# Indices 1 2 3 4 5 6 
#
# 1 -0.001921 0.014060 -0.006392 0.000000 0.000000 0.000000
# 2 0.014060 -0.001921 -0.006392 0.000000 0.000000 0.000000
# 3 -0.006392 -0.006392 0.038964 0.000000 0.000000 0.000000
# 4 0.000000 0.000000 0.000000 0.107664 0.000000 0.000000
# 5 0.000000 0.000000 0.000000 0.000000 0.107664 0.000000
# 6 0.000000 0.000000 0.000000 0.000000 0.000000 0.033130
#
#
# Mechanical properties :
#
#
# Convention : Reuss Voigt Hill
#
# Bulk Modulus (GPa) = 26.54454 32.83957 29.69206
# Shear Modulus (GPa) = 17.03068 6.70418 11.86743
#
# Velocity S-wave (km/s) = 3.44295 2.16017 2.87404
# Velocity P-wave (km/s) = 5.85500 5.39250 5.62850
#
# Compressibility (1/GPa) = 0.03767253
#
# Stress axis : x y z
#
# Youngs Moduli (GPa) = -520.49683 -520.49683 25.66448
#
# Poissons Ratio (x) = 7.31807 0.16405
# Poissons Ratio (y) = 7.31807 0.16405
# Poissons Ratio (z) = -3.32714 -3.32714
#
# Static dielectric constant tensor:
#      x y z
#    x 1.481450 0.000000 0.000000 
#    y 0.000000 1.481450 0.000000 
#    z 0.000000 0.000000 1.494720 
# 
# From -- ./inp_files/6611.got.cif
#   From: 2010.05.17/outbox.cif.g08.bks.cpg/sg136_4_cif.got.tgz:6611.got - 2010.05.20 12:54:53.
