data_PCOD9569401
_publ_section_title
;
Structure prediction by ZEFSAII (Michael W. Deem and Ramdas Pophale) SiO2 
 PCOD9569401
Probable space group: P 42/M N M
;
_chemical_formula_sum "Si O2"
_cell_formula_units_Z 96
_cell_length_a 26.327379
_cell_length_b 26.327379
_cell_length_c 7.452852
_cell_angle_alpha 90.000000
_cell_angle_beta 90.000000
_cell_angle_gamma 90.000000
_cell_volume 5165.801903
_symmetry_space_group_name_H-M "P 42/M N M"
_symmetry_group_IT_number 136
_symmetry_cell_setting 'tetragonal'
loop_
_space_group_symop_operation_xyz
x,y,z
1/2-y,1/2+x,1/2+z
-x,-y,z
1/2+y,1/2-x,1/2+z
1/2+x,1/2-y,1/2-z
1/2-x,1/2+y,1/2-z
y,x,-z
-y,-x,-z
-x,-y,-z
1/2+y,1/2-x,1/2-z
x,y,-z
1/2-y,1/2+x,1/2-z
1/2-x,1/2+y,1/2+z
1/2+x,1/2-y,1/2+z
-y,-x,z
y,x,z
loop_
_atom_site_type_symbol
_atom_site_label
_atom_site_fract_x
_atom_site_fract_y
_atom_site_fract_z
Si Si1 0.752381 0.832742 0.215818
Si Si2 0.955953 0.875401 0.216209
Si Si3 0.167789 0.751762 0.213493
Si Si4 0.243798 0.444126 0.298993
Si Si5 0.946413 0.758475 0.219460
Si Si6 0.063723 0.857652 0.290369
O O1 0.804412 0.804412 0.278715
O O2 0.706959 0.794293 0.260251
O O3 0.741242 0.890195 0.277407
O O4 0.756714 0.835641 0.000000
O O5 0.913315 0.913315 0.283088
O O6 0.947595 0.817545 0.275366
O O7 0.012590 0.889988 0.271918
O O8 0.953758 0.875081 0.000000
O O9 0.197752 0.802249 0.283050
O O10 0.111916 0.736764 0.285942
O O11 0.160877 0.759690 0.000000
O O12 0.221484 0.442932 0.500000
O O13 0.232572 0.500365 0.219371
O O14 0.305106 0.445031 0.308462
O O15 0.948455 0.756282 0.000000
O O16 0.071552 0.846154 0.500000
O O17 0.111184 0.888817 0.220671
#
# Coordination Sequence:
#
# PCOD9569401 Si02
#       6
#    16  16  16  16  16  16
#     4   9  16  26  42  63  86 111 136 164 202 248
#     4   9  17  29  44  58  72  97 136 176 208 242
#     4   9  17  28  42  62  87 112 138 169 205 245
#     4   9  17  30  47  62  78 105 140 174 204 239
#     4   8  14  26  44  63  80 101 134 172 205 239
#     4  10  20  30  39  54  77 103 131 168 213 253
#
# _framework density 18.583756999999999
#
# number of rings (size 3 to 8) (size 9 to 14) (size 15 to 20)
#    0.000    3.000    0.000    2.500    0.000    5.333 
#    0.000    6.667    0.000    4.000    0.000    0.000 
#    0.000    0.667    0.000    8.333    0.000    0.000 
#
# Total GULP energy -534419.579677 kJ/mol
# GULP energy per Si atom -5566.870622 kJ/mol
# Density = 1.854146 g / cm^3
# Si number density = 18.583757 Si / 1000 Ang^3
#
#
#
# Elastic Constant Matrix: (Units=GPa)
#
#
# Indices 1 2 3 4 5 6 
#
# 1 96.3318 34.5751 -2.2274 0.0000 0.0000 0.0000
# 2 34.5751 96.3318 -2.2274 0.0000 0.0000 0.0000
# 3 -2.2274 -2.2274 59.9183 0.0000 0.0000 0.0000
# 4 0.0000 0.0000 0.0000 5.1136 0.0000 0.0000
# 5 0.0000 0.0000 0.0000 0.0000 5.1136 0.0000
# 6 0.0000 0.0000 0.0000 0.0000 0.0000 23.9433
#
#
#
# Elastic Compliance Matrix: (Units=1/GPa)
#
#
# Indices 1 2 3 4 5 6 
#
# 1 0.011921 -0.004272 0.000284 0.000000 0.000000 0.000000
# 2 -0.004272 0.011921 0.000284 0.000000 0.000000 0.000000
# 3 0.000284 0.000284 0.016711 0.000000 0.000000 0.000000
# 4 0.000000 0.000000 0.000000 0.195556 0.000000 0.000000
# 5 0.000000 0.000000 0.000000 0.000000 0.195556 0.000000
# 6 0.000000 0.000000 0.000000 0.000000 0.000000 0.041765
#
#
# Mechanical properties :
#
#
# Convention : Reuss Voigt Hill
#
# Bulk Modulus (GPa) = 30.17024 34.75805 32.46414
# Shear Modulus (GPa) = 10.16500 21.66488 15.91494
#
# Velocity S-wave (km/s) = 2.34130 3.41808 2.92959
# Velocity P-wave (km/s) = 4.85581 5.85848 5.38055
#
# Compressibility (1/GPa) = 0.03314525
#
# Stress axis : x y z
#
# Youngs Moduli (GPa) = 83.88816 83.88816 59.84252
#
# Poissons Ratio (x) = 0.35837 -0.01702
# Poissons Ratio (y) = 0.35837 -0.01702
# Poissons Ratio (z) = -0.02385 -0.02385
#
# Static dielectric constant tensor:
#      x y z
#    x 1.673570 0.000000 0.000000 
#    y 0.000000 1.673570 0.000000 
#    z 0.000000 0.000000 1.732690 
# 
# From -- ./inp_files/2172.got.cif
#   From: 2010.05.17/outbox.cif.g08.bks.cpg/sg136_2_cif.got.tgz:2172.got - 2010.05.20 12:54:53.
