data_PCOD9569704
_publ_section_title
;
Structure prediction by ZEFSAII (Michael W. Deem and Ramdas Pophale) SiO2 
 PCOD9569704
Probable space group: P 42/M N M
;
_chemical_formula_sum "Si O2"
_cell_formula_units_Z 88
_cell_length_a 12.856464
_cell_length_b 12.856464
_cell_length_c 26.875992
_cell_angle_alpha 90.000000
_cell_angle_beta 90.000000
_cell_angle_gamma 90.000000
_cell_volume 4442.296881
_symmetry_space_group_name_H-M "P 42/M N M"
_symmetry_group_IT_number 136
_symmetry_cell_setting 'tetragonal'
loop_
_space_group_symop_operation_xyz
x,y,z
1/2-y,1/2+x,1/2+z
-x,-y,z
1/2+y,1/2-x,1/2+z
1/2+x,1/2-y,1/2-z
1/2-x,1/2+y,1/2-z
y,x,-z
-y,-x,-z
-x,-y,-z
1/2+y,1/2-x,1/2-z
x,y,-z
1/2-y,1/2+x,1/2-z
1/2-x,1/2+y,1/2+z
1/2+x,1/2-y,1/2+z
-y,-x,z
y,x,z
loop_
_atom_site_type_symbol
_atom_site_label
_atom_site_fract_x
_atom_site_fract_y
_atom_site_fract_z
Si Si1 0.817537 0.484666 0.900601
Si Si2 0.000116 0.822146 0.500000
Si Si3 0.994835 0.169199 0.053737
Si Si4 0.448959 0.716785 0.204321
Si Si5 0.776596 0.613262 0.717405
Si Si6 0.007535 0.347501 0.123989
O O1 0.741871 0.461672 0.854121
O O2 0.893331 0.579396 0.884046
O O3 0.904376 0.393600 0.903346
O O4 0.751712 0.499742 0.950877
O O5 0.100727 0.899274 0.500000
O O6 0.898676 0.898676 0.500000
O O7 0.882391 0.117610 0.061256
O O8 0.029422 0.240038 0.098012
O O9 0.995826 0.224401 0.000000
O O10 0.076039 0.076039 0.050685
O O11 0.394930 0.605071 0.211447
O O12 0.554810 0.735943 0.233914
O O13 0.367200 0.802437 0.225136
O O14 0.679946 0.679946 0.695197
O O15 0.825743 0.529026 0.679922
#
# Coordination Sequence:
#
# PCOD9569704 Si02
#       6
#    16   8  16  16  16  16
#     4  10  23  40  62  88 116 154 199 252 301 347
#     4  11  26  45  62  84 116 155 206 257 296 346
#     4   9  19  34  52  79 116 154 187 225 283 351
#     4  10  21  39  61  86 119 157 198 240 294 355
#     4  10  21  37  60  90 120 154 196 239 292 353
#     4  10  21  37  61  90 120 149 192 246 293 356
#
# _framework density 19.809570999999998
#
# number of rings (size 3 to 8) (size 9 to 14) (size 15 to 20)
#    0.000    2.091    0.000    2.727    2.545    7.273 
#    0.000    0.000    0.000    0.000    0.000    0.000 
#    0.000    0.000    0.000    0.000    0.000    0.000 
#
# Total GULP energy -490599.139035 kJ/mol
# GULP energy per Si atom -5574.990216 kJ/mol
# Density = 1.976448 g / cm^3
# Si number density = 19.809571 Si / 1000 Ang^3
#
#
#
# Elastic Constant Matrix: (Units=GPa)
#
#
# Indices 1 2 3 4 5 6 
#
# 1 91.8334 -1.6679 39.5123 0.0000 0.0000 0.0000
# 2 -1.6679 91.8335 39.5121 0.0000 0.0000 0.0000
# 3 39.5123 39.5121 70.5520 0.0000 0.0000 0.0000
# 4 0.0000 0.0000 0.0000 28.9667 0.0000 0.0000
# 5 0.0000 0.0000 0.0000 0.0000 28.9664 0.0000
# 6 0.0000 0.0000 0.0000 0.0000 0.0000 21.8346
#
#
#
# Elastic Compliance Matrix: (Units=1/GPa)
#
#
# Indices 1 2 3 4 5 6 
#
# 1 0.016239 0.005544 -0.012199 0.000000 0.000000 0.000000
# 2 0.005544 0.016239 -0.012199 0.000000 0.000000 0.000000
# 3 -0.012199 -0.012199 0.027838 0.000000 0.000000 0.000000
# 4 0.000000 0.000000 0.000000 0.034522 0.000000 0.000000
# 5 0.000000 0.000000 0.000000 0.000000 0.034523 0.000000
# 6 0.000000 0.000000 0.000000 0.000000 0.000000 0.045799
#
#
# Mechanical properties :
#
#
# Convention : Reuss Voigt Hill
#
# Bulk Modulus (GPa) = 44.23517 45.43689 44.83603
# Shear Modulus (GPa) = 22.68556 27.74435 25.21496
#
# Velocity S-wave (km/s) = 3.38772 3.74646 3.57160
# Velocity P-wave (km/s) = 6.13848 6.45765 6.30008
#
# Compressibility (1/GPa) = 0.02260644
#
# Stress axis : x y z
#
# Youngs Moduli (GPa) = 61.58087 61.58113 35.92200
#
# Poissons Ratio (x) = -0.34139 0.43822
# Poissons Ratio (y) = -0.34139 0.43822
# Poissons Ratio (z) = 0.75124 0.75124
#
# Static dielectric constant tensor:
#      x y z
#    x 1.736990 0.000000 0.000000 
#    y 0.000000 1.736990 0.000000 
#    z 0.000000 0.000000 1.690730 
# 
# From -- ./inp_files/9718.got.cif
#   From: 2010.05.17/outbox.cif.g08.bks.cpg/sg136_5_cif.got.tgz:9718.got - 2010.05.20 12:54:53.
