data_PCOD9569445
_publ_section_title
;
Structure prediction by ZEFSAII (Michael W. Deem and Ramdas Pophale) SiO2 
 PCOD9569445
Probable space group: P 42/M N M
;
_chemical_formula_sum "Si O2"
_cell_formula_units_Z 96
_cell_length_a 20.778316
_cell_length_b 20.778316
_cell_length_c 10.896884
_cell_angle_alpha 90.000000
_cell_angle_beta 90.000000
_cell_angle_gamma 90.000000
_cell_volume 4704.603435
_symmetry_space_group_name_H-M "P 42/M N M"
_symmetry_group_IT_number 136
_symmetry_cell_setting 'tetragonal'
loop_
_space_group_symop_operation_xyz
x,y,z
1/2-y,1/2+x,1/2+z
-x,-y,z
1/2+y,1/2-x,1/2+z
1/2+x,1/2-y,1/2-z
1/2-x,1/2+y,1/2-z
y,x,-z
-y,-x,-z
-x,-y,-z
1/2+y,1/2-x,1/2-z
x,y,-z
1/2-y,1/2+x,1/2-z
1/2-x,1/2+y,1/2+z
1/2+x,1/2-y,1/2+z
-y,-x,z
y,x,z
loop_
_atom_site_type_symbol
_atom_site_label
_atom_site_fract_x
_atom_site_fract_y
_atom_site_fract_z
Si Si1 0.369059 0.077062 0.627515
Si Si2 0.140536 0.963020 0.355174
Si Si3 0.330706 0.974972 0.204949
Si Si4 0.625339 0.763611 0.859115
Si Si5 0.701023 0.454618 0.360050
Si Si6 0.739222 0.837485 0.723301
O O1 0.371429 0.040213 0.500000
O O2 0.425112 0.128915 0.628435
O O3 0.301127 0.113904 0.639593
O O4 0.373129 0.033659 0.747428
O O5 0.147092 0.983907 0.500000
O O6 0.071275 0.928726 0.340741
O O7 0.193615 0.905978 0.336724
O O8 0.156780 0.016031 0.250380
O O9 0.309018 0.934362 0.324001
O O10 0.266151 0.002080 0.144194
O O11 0.685508 0.789816 0.781591
O O12 0.643970 0.767250 0.000000
O O13 0.675139 0.456262 0.500000
O O14 0.725419 0.383468 0.322352
O O15 0.793147 0.793147 0.662768
#
# Coordination Sequence:
#
# PCOD9569445 Si02
#       6
#    16  16  16  16  16  16
#     4  10  20  36  55  73 102 141 180 223 266 312
#     4   9  18  33  54  78 102 133 176 222 265 313
#     4   9  19  33  49  74 105 140 182 221 260 305
#     4   9  16  29  50  74 102 134 169 211 259 311
#     4  10  20  33  51  76 108 142 174 216 272 328
#     4  10  21  34  51  78 106 133 169 213 262 318
#
# _framework density 20.405546000000001
#
# number of rings (size 3 to 8) (size 9 to 14) (size 15 to 20)
#    0.000    2.500    0.000    2.000    0.000    7.000 
#    0.000    3.333    0.000    6.500    0.000    2.333 
#    0.000    0.000    0.000    0.000    0.000    0.000 
#
# Total GULP energy -534548.454563 kJ/mol
# GULP energy per Si atom -5568.213068 kJ/mol
# Density = 2.035910 g / cm^3
# Si number density = 20.405546 Si / 1000 Ang^3
#
#
#
# Elastic Constant Matrix: (Units=GPa)
#
#
# Indices 1 2 3 4 5 6 
#
# 1 28.2690 25.8408 6.4132 0.0000 0.0000 0.0000
# 2 25.8408 28.2690 6.4132 0.0000 0.0000 0.0000
# 3 6.4132 6.4132 82.9345 0.0000 0.0000 0.0000
# 4 0.0000 0.0000 0.0000 268.1861 0.0000 0.0000
# 5 0.0000 0.0000 0.0000 0.0000 268.1861 0.0000
# 6 0.0000 0.0000 0.0000 0.0000 0.0000 16.3768
#
#
#
# Elastic Compliance Matrix: (Units=1/GPa)
#
#
# Indices 1 2 3 4 5 6 
#
# 1 0.215326 -0.196500 -0.001456 0.000000 0.000000 0.000000
# 2 -0.196500 0.215326 -0.001456 0.000000 0.000000 0.000000
# 3 -0.001456 -0.001456 0.012283 0.000000 0.000000 0.000000
# 4 0.000000 0.000000 0.000000 0.003729 0.000000 0.000000
# 5 0.000000 0.000000 0.000000 0.000000 0.003729 0.000000
# 6 0.000000 0.000000 0.000000 0.000000 0.000000 0.061062
#
#
# Mechanical properties :
#
#
# Convention : Reuss Voigt Hill
#
# Bulk Modulus (GPa) = 22.66971 24.08967 23.37969
# Shear Modulus (GPa) = 5.40550 117.27017 61.33784
#
# Velocity S-wave (km/s) = 1.62935 7.58911 5.48859
# Velocity P-wave (km/s) = 3.83059 9.41402 7.18670
#
# Compressibility (1/GPa) = 0.04411173
#
# Stress axis : x y z
#
# Youngs Moduli (GPa) = 4.64411 4.64411 81.41424
#
# Poissons Ratio (x) = 0.91257 0.11852
# Poissons Ratio (y) = 0.91257 0.11852
# Poissons Ratio (z) = 0.00676 0.00676
#
# Static dielectric constant tensor:
#      x y z
#    x 1.737870 0.000000 0.000000 
#    y 0.000000 1.737870 0.000000 
#    z 0.000000 0.000000 1.735110 
# 
# From -- ./inp_files/3804.got.cif
#   From: 2010.05.17/outbox.cif.g08.bks.cpg/sg136_2_cif.got.tgz:3804.got - 2010.05.20 12:54:53.
