data_PCOD9569473
_publ_section_title
;
Structure prediction by ZEFSAII (Michael W. Deem and Ramdas Pophale) SiO2 
 PCOD9569473
Probable space group: P 42/M N M
;
_chemical_formula_sum "Si O2"
_cell_formula_units_Z 72
_cell_length_a 21.869879
_cell_length_b 21.869879
_cell_length_c 8.557070
_cell_angle_alpha 90.000000
_cell_angle_beta 90.000000
_cell_angle_gamma 90.000000
_cell_volume 4092.774766
_symmetry_space_group_name_H-M "P 42/M N M"
_symmetry_group_IT_number 136
_symmetry_cell_setting 'tetragonal'
loop_
_space_group_symop_operation_xyz
x,y,z
1/2-y,1/2+x,1/2+z
-x,-y,z
1/2+y,1/2-x,1/2+z
1/2+x,1/2-y,1/2-z
1/2-x,1/2+y,1/2-z
y,x,-z
-y,-x,-z
-x,-y,-z
1/2+y,1/2-x,1/2-z
x,y,-z
1/2-y,1/2+x,1/2-z
1/2-x,1/2+y,1/2+z
1/2+x,1/2-y,1/2+z
-y,-x,z
y,x,z
loop_
_atom_site_type_symbol
_atom_site_label
_atom_site_fract_x
_atom_site_fract_y
_atom_site_fract_z
Si Si1 0.449485 0.550516 0.813203
Si Si2 0.283120 0.381074 0.813497
Si Si3 0.510305 0.318116 0.685296
Si Si4 0.146098 0.404442 0.187867
Si Si5 0.464303 0.818899 0.688782
O O1 0.500000 0.500000 0.756361
O O2 0.465785 0.619165 0.759158
O O3 0.451290 0.548711 0.000000
O O4 0.320913 0.320913 0.777686
O O5 0.311083 0.438654 0.723997
O O6 0.211898 0.375068 0.776384
O O7 0.288378 0.393560 0.000000
O O8 0.520046 0.321871 0.500000
O O9 0.537658 0.252378 0.741697
O O10 0.150627 0.472191 0.258025
O O11 0.091506 0.361124 0.243581
O O12 0.140748 0.410201 0.000000
O O13 0.463431 0.817208 0.500000
#
# Coordination Sequence:
#
# PCOD9569473 Si02
#       5
#     8  16  16  16  16
#     4  11  23  37  53  75 103 137 175 211 249 304
#     4   9  17  31  51  74  97 128 169 208 247 296
#     4  10  20  34  52  75 103 134 165 209 258 300
#     4   9  18  33  52  74 100 133 169 207 252 303
#     4   9  19  35  52  75 104 133 169 210 256 303
#
# _framework density 17.591978000000001
#
# number of rings (size 3 to 8) (size 9 to 14) (size 15 to 20)
#    0.000    2.556    0.000    1.667    0.000    6.222 
#    2.000    2.222    0.000    0.000    0.000    0.000 
#    0.000    0.000    0.000    0.000    0.000    0.000 
#
# Total GULP energy -401337.084541 kJ/mol
# GULP energy per Si atom -5574.126174 kJ/mol
# Density = 1.755194 g / cm^3
# Si number density = 17.591978 Si / 1000 Ang^3
#
#
#
# Elastic Constant Matrix: (Units=GPa)
#
#
# Indices 1 2 3 4 5 6 
#
# 1 127.5217 114.4100 32.4307 0.0000 0.0000 0.0000
# 2 114.4100 127.5219 32.4307 0.0000 0.0000 0.0000
# 3 32.4307 32.4307 17.3824 0.0000 0.0000 0.0000
# 4 0.0000 0.0000 0.0000 23.3430 0.0000 0.0000
# 5 0.0000 0.0000 0.0000 0.0000 23.3429 0.0000
# 6 0.0000 0.0000 0.0000 0.0000 0.0000 35.6606
#
#
#
# Elastic Compliance Matrix: (Units=1/GPa)
#
#
# Indices 1 2 3 4 5 6 
#
# 1 0.042269 -0.033999 -0.015430 0.000000 0.000000 0.000000
# 2 -0.033999 0.042269 -0.015430 0.000000 0.000000 0.000000
# 3 -0.015430 -0.015430 0.115104 0.000000 0.000000 0.000000
# 4 0.000000 0.000000 0.000000 0.042839 0.000000 0.000000
# 5 0.000000 0.000000 0.000000 0.000000 0.042840 0.000000
# 6 0.000000 0.000000 0.000000 0.000000 0.000000 0.028042
#
#
# Mechanical properties :
#
#
# Convention : Reuss Voigt Hill
#
# Bulk Modulus (GPa) = 14.30092 70.10764 42.20428
# Shear Modulus (GPa) = 10.72074 22.67960 16.70017
#
# Velocity S-wave (km/s) = 2.47130 3.59444 3.08442
# Velocity P-wave (km/s) = 4.03609 7.56077 6.06033
#
# Compressibility (1/GPa) = 0.06992557
#
# Stress axis : x y z
#
# Youngs Moduli (GPa) = 23.65822 23.65826 8.68782
#
# Poissons Ratio (x) = 0.80435 0.13405
# Poissons Ratio (y) = 0.80434 0.13405
# Poissons Ratio (z) = 0.36504 0.36504
#
# Static dielectric constant tensor:
#      x y z
#    x 1.587330 0.000000 0.000000 
#    y 0.000000 1.587330 0.000000 
#    z 0.000000 0.000000 1.612320 
# 
# From -- ./inp_files/1549.got.cif
#   From: 2010.05.17/outbox.cif.g08.bks.cpg/sg136_1_cif.got.tgz:1549.got - 2010.05.20 12:54:53.
