data_PCOD9569639
_publ_section_title
;
Structure prediction by ZEFSAII (Michael W. Deem and Ramdas Pophale) SiO2 
 PCOD9569639
Probable space group: P 42/M N M
;
_chemical_formula_sum "Si O2"
_cell_formula_units_Z 64
_cell_length_a 10.885417
_cell_length_b 10.885417
_cell_length_c 30.925557
_cell_angle_alpha 90.000000
_cell_angle_beta 90.000000
_cell_angle_gamma 90.000000
_cell_volume 3664.440479
_symmetry_space_group_name_H-M "P 42/M N M"
_symmetry_group_IT_number 136
_symmetry_cell_setting 'tetragonal'
loop_
_space_group_symop_operation_xyz
x,y,z
1/2-y,1/2+x,1/2+z
-x,-y,z
1/2+y,1/2-x,1/2+z
1/2+x,1/2-y,1/2-z
1/2-x,1/2+y,1/2-z
y,x,-z
-y,-x,-z
-x,-y,-z
1/2+y,1/2-x,1/2-z
x,y,-z
1/2-y,1/2+x,1/2-z
1/2-x,1/2+y,1/2+z
1/2+x,1/2-y,1/2+z
-y,-x,z
y,x,z
loop_
_atom_site_type_symbol
_atom_site_label
_atom_site_fract_x
_atom_site_fract_y
_atom_site_fract_z
Si Si1 0.354641 0.150441 0.819657
Si Si2 0.500000 0.000000 0.609426
Si Si3 0.999631 0.202086 0.751362
Si Si4 0.295898 0.089391 0.551973
Si Si5 0.396631 0.396631 0.051464
O O1 0.253988 0.253988 0.831847
O O2 0.420863 0.086850 0.859378
O O3 0.453716 0.216164 0.788423
O O4 0.285179 0.049120 0.790268
O O5 0.579851 0.910771 0.578799
O O6 0.111251 0.111251 0.738762
O O7 0.885329 0.114672 0.764168
O O8 0.315146 0.086096 0.500000
O O9 0.202591 0.202591 0.560417
O O10 0.227080 0.962495 0.566069
O O11 0.500000 0.500000 0.058600
O O12 0.382862 0.382862 0.000000
#
# Coordination Sequence:
#
# PCOD9569639 Si02
#       5
#    16   8  16  16   8
#     4  10  21  34  50  78 108 135 176 219 260 314
#     4  12  23  31  52  82 112 140 168 217 281 316
#     4   9  18  35  56  72  97 141 182 215 255 306
#     4   9  19  36  56  77 103 139 181 220 265 321
#     4   7  12  28  54  76  93 123 169 217 260 302
#
# _framework density 17.465147999999999
#
# number of rings (size 3 to 8) (size 9 to 14) (size 15 to 20)
#    0.000    2.625    0.000    3.375    1.750    2.000 
#    0.000    0.000    0.000    0.000    0.000    1.750 
#    0.000    0.000    0.000    0.000    0.000    0.000 
#
# Total GULP energy -356645.343406 kJ/mol
# GULP energy per Si atom -5572.583491 kJ/mol
# Density = 1.742540 g / cm^3
# Si number density = 17.465148 Si / 1000 Ang^3
#
#
#
# Elastic Constant Matrix: (Units=GPa)
#
#
# Indices 1 2 3 4 5 6 
#
# 1 83.9012 38.4829 68.0864 0.0000 0.0000 0.0000
# 2 38.4829 83.9012 68.0864 0.0000 0.0000 0.0000
# 3 68.0864 68.0864 94.7743 0.0000 0.0000 0.0000
# 4 0.0000 0.0000 0.0000 24.0598 0.0000 0.0000
# 5 0.0000 0.0000 0.0000 0.0000 24.0598 0.0000
# 6 0.0000 0.0000 0.0000 0.0000 0.0000 12.7321
#
#
#
# Elastic Compliance Matrix: (Units=1/GPa)
#
#
# Indices 1 2 3 4 5 6 
#
# 1 0.031370 0.009352 -0.029255 0.000000 0.000000 0.000000
# 2 0.009352 0.031370 -0.029255 0.000000 0.000000 0.000000
# 3 -0.029255 -0.029255 0.052585 0.000000 0.000000 0.000000
# 4 0.000000 0.000000 0.000000 0.041563 0.000000 0.000000
# 5 0.000000 0.000000 0.000000 0.000000 0.041563 0.000000
# 6 0.000000 0.000000 0.000000 0.000000 0.000000 0.078542
#
#
# Mechanical properties :
#
#
# Convention : Reuss Voigt Hill
#
# Bulk Modulus (GPa) = 58.79063 67.98759 63.38911
# Shear Modulus (GPa) = 13.12410 18.03173 15.57791
#
# Velocity S-wave (km/s) = 2.74422 3.21665 2.98978
# Velocity P-wave (km/s) = 6.61633 7.26690 6.94923
#
# Compressibility (1/GPa) = 0.01700951
#
# Stress axis : x y z
#
# Youngs Moduli (GPa) = 31.87774 31.87774 19.01668
#
# Poissons Ratio (x) = -0.29813 0.55633
# Poissons Ratio (y) = -0.29813 0.55633
# Poissons Ratio (z) = 0.93259 0.93259
#
# Static dielectric constant tensor:
#      x y z
#    x 1.609320 0.000000 0.000000 
#    y 0.000000 1.609320 0.000000 
#    z 0.000000 0.000000 1.563950 
# 
# From -- ./inp_files/8844.got.cif
#   From: 2010.05.17/outbox.cif.g08.bks.cpg/sg136_5_cif.got.tgz:8844.got - 2010.05.20 12:54:53.
