data_PCOD9569016
_publ_section_title
;
Structure prediction by ZEFSAII (Michael W. Deem and Ramdas Pophale) SiO2 
 PCOD9569016
Probable space group: P 42/M B C
;
_chemical_formula_sum "Si O2"
_cell_formula_units_Z 96
_cell_length_a 15.123933
_cell_length_b 15.123933
_cell_length_c 20.528819
_cell_angle_alpha 90.000000
_cell_angle_beta 90.000000
_cell_angle_gamma 90.000000
_cell_volume 4695.625529
_symmetry_space_group_name_H-M "P 42/M B C"
_symmetry_group_IT_number 135
_symmetry_cell_setting 'tetragonal'
loop_
_space_group_symop_operation_xyz
x,y,z
-y,x,1/2+z
-x,-y,z
y,-x,1/2+z
1/2+x,1/2-y,-z
1/2-x,1/2+y,-z
1/2+y,1/2+x,1/2-z
1/2-y,1/2-x,1/2-z
-x,-y,-z
y,-x,1/2-z
x,y,-z
-y,x,1/2-z
1/2-x,1/2+y,z
1/2+x,1/2-y,z
1/2-y,1/2-x,1/2+z
1/2+y,1/2+x,1/2+z
loop_
_atom_site_type_symbol
_atom_site_label
_atom_site_fract_x
_atom_site_fract_y
_atom_site_fract_z
Si Si1 0.731237 0.031359 0.074315
Si Si2 0.318630 0.281952 0.927592
Si Si3 0.424201 0.925875 0.826212
Si Si4 0.051810 0.868631 0.247545
Si Si5 0.145782 0.812475 0.623738
Si Si6 0.740155 0.507550 0.377042
O O1 0.796226 0.115194 0.082169
O O2 0.658200 0.040213 0.131040
O O3 0.780847 0.938823 0.083349
O O4 0.694558 0.036136 0.000000
O O5 0.261395 0.221636 0.879605
O O6 0.422253 0.263057 0.922427
O O7 0.286795 0.257900 0.000000
O O8 0.404516 0.904516 0.750000
O O9 0.460025 0.838111 0.860978
O O10 0.500000 0.000000 0.826669
O O11 0.111869 0.826218 0.302725
O O12 0.028400 0.803906 0.189465
O O13 0.958000 0.900694 0.277165
O O14 0.184937 0.906633 0.600976
#
# Coordination Sequence:
#
# PCOD9569016 Si02
#       6
#    16  16  16  16  16  16
#     4  11  24  43  66  96 137 178 225 282 334 396
#     4  11  25  42  63  97 131 171 229 273 325 404
#     4  11  24  43  66  98 138 177 228 281 333 399
#     4   9  19  36  62  98 133 165 218 275 330 403
#     4  11  22  42  65  94 129 176 218 273 336 400
#     4  11  23  41  66  95 126 179 214 275 337 399
#
# _framework density 20.444561
#
# number of rings (size 3 to 8) (size 9 to 14) (size 15 to 20)
#    0.000    1.333    1.667    3.500    0.000    7.667 
#    0.000    1.667    0.000    0.000    0.000    0.000 
#    0.000    0.000    0.000    0.000    0.000    0.000 
#
# Total GULP energy -536520.277597 kJ/mol
# GULP energy per Si atom -5588.752892 kJ/mol
# Density = 2.039803 g / cm^3
# Si number density = 20.444561 Si / 1000 Ang^3
#
#
#
# Elastic Constant Matrix: (Units=GPa)
#
#
# Indices 1 2 3 4 5 6 
#
# 1 105.3970 40.0514 34.8694 0.0000 0.0000 0.0000
# 2 40.0514 105.3970 34.8694 0.0000 0.0000 0.0000
# 3 34.8694 34.8694 80.4961 0.0000 0.0000 0.0000
# 4 0.0000 0.0000 0.0000 29.7470 0.0000 0.0000
# 5 0.0000 0.0000 0.0000 0.0000 29.7470 0.0000
# 6 0.0000 0.0000 0.0000 0.0000 0.0000 38.9970
#
#
#
# Elastic Compliance Matrix: (Units=1/GPa)
#
#
# Indices 1 2 3 4 5 6 
#
# 1 0.011990 -0.003313 -0.003759 0.000000 0.000000 0.000000
# 2 -0.003313 0.011990 -0.003759 0.000000 0.000000 0.000000
# 3 -0.003759 -0.003759 0.015680 0.000000 0.000000 0.000000
# 4 0.000000 0.000000 0.000000 0.033617 0.000000 0.000000
# 5 0.000000 0.000000 0.000000 0.000000 0.033617 0.000000
# 6 0.000000 0.000000 0.000000 0.000000 0.000000 0.025643
#
#
# Mechanical properties :
#
#
# Convention : Reuss Voigt Hill
#
# Bulk Modulus (GPa) = 55.55888 56.76338 56.16113
# Shear Modulus (GPa) = 31.21128 31.79817 31.50472
#
# Velocity S-wave (km/s) = 3.91145 3.94805 3.92979
# Velocity P-wave (km/s) = 6.90171 6.97192 6.93690
#
# Compressibility (1/GPa) = 0.01799892
#
# Stress axis : x y z
#
# Youngs Moduli (GPa) = 83.39975 83.39975 63.77705
#
# Poissons Ratio (x) = 0.27629 0.23974
# Poissons Ratio (y) = 0.27629 0.23974
# Poissons Ratio (z) = 0.31350 0.31350
#
# Static dielectric constant tensor:
#      x y z
#    x 1.717450 0.000000 0.000000 
#    y 0.000000 1.717450 0.000000 
#    z 0.000000 0.000000 1.718360 
# 
# From -- ./inp_files/5460.got.cif
#   From: 2010.05.17/outbox.cif.g08.bks.cpg/sg135_3_cif.got.tgz:5460.got - 2010.05.20 12:50:20.
