data_PCOD9569167
_publ_section_title
;
Structure prediction by ZEFSAII (Michael W. Deem and Ramdas Pophale) SiO2 
 PCOD9569167
Probable space group: P 42/M N M
;
_chemical_formula_sum "Si O2"
_cell_formula_units_Z 96
_cell_length_a 14.523525
_cell_length_b 14.523525
_cell_length_c 23.306453
_cell_angle_alpha 90.000000
_cell_angle_beta 90.000000
_cell_angle_gamma 90.000000
_cell_volume 4916.094887
_symmetry_space_group_name_H-M "P 42/M N M"
_symmetry_group_IT_number 136
_symmetry_cell_setting 'tetragonal'
loop_
_space_group_symop_operation_xyz
x,y,z
1/2-y,1/2+x,1/2+z
-x,-y,z
1/2+y,1/2-x,1/2+z
1/2+x,1/2-y,1/2-z
1/2-x,1/2+y,1/2-z
y,x,-z
-y,-x,-z
-x,-y,-z
1/2+y,1/2-x,1/2-z
x,y,-z
1/2-y,1/2+x,1/2-z
1/2-x,1/2+y,1/2+z
1/2+x,1/2-y,1/2+z
-y,-x,z
y,x,z
loop_
_atom_site_type_symbol
_atom_site_label
_atom_site_fract_x
_atom_site_fract_y
_atom_site_fract_z
Si Si1 0.518407 0.335331 0.723504
Si Si2 0.645323 0.495450 0.140729
Si Si3 0.730418 0.120458 0.143127
Si Si4 0.514230 0.107574 0.568398
Si Si5 0.289668 0.870900 0.377474
Si Si6 0.681097 0.832107 0.243811
O O1 0.573533 0.426468 0.705756
O O2 0.491324 0.347745 0.790192
O O3 0.442827 0.302453 0.678924
O O4 0.591023 0.252924 0.726547
O O5 0.607606 0.392395 0.131275
O O6 0.565883 0.565883 0.122072
O O7 0.734966 0.534703 0.109870
O O8 0.788889 0.211112 0.124240
O O9 0.655138 0.143234 0.192787
O O10 0.676715 0.060319 0.096459
O O11 0.505982 0.110984 0.500000
O O12 0.617393 0.138974 0.586766
O O13 0.500000 0.000000 0.586392
O O14 0.216604 0.783397 0.381224
O O15 0.320591 0.882532 0.311009
O O16 0.736672 0.736672 0.248711
#
# Coordination Sequence:
#
# PCOD9569167 Si02
#       6
#    16  16  16  16  16  16
#     4  10  18  30  51  85 128 161 187 228 292 364
#     4   9  17  29  51  86 124 156 186 232 301 371
#     4  11  22  37  60  89 121 158 202 251 300 359
#     4  11  27  47  62  82 116 160 209 257 304 356
#     4  10  19  37  62  87 120 157 197 243 296 365
#     4   9  18  31  50  85 124 154 188 236 295 355
#
# _framework density 19.527694
#
# number of rings (size 3 to 8) (size 9 to 14) (size 15 to 20)
#    0.000    2.000    3.333    0.500    2.333    1.667 
#    0.000    0.000    0.000    1.500    0.000    4.667 
#    0.000    0.000    0.000    0.000    0.000    0.000 
#
# Total GULP energy -534674.731355 kJ/mol
# GULP energy per Si atom -5569.528452 kJ/mol
# Density = 1.948325 g / cm^3
# Si number density = 19.527694 Si / 1000 Ang^3
#
#
#
# Elastic Constant Matrix: (Units=GPa)
#
#
# Indices 1 2 3 4 5 6 
#
# 1 87.2899 55.9465 33.2334 0.0000 0.0000 0.0000
# 2 55.9465 87.2899 33.2334 0.0000 0.0000 0.0000
# 3 33.2334 33.2334 58.2322 0.0000 0.0000 0.0000
# 4 0.0000 0.0000 0.0000 24.7574 0.0000 0.0000
# 5 0.0000 0.0000 0.0000 0.0000 24.7574 0.0000
# 6 0.0000 0.0000 0.0000 0.0000 0.0000 42.2639
#
#
#
# Elastic Compliance Matrix: (Units=1/GPa)
#
#
# Indices 1 2 3 4 5 6 
#
# 1 0.020701 -0.011204 -0.005420 0.000000 0.000000 0.000000
# 2 -0.011204 0.020701 -0.005420 0.000000 0.000000 0.000000
# 3 -0.005420 -0.005420 0.023359 0.000000 0.000000 0.000000
# 4 0.000000 0.000000 0.000000 0.040392 0.000000 0.000000
# 5 0.000000 0.000000 0.000000 0.000000 0.040392 0.000000
# 6 0.000000 0.000000 0.000000 0.000000 0.000000 0.023661
#
#
# Mechanical properties :
#
#
# Convention : Reuss Voigt Hill
#
# Bulk Modulus (GPa) = 48.37252 53.07093 50.72173
# Shear Modulus (GPa) = 22.70846 25.71565 24.21205
#
# Velocity S-wave (km/s) = 3.41381 3.63282 3.52502
# Velocity P-wave (km/s) = 6.35325 6.69573 6.52674
#
# Compressibility (1/GPa) = 0.02067289
#
# Stress axis : x y z
#
# Youngs Moduli (GPa) = 48.30798 48.30798 42.81071
#
# Poissons Ratio (x) = 0.54125 0.23202
# Poissons Ratio (y) = 0.54125 0.23202
# Poissons Ratio (z) = 0.26181 0.26181
#
# Static dielectric constant tensor:
#      x y z
#    x 1.741880 0.000000 0.000000 
#    y 0.000000 1.741880 0.000000 
#    z 0.000000 0.000000 1.663380 
# 
# From -- ./inp_files/7483.got.cif
#   From: 2010.05.17/outbox.cif.g08.bks.cpg/sg136_4_cif.got.tgz:7483.got - 2010.05.20 12:54:53.
