data_PCOD9569926
_publ_section_title
;
Structure prediction by ZEFSAII (Michael W. Deem and Ramdas Pophale) SiO2 
 PCOD9569926
Probable space group: P 42/M N M
;
_chemical_formula_sum "Si O2"
_cell_formula_units_Z 60
_cell_length_a 18.000000
_cell_length_b 18.000000
_cell_length_c 9.000000
_cell_angle_alpha 90.000000
_cell_angle_beta 90.000000
_cell_angle_gamma 90.000000
_cell_volume 2916.000000
_symmetry_space_group_name_H-M "P 42/M N M"
_symmetry_group_IT_number 136
_symmetry_cell_setting 'tetragonal'
loop_
_space_group_symop_operation_xyz
x,y,z
1/2-y,1/2+x,1/2+z
-x,-y,z
1/2+y,1/2-x,1/2+z
1/2+x,1/2-y,1/2-z
1/2-x,1/2+y,1/2-z
y,x,-z
-y,-x,-z
-x,-y,-z
1/2+y,1/2-x,1/2-z
x,y,-z
1/2-y,1/2+x,1/2-z
1/2-x,1/2+y,1/2+z
1/2+x,1/2-y,1/2+z
-y,-x,z
y,x,z
loop_
_atom_site_type_symbol
_atom_site_label
_atom_site_fract_x
_atom_site_fract_y
_atom_site_fract_z
Si Si1 0.000000 0.500000 0.250000
Si Si2 0.063065 0.936936 0.328534
Si Si3 0.699368 0.485628 0.328733
Si Si4 0.640995 0.062053 0.824716
Si Si5 0.267025 0.153839 0.677382
O O1 0.981475 0.413677 0.286659
O O2 0.078819 0.921182 0.500000
O O3 0.031463 0.864392 0.250314
O O4 0.000000 0.000000 0.320216
O O5 0.679578 0.474136 0.500000
O O6 0.776879 0.529697 0.320571
O O7 0.715809 0.407781 0.251094
O O8 0.643953 0.147759 0.781505
O O9 0.615038 0.052272 0.000000
O O10 0.263206 0.145168 0.500000
O O11 0.234314 0.234314 0.715580
#
# Coordination Sequence:
#
# PCOD9569926 Si02
#       5
#     4   8  16  16  16
#     4  12  18  40  64  86 124 164 214 252 314 368
#     4  11  25  45  67  91 123 167 215 258 313 382
#     4  11  23  40  63  94 127 160 206 261 314 364
#     4  10  22  37  59  90 124 163 205 255 312 370
#     4  10  21  39  62  85 118 162 204 246 307 379
#
# _framework density 20.576132000000001
#
# number of rings (size 3 to 8) (size 9 to 14) (size 15 to 20)
#    0.000    1.467    2.667    2.400    1.867    4.800 
#    0.000    2.667    0.000    0.000    0.000    0.000 
#    0.000    0.000    0.000    0.000    0.000    0.000 
#
# Total GULP energy -334276.177291 kJ/mol
# GULP energy per Si atom -5571.269622 kJ/mol
# Density = 2.052930 g / cm^3
# Si number density = 20.576132 Si / 1000 Ang^3
#
#
#
# Elastic Constant Matrix: (Units=GPa)
#
#
# Indices 1 2 3 4 5 6 
#
# 1 55.2310 58.5019 11.8903 0.0000 0.0000 0.0000
# 2 58.5019 55.2293 11.8908 0.0000 0.0000 0.0000
# 3 11.8903 11.8908 -36.3602 0.0000 0.0000 0.0000
# 4 0.0000 0.0000 0.0000 52.5375 0.0000 0.0000
# 5 0.0000 0.0000 0.0000 0.0000 52.5373 0.0000
# 6 0.0000 0.0000 0.0000 0.0000 0.0000 41.9396
#
#
#
# Elastic Compliance Matrix: (Units=1/GPa)
#
#
# Indices 1 2 3 4 5 6 
#
# 1 -0.148703 0.156935 0.002694 0.000000 0.000000 0.000000
# 2 0.156935 -0.148707 0.002689 0.000000 0.000000 0.000000
# 3 0.002694 0.002689 -0.025742 0.000000 0.000000 0.000000
# 4 0.000000 0.000000 0.000000 0.019034 0.000000 0.000000
# 5 0.000000 0.000000 0.000000 0.000000 0.019034 0.000000
# 6 0.000000 0.000000 0.000000 0.000000 0.000000 0.023844
#
#
# Mechanical properties :
#
#
# Convention : Reuss Voigt Hill
#
# Bulk Modulus (GPa) = 674.45519 26.51846 350.48683
# Shear Modulus (GPa) = -8.54145 28.85733 10.15794
#
# Velocity S-wave (km/s) = -2.03965 3.74901 2.22429
# Velocity P-wave (km/s) = 17.97081 5.62638 13.31552
#
# Compressibility (1/GPa) = 0.00148268
#
# Stress axis : x y z
#
# Youngs Moduli (GPa) = -6.72481 -6.72466 -38.84649
#
# Poissons Ratio (x) = 1.05533 0.10466
# Poissons Ratio (y) = 1.05536 0.10444
# Poissons Ratio (z) = 0.01812 0.01808
#
# Static dielectric constant tensor:
#      x y z
#    x 1.708220 0.000000 0.000000 
#    y 0.000000 1.708220 0.000000 
#    z 0.000000 0.000000 1.779510 
# 
# From -- ./inp_files/1197.got.cif
#   From: 2010.05.17/outbox.ucp.g08.bks.cvg/sg136_1_cif.got.tgz:1197.got - 2010.06.11 11:40:42.
