data_PCOD9569452
_publ_section_title
;
Structure prediction by ZEFSAII (Michael W. Deem and Ramdas Pophale) SiO2 
 PCOD9569452
Probable space group: P 42/M N M
;
_chemical_formula_sum "Si O2"
_cell_formula_units_Z 104
_cell_length_a 19.003845
_cell_length_b 19.003845
_cell_length_c 17.367927
_cell_angle_alpha 90.000000
_cell_angle_beta 90.000000
_cell_angle_gamma 90.000000
_cell_volume 6272.359532
_symmetry_space_group_name_H-M "P 42/M N M"
_symmetry_group_IT_number 136
_symmetry_cell_setting 'tetragonal'
loop_
_space_group_symop_operation_xyz
x,y,z
1/2-y,1/2+x,1/2+z
-x,-y,z
1/2+y,1/2-x,1/2+z
1/2+x,1/2-y,1/2-z
1/2-x,1/2+y,1/2-z
y,x,-z
-y,-x,-z
-x,-y,-z
1/2+y,1/2-x,1/2-z
x,y,-z
1/2-y,1/2+x,1/2-z
1/2-x,1/2+y,1/2+z
1/2+x,1/2-y,1/2+z
-y,-x,z
y,x,z
loop_
_atom_site_type_symbol
_atom_site_label
_atom_site_fract_x
_atom_site_fract_y
_atom_site_fract_z
Si Si1 0.059891 0.059891 0.414471
Si Si2 0.193803 0.424034 0.088082
Si Si3 0.244263 0.005771 0.181091
Si Si4 0.457102 0.337683 0.832584
Si Si5 0.501715 0.388609 0.591696
Si Si6 0.977159 0.384795 0.738749
Si Si7 0.262888 0.144689 0.911833
O O1 0.081246 0.081246 0.500000
O O2 0.022283 0.122339 0.370520
O O3 0.000000 0.000000 0.420227
O O4 0.275332 0.431580 0.111516
O O5 0.148116 0.462906 0.154133
O O6 0.173776 0.341878 0.091158
O O7 0.181869 0.448588 0.000000
O O8 0.189754 0.981753 0.115650
O O9 0.320923 0.974199 0.199534
O O10 0.255052 0.086251 0.154176
O O11 0.199254 0.987367 0.256632
O O12 0.394092 0.394092 0.818825
O O13 0.502402 0.392027 0.500000
O O14 0.577454 0.422547 0.617457
O O15 0.442918 0.442918 0.621058
O O16 0.053900 0.420893 0.744148
O O17 0.206762 0.206762 0.901464
O O18 0.251762 0.116297 0.000000
#
# Coordination Sequence:
#
# PCOD9569452 Si02
#       7
#     8  16  16  16  16  16  16
#     4   9  18  32  48  72 105 139 177 217 258 309
#     4  10  20  37  59  82 106 139 182 223 275 332
#     4  11  20  32  53  77 108 142 184 223 271 329
#     4  10  21  33  51  79 109 144 180 220 265 318
#     4   9  18  32  51  78 114 151 181 215 263 323
#     4  10  21  40  58  77 109 139 176 234 288 327
#     4  10  20  33  52  81 113 142 178 227 276 323
#
# _framework density 16.580681999999999
#
# number of rings (size 3 to 8) (size 9 to 14) (size 15 to 20)
#    0.000    2.077    1.538    2.769    2.154    2.769 
#    0.000    3.077    0.000    0.000    0.000    0.000 
#    0.000    0.000    0.000    0.000    0.000    0.000 
#
# Total GULP energy -578986.012130 kJ/mol
# GULP energy per Si atom -5567.173194 kJ/mol
# Density = 1.654294 g / cm^3
# Si number density = 16.580682 Si / 1000 Ang^3
#
#
#
# Elastic Constant Matrix: (Units=GPa)
#
#
# Indices 1 2 3 4 5 6 
#
# 1 146.5039 -5.9316 41.3388 0.0000 0.0000 0.0000
# 2 -5.9316 146.5039 41.3388 0.0000 0.0000 0.0000
# 3 41.3388 41.3388 72.3435 0.0000 0.0000 0.0000
# 4 0.0000 0.0000 0.0000 46.8061 0.0000 0.0000
# 5 0.0000 0.0000 0.0000 0.0000 46.8061 0.0000
# 6 0.0000 0.0000 0.0000 0.0000 0.0000 24.3285
#
#
#
# Elastic Compliance Matrix: (Units=1/GPa)
#
#
# Indices 1 2 3 4 5 6 
#
# 1 0.008638 0.002077 -0.006123 0.000000 0.000000 0.000000
# 2 0.002077 0.008638 -0.006123 0.000000 0.000000 0.000000
# 3 -0.006123 -0.006123 0.020820 0.000000 0.000000 0.000000
# 4 0.000000 0.000000 0.000000 0.021365 0.000000 0.000000
# 5 0.000000 0.000000 0.000000 0.000000 0.021365 0.000000
# 6 0.000000 0.000000 0.000000 0.000000 0.000000 0.041104
#
#
# Mechanical properties :
#
#
# Convention : Reuss Voigt Hill
#
# Bulk Modulus (GPa) = 56.30918 57.64927 56.97922
# Shear Modulus (GPa) = 33.74165 42.82847 38.28506
#
# Velocity S-wave (km/s) = 4.51599 5.08787 4.81044
# Velocity P-wave (km/s) = 7.82475 8.32824 8.08042
#
# Compressibility (1/GPa) = 0.01775909
#
# Stress axis : x y z
#
# Youngs Moduli (GPa) = 115.77404 115.77404 48.03002
#
# Poissons Ratio (x) = -0.24050 0.29408
# Poissons Ratio (y) = -0.24050 0.29408
# Poissons Ratio (z) = 0.70885 0.70885
#
# Static dielectric constant tensor:
#      x y z
#    x 1.581950 0.000000 0.000000 
#    y 0.000000 1.581950 0.000000 
#    z 0.000000 0.000000 1.576910 
# 
# From -- ./inp_files/6447.got.cif
#   From: 2010.05.17/outbox.cif.g08.bks.cpg/sg136_4_cif.got.tgz:6447.got - 2010.05.20 12:54:53.
