data_PCOD9569619
_publ_section_title
;
Structure prediction by ZEFSAII (Michael W. Deem and Ramdas Pophale) SiO2 
 PCOD9569619
Probable space group: P 42/M N M
;
_chemical_formula_sum "Si O2"
_cell_formula_units_Z 64
_cell_length_a 11.552265
_cell_length_b 11.552265
_cell_length_c 24.660619
_cell_angle_alpha 90.000000
_cell_angle_beta 90.000000
_cell_angle_gamma 90.000000
_cell_volume 3291.078633
_symmetry_space_group_name_H-M "P 42/M N M"
_symmetry_group_IT_number 136
_symmetry_cell_setting 'tetragonal'
loop_
_space_group_symop_operation_xyz
x,y,z
1/2-y,1/2+x,1/2+z
-x,-y,z
1/2+y,1/2-x,1/2+z
1/2+x,1/2-y,1/2-z
1/2-x,1/2+y,1/2-z
y,x,-z
-y,-x,-z
-x,-y,-z
1/2+y,1/2-x,1/2-z
x,y,-z
1/2-y,1/2+x,1/2-z
1/2-x,1/2+y,1/2+z
1/2+x,1/2-y,1/2+z
-y,-x,z
y,x,z
loop_
_atom_site_type_symbol
_atom_site_label
_atom_site_fract_x
_atom_site_fract_y
_atom_site_fract_z
Si Si1 0.638002 0.023038 0.437863
Si Si2 0.744943 0.062964 0.771561
Si Si3 0.576705 0.226651 0.828730
Si Si4 0.400755 0.599246 0.334567
Si Si5 0.793450 0.793450 0.061998
O O1 0.668562 0.990307 0.500000
O O2 0.674875 0.157657 0.431044
O O3 0.500000 0.000000 0.432015
O O4 0.700757 0.951540 0.390800
O O5 0.839763 0.160238 0.782305
O O6 0.631722 0.114176 0.799232
O O7 0.745799 0.036066 0.708018
O O8 0.790503 0.949360 0.802191
O O9 0.665126 0.334875 0.824141
O O10 0.500000 0.500000 0.334804
O O11 0.365383 0.634618 0.394473
O O12 0.823750 0.823750 0.000000
#
# Coordination Sequence:
#
# PCOD9569619 Si02
#       5
#    16  16  16   8   8
#     4  10  23  42  62  89 123 159 207 258 303 358
#     4  10  23  38  55  88 121 154 197 249 303 360
#     4  11  24  38  60  89 118 161 202 241 305 367
#     4  10  20  39  58  81 126 156 192 253 301 353
#     4  10  22  39  63  92 120 160 206 253 303 357
#
# _framework density 19.44651
#
# number of rings (size 3 to 8) (size 9 to 14) (size 15 to 20)
#    0.000    1.750    1.250    1.500    8.750    0.750 
#    0.000    0.000    0.000   11.250    0.000    0.000 
#    0.000    0.000    0.000    0.000    0.000    0.000 
#
# Total GULP energy -357156.539261 kJ/mol
# GULP energy per Si atom -5580.570926 kJ/mol
# Density = 1.940225 g / cm^3
# Si number density = 19.446510 Si / 1000 Ang^3
#
#
#
# Elastic Constant Matrix: (Units=GPa)
#
#
# Indices 1 2 3 4 5 6 
#
# 1 25.0155 14.6709 9.1916 0.0000 0.0000 0.0000
# 2 14.6709 25.0155 9.1916 0.0000 0.0000 0.0000
# 3 9.1916 9.1916 116.3643 0.0000 0.0000 0.0000
# 4 0.0000 0.0000 0.0000 19.5680 0.0000 0.0000
# 5 0.0000 0.0000 0.0000 0.0000 19.5680 0.0000
# 6 0.0000 0.0000 0.0000 0.0000 0.0000 18.7100
#
#
#
# Elastic Compliance Matrix: (Units=1/GPa)
#
#
# Indices 1 2 3 4 5 6 
#
# 1 0.061412 -0.035257 -0.002066 0.000000 0.000000 0.000000
# 2 -0.035257 0.061412 -0.002066 0.000000 0.000000 0.000000
# 3 -0.002066 -0.002066 0.008920 0.000000 0.000000 0.000000
# 4 0.000000 0.000000 0.000000 0.051104 0.000000 0.000000
# 5 0.000000 0.000000 0.000000 0.000000 0.051104 0.000000
# 6 0.000000 0.000000 0.000000 0.000000 0.000000 0.053447
#
#
# Mechanical properties :
#
#
# Convention : Reuss Voigt Hill
#
# Bulk Modulus (GPa) = 18.88029 25.83375 22.35702
# Shear Modulus (GPa) = 13.02651 20.45859 16.74255
#
# Velocity S-wave (km/s) = 2.59098 3.24704 2.93739
# Velocity P-wave (km/s) = 4.32213 5.23174 4.79854
#
# Compressibility (1/GPa) = 0.05296528
#
# Stress axis : x y z
#
# Youngs Moduli (GPa) = 16.28350 16.28350 112.10667
#
# Poissons Ratio (x) = 0.57411 0.23161
# Poissons Ratio (y) = 0.57411 0.23161
# Poissons Ratio (z) = 0.03364 0.03364
#
# Static dielectric constant tensor:
#      x y z
#    x 1.716240 0.000000 0.000000 
#    y 0.000000 1.716240 0.000000 
#    z 0.000000 0.000000 1.656060 
# 
# From -- ./inp_files/8148.got.cif
#   From: 2010.05.17/outbox.cif.g08.bks.cpg/sg136_5_cif.got.tgz:8148.got - 2010.05.20 12:54:53.
