data_PCOD9569920
_publ_section_title
;
Structure prediction by ZEFSAII (Michael W. Deem and Ramdas Pophale) SiO2 
 PCOD9569920
Probable space group: P 42/M N M
;
_chemical_formula_sum "Si O2"
_cell_formula_units_Z 120
_cell_length_a 18.000000
_cell_length_b 18.000000
_cell_length_c 21.000000
_cell_angle_alpha 90.000000
_cell_angle_beta 90.000000
_cell_angle_gamma 90.000000
_cell_volume 6804.000000
_symmetry_space_group_name_H-M "P 42/M N M"
_symmetry_group_IT_number 136
_symmetry_cell_setting 'tetragonal'
loop_
_space_group_symop_operation_xyz
x,y,z
1/2-y,1/2+x,1/2+z
-x,-y,z
1/2+y,1/2-x,1/2+z
1/2+x,1/2-y,1/2-z
1/2-x,1/2+y,1/2-z
y,x,-z
-y,-x,-z
-x,-y,-z
1/2+y,1/2-x,1/2-z
x,y,-z
1/2-y,1/2+x,1/2-z
1/2-x,1/2+y,1/2+z
1/2+x,1/2-y,1/2+z
-y,-x,z
y,x,z
loop_
_atom_site_type_symbol
_atom_site_label
_atom_site_fract_x
_atom_site_fract_y
_atom_site_fract_z
Si Si1 0.367827 0.750398 0.192956
Si Si2 0.996240 0.876877 0.000000
Si Si3 0.993869 0.270010 0.771557
Si Si4 0.159678 0.590601 0.925424
Si Si5 0.720689 0.159259 0.699548
Si Si6 0.873543 0.000989 0.140223
Si Si7 0.344805 0.914750 0.573368
Si Si8 0.499877 0.085156 0.640222
O O1 0.329841 0.670160 0.188011
O O2 0.453017 0.757090 0.211708
O O3 0.362238 0.791318 0.124753
O O4 0.330802 0.788814 0.255504
O O5 0.005459 0.840750 0.931650
O O6 0.056431 0.943570 0.000000
O O7 0.916148 0.916148 0.000000
O O8 0.911962 0.271154 0.743839
O O9 0.008007 0.348497 0.808082
O O10 0.004412 0.197409 0.815131
O O11 0.178156 0.501942 0.922556
O O12 0.076343 0.596859 0.897882
O O13 0.164726 0.612578 0.000000
O O14 0.796824 0.203177 0.690495
O O15 0.690996 0.133674 0.630404
O O16 0.930126 0.930126 0.144503
O O17 0.926927 0.073074 0.151158
O O18 0.331835 0.890360 0.500000
O O19 0.432049 0.912308 0.590924
O O20 0.500000 0.000000 0.667291
#
# Coordination Sequence:
#
# PCOD9569920 Si02
#       8
#    16   8  16  16  16  16  16  16
#     4  11  23  38  56  84 116 148 190 237 280 334
#     4   7  12  28  52  76 105 140 180 222 265 324
#     4  12  21  37  57  83 111 151 188 234 283 339
#     4  10  20  38  61  85 112 147 190 233 284 341
#     4  11  23  38  56  84 116 148 190 237 280 334
#     4   9  18  34  56  81 110 147 189 232 281 339
#     4  10  20  38  61  85 112 147 190 233 284 341
#     4  10  21  37  59  85 115 144 186 236 280 338
#
# _framework density 17.636683999999999
#
# number of rings (size 3 to 8) (size 9 to 14) (size 15 to 20)
#    0.000    1.800    4.000    2.000    0.000    2.133 
#    4.800    0.000    0.000    0.000    0.000    0.000 
#    0.000    2.133    0.000    0.000    0.000    0.000 
#
# Total GULP energy -668449.423117 kJ/mol
# GULP energy per Si atom -5570.411859 kJ/mol
# Density = 1.759654 g / cm^3
# Si number density = 17.636684 Si / 1000 Ang^3
#
#
#
# Elastic Constant Matrix: (Units=GPa)
#
#
# Indices 1 2 3 4 5 6 
#
# 1 45.6500 2.6418 16.2459 0.0000 0.0000 0.0000
# 2 2.6418 45.6499 16.2459 0.0000 0.0000 0.0000
# 3 16.2459 16.2459 113.2539 0.0000 0.0000 0.0000
# 4 0.0000 0.0000 0.0000 2.8719 0.0000 0.0000
# 5 0.0000 0.0000 0.0000 0.0000 2.8740 0.0000
# 6 0.0000 0.0000 0.0000 0.0000 0.0000 23.8580
#
#
#
# Elastic Compliance Matrix: (Units=1/GPa)
#
#
# Indices 1 2 3 4 5 6 
#
# 1 0.023085 -0.000166 -0.003288 0.000000 0.000000 0.000000
# 2 -0.000166 0.023085 -0.003288 0.000000 0.000000 0.000000
# 3 -0.003288 -0.003288 0.009773 0.000000 0.000000 0.000000
# 4 0.000000 0.000000 0.000000 0.348203 0.000000 0.000000
# 5 0.000000 0.000000 0.000000 0.000000 0.347942 0.000000
# 6 0.000000 0.000000 0.000000 0.000000 0.000000 0.041915
#
#
# Mechanical properties :
#
#
# Convention : Reuss Voigt Hill
#
# Bulk Modulus (GPa) = 23.55097 30.53566 27.04332
# Shear Modulus (GPa) = 6.08539 17.21547 11.65043
#
# Velocity S-wave (km/s) = 1.85954 3.12768 2.57296
# Velocity P-wave (km/s) = 4.24181 5.51312 4.91871
#
# Compressibility (1/GPa) = 0.04246110
#
# Stress axis : x y z
#
# Youngs Moduli (GPa) = 43.31729 43.31724 102.32323
#
# Poissons Ratio (x) = 0.00719 0.33641
# Poissons Ratio (y) = 0.00719 0.33641
# Poissons Ratio (z) = 0.14242 0.14242
#
# Static dielectric constant tensor:
#      x y z
#    x 1.618400 0.000000 0.000000 
#    y 0.000000 1.618400 0.000000 
#    z 0.000000 0.000000 1.615340 
# 
# From -- ./inp_files/7815.got.cif
#   From: 2010.05.17/outbox.ucp.g08.bks.cvg/sg136_4_cif.got.tgz:7815.got - 2010.06.11 11:40:42.
