data_PCOD9569230
_publ_section_title
;
Structure prediction by ZEFSAII (Michael W. Deem and Ramdas Pophale) SiO2 
 PCOD9569230
Probable space group: P 42/M N M
;
_chemical_formula_sum "Si O2"
_cell_formula_units_Z 96
_cell_length_a 23.683849
_cell_length_b 23.683849
_cell_length_c 7.702307
_cell_angle_alpha 90.000000
_cell_angle_beta 90.000000
_cell_angle_gamma 90.000000
_cell_volume 4320.414270
_symmetry_space_group_name_H-M "P 42/M N M"
_symmetry_group_IT_number 136
_symmetry_cell_setting 'tetragonal'
loop_
_space_group_symop_operation_xyz
x,y,z
1/2-y,1/2+x,1/2+z
-x,-y,z
1/2+y,1/2-x,1/2+z
1/2+x,1/2-y,1/2-z
1/2-x,1/2+y,1/2-z
y,x,-z
-y,-x,-z
-x,-y,-z
1/2+y,1/2-x,1/2-z
x,y,-z
1/2-y,1/2+x,1/2-z
1/2-x,1/2+y,1/2+z
1/2+x,1/2-y,1/2+z
-y,-x,z
y,x,z
loop_
_atom_site_type_symbol
_atom_site_label
_atom_site_fract_x
_atom_site_fract_y
_atom_site_fract_z
Si Si1 0.389796 0.126780 0.708703
Si Si2 0.216796 0.003472 0.307627
Si Si3 0.222378 0.310382 0.702846
Si Si4 0.000971 0.089054 0.207256
Si Si5 0.837492 0.491476 0.790424
Si Si6 0.870859 0.781194 0.795173
O O1 0.382871 0.128245 0.500000
O O2 0.363194 0.186288 0.776823
O O3 0.357783 0.070117 0.772226
O O4 0.455897 0.122545 0.750165
O O5 0.218516 0.979126 0.500000
O O6 0.276107 0.989980 0.216969
O O7 0.220312 0.071402 0.306028
O O8 0.154744 0.991503 0.239234
O O9 0.234447 0.321910 0.500000
O O10 0.279218 0.279218 0.775608
O O11 0.174125 0.262427 0.719377
O O12 0.949726 0.050275 0.273406
O O13 0.002219 0.083943 0.000000
O O14 0.058843 0.058843 0.271846
O O15 0.832516 0.486923 0.000000
O O16 0.842316 0.842316 0.784856
O O17 0.880021 0.769152 0.000000
#
# Coordination Sequence:
#
# PCOD9569230 Si02
#       6
#    16  16  16  16  16  16
#     4  10  21  40  61  85 115 147 189 236 286 344
#     4  11  21  35  54  79 113 149 186 233 283 335
#     4   9  17  33  57  82 112 146 179 223 276 329
#     4   9  19  36  56  81 117 156 194 239 283 329
#     4  10  23  41  59  83 114 146 186 237 292 348
#     4  10  19  29  47  79 113 142 177 221 270 326
#
# _framework density 22.220089999999999
#
# number of rings (size 3 to 8) (size 9 to 14) (size 15 to 20)
#    0.000    2.167    1.667    2.000    0.000    6.667 
#    0.000    3.333    0.000    3.000    0.000    0.000 
#    0.000    0.000    0.000    0.000    0.000    0.000 
#
# Total GULP energy -534881.143925 kJ/mol
# GULP energy per Si atom -5571.678583 kJ/mol
# Density = 2.216952 g / cm^3
# Si number density = 22.220090 Si / 1000 Ang^3
#
#
#
# Elastic Constant Matrix: (Units=GPa)
#
#
# Indices 1 2 3 4 5 6 
#
# 1 91.1188 52.8377 2.2515 0.0000 0.0000 0.0000
# 2 52.8377 91.1188 2.2515 0.0000 0.0000 0.0000
# 3 2.2515 2.2515 40.9582 0.0000 0.0000 0.0000
# 4 0.0000 0.0000 0.0000 20.3228 0.0000 0.0000
# 5 0.0000 0.0000 0.0000 0.0000 20.3228 0.0000
# 6 0.0000 0.0000 0.0000 0.0000 0.0000 27.3850
#
#
#
# Elastic Compliance Matrix: (Units=1/GPa)
#
#
# Indices 1 2 3 4 5 6 
#
# 1 0.016541 -0.009582 -0.000383 0.000000 0.000000 0.000000
# 2 -0.009582 0.016541 -0.000383 0.000000 0.000000 0.000000
# 3 -0.000383 -0.000383 0.024457 0.000000 0.000000 0.000000
# 4 0.000000 0.000000 0.000000 0.049206 0.000000 0.000000
# 5 0.000000 0.000000 0.000000 0.000000 0.049206 0.000000
# 6 0.000000 0.000000 0.000000 0.000000 0.000000 0.036516
#
#
# Mechanical properties :
#
#
# Convention : Reuss Voigt Hill
#
# Bulk Modulus (GPa) = 27.14135 37.54192 32.34164
# Shear Modulus (GPa) = 22.17871 24.66315 23.42093
#
# Velocity S-wave (km/s) = 3.16276 3.33520 3.25013
# Velocity P-wave (km/s) = 5.05754 5.63592 5.35454
#
# Compressibility (1/GPa) = 0.03684415
#
# Stress axis : x y z
#
# Youngs Moduli (GPa) = 60.45760 60.45760 40.88776
#
# Poissons Ratio (x) = 0.57931 0.01564
# Poissons Ratio (y) = 0.57931 0.01564
# Poissons Ratio (z) = 0.02313 0.02313
#
# Static dielectric constant tensor:
#      x y z
#    x 1.855510 0.000000 0.000000 
#    y 0.000000 1.855510 0.000000 
#    z 0.000000 0.000000 1.843880 
# 
# From -- ./inp_files/1994.got.cif
#   From: 2010.05.17/outbox.cif.g08.bks.cpg/sg136_1_cif.got.tgz:1994.got - 2010.05.20 12:54:53.
