data_PCOD9569937
_publ_section_title
;
Structure prediction by ZEFSAII (Michael W. Deem and Ramdas Pophale) SiO2 
 PCOD9569937
Probable space group: P 42/N M C
;
_chemical_formula_sum "Si O2"
_cell_formula_units_Z 96
_cell_length_a 24.772340
_cell_length_b 24.772340
_cell_length_c 7.184414
_cell_angle_alpha 90.000000
_cell_angle_beta 90.000000
_cell_angle_gamma 90.000000
_cell_volume 4408.850927
_symmetry_space_group_name_H-M "P 42/N M C"
_symmetry_group_IT_number 137
_space_group.IT_coordinate_system_code '2'
_symmetry_cell_setting 'tetragonal'
loop_
_space_group_symop_operation_xyz
x,y,z
1/2-y,x,1/2+z
1/2-x,1/2-y,z
y,1/2-x,1/2+z
1/2+x,-y,-z
-x,1/2+y,-z
1/2+y,1/2+x,1/2-z
-y,-x,1/2-z
-x,-y,-z
1/2+y,-x,1/2-z
1/2+x,1/2+y,-z
-y,1/2+x,1/2-z
1/2-x,y,z
x,1/2-y,z
1/2-y,1/2-x,1/2+z
y,x,1/2+z
loop_
_atom_site_type_symbol
_atom_site_label
_atom_site_fract_x
_atom_site_fract_y
_atom_site_fract_z
Si Si1 0.812165 0.191432 0.474316
Si Si2 0.309532 0.387589 0.333854
Si Si3 0.528957 0.187117 0.474484
Si Si4 0.491890 0.688694 0.075593
Si Si5 0.690265 0.909150 0.103585
Si Si6 0.901557 0.388165 0.954623
O O1 0.814383 0.185618 0.250000
O O2 0.750000 0.193007 0.526672
O O3 0.836520 0.250000 0.522920
O O4 0.838545 0.139758 0.562371
O O5 0.250000 0.364744 0.386039
O O6 0.318557 0.443693 0.443063
O O7 0.360901 0.349021 0.342778
O O8 0.305468 0.403755 0.119011
O O9 0.543710 0.250000 0.428046
O O10 0.521138 0.186971 0.700691
O O11 0.471911 0.175390 0.374584
O O12 0.570207 0.137737 0.437064
O O13 0.478212 0.750000 0.013945
O O14 0.456608 0.641126 0.984770
O O15 0.750000 0.900553 0.183926
O O16 0.912499 0.412499 0.750000
#
# Coordination Sequence:
#
# PCOD9569937 Si02
#       6
#    16  16  16  16  16  16
#     4   9  18  30  40  55  87 125 153 187 242 291
#     4   9  18  33  51  70  95 124 150 181 226 278
#     4   8  15  28  45  67  95 123 150 187 236 276
#     4   8  15  28  45  67  95 123 150 187 236 276
#     4   9  18  33  51  70  95 124 150 181 226 278
#     4  10  17  27  48  71  87 113 160 203 225 258
#
# _framework density 21.774381000000002
#
# number of rings (size 3 to 8) (size 9 to 14) (size 15 to 20)
#    0.000    3.167    0.000    3.500    0.000    3.000 
#    0.000    5.000    0.000    2.000    0.000    0.000 
#    0.000    0.000    0.000    0.000    0.000    0.000 
#
# Total GULP energy -535087.958018 kJ/mol
# GULP energy per Si atom -5573.832896 kJ/mol
# Density = 2.172482 g / cm^3
# Si number density = 21.774381 Si / 1000 Ang^3
#
#
#
# Elastic Constant Matrix: (Units=GPa)
#
#
# Indices 1 2 3 4 5 6 
#
# 1 130.1996 94.4117 -8.0951 0.0000 0.0000 0.0000
# 2 94.4117 130.1996 -8.0952 0.0000 0.0000 0.0000
# 3 -8.0951 -8.0952 53.7863 0.0000 0.0000 0.0000
# 4 0.0000 0.0000 0.0000 15.4074 0.0000 0.0000
# 5 0.0000 0.0000 0.0000 0.0000 15.4076 0.0000
# 6 0.0000 0.0000 0.0000 0.0000 0.0000 43.8045
#
#
#
# Elastic Compliance Matrix: (Units=1/GPa)
#
#
# Indices 1 2 3 4 5 6 
#
# 1 0.016222 -0.011721 0.000677 0.000000 0.000000 0.000000
# 2 -0.011721 0.016222 0.000677 0.000000 0.000000 0.000000
# 3 0.000677 0.000677 0.018796 0.000000 0.000000 0.000000
# 4 0.000000 0.000000 0.000000 0.064904 0.000000 0.000000
# 5 0.000000 0.000000 0.000000 0.000000 0.064903 0.000000
# 6 0.000000 0.000000 0.000000 0.000000 0.000000 0.022829
#
#
# Mechanical properties :
#
#
# Convention : Reuss Voigt Hill
#
# Bulk Modulus (GPa) = 32.77869 52.29204 42.53536
# Shear Modulus (GPa) = 21.29690 30.65484 25.97587
#
# Velocity S-wave (km/s) = 3.13081 3.75619 3.45767
# Velocity P-wave (km/s) = 5.30620 6.54824 5.95966
#
# Compressibility (1/GPa) = 0.03050763
#
# Stress axis : x y z
#
# Youngs Moduli (GPa) = 61.64595 61.64591 53.20277
#
# Poissons Ratio (x) = 0.72253 -0.03604
# Poissons Ratio (y) = 0.72253 -0.03604
# Poissons Ratio (z) = -0.04176 -0.04176
#
# Static dielectric constant tensor:
#      x y z
#    x 1.811760 0.000000 0.000000 
#    y 0.000000 1.811770 0.000000 
#    z 0.000000 0.000000 1.887040 
# 
# From -- ./inp_files/2189.got.cif
#   From: 2010.05.17/outbox.cif.g08.bks.cpg/sg137_2_cif.got.tgz:2189.got - 2010.05.20 13:01:12.
