data_PCOD9569606
_publ_section_title
;
Structure prediction by ZEFSAII (Michael W. Deem and Ramdas Pophale) SiO2 
 PCOD9569606
Probable space group: P 42/M N M
;
_chemical_formula_sum "Si O2"
_cell_formula_units_Z 84
_cell_length_a 12.480530
_cell_length_b 12.480530
_cell_length_c 29.653455
_cell_angle_alpha 90.000000
_cell_angle_beta 90.000000
_cell_angle_gamma 90.000000
_cell_volume 4618.929766
_symmetry_space_group_name_H-M "P 42/M N M"
_symmetry_group_IT_number 136
_symmetry_cell_setting 'tetragonal'
loop_
_space_group_symop_operation_xyz
x,y,z
1/2-y,1/2+x,1/2+z
-x,-y,z
1/2+y,1/2-x,1/2+z
1/2+x,1/2-y,1/2-z
1/2-x,1/2+y,1/2-z
y,x,-z
-y,-x,-z
-x,-y,-z
1/2+y,1/2-x,1/2-z
x,y,-z
1/2-y,1/2+x,1/2-z
1/2-x,1/2+y,1/2+z
1/2+x,1/2-y,1/2+z
-y,-x,z
y,x,z
loop_
_atom_site_type_symbol
_atom_site_label
_atom_site_fract_x
_atom_site_fract_y
_atom_site_fract_z
Si Si1 0.910720 0.910720 0.675445
Si Si2 0.937870 0.236438 0.263816
Si Si3 0.722261 0.277740 0.899253
Si Si4 0.050192 0.381374 0.810785
Si Si5 0.412244 0.587757 0.447538
Si Si6 0.377413 0.966225 0.000000
Si Si7 0.223554 0.223554 0.500000
Si Si8 0.980401 0.289145 0.904227
O O1 0.845743 0.845743 0.636935
O O2 0.974054 0.826840 0.706964
O O3 0.000000 0.000000 0.659785
O O4 0.848561 0.151440 0.248874
O O5 0.886850 0.327231 0.295493
O O6 0.988985 0.299062 0.221939
O O7 0.687271 0.312730 0.950146
O O8 0.851531 0.292942 0.895902
O O9 0.035245 0.343684 0.861690
O O10 0.000000 0.500000 0.805250
O O11 0.500000 0.500000 0.456466
O O12 0.377695 0.622305 0.500000
O O13 0.325812 0.529204 0.415958
O O14 0.315227 0.848932 0.000000
O O15 0.500000 0.000000 0.000000
O O16 0.344698 0.008378 0.951305
#
# Coordination Sequence:
#
# PCOD9569606 Si02
#       8
#     8  16   8  16   8   8   4  16
#     4  10  24  45  66  91 123 169 215 267 328 385
#     4  11  25  42  64  90 126 169 210 266 320 381
#     4  10  20  37  67  92 125 166 215 258 325 387
#     4  12  24  41  62  93 126 164 217 262 319 379
#     4  11  22  39  63  96 142 170 210 269 333 392
#     4  10  20  39  58  90 127 160 217 265 317 384
#     4   8  20  36  59  97 118 154 210 270 310 379
#     4  11  23  36  63  95 127 173 211 259 322 391
#
# _framework density 18.186032000000001
#
# number of rings (size 3 to 8) (size 9 to 14) (size 15 to 20)
#    0.000    1.238    3.810    1.714    4.000    1.524 
#    0.000    1.190    0.000    0.000    0.000    0.000 
#    0.000    0.000    0.000    0.000    0.000    0.000 
#
# Total GULP energy -467741.671385 kJ/mol
# GULP energy per Si atom -5568.353231 kJ/mol
# Density = 1.814464 g / cm^3
# Si number density = 18.186032 Si / 1000 Ang^3
#
#
#
# Elastic Constant Matrix: (Units=GPa)
#
#
# Indices 1 2 3 4 5 6 
#
# 1 105.3770 65.4080 69.3267 0.0000 0.0000 0.0000
# 2 65.4080 105.3771 69.3268 0.0000 0.0000 0.0000
# 3 69.3267 69.3268 159.9387 0.0000 0.0000 0.0000
# 4 0.0000 0.0000 0.0000 17.7761 0.0000 0.0000
# 5 0.0000 0.0000 0.0000 0.0000 17.7764 0.0000
# 6 0.0000 0.0000 0.0000 0.0000 0.0000 34.9771
#
#
#
# Elastic Compliance Matrix: (Units=1/GPa)
#
#
# Indices 1 2 3 4 5 6 
#
# 1 0.017027 -0.007992 -0.003916 0.000000 0.000000 0.000000
# 2 -0.007992 0.017027 -0.003916 0.000000 0.000000 0.000000
# 3 -0.003916 -0.003916 0.009647 0.000000 0.000000 0.000000
# 4 0.000000 0.000000 0.000000 0.056255 0.000000 0.000000
# 5 0.000000 0.000000 0.000000 0.000000 0.056254 0.000000
# 6 0.000000 0.000000 0.000000 0.000000 0.000000 0.028590
#
#
# Mechanical properties :
#
#
# Convention : Reuss Voigt Hill
#
# Bulk Modulus (GPa) = 82.97302 86.53510 84.75406
# Shear Modulus (GPa) = 22.67906 25.21468 23.94687
#
# Velocity S-wave (km/s) = 3.53520 3.72759 3.63267
# Velocity P-wave (km/s) = 7.89856 8.13715 8.01874
#
# Compressibility (1/GPa) = 0.01205211
#
# Stress axis : x y z
#
# Youngs Moduli (GPa) = 58.73013 58.73012 103.65509
#
# Poissons Ratio (x) = 0.46939 0.40593
# Poissons Ratio (y) = 0.46939 0.40593
# Poissons Ratio (z) = 0.23000 0.23000
#
# Static dielectric constant tensor:
#      x y z
#    x 1.733040 0.000000 0.000000 
#    y 0.000000 1.733040 0.000000 
#    z 0.000000 0.000000 1.615970 
# 
# From -- ./inp_files/9827.got.cif
#   From: 2010.05.17/outbox.cif.g08.bks.cpg/sg136_5_cif.got.tgz:9827.got - 2010.05.20 12:54:53.
