data_PCOD9569997
_publ_section_title
;
Structure prediction by ZEFSAII (Michael W. Deem and Ramdas Pophale) SiO2 
 PCOD9569997
Probable space group: P 42/N M C
;
_chemical_formula_sum "Si O2"
_cell_formula_units_Z 96
_cell_length_a 21.137490
_cell_length_b 21.137490
_cell_length_c 13.609898
_cell_angle_alpha 90.000000
_cell_angle_beta 90.000000
_cell_angle_gamma 90.000000
_cell_volume 6080.813738
_symmetry_space_group_name_H-M "P 42/N M C"
_symmetry_group_IT_number 137
_space_group.IT_coordinate_system_code '2'
_symmetry_cell_setting 'tetragonal'
loop_
_space_group_symop_operation_xyz
x,y,z
1/2-y,x,1/2+z
1/2-x,1/2-y,z
y,1/2-x,1/2+z
1/2+x,-y,-z
-x,1/2+y,-z
1/2+y,1/2+x,1/2-z
-y,-x,1/2-z
-x,-y,-z
1/2+y,-x,1/2-z
1/2+x,1/2+y,-z
-y,1/2+x,1/2-z
1/2-x,y,z
x,1/2-y,z
1/2-y,1/2-x,1/2+z
y,x,1/2+z
loop_
_atom_site_type_symbol
_atom_site_label
_atom_site_fract_x
_atom_site_fract_y
_atom_site_fract_z
Si Si1 0.354082 0.750000 0.730567
Si Si2 0.072235 0.750000 0.533610
Si Si3 0.541213 0.115903 0.529713
Si Si4 0.561272 0.750000 0.649493
Si Si5 0.060624 0.034235 0.198584
Si Si6 0.580539 0.889360 0.607829
Si Si7 0.484783 0.750000 0.850905
Si Si8 0.379140 0.497235 0.533273
O O1 0.311313 0.811313 0.750000
O O2 0.375857 0.750000 0.618297
O O3 0.416984 0.750000 0.796458
O O4 0.074366 0.816264 0.477019
O O5 0.003812 0.750000 0.587177
O O6 0.500093 0.111140 0.628834
O O7 0.490613 0.108486 0.439596
O O8 0.589870 0.057333 0.522118
O O9 0.595910 0.815142 0.620108
O O10 0.537688 0.750000 0.763407
O O11 0.083438 0.079917 0.284673
O O12 0.019066 0.980934 0.250000
O O13 0.017926 0.074103 0.123572
O O14 0.620018 0.935159 0.536057
O O15 0.490168 0.688441 0.918916
#
# Coordination Sequence:
#
# PCOD9569997 Si02
#       8
#     8   8  16   8  16  16   8  16
#     4  10  20  33  50  72 104 149 183 211 263 325
#     4   9  19  32  44  70 107 133 174 211 253 320
#     4  10  19  30  49  74 101 140 171 211 263 312
#     4   9  18  31  50  72 101 134 159 199 272 317
#     4  11  17  29  52  74 100 134 170 213 265 322
#     4  10  18  32  50  77 102 132 167 211 262 327
#     4  11  21  30  48  79 106 136 170 219 260 309
#     4  11  20  30  49  77 106 132 175 216 267 311
#
# _framework density 15.787362
#
# number of rings (size 3 to 8) (size 9 to 14) (size 15 to 20)
#    0.000    1.750    5.000    2.000    0.000    0.667 
#    0.000    0.833    0.000    0.500    0.000    1.167 
#    0.000    0.000    0.000    0.000    0.000    0.000 
#
# Total GULP energy -534856.703719 kJ/mol
# GULP energy per Si atom -5571.423997 kJ/mol
# Density = 1.575143 g / cm^3
# Si number density = 15.787362 Si / 1000 Ang^3
#
#
#
# Elastic Constant Matrix: (Units=GPa)
#
#
# Indices 1 2 3 4 5 6 
#
# 1 95.2664 47.0415 41.2466 0.0000 0.0000 0.0000
# 2 47.0415 95.2675 41.2471 0.0000 0.0000 0.0000
# 3 41.2466 41.2471 85.1748 0.0000 0.0000 0.0000
# 4 0.0000 0.0000 0.0000 20.0109 0.0000 0.0000
# 5 0.0000 0.0000 0.0000 0.0000 20.0111 0.0000
# 6 0.0000 0.0000 0.0000 0.0000 0.0000 4.5058
#
#
#
# Elastic Compliance Matrix: (Units=1/GPa)
#
#
# Indices 1 2 3 4 5 6 
#
# 1 0.015253 -0.005483 -0.004731 0.000000 0.000000 0.000000
# 2 -0.005483 0.015253 -0.004731 0.000000 0.000000 0.000000
# 3 -0.004731 -0.004731 0.016323 0.000000 0.000000 0.000000
# 4 0.000000 0.000000 0.000000 0.049973 0.000000 0.000000
# 5 0.000000 0.000000 0.000000 0.000000 0.049972 0.000000
# 6 0.000000 0.000000 0.000000 0.000000 0.000000 0.221937
#
#
# Mechanical properties :
#
#
# Convention : Reuss Voigt Hill
#
# Bulk Modulus (GPa) = 59.04007 59.41988 59.22998
# Shear Modulus (GPa) = 12.36870 18.65048 15.50959
#
# Velocity S-wave (km/s) = 2.80206 3.44081 3.13773
# Velocity P-wave (km/s) = 6.92438 7.31471 7.12222
#
# Compressibility (1/GPa) = 0.01693765
#
# Stress axis : x y z
#
# Youngs Moduli (GPa) = 65.56193 65.56252 61.26478
#
# Poissons Ratio (x) = 0.35950 0.28984
# Poissons Ratio (y) = 0.35949 0.28984
# Poissons Ratio (z) = 0.31017 0.31017
#
# Static dielectric constant tensor:
#      x y z
#    x 1.533130 0.000000 0.000000 
#    y 0.000000 1.533130 0.000000 
#    z 0.000000 0.000000 1.530890 
# 
# From -- ./inp_files/3823.got.cif
#   From: 2010.05.17/outbox.cif.g08.bks.cpg/sg137_2_cif.got.tgz:3823.got - 2010.05.20 13:01:12.
