data_PCOD9569281
_publ_section_title
;
Structure prediction by ZEFSAII (Michael W. Deem and Ramdas Pophale) SiO2 
 PCOD9569281
Probable space group: P 42/M N M
;
_chemical_formula_sum "Si O2"
_cell_formula_units_Z 112
_cell_length_a 15.512689
_cell_length_b 15.512689
_cell_length_c 26.416195
_cell_angle_alpha 90.000000
_cell_angle_beta 90.000000
_cell_angle_gamma 90.000000
_cell_volume 6356.886150
_symmetry_space_group_name_H-M "P 42/M N M"
_symmetry_group_IT_number 136
_symmetry_cell_setting 'tetragonal'
loop_
_space_group_symop_operation_xyz
x,y,z
1/2-y,1/2+x,1/2+z
-x,-y,z
1/2+y,1/2-x,1/2+z
1/2+x,1/2-y,1/2-z
1/2-x,1/2+y,1/2-z
y,x,-z
-y,-x,-z
-x,-y,-z
1/2+y,1/2-x,1/2-z
x,y,-z
1/2-y,1/2+x,1/2-z
1/2-x,1/2+y,1/2+z
1/2+x,1/2-y,1/2+z
-y,-x,z
y,x,z
loop_
_atom_site_type_symbol
_atom_site_label
_atom_site_fract_x
_atom_site_fract_y
_atom_site_fract_z
Si Si1 0.699268 0.442790 0.381443
Si Si2 0.029347 0.829368 0.226365
Si Si3 0.388875 0.249640 0.560329
Si Si4 0.703905 0.159297 0.272618
Si Si5 0.768802 0.902784 0.694313
Si Si6 0.608638 0.924406 0.378194
Si Si7 0.108715 0.581872 0.360781
O O1 0.627224 0.372777 0.395456
O O2 0.683533 0.471135 0.323041
O O3 0.701680 0.529811 0.414384
O O4 0.796922 0.406795 0.384699
O O5 0.083132 0.916869 0.221395
O O6 0.097548 0.751466 0.232577
O O7 0.978224 0.823046 0.279181
O O8 0.397753 0.249631 0.500000
O O9 0.303178 0.303178 0.574359
O O10 0.386024 0.152102 0.581204
O O11 0.779530 0.220471 0.295592
O O12 0.641084 0.221039 0.241844
O O13 0.646293 0.108850 0.313092
O O14 0.833706 0.833706 0.671151
O O15 0.693749 0.923894 0.655641
O O16 0.520037 0.901492 0.347641
O O17 0.599198 0.024253 0.394772
#
# Coordination Sequence:
#
# PCOD9569281 Si02
#       7
#    16  16  16  16  16  16  16
#     4  11  22  38  57  80 115 154 191 233 286 344
#     4  11  22  34  50  76 111 150 192 230 271 327
#     4  10  22  41  64  88 112 142 187 241 292 345
#     4  10  19  32  48  70 105 147 183 224 265 310
#     4  11  21  32  48  73 107 147 189 225 269 326
#     4  10  21  35  55  79 109 141 181 231 287 333
#     4  10  19  34  52  78 107 139 185 225 271 326
#
# _framework density 17.618690000000001
#
# number of rings (size 3 to 8) (size 9 to 14) (size 15 to 20)
#    0.000    1.571    2.857    3.429    0.000    3.429 
#    0.000    7.857    0.000    0.000    0.000    0.000 
#    0.000    1.714    0.000   15.857    0.000    0.000 
#
# Total GULP energy -624292.853194 kJ/mol
# GULP energy per Si atom -5574.043332 kJ/mol
# Density = 1.757859 g / cm^3
# Si number density = 17.618690 Si / 1000 Ang^3
#
#
#
# Elastic Constant Matrix: (Units=GPa)
#
#
# Indices 1 2 3 4 5 6 
#
# 1 67.7688 68.6765 26.3820 0.0000 0.0000 0.0000
# 2 68.6765 67.7688 26.3820 0.0000 0.0000 0.0000
# 3 26.3820 26.3820 42.6440 0.0000 0.0000 0.0000
# 4 0.0000 0.0000 0.0000 13.7537 0.0000 0.0000
# 5 0.0000 0.0000 0.0000 0.0000 13.7537 0.0000
# 6 0.0000 0.0000 0.0000 0.0000 0.0000 29.0841
#
#
#
# Elastic Compliance Matrix: (Units=1/GPa)
#
#
# Indices 1 2 3 4 5 6 
#
# 1 -0.546000 0.555634 -0.005960 0.000000 0.000000 0.000000
# 2 0.555634 -0.546000 -0.005960 0.000000 0.000000 0.000000
# 3 -0.005960 -0.005960 0.030824 0.000000 0.000000 0.000000
# 4 0.000000 0.000000 0.000000 0.072707 0.000000 0.000000
# 5 0.000000 0.000000 0.000000 0.000000 0.072707 0.000000
# 6 0.000000 0.000000 0.000000 0.000000 0.000000 0.034383
#
#
# Mechanical properties :
#
#
# Convention : Reuss Voigt Hill
#
# Bulk Modulus (GPa) = 38.09256 46.78476 42.43866
# Shear Modulus (GPa) = -2.55095 15.10106 6.27506
#
# Velocity S-wave (km/s) = -1.20458 2.93081 1.88927
# Velocity P-wave (km/s) = 4.44216 6.16965 5.37575
#
# Compressibility (1/GPa) = 0.02625184
#
# Stress axis : x y z
#
# Youngs Moduli (GPa) = -1.83150 -1.83150 32.44199
#
# Poissons Ratio (x) = 1.01764 0.19335
# Poissons Ratio (y) = 1.01764 0.19335
# Poissons Ratio (z) = -0.01092 -0.01092
#
# Static dielectric constant tensor:
#      x y z
#    x 1.652020 0.000000 0.000000 
#    y 0.000000 1.652020 0.000000 
#    z 0.000000 0.000000 1.556990 
# 
# From -- ./inp_files/9194.got.cif
#   From: 2010.05.17/outbox.cif.g08.bks.cpg/sg136_5_cif.got.tgz:9194.got - 2010.05.20 12:54:53.
