data_PCOD9569914
_publ_section_title
;
Structure prediction by ZEFSAII (Michael W. Deem and Ramdas Pophale) SiO2 
 PCOD9569914
Probable space group: P 42/M N M
;
_chemical_formula_sum "Si O2"
_cell_formula_units_Z 96
_cell_length_a 24.000000
_cell_length_b 24.000000
_cell_length_c 9.000000
_cell_angle_alpha 90.000000
_cell_angle_beta 90.000000
_cell_angle_gamma 90.000000
_cell_volume 5184.000000
_symmetry_space_group_name_H-M "P 42/M N M"
_symmetry_group_IT_number 136
_symmetry_cell_setting 'tetragonal'
loop_
_space_group_symop_operation_xyz
x,y,z
1/2-y,1/2+x,1/2+z
-x,-y,z
1/2+y,1/2-x,1/2+z
1/2+x,1/2-y,1/2-z
1/2-x,1/2+y,1/2-z
y,x,-z
-y,-x,-z
-x,-y,-z
1/2+y,1/2-x,1/2-z
x,y,-z
1/2-y,1/2+x,1/2-z
1/2-x,1/2+y,1/2+z
1/2+x,1/2-y,1/2+z
-y,-x,z
y,x,z
loop_
_atom_site_type_symbol
_atom_site_label
_atom_site_fract_x
_atom_site_fract_y
_atom_site_fract_z
Si Si1 0.744838 0.744838 0.827529
Si Si2 0.339248 0.339248 0.678653
Si Si3 0.925415 0.630865 0.673705
Si Si4 0.150509 0.063569 0.676915
Si Si5 0.708747 0.541712 0.320252
Si Si6 0.641086 0.243387 0.170381
Si Si7 0.338452 0.962640 0.178739
O O1 0.705073 0.705073 0.735166
O O2 0.734207 0.808344 0.780571
O O3 0.735916 0.735916 0.000000
O O4 0.339199 0.339199 0.500000
O O5 0.400333 0.319481 0.727260
O O6 0.936989 0.618413 0.500000
O O7 0.902041 0.693292 0.682889
O O8 0.876325 0.589716 0.725364
O O9 0.982024 0.630920 0.765169
O O10 0.146877 0.052827 0.500000
O O11 0.092872 0.092872 0.725636
O O12 0.199143 0.109370 0.697510
O O13 0.172153 0.009019 0.759038
O O14 0.709157 0.539390 0.500000
O O15 0.773757 0.539264 0.269913
O O16 0.662330 0.243535 0.000000
O O17 0.336309 0.962209 0.000000
#
# Coordination Sequence:
#
# PCOD9569914 Si02
#       7
#     8   8  16  16  16  16  16
#     4  12  24  34  54  91 123 147 187 249 300 340
#     4  10  22  42  63  83 116 163 201 233 294 368
#     4  10  21  37  57  79 107 152 197 234 286 349
#     4  10  20  36  60  88 116 151 190 231 288 352
#     4  10  21  39  63  87 114 151 194 245 294 345
#     4  10  19  36  58  79 112 154 191 229 287 364
#     4  10  21  36  55  82 113 144 189 245 292 334
#
# _framework density 18.518519000000001
#
# number of rings (size 3 to 8) (size 9 to 14) (size 15 to 20)
#    0.000    1.833    2.500    1.750    0.000    6.000 
#    0.000    3.750    0.000    2.500    0.000    0.000 
#    0.000    0.000    0.000    0.000    0.000    0.000 
#
# Total GULP energy -535674.189690 kJ/mol
# GULP energy per Si atom -5579.939476 kJ/mol
# Density = 1.847637 g / cm^3
# Si number density = 18.518519 Si / 1000 Ang^3
#
#
#
# Elastic Constant Matrix: (Units=GPa)
#
#
# Indices 1 2 3 4 5 6 
#
# 1 92.5476 25.5371 22.1812 0.0000 0.0000 0.0000
# 2 25.5371 92.5476 22.1812 0.0000 0.0000 0.0000
# 3 22.1812 22.1812 -4.9330 0.0000 0.0000 0.0000
# 4 0.0000 0.0000 0.0000 28.2424 0.0000 0.0000
# 5 0.0000 0.0000 0.0000 0.0000 28.2424 0.0000
# 6 0.0000 0.0000 0.0000 0.0000 0.0000 27.1114
#
#
#
# Elastic Compliance Matrix: (Units=1/GPa)
#
#
# Indices 1 2 3 4 5 6 
#
# 1 0.009036 -0.005887 0.014160 0.000000 0.000000 0.000000
# 2 -0.005887 0.009036 0.014160 0.000000 0.000000 0.000000
# 3 0.014160 0.014160 -0.075380 0.000000 0.000000 0.000000
# 4 0.000000 0.000000 0.000000 0.035408 0.000000 0.000000
# 5 0.000000 0.000000 0.000000 0.000000 0.035408 0.000000
# 6 0.000000 0.000000 0.000000 0.000000 0.000000 0.036885
#
#
# Mechanical properties :
#
#
# Convention : Reuss Voigt Hill
#
# Bulk Modulus (GPa) = -80.35855 35.55123 -22.40366
# Shear Modulus (GPa) = 3624.30794 24.07011 1824.18902
#
# Velocity S-wave (km/s) = 44.28741 3.60917 31.41975
# Velocity P-wave (km/s) = 50.71172 6.05041 36.11292
#
# Compressibility (1/GPa) = -0.01244423
#
# Stress axis : x y z
#
# Youngs Moduli (GPa) = 110.66824 110.66824 -13.26604
#
# Poissons Ratio (x) = 0.65151 0.18784
# Poissons Ratio (y) = 0.65151 0.18784
# Poissons Ratio (z) = -1.56701 -1.56701
#
# Static dielectric constant tensor:
#      x y z
#    x 1.633470 0.000000 0.000000 
#    y 0.000000 1.633470 0.000000 
#    z 0.000000 0.000000 1.630010 
# 
# From -- ./inp_files/2088.got.cif
#   From: 2010.05.17/outbox.ucp.g08.bks.cvg/sg136_2_cif.got.tgz:2088.got - 2010.06.11 11:40:42.
