data_PCOD9569857
_publ_section_title
;
Structure prediction by ZEFSAII (Michael W. Deem and Ramdas Pophale) SiO2 
 PCOD9569857
Probable space group: P 42/M N M
;
_chemical_formula_sum "Si O2"
_cell_formula_units_Z 56
_cell_length_a 13.572791
_cell_length_b 13.572791
_cell_length_c 13.888785
_cell_angle_alpha 90.000000
_cell_angle_beta 90.000000
_cell_angle_gamma 90.000000
_cell_volume 2558.601077
_symmetry_space_group_name_H-M "P 42/M N M"
_symmetry_group_IT_number 136
_symmetry_cell_setting 'tetragonal'
loop_
_space_group_symop_operation_xyz
x,y,z
1/2-y,1/2+x,1/2+z
-x,-y,z
1/2+y,1/2-x,1/2+z
1/2+x,1/2-y,1/2-z
1/2-x,1/2+y,1/2-z
y,x,-z
-y,-x,-z
-x,-y,-z
1/2+y,1/2-x,1/2-z
x,y,-z
1/2-y,1/2+x,1/2-z
1/2-x,1/2+y,1/2+z
1/2+x,1/2-y,1/2+z
-y,-x,z
y,x,z
loop_
_atom_site_type_symbol
_atom_site_label
_atom_site_fract_x
_atom_site_fract_y
_atom_site_fract_z
Si Si1 0.508407 0.339768 0.389109
Si Si2 0.424262 0.575739 0.884702
Si Si3 0.488531 0.799082 0.885252
Si Si4 0.131127 0.700338 0.774008
O O1 0.522480 0.308240 0.500000
O O2 0.609398 0.390603 0.353808
O O3 0.426335 0.426335 0.391283
O O4 0.459570 0.256661 0.325387
O O5 0.500000 0.500000 0.837308
O O6 0.458592 0.685528 0.865583
O O7 0.431344 0.568657 0.000000
O O8 0.592963 0.818314 0.834084
O O9 0.399992 0.855488 0.832690
O O10 0.490160 0.815755 0.000000
O O11 0.226680 0.773321 0.778193
#
# Coordination Sequence:
#
# PCOD9569857 Si02
#       4
#    16   8  16  16
#     4   8  15  29  52  85 124 165 212 270 337 409
#     4   9  18  36  66 102 134 168 217 280 346 408
#     4  11  24  43  68  98 136 182 232 289 358 429
#     4  11  23  40  66  98 137 182 233 293 359 434
#
# _framework density 21.886959000000001
#
# number of rings (size 3 to 8) (size 9 to 14) (size 15 to 20)
#    0.000    2.143    1.429    2.571    2.000    3.429 
#    0.000    4.286    0.000    0.000    0.000    0.000 
#    0.000    0.000    0.000    0.000    0.000    0.000 
#
# Total GULP energy -312857.473771 kJ/mol
# GULP energy per Si atom -5586.740603 kJ/mol
# Density = 2.183714 g / cm^3
# Si number density = 21.886959 Si / 1000 Ang^3
#
#
#
# Elastic Constant Matrix: (Units=GPa)
#
#
# Indices 1 2 3 4 5 6 
#
# 1 33.9297 25.9646 34.1875 0.0000 0.0000 0.0000
# 2 25.9646 33.9298 34.1864 0.0000 0.0000 0.0000
# 3 34.1875 34.1864 130.7760 0.0000 0.0000 0.0000
# 4 0.0000 0.0000 0.0000 26.2390 0.0000 0.0000
# 5 0.0000 0.0000 0.0000 0.0000 26.2386 0.0000
# 6 0.0000 0.0000 0.0000 0.0000 0.0000 35.8025
#
#
#
# Elastic Compliance Matrix: (Units=1/GPa)
#
#
# Indices 1 2 3 4 5 6 
#
# 1 0.074674 -0.050875 -0.006222 0.000000 0.000000 0.000000
# 2 -0.050875 0.074672 -0.006220 0.000000 0.000000 0.000000
# 3 -0.006222 -0.006220 0.010899 0.000000 0.000000 0.000000
# 4 0.000000 0.000000 0.000000 0.038111 0.000000 0.000000
# 5 0.000000 0.000000 0.000000 0.000000 0.038112 0.000000
# 6 0.000000 0.000000 0.000000 0.000000 0.000000 0.027931
#
#
# Mechanical properties :
#
#
# Convention : Reuss Voigt Hill
#
# Bulk Modulus (GPa) = 29.75253 43.03474 36.39363
# Shear Modulus (GPa) = 12.43052 24.60915 18.51983
#
# Velocity S-wave (km/s) = 2.38574 3.35681 2.91204
# Velocity P-wave (km/s) = 4.60567 5.89315 5.28873
#
# Compressibility (1/GPa) = 0.03361059
#
# Stress axis : x y z
#
# Youngs Moduli (GPa) = 13.39162 13.39198 91.74895
#
# Poissons Ratio (x) = 0.68131 0.57086
# Poissons Ratio (y) = 0.68129 0.57072
# Poissons Ratio (z) = 0.08332 0.08330
#
# Static dielectric constant tensor:
#      x y z
#    x 1.812550 0.000000 0.000000 
#    y 0.000000 1.812550 0.000000 
#    z 0.000000 0.000000 1.828290 
# 
# From -- ./inp_files/4606.got.cif
#   From: 2010.05.17/outbox.cif.g08.bks.cpg/sg136_3_cif.got.tgz:4606.got - 2010.05.20 12:54:53.
