data_PCOD9569957
_publ_section_title
;
Structure prediction by ZEFSAII (Michael W. Deem and Ramdas Pophale) SiO2 
 PCOD9569957
Probable space group: P 42/N M C
;
_chemical_formula_sum "Si O2"
_cell_formula_units_Z 80
_cell_length_a 14.318716
_cell_length_b 14.318716
_cell_length_c 21.289143
_cell_angle_alpha 90.000000
_cell_angle_beta 90.000000
_cell_angle_gamma 90.000000
_cell_volume 4364.819911
_symmetry_space_group_name_H-M "P 42/N M C"
_symmetry_group_IT_number 137
_space_group.IT_coordinate_system_code '2'
_symmetry_cell_setting 'tetragonal'
loop_
_space_group_symop_operation_xyz
x,y,z
1/2-y,x,1/2+z
1/2-x,1/2-y,z
y,1/2-x,1/2+z
1/2+x,-y,-z
-x,1/2+y,-z
1/2+y,1/2+x,1/2-z
-y,-x,1/2-z
-x,-y,-z
1/2+y,-x,1/2-z
1/2+x,1/2+y,-z
-y,1/2+x,1/2-z
1/2-x,y,z
x,1/2-y,z
1/2-y,1/2-x,1/2+z
y,x,1/2+z
loop_
_atom_site_type_symbol
_atom_site_label
_atom_site_fract_x
_atom_site_fract_y
_atom_site_fract_z
Si Si1 0.467731 0.361633 0.481563
Si Si2 0.963548 0.861921 0.130215
Si Si3 0.143055 0.641260 0.056492
Si Si4 0.358829 0.363435 0.744866
Si Si5 0.358284 0.136684 0.605556
O O1 0.455513 0.250000 0.474660
O O2 0.420747 0.409936 0.422580
O O3 0.575796 0.380563 0.497406
O O4 0.416982 0.393522 0.545784
O O5 0.943870 0.750000 0.122728
O O6 0.926467 0.890778 0.198484
O O7 0.072369 0.875016 0.113848
O O8 0.250000 0.619013 0.074563
O O9 0.137085 0.750000 0.039719
O O10 0.250000 0.390552 0.756176
O O11 0.359082 0.250000 0.743292
O O12 0.387373 0.395910 0.675066
O O13 0.250000 0.111421 0.596835
O O14 0.363077 0.250000 0.606194
#
# Coordination Sequence:
#
# PCOD9569957 Si02
#       5
#    16  16  16  16  16
#     4  10  18  28  46  70  93 115 146 189 229 270
#     4  10  18  28  46  70  93 115 146 189 229 270
#     4   9  19  34  47  60  85 123 160 192 227 267
#     4   8  14  25  41  63  93 123 142 163 213 281
#     4   8  14  25  41  63  93 123 142 163 213 281
#
# _framework density 18.328361000000001
#
# number of rings (size 3 to 8) (size 9 to 14) (size 15 to 20)
#    0.000    3.000    0.000    3.000    0.000    2.000 
#    0.000    1.000    0.000    3.600    0.000   11.200 
#    0.000    1.600    0.000   14.800    0.000    0.400 
#
# Total GULP energy -445816.082790 kJ/mol
# GULP energy per Si atom -5572.701035 kJ/mol
# Density = 1.828665 g / cm^3
# Si number density = 18.328361 Si / 1000 Ang^3
#
#
#
# Elastic Constant Matrix: (Units=GPa)
#
#
# Indices 1 2 3 4 5 6 
#
# 1 49.4800 18.4117 24.4672 0.0000 0.0000 0.0000
# 2 18.4117 49.4800 24.4672 0.0000 0.0000 0.0000
# 3 24.4672 24.4672 84.8930 0.0000 0.0000 0.0000
# 4 0.0000 0.0000 0.0000 7.9354 0.0000 0.0000
# 5 0.0000 0.0000 0.0000 0.0000 7.9354 0.0000
# 6 0.0000 0.0000 0.0000 0.0000 0.0000 11.3588
#
#
#
# Elastic Compliance Matrix: (Units=1/GPa)
#
#
# Indices 1 2 3 4 5 6 
#
# 1 0.025389 -0.006798 -0.005358 0.000000 0.000000 0.000000
# 2 -0.006798 0.025389 -0.005358 0.000000 0.000000 0.000000
# 3 -0.005358 -0.005358 0.014868 0.000000 0.000000 0.000000
# 4 0.000000 0.000000 0.000000 0.126017 0.000000 0.000000
# 5 0.000000 0.000000 0.000000 0.000000 0.126017 0.000000
# 6 0.000000 0.000000 0.000000 0.000000 0.000000 0.088037
#
#
# Mechanical properties :
#
#
# Convention : Reuss Voigt Hill
#
# Bulk Modulus (GPa) = 32.66059 35.39391 34.02725
# Shear Modulus (GPa) = 11.08763 13.21306 12.15035
#
# Velocity S-wave (km/s) = 2.46223 2.68789 2.57753
# Velocity P-wave (km/s) = 5.09331 5.38386 5.24060
#
# Compressibility (1/GPa) = 0.03061794
#
# Stress axis : x y z
#
# Youngs Moduli (GPa) = 39.38667 39.38667 67.25765
#
# Poissons Ratio (x) = 0.26774 0.36039
# Poissons Ratio (y) = 0.26774 0.36039
# Poissons Ratio (z) = 0.21105 0.21105
#
# Static dielectric constant tensor:
#      x y z
#    x 1.663060 0.000000 0.000000 
#    y 0.000000 1.663060 0.000000 
#    z 0.000000 0.000000 1.611920 
# 
# From -- ./inp_files/7589.got.cif
#   From: 2010.05.17/outbox.cif.g08.bks.cpg/sg137_4_cif.got.tgz:7589.got - 2010.05.20 13:01:12.
