data_PCOD9569765
_publ_section_title
;
Structure prediction by ZEFSAII (Michael W. Deem and Ramdas Pophale) SiO2 
 PCOD9569765
Probable space group: P 42/M N M
;
_chemical_formula_sum "Si O2"
_cell_formula_units_Z 104
_cell_length_a 14.194116
_cell_length_b 14.194116
_cell_length_c 21.874276
_cell_angle_alpha 90.000000
_cell_angle_beta 90.000000
_cell_angle_gamma 90.000000
_cell_volume 4407.074456
_symmetry_space_group_name_H-M "P 42/M N M"
_symmetry_group_IT_number 136
_symmetry_cell_setting 'tetragonal'
loop_
_space_group_symop_operation_xyz
x,y,z
1/2-y,1/2+x,1/2+z
-x,-y,z
1/2+y,1/2-x,1/2+z
1/2+x,1/2-y,1/2-z
1/2-x,1/2+y,1/2-z
y,x,-z
-y,-x,-z
-x,-y,-z
1/2+y,1/2-x,1/2-z
x,y,-z
1/2-y,1/2+x,1/2-z
1/2-x,1/2+y,1/2+z
1/2+x,1/2-y,1/2+z
-y,-x,z
y,x,z
loop_
_atom_site_type_symbol
_atom_site_label
_atom_site_fract_x
_atom_site_fract_y
_atom_site_fract_z
Si Si1 0.670174 0.112677 0.202508
Si Si2 0.591645 0.269471 0.572748
Si Si3 0.346916 0.507006 0.108238
Si Si4 0.377504 0.224203 0.569733
Si Si5 0.155913 0.427901 0.931360
Si Si6 0.500000 0.000000 0.339511
Si Si7 0.557741 0.288609 0.753764
O O1 0.679073 0.156533 0.133572
O O2 0.587122 0.037237 0.197954
O O3 0.631471 0.199325 0.243926
O O4 0.756964 0.043332 0.222964
O O5 0.588957 0.280142 0.500000
O O6 0.635689 0.364312 0.598850
O O7 0.486135 0.240978 0.586711
O O8 0.659455 0.182049 0.586087
O O9 0.400417 0.599584 0.084288
O O10 0.423040 0.423040 0.108579
O O11 0.256349 0.475885 0.071109
O O12 0.313194 0.527804 0.176997
O O13 0.371550 0.181004 0.500000
O O14 0.321363 0.321363 0.564919
O O15 0.085446 0.472602 0.883584
O O16 0.116367 0.433263 0.000000
O O17 0.619967 0.380034 0.732902
#
# Coordination Sequence:
#
# PCOD9569765 Si02
#       7
#    16  16  16  16  16   8  16
#     4  12  24  45  71 100 135 181 228 288 349 417
#     4   9  18  33  54  85 126 170 214 259 312 383
#     4  10  23  45  70  99 138 181 230 291 355 422
#     4  10  22  40  63  95 134 174 217 271 337 409
#     4  11  22  39  65  97 136 180 226 278 341 409
#     4  12  23  41  64 100 132 172 228 284 344 408
#     4  11  26  47  71 102 136 179 237 293 352 420
#
# _framework density 23.598423
#
# number of rings (size 3 to 8) (size 9 to 14) (size 15 to 20)
#    0.000    1.385    3.077    2.077    0.000    4.000 
#    0.000    2.308    0.000    0.000    0.000    0.000 
#    0.000    0.000    0.000    0.000    0.000    0.000 
#
# Total GULP energy -580338.787756 kJ/mol
# GULP energy per Si atom -5580.180652 kJ/mol
# Density = 2.354471 g / cm^3
# Si number density = 23.598423 Si / 1000 Ang^3
#
#
#
# Elastic Constant Matrix: (Units=GPa)
#
#
# Indices 1 2 3 4 5 6 
#
# 1 30.2525 17.3850 -9.5178 0.0000 0.0000 0.0000
# 2 17.3850 30.2525 -9.5178 0.0000 0.0000 0.0000
# 3 -9.5178 -9.5178 67.5057 0.0000 0.0000 0.0000
# 4 0.0000 0.0000 0.0000 25.0893 0.0000 0.0000
# 5 0.0000 0.0000 0.0000 0.0000 25.0893 0.0000
# 6 0.0000 0.0000 0.0000 0.0000 0.0000 45.2108
#
#
#
# Elastic Compliance Matrix: (Units=1/GPa)
#
#
# Indices 1 2 3 4 5 6 
#
# 1 0.049980 -0.027735 0.003136 0.000000 0.000000 0.000000
# 2 -0.027735 0.049980 0.003136 0.000000 0.000000 0.000000
# 3 0.003136 0.003136 0.015698 0.000000 0.000000 0.000000
# 4 0.000000 0.000000 0.000000 0.039858 0.000000 0.000000
# 5 0.000000 0.000000 0.000000 0.000000 0.039858 0.000000
# 6 0.000000 0.000000 0.000000 0.000000 0.000000 0.022119
#
#
# Mechanical properties :
#
#
# Convention : Reuss Voigt Hill
#
# Bulk Modulus (GPa) = 13.74876 13.85662 13.80269
# Shear Modulus (GPa) = 17.56470 27.72195 22.64332
#
# Velocity S-wave (km/s) = 2.73118 3.43116 3.10098
# Velocity P-wave (km/s) = 3.97298 4.64562 4.32240
#
# Compressibility (1/GPa) = 0.07273384
#
# Stress axis : x y z
#
# Youngs Moduli (GPa) = 20.00789 20.00789 63.70248
#
# Poissons Ratio (x) = 0.55492 -0.19980
# Poissons Ratio (y) = 0.55492 -0.19980
# Poissons Ratio (z) = -0.06275 -0.06275
#
# Static dielectric constant tensor:
#      x y z
#    x 1.918670 0.000000 0.000000 
#    y 0.000000 1.918670 0.000000 
#    z 0.000000 0.000000 1.911410 
# 
# From -- ./inp_files/8486.got.cif
#   From: 2010.05.17/outbox.cif.g08.bks.cpg/sg136_5_cif.got.tgz:8486.got - 2010.05.20 12:54:53.
