data_PCOD9569628
_publ_section_title
;
Structure prediction by ZEFSAII (Michael W. Deem and Ramdas Pophale) SiO2 
 PCOD9569628
Probable space group: P 42/M N M
;
_chemical_formula_sum "Si O2"
_cell_formula_units_Z 96
_cell_length_a 17.742998
_cell_length_b 17.742998
_cell_length_c 17.853546
_cell_angle_alpha 90.000000
_cell_angle_beta 90.000000
_cell_angle_gamma 90.000000
_cell_volume 5620.545838
_symmetry_space_group_name_H-M "P 42/M N M"
_symmetry_group_IT_number 136
_symmetry_cell_setting 'tetragonal'
loop_
_space_group_symop_operation_xyz
x,y,z
1/2-y,1/2+x,1/2+z
-x,-y,z
1/2+y,1/2-x,1/2+z
1/2+x,1/2-y,1/2-z
1/2-x,1/2+y,1/2-z
y,x,-z
-y,-x,-z
-x,-y,-z
1/2+y,1/2-x,1/2-z
x,y,-z
1/2-y,1/2+x,1/2-z
1/2-x,1/2+y,1/2+z
1/2+x,1/2-y,1/2+z
-y,-x,z
y,x,z
loop_
_atom_site_type_symbol
_atom_site_label
_atom_site_fract_x
_atom_site_fract_y
_atom_site_fract_z
Si Si1 0.218360 0.909147 0.084452
Si Si2 0.789442 0.333717 0.659333
Si Si3 0.686348 0.441750 0.141705
Si Si4 0.161910 0.040571 0.810595
Si Si5 0.550111 0.673516 0.000000
Si Si6 0.698536 0.177287 0.500000
Si Si7 0.178138 0.308647 0.677193
O O1 0.159753 0.840248 0.079877
O O2 0.291749 0.874842 0.124829
O O3 0.179481 0.972225 0.135144
O O4 0.233684 0.935971 0.000000
O O5 0.747251 0.252750 0.655605
O O6 0.724808 0.395829 0.672158
O O7 0.827391 0.345167 0.578820
O O8 0.835197 0.333466 0.736955
O O9 0.621216 0.378785 0.131796
O O10 0.671172 0.478962 0.222870
O O11 0.682582 0.499186 0.073666
O O12 0.764834 0.395559 0.147659
O O13 0.081600 0.081600 0.821759
O O14 0.593988 0.593988 0.000000
O O15 0.613534 0.737941 0.000000
O O16 0.741123 0.258878 0.500000
O O17 0.243174 0.243174 0.679806
#
# Coordination Sequence:
#
# PCOD9569628 Si02
#       7
#    16  16  16  16   8   8  16
#     4  10  21  32  47  74 101 130 168 207 251 295
#     4   8  15  30  50  70  92 124 164 206 253 298
#     4   9  19  35  52  71 100 139 175 202 239 297
#     4   9  19  34  51  72  99 134 170 205 254 308
#     4  11  23  32  47  79 112 136 164 201 251 314
#     4   9  18  29  46  74 101 125 156 203 256 298
#     4   8  16  32  52  69  91 126 172 218 245 277
#
# _framework density 17.080192
#
# number of rings (size 3 to 8) (size 9 to 14) (size 15 to 20)
#    0.000    3.000    0.000    2.250    4.667    2.000 
#    0.000    2.500    0.000    0.000    0.000    2.333 
#    0.000    0.000    0.000    0.000    0.000    0.000 
#
# Total GULP energy -534528.336616 kJ/mol
# GULP energy per Si atom -5568.003506 kJ/mol
# Density = 1.704132 g / cm^3
# Si number density = 17.080192 Si / 1000 Ang^3
#
#
#
# Elastic Constant Matrix: (Units=GPa)
#
#
# Indices 1 2 3 4 5 6 
#
# 1 5.7883 37.3533 51.8770 0.0000 0.0000 0.0000
# 2 37.3533 5.7887 51.8778 0.0000 0.0000 0.0000
# 3 51.8770 51.8778 181.6828 0.0000 0.0000 0.0000
# 4 0.0000 0.0000 0.0000 22.8590 0.0000 0.0000
# 5 0.0000 0.0000 0.0000 0.0000 22.8590 0.0000
# 6 0.0000 0.0000 0.0000 0.0000 0.0000 14.2250
#
#
#
# Elastic Compliance Matrix: (Units=1/GPa)
#
#
# Indices 1 2 3 4 5 6 
#
# 1 0.021154 0.052834 -0.021126 0.000000 0.000000 0.000000
# 2 0.052834 0.021153 -0.021126 0.000000 0.000000 0.000000
# 3 -0.021126 -0.021126 0.017569 0.000000 0.000000 0.000000
# 4 0.000000 0.000000 0.000000 0.043746 0.000000 0.000000
# 5 0.000000 0.000000 0.000000 0.000000 0.043746 0.000000
# 6 0.000000 0.000000 0.000000 0.000000 0.000000 0.070299
#
#
# Mechanical properties :
#
#
# Convention : Reuss Voigt Hill
#
# Bulk Modulus (GPa) = 12.33976 52.83066 32.58521
# Shear Modulus (GPa) = 22.36967 15.46539 18.91753
#
# Velocity S-wave (km/s) = 3.62288 3.01235 3.33163
# Velocity P-wave (km/s) = 4.97400 6.56484 5.82399
#
# Compressibility (1/GPa) = 0.08103884
#
# Stress axis : x y z
#
# Youngs Moduli (GPa) = 47.27348 47.27399 56.91896
#
# Poissons Ratio (x) = -2.49768 1.20249
# Poissons Ratio (y) = -2.49766 1.20248
# Poissons Ratio (z) = 0.99872 0.99872
#
# Static dielectric constant tensor:
#      x y z
#    x 1.568430 0.000000 0.000000 
#    y 0.000000 1.568430 0.000000 
#    z 0.000000 0.000000 1.620120 
# 
# From -- ./inp_files/6351.got.cif
#   From: 2010.05.17/outbox.cif.g08.bks.cpg/sg136_4_cif.got.tgz:6351.got - 2010.05.20 12:54:53.
