data_PCOD9569148
_publ_section_title
;
Structure prediction by ZEFSAII (Michael W. Deem and Ramdas Pophale) SiO2 
 PCOD9569148
Probable space group: P 42/M N M
;
_chemical_formula_sum "Si O2"
_cell_formula_units_Z 80
_cell_length_a 14.294378
_cell_length_b 14.294378
_cell_length_c 19.614955
_cell_angle_alpha 90.000000
_cell_angle_beta 90.000000
_cell_angle_gamma 90.000000
_cell_volume 4007.908895
_symmetry_space_group_name_H-M "P 42/M N M"
_symmetry_group_IT_number 136
_symmetry_cell_setting 'tetragonal'
loop_
_space_group_symop_operation_xyz
x,y,z
1/2-y,1/2+x,1/2+z
-x,-y,z
1/2+y,1/2-x,1/2+z
1/2+x,1/2-y,1/2-z
1/2-x,1/2+y,1/2-z
y,x,-z
-y,-x,-z
-x,-y,-z
1/2+y,1/2-x,1/2-z
x,y,-z
1/2-y,1/2+x,1/2-z
1/2-x,1/2+y,1/2+z
1/2+x,1/2-y,1/2+z
-y,-x,z
y,x,z
loop_
_atom_site_type_symbol
_atom_site_label
_atom_site_fract_x
_atom_site_fract_y
_atom_site_fract_z
Si Si1 0.776012 0.379292 0.378623
Si Si2 0.004238 0.151726 0.702332
Si Si3 0.421879 0.269651 0.345126
Si Si4 0.921809 0.239401 0.425664
Si Si5 0.613409 0.897192 0.742210
O O1 0.686335 0.313666 0.389223
O O2 0.751327 0.487534 0.391216
O O3 0.863449 0.335361 0.418733
O O4 0.812475 0.371274 0.300341
O O5 0.933143 0.066858 0.687998
O O6 0.967025 0.190719 0.774271
O O7 0.989270 0.219218 0.637886
O O8 0.106797 0.106797 0.708267
O O9 0.345465 0.345465 0.368470
O O10 0.376787 0.171278 0.321846
O O11 0.967410 0.233386 0.500000
O O12 0.840423 0.159578 0.422833
O O13 0.507782 0.882179 0.770148
#
# Coordination Sequence:
#
# PCOD9569148 Si02
#       5
#    16  16  16  16  16
#     4  10  18  29  46  68  99 132 160 197 246 297
#     4   9  16  26  41  64  95 126 157 200 254 307
#     4  10  18  29  46  70 101 129 160 202 251 302
#     4   9  17  29  44  63  92 131 169 201 237 290
#     4   9  17  28  44  67  93 125 155 196 241 295
#
# _framework density 19.960533999999999
#
# number of rings (size 3 to 8) (size 9 to 14) (size 15 to 20)
#    0.000    2.600    2.000    1.200    0.000    1.600 
#    0.000    2.000    0.000    0.600    0.000   14.000 
#    0.000    0.000    0.000    0.000    0.000    0.000 
#
# Total GULP energy -445607.312932 kJ/mol
# GULP energy per Si atom -5570.091412 kJ/mol
# Density = 1.991510 g / cm^3
# Si number density = 19.960534 Si / 1000 Ang^3
#
#
#
# Elastic Constant Matrix: (Units=GPa)
#
#
# Indices 1 2 3 4 5 6 
#
# 1 67.2679 15.5985 -3.3203 0.0000 0.0000 0.0000
# 2 15.5985 67.2679 -3.3203 0.0000 0.0000 0.0000
# 3 -3.3203 -3.3203 19.3329 0.0000 0.0000 0.0000
# 4 0.0000 0.0000 0.0000 10.4084 0.0000 0.0000
# 5 0.0000 0.0000 0.0000 0.0000 10.4084 0.0000
# 6 0.0000 0.0000 0.0000 0.0000 0.0000 31.7429
#
#
#
# Elastic Compliance Matrix: (Units=1/GPa)
#
#
# Indices 1 2 3 4 5 6 
#
# 1 0.015795 -0.003559 0.002101 0.000000 0.000000 0.000000
# 2 -0.003559 0.015795 0.002101 0.000000 0.000000 0.000000
# 3 0.002101 0.002101 0.052447 0.000000 0.000000 0.000000
# 4 0.000000 0.000000 0.000000 0.096076 0.000000 0.000000
# 5 0.000000 0.000000 0.000000 0.000000 0.096076 0.000000
# 6 0.000000 0.000000 0.000000 0.000000 0.000000 0.031503
#
#
# Mechanical properties :
#
#
# Convention : Reuss Voigt Hill
#
# Bulk Modulus (GPa) = 11.71988 19.08716 15.40352
# Shear Modulus (GPa) = 14.93222 20.17265 17.55244
#
# Velocity S-wave (km/s) = 2.73809 3.18248 2.96861
# Velocity P-wave (km/s) = 3.98502 4.80494 4.41406
#
# Compressibility (1/GPa) = 0.08532510
#
# Stress axis : x y z
#
# Youngs Moduli (GPa) = 63.31155 63.31155 19.06678
#
# Poissons Ratio (x) = 0.22532 -0.04007
# Poissons Ratio (y) = 0.22532 -0.04007
# Poissons Ratio (z) = -0.13305 -0.13305
#
# Static dielectric constant tensor:
#      x y z
#    x 1.743850 0.000000 0.000000 
#    y 0.000000 1.743850 0.000000 
#    z 0.000000 0.000000 1.692590 
# 
# From -- ./inp_files/7244.got.cif
#   From: 2010.05.17/outbox.cif.g08.bks.cpg/sg136_4_cif.got.tgz:7244.got - 2010.05.20 12:54:53.
