data_PCOD9569172
_publ_section_title
;
Structure prediction by ZEFSAII (Michael W. Deem and Ramdas Pophale) SiO2 
 PCOD9569172
Probable space group: P 42/M N M
;
_chemical_formula_sum "Si O2"
_cell_formula_units_Z 128
_cell_length_a 20.948993
_cell_length_b 20.948993
_cell_length_c 16.788023
_cell_angle_alpha 90.000000
_cell_angle_beta 90.000000
_cell_angle_gamma 90.000000
_cell_volume 7367.596940
_symmetry_space_group_name_H-M "P 42/M N M"
_symmetry_group_IT_number 136
_symmetry_cell_setting 'tetragonal'
loop_
_space_group_symop_operation_xyz
x,y,z
1/2-y,1/2+x,1/2+z
-x,-y,z
1/2+y,1/2-x,1/2+z
1/2+x,1/2-y,1/2-z
1/2-x,1/2+y,1/2-z
y,x,-z
-y,-x,-z
-x,-y,-z
1/2+y,1/2-x,1/2-z
x,y,-z
1/2-y,1/2+x,1/2-z
1/2-x,1/2+y,1/2+z
1/2+x,1/2-y,1/2+z
-y,-x,z
y,x,z
loop_
_atom_site_type_symbol
_atom_site_label
_atom_site_fract_x
_atom_site_fract_y
_atom_site_fract_z
Si Si1 0.220915 0.321933 0.146372
Si Si2 0.875884 0.578000 0.837192
Si Si3 0.855456 0.433266 0.184960
Si Si4 0.660126 0.235839 0.094800
Si Si5 0.720104 0.378181 0.593675
Si Si6 0.143079 0.759547 0.173982
Si Si7 0.589256 0.012385 0.089931
Si Si8 0.484972 0.240651 0.408617
O O1 0.285049 0.285049 0.112423
O O2 0.180506 0.384015 0.115609
O O3 0.167713 0.266982 0.141356
O O4 0.239185 0.340818 0.236220
O O5 0.898169 0.625939 0.766896
O O6 0.849707 0.509836 0.806493
O O7 0.944240 0.563266 0.879154
O O8 0.793796 0.400380 0.143081
O O9 0.921566 0.422948 0.135793
O O10 0.696960 0.303041 0.116457
O O11 0.712973 0.182142 0.115300
O O12 0.647046 0.237438 0.000000
O O13 0.739453 0.373440 0.500000
O O14 0.650006 0.349995 0.600761
O O15 0.725676 0.450533 0.617048
O O16 0.170251 0.829750 0.161818
O O17 0.070580 0.754351 0.152029
O O18 0.665331 0.002475 0.090686
O O19 0.568420 0.022523 0.000000
O O20 0.468269 0.258962 0.500000
#
# Coordination Sequence:
#
# PCOD9569172 Si02
#       8
#    16  16  16  16  16  16  16  16
#     4  10  20  34  52  74  99 131 170 217 263 304
#     4  12  23  34  51  73 105 146 180 212 260 317
#     4  12  23  35  50  73 107 145 180 217 260 313
#     4  10  20  35  55  76 101 135 176 224 271 311
#     4   9  18  33  53  75  99 129 168 214 259 304
#     4  10  19  31  48  72 101 130 167 212 255 302
#     4  11  22  35  49  71 103 141 181 219 252 303
#     4  10  18  31  51  73  99 130 170 212 254 300
#
# _framework density 17.373372
#
# number of rings (size 3 to 8) (size 9 to 14) (size 15 to 20)
#    0.000    1.500    5.000    1.125    0.000    2.250 
#    0.000    0.000    0.000    0.375    0.000    1.750 
#    0.000    1.500    0.000    1.375    0.000    0.000 
#
# Total GULP energy -712825.908838 kJ/mol
# GULP energy per Si atom -5568.952413 kJ/mol
# Density = 1.733383 g / cm^3
# Si number density = 17.373372 Si / 1000 Ang^3
#
#
#
# Elastic Constant Matrix: (Units=GPa)
#
#
# Indices 1 2 3 4 5 6 
#
# 1 51.7139 32.2525 4.3744 0.0000 0.0000 0.0000
# 2 32.2525 51.7139 4.3744 0.0000 0.0000 0.0000
# 3 4.3744 4.3744 29.7820 0.0000 0.0000 0.0000
# 4 0.0000 0.0000 0.0000 16.6713 0.0000 0.0000
# 5 0.0000 0.0000 0.0000 0.0000 16.6713 0.0000
# 6 0.0000 0.0000 0.0000 0.0000 0.0000 18.2498
#
#
#
# Elastic Compliance Matrix: (Units=1/GPa)
#
#
# Indices 1 2 3 4 5 6 
#
# 1 0.031739 -0.019645 -0.001776 0.000000 0.000000 0.000000
# 2 -0.019645 0.031739 -0.001776 0.000000 0.000000 0.000000
# 3 -0.001776 -0.001776 0.034099 0.000000 0.000000 0.000000
# 4 0.000000 0.000000 0.000000 0.059983 0.000000 0.000000
# 5 0.000000 0.000000 0.000000 0.000000 0.059983 0.000000
# 6 0.000000 0.000000 0.000000 0.000000 0.000000 0.054795
#
#
# Mechanical properties :
#
#
# Convention : Reuss Voigt Hill
#
# Bulk Modulus (GPa) = 19.53787 23.91246 21.72516
# Shear Modulus (GPa) = 14.89003 16.46571 15.67787
#
# Velocity S-wave (km/s) = 2.93074 3.08190 3.00727
# Velocity P-wave (km/s) = 4.76682 5.14373 4.95885
#
# Compressibility (1/GPa) = 0.05118266
#
# Stress axis : x y z
#
# Youngs Moduli (GPa) = 31.50680 31.50680 29.32619
#
# Poissons Ratio (x) = 0.61894 0.05210
# Poissons Ratio (y) = 0.61894 0.05210
# Poissons Ratio (z) = 0.05597 0.05597
#
# Static dielectric constant tensor:
#      x y z
#    x 1.616830 0.000000 0.000000 
#    y 0.000000 1.616830 0.000000 
#    z 0.000000 0.000000 1.665050 
# 
# From -- ./inp_files/6661.got.cif
#   From: 2010.05.17/outbox.cif.g08.bks.cpg/sg136_4_cif.got.tgz:6661.got - 2010.05.20 12:54:53.
