data_PCOD9569481
_publ_section_title
;
Structure prediction by ZEFSAII (Michael W. Deem and Ramdas Pophale) SiO2 
 PCOD9569481
Probable space group: P 42/M N M
;
_chemical_formula_sum "Si O2"
_cell_formula_units_Z 96
_cell_length_a 24.819652
_cell_length_b 24.819652
_cell_length_c 8.175393
_cell_angle_alpha 90.000000
_cell_angle_beta 90.000000
_cell_angle_gamma 90.000000
_cell_volume 5036.165744
_symmetry_space_group_name_H-M "P 42/M N M"
_symmetry_group_IT_number 136
_symmetry_cell_setting 'tetragonal'
loop_
_space_group_symop_operation_xyz
x,y,z
1/2-y,1/2+x,1/2+z
-x,-y,z
1/2+y,1/2-x,1/2+z
1/2+x,1/2-y,1/2-z
1/2-x,1/2+y,1/2-z
y,x,-z
-y,-x,-z
-x,-y,-z
1/2+y,1/2-x,1/2-z
x,y,-z
1/2-y,1/2+x,1/2-z
1/2-x,1/2+y,1/2+z
1/2+x,1/2-y,1/2+z
-y,-x,z
y,x,z
loop_
_atom_site_type_symbol
_atom_site_label
_atom_site_fract_x
_atom_site_fract_y
_atom_site_fract_z
Si Si1 0.738967 0.614560 0.197814
Si Si2 0.997826 0.419102 0.183887
Si Si3 0.447505 0.695631 0.302080
Si Si4 0.010286 0.698727 0.304734
Si Si5 0.325455 0.674546 0.700410
Si Si6 0.737534 0.737534 0.199726
Si Si7 0.949711 0.133191 0.196619
O O1 0.784033 0.570965 0.246122
O O2 0.749219 0.675804 0.250844
O O3 0.682729 0.590320 0.262066
O O4 0.735552 0.614625 0.000000
O O5 0.052118 0.453632 0.203150
O O6 0.006043 0.357480 0.227418
O O7 0.977638 0.424395 0.000000
O O8 0.447312 0.693987 0.500000
O O9 0.471675 0.752687 0.248053
O O10 0.386332 0.687908 0.246767
O O11 0.491024 0.650832 0.243923
O O12 0.009358 0.694043 0.500000
O O13 0.324854 0.675147 0.500000
O O14 0.281362 0.718639 0.754742
O O15 0.738326 0.738326 0.000000
O O16 0.921183 0.078818 0.259017
O O17 0.953049 0.129189 0.000000
#
# Coordination Sequence:
#
# PCOD9569481 Si02
#       7
#    16  16  16  16   8   8  16
#     4   9  17  29  48  73 101 128 166 213 260 316
#     4  11  22  38  58  80 108 142 179 224 270 318
#     4   9  18  33  51  72  99 137 179 217 266 323
#     4  10  20  34  53  80 108 138 176 222 272 327
#     4   9  18  32  50  71 100 138 179 217 258 323
#     4   9  16  28  47  72  97 125 165 214 261 305
#     4   9  16  27  46  71  99 127 160 210 267 316
#
# _framework density 19.062121999999999
#
# number of rings (size 3 to 8) (size 9 to 14) (size 15 to 20)
#    0.000    2.500    0.833    2.500    0.000    2.000 
#    0.000    4.167    0.000    4.500    0.000    0.000 
#    0.000    5.333    0.000    0.000    0.000    0.000 
#
# Total GULP energy -535364.924597 kJ/mol
# GULP energy per Si atom -5576.717965 kJ/mol
# Density = 1.901874 g / cm^3
# Si number density = 19.062122 Si / 1000 Ang^3
#
#
#
# Elastic Constant Matrix: (Units=GPa)
#
#
# Indices 1 2 3 4 5 6 
#
# 1 118.5647 61.5681 6.8102 0.0000 0.0000 0.0000
# 2 61.5681 118.5647 6.8101 0.0000 0.0000 0.0000
# 3 6.8102 6.8101 15.4411 0.0000 0.0000 0.0000
# 4 0.0000 0.0000 0.0000 14.2649 0.0000 0.0000
# 5 0.0000 0.0000 0.0000 0.0000 14.2649 0.0000
# 6 0.0000 0.0000 0.0000 0.0000 0.0000 16.3727
#
#
#
# Elastic Compliance Matrix: (Units=1/GPa)
#
#
# Indices 1 2 3 4 5 6 
#
# 1 0.011644 -0.005901 -0.002533 0.000000 0.000000 0.000000
# 2 -0.005901 0.011644 -0.002533 0.000000 0.000000 0.000000
# 3 -0.002533 -0.002533 0.066997 0.000000 0.000000 0.000000
# 4 0.000000 0.000000 0.000000 0.070102 0.000000 0.000000
# 5 0.000000 0.000000 0.000000 0.000000 0.070102 0.000000
# 6 0.000000 0.000000 0.000000 0.000000 0.000000 0.061077
#
#
# Mechanical properties :
#
#
# Convention : Reuss Voigt Hill
#
# Bulk Modulus (GPa) = 14.63038 44.77190 29.70114
# Shear Modulus (GPa) = 14.86842 20.80597 17.83720
#
# Velocity S-wave (km/s) = 2.79587 3.30734 3.06231
# Velocity P-wave (km/s) = 4.25609 6.17439 5.30271
#
# Compressibility (1/GPa) = 0.06835092
#
# Stress axis : x y z
#
# Youngs Moduli (GPa) = 85.88153 85.88159 14.92615
#
# Poissons Ratio (x) = 0.50678 0.03781
# Poissons Ratio (y) = 0.50678 0.03781
# Poissons Ratio (z) = 0.21753 0.21752
#
# Static dielectric constant tensor:
#      x y z
#    x 1.653620 0.000000 0.000000 
#    y 0.000000 1.653620 0.000000 
#    z 0.000000 0.000000 1.655100 
# 
# From -- ./inp_files/2079.got.cif
#   From: 2010.05.17/outbox.cif.g08.bks.cpg/sg136_2_cif.got.tgz:2079.got - 2010.05.20 12:54:53.
