data_PCOD9569731
_publ_section_title
;
Structure prediction by ZEFSAII (Michael W. Deem and Ramdas Pophale) SiO2 
 PCOD9569731
Probable space group: P 42/M N M
;
_chemical_formula_sum "Si O2"
_cell_formula_units_Z 72
_cell_length_a 20.151682
_cell_length_b 20.151682
_cell_length_c 8.279396
_cell_angle_alpha 90.000000
_cell_angle_beta 90.000000
_cell_angle_gamma 90.000000
_cell_volume 3362.182301
_symmetry_space_group_name_H-M "P 42/M N M"
_symmetry_group_IT_number 136
_symmetry_cell_setting 'tetragonal'
loop_
_space_group_symop_operation_xyz
x,y,z
1/2-y,1/2+x,1/2+z
-x,-y,z
1/2+y,1/2-x,1/2+z
1/2+x,1/2-y,1/2-z
1/2-x,1/2+y,1/2-z
y,x,-z
-y,-x,-z
-x,-y,-z
1/2+y,1/2-x,1/2-z
x,y,-z
1/2-y,1/2+x,1/2-z
1/2-x,1/2+y,1/2+z
1/2+x,1/2-y,1/2+z
-y,-x,z
y,x,z
loop_
_atom_site_type_symbol
_atom_site_label
_atom_site_fract_x
_atom_site_fract_y
_atom_site_fract_z
Si Si1 0.336618 0.336618 0.802926
Si Si2 0.054753 0.054753 0.806392
Si Si3 0.792397 0.405857 0.192025
Si Si4 0.227042 0.227042 0.805251
Si Si5 0.487040 0.310088 0.805349
Si Si6 0.930964 0.429400 0.681299
O O1 0.282059 0.282059 0.756500
O O2 0.411170 0.317934 0.747692
O O3 0.337833 0.337833 0.000000
O O4 0.029685 0.125543 0.743558
O O5 0.057194 0.057194 0.000000
O O6 0.000000 0.000000 0.756669
O O7 0.747049 0.343948 0.236634
O O8 0.755324 0.473035 0.248354
O O9 0.863078 0.394435 0.274679
O O10 0.801968 0.410063 0.000000
O O11 0.224701 0.224701 0.000000
O O12 0.484879 0.307876 0.000000
O O13 0.916506 0.507862 0.700682
O O14 0.952282 0.413236 0.500000
#
# Coordination Sequence:
#
# PCOD9569731 Si02
#       6
#     8   8  16   8  16  16
#     4   9  20  39  63  91 116 157 214 260 306 368
#     4  11  22  35  54  86 125 156 195 252 309 364
#     4  11  24  41  64  95 128 166 211 263 320 383
#     4  11  24  42  64  90 127 173 215 264 325 388
#     4  10  21  39  64  88 116 159 210 255 301 368
#     4  11  23  42  67  96 127 163 209 262 319 379
#
# _framework density 21.414663000000001
#
# number of rings (size 3 to 8) (size 9 to 14) (size 15 to 20)
#    0.000    1.444    1.111    4.667    3.111    4.889 
#    0.000    2.222    0.000    0.000    0.000    0.000 
#    0.000    0.000    0.000    0.000    0.000    0.000 
#
# Total GULP energy -402655.077554 kJ/mol
# GULP energy per Si atom -5592.431633 kJ/mol
# Density = 2.136592 g / cm^3
# Si number density = 21.414663 Si / 1000 Ang^3
#
#
#
# Elastic Constant Matrix: (Units=GPa)
#
#
# Indices 1 2 3 4 5 6 
#
# 1 167.0898 -91.8307 0.3198 0.0000 0.0000 0.0000
# 2 -91.8307 167.0898 0.3198 0.0000 0.0000 0.0000
# 3 0.3198 0.3198 35.1510 0.0000 0.0000 0.0000
# 4 0.0000 0.0000 0.0000 14.4062 0.0000 0.0000
# 5 0.0000 0.0000 0.0000 0.0000 14.4062 0.0000
# 6 0.0000 0.0000 0.0000 0.0000 0.0000 41.3994
#
#
#
# Elastic Compliance Matrix: (Units=1/GPa)
#
#
# Indices 1 2 3 4 5 6 
#
# 1 0.008575 0.004713 -0.000121 0.000000 0.000000 0.000000
# 2 0.004713 0.008575 -0.000121 0.000000 0.000000 0.000000
# 3 -0.000121 -0.000121 0.028451 0.000000 0.000000 0.000000
# 4 0.000000 0.000000 0.000000 0.069415 0.000000 0.000000
# 5 0.000000 0.000000 0.000000 0.000000 0.069415 0.000000
# 6 0.000000 0.000000 0.000000 0.000000 0.000000 0.024155
#
#
# Mechanical properties :
#
#
# Convention : Reuss Voigt Hill
#
# Bulk Modulus (GPa) = 18.33376 20.77207 19.55291
# Shear Modulus (GPa) = 22.95425 44.74380 33.84902
#
# Velocity S-wave (km/s) = 3.27753 4.57595 3.98005
# Velocity P-wave (km/s) = 4.78569 6.13516 5.50195
#
# Compressibility (1/GPa) = 0.05454417
#
# Stress axis : x y z
#
# Youngs Moduli (GPa) = 116.61374 116.61374 35.14828
#
# Poissons Ratio (x) = -0.54962 0.00425
# Poissons Ratio (y) = -0.54962 0.00425
# Poissons Ratio (z) = 0.01410 0.01410
#
# Static dielectric constant tensor:
#      x y z
#    x 1.736550 0.000000 0.000000 
#    y 0.000000 1.736550 0.000000 
#    z 0.000000 0.000000 1.752870 
# 
# From -- ./inp_files/1619.got.cif
#   From: 2010.05.17/outbox.cif.g08.bks.cpg/sg136_1_cif.got.tgz:1619.got - 2010.05.20 12:54:53.
