data_PCOD9569843
_publ_section_title
;
Structure prediction by ZEFSAII (Michael W. Deem and Ramdas Pophale) SiO2 
 PCOD9569843
Probable space group: P 42/M N M
;
_chemical_formula_sum "Si O2"
_cell_formula_units_Z 84
_cell_length_a 11.909287
_cell_length_b 11.909287
_cell_length_c 28.273871
_cell_angle_alpha 90.000000
_cell_angle_beta 90.000000
_cell_angle_gamma 90.000000
_cell_volume 4010.114702
_symmetry_space_group_name_H-M "P 42/M N M"
_symmetry_group_IT_number 136
_symmetry_cell_setting 'tetragonal'
loop_
_space_group_symop_operation_xyz
x,y,z
1/2-y,1/2+x,1/2+z
-x,-y,z
1/2+y,1/2-x,1/2+z
1/2+x,1/2-y,1/2-z
1/2-x,1/2+y,1/2-z
y,x,-z
-y,-x,-z
-x,-y,-z
1/2+y,1/2-x,1/2-z
x,y,-z
1/2-y,1/2+x,1/2-z
1/2-x,1/2+y,1/2+z
1/2+x,1/2-y,1/2+z
-y,-x,z
y,x,z
loop_
_atom_site_type_symbol
_atom_site_label
_atom_site_fract_x
_atom_site_fract_y
_atom_site_fract_z
Si Si1 0.886098 0.424250 0.553130
Si Si2 0.088721 0.272905 0.803108
Si Si3 0.724928 0.092375 0.885013
Si Si4 0.000000 0.000000 0.568171
Si Si5 0.010923 0.242857 0.393641
Si Si6 0.954827 0.227161 0.710854
O O1 0.867194 0.383201 0.500000
O O2 0.789186 0.504662 0.572313
O O3 0.000000 0.500000 0.552467
O O4 0.912202 0.326861 0.590503
O O5 0.176273 0.176273 0.819743
O O6 0.157124 0.388097 0.797620
O O7 0.982387 0.286888 0.837610
O O8 0.046470 0.240679 0.750921
O O9 0.839866 0.160135 0.884126
O O10 0.624500 0.183161 0.891689
O O11 0.138387 0.003191 0.571381
O O12 0.997942 0.194542 0.340915
O O13 0.864881 0.135120 0.727155
#
# Coordination Sequence:
#
# PCOD9569843 Si02
#       6
#    16  16  16   4  16  16
#     4   9  20  41  68  94 128 175 224 277 339 403
#     4  11  25  40  60  92 128 172 224 280 329 389
#     4  11  22  39  65  98 132 175 230 276 327 400
#     4  12  24  40  69 100 140 170 216 286 353 396
#     4  11  22  40  65  95 131 177 219 276 338 405
#     4  11  23  38  59  85 126 173 220 268 333 395
#
# _framework density 20.947032
#
# number of rings (size 3 to 8) (size 9 to 14) (size 15 to 20)
#    0.000    1.333    3.810    1.714    1.333    5.333 
#    0.000    1.429    0.000    0.000    0.000    1.333 
#    0.000    0.000    0.000    0.000    0.000    0.000 
#
# Total GULP energy -468147.554310 kJ/mol
# GULP energy per Si atom -5573.185170 kJ/mol
# Density = 2.089936 g / cm^3
# Si number density = 20.947032 Si / 1000 Ang^3
#
#
#
# Elastic Constant Matrix: (Units=GPa)
#
#
# Indices 1 2 3 4 5 6 
#
# 1 68.5518 45.2919 1.4652 0.0000 0.0000 0.0000
# 2 45.2919 68.5518 1.4652 0.0000 0.0000 0.0000
# 3 1.4652 1.4652 66.6541 0.0000 0.0000 0.0000
# 4 0.0000 0.0000 0.0000 -11.4080 0.0000 0.0000
# 5 0.0000 0.0000 0.0000 0.0000 -11.4080 0.0000
# 6 0.0000 0.0000 0.0000 0.0000 0.0000 25.2643
#
#
#
# Elastic Compliance Matrix: (Units=1/GPa)
#
#
# Indices 1 2 3 4 5 6 
#
# 1 0.025891 -0.017102 -0.000193 0.000000 0.000000 0.000000
# 2 -0.017102 0.025891 -0.000193 0.000000 0.000000 0.000000
# 3 -0.000193 -0.000193 0.015011 0.000000 0.000000 0.000000
# 4 0.000000 0.000000 0.000000 -0.087658 0.000000 0.000000
# 5 0.000000 0.000000 0.000000 0.000000 -0.087658 0.000000
# 6 0.000000 0.000000 0.000000 0.000000 0.000000 0.039581
#
#
# Mechanical properties :
#
#
# Convention : Reuss Voigt Hill
#
# Bulk Modulus (GPa) = 31.43033 33.35583 32.39308
# Shear Modulus (GPa) = -214.04610 10.85869 -101.59370
#
# Velocity S-wave (km/s) = -10.11960 2.27928 -6.97177
# Velocity P-wave (km/s) = 11.02291 4.78386 7.02208
#
# Compressibility (1/GPa) = 0.03181640
#
# Stress axis : x y z
#
# Youngs Moduli (GPa) = 38.62397 38.62397 66.61643
#
# Poissons Ratio (x) = 0.66054 0.01287
# Poissons Ratio (y) = 0.66054 0.01287
# Poissons Ratio (z) = 0.00746 0.00746
#
# Static dielectric constant tensor:
#      x y z
#    x 1.765750 0.000000 0.000000 
#    y 0.000000 1.765750 0.000000 
#    z 0.000000 0.000000 1.764380 
# 
# From -- ./inp_files/9698.got.cif
#   From: 2010.05.17/outbox.cif.g08.bks.cpg/sg136_5_cif.got.tgz:9698.got - 2010.05.20 12:54:53.
