data_PCOD9569936
_publ_section_title
;
Structure prediction by ZEFSAII (Michael W. Deem and Ramdas Pophale) SiO2 
 PCOD9569936
Probable space group: P 42/N M C
;
_chemical_formula_sum "Si O2"
_cell_formula_units_Z 96
_cell_length_a 14.571863
_cell_length_b 14.571863
_cell_length_c 31.620560
_cell_angle_alpha 90.000000
_cell_angle_beta 90.000000
_cell_angle_gamma 90.000000
_cell_volume 6714.284139
_symmetry_space_group_name_H-M "P 42/N M C"
_symmetry_group_IT_number 137
_space_group.IT_coordinate_system_code '2'
_symmetry_cell_setting 'tetragonal'
loop_
_space_group_symop_operation_xyz
x,y,z
1/2-y,x,1/2+z
1/2-x,1/2-y,z
y,1/2-x,1/2+z
1/2+x,-y,-z
-x,1/2+y,-z
1/2+y,1/2+x,1/2-z
-y,-x,1/2-z
-x,-y,-z
1/2+y,-x,1/2-z
1/2+x,1/2+y,-z
-y,1/2+x,1/2-z
1/2-x,y,z
x,1/2-y,z
1/2-y,1/2-x,1/2+z
y,x,1/2+z
loop_
_atom_site_type_symbol
_atom_site_label
_atom_site_fract_x
_atom_site_fract_y
_atom_site_fract_z
Si Si1 0.457577 0.143693 0.079326
Si Si2 0.541602 0.140358 0.711591
Si Si3 0.858039 0.644495 0.831864
Si Si4 0.525022 0.359597 0.543887
Si Si5 0.145431 0.857358 0.960185
Si Si6 0.354917 0.861234 0.375665
O O1 0.437507 0.250000 0.068575
O O2 0.417977 0.128276 0.126217
O O3 0.408730 0.072244 0.048306
O O4 0.566673 0.130136 0.074575
O O5 0.583863 0.083863 0.750000
O O6 0.554162 0.250000 0.718978
O O7 0.434085 0.123237 0.702375
O O8 0.616161 0.094751 0.831867
O O9 0.750000 0.634271 0.843766
O O10 0.871676 0.750000 0.817946
O O11 0.511963 0.250000 0.547981
O O12 0.578824 0.375480 0.500372
O O13 0.587491 0.391308 0.583491
O O14 0.250000 0.875652 0.946073
O O15 0.142201 0.750000 0.973607
O O16 0.250000 0.894085 0.376470
O O17 0.352436 0.750000 0.377602
#
# Coordination Sequence:
#
# PCOD9569936 Si02
#       6
#    16  16  16  16  16  16
#     4  10  18  28  44  64  86 112 147 188 219 250
#     4  10  18  28  43  66  93 116 139 171 212 259
#     4   9  17  30  47  67  91 116 143 177 218 261
#     4  10  17  27  42  62  89 118 145 177 217 262
#     4   9  18  30  43  61  86 117 151 185 219 255
#     4   9  16  25  38  59  88 120 145 165 202 258
#
# _framework density 14.297874999999999
#
# number of rings (size 3 to 8) (size 9 to 14) (size 15 to 20)
#    0.000    2.500    1.667    2.000    0.000    3.833 
#    0.000    0.000    0.000    1.000    0.000    0.000 
#    0.000    0.000    0.000    0.000    0.000    0.000 
#
# Total GULP energy -534641.234776 kJ/mol
# GULP energy per Si atom -5569.179529 kJ/mol
# Density = 1.426533 g / cm^3
# Si number density = 14.297875 Si / 1000 Ang^3
#
#
#
# Elastic Constant Matrix: (Units=GPa)
#
#
# Indices 1 2 3 4 5 6 
#
# 1 73.9360 45.7325 41.3371 0.0000 0.0000 0.0000
# 2 45.7325 73.9360 41.3371 0.0000 0.0000 0.0000
# 3 41.3371 41.3371 56.6127 0.0000 0.0000 0.0000
# 4 0.0000 0.0000 0.0000 20.9045 0.0000 0.0000
# 5 0.0000 0.0000 0.0000 0.0000 20.9045 0.0000
# 6 0.0000 0.0000 0.0000 0.0000 0.0000 17.2689
#
#
#
# Elastic Compliance Matrix: (Units=1/GPa)
#
#
# Indices 1 2 3 4 5 6 
#
# 1 0.026160 -0.009297 -0.012313 0.000000 0.000000 0.000000
# 2 -0.009297 0.026160 -0.012313 0.000000 0.000000 0.000000
# 3 -0.012313 -0.012313 0.035645 0.000000 0.000000 0.000000
# 4 0.000000 0.000000 0.000000 0.047837 0.000000 0.000000
# 5 0.000000 0.000000 0.000000 0.000000 0.047837 0.000000
# 6 0.000000 0.000000 0.000000 0.000000 0.000000 0.057908
#
#
# Mechanical properties :
#
#
# Convention : Reuss Voigt Hill
#
# Bulk Modulus (GPa) = 49.70345 51.25533 50.47939
# Shear Modulus (GPa) = 15.81798 16.88747 16.35273
#
# Velocity S-wave (km/s) = 3.32974 3.44047 3.38556
# Velocity P-wave (km/s) = 7.04423 7.19086 7.11792
#
# Compressibility (1/GPa) = 0.02011933
#
# Stress axis : x y z
#
# Youngs Moduli (GPa) = 38.22672 38.22672 28.05463
#
# Poissons Ratio (x) = 0.35539 0.34543
# Poissons Ratio (y) = 0.35539 0.34543
# Poissons Ratio (z) = 0.47068 0.47068
#
# Static dielectric constant tensor:
#      x y z
#    x 1.481100 0.000000 0.000000 
#    y 0.000000 1.481100 0.000000 
#    z 0.000000 0.000000 1.446560 
# 
# From -- ./inp_files/7809.got.cif
#   From: 2010.05.17/outbox.cif.g08.bks.cpg/sg137_4_cif.got.tgz:7809.got - 2010.05.20 13:01:12.
