data_PCOD9569763
_publ_section_title
;
Structure prediction by ZEFSAII (Michael W. Deem and Ramdas Pophale) SiO2 
 PCOD9569763
Probable space group: P 42/M N M
;
_chemical_formula_sum "Si O2"
_cell_formula_units_Z 96
_cell_length_a 24.157500
_cell_length_b 24.157500
_cell_length_c 9.004563
_cell_angle_alpha 90.000000
_cell_angle_beta 90.000000
_cell_angle_gamma 90.000000
_cell_volume 5254.926154
_symmetry_space_group_name_H-M "P 42/M N M"
_symmetry_group_IT_number 136
_symmetry_cell_setting 'tetragonal'
loop_
_space_group_symop_operation_xyz
x,y,z
1/2-y,1/2+x,1/2+z
-x,-y,z
1/2+y,1/2-x,1/2+z
1/2+x,1/2-y,1/2-z
1/2-x,1/2+y,1/2-z
y,x,-z
-y,-x,-z
-x,-y,-z
1/2+y,1/2-x,1/2-z
x,y,-z
1/2-y,1/2+x,1/2-z
1/2-x,1/2+y,1/2+z
1/2+x,1/2-y,1/2+z
-y,-x,z
y,x,z
loop_
_atom_site_type_symbol
_atom_site_label
_atom_site_fract_x
_atom_site_fract_y
_atom_site_fract_z
Si Si1 0.469712 0.078190 0.678630
Si Si2 0.999109 0.908621 0.822594
Si Si3 0.187952 0.722217 0.676966
Si Si4 0.011914 0.209738 0.676073
Si Si5 0.871205 0.780112 0.175179
Si Si6 0.070258 0.702449 0.823006
O O1 0.471685 0.070744 0.500000
O O2 0.431925 0.030493 0.752096
O O3 0.447292 0.139297 0.711776
O O4 0.944519 0.944519 0.783782
O O5 0.001910 0.851303 0.737380
O O6 0.996985 0.898373 0.000000
O O7 0.051393 0.948608 0.793844
O O8 0.176927 0.724963 0.500000
O O9 0.223133 0.776868 0.717934
O O10 0.228941 0.670227 0.701022
O O11 0.131659 0.714617 0.764611
O O12 0.007107 0.210997 0.500000
O O13 0.074360 0.222380 0.727626
O O14 0.971561 0.254835 0.747549
O O15 0.835443 0.835443 0.203740
O O16 0.886136 0.780272 0.000000
O O17 0.067801 0.709088 0.000000
#
# Coordination Sequence:
#
# PCOD9569763 Si02
#       6
#    16  16  16  16  16  16
#     4  10  22  40  63  89 117 151 193 240 295 353
#     4   9  19  38  63  87 114 153 197 241 294 353
#     4   9  20  40  64  88 115 151 193 238 291 345
#     4  12  25  37  55  86 121 156 195 241 289 340
#     4   9  19  38  63  88 117 154 192 235 290 348
#     4  11  25  41  59  87 119 158 200 240 293 352
#
# _framework density 18.268571999999999
#
# number of rings (size 3 to 8) (size 9 to 14) (size 15 to 20)
#    0.000    2.000    0.000    5.000    2.333    7.333 
#    0.000    2.500    0.000    0.000    0.000    0.000 
#    0.000    0.000    0.000    0.000    0.000    0.000 
#
# Total GULP energy -536424.585010 kJ/mol
# GULP energy per Si atom -5587.756094 kJ/mol
# Density = 1.822699 g / cm^3
# Si number density = 18.268572 Si / 1000 Ang^3
#
#
#
# Elastic Constant Matrix: (Units=GPa)
#
#
# Indices 1 2 3 4 5 6 
#
# 1 158.7408 80.1457 89.7220 0.0000 0.0000 0.0000
# 2 80.1457 158.7408 89.7220 0.0000 0.0000 0.0000
# 3 89.7220 89.7220 97.5556 0.0000 0.0000 0.0000
# 4 0.0000 0.0000 0.0000 53.8589 0.0000 0.0000
# 5 0.0000 0.0000 0.0000 0.0000 53.8589 0.0000
# 6 0.0000 0.0000 0.0000 0.0000 0.0000 11.4669
#
#
#
# Elastic Compliance Matrix: (Units=1/GPa)
#
#
# Indices 1 2 3 4 5 6 
#
# 1 0.013132 0.000409 -0.012453 0.000000 0.000000 0.000000
# 2 0.000409 0.013132 -0.012453 0.000000 0.000000 0.000000
# 3 -0.012453 -0.012453 0.033157 0.000000 0.000000 0.000000
# 4 0.000000 0.000000 0.000000 0.018567 0.000000 0.000000
# 5 0.000000 0.000000 0.000000 0.000000 0.018567 0.000000
# 6 0.000000 0.000000 0.000000 0.000000 0.000000 0.087208
#
#
# Mechanical properties :
#
#
# Convention : Reuss Voigt Hill
#
# Bulk Modulus (GPa) = 95.92157 103.80186 99.86171
# Shear Modulus (GPa) = 21.16540 34.20011 27.68275
#
# Velocity S-wave (km/s) = 3.40747 4.33144 3.89694
# Velocity P-wave (km/s) = 8.25236 9.05309 8.66198
#
# Compressibility (1/GPa) = 0.01042518
#
# Stress axis : x y z
#
# Youngs Moduli (GPa) = 76.14953 76.14953 30.15920
#
# Poissons Ratio (x) = -0.03112 0.37558
# Poissons Ratio (y) = -0.03112 0.37558
# Poissons Ratio (z) = 0.94832 0.94832
#
# Static dielectric constant tensor:
#      x y z
#    x 1.607770 0.000000 0.000000 
#    y 0.000000 1.607770 0.000000 
#    z 0.000000 0.000000 1.604440 
# 
# From -- ./inp_files/1909.got.cif
#   From: 2010.05.17/outbox.cif.g08.bks.cpg/sg136_1_cif.got.tgz:1909.got - 2010.05.20 12:54:53.
