data_PCOD9569733
_publ_section_title
;
Structure prediction by ZEFSAII (Michael W. Deem and Ramdas Pophale) SiO2 
 PCOD9569733
Probable space group: P 42/M N M
;
_chemical_formula_sum "Si O2"
_cell_formula_units_Z 64
_cell_length_a 11.739668
_cell_length_b 11.739668
_cell_length_c 23.622913
_cell_angle_alpha 90.000000
_cell_angle_beta 90.000000
_cell_angle_gamma 90.000000
_cell_volume 3255.705257
_symmetry_space_group_name_H-M "P 42/M N M"
_symmetry_group_IT_number 136
_symmetry_cell_setting 'tetragonal'
loop_
_space_group_symop_operation_xyz
x,y,z
1/2-y,1/2+x,1/2+z
-x,-y,z
1/2+y,1/2-x,1/2+z
1/2+x,1/2-y,1/2-z
1/2-x,1/2+y,1/2-z
y,x,-z
-y,-x,-z
-x,-y,-z
1/2+y,1/2-x,1/2-z
x,y,-z
1/2-y,1/2+x,1/2-z
1/2-x,1/2+y,1/2+z
1/2+x,1/2-y,1/2+z
-y,-x,z
y,x,z
loop_
_atom_site_type_symbol
_atom_site_label
_atom_site_fract_x
_atom_site_fract_y
_atom_site_fract_z
Si Si1 0.997239 0.189972 0.872087
Si Si2 0.080934 0.610805 0.063969
Si Si3 0.728743 0.909430 0.673906
Si Si4 0.654692 0.162956 0.297381
O O1 0.093792 0.093792 0.877937
O O2 0.041897 0.280738 0.825105
O O3 0.984655 0.269870 0.926921
O O4 0.880909 0.119092 0.859246
O O5 0.174731 0.618395 0.113200
O O6 0.000000 0.500000 0.073673
O O7 0.124990 0.602012 0.000000
O O8 0.857164 0.857164 0.675516
O O9 0.670679 0.856079 0.729833
O O10 0.696084 0.040809 0.682533
O O11 0.752689 0.247312 0.316309
#
# Coordination Sequence:
#
# PCOD9569733 Si02
#       4
#    16  16  16  16
#     4  10  21  39  64  93 124 158 199 253 315 371
#     4  11  23  40  61  87 120 161 208 256 303 362
#     4  11  23  38  61  90 121 163 205 249 311 373
#     4  10  22  39  61  93 127 160 203 254 309 375
#
# _framework density 19.657800000000002
#
# number of rings (size 3 to 8) (size 9 to 14) (size 15 to 20)
#    0.000    1.500    2.500    2.250    0.000    6.000 
#    0.000    3.750    0.000    0.750    0.000    1.750 
#    0.000    0.000    0.000    0.000    0.000    0.000 
#
# Total GULP energy -356430.566673 kJ/mol
# GULP energy per Si atom -5569.227604 kJ/mol
# Density = 1.961306 g / cm^3
# Si number density = 19.657800 Si / 1000 Ang^3
#
#
#
# Elastic Constant Matrix: (Units=GPa)
#
#
# Indices 1 2 3 4 5 6 
#
# 1 108.5661 78.1144 39.4782 0.0000 0.0000 0.0000
# 2 78.1144 108.5661 39.4782 0.0000 0.0000 0.0000
# 3 39.4782 39.4782 114.4143 0.0000 0.0000 0.0000
# 4 0.0000 0.0000 0.0000 17.1365 0.0000 0.0000
# 5 0.0000 0.0000 0.0000 0.0000 17.1365 0.0000
# 6 0.0000 0.0000 0.0000 0.0000 0.0000 24.5780
#
#
#
# Elastic Compliance Matrix: (Units=1/GPa)
#
#
# Indices 1 2 3 4 5 6 
#
# 1 0.019555 -0.013283 -0.002164 0.000000 0.000000 0.000000
# 2 -0.013283 0.019555 -0.002164 0.000000 0.000000 0.000000
# 3 -0.002164 -0.002164 0.010234 0.000000 0.000000 0.000000
# 4 0.000000 0.000000 0.000000 0.058355 0.000000 0.000000
# 5 0.000000 0.000000 0.000000 0.000000 0.058355 0.000000
# 6 0.000000 0.000000 0.000000 0.000000 0.000000 0.040687
#
#
# Mechanical properties :
#
#
# Convention : Reuss Voigt Hill
#
# Bulk Modulus (GPa) = 70.81571 71.74313 71.27942
# Shear Modulus (GPa) = 20.26985 23.40192 21.83589
#
# Velocity S-wave (km/s) = 3.21461 3.45405 3.33648
# Velocity P-wave (km/s) = 7.06263 7.24449 7.15414
#
# Compressibility (1/GPa) = 0.01412116
#
# Stress axis : x y z
#
# Youngs Moduli (GPa) = 51.13661 51.13661 97.71708
#
# Poissons Ratio (x) = 0.67927 0.21147
# Poissons Ratio (y) = 0.67927 0.21147
# Poissons Ratio (z) = 0.11067 0.11067
#
# Static dielectric constant tensor:
#      x y z
#    x 1.777720 0.000000 0.000000 
#    y 0.000000 1.777720 0.000000 
#    z 0.000000 0.000000 1.692050 
# 
# From -- ./inp_files/7017.got.cif
#   From: 2010.05.17/outbox.cif.g08.bks.cpg/sg136_4_cif.got.tgz:7017.got - 2010.05.20 12:54:53.
