data_PCOD9569977
_publ_section_title
;
Structure prediction by ZEFSAII (Michael W. Deem and Ramdas Pophale) SiO2 
 PCOD9569977
Probable space group: P 42/N M C
;
_chemical_formula_sum "Si O2"
_cell_formula_units_Z 112
_cell_length_a 15.451231
_cell_length_b 15.451231
_cell_length_c 27.029393
_cell_angle_alpha 90.000000
_cell_angle_beta 90.000000
_cell_angle_gamma 90.000000
_cell_volume 6453.011865
_symmetry_space_group_name_H-M "P 42/N M C"
_symmetry_group_IT_number 137
_space_group.IT_coordinate_system_code '2'
_symmetry_cell_setting 'tetragonal'
loop_
_space_group_symop_operation_xyz
x,y,z
1/2-y,x,1/2+z
1/2-x,1/2-y,z
y,1/2-x,1/2+z
1/2+x,-y,-z
-x,1/2+y,-z
1/2+y,1/2+x,1/2-z
-y,-x,1/2-z
-x,-y,-z
1/2+y,-x,1/2-z
1/2+x,1/2+y,-z
-y,1/2+x,1/2-z
1/2-x,y,z
x,1/2-y,z
1/2-y,1/2-x,1/2+z
y,x,1/2+z
loop_
_atom_site_type_symbol
_atom_site_label
_atom_site_fract_x
_atom_site_fract_y
_atom_site_fract_z
Si Si1 0.045190 0.483588 0.447550
Si Si2 0.354887 0.153102 0.795573
Si Si3 0.495319 0.152094 0.371417
Si Si4 0.348120 0.348090 0.999189
Si Si5 0.598080 0.648630 0.815727
Si Si6 0.390382 0.653158 0.806337
Si Si7 0.151237 0.475186 0.093760
O O1 0.128787 0.425231 0.461260
O O2 0.000000 0.500000 0.500000
O O3 0.991276 0.415194 0.415265
O O4 0.044098 0.574423 0.417855
O O5 0.250000 0.150698 0.796292
O O6 0.383384 0.250000 0.808387
O O7 0.378071 0.131438 0.738836
O O8 0.381732 0.081463 0.835455
O O9 0.475576 0.250000 0.387648
O O10 0.581215 0.153092 0.339320
O O11 0.250000 0.355765 0.978135
O O12 0.358584 0.250000 0.016375
O O13 0.351768 0.411174 0.046293
O O14 0.623892 0.750000 0.824670
O O15 0.493976 0.646561 0.812945
O O16 0.630375 0.583743 0.858219
O O17 0.365998 0.634003 0.750000
O O18 0.363790 0.750000 0.819413
O O19 0.250000 0.509039 0.097418
#
# Coordination Sequence:
#
# PCOD9569977 Si02
#       7
#    16  16  16  16  16  16  16
#     4  10  21  36  52  75 103 135 173 226 279 320
#     4   9  18  31  49  76 107 135 166 209 263 316
#     4  11  21  35  53  74 104 143 181 218 265 322
#     4   9  18  33  54  79 102 130 174 225 278 331
#     4  10  18  30  50  76 106 139 174 214 261 309
#     4  11  21  34  52  76 109 149 184 213 251 315
#     4  10  19  32  52  76 104 139 176 216 266 323
#
# _framework density 17.356237
#
# number of rings (size 3 to 8) (size 9 to 14) (size 15 to 20)
#    0.000    2.000    2.857    1.714    0.000    3.571 
#    0.000    1.429    0.000    0.429    0.000    0.000 
#    0.000    0.000    0.000    0.000    0.000    0.000 
#
# Total GULP energy -624024.386846 kJ/mol
# GULP energy per Si atom -5571.646311 kJ/mol
# Density = 1.731673 g / cm^3
# Si number density = 17.356237 Si / 1000 Ang^3
#
#
#
# Elastic Constant Matrix: (Units=GPa)
#
#
# Indices 1 2 3 4 5 6 
#
# 1 87.1364 21.1199 29.6019 0.0000 0.0000 0.0000
# 2 21.1199 87.1369 29.6011 0.0000 0.0000 0.0000
# 3 29.6019 29.6011 79.5322 0.0000 0.0000 0.0000
# 4 0.0000 0.0000 0.0000 -26.7765 0.0000 0.0000
# 5 0.0000 0.0000 0.0000 0.0000 -26.7727 0.0000
# 6 0.0000 0.0000 0.0000 0.0000 0.0000 16.7164
#
#
#
# Elastic Compliance Matrix: (Units=1/GPa)
#
#
# Indices 1 2 3 4 5 6 
#
# 1 0.013373 -0.001775 -0.004317 0.000000 0.000000 0.000000
# 2 -0.001775 0.013373 -0.004317 0.000000 0.000000 0.000000
# 3 -0.004317 -0.004317 0.015787 0.000000 0.000000 0.000000
# 4 0.000000 0.000000 0.000000 -0.037346 0.000000 0.000000
# 5 0.000000 0.000000 0.000000 0.000000 -0.037351 0.000000
# 6 0.000000 0.000000 0.000000 0.000000 0.000000 0.059821
#
#
# Mechanical properties :
#
#
# Convention : Reuss Voigt Hill
#
# Bulk Modulus (GPa) = 46.04900 46.05015 46.04957
# Shear Modulus (GPa) = 89.74809 4.19896 46.97352
#
# Velocity S-wave (km/s) = 7.19873 1.55709 5.20798
# Velocity P-wave (km/s) = 9.78186 5.46101 7.92173
#
# Compressibility (1/GPa) = 0.02171600
#
# Stress axis : x y z
#
# Youngs Moduli (GPa) = 74.77785 74.77888 63.34379
#
# Poissons Ratio (x) = 0.13272 0.27344
# Poissons Ratio (y) = 0.13272 0.27343
# Poissons Ratio (z) = 0.32280 0.32279
#
# Static dielectric constant tensor:
#      x y z
#    x 1.606500 0.000000 0.000000 
#    y 0.000000 1.606500 0.000000 
#    z 0.000000 0.000000 1.605150 
# 
# From -- ./inp_files/9781.got.cif
#   From: 2010.05.17/outbox.cif.g08.bks.cpg/sg137_5_cif.got.tgz:9781.got - 2010.05.20 13:01:12.
