data_PCOD9569074
_publ_section_title
;
Structure prediction by ZEFSAII (Michael W. Deem and Ramdas Pophale) SiO2 
 PCOD9569074
Probable space group: P 42/M B C
;
_chemical_formula_sum "Si O2"
_cell_formula_units_Z 112
_cell_length_a 15.000000
_cell_length_b 15.000000
_cell_length_c 24.000000
_cell_angle_alpha 90.000000
_cell_angle_beta 90.000000
_cell_angle_gamma 90.000000
_cell_volume 5400.000000
_symmetry_space_group_name_H-M "P 42/M B C"
_symmetry_group_IT_number 135
_symmetry_cell_setting 'tetragonal'
loop_
_space_group_symop_operation_xyz
x,y,z
-y,x,1/2+z
-x,-y,z
y,-x,1/2+z
1/2+x,1/2-y,-z
1/2-x,1/2+y,-z
1/2+y,1/2+x,1/2-z
1/2-y,1/2-x,1/2-z
-x,-y,-z
y,-x,1/2-z
x,y,-z
-y,x,1/2-z
1/2-x,1/2+y,z
1/2+x,1/2-y,z
1/2-y,1/2-x,1/2+z
1/2+y,1/2+x,1/2+z
loop_
_atom_site_type_symbol
_atom_site_label
_atom_site_fract_x
_atom_site_fract_y
_atom_site_fract_z
Si Si1 0.139137 0.327509 0.064567
Si Si2 0.471760 0.282840 0.182165
Si Si3 0.294848 0.360119 0.238643
Si Si4 0.255481 0.649569 0.066146
Si Si5 0.060267 0.740281 0.935847
Si Si6 0.436955 0.075297 0.815488
Si Si7 0.016650 0.270865 0.363823
O O1 0.184433 0.234399 0.084641
O O2 0.176901 0.410941 0.098545
O O3 0.032071 0.316184 0.065347
O O4 0.166115 0.338354 0.000000
O O5 0.389406 0.314625 0.221560
O O6 0.568150 0.304097 0.210204
O O7 0.451181 0.307854 0.116983
O O8 0.467305 0.175706 0.176781
O O9 0.215876 0.284125 0.250000
O O10 0.271648 0.423257 0.185249
O O11 0.151329 0.682400 0.072427
O O12 0.278635 0.556719 0.097364
O O13 0.269494 0.636839 0.000000
O O14 0.066119 0.776707 0.000000
O O15 0.437798 0.062203 0.750000
O O16 0.500000 0.000000 0.841900
O O17 0.339048 0.050622 0.834191
#
# Coordination Sequence:
#
# PCOD9569074 Si02
#       7
#    16  16  16  16  16  16  16
#     4  10  22  40  62  97 140 175 223 287 350 416
#     4  12  25  46  67 101 144 181 237 288 352 436
#     4  12  28  45  70 101 139 191 232 298 364 424
#     4  10  22  40  63  95 136 180 229 286 344 410
#     4  10  21  40  68  97 132 179 221 282 355 409
#     4  11  21  37  62  95 132 170 224 287 336 409
#     4  12  23  36  66  97 131 180 232 279 350 421
#
# _framework density 20.740741
#
# number of rings (size 3 to 8) (size 9 to 14) (size 15 to 20)
#    0.000    1.000    2.857    4.286    0.000    1.429 
#    0.000    2.857    0.000    2.571    0.000   16.000 
#    0.000    0.000    0.000    0.000    0.000    0.000 
#
# Total GULP energy -624871.204348 kJ/mol
# GULP energy per Si atom -5579.207182 kJ/mol
# Density = 2.069353 g / cm^3
# Si number density = 20.740741 Si / 1000 Ang^3
#
#
#
# Elastic Constant Matrix: (Units=GPa)
#
#
# Indices 1 2 3 4 5 6 
#
# 1 84.4497 28.2446 33.3434 0.0000 0.0000 0.0000
# 2 28.2446 84.4496 33.3435 0.0000 0.0000 0.0000
# 3 33.3434 33.3435 128.2854 0.0000 0.0000 0.0000
# 4 0.0000 0.0000 0.0000 24.9158 0.0000 0.0000
# 5 0.0000 0.0000 0.0000 0.0000 24.9155 0.0000
# 6 0.0000 0.0000 0.0000 0.0000 0.0000 31.3970
#
#
#
# Elastic Compliance Matrix: (Units=1/GPa)
#
#
# Indices 1 2 3 4 5 6 
#
# 1 0.014139 -0.003653 -0.002726 0.000000 0.000000 0.000000
# 2 -0.003653 0.014139 -0.002726 0.000000 0.000000 0.000000
# 3 -0.002726 -0.002726 0.009212 0.000000 0.000000 0.000000
# 4 0.000000 0.000000 0.000000 0.040135 0.000000 0.000000
# 5 0.000000 0.000000 0.000000 0.000000 0.040136 0.000000
# 6 0.000000 0.000000 0.000000 0.000000 0.000000 0.031850
#
#
# Mechanical properties :
#
#
# Convention : Reuss Voigt Hill
#
# Bulk Modulus (GPa) = 51.86056 54.11641 52.98848
# Shear Modulus (GPa) = 28.69493 29.72922 29.21208
#
# Velocity S-wave (km/s) = 3.72359 3.79010 3.75699
# Velocity P-wave (km/s) = 6.59888 6.73065 6.66509
#
# Compressibility (1/GPa) = 0.01928248
#
# Stress axis : x y z
#
# Youngs Moduli (GPa) = 70.72538 70.72519 108.55443
#
# Poissons Ratio (x) = 0.25834 0.29587
# Poissons Ratio (y) = 0.25834 0.29588
# Poissons Ratio (z) = 0.19277 0.19277
#
# Static dielectric constant tensor:
#      x y z
#    x 1.762360 0.000000 0.000000 
#    y 0.000000 1.762360 0.000000 
#    z 0.000000 0.000000 1.822550 
# 
# From -- ./inp_files/6117.got.cif
#   From: 2010.05.17/outbox.ucp.g08.bks.cvg/sg135_4_cif.got.tgz:6117.got - 2010.06.11 11:40:18.
