data_PCOD9569647
_publ_section_title
;
Structure prediction by ZEFSAII (Michael W. Deem and Ramdas Pophale) SiO2 
 PCOD9569647
Probable space group: P 42/M N M
;
_chemical_formula_sum "Si O2"
_cell_formula_units_Z 88
_cell_length_a 13.939013
_cell_length_b 13.939013
_cell_length_c 26.174257
_cell_angle_alpha 90.000000
_cell_angle_beta 90.000000
_cell_angle_gamma 90.000000
_cell_volume 5085.555621
_symmetry_space_group_name_H-M "P 42/M N M"
_symmetry_group_IT_number 136
_symmetry_cell_setting 'tetragonal'
loop_
_space_group_symop_operation_xyz
x,y,z
1/2-y,1/2+x,1/2+z
-x,-y,z
1/2+y,1/2-x,1/2+z
1/2+x,1/2-y,1/2-z
1/2-x,1/2+y,1/2-z
y,x,-z
-y,-x,-z
-x,-y,-z
1/2+y,1/2-x,1/2-z
x,y,-z
1/2-y,1/2+x,1/2-z
1/2-x,1/2+y,1/2+z
1/2+x,1/2-y,1/2+z
-y,-x,z
y,x,z
loop_
_atom_site_type_symbol
_atom_site_label
_atom_site_fract_x
_atom_site_fract_y
_atom_site_fract_z
Si Si1 0.763143 0.398816 0.211922
Si Si2 0.646141 0.189039 0.000000
Si Si3 0.993024 0.842788 0.113038
Si Si4 0.437950 0.727471 0.901699
Si Si5 0.696272 0.531396 0.500000
Si Si6 0.739211 0.576683 0.712369
Si Si7 0.582553 0.582553 0.940943
O O1 0.670279 0.329722 0.214770
O O2 0.772272 0.435921 0.153904
O O3 0.854152 0.330013 0.221010
O O4 0.747357 0.487222 0.249699
O O5 0.585616 0.202910 0.948662
O O6 0.724396 0.275605 0.000000
O O7 0.707441 0.093464 0.000000
O O8 0.075931 0.924070 0.110233
O O9 0.033887 0.768568 0.154631
O O10 0.978702 0.808852 0.054594
O O11 0.897142 0.897142 0.131460
O O12 0.353361 0.646640 0.902252
O O13 0.536163 0.672521 0.913216
O O14 0.606343 0.606343 0.500000
O O15 0.644075 0.644075 0.719811
O O16 0.500000 0.500000 0.941382
O O17 0.603888 0.603888 0.000000
#
# Coordination Sequence:
#
# PCOD9569647 Si02
#       7
#    16   8  16  16   8  16   8
#     4  10  21  35  52  74 101 135 176 218 261 315
#     4   9  14  22  36  58  95 137 168 204 252 302
#     4   9  16  27  44  68 100 133 166 210 262 312
#     4   9  16  25  40  64  96 133 170 207 255 308
#     4   9  15  22  38  64  96 133 170 205 250 309
#     4  10  21  36  52  74 102 133 173 218 265 315
#     4   9  14  22  36  62 100 136 168 203 248 308
#
# _framework density 17.303910999999999
#
# number of rings (size 3 to 8) (size 9 to 14) (size 15 to 20)
#    0.000    2.636    0.909    1.909    1.273    6.909 
#    0.000    0.000    0.000    0.000    0.000    1.273 
#    0.000    7.273    0.000    0.000    0.000    0.000 
#
# Total GULP energy -490069.426899 kJ/mol
# GULP energy per Si atom -5568.970760 kJ/mol
# Density = 1.726453 g / cm^3
# Si number density = 17.303911 Si / 1000 Ang^3
#
#
#
# Elastic Constant Matrix: (Units=GPa)
#
#
# Indices 1 2 3 4 5 6 
#
# 1 61.2901 32.8121 46.4945 0.0000 0.0000 0.0000
# 2 32.8121 61.2902 46.4945 0.0000 0.0000 0.0000
# 3 46.4945 46.4945 130.0586 0.0000 0.0000 0.0000
# 4 0.0000 0.0000 0.0000 -1.8117 0.0000 0.0000
# 5 0.0000 0.0000 0.0000 0.0000 -1.8115 0.0000
# 6 0.0000 0.0000 0.0000 0.0000 0.0000 13.5658
#
#
#
# Elastic Compliance Matrix: (Units=1/GPa)
#
#
# Indices 1 2 3 4 5 6 
#
# 1 0.025773 -0.009342 -0.005874 0.000000 0.000000 0.000000
# 2 -0.009342 0.025773 -0.005874 0.000000 0.000000 0.000000
# 3 -0.005874 -0.005874 0.011889 0.000000 0.000000 0.000000
# 4 0.000000 0.000000 0.000000 -0.551981 0.000000 0.000000
# 5 0.000000 0.000000 0.000000 0.000000 -0.552023 0.000000
# 6 0.000000 0.000000 0.000000 0.000000 0.000000 0.073715
#
#
# Mechanical properties :
#
#
# Convention : Reuss Voigt Hill
#
# Bulk Modulus (GPa) = 47.04743 56.02679 51.53711
# Shear Modulus (GPa) = -5.44906 10.44438 2.49766
#
# Velocity S-wave (km/s) = -1.77648 2.45946 1.20272
# Velocity P-wave (km/s) = 4.80001 6.36503 5.63710
#
# Compressibility (1/GPa) = 0.02125514
#
# Stress axis : x y z
#
# Youngs Moduli (GPa) = 38.80024 38.80037 84.11419
#
# Poissons Ratio (x) = 0.36246 0.49409
# Poissons Ratio (y) = 0.36246 0.49408
# Poissons Ratio (z) = 0.22791 0.22791
#
# Static dielectric constant tensor:
#      x y z
#    x 1.580980 0.000000 0.000000 
#    y 0.000000 1.580980 0.000000 
#    z 0.000000 0.000000 1.599400 
# 
# From -- ./inp_files/8379.got.cif
#   From: 2010.05.17/outbox.cif.g08.bks.cpg/sg136_5_cif.got.tgz:8379.got - 2010.05.20 12:54:53.
