data_PCOD9569112
_publ_section_title
;
Structure prediction by ZEFSAII (Michael W. Deem and Ramdas Pophale) SiO2 
 PCOD9569112
Probable space group: P 42/M N M
;
_chemical_formula_sum "Si O2"
_cell_formula_units_Z 112
_cell_length_a 16.134753
_cell_length_b 16.134753
_cell_length_c 28.867134
_cell_angle_alpha 90.000000
_cell_angle_beta 90.000000
_cell_angle_gamma 90.000000
_cell_volume 7514.988337
_symmetry_space_group_name_H-M "P 42/M N M"
_symmetry_group_IT_number 136
_symmetry_cell_setting 'tetragonal'
loop_
_space_group_symop_operation_xyz
x,y,z
1/2-y,1/2+x,1/2+z
-x,-y,z
1/2+y,1/2-x,1/2+z
1/2+x,1/2-y,1/2-z
1/2-x,1/2+y,1/2-z
y,x,-z
-y,-x,-z
-x,-y,-z
1/2+y,1/2-x,1/2-z
x,y,-z
1/2-y,1/2+x,1/2-z
1/2-x,1/2+y,1/2+z
1/2+x,1/2-y,1/2+z
-y,-x,z
y,x,z
loop_
_atom_site_type_symbol
_atom_site_label
_atom_site_fract_x
_atom_site_fract_y
_atom_site_fract_z
Si Si1 0.311027 0.827464 0.948041
Si Si2 0.258625 0.509349 0.051424
Si Si3 0.634803 0.494753 0.143465
Si Si4 0.375568 0.934089 0.390063
Si Si5 0.754259 0.613354 0.809734
Si Si6 0.878680 0.557712 0.264869
Si Si7 0.556470 0.881633 0.626606
O O1 0.235244 0.764757 0.941515
O O2 0.396769 0.775517 0.948253
O O3 0.321238 0.891670 0.906303
O O4 0.304365 0.864941 0.000000
O O5 0.323845 0.503676 0.092875
O O6 0.182161 0.449225 0.065359
O O7 0.290375 0.490857 0.000000
O O8 0.594100 0.405901 0.153342
O O9 0.561769 0.561769 0.143485
O O10 0.701062 0.530071 0.179746
O O11 0.321032 0.887182 0.351541
O O12 0.464566 0.891728 0.394479
O O13 0.398967 0.027892 0.374140
O O14 0.691177 0.691177 0.810569
O O15 0.805778 0.602648 0.762943
O O16 0.894700 0.465638 0.244195
O O17 0.860017 0.551065 0.319311
#
# Coordination Sequence:
#
# PCOD9569112 Si02
#       7
#    16  16  16  16  16  16  16
#     4   9  18  30  42  63  96 124 146 185 237 280
#     4   9  17  27  42  63  90 120 152 191 230 267
#     4   9  18  31  45  60  84 122 162 192 220 264
#     4   9  16  30  45  66  87 119 152 187 230 274
#     4  10  19  31  46  66  93 120 149 188 235 277
#     4  11  18  31  50  69  92 120 150 192 233 274
#     4  10  17  28  51  66  86 121 161 189 225 284
#
# _framework density 14.903548000000001
#
# number of rings (size 3 to 8) (size 9 to 14) (size 15 to 20)
#    0.000    2.429    2.857    1.286    0.000    2.286 
#    0.000    4.286    0.000    0.000    0.000    0.000 
#    0.000    0.571    0.000    1.571    0.000    0.000 
#
# Total GULP energy -623474.149770 kJ/mol
# GULP energy per Si atom -5566.733480 kJ/mol
# Density = 1.486963 g / cm^3
# Si number density = 14.903548 Si / 1000 Ang^3
#
#
#
# Elastic Constant Matrix: (Units=GPa)
#
#
# Indices 1 2 3 4 5 6 
#
# 1 53.2456 22.3911 22.7742 0.0000 0.0000 0.0000
# 2 22.3911 53.2456 22.7742 0.0000 0.0000 0.0000
# 3 22.7742 22.7742 53.4022 0.0000 0.0000 0.0000
# 4 0.0000 0.0000 0.0000 15.5691 0.0000 0.0000
# 5 0.0000 0.0000 0.0000 0.0000 15.5691 0.0000
# 6 0.0000 0.0000 0.0000 0.0000 0.0000 17.1916
#
#
#
# Elastic Compliance Matrix: (Units=1/GPa)
#
#
# Indices 1 2 3 4 5 6 
#
# 1 0.025100 -0.007310 -0.007587 0.000000 0.000000 0.000000
# 2 -0.007310 0.025100 -0.007587 0.000000 0.000000 0.000000
# 3 -0.007587 -0.007587 0.025197 0.000000 0.000000 0.000000
# 4 0.000000 0.000000 0.000000 0.064230 0.000000 0.000000
# 5 0.000000 0.000000 0.000000 0.000000 0.064230 0.000000
# 6 0.000000 0.000000 0.000000 0.000000 0.000000 0.058168
#
#
# Mechanical properties :
#
#
# Convention : Reuss Voigt Hill
#
# Bulk Modulus (GPa) = 32.86293 32.86363 32.86328
# Shear Modulus (GPa) = 15.76615 15.79620 15.78118
#
# Velocity S-wave (km/s) = 3.25603 3.25914 3.25758
# Velocity P-wave (km/s) = 6.01946 6.02174 6.02060
#
# Compressibility (1/GPa) = 0.03042943
#
# Stress axis : x y z
#
# Youngs Moduli (GPa) = 39.84060 39.84060 39.68759
#
# Poissons Ratio (x) = 0.29124 0.30110
# Poissons Ratio (y) = 0.29124 0.30110
# Poissons Ratio (z) = 0.30226 0.30226
#
# Static dielectric constant tensor:
#      x y z
#    x 1.497650 0.000000 0.000000 
#    y 0.000000 1.497650 0.000000 
#    z 0.000000 0.000000 1.495970 
# 
# From -- ./inp_files/9160.got.cif
#   From: 2010.05.17/outbox.cif.g08.bks.cpg/sg136_5_cif.got.tgz:9160.got - 2010.05.20 12:54:53.
