data_PCOD9569071
_publ_section_title
;
Structure prediction by ZEFSAII (Michael W. Deem and Ramdas Pophale) SiO2 
 PCOD9569071
Probable space group: P 42/M B C
;
_chemical_formula_sum "Si O2"
_cell_formula_units_Z 112
_cell_length_a 15.000000
_cell_length_b 15.000000
_cell_length_c 27.000000
_cell_angle_alpha 90.000000
_cell_angle_beta 90.000000
_cell_angle_gamma 90.000000
_cell_volume 6075.000000
_symmetry_space_group_name_H-M "P 42/M B C"
_symmetry_group_IT_number 135
_symmetry_cell_setting 'tetragonal'
loop_
_space_group_symop_operation_xyz
x,y,z
-y,x,1/2+z
-x,-y,z
y,-x,1/2+z
1/2+x,1/2-y,-z
1/2-x,1/2+y,-z
1/2+y,1/2+x,1/2-z
1/2-y,1/2-x,1/2-z
-x,-y,-z
y,-x,1/2-z
x,y,-z
-y,x,1/2-z
1/2-x,1/2+y,z
1/2+x,1/2-y,z
1/2-y,1/2-x,1/2+z
1/2+y,1/2+x,1/2+z
loop_
_atom_site_type_symbol
_atom_site_label
_atom_site_fract_x
_atom_site_fract_y
_atom_site_fract_z
Si Si1 0.775336 0.032365 0.212748
Si Si2 0.962917 0.201808 0.941067
Si Si3 0.350713 0.285474 0.226329
Si Si4 0.094733 0.535252 0.194715
Si Si5 0.661163 0.807054 0.124327
Si Si6 0.024905 0.100940 0.385130
Si Si7 0.164659 0.148966 0.940664
O O1 0.809827 0.119706 0.239420
O O2 0.782396 0.947955 0.249299
O O3 0.670887 0.039017 0.199893
O O4 0.835133 0.023849 0.162987
O O5 0.915038 0.285116 0.915473
O O6 0.069759 0.199082 0.932482
O O7 0.915523 0.116068 0.915546
O O8 0.948958 0.198905 0.000000
O O9 0.289847 0.210154 0.250000
O O10 0.343957 0.268643 0.167339
O O11 0.074235 0.574235 0.250000
O O12 0.136487 0.606129 0.156711
O O13 0.000000 0.500000 0.176483
O O14 0.754499 0.816560 0.094461
O O15 0.951189 0.140523 0.422755
O O16 0.000000 0.000000 0.368645
O O17 0.185347 0.152595 0.000000
#
# Coordination Sequence:
#
# PCOD9569071 Si02
#       7
#    16  16  16  16  16  16  16
#     4  12  24  41  61  92 132 164 210 265 318 382
#     4  10  22  39  62  94 124 160 213 265 326 392
#     4  12  26  40  61  93 128 170 216 262 315 385
#     4  11  24  44  64  87 124 173 216 253 310 381
#     4  12  21  42  62  90 127 164 216 261 315 383
#     4  10  20  37  61  89 121 160 203 256 324 385
#     4  10  21  38  64  89 122 163 205 266 328 378
#
# _framework density 18.436214
#
# number of rings (size 3 to 8) (size 9 to 14) (size 15 to 20)
#    0.000    1.000    5.714    0.857    4.000    4.000 
#    0.000    0.000    0.000    1.714    0.000    0.000 
#    0.000    0.000    0.000    0.000    0.000    0.000 
#
# Total GULP energy -624710.368535 kJ/mol
# GULP energy per Si atom -5577.771148 kJ/mol
# Density = 1.839425 g / cm^3
# Si number density = 18.436214 Si / 1000 Ang^3
#
#
#
# Elastic Constant Matrix: (Units=GPa)
#
#
# Indices 1 2 3 4 5 6 
#
# 1 94.0292 44.3135 41.7134 0.0000 0.0000 0.0000
# 2 44.3135 94.0293 41.7145 0.0000 0.0000 0.0000
# 3 41.7134 41.7145 117.4309 0.0000 0.0000 0.0000
# 4 0.0000 0.0000 0.0000 31.1022 0.0000 0.0000
# 5 0.0000 0.0000 0.0000 0.0000 31.1022 0.0000
# 6 0.0000 0.0000 0.0000 0.0000 0.0000 28.6393
#
#
#
# Elastic Compliance Matrix: (Units=1/GPa)
#
#
# Indices 1 2 3 4 5 6 
#
# 1 0.014657 -0.005458 -0.003268 0.000000 0.000000 0.000000
# 2 -0.005458 0.014657 -0.003268 0.000000 0.000000 0.000000
# 3 -0.003268 -0.003268 0.010837 0.000000 0.000000 0.000000
# 4 0.000000 0.000000 0.000000 0.032152 0.000000 0.000000
# 5 0.000000 0.000000 0.000000 0.000000 0.032152 0.000000
# 6 0.000000 0.000000 0.000000 0.000000 0.000000 0.034917
#
#
# Mechanical properties :
#
#
# Convention : Reuss Voigt Hill
#
# Bulk Modulus (GPa) = 61.86423 62.33024 62.09724
# Shear Modulus (GPa) = 29.63035 30.01861 29.82448
#
# Velocity S-wave (km/s) = 4.01332 4.03953 4.02644
# Velocity P-wave (km/s) = 7.42323 7.45916 7.44121
#
# Compressibility (1/GPa) = 0.01616443
#
# Stress axis : x y z
#
# Youngs Moduli (GPa) = 68.22851 68.22794 92.27521
#
# Poissons Ratio (x) = 0.37237 0.30152
# Poissons Ratio (y) = 0.37237 0.30154
# Poissons Ratio (z) = 0.22294 0.22295
#
# Static dielectric constant tensor:
#      x y z
#    x 1.660340 0.000000 0.000000 
#    y 0.000000 1.660340 0.000000 
#    z 0.000000 0.000000 1.635780 
# 
# From -- ./inp_files/6138.got.cif
#   From: 2010.05.17/outbox.ucp.g08.bks.cvg/sg135_4_cif.got.tgz:6138.got - 2010.06.11 11:40:18.
