data_PCOD9569129
_publ_section_title
;
Structure prediction by ZEFSAII (Michael W. Deem and Ramdas Pophale) SiO2 
 PCOD9569129
Probable space group: P 42/M N M
;
_chemical_formula_sum "Si O2"
_cell_formula_units_Z 96
_cell_length_a 14.977291
_cell_length_b 14.977291
_cell_length_c 27.202349
_cell_angle_alpha 90.000000
_cell_angle_beta 90.000000
_cell_angle_gamma 90.000000
_cell_volume 6102.010409
_symmetry_space_group_name_H-M "P 42/M N M"
_symmetry_group_IT_number 136
_symmetry_cell_setting 'tetragonal'
loop_
_space_group_symop_operation_xyz
x,y,z
1/2-y,1/2+x,1/2+z
-x,-y,z
1/2+y,1/2-x,1/2+z
1/2+x,1/2-y,1/2-z
1/2-x,1/2+y,1/2-z
y,x,-z
-y,-x,-z
-x,-y,-z
1/2+y,1/2-x,1/2-z
x,y,-z
1/2-y,1/2+x,1/2-z
1/2-x,1/2+y,1/2+z
1/2+x,1/2-y,1/2+z
-y,-x,z
y,x,z
loop_
_atom_site_type_symbol
_atom_site_label
_atom_site_fract_x
_atom_site_fract_y
_atom_site_fract_z
Si Si1 0.893244 0.738917 0.556446
Si Si2 0.854333 0.994869 0.840014
Si Si3 0.265208 0.480794 0.234774
Si Si4 0.624189 0.773242 0.616956
Si Si5 0.494659 0.353105 0.128425
Si Si6 0.331770 0.813211 0.774917
O O1 0.921446 0.730531 0.500000
O O2 0.815115 0.815115 0.558296
O O3 0.847933 0.648426 0.577058
O O4 0.970719 0.775794 0.592087
O O5 0.931720 0.068281 0.848069
O O6 0.826278 0.004986 0.782960
O O7 0.770433 0.027431 0.872980
O O8 0.898871 0.898871 0.849325
O O9 0.317809 0.483048 0.183725
O O10 0.198186 0.564329 0.234382
O O11 0.214878 0.387433 0.241539
O O12 0.690428 0.690428 0.606036
O O13 0.656405 0.813115 0.669202
O O14 0.573173 0.426828 0.129412
O O15 0.405307 0.405307 0.112444
O O16 0.280977 0.719024 0.768153
#
# Coordination Sequence:
#
# PCOD9569129 Si02
#       6
#    16  16  16  16  16  16
#     4   9  16  26  41  60  85 121 160 193 233 289
#     4   9  16  25  41  64  86 112 150 194 236 287
#     4  11  19  29  44  62  92 125 158 189 232 289
#     4   8  14  26  40  57  84 117 151 183 229 285
#     4  10  18  27  42  63  89 121 157 199 240 282
#     4  10  19  30  45  64  90 125 158 192 233 285
#
# _framework density 15.732519
#
# number of rings (size 3 to 8) (size 9 to 14) (size 15 to 20)
#    0.000    2.500    1.667    4.000    0.000    2.000 
#    0.000    1.667    0.000    0.500    0.000    3.500 
#    0.000   10.667    0.000    4.000    0.000    2.667 
#
# Total GULP energy -534422.997507 kJ/mol
# GULP energy per Si atom -5566.906224 kJ/mol
# Density = 1.569671 g / cm^3
# Si number density = 15.732519 Si / 1000 Ang^3
#
#
#
# Elastic Constant Matrix: (Units=GPa)
#
#
# Indices 1 2 3 4 5 6 
#
# 1 43.9938 20.4473 28.5896 0.0000 0.0000 0.0000
# 2 20.4473 43.9938 28.5896 0.0000 0.0000 0.0000
# 3 28.5896 28.5896 71.0199 0.0000 0.0000 0.0000
# 4 0.0000 0.0000 0.0000 13.5009 0.0000 0.0000
# 5 0.0000 0.0000 0.0000 0.0000 13.5009 0.0000
# 6 0.0000 0.0000 0.0000 0.0000 0.0000 25.8948
#
#
#
# Elastic Compliance Matrix: (Units=1/GPa)
#
#
# Indices 1 2 3 4 5 6 
#
# 1 0.033305 -0.009164 -0.009718 0.000000 0.000000 0.000000
# 2 -0.009164 0.033305 -0.009718 0.000000 0.000000 0.000000
# 3 -0.009718 -0.009718 0.021905 0.000000 0.000000 0.000000
# 4 0.000000 0.000000 0.000000 0.074069 0.000000 0.000000
# 5 0.000000 0.000000 0.000000 0.000000 0.074069 0.000000
# 6 0.000000 0.000000 0.000000 0.000000 0.000000 0.038618
#
#
# Mechanical properties :
#
#
# Convention : Reuss Voigt Hill
#
# Bulk Modulus (GPa) = 31.93432 34.91781 33.42607
# Shear Modulus (GPa) = 14.58110 16.00472 15.29291
#
# Velocity S-wave (km/s) = 3.04766 3.19298 3.12117
# Velocity P-wave (km/s) = 5.72072 5.98635 5.85504
#
# Compressibility (1/GPa) = 0.03131428
#
# Stress axis : x y z
#
# Youngs Moduli (GPa) = 30.02540 30.02540 45.65207
#
# Poissons Ratio (x) = 0.27515 0.44365
# Poissons Ratio (y) = 0.27515 0.44365
# Poissons Ratio (z) = 0.29179 0.29179
#
# Static dielectric constant tensor:
#      x y z
#    x 1.541040 0.000000 0.000000 
#    y 0.000000 1.541040 0.000000 
#    z 0.000000 0.000000 1.512660 
# 
# From -- ./inp_files/9879.got.cif
#   From: 2010.05.17/outbox.cif.g08.bks.cpg/sg136_5_cif.got.tgz:9879.got - 2010.05.20 12:54:53.
