data_PCOD9569415
_publ_section_title
;
Structure prediction by ZEFSAII (Michael W. Deem and Ramdas Pophale) SiO2 
 PCOD9569415
Probable space group: P 42/M N M
;
_chemical_formula_sum "Si O2"
_cell_formula_units_Z 80
_cell_length_a 11.833436
_cell_length_b 11.833436
_cell_length_c 28.442894
_cell_angle_alpha 90.000000
_cell_angle_beta 90.000000
_cell_angle_gamma 90.000000
_cell_volume 3982.864351
_symmetry_space_group_name_H-M "P 42/M N M"
_symmetry_group_IT_number 136
_symmetry_cell_setting 'tetragonal'
loop_
_space_group_symop_operation_xyz
x,y,z
1/2-y,1/2+x,1/2+z
-x,-y,z
1/2+y,1/2-x,1/2+z
1/2+x,1/2-y,1/2-z
1/2-x,1/2+y,1/2-z
y,x,-z
-y,-x,-z
-x,-y,-z
1/2+y,1/2-x,1/2-z
x,y,-z
1/2-y,1/2+x,1/2-z
1/2-x,1/2+y,1/2+z
1/2+x,1/2-y,1/2+z
-y,-x,z
y,x,z
loop_
_atom_site_type_symbol
_atom_site_label
_atom_site_fract_x
_atom_site_fract_y
_atom_site_fract_z
Si Si1 0.715391 0.715391 0.053041
Si Si2 0.499500 0.310513 0.657161
Si Si3 0.411387 0.411387 0.136934
Si Si4 0.436234 0.896771 0.591064
Si Si5 0.694393 0.871488 0.762436
Si Si6 0.809674 0.492115 0.176964
O O1 0.649635 0.649635 0.093887
O O2 0.676439 0.845105 0.061800
O O3 0.684318 0.684318 0.000000
O O4 0.603999 0.396002 0.643731
O O5 0.386926 0.386926 0.655949
O O6 0.500705 0.201302 0.622208
O O7 0.533477 0.267073 0.709578
O O8 0.500000 0.500000 0.117782
O O9 0.318723 0.474247 0.167968
O O10 0.371796 0.976916 0.629156
O O11 0.500000 0.000000 0.564113
O O12 0.755958 0.755958 0.776813
O O13 0.573074 0.869810 0.785421
O O14 0.689947 0.878200 0.706314
#
# Coordination Sequence:
#
# PCOD9569415 Si02
#       6
#     8  16   8  16  16  16
#     4  10  22  43  69  92 118 153 195 252 324 398
#     4   9  18  34  57  82 115 160 205 254 304 350
#     4  10  20  39  60  81 115 152 202 257 306 355
#     4  10  21  39  60  89 122 157 197 247 314 379
#     4  10  20  32  47  74 112 156 209 251 280 337
#     4  10  21  33  50  76 115 160 200 244 295 344
#
# _framework density 20.086047000000001
#
# number of rings (size 3 to 8) (size 9 to 14) (size 15 to 20)
#    0.000    2.200    2.000    0.600    7.000    0.600 
#    0.000    4.000    0.000    1.200    0.000    0.000 
#    0.000    0.000    0.000    0.000    0.000    0.000 
#
# Total GULP energy -445401.359509 kJ/mol
# GULP energy per Si atom -5567.516994 kJ/mol
# Density = 2.004033 g / cm^3
# Si number density = 20.086047 Si / 1000 Ang^3
#
#
#
# Elastic Constant Matrix: (Units=GPa)
#
#
# Indices 1 2 3 4 5 6 
#
# 1 74.7493 35.6333 1.9282 0.0000 0.0000 0.0000
# 2 35.6333 74.7493 1.9282 0.0000 0.0000 0.0000
# 3 1.9282 1.9282 52.7536 0.0000 0.0000 0.0000
# 4 0.0000 0.0000 0.0000 -3.6206 0.0000 0.0000
# 5 0.0000 0.0000 0.0000 0.0000 -3.6206 0.0000
# 6 0.0000 0.0000 0.0000 0.0000 0.0000 30.1922
#
#
#
# Elastic Compliance Matrix: (Units=1/GPa)
#
#
# Indices 1 2 3 4 5 6 
#
# 1 0.017318 -0.008247 -0.000332 0.000000 0.000000 0.000000
# 2 -0.008247 0.017318 -0.000332 0.000000 0.000000 0.000000
# 3 -0.000332 -0.000332 0.018980 0.000000 0.000000 0.000000
# 4 0.000000 0.000000 0.000000 -0.276199 0.000000 0.000000
# 5 0.000000 0.000000 0.000000 0.000000 -0.276199 0.000000
# 6 0.000000 0.000000 0.000000 0.000000 0.000000 0.033121
#
#
# Mechanical properties :
#
#
# Convention : Reuss Voigt Hill
#
# Bulk Modulus (GPa) = 27.93602 31.24793 29.59198
# Shear Modulus (GPa) = -11.47028 15.44105 1.98538
#
# Velocity S-wave (km/s) = -2.39227 2.77563 0.99528
# Velocity P-wave (km/s) = 2.51152 5.08557 4.01066
#
# Compressibility (1/GPa) = 0.03579607
#
# Stress axis : x y z
#
# Youngs Moduli (GPa) = 57.74349 57.74349 52.68620
#
# Poissons Ratio (x) = 0.47621 0.01747
# Poissons Ratio (y) = 0.47621 0.01747
# Poissons Ratio (z) = 0.01914 0.01914
#
# Static dielectric constant tensor:
#      x y z
#    x 1.804090 0.000000 0.000000 
#    y 0.000000 1.804090 0.000000 
#    z 0.000000 0.000000 1.704650 
# 
# From -- ./inp_files/9613.got.cif
#   From: 2010.05.17/outbox.cif.g08.bks.cpg/sg136_5_cif.got.tgz:9613.got - 2010.05.20 12:54:53.
