data_PCOD9569063
_publ_section_title
;
Structure prediction by ZEFSAII (Michael W. Deem and Ramdas Pophale) SiO2 
 PCOD9569063
Probable space group: P 42/M B C
;
_chemical_formula_sum "Si O2"
_cell_formula_units_Z 64
_cell_length_a 14.793170
_cell_length_b 14.793170
_cell_length_c 13.388416
_cell_angle_alpha 90.000000
_cell_angle_beta 90.000000
_cell_angle_gamma 90.000000
_cell_volume 2929.892556
_symmetry_space_group_name_H-M "P 42/M B C"
_symmetry_group_IT_number 135
_symmetry_cell_setting 'tetragonal'
loop_
_space_group_symop_operation_xyz
x,y,z
-y,x,1/2+z
-x,-y,z
y,-x,1/2+z
1/2+x,1/2-y,-z
1/2-x,1/2+y,-z
1/2+y,1/2+x,1/2-z
1/2-y,1/2-x,1/2-z
-x,-y,-z
y,-x,1/2-z
x,y,-z
-y,x,1/2-z
1/2-x,1/2+y,z
1/2+x,1/2-y,z
1/2-y,1/2-x,1/2+z
1/2+y,1/2+x,1/2+z
loop_
_atom_site_type_symbol
_atom_site_label
_atom_site_fract_x
_atom_site_fract_y
_atom_site_fract_z
Si Si1 0.143687 0.007705 0.260518
Si Si2 0.272398 0.123425 0.121384
Si Si3 0.880762 0.744939 0.883389
Si Si4 0.896933 0.482342 0.379888
O O1 0.220492 0.046738 0.186419
O O2 0.073253 0.085993 0.289321
O O3 0.181397 0.957950 0.358300
O O4 0.215181 0.213742 0.148049
O O5 0.378996 0.130257 0.144185
O O6 0.263564 0.107591 0.000000
O O7 0.932152 0.658786 0.839422
O O8 0.869356 0.730045 0.000000
O O9 0.887628 0.485455 0.500000
O O10 0.000000 0.500000 0.356199
#
# Coordination Sequence:
#
# PCOD9569063 Si02
#       4
#    16  16  16  16
#     4   9  18  33  52  77 110 143 180 228 273 324
#     4   9  18  34  55  79 108 142 182 227 278 332
#     4   9  18  34  55  78 106 142 181 223 274 331
#     4   9  18  35  57  81 111 145 182 229 278 328
#
# _framework density 21.843803000000001
#
# number of rings (size 3 to 8) (size 9 to 14) (size 15 to 20)
#    0.000    3.000    0.000    0.000    0.000    2.000 
#    4.500    7.500    0.000    0.000    0.000    0.000 
#    0.000    0.000    0.000    0.000    0.000    0.000 
#
# Total GULP energy -356292.201318 kJ/mol
# GULP energy per Si atom -5567.065646 kJ/mol
# Density = 2.179409 g / cm^3
# Si number density = 21.843803 Si / 1000 Ang^3
#
#
#
# Elastic Constant Matrix: (Units=GPa)
#
#
# Indices 1 2 3 4 5 6 
#
# 1 121.1573 90.2045 20.2121 0.0000 0.0000 0.0000
# 2 90.2045 121.1573 20.2121 0.0000 0.0000 0.0000
# 3 20.2121 20.2121 72.9019 0.0000 0.0000 0.0000
# 4 0.0000 0.0000 0.0000 13.2548 0.0000 0.0000
# 5 0.0000 0.0000 0.0000 0.0000 13.2548 0.0000
# 6 0.0000 0.0000 0.0000 0.0000 0.0000 27.3342
#
#
#
# Elastic Compliance Matrix: (Units=1/GPa)
#
#
# Indices 1 2 3 4 5 6 
#
# 1 0.018652 -0.013656 -0.001385 0.000000 0.000000 0.000000
# 2 -0.013656 0.018652 -0.001385 0.000000 0.000000 0.000000
# 3 -0.001385 -0.001385 0.014485 0.000000 0.000000 0.000000
# 4 0.000000 0.000000 0.000000 0.075444 0.000000 0.000000
# 5 0.000000 0.000000 0.000000 0.000000 0.075444 0.000000
# 6 0.000000 0.000000 0.000000 0.000000 0.000000 0.036584
#
#
# Mechanical properties :
#
#
# Convention : Reuss Voigt Hill
#
# Bulk Modulus (GPa) = 52.80749 64.05265 58.43007
# Shear Modulus (GPa) = 17.95814 23.07463 20.51639
#
# Velocity S-wave (km/s) = 2.87037 3.25368 3.06801
# Velocity P-wave (km/s) = 5.93404 6.59560 6.27355
#
# Compressibility (1/GPa) = 0.01893671
#
# Stress axis : x y z
#
# Youngs Moduli (GPa) = 53.61447 53.61447 69.03628
#
# Poissons Ratio (x) = 0.73213 0.09563
# Poissons Ratio (y) = 0.73213 0.09563
# Poissons Ratio (z) = 0.07427 0.07427
#
# Static dielectric constant tensor:
#      x y z
#    x 1.861110 0.000000 0.000000 
#    y 0.000000 1.861110 0.000000 
#    z 0.000000 0.000000 1.791310 
# 
# From -- ./inp_files/3124.got.cif
#   From: 2010.05.17/outbox.cif.g08.bks.cpg/sg135_2_cif.got.tgz:3124.got - 2010.05.20 12:50:20.
