data_PCOD9569194
_publ_section_title
;
Structure prediction by ZEFSAII (Michael W. Deem and Ramdas Pophale) SiO2 
 PCOD9569194
Probable space group: P 42/M N M
;
_chemical_formula_sum "Si O2"
_cell_formula_units_Z 68
_cell_length_a 17.610745
_cell_length_b 17.610745
_cell_length_c 12.802296
_cell_angle_alpha 90.000000
_cell_angle_beta 90.000000
_cell_angle_gamma 90.000000
_cell_volume 3970.482823
_symmetry_space_group_name_H-M "P 42/M N M"
_symmetry_group_IT_number 136
_symmetry_cell_setting 'tetragonal'
loop_
_space_group_symop_operation_xyz
x,y,z
1/2-y,1/2+x,1/2+z
-x,-y,z
1/2+y,1/2-x,1/2+z
1/2+x,1/2-y,1/2-z
1/2-x,1/2+y,1/2-z
y,x,-z
-y,-x,-z
-x,-y,-z
1/2+y,1/2-x,1/2-z
x,y,-z
1/2-y,1/2+x,1/2-z
1/2-x,1/2+y,1/2+z
1/2+x,1/2-y,1/2+z
-y,-x,z
y,x,z
loop_
_atom_site_type_symbol
_atom_site_label
_atom_site_fract_x
_atom_site_fract_y
_atom_site_fract_z
Si Si1 0.279996 0.155616 0.500000
Si Si2 0.435906 0.564095 0.230744
Si Si3 0.698785 0.828315 0.882651
Si Si4 0.203984 0.022531 0.878904
Si Si5 0.614392 0.385609 0.000000
Si Si6 0.360229 0.230044 0.678690
O O1 0.236313 0.236313 0.500000
O O2 0.206616 0.101628 0.500000
O O3 0.329524 0.162522 0.603750
O O4 0.500000 0.500000 0.233778
O O5 0.463944 0.637694 0.295120
O O6 0.416836 0.583165 0.109711
O O7 0.770541 0.770541 0.875361
O O8 0.733766 0.911321 0.864564
O O9 0.640092 0.802278 0.795468
O O10 0.668388 0.823719 0.000000
O O11 0.240124 0.940280 0.861237
O O12 0.176719 0.028603 0.000000
O O13 0.300353 0.300353 0.678127
#
# Coordination Sequence:
#
# PCOD9569194 Si02
#       6
#     8   8  16  16   4  16
#     4   8  16  29  54  75  95 129 192 243 254 296
#     4  12  24  36  51  81 126 164 181 217 272 363
#     4   9  18  34  55  76 105 144 185 227 271 333
#     4  11  21  35  56  84 113 145 188 229 288 334
#     4  10  21  40  56  72 106 167 206 220 262 322
#     4  10  18  32  54  81 107 137 184 236 277 317
#
# _framework density 17.126382
#
# number of rings (size 3 to 8) (size 9 to 14) (size 15 to 20)
#    0.353    1.647    2.353    2.647    0.000    1.882 
#    2.118    0.000    0.000    0.706    0.000    3.294 
#    0.000    0.000    0.000    0.000    0.000    0.000 
#
# Total GULP energy -378697.257899 kJ/mol
# GULP energy per Si atom -5569.077322 kJ/mol
# Density = 1.708740 g / cm^3
# Si number density = 17.126382 Si / 1000 Ang^3
#
#
#
# Elastic Constant Matrix: (Units=GPa)
#
#
# Indices 1 2 3 4 5 6 
#
# 1 41.1275 -1.9395 31.6969 0.0000 0.0000 0.0000
# 2 -1.9395 41.1272 31.6969 0.0000 0.0000 0.0000
# 3 31.6969 31.6969 123.7272 0.0000 0.0000 0.0000
# 4 0.0000 0.0000 0.0000 18.5394 0.0000 0.0000
# 5 0.0000 0.0000 0.0000 0.0000 18.5394 0.0000
# 6 0.0000 0.0000 0.0000 0.0000 0.0000 13.7205
#
#
#
# Elastic Compliance Matrix: (Units=1/GPa)
#
#
# Indices 1 2 3 4 5 6 
#
# 1 0.033399 0.010179 -0.011164 0.000000 0.000000 0.000000
# 2 0.010179 0.033399 -0.011164 0.000000 0.000000 0.000000
# 3 -0.011164 -0.011164 0.013802 0.000000 0.000000 0.000000
# 4 0.000000 0.000000 0.000000 0.053939 0.000000 0.000000
# 5 0.000000 0.000000 0.000000 0.000000 0.053939 0.000000
# 6 0.000000 0.000000 0.000000 0.000000 0.000000 0.072884
#
#
# Mechanical properties :
#
#
# Convention : Reuss Voigt Hill
#
# Bulk Modulus (GPa) = 17.76126 36.54339 27.15233
# Shear Modulus (GPa) = 16.42429 19.79501 18.10965
#
# Velocity S-wave (km/s) = 3.10014 3.40342 3.25532
# Velocity P-wave (km/s) = 4.81744 6.06862 5.47886
#
# Compressibility (1/GPa) = 0.05630231
#
# Stress axis : x y z
#
# Youngs Moduli (GPa) = 29.94131 29.94109 72.45147
#
# Poissons Ratio (x) = -0.30477 0.80884
# Poissons Ratio (y) = -0.30477 0.80885
# Poissons Ratio (z) = 0.33426 0.33426
#
# Static dielectric constant tensor:
#      x y z
#    x 1.557690 0.000000 0.000000 
#    y 0.000000 1.557700 0.000000 
#    z 0.000000 0.000000 1.617870 
# 
# From -- ./inp_files/3477.got.cif
#   From: 2010.05.17/outbox.cif.g08.bks.cpg/sg136_2_cif.got.tgz:3477.got - 2010.05.20 12:54:53.
