data_PCOD9569443
_publ_section_title
;
Structure prediction by ZEFSAII (Michael W. Deem and Ramdas Pophale) SiO2 
 PCOD9569443
Probable space group: P 42/M N M
;
_chemical_formula_sum "Si O2"
_cell_formula_units_Z 128
_cell_length_a 20.268930
_cell_length_b 20.268930
_cell_length_c 18.415204
_cell_angle_alpha 90.000000
_cell_angle_beta 90.000000
_cell_angle_gamma 90.000000
_cell_volume 7565.509482
_symmetry_space_group_name_H-M "P 42/M N M"
_symmetry_group_IT_number 136
_symmetry_cell_setting 'tetragonal'
loop_
_space_group_symop_operation_xyz
x,y,z
1/2-y,1/2+x,1/2+z
-x,-y,z
1/2+y,1/2-x,1/2+z
1/2+x,1/2-y,1/2-z
1/2-x,1/2+y,1/2-z
y,x,-z
-y,-x,-z
-x,-y,-z
1/2+y,1/2-x,1/2-z
x,y,-z
1/2-y,1/2+x,1/2-z
1/2-x,1/2+y,1/2+z
1/2+x,1/2-y,1/2+z
-y,-x,z
y,x,z
loop_
_atom_site_type_symbol
_atom_site_label
_atom_site_fract_x
_atom_site_fract_y
_atom_site_fract_z
Si Si1 0.286576 0.181533 0.177182
Si Si2 0.204998 0.094970 0.417997
Si Si3 0.007327 0.632677 0.665102
Si Si4 0.471975 0.372591 0.914932
Si Si5 0.800923 0.307654 0.847334
Si Si6 0.357037 0.049146 0.825491
Si Si7 0.579562 0.875772 0.413798
Si Si8 0.595191 0.764486 0.083864
O O1 0.214536 0.214536 0.168591
O O2 0.307779 0.193942 0.260766
O O3 0.300652 0.104395 0.164082
O O4 0.337926 0.218606 0.125218
O O5 0.228580 0.075551 0.500000
O O6 0.155302 0.155302 0.427069
O O7 0.262037 0.125221 0.369227
O O8 0.160768 0.037315 0.384139
O O9 0.071341 0.585115 0.671338
O O10 0.035353 0.695849 0.621906
O O11 0.983774 0.649359 0.746285
O O12 0.945430 0.599786 0.623895
O O13 0.437645 0.437645 0.883843
O O14 0.420233 0.312809 0.913664
O O15 0.487760 0.386738 0.000000
O O16 0.755075 0.244926 0.868917
O O17 0.870138 0.318874 0.886536
O O18 0.357435 0.992850 0.885828
O O19 0.583385 0.882595 0.500000
O O20 0.599104 0.785124 0.000000
#
# Coordination Sequence:
#
# PCOD9569443 Si02
#       8
#    16  16  16  16  16  16  16  16
#     4  10  21  37  57  76  99 137 183 222 268 319
#     4   9  17  29  47  71 100 133 169 210 254 304
#     4  11  20  35  54  76 109 152 182 218 267 322
#     4   9  17  28  43  67  99 132 165 204 251 299
#     4  10  20  37  56  77 104 140 182 228 277 327
#     4  11  22  36  55  77 111 148 182 221 271 322
#     4  12  23  34  54  83 111 146 185 227 271 324
#     4  10  20  33  51  75 104 135 178 224 261 306
#
# _framework density 16.918887000000002
#
# number of rings (size 3 to 8) (size 9 to 14) (size 15 to 20)
#    0.000    1.750    2.500    3.000    0.000    5.750 
#    0.000    1.250    0.000    0.000    0.000    0.000 
#    0.000    0.500    0.000    1.125    0.000    0.125 
#
# Total GULP energy -713827.649015 kJ/mol
# GULP energy per Si atom -5576.778508 kJ/mol
# Density = 1.688038 g / cm^3
# Si number density = 16.918887 Si / 1000 Ang^3
#
#
#
# Elastic Constant Matrix: (Units=GPa)
#
#
# Indices 1 2 3 4 5 6 
#
# 1 63.8421 39.9017 14.4995 0.0000 0.0000 0.0000
# 2 39.9017 63.8421 14.4995 0.0000 0.0000 0.0000
# 3 14.4995 14.4995 57.0507 0.0000 0.0000 0.0000
# 4 0.0000 0.0000 0.0000 23.7810 0.0000 0.0000
# 5 0.0000 0.0000 0.0000 0.0000 23.7810 0.0000
# 6 0.0000 0.0000 0.0000 0.0000 0.0000 23.0701
#
#
#
# Elastic Compliance Matrix: (Units=1/GPa)
#
#
# Indices 1 2 3 4 5 6 
#
# 1 0.026073 -0.015697 -0.002637 0.000000 0.000000 0.000000
# 2 -0.015697 0.026073 -0.002637 0.000000 0.000000 0.000000
# 3 -0.002637 -0.002637 0.018869 0.000000 0.000000 0.000000
# 4 0.000000 0.000000 0.000000 0.042050 0.000000 0.000000
# 5 0.000000 0.000000 0.000000 0.000000 0.042050 0.000000
# 6 0.000000 0.000000 0.000000 0.000000 0.000000 0.043346
#
#
# Mechanical properties :
#
#
# Convention : Reuss Voigt Hill
#
# Bulk Modulus (GPa) = 34.39651 35.83737 35.11694
# Shear Modulus (GPa) = 19.99233 21.84871 20.92052
#
# Velocity S-wave (km/s) = 3.44125 3.59748 3.52023
# Velocity P-wave (km/s) = 6.01365 6.20352 6.10932
#
# Compressibility (1/GPa) = 0.02907272
#
# Stress axis : x y z
#
# Youngs Moduli (GPa) = 38.35334 38.35334 52.99778
#
# Poissons Ratio (x) = 0.60204 0.13976
# Poissons Ratio (y) = 0.60204 0.13976
# Poissons Ratio (z) = 0.10114 0.10114
#
# Static dielectric constant tensor:
#      x y z
#    x 1.608810 0.000000 0.000000 
#    y 0.000000 1.608810 0.000000 
#    z 0.000000 0.000000 1.563280 
# 
# From -- ./inp_files/6628.got.cif
#   From: 2010.05.17/outbox.cif.g08.bks.cpg/sg136_4_cif.got.tgz:6628.got - 2010.05.20 12:54:53.
