data_PCOD9570142
_publ_section_title
;
Structure prediction by ZEFSAII (Michael W. Deem and Ramdas Pophale) SiO2 
 PCOD9570142
Probable space group: P 42/N M C
;
_chemical_formula_sum "Si O2"
_cell_formula_units_Z 80
_cell_length_a 14.516924
_cell_length_b 14.516924
_cell_length_c 20.444423
_cell_angle_alpha 90.000000
_cell_angle_beta 90.000000
_cell_angle_gamma 90.000000
_cell_volume 4308.479833
_symmetry_space_group_name_H-M "P 42/N M C"
_symmetry_group_IT_number 137
_space_group.IT_coordinate_system_code '2'
_symmetry_cell_setting 'tetragonal'
loop_
_space_group_symop_operation_xyz
x,y,z
1/2-y,x,1/2+z
1/2-x,1/2-y,z
y,1/2-x,1/2+z
1/2+x,-y,-z
-x,1/2+y,-z
1/2+y,1/2+x,1/2-z
-y,-x,1/2-z
-x,-y,-z
1/2+y,-x,1/2-z
1/2+x,1/2+y,-z
-y,1/2+x,1/2-z
1/2-x,y,z
x,1/2-y,z
1/2-y,1/2-x,1/2+z
y,x,1/2+z
loop_
_atom_site_type_symbol
_atom_site_label
_atom_site_fract_x
_atom_site_fract_y
_atom_site_fract_z
Si Si1 0.115337 0.849494 0.325185
Si Si2 0.639308 0.856034 0.495880
Si Si3 0.355159 0.008728 0.762939
Si Si4 0.447440 0.355602 0.869210
Si Si5 0.855219 0.600042 0.848958
O O1 0.145848 0.854153 0.250000
O O2 0.143434 0.750000 0.353257
O O3 0.004999 0.851929 0.325401
O O4 0.145605 0.942531 0.360423
O O5 0.750000 0.857691 0.489692
O O6 0.611360 0.750000 0.508999
O O7 0.615552 0.918239 0.557853
O O8 0.601413 0.882995 0.425026
O O9 0.250000 0.984493 0.780965
O O10 0.402358 0.074003 0.817811
O O11 0.352653 0.071394 0.697634
O O12 0.421287 0.921287 0.750000
O O13 0.413834 0.250000 0.857675
O O14 0.750000 0.637211 0.844770
#
# Coordination Sequence:
#
# PCOD9570142 Si02
#       5
#    16  16  16  16  16
#     4  11  21  35  56  86 121 155 193 236 287 347
#     4   9  19  34  54  85 119 149 186 240 300 347
#     4  12  24  40  60  85 115 150 195 243 293 347
#     4  11  21  37  60  88 119 152 193 238 292 349
#     4  10  19  36  61  87 114 148 193 240 291 348
#
# _framework density 18.568034999999998
#
# number of rings (size 3 to 8) (size 9 to 14) (size 15 to 20)
#    0.000    1.400    4.000    2.400    0.000    5.600 
#    0.000    0.000    0.000    0.000    0.000    2.800 
#    0.000    0.000    0.000    0.000    0.000    0.000 
#
# Total GULP energy -446502.268763 kJ/mol
# GULP energy per Si atom -5581.278360 kJ/mol
# Density = 1.852577 g / cm^3
# Si number density = 18.568035 Si / 1000 Ang^3
#
#
#
# Elastic Constant Matrix: (Units=GPa)
#
#
# Indices 1 2 3 4 5 6 
#
# 1 115.1701 33.2223 47.2382 0.0000 0.0000 0.0000
# 2 33.2223 115.1701 47.2381 0.0000 0.0000 0.0000
# 3 47.2382 47.2381 109.8012 0.0000 0.0000 0.0000
# 4 0.0000 0.0000 0.0000 20.1921 0.0000 0.0000
# 5 0.0000 0.0000 0.0000 0.0000 20.1920 0.0000
# 6 0.0000 0.0000 0.0000 0.0000 0.0000 4.4402
#
#
#
# Elastic Compliance Matrix: (Units=1/GPa)
#
#
# Indices 1 2 3 4 5 6 
#
# 1 0.010742 -0.001461 -0.003993 0.000000 0.000000 0.000000
# 2 -0.001461 0.010742 -0.003993 0.000000 0.000000 0.000000
# 3 -0.003993 -0.003993 0.012543 0.000000 0.000000 0.000000
# 4 0.000000 0.000000 0.000000 0.049524 0.000000 0.000000
# 5 0.000000 0.000000 0.000000 0.000000 0.049525 0.000000
# 6 0.000000 0.000000 0.000000 0.000000 0.000000 0.225215
#
#
# Mechanical properties :
#
#
# Convention : Reuss Voigt Hill
#
# Bulk Modulus (GPa) = 66.07814 66.17094 66.12454
# Shear Modulus (GPa) = 13.08119 23.12770 18.10445
#
# Velocity S-wave (km/s) = 2.65712 3.53309 3.12594
# Velocity P-wave (km/s) = 6.71402 7.23588 6.97983
#
# Compressibility (1/GPa) = 0.01513360
#
# Stress axis : x y z
#
# Youngs Moduli (GPa) = 93.09307 93.09316 79.72631
#
# Poissons Ratio (x) = 0.13600 0.31833
# Poissons Ratio (y) = 0.13600 0.31833
# Poissons Ratio (z) = 0.37170 0.37170
#
# Static dielectric constant tensor:
#      x y z
#    x 1.667490 0.000000 0.000000 
#    y 0.000000 1.667490 0.000000 
#    z 0.000000 0.000000 1.626200 
# 
# From -- ./inp_files/7600.got.cif
#   From: 2010.05.17/outbox.cif.g08.bks.cpg/sg137_4_cif.got.tgz:7600.got - 2010.05.20 13:01:12.
