data_PCOD9570161
_publ_section_title
;
Structure prediction by ZEFSAII (Michael W. Deem and Ramdas Pophale) SiO2 
 PCOD9570161
Probable space group: P 42/N M C
;
_chemical_formula_sum "Si O2"
_cell_formula_units_Z 104
_cell_length_a 27.255779
_cell_length_b 27.255779
_cell_length_c 8.307203
_cell_angle_alpha 90.000000
_cell_angle_beta 90.000000
_cell_angle_gamma 90.000000
_cell_volume 6171.234104
_symmetry_space_group_name_H-M "P 42/N M C"
_symmetry_group_IT_number 137
_space_group.IT_coordinate_system_code '2'
_symmetry_cell_setting 'tetragonal'
loop_
_space_group_symop_operation_xyz
x,y,z
1/2-y,x,1/2+z
1/2-x,1/2-y,z
y,1/2-x,1/2+z
1/2+x,-y,-z
-x,1/2+y,-z
1/2+y,1/2+x,1/2-z
-y,-x,1/2-z
-x,-y,-z
1/2+y,-x,1/2-z
1/2+x,1/2+y,-z
-y,1/2+x,1/2-z
1/2-x,y,z
x,1/2-y,z
1/2-y,1/2-x,1/2+z
y,x,1/2+z
loop_
_atom_site_type_symbol
_atom_site_label
_atom_site_fract_x
_atom_site_fract_y
_atom_site_fract_z
Si Si1 0.096636 0.064969 0.455810
Si Si2 0.420327 0.497820 0.746981
Si Si3 0.050116 0.750000 0.166908
Si Si4 0.422005 0.653007 0.667576
Si Si5 0.048502 0.350571 0.663292
Si Si6 0.069302 0.851380 0.301184
Si Si7 0.750000 0.461912 0.301684
Si Si8 0.476128 0.250000 0.526912
O O1 0.144794 0.067972 0.346325
O O2 0.081238 0.111223 0.562941
O O3 0.050513 0.061487 0.336180
O O4 0.096921 0.017963 0.570581
O O5 0.464475 0.535526 0.750000
O O6 0.375375 0.525727 0.828812
O O7 0.076055 0.803365 0.187135
O O8 0.017325 0.750000 0.330533
O O9 0.023934 0.750000 0.991182
O O10 0.382550 0.617451 0.750000
O O11 0.412472 0.662594 0.480417
O O12 0.429543 0.702158 0.766752
O O13 0.052056 0.299591 0.569578
O O14 0.989681 0.362180 0.685074
O O15 0.101231 0.898770 0.250000
O O16 0.750000 0.501968 0.154415
#
# Coordination Sequence:
#
# PCOD9570161 Si02
#       8
#    16  16   8  16  16  16   8   8
#     4  10  20  33  48  72 108 145 177 223 275 320
#     4  10  20  30  44  68  99 143 187 218 264 327
#     4  10  22  36  56  81 103 147 186 252 298 333
#     4  11  22  35  53  79 106 142 188 239 281 337
#     4  10  21  36  54  77 113 148 184 230 276 327
#     4  11  21  37  54  79 110 145 196 240 286 342
#     4  12  20  38  58  75 109 137 188 244 294 335
#     4  10  20  40  58  82 108 146 196 232 274 328
#
# _framework density 16.852383
#
# number of rings (size 3 to 8) (size 9 to 14) (size 15 to 20)
#    0.000    1.538    4.615    1.385    8.615    2.462 
#    0.000    0.000    0.000    0.462    0.000    3.231 
#    0.000    1.846    0.000    0.000    0.000    0.000 
#
# Total GULP energy -578965.143485 kJ/mol
# GULP energy per Si atom -5566.972534 kJ/mol
# Density = 1.681403 g / cm^3
# Si number density = 16.852383 Si / 1000 Ang^3
#
#
#
# Elastic Constant Matrix: (Units=GPa)
#
#
# Indices 1 2 3 4 5 6 
#
# 1 67.8024 14.1103 22.9439 0.0000 0.0000 0.0000
# 2 14.1103 67.8123 22.9479 0.0000 0.0000 0.0000
# 3 22.9439 22.9479 121.5479 0.0000 0.0000 0.0000
# 4 0.0000 0.0000 0.0000 20.6001 0.0000 0.0000
# 5 0.0000 0.0000 0.0000 0.0000 20.6021 0.0000
# 6 0.0000 0.0000 0.0000 0.0000 0.0000 14.1155
#
#
#
# Elastic Compliance Matrix: (Units=1/GPa)
#
#
# Indices 1 2 3 4 5 6 
#
# 1 0.016138 -0.002486 -0.002577 0.000000 0.000000 0.000000
# 2 -0.002486 0.016136 -0.002577 0.000000 0.000000 0.000000
# 3 -0.002577 -0.002577 0.009200 0.000000 0.000000 0.000000
# 4 0.000000 0.000000 0.000000 0.048543 0.000000 0.000000
# 5 0.000000 0.000000 0.000000 0.000000 0.048539 0.000000
# 6 0.000000 0.000000 0.000000 0.000000 0.000000 0.070844
#
#
# Mechanical properties :
#
#
# Convention : Reuss Voigt Hill
#
# Bulk Modulus (GPa) = 38.17647 41.90743 40.04195
# Shear Modulus (GPa) = 21.42133 24.20757 22.81445
#
# Velocity S-wave (km/s) = 3.56914 3.79416 3.68337
# Velocity P-wave (km/s) = 6.29981 6.64195 6.47314
#
# Compressibility (1/GPa) = 0.02619415
#
# Stress axis : x y z
#
# Youngs Moduli (GPa) = 61.96505 61.97331 108.69311
#
# Poissons Ratio (x) = 0.15406 0.28010
# Poissons Ratio (y) = 0.15404 0.28012
# Poissons Ratio (z) = 0.15968 0.15972
#
# Static dielectric constant tensor:
#      x y z
#    x 1.592850 0.000000 0.000000 
#    y 0.000000 1.592850 0.000000 
#    z 0.000000 0.000000 1.652680 
# 
# From -- ./inp_files/2347.got.cif
#   From: 2010.05.17/outbox.cif.g08.bks.cpg/sg137_2_cif.got.tgz:2347.got - 2010.05.20 13:01:12.
