data_PCOD9570675
_publ_section_title
;
Structure prediction by ZEFSAII (Michael W. Deem and Ramdas Pophale) SiO2 
 PCOD9570675
Probable space group: P 42/N C M
;
_chemical_formula_sum "Si O2"
_cell_formula_units_Z 96
_cell_length_a 14.979409
_cell_length_b 14.979409
_cell_length_c 21.146981
_cell_angle_alpha 90.000000
_cell_angle_beta 90.000000
_cell_angle_gamma 90.000000
_cell_volume 4745.016567
_symmetry_space_group_name_H-M "P 42/N C M"
_symmetry_group_IT_number 138
_space_group.IT_coordinate_system_code '2'
_symmetry_cell_setting 'tetragonal'
loop_
_space_group_symop_operation_xyz
x,y,z
1/2-y,x,1/2+z
1/2-x,1/2-y,z
y,1/2-x,1/2+z
1/2+x,-y,1/2-z
-x,1/2+y,1/2-z
1/2+y,1/2+x,-z
-y,-x,-z
-x,-y,-z
1/2+y,-x,1/2-z
1/2+x,1/2+y,-z
-y,1/2+x,1/2-z
1/2-x,y,1/2+z
x,1/2-y,1/2+z
1/2-y,1/2-x,z
y,x,z
loop_
_atom_site_type_symbol
_atom_site_label
_atom_site_fract_x
_atom_site_fract_y
_atom_site_fract_z
Si Si1 0.484891 0.160327 0.915996
Si Si2 0.580426 0.440142 0.145064
Si Si3 0.715542 0.924605 0.697925
Si Si4 0.202945 0.054891 0.167353
Si Si5 0.747617 0.895768 0.463774
Si Si6 0.843829 0.269915 0.432840
O O1 0.438766 0.061235 0.919530
O O2 0.451954 0.205028 0.849907
O O3 0.590396 0.183228 0.927164
O O4 0.441720 0.217528 0.973069
O O5 0.504821 0.504821 0.115660
O O6 0.640070 0.500585 0.189891
O O7 0.527844 0.362069 0.180164
O O8 0.649286 0.399106 0.096394
O O9 0.669287 0.830714 0.679650
O O10 0.740503 0.925208 0.771135
O O11 0.141962 0.141962 0.158272
O O12 0.245089 0.041612 0.098010
O O13 0.652837 0.847164 0.475853
O O14 0.818447 0.818447 0.448017
O O15 0.750000 0.250000 0.398216
O O16 0.810104 0.310104 0.500000
#
# Coordination Sequence:
#
# PCOD9570675 Si02
#       6
#    16  16  16  16  16  16
#     4  10  20  35  58  88 120 153 195 246 297 354
#     4   9  20  38  57  82 114 149 199 247 288 349
#     4  10  20  35  56  85 119 155 192 242 304 358
#     4  10  19  33  54  80 114 154 193 237 286 345
#     4   9  17  29  50  85 123 152 183 228 287 352
#     4  10  21  39  61  86 120 159 198 242 294 359
#
# _framework density 20.231753000000001
#
# number of rings (size 3 to 8) (size 9 to 14) (size 15 to 20)
#    0.000    2.333    0.000    2.500    0.000    3.667 
#    6.000    1.667    0.000    1.000    0.000    0.000 
#    0.000    0.000    0.000    0.000    0.000    0.000 
#
# Total GULP energy -534545.402743 kJ/mol
# GULP energy per Si atom -5568.181279 kJ/mol
# Density = 2.018570 g / cm^3
# Si number density = 20.231753 Si / 1000 Ang^3
#
#
#
# Elastic Constant Matrix: (Units=GPa)
#
#
# Indices 1 2 3 4 5 6 
#
# 1 74.6325 36.6172 3.8404 0.0000 0.0000 0.0000
# 2 36.6172 74.6325 3.8404 0.0000 0.0000 0.0000
# 3 3.8404 3.8404 53.6252 0.0000 0.0000 0.0000
# 4 0.0000 0.0000 0.0000 19.5430 0.0000 0.0000
# 5 0.0000 0.0000 0.0000 0.0000 19.5430 0.0000
# 6 0.0000 0.0000 0.0000 0.0000 0.0000 21.2307
#
#
#
# Elastic Compliance Matrix: (Units=1/GPa)
#
#
# Indices 1 2 3 4 5 6 
#
# 1 0.017669 -0.008636 -0.000647 0.000000 0.000000 0.000000
# 2 -0.008636 0.017669 -0.000647 0.000000 0.000000 0.000000
# 3 -0.000647 -0.000647 0.018741 0.000000 0.000000 0.000000
# 4 0.000000 0.000000 0.000000 0.051169 0.000000 0.000000
# 5 0.000000 0.000000 0.000000 0.000000 0.051169 0.000000
# 6 0.000000 0.000000 0.000000 0.000000 0.000000 0.047102
#
#
# Mechanical properties :
#
#
# Convention : Reuss Voigt Hill
#
# Bulk Modulus (GPa) = 29.22288 32.38737 30.80512
# Shear Modulus (GPa) = 21.29603 22.63614 21.96608
#
# Velocity S-wave (km/s) = 3.24791 3.34854 3.29861
# Velocity P-wave (km/s) = 5.34234 5.56716 5.45591
#
# Compressibility (1/GPa) = 0.03421976
#
# Stress axis : x y z
#
# Youngs Moduli (GPa) = 56.59520 56.59520 53.36003
#
# Poissons Ratio (x) = 0.48875 0.03452
# Poissons Ratio (y) = 0.48875 0.03452
# Poissons Ratio (z) = 0.03661 0.03661
#
# Static dielectric constant tensor:
#      x y z
#    x 1.779380 0.000000 0.000000 
#    y 0.000000 1.779380 0.000000 
#    z 0.000000 0.000000 1.747130 
# 
# From -- ./inp_files/6214.got.cif
#   From: 2010.05.17/outbox.cif.g08.bks.cpg/sg138_4_cif.got.tgz:6214.got - 2010.05.20 13:08:53.
