data_PCOD9570917
_publ_section_title
;
Structure prediction by ZEFSAII (Michael W. Deem and Ramdas Pophale) SiO2 
 PCOD9570917
Probable space group: P 42/N C M
;
_chemical_formula_sum "Si O2"
_cell_formula_units_Z 112
_cell_length_a 14.805418
_cell_length_b 14.805418
_cell_length_c 26.976181
_cell_angle_alpha 90.000000
_cell_angle_beta 90.000000
_cell_angle_gamma 90.000000
_cell_volume 5913.189724
_symmetry_space_group_name_H-M "P 42/N C M"
_symmetry_group_IT_number 138
_space_group.IT_coordinate_system_code '2'
_symmetry_cell_setting 'tetragonal'
loop_
_space_group_symop_operation_xyz
x,y,z
1/2-y,x,1/2+z
1/2-x,1/2-y,z
y,1/2-x,1/2+z
1/2+x,-y,1/2-z
-x,1/2+y,1/2-z
1/2+y,1/2+x,-z
-y,-x,-z
-x,-y,-z
1/2+y,-x,1/2-z
1/2+x,1/2+y,-z
-y,1/2+x,1/2-z
1/2-x,y,1/2+z
x,1/2-y,1/2+z
1/2-y,1/2-x,z
y,x,z
loop_
_atom_site_type_symbol
_atom_site_label
_atom_site_fract_x
_atom_site_fract_y
_atom_site_fract_z
Si Si1 0.719019 0.104442 0.259717
Si Si2 0.218308 0.651065 0.636490
Si Si3 0.139450 0.998335 0.996864
Si Si4 0.521118 0.828214 0.169806
Si Si5 0.976815 0.833942 0.493368
Si Si6 0.497026 0.859376 0.619392
Si Si7 0.105506 0.613529 0.080470
O O1 0.645386 0.185499 0.258353
O O2 0.732269 0.082743 0.317712
O O3 0.685383 0.027470 0.222711
O O4 0.250000 0.750000 0.655969
O O5 0.112393 0.645317 0.623875
O O6 0.290875 0.638902 0.592638
O O7 0.059133 0.059133 0.018799
O O8 0.150130 0.017092 0.938717
O O9 0.230709 0.030388 0.021793
O O10 0.104685 0.895316 0.000000
O O11 0.609421 0.890580 0.172242
O O12 0.535483 0.727639 0.148076
O O13 0.450874 0.874874 0.130847
O O14 0.887775 0.887775 0.510148
O O15 0.018619 0.886244 0.446905
O O16 0.050456 0.832320 0.538110
O O17 0.548738 0.951263 0.635883
#
# Coordination Sequence:
#
# PCOD9570917 Si02
#       7
#    16  16  16  16  16  16  16
#     4  11  18  36  59  84 115 148 192 255 310 360
#     4  12  19  36  64  88 115 159 199 253 314 369
#     4  10  21  38  56  81 118 158 201 250 301 361
#     4  12  23  38  60  87 121 162 206 253 311 377
#     4  11  22  37  57  88 126 162 204 255 302 366
#     4  11  23  38  58  86 120 157 197 249 305 364
#     4  11  21  35  59  87 120 153 197 253 310 355
#
# _framework density 18.940708000000001
#
# number of rings (size 3 to 8) (size 9 to 14) (size 15 to 20)
#    0.000    0.857    7.143    2.571    0.000    1.143 
#    0.000    2.857    0.000    0.000    0.000    0.000 
#    0.000    0.000    0.000    0.000    0.000    0.000 
#
# Total GULP energy -623782.046918 kJ/mol
# GULP energy per Si atom -5569.482562 kJ/mol
# Density = 1.889760 g / cm^3
# Si number density = 18.940708 Si / 1000 Ang^3
#
#
#
# Elastic Constant Matrix: (Units=GPa)
#
#
# Indices 1 2 3 4 5 6 
#
# 1 55.5987 105.1557 13.5263 0.0000 0.0000 0.0000
# 2 105.1557 55.5980 13.5273 0.0000 0.0000 0.0000
# 3 13.5263 13.5273 51.1289 0.0000 0.0000 0.0000
# 4 0.0000 0.0000 0.0000 18.6818 0.0000 0.0000
# 5 0.0000 0.0000 0.0000 0.0000 18.6818 0.0000
# 6 0.0000 0.0000 0.0000 0.0000 0.0000 26.5797
#
#
#
# Elastic Compliance Matrix: (Units=1/GPa)
#
#
# Indices 1 2 3 4 5 6 
#
# 1 -0.006834 0.013345 -0.001723 0.000000 0.000000 0.000000
# 2 0.013345 -0.006834 -0.001722 0.000000 0.000000 0.000000
# 3 -0.001723 -0.001722 0.020470 0.000000 0.000000 0.000000
# 4 0.000000 0.000000 0.000000 0.053528 0.000000 0.000000
# 5 0.000000 0.000000 0.000000 0.000000 0.053528 0.000000
# 6 0.000000 0.000000 0.000000 0.000000 0.000000 0.037623
#
#
# Mechanical properties :
#
#
# Convention : Reuss Voigt Hill
#
# Bulk Modulus (GPa) = 37.59240 47.41602 42.50421
# Shear Modulus (GPa) = 35.57502 14.79642 25.18572
#
# Velocity S-wave (km/s) = 4.33856 2.79802 3.65048
# Velocity P-wave (km/s) = 6.70730 5.96044 6.34487
#
# Compressibility (1/GPa) = 0.02660112
#
# Stress axis : x y z
#
# Youngs Moduli (GPa) = -146.32814 -146.32459 48.85240
#
# Poissons Ratio (x) = 1.95264 0.08416
# Poissons Ratio (y) = 1.95269 0.08413
# Poissons Ratio (z) = -0.25208 -0.25200
#
# Static dielectric constant tensor:
#      x y z
#    x 1.714360 0.000000 0.000000 
#    y 0.000000 1.714360 0.000000 
#    z 0.000000 0.000000 1.707580 
# 
# From -- ./inp_files/7591.got.cif
#   From: 2010.05.17/outbox.cif.g08.bks.cpg/sg138_4_cif.got.tgz:7591.got - 2010.05.20 13:08:53.
