data_PCOD9570552
_publ_section_title
;
Structure prediction by ZEFSAII (Michael W. Deem and Ramdas Pophale) SiO2 
 PCOD9570552
Probable space group: P 42/N M C
;
_chemical_formula_sum "Si O2"
_cell_formula_units_Z 112
_cell_length_a 15.000000
_cell_length_b 15.000000
_cell_length_c 27.000000
_cell_angle_alpha 90.000000
_cell_angle_beta 90.000000
_cell_angle_gamma 90.000000
_cell_volume 6075.000000
_symmetry_space_group_name_H-M "P 42/N M C"
_symmetry_group_IT_number 137
_space_group.IT_coordinate_system_code '2'
_symmetry_cell_setting 'tetragonal'
loop_
_space_group_symop_operation_xyz
x,y,z
1/2-y,x,1/2+z
1/2-x,1/2-y,z
y,1/2-x,1/2+z
1/2+x,-y,-z
-x,1/2+y,-z
1/2+y,1/2+x,1/2-z
-y,-x,1/2-z
-x,-y,-z
1/2+y,-x,1/2-z
1/2+x,1/2+y,-z
-y,1/2+x,1/2-z
1/2-x,y,z
x,1/2-y,z
1/2-y,1/2-x,1/2+z
y,x,1/2+z
loop_
_atom_site_type_symbol
_atom_site_label
_atom_site_fract_x
_atom_site_fract_y
_atom_site_fract_z
Si Si1 0.646186 0.349052 0.677688
Si Si2 0.083406 0.849070 0.068639
Si Si3 0.525736 0.009033 0.407597
Si Si4 0.356784 0.145279 0.628593
Si Si5 0.648936 0.148668 0.039967
Si Si6 0.349205 0.143982 0.742106
Si Si7 0.478822 0.465927 0.799387
O O1 0.750000 0.362439 0.692010
O O2 0.618550 0.250000 0.692638
O O3 0.642998 0.358319 0.618252
O O4 0.580640 0.424573 0.696688
O O5 0.041773 0.750000 0.069706
O O6 0.140804 0.855387 0.019320
O O7 0.013357 0.928990 0.070676
O O8 0.578785 0.081639 0.437645
O O9 0.511931 0.040198 0.351057
O O10 0.584023 0.918502 0.404982
O O11 0.250000 0.132631 0.622348
O O12 0.375702 0.250000 0.621037
O O13 0.378976 0.121787 0.685976
O O14 0.750000 0.131933 0.055248
O O15 0.624457 0.250000 0.054728
O O16 0.250000 0.106997 0.748129
O O17 0.345039 0.250000 0.742401
O O18 0.410543 0.111674 0.786013
O O19 0.474729 0.525272 0.750000
#
# Coordination Sequence:
#
# PCOD9570552 Si02
#       7
#    16  16  16  16  16  16  16
#     4   9  18  31  48  73 108 147 179 209 251 313
#     4   9  19  36  56  81 113 148 181 216 268 334
#     4  11  21  34  57  82 112 141 185 225 274 323
#     4   9  18  33  53  77 104 136 177 225 271 317
#     4  10  21  38  60  83 108 140 183 234 284 335
#     4   9  18  34  53  69  93 137 187 226 263 311
#     4  11  21  32  46  74 106 140 174 219 268 316
#
# _framework density 18.436214
#
# number of rings (size 3 to 8) (size 9 to 14) (size 15 to 20)
#    0.000    2.286    1.429    2.571    0.000    6.857 
#    0.000    0.714    0.000    0.429    0.000    1.000 
#    0.000    0.000    0.000    0.000    0.000    0.000 
#
# Total GULP energy -624485.058279 kJ/mol
# GULP energy per Si atom -5575.759449 kJ/mol
# Density = 1.839425 g / cm^3
# Si number density = 18.436214 Si / 1000 Ang^3
#
#
#
# Elastic Constant Matrix: (Units=GPa)
#
#
# Indices 1 2 3 4 5 6 
#
# 1 75.8070 60.2714 34.8497 0.0000 0.0000 0.0000
# 2 60.2714 75.8064 34.8497 0.0000 0.0000 0.0000
# 3 34.8497 34.8497 60.5224 0.0000 0.0000 0.0000
# 4 0.0000 0.0000 0.0000 5.2716 0.0000 0.0000
# 5 0.0000 0.0000 0.0000 0.0000 5.2717 0.0000
# 6 0.0000 0.0000 0.0000 0.0000 0.0000 19.3650
#
#
#
# Elastic Compliance Matrix: (Units=1/GPa)
#
#
# Indices 1 2 3 4 5 6 
#
# 1 0.037396 -0.026973 -0.006001 0.000000 0.000000 0.000000
# 2 -0.026973 0.037396 -0.006002 0.000000 0.000000 0.000000
# 3 -0.006001 -0.006002 0.023434 0.000000 0.000000 0.000000
# 4 0.000000 0.000000 0.000000 0.189696 0.000000 0.000000
# 5 0.000000 0.000000 0.000000 0.000000 0.189691 0.000000
# 6 0.000000 0.000000 0.000000 0.000000 0.000000 0.051640
#
#
# Mechanical properties :
#
#
# Convention : Reuss Voigt Hill
#
# Bulk Modulus (GPa) = 49.32526 52.45306 50.88916
# Shear Modulus (GPa) = 8.14380 11.45933 9.80156
#
# Velocity S-wave (km/s) = 2.10401 2.49583 2.30825
# Velocity P-wave (km/s) = 5.71971 6.06782 5.89634
#
# Compressibility (1/GPa) = 0.02027359
#
# Stress axis : x y z
#
# Youngs Moduli (GPa) = 26.74087 26.74058 42.67230
#
# Poissons Ratio (x) = 0.72128 0.25610
# Poissons Ratio (y) = 0.72129 0.25611
# Poissons Ratio (z) = 0.16048 0.16049
#
# Static dielectric constant tensor:
#      x y z
#    x -3.579360 0.000000 0.000000 
#    y 0.000000 -3.035600 0.000000 
#    z 0.000000 0.000000 1.648070 
# 
# From -- ./inp_files/9752.got.cif
#   From: 2010.05.17/outbox.ucp.g08.bks.cvg/sg137_5_cif.got.tgz:9752.got - 2010.06.11 11:41:14.
