data_PCOD9570010
_publ_section_title
;
Structure prediction by ZEFSAII (Michael W. Deem and Ramdas Pophale) SiO2 
 PCOD9570010
Probable space group: P 42/N M C
;
_chemical_formula_sum "Si O2"
_cell_formula_units_Z 64
_cell_length_a 14.414975
_cell_length_b 14.414975
_cell_length_c 14.770993
_cell_angle_alpha 90.000000
_cell_angle_beta 90.000000
_cell_angle_gamma 90.000000
_cell_volume 3069.286855
_symmetry_space_group_name_H-M "P 42/N M C"
_symmetry_group_IT_number 137
_space_group.IT_coordinate_system_code '2'
_symmetry_cell_setting 'tetragonal'
loop_
_space_group_symop_operation_xyz
x,y,z
1/2-y,x,1/2+z
1/2-x,1/2-y,z
y,1/2-x,1/2+z
1/2+x,-y,-z
-x,1/2+y,-z
1/2+y,1/2+x,1/2-z
-y,-x,1/2-z
-x,-y,-z
1/2+y,-x,1/2-z
1/2+x,1/2+y,-z
-y,1/2+x,1/2-z
1/2-x,y,z
x,1/2-y,z
1/2-y,1/2-x,1/2+z
y,x,1/2+z
loop_
_atom_site_type_symbol
_atom_site_label
_atom_site_fract_x
_atom_site_fract_y
_atom_site_fract_z
Si Si1 0.504239 0.854578 0.719201
Si Si2 0.144097 0.114360 0.120173
Si Si3 0.035394 0.091687 0.948255
Si Si4 0.609451 0.147063 0.644346
O O1 0.476804 0.750000 0.693771
O O2 0.575886 0.851290 0.802188
O O3 0.556773 0.905457 0.637113
O O4 0.417813 0.917813 0.750000
O O5 0.250000 0.145258 0.128856
O O6 0.145685 0.002221 0.133234
O O7 0.100656 0.138748 0.022698
O O8 0.942802 0.141995 0.911900
O O9 0.000000 0.000000 0.000000
O O10 0.633314 0.133314 0.750000
O O11 0.641009 0.250000 0.615577
#
# Coordination Sequence:
#
# PCOD9570010 Si02
#       4
#    16  16  16  16
#     4  12  23  41  65  92 129 172 215 265 321 386
#     4  10  20  38  65  95 125 167 215 264 319 377
#     4  10  18  38  65  92 123 165 216 257 322 380
#     4  10  18  33  60  89 126 166 208 261 318 377
#
# _framework density 20.851749000000002
#
# number of rings (size 3 to 8) (size 9 to 14) (size 15 to 20)
#    0.000    1.500    7.500    0.750    0.000    2.000 
#    0.000    2.500    0.000    3.000    0.000    0.000 
#    0.000    0.000    0.000    0.000    0.000    0.000 
#
# Total GULP energy -357355.530542 kJ/mol
# GULP energy per Si atom -5583.680165 kJ/mol
# Density = 2.080429 g / cm^3
# Si number density = 20.851749 Si / 1000 Ang^3
#
#
#
# Elastic Constant Matrix: (Units=GPa)
#
#
# Indices 1 2 3 4 5 6 
#
# 1 148.5198 45.9470 52.3248 0.0000 0.0000 0.0000
# 2 45.9470 148.5198 52.3248 0.0000 0.0000 0.0000
# 3 52.3248 52.3248 133.2105 0.0000 0.0000 0.0000
# 4 0.0000 0.0000 0.0000 -4.5576 0.0000 0.0000
# 5 0.0000 0.0000 0.0000 0.0000 -4.5576 0.0000
# 6 0.0000 0.0000 0.0000 0.0000 0.0000 -10.1962
#
#
#
# Elastic Compliance Matrix: (Units=1/GPa)
#
#
# Indices 1 2 3 4 5 6 
#
# 1 0.008135 -0.001614 -0.002561 0.000000 0.000000 0.000000
# 2 -0.001614 0.008135 -0.002561 0.000000 0.000000 0.000000
# 3 -0.002561 -0.002561 0.009519 0.000000 0.000000 0.000000
# 4 0.000000 0.000000 0.000000 -0.219411 0.000000 0.000000
# 5 0.000000 0.000000 0.000000 0.000000 -0.219411 0.000000
# 6 0.000000 0.000000 0.000000 0.000000 0.000000 -0.098076
#
#
# Mechanical properties :
#
#
# Convention : Reuss Voigt Hill
#
# Bulk Modulus (GPa) = 81.20100 81.27146 81.23623
# Shear Modulus (GPa) = -10.13108 14.78127 2.32509
#
# Velocity S-wave (km/s) = -2.20662 2.66536 1.05711
# Velocity P-wave (km/s) = 5.70389 6.96654 6.36659
#
# Compressibility (1/GPa) = 0.01231512
#
# Stress axis : x y z
#
# Youngs Moduli (GPa) = 122.92752 122.92752 105.05271
#
# Poissons Ratio (x) = 0.19844 0.26907
# Poissons Ratio (y) = 0.19844 0.26907
# Poissons Ratio (z) = 0.31485 0.31485
#
# Static dielectric constant tensor:
#      x y z
#    x 1.612960 0.000000 0.000000 
#    y 0.000000 1.612960 0.000000 
#    z 0.000000 0.000000 1.724520 
# 
# From -- ./inp_files/4723.got.cif
#   From: 2010.05.17/outbox.cif.g08.bks.cpg/sg137_3_cif.got.tgz:4723.got - 2010.05.20 13:01:12.
