data_PCOD9570138
_publ_section_title
;
Structure prediction by ZEFSAII (Michael W. Deem and Ramdas Pophale) SiO2 
 PCOD9570138
Probable space group: P 42/N M C
;
_chemical_formula_sum "Si O2"
_cell_formula_units_Z 116
_cell_length_a 18.713857
_cell_length_b 18.713857
_cell_length_c 18.854885
_cell_angle_alpha 90.000000
_cell_angle_beta 90.000000
_cell_angle_gamma 90.000000
_cell_volume 6603.139934
_symmetry_space_group_name_H-M "P 42/N M C"
_symmetry_group_IT_number 137
_space_group.IT_coordinate_system_code '2'
_symmetry_cell_setting 'tetragonal'
loop_
_space_group_symop_operation_xyz
x,y,z
1/2-y,x,1/2+z
1/2-x,1/2-y,z
y,1/2-x,1/2+z
1/2+x,-y,-z
-x,1/2+y,-z
1/2+y,1/2+x,1/2-z
-y,-x,1/2-z
-x,-y,-z
1/2+y,-x,1/2-z
1/2+x,1/2+y,-z
-y,1/2+x,1/2-z
1/2-x,y,z
x,1/2-y,z
1/2-y,1/2-x,1/2+z
y,x,1/2+z
loop_
_atom_site_type_symbol
_atom_site_label
_atom_site_fract_x
_atom_site_fract_y
_atom_site_fract_z
Si Si1 0.546678 0.544134 0.149414
Si Si2 0.137601 0.829510 0.459862
Si Si3 0.170324 0.923268 0.198493
Si Si4 0.081461 0.060206 0.189964
Si Si5 0.668535 0.512338 0.038521
Si Si6 0.250000 0.250000 0.548333
Si Si7 0.491010 0.827425 0.052171
Si Si8 0.360504 0.383189 0.557167
O O1 0.487454 0.482597 0.159834
O O2 0.572857 0.567750 0.227119
O O3 0.613700 0.519266 0.103094
O O4 0.508550 0.609007 0.107029
O O5 0.170937 0.750000 0.472255
O O6 0.115874 0.830306 0.377029
O O7 0.171132 0.907947 0.471385
O O8 0.066706 0.830569 0.507306
O O9 0.113402 0.886599 0.250000
O O10 0.250000 0.917652 0.228756
O O11 0.147012 0.004501 0.186697
O O12 0.097241 0.126424 0.139131
O O13 0.750000 0.532865 0.057142
O O14 0.638569 0.563795 0.977297
O O15 0.311078 0.314162 0.548527
O O16 0.504596 0.750000 0.086142
O O17 0.547239 0.835632 0.987420
#
# Coordination Sequence:
#
# PCOD9570138 Si02
#       8
#    16  16  16  16  16   4  16  16
#     4  10  21  36  58  85 112 144 196 237 288 344
#     4  10  20  34  56  84 107 142 196 229 278 341
#     4  11  21  34  52  79 113 149 186 222 271 335
#     4  11  20  38  58  84 109 149 190 241 279 341
#     4  10  19  36  60  82 104 144 188 248 285 331
#     4  12  24  40  52  94 110 156 194 238 284 372
#     4  11  21  37  55  82 115 151 184 235 290 340
#     4  11  22  37  61  79 113 149 195 236 288 345
#
# _framework density 17.567399999999999
#
# number of rings (size 3 to 8) (size 9 to 14) (size 15 to 20)
#    0.000    1.379    5.517    0.828    0.966    4.828 
#    1.241    1.379    0.000    3.310    0.000    0.000 
#    0.000    0.000    0.000    7.310    0.000    0.138 
#
# Total GULP energy -645834.501114 kJ/mol
# GULP energy per Si atom -5567.538803 kJ/mol
# Density = 1.752742 g / cm^3
# Si number density = 17.567400 Si / 1000 Ang^3
#
#
#
# Elastic Constant Matrix: (Units=GPa)
#
#
# Indices 1 2 3 4 5 6 
#
# 1 88.6572 26.2873 42.7722 0.0000 0.0000 0.0000
# 2 26.2873 88.6580 42.7726 0.0000 0.0000 0.0000
# 3 42.7722 42.7726 73.3516 0.0000 0.0000 0.0000
# 4 0.0000 0.0000 0.0000 -11.5238 0.0000 0.0000
# 5 0.0000 0.0000 0.0000 0.0000 -11.5301 0.0000
# 6 0.0000 0.0000 0.0000 0.0000 0.0000 9.8162
#
#
#
# Elastic Compliance Matrix: (Units=1/GPa)
#
#
# Indices 1 2 3 4 5 6 
#
# 1 0.015702 -0.000332 -0.008962 0.000000 0.000000 0.000000
# 2 -0.000332 0.015702 -0.008962 0.000000 0.000000 0.000000
# 3 -0.008962 -0.008962 0.024085 0.000000 0.000000 0.000000
# 4 0.000000 0.000000 0.000000 -0.086777 0.000000 0.000000
# 5 0.000000 0.000000 0.000000 0.000000 -0.086730 0.000000
# 6 0.000000 0.000000 0.000000 0.000000 0.000000 0.101873
#
#
# Mechanical properties :
#
#
# Convention : Reuss Voigt Hill
#
# Bulk Modulus (GPa) = 52.70003 52.70344 52.70174
# Shear Modulus (GPa) = 187.31643 6.60810 96.96226
#
# Velocity S-wave (km/s) = 10.33725 1.94158 7.43736
# Velocity P-wave (km/s) = 13.13553 5.92386 10.18907
#
# Compressibility (1/GPa) = 0.01897532
#
# Stress axis : x y z
#
# Youngs Moduli (GPa) = 63.68779 63.68802 41.51926
#
# Poissons Ratio (x) = 0.02113 0.37211
# Poissons Ratio (y) = 0.02112 0.37211
# Poissons Ratio (z) = 0.57079 0.57080
#
# Static dielectric constant tensor:
#      x y z
#    x 1.610660 0.000000 0.000000 
#    y 0.000000 1.610660 0.000000 
#    z 0.000000 0.000000 1.584380 
# 
# From -- ./inp_files/6664.got.cif
#   From: 2010.05.17/outbox.cif.g08.bks.cpg/sg137_4_cif.got.tgz:6664.got - 2010.05.20 13:01:12.
