data_PCOD9570896
_publ_section_title
;
Structure prediction by ZEFSAII (Michael W. Deem and Ramdas Pophale) SiO2 
 PCOD9570896
Probable space group: P 42/N C M
;
_chemical_formula_sum "Si O2"
_cell_formula_units_Z 88
_cell_length_a 11.352824
_cell_length_b 11.352824
_cell_length_c 30.032990
_cell_angle_alpha 90.000000
_cell_angle_beta 90.000000
_cell_angle_gamma 90.000000
_cell_volume 3870.850353
_symmetry_space_group_name_H-M "P 42/N C M"
_symmetry_group_IT_number 138
_space_group.IT_coordinate_system_code '2'
_symmetry_cell_setting 'tetragonal'
loop_
_space_group_symop_operation_xyz
x,y,z
1/2-y,x,1/2+z
1/2-x,1/2-y,z
y,1/2-x,1/2+z
1/2+x,-y,1/2-z
-x,1/2+y,1/2-z
1/2+y,1/2+x,-z
-y,-x,-z
-x,-y,-z
1/2+y,-x,1/2-z
1/2+x,1/2+y,-z
-y,1/2+x,1/2-z
1/2-x,y,1/2+z
x,1/2-y,1/2+z
1/2-y,1/2-x,z
y,x,z
loop_
_atom_site_type_symbol
_atom_site_label
_atom_site_fract_x
_atom_site_fract_y
_atom_site_fract_z
Si Si1 0.845143 0.654858 0.353178
Si Si2 0.860416 0.059400 0.546375
Si Si3 0.233886 0.579608 0.126989
Si Si4 0.322085 0.985314 0.391414
Si Si5 0.652340 0.652340 0.665176
Si Si6 0.074465 0.777619 0.270334
Si Si7 0.374220 0.374220 0.241880
O O1 0.750000 0.750000 0.336190
O O2 0.777597 0.554462 0.379156
O O3 0.905149 0.594852 0.309579
O O4 0.873411 0.126590 0.500000
O O5 0.893781 0.142846 0.588010
O O6 0.729648 0.017768 0.558709
O O7 0.949506 0.949506 0.545267
O O8 0.352151 0.657423 0.124063
O O9 0.189641 0.587857 0.177938
O O10 0.442103 0.057898 0.388233
O O11 0.225112 0.057621 0.363141
O O12 0.750000 0.750000 0.680762
O O13 0.592108 0.592108 0.707725
O O14 0.149341 0.865510 0.239677
O O15 0.938274 0.754526 0.258730
#
# Coordination Sequence:
#
# PCOD9570896 Si02
#       7
#     8  16  16  16   8  16   8
#     4  10  21  42  62  90 135 177 224 275 339 395
#     4  11  26  47  71 102 133 169 222 278 341 407
#     4  11  23  42  67  97 133 177 221 278 330 400
#     4  11  23  42  69  97 134 174 221 274 335 394
#     4  10  21  36  63  95 127 175 218 271 329 381
#     4  10  23  38  58  91 127 170 218 266 322 378
#     4  10  21  38  56  88 126 170 224 268 320 390
#
# _framework density 22.734022
#
# number of rings (size 3 to 8) (size 9 to 14) (size 15 to 20)
#    0.000    1.455    1.818    2.455    7.636    1.455 
#    9.818    0.909    0.000    0.000    0.000    0.000 
#    0.000    0.000    0.000    0.000    0.000    0.000 
#
# Total GULP energy -490969.510497 kJ/mol
# GULP energy per Si atom -5579.198983 kJ/mol
# Density = 2.268228 g / cm^3
# Si number density = 22.734022 Si / 1000 Ang^3
#
#
#
# Elastic Constant Matrix: (Units=GPa)
#
#
# Indices 1 2 3 4 5 6 
#
# 1 73.5104 28.1672 11.6548 0.0000 0.0000 0.0000
# 2 28.1672 73.5101 11.6546 0.0000 0.0000 0.0000
# 3 11.6548 11.6546 107.1148 0.0000 0.0000 0.0000
# 4 0.0000 0.0000 0.0000 22.1342 0.0000 0.0000
# 5 0.0000 0.0000 0.0000 0.0000 22.1347 0.0000
# 6 0.0000 0.0000 0.0000 0.0000 0.0000 32.8256
#
#
#
# Elastic Compliance Matrix: (Units=1/GPa)
#
#
# Indices 1 2 3 4 5 6 
#
# 1 0.016070 -0.005984 -0.001098 0.000000 0.000000 0.000000
# 2 -0.005984 0.016070 -0.001097 0.000000 0.000000 0.000000
# 3 -0.001098 -0.001097 0.009575 0.000000 0.000000 0.000000
# 4 0.000000 0.000000 0.000000 0.045179 0.000000 0.000000
# 5 0.000000 0.000000 0.000000 0.000000 0.045178 0.000000
# 6 0.000000 0.000000 0.000000 0.000000 0.000000 0.030464
#
#
# Mechanical properties :
#
#
# Convention : Reuss Voigt Hill
#
# Bulk Modulus (GPa) = 39.43542 39.67650 39.55596
# Shear Modulus (GPa) = 26.68857 28.92950 27.80903
#
# Velocity S-wave (km/s) = 3.43001 3.57111 3.50127
# Velocity P-wave (km/s) = 5.75071 5.87317 5.81227
#
# Compressibility (1/GPa) = 0.02535791
#
# Stress axis : x y z
#
# Youngs Moduli (GPa) = 62.22653 62.22630 104.44299
#
# Poissons Ratio (x) = 0.37235 0.11463
# Poissons Ratio (y) = 0.37235 0.11462
# Poissons Ratio (z) = 0.06829 0.06829
#
# Static dielectric constant tensor:
#      x y z
#    x 1.924830 0.000000 0.000000 
#    y 0.000000 1.924830 0.000000 
#    z 0.000000 0.000000 1.804290 
# 
# From -- ./inp_files/8108.got.cif
#   From: 2010.05.17/outbox.cif.g08.bks.cpg/sg138_5_cif.got.tgz:8108.got - 2010.05.20 13:08:53.
