data_PCOD9570811
_publ_section_title
;
Structure prediction by ZEFSAII (Michael W. Deem and Ramdas Pophale) SiO2 
 PCOD9570811
Probable space group: P 42/N C M
;
_chemical_formula_sum "Si O2"
_cell_formula_units_Z 112
_cell_length_a 15.341652
_cell_length_b 15.341652
_cell_length_c 23.781469
_cell_angle_alpha 90.000000
_cell_angle_beta 90.000000
_cell_angle_gamma 90.000000
_cell_volume 5597.356036
_symmetry_space_group_name_H-M "P 42/N C M"
_symmetry_group_IT_number 138
_space_group.IT_coordinate_system_code '2'
_symmetry_cell_setting 'tetragonal'
loop_
_space_group_symop_operation_xyz
x,y,z
1/2-y,x,1/2+z
1/2-x,1/2-y,z
y,1/2-x,1/2+z
1/2+x,-y,1/2-z
-x,1/2+y,1/2-z
1/2+y,1/2+x,-z
-y,-x,-z
-x,-y,-z
1/2+y,-x,1/2-z
1/2+x,1/2+y,-z
-y,1/2+x,1/2-z
1/2-x,y,1/2+z
x,1/2-y,1/2+z
1/2-y,1/2-x,z
y,x,z
loop_
_atom_site_type_symbol
_atom_site_label
_atom_site_fract_x
_atom_site_fract_y
_atom_site_fract_z
Si Si1 0.249971 0.112020 0.523445
Si Si2 0.828229 0.130337 0.749051
Si Si3 0.040322 0.877578 0.446141
Si Si4 0.123073 0.508440 0.849887
Si Si5 0.340675 0.714618 0.938041
Si Si6 0.072256 0.571323 0.359588
Si Si7 0.570674 0.792027 0.596368
O O1 0.328788 0.171213 0.550527
O O2 0.184503 0.184503 0.498125
O O3 0.291403 0.060139 0.471318
O O4 0.181723 0.047830 0.554822
O O5 0.727261 0.138968 0.766201
O O6 0.832155 0.071170 0.694233
O O7 0.887479 0.089389 0.798254
O O8 0.061479 0.938522 0.500000
O O9 0.064370 0.934649 0.392166
O O10 0.110537 0.803085 0.448145
O O11 0.196010 0.453629 0.883107
O O12 0.059457 0.440544 0.819833
O O13 0.250000 0.750000 0.910694
O O14 0.400667 0.649023 0.902350
O O15 0.323219 0.676782 0.000000
O O16 0.143473 0.497454 0.374185
O O17 0.978608 0.521393 0.364860
O O18 0.665993 0.834008 0.607382
#
# Coordination Sequence:
#
# PCOD9570811 Si02
#       7
#    16  16  16  16  16  16  16
#     4  10  21  37  57  85 123 165 206 250 307 372
#     4  11  24  42  66  89 117 156 205 258 320 380
#     4  12  22  36  58  89 125 162 206 254 306 371
#     4  12  24  39  62  92 124 159 208 261 315 374
#     4  11  22  37  60  89 127 167 202 245 306 373
#     4  11  23  40  62  88 122 158 205 261 309 368
#     4  10  20  36  58  87 123 159 200 253 310 362
#
# _framework density 20.009447999999999
#
# number of rings (size 3 to 8) (size 9 to 14) (size 15 to 20)
#    0.000    1.000    4.286    3.857    2.000    2.286 
#    0.000    0.000    0.000    0.000    0.000    0.000 
#    0.000    0.000    0.000    0.000    0.000    0.000 
#
# Total GULP energy -624114.842111 kJ/mol
# GULP energy per Si atom -5572.453947 kJ/mol
# Density = 1.996391 g / cm^3
# Si number density = 20.009448 Si / 1000 Ang^3
#
#
#
# Elastic Constant Matrix: (Units=GPa)
#
#
# Indices 1 2 3 4 5 6 
#
# 1 97.9047 84.6389 23.8765 0.0000 0.0000 0.0000
# 2 84.6389 97.9117 23.8765 0.0000 0.0000 0.0000
# 3 23.8765 23.8765 45.1892 0.0000 0.0000 0.0000
# 4 0.0000 0.0000 0.0000 -2.1665 0.0000 0.0000
# 5 0.0000 0.0000 0.0000 0.0000 -2.2028 0.0000
# 6 0.0000 0.0000 0.0000 0.0000 0.0000 60.2934
#
#
#
# Elastic Compliance Matrix: (Units=1/GPa)
#
#
# Indices 1 2 3 4 5 6 
#
# 1 0.040861 -0.034502 -0.003360 0.000000 0.000000 0.000000
# 2 -0.034502 0.040857 -0.003358 0.000000 0.000000 0.000000
# 3 -0.003360 -0.003358 0.025678 0.000000 0.000000 0.000000
# 4 0.000000 0.000000 0.000000 -0.461579 0.000000 0.000000
# 5 0.000000 0.000000 0.000000 0.000000 -0.453960 0.000000
# 6 0.000000 0.000000 0.000000 0.000000 0.000000 0.016586
#
#
# Mechanical properties :
#
#
# Convention : Reuss Voigt Hill
#
# Bulk Modulus (GPa) = 40.06879 56.19881 48.13380
# Shear Modulus (GPa) = -7.13472 18.42575 5.64551
#
# Velocity S-wave (km/s) = -1.89035 3.03785 1.68153
# Velocity P-wave (km/s) = 3.91201 6.36017 5.27995
#
# Compressibility (1/GPa) = 0.02495708
#
# Stress axis : x y z
#
# Youngs Moduli (GPa) = 24.47337 24.47536 38.94331
#
# Poissons Ratio (x) = 0.84446 0.13083
# Poissons Ratio (y) = 0.84439 0.13076
# Poissons Ratio (z) = 0.08222 0.08218
#
# Static dielectric constant tensor:
#      x y z
#    x 1.838960 0.000000 0.000000 
#    y 0.000000 1.838940 0.000000 
#    z 0.000000 0.000000 1.725740 
# 
# From -- ./inp_files/7093.got.cif
#   From: 2010.05.17/outbox.cif.g08.bks.cpg/sg138_4_cif.got.tgz:7093.got - 2010.05.20 13:08:53.
