data_PCOD9570557
_publ_section_title
;
Structure prediction by ZEFSAII (Michael W. Deem and Ramdas Pophale) SiO2 
 PCOD9570557
Probable space group: P 42/N C M
;
_chemical_formula_sum "Si O2"
_cell_formula_units_Z 112
_cell_length_a 24.358418
_cell_length_b 24.358418
_cell_length_c 9.035737
_cell_angle_alpha 90.000000
_cell_angle_beta 90.000000
_cell_angle_gamma 90.000000
_cell_volume 5361.196672
_symmetry_space_group_name_H-M "P 42/N C M"
_symmetry_group_IT_number 138
_space_group.IT_coordinate_system_code '2'
_symmetry_cell_setting 'tetragonal'
loop_
_space_group_symop_operation_xyz
x,y,z
1/2-y,x,1/2+z
1/2-x,1/2-y,z
y,1/2-x,1/2+z
1/2+x,-y,1/2-z
-x,1/2+y,1/2-z
1/2+y,1/2+x,-z
-y,-x,-z
-x,-y,-z
1/2+y,-x,1/2-z
1/2+x,1/2+y,-z
-y,1/2+x,1/2-z
1/2-x,y,1/2+z
x,1/2-y,1/2+z
1/2-y,1/2-x,z
y,x,z
loop_
_atom_site_type_symbol
_atom_site_label
_atom_site_fract_x
_atom_site_fract_y
_atom_site_fract_z
Si Si1 0.574388 0.367942 0.222279
Si Si2 0.675475 0.980517 0.861362
Si Si3 0.763992 0.530836 0.564769
Si Si4 0.400153 0.719074 0.031770
Si Si5 0.504072 0.077948 0.327098
Si Si6 0.957414 0.632261 0.373405
Si Si7 0.820520 0.386141 0.856973
O O1 0.592922 0.327201 0.093444
O O2 0.582936 0.431317 0.180864
O O3 0.508734 0.361577 0.240056
O O4 0.617521 0.361379 0.356325
O O5 0.713569 0.957504 0.727634
O O6 0.703013 0.955461 0.007741
O O7 0.613916 0.974904 0.800686
O O8 0.678607 0.047149 0.870937
O O9 0.766814 0.464230 0.562704
O O10 0.808142 0.553936 0.445508
O O11 0.368633 0.770307 0.960657
O O12 0.376237 0.699328 0.186897
O O13 0.484180 0.015821 0.313474
O O14 0.484323 0.101571 0.483617
O O15 0.905385 0.594616 0.328022
#
# Coordination Sequence:
#
# PCOD9570557 Si02
#       7
#    16  16  16  16  16  16  16
#     4  10  16  25  41  59  81 109 134 161 204 250
#     4   8  14  24  38  56  78 105 134 162 192 227
#     4   8  14  24  38  56  78 105 134 162 192 227
#     4   9  16  26  40  58  77  98 130 167 199 235
#     4   9  15  22  36  61  88 108 130 163 201 240
#     4   9  15  22  36  61  88 108 130 163 201 240
#     4   9  16  26  40  58  77  98 130 167 199 235
#
# _framework density 20.89086
#
# number of rings (size 3 to 8) (size 9 to 14) (size 15 to 20)
#    0.000    3.143    0.000    4.714    0.000    1.143 
#    0.000    0.714    0.000    3.000    0.000    2.000 
#    0.000   16.571    0.000    7.143    0.000    0.286 
#
# Total GULP energy -623920.471001 kJ/mol
# GULP energy per Si atom -5570.718491 kJ/mol
# Density = 2.084331 g / cm^3
# Si number density = 20.890860 Si / 1000 Ang^3
#
#
#
# Elastic Constant Matrix: (Units=GPa)
#
#
# Indices 1 2 3 4 5 6 
#
# 1 64.8061 25.2543 26.8152 0.0000 0.0000 0.0000
# 2 25.2543 64.8061 26.8152 0.0000 0.0000 0.0000
# 3 26.8152 26.8152 22.6110 0.0000 0.0000 0.0000
# 4 0.0000 0.0000 0.0000 14.1079 0.0000 0.0000
# 5 0.0000 0.0000 0.0000 0.0000 14.1079 0.0000
# 6 0.0000 0.0000 0.0000 0.0000 0.0000 9.3965
#
#
#
# Elastic Compliance Matrix: (Units=1/GPa)
#
#
# Indices 1 2 3 4 5 6 
#
# 1 0.031539 0.006256 -0.044823 0.000000 0.000000 0.000000
# 2 0.006256 0.031539 -0.044823 0.000000 0.000000 0.000000
# 3 -0.044823 -0.044823 0.150541 0.000000 0.000000 0.000000
# 4 0.000000 0.000000 0.000000 0.070882 0.000000 0.000000
# 5 0.000000 0.000000 0.000000 0.000000 0.070882 0.000000
# 6 0.000000 0.000000 0.000000 0.000000 0.000000 0.106422
#
#
# Mechanical properties :
#
#
# Convention : Reuss Voigt Hill
#
# Bulk Modulus (GPa) = 21.34951 34.44364 27.89658
# Shear Modulus (GPa) = 7.76157 12.41170 10.08664
#
# Velocity S-wave (km/s) = 1.92960 2.44010 2.19971
# Velocity P-wave (km/s) = 3.89951 4.94591 4.45355
#
# Compressibility (1/GPa) = 0.04683948
#
# Stress axis : x y z
#
# Youngs Moduli (GPa) = 31.70637 31.70637 6.64273
#
# Poissons Ratio (x) = -0.19836 0.29775
# Poissons Ratio (y) = -0.19836 0.29775
# Poissons Ratio (z) = 1.42118 1.42118
#
# Static dielectric constant tensor:
#      x y z
#    x 1.777520 0.000000 0.000000 
#    y 0.000000 1.777520 0.000000 
#    z 0.000000 0.000000 1.856250 
# 
# From -- ./inp_files/3303.got.cif
#   From: 2010.05.17/outbox.cif.g08.bks.cpg/sg138_2_cif.got.tgz:3303.got - 2010.05.20 13:08:53.
