data_PCOD9570930
_publ_section_title
;
Structure prediction by ZEFSAII (Michael W. Deem and Ramdas Pophale) SiO2 
 PCOD9570930
Probable space group: P 42/N C M
;
_chemical_formula_sum "Si O2"
_cell_formula_units_Z 64
_cell_length_a 13.303941
_cell_length_b 13.303941
_cell_length_c 19.252001
_cell_angle_alpha 90.000000
_cell_angle_beta 90.000000
_cell_angle_gamma 90.000000
_cell_volume 3407.504955
_symmetry_space_group_name_H-M "P 42/N C M"
_symmetry_group_IT_number 138
_space_group.IT_coordinate_system_code '2'
_symmetry_cell_setting 'tetragonal'
loop_
_space_group_symop_operation_xyz
x,y,z
1/2-y,x,1/2+z
1/2-x,1/2-y,z
y,1/2-x,1/2+z
1/2+x,-y,1/2-z
-x,1/2+y,1/2-z
1/2+y,1/2+x,-z
-y,-x,-z
-x,-y,-z
1/2+y,-x,1/2-z
1/2+x,1/2+y,-z
-y,1/2+x,1/2-z
1/2-x,y,1/2+z
x,1/2-y,1/2+z
1/2-y,1/2-x,z
y,x,z
loop_
_atom_site_type_symbol
_atom_site_label
_atom_site_fract_x
_atom_site_fract_y
_atom_site_fract_z
Si Si1 0.873394 0.261981 0.679287
Si Si2 0.858318 0.016659 0.944394
Si Si3 0.661318 0.008102 0.029947
Si Si4 0.956266 0.124996 0.315145
O O1 0.750000 0.250000 0.678834
O O2 0.907062 0.331658 0.616789
O O3 0.922345 0.152563 0.668005
O O4 0.924659 0.307385 0.748930
O O5 0.924164 0.075837 0.000000
O O6 0.758490 0.984740 0.985075
O O7 0.921991 0.921991 0.918063
O O8 0.681284 0.016551 0.112860
O O9 0.578399 0.921602 0.021746
O O10 0.610120 0.110120 0.000000
O O11 0.042808 0.042808 0.300962
#
# Coordination Sequence:
#
# PCOD9570930 Si02
#       4
#    16  16  16  16
#     4  12  22  39  62  91 120 166 206 248 310 371
#     4  11  25  39  59  94 127 159 202 262 316 365
#     4  10  21  39  62  86 116 161 210 253 304 369
#     4  11  22  37  61  90 121 155 203 254 302 364
#
# _framework density 18.782070000000001
#
# number of rings (size 3 to 8) (size 9 to 14) (size 15 to 20)
#    0.000    1.000    5.000    2.250    0.000    0.500 
#    0.000    0.000    0.000    3.750    0.000    0.000 
#    0.000    0.000    0.000    0.000    0.000    0.000 
#
# Total GULP energy -356637.520758 kJ/mol
# GULP energy per Si atom -5572.461262 kJ/mol
# Density = 1.873932 g / cm^3
# Si number density = 18.782070 Si / 1000 Ang^3
#
#
#
# Elastic Constant Matrix: (Units=GPa)
#
#
# Indices 1 2 3 4 5 6 
#
# 1 64.6602 53.9744 44.1960 0.0000 0.0000 0.0000
# 2 53.9744 64.6647 44.1973 0.0000 0.0000 0.0000
# 3 44.1960 44.1973 125.2744 0.0000 0.0000 0.0000
# 4 0.0000 0.0000 0.0000 31.1043 0.0000 0.0000
# 5 0.0000 0.0000 0.0000 0.0000 31.1042 0.0000
# 6 0.0000 0.0000 0.0000 0.0000 0.0000 30.3006
#
#
#
# Elastic Compliance Matrix: (Units=1/GPa)
#
#
# Indices 1 2 3 4 5 6 
#
# 1 0.052501 -0.041064 -0.004034 0.000000 0.000000 0.000000
# 2 -0.041064 0.052497 -0.004034 0.000000 0.000000 0.000000
# 3 -0.004034 -0.004034 0.010829 0.000000 0.000000 0.000000
# 4 0.000000 0.000000 0.000000 0.032150 0.000000 0.000000
# 5 0.000000 0.000000 0.000000 0.000000 0.032150 0.000000
# 6 0.000000 0.000000 0.000000 0.000000 0.000000 0.033003
#
#
# Mechanical properties :
#
#
# Convention : Reuss Voigt Hill
#
# Bulk Modulus (GPa) = 56.94141 59.92609 58.43375
# Shear Modulus (GPa) = 15.76052 25.98392 20.87222
#
# Velocity S-wave (km/s) = 2.89991 3.72350 3.33721
# Velocity P-wave (km/s) = 6.44945 7.10361 6.78441
#
# Compressibility (1/GPa) = 0.01756191
#
# Stress axis : x y z
#
# Youngs Moduli (GPa) = 19.04731 19.04870 92.34457
#
# Poissons Ratio (x) = 0.78222 0.37255
# Poissons Ratio (y) = 0.78216 0.37252
# Poissons Ratio (z) = 0.07684 0.07684
#
# Static dielectric constant tensor:
#      x y z
#    x 1.665400 0.000000 0.000000 
#    y 0.000000 1.665400 0.000000 
#    z 0.000000 0.000000 1.732660 
# 
# From -- ./inp_files/5849.got.cif
#   From: 2010.05.17/outbox.cif.g08.bks.cpg/sg138_3_cif.got.tgz:5849.got - 2010.05.20 13:08:53.
