data_PCOD9570806
_publ_section_title
;
Structure prediction by ZEFSAII (Michael W. Deem and Ramdas Pophale) SiO2 
 PCOD9570806
Probable space group: P 42/N C M
;
_chemical_formula_sum "Si O2"
_cell_formula_units_Z 112
_cell_length_a 14.477913
_cell_length_b 14.477913
_cell_length_c 26.705953
_cell_angle_alpha 90.000000
_cell_angle_beta 90.000000
_cell_angle_gamma 90.000000
_cell_volume 5597.833869
_symmetry_space_group_name_H-M "P 42/N C M"
_symmetry_group_IT_number 138
_space_group.IT_coordinate_system_code '2'
_symmetry_cell_setting 'tetragonal'
loop_
_space_group_symop_operation_xyz
x,y,z
1/2-y,x,1/2+z
1/2-x,1/2-y,z
y,1/2-x,1/2+z
1/2+x,-y,1/2-z
-x,1/2+y,1/2-z
1/2+y,1/2+x,-z
-y,-x,-z
-x,-y,-z
1/2+y,-x,1/2-z
1/2+x,1/2+y,-z
-y,1/2+x,1/2-z
1/2-x,y,1/2+z
x,1/2-y,1/2+z
1/2-y,1/2-x,z
y,x,z
loop_
_atom_site_type_symbol
_atom_site_label
_atom_site_fract_x
_atom_site_fract_y
_atom_site_fract_z
Si Si1 0.898048 0.745562 0.079504
Si Si2 0.101953 0.245562 0.079503
Si Si3 0.544867 0.112550 0.449916
Si Si4 0.527599 0.122394 0.645246
Si Si5 0.112550 0.955134 0.550084
Si Si6 0.622393 0.027600 0.145246
Si Si7 0.179268 0.613565 0.750000
O O1 0.836317 0.663684 0.054153
O O2 0.823648 0.823648 0.095125
O O3 0.977002 0.800151 0.050013
O O4 0.953585 0.695847 0.123838
O O5 0.176354 0.323647 0.095125
O O6 0.163684 0.163684 0.054151
O O7 0.046416 0.195847 0.123836
O O8 0.023000 0.300152 0.050012
O O9 0.604730 0.104730 0.500000
O O10 0.604232 0.102526 0.398938
O O11 0.477258 0.022742 0.449452
O O12 0.564673 0.152817 0.698438
O O13 0.473193 0.026808 0.652286
O O14 0.104730 0.895271 0.500000
O O15 0.102527 0.895769 0.601062
O O16 0.022741 0.022741 0.550548
O O17 0.652814 0.064674 0.198438
O O18 0.526807 0.973194 0.152285
O O19 0.129777 0.711972 0.749999
#
# Coordination Sequence:
#
# PCOD9570806 Si02
#       7
#    16  16  16  16  16  16  16
#     4   9  18  34  56  83 114 148 190 239 286 335
#     4   9  18  34  56  83 114 148 190 239 286 335
#     4   9  18  33  53  80 116 155 191 229 279 340
#     4  10  20  36  58  82 110 145 187 235 290 350
#     4   9  18  33  53  80 116 155 191 229 279 340
#     4  10  20  36  58  82 110 145 187 235 290 350
#     4  11  23  38  56  77 105 143 188 237 288 347
#
# _framework density 20.007738
#
# number of rings (size 3 to 8) (size 9 to 14) (size 15 to 20)
#    0.000    2.429    0.000    2.143    0.000    1.143 
#    0.000    6.429    0.000   15.429    0.000    2.000 
#    0.000    0.000    0.000    0.000    0.000    0.000 
#
# Total GULP energy -624861.895773 kJ/mol
# GULP energy per Si atom -5579.124069 kJ/mol
# Density = 1.996220 g / cm^3
# Si number density = 20.007738 Si / 1000 Ang^3
#
#
#
# Elastic Constant Matrix: (Units=GPa)
#
#
# Indices 1 2 3 4 5 6 
#
# 1 96.2923 53.3065 69.4503 0.0000 0.0000 0.0000
# 2 53.3065 96.2926 69.4504 0.0000 0.0000 0.0000
# 3 69.4503 69.4504 135.2931 0.0000 0.0000 0.0000
# 4 0.0000 0.0000 0.0000 17.9304 0.0000 0.0000
# 5 0.0000 0.0000 0.0000 0.0000 17.9298 0.0000
# 6 0.0000 0.0000 0.0000 0.0000 0.0000 29.5928
#
#
#
# Elastic Compliance Matrix: (Units=1/GPa)
#
#
# Indices 1 2 3 4 5 6 
#
# 1 0.018018 -0.005246 -0.006556 0.000000 0.000000 0.000000
# 2 -0.005246 0.018018 -0.006556 0.000000 0.000000 0.000000
# 3 -0.006556 -0.006556 0.014122 0.000000 0.000000 0.000000
# 4 0.000000 0.000000 0.000000 0.055771 0.000000 0.000000
# 5 0.000000 0.000000 0.000000 0.000000 0.055773 0.000000
# 6 0.000000 0.000000 0.000000 0.000000 0.000000 0.033792
#
#
# Mechanical properties :
#
#
# Convention : Reuss Voigt Hill
#
# Bulk Modulus (GPa) = 74.39756 79.14361 76.77058
# Shear Modulus (GPa) = 21.12459 22.13532 21.62995
#
# Velocity S-wave (km/s) = 3.25287 3.32977 3.29154
# Velocity P-wave (km/s) = 7.16752 7.37737 7.27320
#
# Compressibility (1/GPa) = 0.01344130
#
# Stress axis : x y z
#
# Youngs Moduli (GPa) = 55.50101 55.50116 70.80936
#
# Poissons Ratio (x) = 0.29114 0.46424
# Poissons Ratio (y) = 0.29114 0.46424
# Poissons Ratio (z) = 0.36388 0.36388
#
# Static dielectric constant tensor:
#      x y z
#    x 1.725150 0.000000 0.000000 
#    y 0.000000 1.725150 0.000000 
#    z 0.000000 0.000000 1.695240 
# 
# From -- ./inp_files/7068.got.cif
#   From: 2010.05.17/outbox.cif.g08.bks.cpg/sg138_4_cif.got.tgz:7068.got - 2010.05.20 13:08:53.
