data_PCOD9570339
_publ_section_title
;
Structure prediction by ZEFSAII (Michael W. Deem and Ramdas Pophale) SiO2 
 PCOD9570339
Probable space group: P 42/N M C
;
_chemical_formula_sum "Si O2"
_cell_formula_units_Z 48
_cell_length_a 15.817940
_cell_length_b 15.817940
_cell_length_c 8.395691
_cell_angle_alpha 90.000000
_cell_angle_beta 90.000000
_cell_angle_gamma 90.000000
_cell_volume 2100.662554
_symmetry_space_group_name_H-M "P 42/N M C"
_symmetry_group_IT_number 137
_space_group.IT_coordinate_system_code '2'
_symmetry_cell_setting 'tetragonal'
loop_
_space_group_symop_operation_xyz
x,y,z
1/2-y,x,1/2+z
1/2-x,1/2-y,z
y,1/2-x,1/2+z
1/2+x,-y,-z
-x,1/2+y,-z
1/2+y,1/2+x,1/2-z
-y,-x,1/2-z
-x,-y,-z
1/2+y,-x,1/2-z
1/2+x,1/2+y,-z
-y,1/2+x,1/2-z
1/2-x,y,z
x,1/2-y,z
1/2-y,1/2-x,1/2+z
y,x,1/2+z
loop_
_atom_site_type_symbol
_atom_site_label
_atom_site_fract_x
_atom_site_fract_y
_atom_site_fract_z
Si Si1 0.480519 0.342834 0.178361
Si Si2 0.654424 0.156686 0.986527
Si Si3 0.656414 0.973834 0.939211
O O1 0.446944 0.250000 0.130321
O O2 0.574243 0.347888 0.104583
O O3 0.479934 0.346345 0.369033
O O4 0.419592 0.416112 0.117579
O O5 0.750000 0.152870 0.060689
O O6 0.650046 0.250000 0.909868
O O7 0.649269 0.070942 0.885771
O O8 0.750000 0.941695 0.891868
#
# Coordination Sequence:
#
# PCOD9570339 Si02
#       3
#    16  16  16
#     4  10  21  36  56  82 109 141 181 222 267 318
#     4   9  18  34  57  84 112 141 176 220 269 323
#     4  10  21  36  56  82 109 141 181 222 267 318
#
# _framework density 22.849934000000001
#
# number of rings (size 3 to 8) (size 9 to 14) (size 15 to 20)
#    0.000    2.333    0.000    2.000    0.000    6.000 
#    0.000   13.333    0.000    6.000    0.000   14.000 
#    0.000    0.000    0.000    0.000    0.000    0.000 
#
# Total GULP energy -268143.528486 kJ/mol
# GULP energy per Si atom -5586.323510 kJ/mol
# Density = 2.279793 g / cm^3
# Si number density = 22.849934 Si / 1000 Ang^3
#
#
#
# Elastic Constant Matrix: (Units=GPa)
#
#
# Indices 1 2 3 4 5 6 
#
# 1 179.0092 127.0772 42.4108 0.0000 0.0000 0.0000
# 2 127.0772 179.0092 42.4108 0.0000 0.0000 0.0000
# 3 42.4108 42.4108 40.5107 0.0000 0.0000 0.0000
# 4 0.0000 0.0000 0.0000 28.1240 0.0000 0.0000
# 5 0.0000 0.0000 0.0000 0.0000 28.1240 0.0000
# 6 0.0000 0.0000 0.0000 0.0000 0.0000 54.9257
#
#
#
# Elastic Compliance Matrix: (Units=1/GPa)
#
#
# Indices 1 2 3 4 5 6 
#
# 1 0.011929 -0.007327 -0.004818 0.000000 0.000000 0.000000
# 2 -0.007327 0.011929 -0.004818 0.000000 0.000000 0.000000
# 3 -0.004818 -0.004818 0.034773 0.000000 0.000000 0.000000
# 4 0.000000 0.000000 0.000000 0.035557 0.000000 0.000000
# 5 0.000000 0.000000 0.000000 0.000000 0.035557 0.000000
# 6 0.000000 0.000000 0.000000 0.000000 0.000000 0.018206
#
#
# Mechanical properties :
#
#
# Convention : Reuss Voigt Hill
#
# Bulk Modulus (GPa) = 40.47745 91.36963 65.92354
# Shear Modulus (GPa) = 26.30023 34.67674 30.48848
#
# Velocity S-wave (km/s) = 3.39632 3.89985 3.65676
# Velocity P-wave (km/s) = 5.75612 7.76866 6.83685
#
# Compressibility (1/GPa) = 0.02470511
#
# Stress axis : x y z
#
# Youngs Moduli (GPa) = 83.82868 83.82868 28.75792
#
# Poissons Ratio (x) = 0.61420 0.13856
# Poissons Ratio (y) = 0.61420 0.13856
# Poissons Ratio (z) = 0.40389 0.40389
#
# Static dielectric constant tensor:
#      x y z
#    x 1.850660 0.000000 0.000000 
#    y 0.000000 1.850660 0.000000 
#    z 0.000000 0.000000 1.880100 
# 
# From -- ./inp_files/2902.got.cif
#   From: 2010.05.17/outbox.cif.g08.bks.cpg/sg137_2_cif.got.tgz:2902.got - 2010.05.20 13:01:12.
