data_PCOD9570939
_publ_section_title
;
Structure prediction by ZEFSAII (Michael W. Deem and Ramdas Pophale) SiO2 
 PCOD9570939
Probable space group: P 42/N C M
;
_chemical_formula_sum "Si O2"
_cell_formula_units_Z 96
_cell_length_a 22.020452
_cell_length_b 22.020452
_cell_length_c 8.420267
_cell_angle_alpha 90.000000
_cell_angle_beta 90.000000
_cell_angle_gamma 90.000000
_cell_volume 4082.990047
_symmetry_space_group_name_H-M "P 42/N C M"
_symmetry_group_IT_number 138
_space_group.IT_coordinate_system_code '2'
_symmetry_cell_setting 'tetragonal'
loop_
_space_group_symop_operation_xyz
x,y,z
1/2-y,x,1/2+z
1/2-x,1/2-y,z
y,1/2-x,1/2+z
1/2+x,-y,1/2-z
-x,1/2+y,1/2-z
1/2+y,1/2+x,-z
-y,-x,-z
-x,-y,-z
1/2+y,-x,1/2-z
1/2+x,1/2+y,-z
-y,1/2+x,1/2-z
1/2-x,y,1/2+z
x,1/2-y,1/2+z
1/2-y,1/2-x,z
y,x,z
loop_
_atom_site_type_symbol
_atom_site_label
_atom_site_fract_x
_atom_site_fract_y
_atom_site_fract_z
Si Si1 0.843515 0.751553 0.766262
Si Si2 0.287464 0.066154 0.987244
Si Si3 0.895119 0.506003 0.165816
Si Si4 0.702227 0.329541 0.317307
Si Si5 0.952726 0.645137 0.519787
Si Si6 0.617311 0.424984 0.176299
O O1 0.795473 0.704528 0.696895
O O2 0.800712 0.800712 0.855784
O O3 0.893221 0.711627 0.856538
O O4 0.882907 0.790898 0.647866
O O5 0.339219 0.017561 0.953762
O O6 0.217915 0.044532 0.978297
O O7 0.951765 0.548236 0.118154
O O8 0.873951 0.528364 0.341220
O O9 0.912330 0.436916 0.200264
O O10 0.684047 0.315954 0.500000
O O11 0.774405 0.325344 0.288848
O O12 0.675804 0.392125 0.249912
O O13 0.889330 0.610671 0.550981
O O14 0.003805 0.622685 0.641690
O O15 0.602797 0.397204 0.000000
#
# Coordination Sequence:
#
# PCOD9570939 Si02
#       6
#    16  16  16  16  16  16
#     4  11  22  36  56  84 120 162 205 256 318 374
#     4  12  22  37  60  86 121 160 212 266 312 372
#     4  10  21  40  64  91 124 166 217 265 315 376
#     4  11  23  43  70  98 132 165 201 252 313 380
#     4  10  21  40  64  91 124 166 217 265 315 376
#     4  10  22  41  68  97 127 165 210 257 316 381
#
# _framework density 23.512183
#
# number of rings (size 3 to 8) (size 9 to 14) (size 15 to 20)
#    0.000    1.333    1.667    5.500    2.333    3.333 
#    3.000    0.000    0.000    1.000    0.000    0.000 
#    0.000    0.000    0.000    0.000    0.000    0.000 
#
# Total GULP energy -536489.239635 kJ/mol
# GULP energy per Si atom -5588.429580 kJ/mol
# Density = 2.345867 g / cm^3
# Si number density = 23.512183 Si / 1000 Ang^3
#
#
#
# Elastic Constant Matrix: (Units=GPa)
#
#
# Indices 1 2 3 4 5 6 
#
# 1 48.0914 15.8704 -13.1362 0.0000 0.0000 0.0000
# 2 15.8704 48.0922 -13.1364 0.0000 0.0000 0.0000
# 3 -13.1362 -13.1364 60.1831 0.0000 0.0000 0.0000
# 4 0.0000 0.0000 0.0000 32.0432 0.0000 0.0000
# 5 0.0000 0.0000 0.0000 0.0000 32.0429 0.0000
# 6 0.0000 0.0000 0.0000 0.0000 0.0000 45.0852
#
#
#
# Elastic Compliance Matrix: (Units=1/GPa)
#
#
# Indices 1 2 3 4 5 6 
#
# 1 0.024105 -0.006931 0.003749 0.000000 0.000000 0.000000
# 2 -0.006931 0.024104 0.003749 0.000000 0.000000 0.000000
# 3 0.003749 0.003749 0.018252 0.000000 0.000000 0.000000
# 4 0.000000 0.000000 0.000000 0.031208 0.000000 0.000000
# 5 0.000000 0.000000 0.000000 0.000000 0.031208 0.000000
# 6 0.000000 0.000000 0.000000 0.000000 0.000000 0.022180
#
#
# Mechanical properties :
#
#
# Convention : Reuss Voigt Hill
#
# Bulk Modulus (GPa) = 14.79403 15.06246 14.92825
# Shear Modulus (GPa) = 28.99283 32.95216 30.97250
#
# Velocity S-wave (km/s) = 3.51536 3.74771 3.63339
# Velocity P-wave (km/s) = 4.77313 5.01471 4.89541
#
# Compressibility (1/GPa) = 0.06759482
#
# Stress axis : x y z
#
# Youngs Moduli (GPa) = 41.48551 41.48614 54.78732
#
# Poissons Ratio (x) = 0.28752 -0.20538
# Poissons Ratio (y) = 0.28752 -0.20538
# Poissons Ratio (z) = -0.15551 -0.15552
#
# Static dielectric constant tensor:
#      x y z
#    x 1.865420 0.000000 0.000000 
#    y 0.000000 1.865420 0.000000 
#    z 0.000000 0.000000 1.966800 
# 
# From -- ./inp_files/1752.got.cif
#   From: 2010.05.17/outbox.cif.g08.bks.cpg/sg138_1_cif.got.tgz:1752.got - 2010.05.20 13:08:53.
