data_PCOD9570724
_publ_section_title
;
Structure prediction by ZEFSAII (Michael W. Deem and Ramdas Pophale) SiO2 
 PCOD9570724
Probable space group: P 42/N C M
;
_chemical_formula_sum "Si O2"
_cell_formula_units_Z 56
_cell_length_a 15.785521
_cell_length_b 15.785521
_cell_length_c 9.928513
_cell_angle_alpha 90.000000
_cell_angle_beta 90.000000
_cell_angle_gamma 90.000000
_cell_volume 2474.013411
_symmetry_space_group_name_H-M "P 42/N C M"
_symmetry_group_IT_number 138
_space_group.IT_coordinate_system_code '2'
_symmetry_cell_setting 'tetragonal'
loop_
_space_group_symop_operation_xyz
x,y,z
1/2-y,x,1/2+z
1/2-x,1/2-y,z
y,1/2-x,1/2+z
1/2+x,-y,1/2-z
-x,1/2+y,1/2-z
1/2+y,1/2+x,-z
-y,-x,-z
-x,-y,-z
1/2+y,-x,1/2-z
1/2+x,1/2+y,-z
-y,1/2+x,1/2-z
1/2-x,y,1/2+z
x,1/2-y,1/2+z
1/2-y,1/2-x,z
y,x,z
loop_
_atom_site_type_symbol
_atom_site_label
_atom_site_fract_x
_atom_site_fract_y
_atom_site_fract_z
Si Si1 0.658910 0.519721 0.398715
Si Si2 0.345309 0.843435 0.757363
Si Si3 0.565800 0.696108 0.102492
Si Si4 0.911943 0.411943 0.500000
O O1 0.571170 0.571170 0.412993
O O2 0.644842 0.420866 0.362375
O O3 0.719587 0.539537 0.524033
O O4 0.703854 0.556185 0.263238
O O5 0.352301 0.749650 0.690600
O O6 0.352309 0.903857 0.629840
O O7 0.658447 0.658447 0.069971
O O8 0.499449 0.621415 0.062233
#
# Coordination Sequence:
#
# PCOD9570724 Si02
#       4
#    16  16  16   8
#     4  10  22  41  62  91 126 161 207 255 308 367
#     4  10  20  36  58  89 120 159 200 255 307 369
#     4  10  21  39  64  89 121 165 211 256 307 369
#     4  10  19  37  60  86 120 158 210 250 308 372
#
# _framework density 22.635287000000002
#
# number of rings (size 3 to 8) (size 9 to 14) (size 15 to 20)
#    0.000    2.000    2.857    0.429    0.000    5.143 
#    0.000    2.857    0.000    6.857    0.000    0.000 
#    0.000    0.000    0.000    0.000    0.000    0.000 
#
# Total GULP energy -312444.502569 kJ/mol
# GULP energy per Si atom -5579.366117 kJ/mol
# Density = 2.258377 g / cm^3
# Si number density = 22.635287 Si / 1000 Ang^3
#
#
#
# Elastic Constant Matrix: (Units=GPa)
#
#
# Indices 1 2 3 4 5 6 
#
# 1 57.4601 26.4670 4.8059 0.0000 0.0000 0.0000
# 2 26.4670 57.4601 4.8059 0.0000 0.0000 0.0000
# 3 4.8059 4.8059 68.3053 0.0000 0.0000 0.0000
# 4 0.0000 0.0000 0.0000 331.4786 0.0000 0.0000
# 5 0.0000 0.0000 0.0000 0.0000 331.4786 0.0000
# 6 0.0000 0.0000 0.0000 0.0000 0.0000 27.2858
#
#
#
# Elastic Compliance Matrix: (Units=1/GPa)
#
#
# Indices 1 2 3 4 5 6 
#
# 1 0.022139 -0.010127 -0.000845 0.000000 0.000000 0.000000
# 2 -0.010127 0.022139 -0.000845 0.000000 0.000000 0.000000
# 3 -0.000845 -0.000845 0.014759 0.000000 0.000000 0.000000
# 4 0.000000 0.000000 0.000000 0.003017 0.000000 0.000000
# 5 0.000000 0.000000 0.000000 0.000000 0.003017 0.000000
# 6 0.000000 0.000000 0.000000 0.000000 0.000000 0.036649
#
#
# Mechanical properties :
#
#
# Convention : Reuss Voigt Hill
#
# Bulk Modulus (GPa) = 28.24678 28.37592 28.31135
# Shear Modulus (GPa) = 36.45547 147.85839 92.15693
#
# Velocity S-wave (km/s) = 4.01753 8.09098 6.38766
# Velocity P-wave (km/s) = 5.83326 9.99242 8.18155
#
# Compressibility (1/GPa) = 0.03540226
#
# Stress axis : x y z
#
# Youngs Moduli (GPa) = 45.17006 45.17006 67.75486
#
# Poissons Ratio (x) = 0.45742 0.05726
# Poissons Ratio (y) = 0.45742 0.05726
# Poissons Ratio (z) = 0.03818 0.03818
#
# Static dielectric constant tensor:
#      x y z
#    x 1.904600 0.000000 0.000000 
#    y 0.000000 1.904600 0.000000 
#    z 0.000000 0.000000 1.811170 
# 
# From -- ./inp_files/1155.got.cif
#   From: 2010.05.17/outbox.cif.g08.bks.cpg/sg138_1_cif.got.tgz:1155.got - 2010.05.20 13:08:53.
