data_PCOD9570373
_publ_section_title
;
Structure prediction by ZEFSAII (Michael W. Deem and Ramdas Pophale) SiO2 
 PCOD9570373
Probable space group: P 42/N M C
;
_chemical_formula_sum "Si O2"
_cell_formula_units_Z 50
_cell_length_a 11.869566
_cell_length_b 11.869566
_cell_length_c 20.519522
_cell_angle_alpha 90.000000
_cell_angle_beta 90.000000
_cell_angle_gamma 90.000000
_cell_volume 2890.925627
_symmetry_space_group_name_H-M "P 42/N M C"
_symmetry_group_IT_number 137
_space_group.IT_coordinate_system_code '2'
_symmetry_cell_setting 'tetragonal'
loop_
_space_group_symop_operation_xyz
x,y,z
1/2-y,x,1/2+z
1/2-x,1/2-y,z
y,1/2-x,1/2+z
1/2+x,-y,-z
-x,1/2+y,-z
1/2+y,1/2+x,1/2-z
-y,-x,1/2-z
-x,-y,-z
1/2+y,-x,1/2-z
1/2+x,1/2+y,-z
-y,1/2+x,1/2-z
1/2-x,y,z
x,1/2-y,z
1/2-y,1/2-x,1/2+z
y,x,1/2+z
loop_
_atom_site_type_symbol
_atom_site_label
_atom_site_fract_x
_atom_site_fract_y
_atom_site_fract_z
Si Si1 0.250000 0.750000 0.250000
Si Si2 0.612973 0.750000 0.183921
Si Si3 0.621061 0.378784 0.469528
Si Si4 0.054710 0.979529 0.393099
Si Si5 0.989673 0.250000 0.680410
O O1 0.250000 0.862390 0.207995
O O2 0.750000 0.750000 0.175321
O O3 0.550142 0.642294 0.150912
O O4 0.577278 0.750000 0.259904
O O5 0.750000 0.379805 0.448605
O O6 0.583277 0.250000 0.478272
O O7 0.544959 0.440331 0.416916
O O8 0.612419 0.438991 0.539612
O O9 0.006050 0.866799 0.359353
#
# Coordination Sequence:
#
# PCOD9570373 Si02
#       5
#     2   8  16  16   8
#     4  12  20  36  68  92 108 160 204 252 286 352
#     4  12  24  38  58  86 122 158 198 249 301 358
#     4  10  21  37  60  85 118 160 195 243 299 367
#     4  11  21  38  58  89 118 153 199 250 304 355
#     4  12  22  38  64  88 118 156 206 253 303 359
#
# _framework density 17.295497999999998
#
# number of rings (size 3 to 8) (size 9 to 14) (size 15 to 20)
#    0.000    0.960    6.400    0.960    0.000    1.280 
#    0.000    0.000    0.000    0.000    0.000    4.480 
#    0.000    0.000    0.000    0.000    0.000    0.000 
#
# Total GULP energy -278970.511225 kJ/mol
# GULP energy per Si atom -5579.410225 kJ/mol
# Density = 1.725613 g / cm^3
# Si number density = 17.295498 Si / 1000 Ang^3
#
#
#
# Elastic Constant Matrix: (Units=GPa)
#
#
# Indices 1 2 3 4 5 6 
#
# 1 110.8179 47.8558 42.7181 0.0000 0.0000 0.0000
# 2 47.8558 110.8179 42.7181 0.0000 0.0000 0.0000
# 3 42.7181 42.7181 74.5187 0.0000 0.0000 0.0000
# 4 0.0000 0.0000 0.0000 26.9771 0.0000 0.0000
# 5 0.0000 0.0000 0.0000 0.0000 26.9771 0.0000
# 6 0.0000 0.0000 0.0000 0.0000 0.0000 23.1119
#
#
#
# Elastic Compliance Matrix: (Units=1/GPa)
#
#
# Indices 1 2 3 4 5 6 
#
# 1 0.012499 -0.003383 -0.005226 0.000000 0.000000 0.000000
# 2 -0.003383 0.012499 -0.005226 0.000000 0.000000 0.000000
# 3 -0.005226 -0.005226 0.019411 0.000000 0.000000 0.000000
# 4 0.000000 0.000000 0.000000 0.037068 0.000000 0.000000
# 5 0.000000 0.000000 0.000000 0.000000 0.037068 0.000000
# 6 0.000000 0.000000 0.000000 0.000000 0.000000 0.043268
#
#
# Mechanical properties :
#
#
# Convention : Reuss Voigt Hill
#
# Bulk Modulus (GPa) = 59.73813 62.52651 61.13232
# Shear Modulus (GPa) = 25.63265 26.27072 25.95169
#
# Velocity S-wave (km/s) = 3.85391 3.90158 3.87782
# Velocity P-wave (km/s) = 7.37686 7.51843 7.44798
#
# Compressibility (1/GPa) = 0.01673973
#
# Stress axis : x y z
#
# Youngs Moduli (GPa) = 80.00454 80.00454 51.51760
#
# Poissons Ratio (x) = 0.27068 0.26922
# Poissons Ratio (y) = 0.27068 0.26922
# Poissons Ratio (z) = 0.41809 0.41809
#
# Static dielectric constant tensor:
#      x y z
#    x 1.512070 0.000000 0.000000 
#    y 0.000000 1.512070 0.000000 
#    z 0.000000 0.000000 1.579640 
# 
# From -- ./inp_files/7125.got.cif
#   From: 2010.05.17/outbox.cif.g08.bks.cpg/sg137_4_cif.got.tgz:7125.got - 2010.05.20 13:01:12.
