data_PCOD9570791
_publ_section_title
;
Structure prediction by ZEFSAII (Michael W. Deem and Ramdas Pophale) SiO2 
 PCOD9570791
Probable space group: P 42/N C M
;
_chemical_formula_sum "Si O2"
_cell_formula_units_Z 64
_cell_length_a 11.782216
_cell_length_b 11.782216
_cell_length_c 22.221486
_cell_angle_alpha 90.000000
_cell_angle_beta 90.000000
_cell_angle_gamma 90.000000
_cell_volume 3084.800328
_symmetry_space_group_name_H-M "P 42/N C M"
_symmetry_group_IT_number 138
_space_group.IT_coordinate_system_code '2'
_symmetry_cell_setting 'tetragonal'
loop_
_space_group_symop_operation_xyz
x,y,z
1/2-y,x,1/2+z
1/2-x,1/2-y,z
y,1/2-x,1/2+z
1/2+x,-y,1/2-z
-x,1/2+y,1/2-z
1/2+y,1/2+x,-z
-y,-x,-z
-x,-y,-z
1/2+y,-x,1/2-z
1/2+x,1/2+y,-z
-y,1/2+x,1/2-z
1/2-x,y,1/2+z
x,1/2-y,1/2+z
1/2-y,1/2-x,z
y,x,z
loop_
_atom_site_type_symbol
_atom_site_label
_atom_site_fract_x
_atom_site_fract_y
_atom_site_fract_z
Si Si1 0.681528 0.068920 0.808341
Si Si2 0.803296 0.420605 0.677213
Si Si3 0.658297 0.841704 0.018829
Si Si4 0.659379 0.840622 0.876087
Si Si5 0.332778 0.519601 0.958901
O O1 0.668167 0.020411 0.740649
O O2 0.798837 0.138022 0.811421
O O3 0.590459 0.166252 0.824245
O O4 0.685995 0.966425 0.853941
O O5 0.846263 0.459301 0.612321
O O6 0.750000 0.750000 0.045302
O O7 0.533623 0.793285 0.034330
O O8 0.664120 0.835881 0.947316
O O9 0.750000 0.750000 0.851629
O O10 0.418538 0.418538 0.978162
O O11 0.373140 0.626861 0.000000
#
# Coordination Sequence:
#
# PCOD9570791 Si02
#       5
#    16  16   8   8  16
#     4   9  20  38  58  83 115 158 193 253 304 357
#     4   9  19  39  59  79 118 158 201 240 305 368
#     4   9  20  37  53  79 119 152 186 254 298 361
#     4  11  22  39  59  89 119 148 204 252 311 362
#     4  10  20  35  58  86 117 163 204 248 312 368
#
# _framework density 20.746886
#
# number of rings (size 3 to 8) (size 9 to 14) (size 15 to 20)
#    0.000    2.500    0.000    3.000    1.750    4.000 
#    9.000   10.000    0.000    0.000    0.000    0.000 
#    0.000    0.000    0.000    0.000    0.000    0.000 
#
# Total GULP energy -356271.341978 kJ/mol
# GULP energy per Si atom -5566.739718 kJ/mol
# Density = 2.069967 g / cm^3
# Si number density = 20.746886 Si / 1000 Ang^3
#
#
#
# Elastic Constant Matrix: (Units=GPa)
#
#
# Indices 1 2 3 4 5 6 
#
# 1 52.5124 39.7350 18.1199 0.0000 0.0000 0.0000
# 2 39.7350 52.5113 18.1198 0.0000 0.0000 0.0000
# 3 18.1199 18.1198 105.4650 0.0000 0.0000 0.0000
# 4 0.0000 0.0000 0.0000 25.7802 0.0000 0.0000
# 5 0.0000 0.0000 0.0000 0.0000 25.7800 0.0000
# 6 0.0000 0.0000 0.0000 0.0000 0.0000 29.6682
#
#
#
# Elastic Compliance Matrix: (Units=1/GPa)
#
#
# Indices 1 2 3 4 5 6 
#
# 1 0.044945 -0.033321 -0.001997 0.000000 0.000000 0.000000
# 2 -0.033321 0.044946 -0.001997 0.000000 0.000000 0.000000
# 3 -0.001997 -0.001997 0.010168 0.000000 0.000000 0.000000
# 4 0.000000 0.000000 0.000000 0.038789 0.000000 0.000000
# 5 0.000000 0.000000 0.000000 0.000000 0.038790 0.000000
# 6 0.000000 0.000000 0.000000 0.000000 0.000000 0.033706
#
#
# Mechanical properties :
#
#
# Convention : Reuss Voigt Hill
#
# Bulk Modulus (GPa) = 39.32492 40.27091 39.79792
# Shear Modulus (GPa) = 16.98070 25.21329 21.09700
#
# Velocity S-wave (km/s) = 2.86399 3.48987 3.19231
# Velocity P-wave (km/s) = 5.47105 5.97425 5.72818
#
# Compressibility (1/GPa) = 0.02542917
#
# Stress axis : x y z
#
# Youngs Moduli (GPa) = 22.24924 22.24880 98.34655
#
# Poissons Ratio (x) = 0.74134 0.19643
# Poissons Ratio (y) = 0.74136 0.19643
# Poissons Ratio (z) = 0.04444 0.04444
#
# Static dielectric constant tensor:
#      x y z
#    x 1.870170 0.000000 0.000000 
#    y 0.000000 1.870170 0.000000 
#    z 0.000000 0.000000 1.729500 
# 
# From -- ./inp_files/6797.got.cif
#   From: 2010.05.17/outbox.cif.g08.bks.cpg/sg138_4_cif.got.tgz:6797.got - 2010.05.20 13:08:53.
