data_PCOD9570665
_publ_section_title
;
Structure prediction by ZEFSAII (Michael W. Deem and Ramdas Pophale) SiO2 
 PCOD9570665
Probable space group: P 42/N C M
;
_chemical_formula_sum "Si O2"
_cell_formula_units_Z 112
_cell_length_a 15.594906
_cell_length_b 15.594906
_cell_length_c 23.336548
_cell_angle_alpha 90.000000
_cell_angle_beta 90.000000
_cell_angle_gamma 90.000000
_cell_volume 5675.473984
_symmetry_space_group_name_H-M "P 42/N C M"
_symmetry_group_IT_number 138
_space_group.IT_coordinate_system_code '2'
_symmetry_cell_setting 'tetragonal'
loop_
_space_group_symop_operation_xyz
x,y,z
1/2-y,x,1/2+z
1/2-x,1/2-y,z
y,1/2-x,1/2+z
1/2+x,-y,1/2-z
-x,1/2+y,1/2-z
1/2+y,1/2+x,-z
-y,-x,-z
-x,-y,-z
1/2+y,-x,1/2-z
1/2+x,1/2+y,-z
-y,1/2+x,1/2-z
1/2-x,y,1/2+z
x,1/2-y,1/2+z
1/2-y,1/2-x,z
y,x,z
loop_
_atom_site_type_symbol
_atom_site_label
_atom_site_fract_x
_atom_site_fract_y
_atom_site_fract_z
Si Si1 0.584877 0.446546 0.062040
Si Si2 0.242809 0.386745 0.056107
Si Si3 0.710404 0.457764 0.868855
Si Si4 0.589544 0.728925 0.072506
Si Si5 0.138262 0.506290 0.861809
Si Si6 0.612936 0.205996 0.752783
Si Si7 0.176607 0.822893 0.431476
O O1 0.492420 0.492420 0.060365
O O2 0.585281 0.377888 0.111388
O O3 0.654893 0.518076 0.071516
O O4 0.597420 0.402581 0.000000
O O5 0.154905 0.345096 0.077378
O O6 0.312929 0.312929 0.049159
O O7 0.282403 0.450995 0.101480
O O8 0.229517 0.418384 0.990941
O O9 0.716862 0.448911 0.801555
O O10 0.783919 0.405747 0.900838
O O11 0.679834 0.679834 0.078230
O O12 0.568434 0.794082 0.122913
O O13 0.160183 0.558663 0.803284
O O14 0.169258 0.579159 0.908539
O O15 0.044409 0.455592 0.863306
O O16 0.650746 0.301897 0.764686
O O17 0.250000 0.750000 0.415976
O O18 0.174974 0.825027 0.500000
#
# Coordination Sequence:
#
# PCOD9570665 Si02
#       7
#    16  16  16  16  16  16  16
#     4  10  19  32  58  97 130 158 210 271 318 374
#     4  10  21  37  59  90 128 170 211 255 320 397
#     4  12  22  37  65  91 124 165 213 271 326 385
#     4  10  20  38  64  94 134 176 213 264 337 409
#     4  12  26  44  65  99 137 173 227 284 344 407
#     4  11  24  47  70  91 122 173 230 273 330 401
#     4  11  24  40  65 100 134 176 221 274 336 408
#
# _framework density 19.734034999999999
#
# number of rings (size 3 to 8) (size 9 to 14) (size 15 to 20)
#    0.000    1.143    2.857    4.286    2.000    2.857 
#    0.000    1.429    0.000    0.000    0.000    0.000 
#    0.000    0.000    0.000    0.000    0.000    0.000 
#
# Total GULP energy -623933.469680 kJ/mol
# GULP energy per Si atom -5570.834551 kJ/mol
# Density = 1.968912 g / cm^3
# Si number density = 19.734035 Si / 1000 Ang^3
#
#
#
# Elastic Constant Matrix: (Units=GPa)
#
#
# Indices 1 2 3 4 5 6 
#
# 1 98.3796 29.9300 30.8245 0.0000 0.0000 0.0000
# 2 29.9300 98.3795 30.8243 0.0000 0.0000 0.0000
# 3 30.8245 30.8243 86.9599 0.0000 0.0000 0.0000
# 4 0.0000 0.0000 0.0000 121.8685 0.0000 0.0000
# 5 0.0000 0.0000 0.0000 0.0000 121.9823 0.0000
# 6 0.0000 0.0000 0.0000 0.0000 0.0000 38.7269
#
#
#
# Elastic Compliance Matrix: (Units=1/GPa)
#
#
# Indices 1 2 3 4 5 6 
#
# 1 0.012001 -0.002608 -0.003330 0.000000 0.000000 0.000000
# 2 -0.002608 0.012001 -0.003330 0.000000 0.000000 0.000000
# 3 -0.003330 -0.003330 0.013860 0.000000 0.000000 0.000000
# 4 0.000000 0.000000 0.000000 0.008206 0.000000 0.000000
# 5 0.000000 0.000000 0.000000 0.000000 0.008198 0.000000
# 6 0.000000 0.000000 0.000000 0.000000 0.000000 0.025822
#
#
# Mechanical properties :
#
#
# Convention : Reuss Voigt Hill
#
# Bulk Modulus (GPa) = 51.73756 51.87514 51.80635
# Shear Modulus (GPa) = 47.58940 69.32489 58.45715
#
# Velocity S-wave (km/s) = 4.91607 5.93345 5.44856
# Velocity P-wave (km/s) = 7.64840 8.56069 8.11737
#
# Compressibility (1/GPa) = 0.01932832
#
# Stress axis : x y z
#
# Youngs Moduli (GPa) = 83.32371 83.32379 72.14970
#
# Poissons Ratio (x) = 0.21730 0.24024
# Poissons Ratio (y) = 0.21730 0.24023
# Poissons Ratio (z) = 0.27744 0.27744
#
# Static dielectric constant tensor:
#      x y z
#    x 1.306940 0.000000 0.000000 
#    y 0.000000 1.306940 0.000000 
#    z 0.000000 0.000000 1.688360 
# 
# From -- ./inp_files/7061.got.cif
#   From: 2010.05.17/outbox.cif.g08.bks.cpg/sg138_4_cif.got.tgz:7061.got - 2010.05.20 13:08:53.
