data_PCOD9570302
_publ_section_title
;
Structure prediction by ZEFSAII (Michael W. Deem and Ramdas Pophale) SiO2 
 PCOD9570302
Probable space group: P 42/N M C
;
_chemical_formula_sum "Si O2"
_cell_formula_units_Z 48
_cell_length_a 9.997278
_cell_length_b 9.997278
_cell_length_c 27.464286
_cell_angle_alpha 90.000000
_cell_angle_beta 90.000000
_cell_angle_gamma 90.000000
_cell_volume 2744.933648
_symmetry_space_group_name_H-M "P 42/N M C"
_symmetry_group_IT_number 137
_space_group.IT_coordinate_system_code '2'
_symmetry_cell_setting 'tetragonal'
loop_
_space_group_symop_operation_xyz
x,y,z
1/2-y,x,1/2+z
1/2-x,1/2-y,z
y,1/2-x,1/2+z
1/2+x,-y,-z
-x,1/2+y,-z
1/2+y,1/2+x,1/2-z
-y,-x,1/2-z
-x,-y,-z
1/2+y,-x,1/2-z
1/2+x,1/2+y,-z
-y,1/2+x,1/2-z
1/2-x,y,z
x,1/2-y,z
1/2-y,1/2-x,1/2+z
y,x,1/2+z
loop_
_atom_site_type_symbol
_atom_site_label
_atom_site_fract_x
_atom_site_fract_y
_atom_site_fract_z
Si Si1 0.089792 0.750000 0.433224
Si Si2 0.905635 0.594455 0.718915
Si Si3 0.413379 0.750000 0.547456
Si Si4 0.090033 0.462312 0.395627
O O1 0.250000 0.750000 0.432753
O O2 0.053042 0.750000 0.490037
O O3 0.051010 0.615085 0.406036
O O4 0.750000 0.565375 0.729712
O O5 0.931344 0.750000 0.729678
O O6 0.924089 0.572431 0.661125
O O7 0.000407 0.500407 0.750000
O O8 0.250000 0.750000 0.553249
O O9 0.489045 0.626097 0.572673
O O10 0.250000 0.441761 0.407913
#
# Coordination Sequence:
#
# PCOD9570302 Si02
#       4
#     8  16   8  16
#     4   9  20  35  59  89 117 149 195 243 280 331
#     4  10  22  39  60  86 112 147 193 237 288 347
#     4  11  21  35  57  89 121 153 193 231 282 349
#     4  10  20  39  61  82 114 154 194 237 287 340
#
# _framework density 17.486761999999999
#
# number of rings (size 3 to 8) (size 9 to 14) (size 15 to 20)
#    0.000    2.000    1.667    1.500    2.333    2.000 
#    0.000    2.500    0.000    0.000    0.000    0.000 
#    0.000    0.000    0.000    0.000    0.000    0.000 
#
# Total GULP energy -267683.351052 kJ/mol
# GULP energy per Si atom -5576.736480 kJ/mol
# Density = 1.744696 g / cm^3
# Si number density = 17.486762 Si / 1000 Ang^3
#
#
#
# Elastic Constant Matrix: (Units=GPa)
#
#
# Indices 1 2 3 4 5 6 
#
# 1 105.9782 63.3853 44.4537 0.0000 0.0000 0.0000
# 2 63.3853 105.9782 44.4537 0.0000 0.0000 0.0000
# 3 44.4537 44.4537 50.6150 0.0000 0.0000 0.0000
# 4 0.0000 0.0000 0.0000 22.3045 0.0000 0.0000
# 5 0.0000 0.0000 0.0000 0.0000 22.3045 0.0000
# 6 0.0000 0.0000 0.0000 0.0000 0.0000 23.9441
#
#
#
# Elastic Compliance Matrix: (Units=1/GPa)
#
#
# Indices 1 2 3 4 5 6 
#
# 1 0.017217 -0.006261 -0.009622 0.000000 0.000000 0.000000
# 2 -0.006261 0.017217 -0.009622 0.000000 0.000000 0.000000
# 3 -0.009622 -0.009622 0.036658 0.000000 0.000000 0.000000
# 4 0.000000 0.000000 0.000000 0.044834 0.000000 0.000000
# 5 0.000000 0.000000 0.000000 0.000000 0.044834 0.000000
# 6 0.000000 0.000000 0.000000 0.000000 0.000000 0.041764
#
#
# Mechanical properties :
#
#
# Convention : Reuss Voigt Hill
#
# Bulk Modulus (GPa) = 49.79670 63.01742 56.40706
# Shear Modulus (GPa) = 19.21395 21.06253 20.13824
#
# Velocity S-wave (km/s) = 3.31837 3.47433 3.39725
# Velocity P-wave (km/s) = 6.57425 7.22566 6.90763
#
# Compressibility (1/GPa) = 0.02008165
#
# Stress axis : x y z
#
# Youngs Moduli (GPa) = 58.08283 58.08283 27.27906
#
# Poissons Ratio (x) = 0.36368 0.26248
# Poissons Ratio (y) = 0.36368 0.26248
# Poissons Ratio (z) = 0.55886 0.55886
#
# Static dielectric constant tensor:
#      x y z
#    x 1.859680 0.000000 0.000000 
#    y 0.000000 1.859680 0.000000 
#    z 0.000000 0.000000 1.573310 
# 
# From -- ./inp_files/10015.got.cif
#   From: 2010.05.17/outbox.cif.g08.bks.cpg/sg137_6_cif.got.tgz:10015.got - 2010.05.20 13:01:12.
