data_PCOD9570638
_publ_section_title
;
Structure prediction by ZEFSAII (Michael W. Deem and Ramdas Pophale) SiO2 
 PCOD9570638
Probable space group: P 42/N C M
;
_chemical_formula_sum "Si O2"
_cell_formula_units_Z 100
_cell_length_a 31.038835
_cell_length_b 31.038835
_cell_length_c 7.864905
_cell_angle_alpha 90.000000
_cell_angle_beta 90.000000
_cell_angle_gamma 90.000000
_cell_volume 7577.122449
_symmetry_space_group_name_H-M "P 42/N C M"
_symmetry_group_IT_number 138
_space_group.IT_coordinate_system_code '2'
_symmetry_cell_setting 'tetragonal'
loop_
_space_group_symop_operation_xyz
x,y,z
1/2-y,x,1/2+z
1/2-x,1/2-y,z
y,1/2-x,1/2+z
1/2+x,-y,1/2-z
-x,1/2+y,1/2-z
1/2+y,1/2+x,-z
-y,-x,-z
-x,-y,-z
1/2+y,-x,1/2-z
1/2+x,1/2+y,-z
-y,1/2+x,1/2-z
1/2-x,y,1/2+z
x,1/2-y,1/2+z
1/2-y,1/2-x,z
y,x,z
loop_
_atom_site_type_symbol
_atom_site_label
_atom_site_fract_x
_atom_site_fract_y
_atom_site_fract_z
Si Si1 0.683292 0.816709 0.206897
Si Si2 0.316711 0.183290 0.207053
Si Si3 0.250000 0.250000 0.750084
Si Si4 0.798611 0.916280 0.702211
Si Si5 0.457856 0.385563 0.808022
Si Si6 0.916283 0.798615 0.297663
Si Si7 0.614444 0.957850 0.307907
Si Si8 0.928277 0.002248 0.499952
O O1 0.714791 0.785210 0.309417
O O2 0.633927 0.806130 0.247343
O O3 0.689882 0.810119 0.999921
O O4 0.285212 0.214789 0.309574
O O5 0.366078 0.193865 0.247489
O O6 0.749998 0.928297 0.749932
O O7 0.804361 0.919662 0.499939
O O8 0.836104 0.944174 0.786599
O O9 0.414926 0.414926 0.779541
O O10 0.444180 0.336110 0.786698
O O11 0.491854 0.400410 0.666960
O O12 0.472640 0.393962 0.000063
O O13 0.585081 0.914920 0.279431
O O14 0.599600 0.991846 0.166828
O O15 0.951908 0.048093 0.500000
O O16 0.966484 0.966484 0.499952
#
# Coordination Sequence:
#
# PCOD9570638 Si02
#       8
#     8   8   4  16  16  16  16  16
#     4  10  21  29  41  52  71 103 136 184 238 271
#     4  10  21  29  41  52  71 103 136 184 238 271
#     4  12  18  36  36  50  76  92 146 204 234 274
#     4  11  20  32  44  60  80 107 145 182 222 271
#     4  10  19  31  48  66  86 111 138 171 216 269
#     4  11  20  32  44  60  80 107 145 182 222 271
#     4  10  19  31  48  66  86 111 138 171 216 269
#     4   9  18  32  50  70  90 108 130 166 215 272
#
# _framework density 13.197623
#
# number of rings (size 3 to 8) (size 9 to 14) (size 15 to 20)
#    0.000    1.760    4.800    1.200    0.000    0.640 
#    0.000    3.200    0.000    0.000    0.000    0.000 
#    0.000    0.000    0.000    0.000    0.000    0.000 
#
# Total GULP energy -557541.174693 kJ/mol
# GULP energy per Si atom -5575.411747 kJ/mol
# Density = 1.316758 g / cm^3
# Si number density = 13.197623 Si / 1000 Ang^3
#
#
#
# Elastic Constant Matrix: (Units=GPa)
#
#
# Indices 1 2 3 4 5 6 
#
# 1 55.5771 42.1444 34.5855 0.0000 0.0000 0.0000
# 2 42.1444 55.5759 34.5851 0.0000 0.0000 0.0000
# 3 34.5855 34.5851 75.7811 0.0000 0.0000 0.0000
# 4 0.0000 0.0000 0.0000 7.7164 0.0000 0.0000
# 5 0.0000 0.0000 0.0000 0.0000 7.7147 0.0000
# 6 0.0000 0.0000 0.0000 0.0000 0.0000 29.0077
#
#
#
# Elastic Compliance Matrix: (Units=1/GPa)
#
#
# Indices 1 2 3 4 5 6 
#
# 1 0.044782 -0.029666 -0.006899 0.000000 0.000000 0.000000
# 2 -0.029666 0.044783 -0.006899 0.000000 0.000000 0.000000
# 3 -0.006899 -0.006899 0.019493 0.000000 0.000000 0.000000
# 4 0.000000 0.000000 0.000000 0.129593 0.000000 0.000000
# 5 0.000000 0.000000 0.000000 0.000000 0.129623 0.000000
# 6 0.000000 0.000000 0.000000 0.000000 0.000000 0.034474
#
#
# Mechanical properties :
#
#
# Convention : Reuss Voigt Hill
#
# Bulk Modulus (GPa) = 45.18682 45.50712 45.34697
# Shear Modulus (GPa) = 10.05930 13.92904 11.99417
#
# Velocity S-wave (km/s) = 2.76380 3.25225 3.01792
# Velocity P-wave (km/s) = 6.67066 6.97560 6.82483
#
# Compressibility (1/GPa) = 0.02213035
#
# Stress axis : x y z
#
# Youngs Moduli (GPa) = 22.33037 22.32988 51.30027
#
# Poissons Ratio (x) = 0.66244 0.35392
# Poissons Ratio (y) = 0.66245 0.35392
# Poissons Ratio (z) = 0.15406 0.15405
#
# Static dielectric constant tensor:
#      x y z
#    x 1.410470 0.000000 0.000000 
#    y 0.000000 1.410480 0.000000 
#    z 0.000000 0.000000 1.492550 
# 
# From -- ./inp_files/1957.got.cif
#   From: 2010.05.17/outbox.cif.g08.bks.cpg/sg138_1_cif.got.tgz:1957.got - 2010.05.20 13:08:53.
