data_PCOD9570592
_publ_section_title
;
Structure prediction by ZEFSAII (Michael W. Deem and Ramdas Pophale) SiO2 
 PCOD9570592
Probable space group: P 42/N C M
;
_chemical_formula_sum "Si O2"
_cell_formula_units_Z 112
_cell_length_a 13.932263
_cell_length_b 13.932263
_cell_length_c 32.294586
_cell_angle_alpha 90.000000
_cell_angle_beta 90.000000
_cell_angle_gamma 90.000000
_cell_volume 6268.635959
_symmetry_space_group_name_H-M "P 42/N C M"
_symmetry_group_IT_number 138
_space_group.IT_coordinate_system_code '2'
_symmetry_cell_setting 'tetragonal'
loop_
_space_group_symop_operation_xyz
x,y,z
1/2-y,x,1/2+z
1/2-x,1/2-y,z
y,1/2-x,1/2+z
1/2+x,-y,1/2-z
-x,1/2+y,1/2-z
1/2+y,1/2+x,-z
-y,-x,-z
-x,-y,-z
1/2+y,-x,1/2-z
1/2+x,1/2+y,-z
-y,1/2+x,1/2-z
1/2-x,y,1/2+z
x,1/2-y,1/2+z
1/2-y,1/2-x,z
y,x,z
loop_
_atom_site_type_symbol
_atom_site_label
_atom_site_fract_x
_atom_site_fract_y
_atom_site_fract_z
Si Si1 0.624215 0.034091 0.223573
Si Si2 0.810265 0.526362 0.022786
Si Si3 0.838519 0.378429 0.631670
Si Si4 0.881965 0.329738 0.145702
Si Si5 0.540400 0.379735 0.559908
Si Si6 0.850284 0.005224 0.210414
Si Si7 0.546300 0.388049 0.956613
O O1 0.598263 0.103678 0.184911
O O2 0.738129 0.013236 0.222777
O O3 0.584763 0.090822 0.263475
O O4 0.563534 0.936467 0.219783
O O5 0.878724 0.621277 0.027185
O O6 0.865520 0.437341 0.044609
O O7 0.703525 0.525475 0.040468
O O8 0.805469 0.494998 0.974636
O O9 0.724672 0.359963 0.631108
O O10 0.880643 0.283559 0.653641
O O11 0.857287 0.467540 0.661892
O O12 0.874507 0.391722 0.584952
O O13 0.948322 0.344536 0.106129
O O14 0.460200 0.460200 0.558705
O O15 0.904242 0.904242 0.218239
O O16 0.484138 0.484138 0.952811
O O17 0.604263 0.395738 0.000000
#
# Coordination Sequence:
#
# PCOD9570592 Si02
#       7
#    16  16  16  16  16  16  16
#     4  10  21  36  58  86 113 145 184 228 275 330
#     4   9  18  32  49  70  98 136 176 216 275 332
#     4  10  20  33  51  75 103 139 179 218 272 328
#     4  10  18  31  52  79 104 132 173 226 271 321
#     4   9  16  29  49  72 101 130 164 224 278 318
#     4  10  21  38  57  80 113 148 184 227 275 332
#     4  11  22  35  49  70 104 140 180 229 269 321
#
# _framework density 17.866727000000001
#
# number of rings (size 3 to 8) (size 9 to 14) (size 15 to 20)
#    0.000    2.143    1.429    3.429    0.000    2.000 
#    0.000    0.000    0.000    1.714    0.000    0.000 
#    0.000   20.571    0.000    0.000    0.000    0.000 
#
# Total GULP energy -623893.651907 kJ/mol
# GULP energy per Si atom -5570.479035 kJ/mol
# Density = 1.782606 g / cm^3
# Si number density = 17.866727 Si / 1000 Ang^3
#
#
#
# Elastic Constant Matrix: (Units=GPa)
#
#
# Indices 1 2 3 4 5 6 
#
# 1 68.4904 23.5848 26.5617 0.0000 0.0000 0.0000
# 2 23.5848 68.4905 26.5616 0.0000 0.0000 0.0000
# 3 26.5617 26.5616 82.8205 0.0000 0.0000 0.0000
# 4 0.0000 0.0000 0.0000 12.4380 0.0000 0.0000
# 5 0.0000 0.0000 0.0000 0.0000 12.4374 0.0000
# 6 0.0000 0.0000 0.0000 0.0000 0.0000 12.6378
#
#
#
# Elastic Compliance Matrix: (Units=1/GPa)
#
#
# Indices 1 2 3 4 5 6 
#
# 1 0.017798 -0.004471 -0.004274 0.000000 0.000000 0.000000
# 2 -0.004471 0.017798 -0.004274 0.000000 0.000000 0.000000
# 3 -0.004274 -0.004274 0.014816 0.000000 0.000000 0.000000
# 4 0.000000 0.000000 0.000000 0.080399 0.000000 0.000000
# 5 0.000000 0.000000 0.000000 0.000000 0.080402 0.000000
# 6 0.000000 0.000000 0.000000 0.000000 0.000000 0.079128
#
#
# Mechanical properties :
#
#
# Convention : Reuss Voigt Hill
#
# Bulk Modulus (GPa) = 41.02917 41.46862 41.24890
# Shear Modulus (GPa) = 15.40819 17.04221 16.22520
#
# Velocity S-wave (km/s) = 2.93984 3.09180 3.01678
# Velocity P-wave (km/s) = 5.87686 6.00050 5.93900
#
# Compressibility (1/GPa) = 0.02437290
#
# Stress axis : x y z
#
# Youngs Moduli (GPa) = 56.18676 56.18690 67.49562
#
# Poissons Ratio (x) = 0.25122 0.28848
# Poissons Ratio (y) = 0.25122 0.28848
# Poissons Ratio (z) = 0.24014 0.24014
#
# Static dielectric constant tensor:
#      x y z
#    x 3.447840 0.000000 0.000000 
#    y 0.000000 3.448220 0.000000 
#    z 0.000000 0.000000 1.635440 
# 
# From -- ./inp_files/8271.got.cif
#   From: 2010.05.17/outbox.cif.g08.bks.cpg/sg138_5_cif.got.tgz:8271.got - 2010.05.20 13:08:53.
