data_PCOD9570099
_publ_section_title
;
Structure prediction by ZEFSAII (Michael W. Deem and Ramdas Pophale) SiO2 
 PCOD9570099
Probable space group: P 42/N M C
;
_chemical_formula_sum "Si O2"
_cell_formula_units_Z 96
_cell_length_a 14.314550
_cell_length_b 14.314550
_cell_length_c 18.080856
_cell_angle_alpha 90.000000
_cell_angle_beta 90.000000
_cell_angle_gamma 90.000000
_cell_volume 3704.882058
_symmetry_space_group_name_H-M "P 42/N M C"
_symmetry_group_IT_number 137
_space_group.IT_coordinate_system_code '2'
_symmetry_cell_setting 'tetragonal'
loop_
_space_group_symop_operation_xyz
x,y,z
1/2-y,x,1/2+z
1/2-x,1/2-y,z
y,1/2-x,1/2+z
1/2+x,-y,-z
-x,1/2+y,-z
1/2+y,1/2+x,1/2-z
-y,-x,1/2-z
-x,-y,-z
1/2+y,-x,1/2-z
1/2+x,1/2+y,-z
-y,1/2+x,1/2-z
1/2-x,y,z
x,1/2-y,z
1/2-y,1/2-x,1/2+z
y,x,1/2+z
loop_
_atom_site_type_symbol
_atom_site_label
_atom_site_fract_x
_atom_site_fract_y
_atom_site_fract_z
Si Si1 0.473028 0.641629 0.700498
Si Si2 0.887782 0.141188 0.602428
Si Si3 0.401058 0.355228 0.590067
Si Si4 0.021949 0.149294 0.798474
Si Si5 0.644457 0.070029 0.432844
Si Si6 0.148504 0.349343 0.436846
O O1 0.385128 0.614873 0.750000
O O2 0.495611 0.750000 0.707239
O O3 0.558875 0.577222 0.731251
O O4 0.436492 0.616389 0.617751
O O5 0.859442 0.250000 0.596765
O O6 0.870221 0.091814 0.521436
O O7 0.997023 0.138899 0.623577
O O8 0.850500 0.084442 0.673594
O O9 0.360567 0.250000 0.607310
O O10 0.357084 0.459457 0.591649
O O11 0.422610 0.350333 0.502240
O O12 0.045158 0.250000 0.764336
O O13 0.070839 0.146646 0.879120
O O14 0.750000 0.104354 0.416673
O O15 0.250000 0.352907 0.475618
O O16 0.144557 0.250000 0.397082
#
# Coordination Sequence:
#
# PCOD9570099 Si02
#       6
#    16  16  16  16  16  16
#     4  12  28  50  72  96 130 176 232 285 333 390
#     4  11  22  37  61  98 144 184 220 272 340 414
#     4  10  19  33  55  88 133 178 219 267 329 395
#     4  11  22  41  69 100 132 168 219 281 340 400
#     4  12  23  39  64  97 140 186 230 274 333 407
#     4   9  16  27  49  85 126 165 206 258 321 388
#
# _framework density 25.911756
#
# number of rings (size 3 to 8) (size 9 to 14) (size 15 to 20)
#    0.000    1.167    3.333    4.000    0.000    6.500 
#    0.000    1.667    0.000    2.000    0.000    0.000 
#    0.000    0.000    0.000    0.000    0.000    0.000 
#
# Total GULP energy -534902.298269 kJ/mol
# GULP energy per Si atom -5571.898940 kJ/mol
# Density = 2.585278 g / cm^3
# Si number density = 25.911756 Si / 1000 Ang^3
#
#
#
# Elastic Constant Matrix: (Units=GPa)
#
#
# Indices 1 2 3 4 5 6 
#
# 1 145.9278 44.2816 25.6531 0.0000 0.0000 0.0000
# 2 44.2816 145.9252 25.6528 0.0000 0.0000 0.0000
# 3 25.6531 25.6528 85.4898 0.0000 0.0000 0.0000
# 4 0.0000 0.0000 0.0000 20.4621 0.0000 0.0000
# 5 0.0000 0.0000 0.0000 0.0000 20.4622 0.0000
# 6 0.0000 0.0000 0.0000 0.0000 0.0000 14.5678
#
#
#
# Elastic Compliance Matrix: (Units=1/GPa)
#
#
# Indices 1 2 3 4 5 6 
#
# 1 0.007779 -0.002059 -0.001717 0.000000 0.000000 0.000000
# 2 -0.002059 0.007779 -0.001717 0.000000 0.000000 0.000000
# 3 -0.001717 -0.001717 0.012727 0.000000 0.000000 0.000000
# 4 0.000000 0.000000 0.000000 0.048871 0.000000 0.000000
# 5 0.000000 0.000000 0.000000 0.000000 0.048871 0.000000
# 6 0.000000 0.000000 0.000000 0.000000 0.000000 0.068644
#
#
# Mechanical properties :
#
#
# Convention : Reuss Voigt Hill
#
# Bulk Modulus (GPa) = 57.79621 63.16865 60.48243
# Shear Modulus (GPa) = 23.64926 29.88211 26.76569
#
# Velocity S-wave (km/s) = 3.02434 3.39960 3.21745
# Velocity P-wave (km/s) = 5.87784 6.31198 6.09877
#
# Compressibility (1/GPa) = 0.01730217
#
# Stress axis : x y z
#
# Youngs Moduli (GPa) = 128.54753 128.54536 78.57028
#
# Poissons Ratio (x) = 0.26466 0.13487
# Poissons Ratio (y) = 0.26466 0.13487
# Poissons Ratio (z) = 0.22065 0.22065
#
# Static dielectric constant tensor:
#      x y z
#    x 2.137730 0.000000 0.000000 
#    y 0.000000 2.137740 0.000000 
#    z 0.000000 0.000000 2.063130 
# 
# From -- ./inp_files/7870.got.cif
#   From: 2010.05.17/outbox.cif.g08.bks.cpg/sg137_4_cif.got.tgz:7870.got - 2010.05.20 13:01:12.
