data_PCOD9570050
_publ_section_title
;
Structure prediction by ZEFSAII (Michael W. Deem and Ramdas Pophale) SiO2 
 PCOD9570050
Probable space group: P 42/N M C
;
_chemical_formula_sum "Si O2"
_cell_formula_units_Z 112
_cell_length_a 14.170947
_cell_length_b 14.170947
_cell_length_c 27.409856
_cell_angle_alpha 90.000000
_cell_angle_beta 90.000000
_cell_angle_gamma 90.000000
_cell_volume 5504.330485
_symmetry_space_group_name_H-M "P 42/N M C"
_symmetry_group_IT_number 137
_space_group.IT_coordinate_system_code '2'
_symmetry_cell_setting 'tetragonal'
loop_
_space_group_symop_operation_xyz
x,y,z
1/2-y,x,1/2+z
1/2-x,1/2-y,z
y,1/2-x,1/2+z
1/2+x,-y,-z
-x,1/2+y,-z
1/2+y,1/2+x,1/2-z
-y,-x,1/2-z
-x,-y,-z
1/2+y,-x,1/2-z
1/2+x,1/2+y,-z
-y,1/2+x,1/2-z
1/2-x,y,z
x,1/2-y,z
1/2-y,1/2-x,1/2+z
y,x,1/2+z
loop_
_atom_site_type_symbol
_atom_site_label
_atom_site_fract_x
_atom_site_fract_y
_atom_site_fract_z
Si Si1 0.858787 0.362083 0.466533
Si Si2 0.027566 0.642428 0.779727
Si Si3 0.537001 0.649489 0.241398
Si Si4 0.640788 0.447570 0.138229
Si Si5 0.138445 0.560694 0.431538
Si Si6 0.898942 0.358410 0.673119
Si Si7 0.353776 0.356235 0.898074
O O1 0.750000 0.395233 0.459171
O O2 0.855080 0.250000 0.473742
O O3 0.918420 0.377524 0.417811
O O4 0.898229 0.404759 0.516500
O O5 0.123776 0.623776 0.750000
O O6 0.004769 0.750000 0.787059
O O7 0.056263 0.595084 0.830544
O O8 0.945926 0.596333 0.746457
O O9 0.586192 0.750000 0.232668
O O10 0.446795 0.645947 0.204067
O O11 0.494333 0.651673 0.296267
O O12 0.750000 0.417059 0.149705
O O13 0.639939 0.560827 0.141006
O O14 0.250000 0.586586 0.429082
O O15 0.095326 0.607028 0.382674
O O16 0.132783 0.447492 0.429665
O O17 0.857735 0.250000 0.674841
O O18 0.250000 0.367559 0.922080
O O19 0.357404 0.250000 0.878203
#
# Coordination Sequence:
#
# PCOD9570050 Si02
#       7
#    16  16  16  16  16  16  16
#     4   9  18  33  54  83 117 151 188 238 308 373
#     4  12  25  43  65  89 116 149 197 255 309 362
#     4  10  22  40  59  86 123 164 204 241 295 365
#     4  10  21  39  62  87 117 151 193 250 314 371
#     4  10  19  31  52  85 122 155 198 249 297 353
#     4  10  19  35  60  88 125 164 202 248 298 354
#     4   9  19  35  55  80 115 160 203 244 291 350
#
# _framework density 20.347615999999999
#
# number of rings (size 3 to 8) (size 9 to 14) (size 15 to 20)
#    0.000    2.000    1.429    2.571    0.000    4.714 
#    0.000    3.571    0.000    0.857    0.000    2.000 
#    0.000    0.000    0.000    0.000    0.000    0.000 
#
# Total GULP energy -623529.448570 kJ/mol
# GULP energy per Si atom -5567.227219 kJ/mol
# Density = 2.030130 g / cm^3
# Si number density = 20.347616 Si / 1000 Ang^3
#
#
#
# Elastic Constant Matrix: (Units=GPa)
#
#
# Indices 1 2 3 4 5 6 
#
# 1 93.4462 44.5032 49.2203 0.0000 0.0000 0.0000
# 2 44.5032 93.4462 49.2203 0.0000 0.0000 0.0000
# 3 49.2203 49.2203 140.1020 0.0000 0.0000 0.0000
# 4 0.0000 0.0000 0.0000 6.9181 0.0000 0.0000
# 5 0.0000 0.0000 0.0000 0.0000 6.9181 0.0000
# 6 0.0000 0.0000 0.0000 0.0000 0.0000 12.2961
#
#
#
# Elastic Compliance Matrix: (Units=1/GPa)
#
#
# Indices 1 2 3 4 5 6 
#
# 1 0.015053 -0.005379 -0.003399 0.000000 0.000000 0.000000
# 2 -0.005379 0.015053 -0.003399 0.000000 0.000000 0.000000
# 3 -0.003399 -0.003399 0.009526 0.000000 0.000000 0.000000
# 4 0.000000 0.000000 0.000000 0.144547 0.000000 0.000000
# 5 0.000000 0.000000 0.000000 0.000000 0.144547 0.000000
# 6 0.000000 0.000000 0.000000 0.000000 0.000000 0.081327
#
#
# Mechanical properties :
#
#
# Convention : Reuss Voigt Hill
#
# Bulk Modulus (GPa) = 65.44750 68.09802 66.77276
# Shear Modulus (GPa) = 11.37658 17.49652 14.43655
#
# Velocity S-wave (km/s) = 2.36712 2.93555 2.66653
# Velocity P-wave (km/s) = 6.30123 6.71043 6.50905
#
# Compressibility (1/GPa) = 0.01527942
#
# Stress axis : x y z
#
# Youngs Moduli (GPa) = 66.43120 66.43120 104.97840
#
# Poissons Ratio (x) = 0.35732 0.35680
# Poissons Ratio (y) = 0.35732 0.35680
# Poissons Ratio (z) = 0.22579 0.22579
#
# Static dielectric constant tensor:
#      x y z
#    x 1.796770 0.000000 0.000000 
#    y 0.000000 1.796770 0.000000 
#    z 0.000000 0.000000 1.741830 
# 
# From -- ./inp_files/9809.got.cif
#   From: 2010.05.17/outbox.cif.g08.bks.cpg/sg137_5_cif.got.tgz:9809.got - 2010.05.20 13:01:12.
