data_PCOD9570143
_publ_section_title
;
Structure prediction by ZEFSAII (Michael W. Deem and Ramdas Pophale) SiO2 
 PCOD9570143
Probable space group: P 42/N M C
;
_chemical_formula_sum "Si O2"
_cell_formula_units_Z 112
_cell_length_a 15.043697
_cell_length_b 15.043697
_cell_length_c 24.500701
_cell_angle_alpha 90.000000
_cell_angle_beta 90.000000
_cell_angle_gamma 90.000000
_cell_volume 5544.822721
_symmetry_space_group_name_H-M "P 42/N M C"
_symmetry_group_IT_number 137
_space_group.IT_coordinate_system_code '2'
_symmetry_cell_setting 'tetragonal'
loop_
_space_group_symop_operation_xyz
x,y,z
1/2-y,x,1/2+z
1/2-x,1/2-y,z
y,1/2-x,1/2+z
1/2+x,-y,-z
-x,1/2+y,-z
1/2+y,1/2+x,1/2-z
-y,-x,1/2-z
-x,-y,-z
1/2+y,-x,1/2-z
1/2+x,1/2+y,-z
-y,1/2+x,1/2-z
1/2-x,y,z
x,1/2-y,z
1/2-y,1/2-x,1/2+z
y,x,1/2+z
loop_
_atom_site_type_symbol
_atom_site_label
_atom_site_fract_x
_atom_site_fract_y
_atom_site_fract_z
Si Si1 0.427356 0.651297 0.140904
Si Si2 0.849907 0.570741 0.732324
Si Si3 0.649971 0.033641 0.210397
Si Si4 0.848269 0.596367 0.560618
Si Si5 0.038364 0.149997 0.638562
Si Si6 0.020339 0.353028 0.060338
Si Si7 0.044859 0.651880 0.583259
O O1 0.386255 0.750000 0.139489
O O2 0.478953 0.640511 0.198650
O O3 0.505905 0.648751 0.096101
O O4 0.366072 0.566741 0.131257
O O5 0.750000 0.603670 0.720619
O O6 0.858735 0.557035 0.796927
O O7 0.928210 0.634057 0.712785
O O8 0.580195 0.080195 0.250000
O O9 0.750000 0.055249 0.227913
O O10 0.638518 0.062407 0.147792
O O11 0.750000 0.636791 0.571191
O O12 0.853341 0.571543 0.497024
O O13 0.938546 0.646809 0.575166
O O14 0.062621 0.250000 0.621467
O O15 0.094166 0.078314 0.604830
O O16 0.005964 0.250000 0.076329
O O17 0.927665 0.405033 0.053370
O O18 0.075735 0.750000 0.566965
#
# Coordination Sequence:
#
# PCOD9570143 Si02
#       7
#    16  16  16  16  16  16  16
#     4  10  19  36  62  87 118 155 191 242 304 361
#     4  10  20  36  60  87 117 154 196 246 301 362
#     4  11  23  38  58  86 121 161 203 249 301 355
#     4  10  21  40  65  90 118 155 197 244 304 364
#     4  11  23  37  59  90 120 158 204 244 296 362
#     4  11  24  43  63  85 123 165 203 251 302 357
#     4  11  23  39  64  94 122 157 205 255 306 362
#
# _framework density 20.199021999999999
#
# number of rings (size 3 to 8) (size 9 to 14) (size 15 to 20)
#    0.000    1.429    2.857    2.571    0.000    4.429 
#    0.000    5.714    0.000    5.143    0.000    0.000 
#    0.000    0.000    0.000    0.000    0.000    0.000 
#
# Total GULP energy -625650.069362 kJ/mol
# GULP energy per Si atom -5586.161334 kJ/mol
# Density = 2.015305 g / cm^3
# Si number density = 20.199022 Si / 1000 Ang^3
#
#
#
# Elastic Constant Matrix: (Units=GPa)
#
#
# Indices 1 2 3 4 5 6 
#
# 1 77.3633 21.7480 14.3247 0.0000 0.0000 0.0000
# 2 21.7480 77.3633 14.3247 0.0000 0.0000 0.0000
# 3 14.3247 14.3247 50.3267 0.0000 0.0000 0.0000
# 4 0.0000 0.0000 0.0000 2.6515 0.0000 0.0000
# 5 0.0000 0.0000 0.0000 0.0000 2.6515 0.0000
# 6 0.0000 0.0000 0.0000 0.0000 0.0000 -23.5565
#
#
#
# Elastic Compliance Matrix: (Units=1/GPa)
#
#
# Indices 1 2 3 4 5 6 
#
# 1 0.014487 -0.003493 -0.003129 0.000000 0.000000 0.000000
# 2 -0.003493 0.014487 -0.003129 0.000000 0.000000 0.000000
# 3 -0.003129 -0.003129 0.021652 0.000000 0.000000 0.000000
# 4 0.000000 0.000000 0.000000 0.377146 0.000000 0.000000
# 5 0.000000 0.000000 0.000000 0.000000 0.377146 0.000000
# 6 0.000000 0.000000 0.000000 0.000000 0.000000 -0.042451
#
#
# Mechanical properties :
#
#
# Convention : Reuss Voigt Hill
#
# Bulk Modulus (GPa) = 32.13085 33.98312 33.05698
# Shear Modulus (GPa) = 6.31038 6.65971 6.48504
#
# Velocity S-wave (km/s) = 1.76943 1.81775 1.79375
# Velocity P-wave (km/s) = 4.48511 4.61154 4.54876
#
# Compressibility (1/GPa) = 0.03112274
#
# Stress axis : x y z
#
# Youngs Moduli (GPa) = 69.02530 69.02530 46.18603
#
# Poissons Ratio (x) = 0.24112 0.14453
# Poissons Ratio (y) = 0.24112 0.14453
# Poissons Ratio (z) = 0.21600 0.21600
#
# Static dielectric constant tensor:
#      x y z
#    x 1.716340 0.000000 0.000000 
#    y 0.000000 1.716340 0.000000 
#    z 0.000000 0.000000 1.701810 
# 
# From -- ./inp_files/8932.got.cif
#   From: 2010.05.17/outbox.cif.g08.bks.cpg/sg137_5_cif.got.tgz:8932.got - 2010.05.20 13:01:12.
