data_PCOD9570833
_publ_section_title
;
Structure prediction by ZEFSAII (Michael W. Deem and Ramdas Pophale) SiO2 
 PCOD9570833
Probable space group: P 42/N C M
;
_chemical_formula_sum "Si O2"
_cell_formula_units_Z 96
_cell_length_a 22.734328
_cell_length_b 22.734328
_cell_length_c 8.989235
_cell_angle_alpha 90.000000
_cell_angle_beta 90.000000
_cell_angle_gamma 90.000000
_cell_volume 4646.083140
_symmetry_space_group_name_H-M "P 42/N C M"
_symmetry_group_IT_number 138
_space_group.IT_coordinate_system_code '2'
_symmetry_cell_setting 'tetragonal'
loop_
_space_group_symop_operation_xyz
x,y,z
1/2-y,x,1/2+z
1/2-x,1/2-y,z
y,1/2-x,1/2+z
1/2+x,-y,1/2-z
-x,1/2+y,1/2-z
1/2+y,1/2+x,-z
-y,-x,-z
-x,-y,-z
1/2+y,-x,1/2-z
1/2+x,1/2+y,-z
-y,1/2+x,1/2-z
1/2-x,y,1/2+z
x,1/2-y,1/2+z
1/2-y,1/2-x,z
y,x,z
loop_
_atom_site_type_symbol
_atom_site_label
_atom_site_fract_x
_atom_site_fract_y
_atom_site_fract_z
Si Si1 0.640977 0.215055 0.595054
Si Si2 0.461427 0.275920 0.298789
Si Si3 0.091929 0.501244 0.276431
Si Si4 0.677559 0.914327 0.903978
Si Si5 0.322222 0.519895 0.010977
Si Si6 0.380256 0.649412 0.337967
O O1 0.700318 0.200318 0.500000
O O2 0.589691 0.183610 0.501720
O O3 0.644495 0.180588 0.749492
O O4 0.617125 0.280240 0.630079
O O5 0.420657 0.237281 0.189585
O O6 0.428391 0.313843 0.422446
O O7 0.496706 0.229507 0.401949
O O8 0.501228 0.311165 0.181226
O O9 0.132878 0.461939 0.167302
O O10 0.117731 0.494690 0.443389
O O11 0.111816 0.567549 0.237757
O O12 0.026728 0.473273 0.265319
O O13 0.648487 0.851514 0.883174
O O14 0.377282 0.622719 0.500000
#
# Coordination Sequence:
#
# PCOD9570833 Si02
#       6
#    16  16  16  16  16  16
#     4  12  25  43  64  95 130 175 230 284 333 399
#     4   9  18  33  62  85 119 161 207 273 324 394
#     4  10  22  43  64  92 129 167 217 283 345 401
#     4   9  18  33  57  87 118 157 209 264 324 402
#     4  10  20  37  61  90 121 164 218 270 334 396
#     4  12  27  42  67  93 132 180 227 282 338 403
#
# _framework density 20.662568
#
# number of rings (size 3 to 8) (size 9 to 14) (size 15 to 20)
#    0.000    1.667    1.667    4.000    4.667    3.000 
#    0.000    4.167    0.000    1.500    0.000    0.000 
#    0.000    0.000    0.000    0.000    0.000    0.333 
#
# Total GULP energy -535236.422373 kJ/mol
# GULP energy per Si atom -5575.379400 kJ/mol
# Density = 2.061554 g / cm^3
# Si number density = 20.662568 Si / 1000 Ang^3
#
#
#
# Elastic Constant Matrix: (Units=GPa)
#
#
# Indices 1 2 3 4 5 6 
#
# 1 72.5532 25.1977 11.3482 0.0000 0.0000 0.0000
# 2 25.1977 72.5472 11.3454 0.0000 0.0000 0.0000
# 3 11.3482 11.3454 101.2834 0.0000 0.0000 0.0000
# 4 0.0000 0.0000 0.0000 20.5040 0.0000 0.0000
# 5 0.0000 0.0000 0.0000 0.0000 20.5058 0.0000
# 6 0.0000 0.0000 0.0000 0.0000 0.0000 19.9600
#
#
#
# Elastic Compliance Matrix: (Units=1/GPa)
#
#
# Indices 1 2 3 4 5 6 
#
# 1 0.015810 -0.005307 -0.001177 0.000000 0.000000 0.000000
# 2 -0.005307 0.015812 -0.001176 0.000000 0.000000 0.000000
# 3 -0.001177 -0.001176 0.010137 0.000000 0.000000 0.000000
# 4 0.000000 0.000000 0.000000 0.048771 0.000000 0.000000
# 5 0.000000 0.000000 0.000000 0.000000 0.048767 0.000000
# 6 0.000000 0.000000 0.000000 0.000000 0.000000 0.050100
#
#
# Mechanical properties :
#
#
# Convention : Reuss Voigt Hill
#
# Bulk Modulus (GPa) = 37.82544 38.01851 37.92197
# Shear Modulus (GPa) = 23.41584 25.42678 24.42131
#
# Velocity S-wave (km/s) = 3.37003 3.51176 3.44162
# Velocity P-wave (km/s) = 5.78695 5.90617 5.84687
#
# Compressibility (1/GPa) = 0.02643723
#
# Stress axis : x y z
#
# Youngs Moduli (GPa) = 63.24988 63.24508 98.64910
#
# Poissons Ratio (x) = 0.33566 0.11610
# Poissons Ratio (y) = 0.33569 0.11606
# Poissons Ratio (z) = 0.07444 0.07441
#
# Static dielectric constant tensor:
#      x y z
#    x 1.785050 0.000000 0.000000 
#    y 0.000000 1.785050 0.000000 
#    z 0.000000 0.000000 1.768810 
# 
# From -- ./inp_files/1739.got.cif
#   From: 2010.05.17/outbox.cif.g08.bks.cpg/sg138_1_cif.got.tgz:1739.got - 2010.05.20 13:08:53.
