data_PCOD9570127
_publ_section_title
;
Structure prediction by ZEFSAII (Michael W. Deem and Ramdas Pophale) SiO2 
 PCOD9570127
Probable space group: P 42/N M C
;
_chemical_formula_sum "Si O2"
_cell_formula_units_Z 128
_cell_length_a 25.494693
_cell_length_b 25.494693
_cell_length_c 10.691313
_cell_angle_alpha 90.000000
_cell_angle_beta 90.000000
_cell_angle_gamma 90.000000
_cell_volume 6949.132901
_symmetry_space_group_name_H-M "P 42/N M C"
_symmetry_group_IT_number 137
_space_group.IT_coordinate_system_code '2'
_symmetry_cell_setting 'tetragonal'
loop_
_space_group_symop_operation_xyz
x,y,z
1/2-y,x,1/2+z
1/2-x,1/2-y,z
y,1/2-x,1/2+z
1/2+x,-y,-z
-x,1/2+y,-z
1/2+y,1/2+x,1/2-z
-y,-x,1/2-z
-x,-y,-z
1/2+y,-x,1/2-z
1/2+x,1/2+y,-z
-y,1/2+x,1/2-z
1/2-x,y,z
x,1/2-y,z
1/2-y,1/2-x,1/2+z
y,x,1/2+z
loop_
_atom_site_type_symbol
_atom_site_label
_atom_site_fract_x
_atom_site_fract_y
_atom_site_fract_z
Si Si1 0.808079 0.387923 0.284652
Si Si2 0.383636 0.021010 0.358543
Si Si3 0.010427 0.054498 0.429335
Si Si4 0.918371 0.396966 0.027714
Si Si5 0.850571 0.689143 0.355299
Si Si6 0.927885 0.306452 0.495106
Si Si7 0.688594 0.617235 0.575687
Si Si8 0.344602 0.467456 0.089176
O O1 0.830839 0.330839 0.250000
O O2 0.750000 0.385903 0.337556
O O3 0.848921 0.413823 0.378347
O O4 0.807323 0.417904 0.153173
O O5 0.442859 0.042573 0.333112
O O6 0.349290 0.066391 0.425770
O O7 0.355717 0.011552 0.227815
O O8 0.389125 0.967900 0.437588
O O9 0.033976 0.099593 0.518700
O O10 0.952090 0.074035 0.397916
O O11 0.000000 0.000000 0.500000
O O12 0.861724 0.403183 0.959365
O O13 0.834745 0.750000 0.367742
O O14 0.851526 0.675688 0.206115
O O15 0.819328 0.652040 0.451268
O O16 0.910978 0.681375 0.397919
O O17 0.907651 0.250000 0.542879
O O18 0.989437 0.310224 0.520506
O O19 0.750000 0.602002 0.586607
#
# Coordination Sequence:
#
# PCOD9570127 Si02
#       8
#    16  16  16  16  16  16  16  16
#     4   9  18  35  53  78 112 145 186 235 281 341
#     4  10  20  37  55  80 116 148 188 230 283 344
#     4   9  18  33  49  79 109 146 180 225 272 335
#     4   9  19  34  54  83 111 149 185 232 287 335
#     4  10  21  39  60  82 110 147 195 241 288 346
#     4   9  18  34  53  77 110 148 188 227 272 327
#     4  10  22  40  60  84 115 151 193 243 293 345
#     4  10  19  35  55  79 108 149 186 226 277 340
#
# _framework density 18.419563
#
# number of rings (size 3 to 8) (size 9 to 14) (size 15 to 20)
#    0.000    2.500    1.250    0.375    0.000    6.375 
#   22.500    1.250    0.000    0.000    0.000    0.000 
#    0.000    0.000    0.000    0.000    0.000    0.000 
#
# Total GULP energy -712796.000206 kJ/mol
# GULP energy per Si atom -5568.718752 kJ/mol
# Density = 1.837764 g / cm^3
# Si number density = 18.419563 Si / 1000 Ang^3
#
#
#
# Elastic Constant Matrix: (Units=GPa)
#
#
# Indices 1 2 3 4 5 6 
#
# 1 99.4375 31.9183 25.4492 0.0000 0.0000 0.0000
# 2 31.9183 99.4375 25.4492 0.0000 0.0000 0.0000
# 3 25.4492 25.4492 30.6843 0.0000 0.0000 0.0000
# 4 0.0000 0.0000 0.0000 12.0883 0.0000 0.0000
# 5 0.0000 0.0000 0.0000 0.0000 12.0883 0.0000
# 6 0.0000 0.0000 0.0000 0.0000 0.0000 8.0274
#
#
#
# Elastic Compliance Matrix: (Units=1/GPa)
#
#
# Indices 1 2 3 4 5 6 
#
# 1 0.013014 -0.001796 -0.009304 0.000000 0.000000 0.000000
# 2 -0.001796 0.013014 -0.009304 0.000000 0.000000 0.000000
# 3 -0.009304 -0.009304 0.048023 0.000000 0.000000 0.000000
# 4 0.000000 0.000000 0.000000 0.082724 0.000000 0.000000
# 5 0.000000 0.000000 0.000000 0.000000 0.082724 0.000000
# 6 0.000000 0.000000 0.000000 0.000000 0.000000 0.124573
#
#
# Mechanical properties :
#
#
# Convention : Reuss Voigt Hill
#
# Bulk Modulus (GPa) = 30.08152 43.91033 36.99592
# Shear Modulus (GPa) = 12.02028 16.22367 14.12197
#
# Velocity S-wave (km/s) = 2.55734 2.97102 2.77191
# Velocity P-wave (km/s) = 5.00867 5.97160 5.51120
#
# Compressibility (1/GPa) = 0.03324300
#
# Stress axis : x y z
#
# Youngs Moduli (GPa) = 76.83812 76.83812 20.82315
#
# Poissons Ratio (x) = 0.13802 0.19374
# Poissons Ratio (y) = 0.13802 0.19374
# Poissons Ratio (z) = 0.71492 0.71492
#
# Static dielectric constant tensor:
#      x y z
#    x 1.660520 0.000000 0.000000 
#    y 0.000000 1.660520 0.000000 
#    z 0.000000 0.000000 1.635980 
# 
# From -- ./inp_files/4007.got.cif
#   From: 2010.05.17/outbox.cif.g08.bks.cpg/sg137_3_cif.got.tgz:4007.got - 2010.05.20 13:01:12.
