data_PCOD9570093
_publ_section_title
;
Structure prediction by ZEFSAII (Michael W. Deem and Ramdas Pophale) SiO2 
 PCOD9570093
Probable space group: P 42/N M C
;
_chemical_formula_sum "Si O2"
_cell_formula_units_Z 128
_cell_length_a 18.193887
_cell_length_b 18.193887
_cell_length_c 22.418058
_cell_angle_alpha 90.000000
_cell_angle_beta 90.000000
_cell_angle_gamma 90.000000
_cell_volume 7420.770056
_symmetry_space_group_name_H-M "P 42/N M C"
_symmetry_group_IT_number 137
_space_group.IT_coordinate_system_code '2'
_symmetry_cell_setting 'tetragonal'
loop_
_space_group_symop_operation_xyz
x,y,z
1/2-y,x,1/2+z
1/2-x,1/2-y,z
y,1/2-x,1/2+z
1/2+x,-y,-z
-x,1/2+y,-z
1/2+y,1/2+x,1/2-z
-y,-x,1/2-z
-x,-y,-z
1/2+y,-x,1/2-z
1/2+x,1/2+y,-z
-y,1/2+x,1/2-z
1/2-x,y,z
x,1/2-y,z
1/2-y,1/2-x,1/2+z
y,x,1/2+z
loop_
_atom_site_type_symbol
_atom_site_label
_atom_site_fract_x
_atom_site_fract_y
_atom_site_fract_z
Si Si1 0.403514 0.662991 0.347109
Si Si2 0.162647 0.164450 0.525629
Si Si3 0.913168 0.970311 0.776783
Si Si4 0.166306 0.515046 0.335655
Si Si5 0.055431 0.078427 0.944439
Si Si6 0.054956 0.910851 0.943198
Si Si7 0.939913 0.837240 0.860634
Si Si8 0.333098 0.835753 0.474985
O O1 0.396819 0.750000 0.330944
O O2 0.480794 0.627537 0.327678
O O3 0.347991 0.601499 0.320458
O O4 0.385337 0.656932 0.417300
O O5 0.250000 0.157263 0.514217
O O6 0.143741 0.250000 0.531218
O O7 0.119281 0.126352 0.471386
O O8 0.148966 0.122349 0.588305
O O9 0.856947 0.969375 0.722080
O O10 0.929219 0.891313 0.804718
O O11 0.983289 0.016712 0.750000
O O12 0.250000 0.504812 0.351483
O O13 0.117781 0.485780 0.390171
O O14 0.071636 0.994684 0.926090
O O15 0.000068 0.081919 0.000460
O O16 0.014321 0.864874 0.892487
O O17 0.123062 0.866963 0.969346
O O18 0.940678 0.750000 0.847677
O O19 0.250000 0.863019 0.460936
O O20 0.328157 0.750000 0.487229
#
# Coordination Sequence:
#
# PCOD9570093 Si02
#       8
#    16  16  16  16  16  16  16  16
#     4  10  20  33  51  77 111 149 184 221 264 320
#     4   9  19  34  53  80 113 147 184 230 279 331
#     4  10  22  38  55  79 109 142 188 234 273 327
#     4  11  21  35  55  77 108 150 188 231 275 323
#     4  10  20  32  52  79 110 143 185 223 274 327
#     4  10  19  33  54  81 107 139 179 224 269 328
#     4  10  21  38  61  82 104 140 183 234 286 331
#     4  10  20  32  50  80 115 146 175 214 268 329
#
# _framework density 17.248882999999999
#
# number of rings (size 3 to 8) (size 9 to 14) (size 15 to 20)
#    0.000    2.000    1.250    3.000    3.500    3.250 
#    0.000    1.250    0.000    6.750    0.000    0.000 
#    0.000    0.000    0.000    0.000    0.000    0.000 
#
# Total GULP energy -713442.293253 kJ/mol
# GULP energy per Si atom -5573.767916 kJ/mol
# Density = 1.720962 g / cm^3
# Si number density = 17.248883 Si / 1000 Ang^3
#
#
#
# Elastic Constant Matrix: (Units=GPa)
#
#
# Indices 1 2 3 4 5 6 
#
# 1 96.9038 57.8444 52.4762 0.0000 0.0000 0.0000
# 2 57.8444 96.9044 52.4755 0.0000 0.0000 0.0000
# 3 52.4762 52.4755 61.4049 0.0000 0.0000 0.0000
# 4 0.0000 0.0000 0.0000 15.1873 0.0000 0.0000
# 5 0.0000 0.0000 0.0000 0.0000 15.1892 0.0000
# 6 0.0000 0.0000 0.0000 0.0000 0.0000 17.8707
#
#
#
# Elastic Compliance Matrix: (Units=1/GPa)
#
#
# Indices 1 2 3 4 5 6 
#
# 1 0.020487 -0.005115 -0.013136 0.000000 0.000000 0.000000
# 2 -0.005115 0.020486 -0.013135 0.000000 0.000000 0.000000
# 3 -0.013136 -0.013135 0.038737 0.000000 0.000000 0.000000
# 4 0.000000 0.000000 0.000000 0.065845 0.000000 0.000000
# 5 0.000000 0.000000 0.000000 0.000000 0.065836 0.000000
# 6 0.000000 0.000000 0.000000 0.000000 0.000000 0.055958
#
#
# Mechanical properties :
#
#
# Convention : Reuss Voigt Hill
#
# Bulk Modulus (GPa) = 59.04799 64.53390 61.79095
# Shear Modulus (GPa) = 14.89129 15.81056 15.35093
#
# Velocity S-wave (km/s) = 2.94142 3.03085 2.98647
# Velocity P-wave (km/s) = 6.77076 7.05285 6.91324
#
# Compressibility (1/GPa) = 0.01693538
#
# Stress axis : x y z
#
# Youngs Moduli (GPa) = 48.81217 48.81383 25.81538
#
# Poissons Ratio (x) = 0.24971 0.33912
# Poissons Ratio (y) = 0.24970 0.33909
# Poissons Ratio (z) = 0.64121 0.64118
#
# Static dielectric constant tensor:
#      x y z
#    x 1.601670 0.000000 0.000000 
#    y 0.000000 1.601670 0.000000 
#    z 0.000000 0.000000 1.580660 
# 
# From -- ./inp_files/9201.got.cif
#   From: 2010.05.17/outbox.cif.g08.bks.cpg/sg137_5_cif.got.tgz:9201.got - 2010.05.20 13:01:12.
