data_PCOD9570781
_publ_section_title
;
Structure prediction by ZEFSAII (Michael W. Deem and Ramdas Pophale) SiO2 
 PCOD9570781
Probable space group: P 42/N C M
;
_chemical_formula_sum "Si O2"
_cell_formula_units_Z 80
_cell_length_a 11.669161
_cell_length_b 11.669161
_cell_length_c 27.214006
_cell_angle_alpha 90.000000
_cell_angle_beta 90.000000
_cell_angle_gamma 90.000000
_cell_volume 3705.712649
_symmetry_space_group_name_H-M "P 42/N C M"
_symmetry_group_IT_number 138
_space_group.IT_coordinate_system_code '2'
_symmetry_cell_setting 'tetragonal'
loop_
_space_group_symop_operation_xyz
x,y,z
1/2-y,x,1/2+z
1/2-x,1/2-y,z
y,1/2-x,1/2+z
1/2+x,-y,1/2-z
-x,1/2+y,1/2-z
1/2+y,1/2+x,-z
-y,-x,-z
-x,-y,-z
1/2+y,-x,1/2-z
1/2+x,1/2+y,-z
-y,1/2+x,1/2-z
1/2-x,y,1/2+z
x,1/2-y,1/2+z
1/2-y,1/2-x,z
y,x,z
loop_
_atom_site_type_symbol
_atom_site_label
_atom_site_fract_x
_atom_site_fract_y
_atom_site_fract_z
Si Si1 0.404576 0.909077 0.076743
Si Si2 0.903866 0.407462 0.709213
Si Si3 0.664586 0.021962 0.812732
Si Si4 0.840870 0.478858 0.458331
Si Si5 0.831807 0.481486 0.611914
O O1 0.369422 0.934097 0.133523
O O2 0.292500 0.943891 0.044900
O O3 0.455774 0.780515 0.079348
O O4 0.505670 0.994331 0.062807
O O5 0.868679 0.398951 0.765950
O O6 0.978233 0.299858 0.692734
O O7 0.810059 0.438436 0.667656
O O8 0.982660 0.517341 0.706664
O O9 0.598168 0.901833 0.806531
O O10 0.906058 0.406058 0.500000
O O11 0.895863 0.427883 0.408841
O O12 0.890229 0.609772 0.463407
O O13 0.891970 0.608031 0.609344
#
# Coordination Sequence:
#
# PCOD9570781 Si02
#       5
#    16  16  16  16  16
#     4  11  23  38  61  94 128 163 206 264 328 379
#     4  10  20  35  55  82 120 168 216 260 315 375
#     4  10  21  34  53  86 122 160 210 265 318 376
#     4  10  22  42  67  93 121 159 207 261 320 384
#     4  10  21  38  60  87 122 169 219 259 306 374
#
# _framework density 21.588289
#
# number of rings (size 3 to 8) (size 9 to 14) (size 15 to 20)
#    0.000    1.800    2.000    1.800    0.000    4.800 
#    0.000    4.000    0.000   10.800    0.000    0.000 
#    0.000    0.000    0.000    0.000    0.000    0.000 
#
# Total GULP energy -445535.993016 kJ/mol
# GULP energy per Si atom -5569.199913 kJ/mol
# Density = 2.153915 g / cm^3
# Si number density = 21.588289 Si / 1000 Ang^3
#
#
#
# Elastic Constant Matrix: (Units=GPa)
#
#
# Indices 1 2 3 4 5 6 
#
# 1 25.1059 117.7840 16.3400 0.0000 0.0000 0.0000
# 2 117.7840 25.1059 16.3400 0.0000 0.0000 0.0000
# 3 16.3400 16.3400 88.4145 0.0000 0.0000 0.0000
# 4 0.0000 0.0000 0.0000 25.1681 0.0000 0.0000
# 5 0.0000 0.0000 0.0000 0.0000 25.1681 0.0000
# 6 0.0000 0.0000 0.0000 0.0000 0.0000 6.5947
#
#
#
# Elastic Compliance Matrix: (Units=1/GPa)
#
#
# Indices 1 2 3 4 5 6 
#
# 1 -0.001741 0.009049 -0.001350 0.000000 0.000000 0.000000
# 2 0.009049 -0.001741 -0.001350 0.000000 0.000000 0.000000
# 3 -0.001350 -0.001350 0.011810 0.000000 0.000000 0.000000
# 4 0.000000 0.000000 0.000000 0.039733 0.000000 0.000000
# 5 0.000000 0.000000 0.000000 0.000000 0.039733 0.000000
# 6 0.000000 0.000000 0.000000 0.000000 0.000000 0.151636
#
#
# Mechanical properties :
#
#
# Convention : Reuss Voigt Hill
#
# Bulk Modulus (GPa) = 47.56880 48.83936 48.20408
# Shear Modulus (GPa) = 21.39125 10.59700 15.99413
#
# Velocity S-wave (km/s) = 3.15123 2.21796 2.72485
# Velocity P-wave (km/s) = 5.94329 5.40660 5.68129
#
# Compressibility (1/GPa) = 0.02102218
#
# Stress axis : x y z
#
# Youngs Moduli (GPa) = -574.25397 -574.25397 84.67739
#
# Poissons Ratio (x) = 5.19622 0.11435
# Poissons Ratio (y) = 5.19622 0.11435
# Poissons Ratio (z) = -0.77551 -0.77551
#
# Static dielectric constant tensor:
#      x y z
#    x 1.779990 0.000000 0.000000 
#    y 0.000000 1.779990 0.000000 
#    z 0.000000 0.000000 1.932490 
# 
# From -- ./inp_files/7847.got.cif
#   From: 2010.05.17/outbox.cif.g08.bks.cpg/sg138_4_cif.got.tgz:7847.got - 2010.05.20 13:08:53.
