data_PCOD9570242
_publ_section_title
;
Structure prediction by ZEFSAII (Michael W. Deem and Ramdas Pophale) SiO2 
 PCOD9570242
Probable space group: P 42/N M C
;
_chemical_formula_sum "Si O2"
_cell_formula_units_Z 112
_cell_length_a 15.226258
_cell_length_b 15.226258
_cell_length_c 26.493011
_cell_angle_alpha 90.000000
_cell_angle_beta 90.000000
_cell_angle_gamma 90.000000
_cell_volume 6142.111394
_symmetry_space_group_name_H-M "P 42/N M C"
_symmetry_group_IT_number 137
_space_group.IT_coordinate_system_code '2'
_symmetry_cell_setting 'tetragonal'
loop_
_space_group_symop_operation_xyz
x,y,z
1/2-y,x,1/2+z
1/2-x,1/2-y,z
y,1/2-x,1/2+z
1/2+x,-y,-z
-x,1/2+y,-z
1/2+y,1/2+x,1/2-z
-y,-x,1/2-z
-x,-y,-z
1/2+y,-x,1/2-z
1/2+x,1/2+y,-z
-y,1/2+x,1/2-z
1/2-x,y,z
x,1/2-y,z
1/2-y,1/2-x,1/2+z
y,x,1/2+z
loop_
_atom_site_type_symbol
_atom_site_label
_atom_site_fract_x
_atom_site_fract_y
_atom_site_fract_z
Si Si1 0.852866 0.990318 0.400111
Si Si2 0.348502 0.499128 0.372145
Si Si3 0.648421 0.093348 0.804513
Si Si4 0.518155 0.060725 0.547489
Si Si5 0.530046 0.579681 0.789000
Si Si6 0.349352 0.850727 0.978405
Si Si7 0.852460 0.846220 0.707127
O O1 0.750000 0.963784 0.403057
O O2 0.862321 0.079196 0.433690
O O3 0.880722 0.002819 0.341725
O O4 0.925124 0.923818 0.424628
O O5 0.250000 0.480136 0.390460
O O6 0.351268 0.593000 0.344440
O O7 0.420848 0.505562 0.414750
O O8 0.373019 0.425178 0.331049
O O9 0.638252 0.138252 0.750000
O O10 0.750000 0.081750 0.817174
O O11 0.595936 0.001414 0.800903
O O12 0.579573 0.135942 0.523536
O O13 0.500000 0.000000 0.500000
O O14 0.457125 0.542876 0.750000
O O15 0.588144 0.646093 0.756260
O O16 0.250000 0.859127 0.959162
O O17 0.361149 0.750000 0.997281
O O18 0.750000 0.856939 0.720958
O O19 0.863198 0.750000 0.683421
#
# Coordination Sequence:
#
# PCOD9570242 Si02
#       7
#    16  16  16  16  16  16  16
#     4  10  20  36  58  81 111 154 194 231 283 340
#     4  11  21  36  56  84 116 147 186 236 286 344
#     4  11  21  34  55  81 118 155 183 220 277 341
#     4  10  20  37  57  80 109 143 185 231 291 341
#     4  11  19  35  55  79 115 152 197 235 277 326
#     4   9  19  37  61  87 112 141 184 239 296 353
#     4  10  20  35  56  82 113 152 195 236 277 332
#
# _framework density 18.234773000000001
#
# number of rings (size 3 to 8) (size 9 to 14) (size 15 to 20)
#    0.000    1.714    4.286    1.714    0.000    2.143 
#    0.000    7.143    0.000    2.143    0.000    0.000 
#    0.000    0.000    0.000    0.000    0.000    0.000 
#
# Total GULP energy -624162.058823 kJ/mol
# GULP energy per Si atom -5572.875525 kJ/mol
# Density = 1.819327 g / cm^3
# Si number density = 18.234773 Si / 1000 Ang^3
#
#
#
# Elastic Constant Matrix: (Units=GPa)
#
#
# Indices 1 2 3 4 5 6 
#
# 1 97.0049 35.1869 43.9670 0.0000 0.0000 0.0000
# 2 35.1869 97.0045 43.9670 0.0000 0.0000 0.0000
# 3 43.9670 43.9670 102.3531 0.0000 0.0000 0.0000
# 4 0.0000 0.0000 0.0000 9.0660 0.0000 0.0000
# 5 0.0000 0.0000 0.0000 0.0000 9.0660 0.0000
# 6 0.0000 0.0000 0.0000 0.0000 0.0000 14.5713
#
#
#
# Elastic Compliance Matrix: (Units=1/GPa)
#
#
# Indices 1 2 3 4 5 6 
#
# 1 0.013384 -0.002793 -0.004550 0.000000 0.000000 0.000000
# 2 -0.002793 0.013384 -0.004550 0.000000 0.000000 0.000000
# 3 -0.004550 -0.004550 0.013679 0.000000 0.000000 0.000000
# 4 0.000000 0.000000 0.000000 0.110302 0.000000 0.000000
# 5 0.000000 0.000000 0.000000 0.000000 0.110302 0.000000
# 6 0.000000 0.000000 0.000000 0.000000 0.000000 0.068628
#
#
# Mechanical properties :
#
#
# Convention : Reuss Voigt Hill
#
# Bulk Modulus (GPa) = 60.01391 60.28937 60.15164
# Shear Modulus (GPa) = 13.92693 18.09011 16.00852
#
# Velocity S-wave (km/s) = 2.76661 3.15313 2.96617
# Velocity P-wave (km/s) = 6.57182 6.81109 6.69252
#
# Compressibility (1/GPa) = 0.01666280
#
# Stress axis : x y z
#
# Youngs Moduli (GPa) = 74.71708 74.71671 73.10628
#
# Poissons Ratio (x) = 0.20866 0.33260
# Poissons Ratio (y) = 0.20866 0.33260
# Poissons Ratio (z) = 0.33993 0.33993
#
# Static dielectric constant tensor:
#      x y z
#    x 1.650350 0.000000 0.000000 
#    y 0.000000 1.650350 0.000000 
#    z 0.000000 0.000000 1.634210 
# 
# From -- ./inp_files/9819.got.cif
#   From: 2010.05.17/outbox.cif.g08.bks.cpg/sg137_5_cif.got.tgz:9819.got - 2010.05.20 13:01:12.
