data_PCOD9570123
_publ_section_title
;
Structure prediction by ZEFSAII (Michael W. Deem and Ramdas Pophale) SiO2 
 PCOD9570123
Probable space group: P 42/N M C
;
_chemical_formula_sum "Si O2"
_cell_formula_units_Z 96
_cell_length_a 14.928389
_cell_length_b 14.928389
_cell_length_c 20.450992
_cell_angle_alpha 90.000000
_cell_angle_beta 90.000000
_cell_angle_gamma 90.000000
_cell_volume 4557.642596
_symmetry_space_group_name_H-M "P 42/N M C"
_symmetry_group_IT_number 137
_space_group.IT_coordinate_system_code '2'
_symmetry_cell_setting 'tetragonal'
loop_
_space_group_symop_operation_xyz
x,y,z
1/2-y,x,1/2+z
1/2-x,1/2-y,z
y,1/2-x,1/2+z
1/2+x,-y,-z
-x,1/2+y,-z
1/2+y,1/2+x,1/2-z
-y,-x,1/2-z
-x,-y,-z
1/2+y,-x,1/2-z
1/2+x,1/2+y,-z
-y,1/2+x,1/2-z
1/2-x,y,z
x,1/2-y,z
1/2-y,1/2-x,1/2+z
y,x,1/2+z
loop_
_atom_site_type_symbol
_atom_site_label
_atom_site_fract_x
_atom_site_fract_y
_atom_site_fract_z
Si Si1 0.351825 0.544452 0.804134
Si Si2 0.349582 0.391697 0.344797
Si Si3 0.852286 0.140954 0.436811
Si Si4 0.358962 0.150951 0.998911
Si Si5 0.856907 0.031273 0.942140
Si Si6 0.348275 0.898589 0.322658
O O1 0.419484 0.580517 0.750000
O O2 0.250000 0.574749 0.788875
O O3 0.351030 0.437395 0.812023
O O4 0.379308 0.588125 0.873442
O O5 0.250000 0.353670 0.331137
O O6 0.362372 0.386061 0.423282
O O7 0.347609 0.494338 0.322664
O O8 0.750000 0.109881 0.431126
O O9 0.849696 0.250000 0.440300
O O10 0.900629 0.107715 0.502519
O O11 0.250000 0.151219 0.999332
O O12 0.389091 0.250000 0.019834
O O13 0.391162 0.068496 0.042980
O O14 0.750000 0.026929 0.951193
O O15 0.872578 0.072853 0.871579
O O16 0.362975 0.862975 0.250000
O O17 0.250000 0.867693 0.347163
#
# Coordination Sequence:
#
# PCOD9570123 Si02
#       6
#    16  16  16  16  16  16
#     4  11  21  35  57  87 125 168 212 262 323 386
#     4  10  21  38  60  85 116 160 213 264 314 379
#     4   9  17  30  49  79 119 160 204 251 307 380
#     4   9  17  33  59  89 118 152 200 255 312 378
#     4  10  19  34  59  88 117 157 202 257 324 388
#     4  11  24  40  59  85 119 160 209 265 324 386
#
# _framework density 21.06352
#
# number of rings (size 3 to 8) (size 9 to 14) (size 15 to 20)
#    0.000    2.000    1.667    2.500    0.000    4.333 
#    0.000    0.000    0.000    5.000    0.000    9.333 
#    0.000    0.000    0.000    0.000    0.000    0.167 
#
# Total GULP energy -536248.396270 kJ/mol
# GULP energy per Si atom -5585.920794 kJ/mol
# Density = 2.101558 g / cm^3
# Si number density = 21.063520 Si / 1000 Ang^3
#
#
#
# Elastic Constant Matrix: (Units=GPa)
#
#
# Indices 1 2 3 4 5 6 
#
# 1 99.3612 43.9160 42.7740 0.0000 0.0000 0.0000
# 2 43.9160 99.3616 42.7745 0.0000 0.0000 0.0000
# 3 42.7740 42.7745 95.4268 0.0000 0.0000 0.0000
# 4 0.0000 0.0000 0.0000 22.0272 0.0000 0.0000
# 5 0.0000 0.0000 0.0000 0.0000 22.0266 0.0000
# 6 0.0000 0.0000 0.0000 0.0000 0.0000 18.8859
#
#
#
# Elastic Compliance Matrix: (Units=1/GPa)
#
#
# Indices 1 2 3 4 5 6 
#
# 1 0.013783 -0.004253 -0.004272 0.000000 0.000000 0.000000
# 2 -0.004253 0.013783 -0.004272 0.000000 0.000000 0.000000
# 3 -0.004272 -0.004272 0.014309 0.000000 0.000000 0.000000
# 4 0.000000 0.000000 0.000000 0.045398 0.000000 0.000000
# 5 0.000000 0.000000 0.000000 0.000000 0.045400 0.000000
# 6 0.000000 0.000000 0.000000 0.000000 0.000000 0.052950
#
#
# Mechanical properties :
#
#
# Convention : Reuss Voigt Hill
#
# Bulk Modulus (GPa) = 61.41804 61.45317 61.43560
# Shear Modulus (GPa) = 23.07951 23.56694 23.32322
#
# Velocity S-wave (km/s) = 3.31374 3.34855 3.33119
# Velocity P-wave (km/s) = 6.62291 6.64747 6.63520
#
# Compressibility (1/GPa) = 0.01628186
#
# Stress axis : x y z
#
# Youngs Moduli (GPa) = 72.55359 72.55353 69.88701
#
# Poissons Ratio (x) = 0.30856 0.29854
# Poissons Ratio (y) = 0.30856 0.29855
# Poissons Ratio (z) = 0.30993 0.30994
#
# Static dielectric constant tensor:
#      x y z
#    x 1.790150 0.000000 0.000000 
#    y 0.000000 1.790150 0.000000 
#    z 0.000000 0.000000 1.704500 
# 
# From -- ./inp_files/7831.got.cif
#   From: 2010.05.17/outbox.cif.g08.bks.cpg/sg137_4_cif.got.tgz:7831.got - 2010.05.20 13:01:12.
