data_PCOD9570641
_publ_section_title
;
Structure prediction by ZEFSAII (Michael W. Deem and Ramdas Pophale) SiO2 
 PCOD9570641
Probable space group: P 42/N C M
;
_chemical_formula_sum "Si O2"
_cell_formula_units_Z 112
_cell_length_a 23.428157
_cell_length_b 23.428157
_cell_length_c 12.078499
_cell_angle_alpha 90.000000
_cell_angle_beta 90.000000
_cell_angle_gamma 90.000000
_cell_volume 6629.628902
_symmetry_space_group_name_H-M "P 42/N C M"
_symmetry_group_IT_number 138
_space_group.IT_coordinate_system_code '2'
_symmetry_cell_setting 'tetragonal'
loop_
_space_group_symop_operation_xyz
x,y,z
1/2-y,x,1/2+z
1/2-x,1/2-y,z
y,1/2-x,1/2+z
1/2+x,-y,1/2-z
-x,1/2+y,1/2-z
1/2+y,1/2+x,-z
-y,-x,-z
-x,-y,-z
1/2+y,-x,1/2-z
1/2+x,1/2+y,-z
-y,1/2+x,1/2-z
1/2-x,y,1/2+z
x,1/2-y,1/2+z
1/2-y,1/2-x,z
y,x,z
loop_
_atom_site_type_symbol
_atom_site_label
_atom_site_fract_x
_atom_site_fract_y
_atom_site_fract_z
Si Si1 0.066300 0.529871 0.691770
Si Si2 0.198643 0.396325 0.173410
Si Si3 0.498039 0.589568 0.554078
Si Si4 0.212503 0.473973 0.976449
Si Si5 0.163322 0.486365 0.549317
Si Si6 0.314545 0.407166 0.258972
Si Si7 0.472966 0.120231 0.307762
O O1 0.087930 0.511690 0.813663
O O2 0.118041 0.529907 0.604340
O O3 0.018532 0.481469 0.658621
O O4 0.034653 0.590776 0.701914
O O5 0.151189 0.348812 0.177966
O O6 0.256176 0.374968 0.230300
O O7 0.173979 0.452957 0.235464
O O8 0.211109 0.416718 0.049809
O O9 0.451734 0.548267 0.500000
O O10 0.559472 0.559472 0.531252
O O11 0.493780 0.652717 0.504660
O O12 0.204399 0.453109 0.850689
O O13 0.271914 0.503544 0.012678
O O14 0.168114 0.439220 0.645836
O O15 0.136286 0.464011 0.435670
O O16 0.365496 0.365496 0.294364
O O17 0.430234 0.069767 0.273706
#
# Coordination Sequence:
#
# PCOD9570641 Si02
#       7
#    16  16  16  16  16  16  16
#     4  10  19  31  52  79 107 136 170 214 268 328
#     4  10  21  35  50  71  98 135 181 229 271 308
#     4  10  19  33  54  79 103 134 175 218 265 323
#     4  11  21  35  53  72 102 138 176 216 267 315
#     4  11  21  33  51  75 103 139 174 213 262 324
#     4  11  21  35  53  70  96 139 185 227 270 315
#     4  10  19  33  51  76 107 136 169 217 270 323
#
# _framework density 16.893856
#
# number of rings (size 3 to 8) (size 9 to 14) (size 15 to 20)
#    0.000    1.571    2.857    3.857    0.000    3.714 
#    0.000    0.000    0.000    1.714    0.000    0.000 
#    0.000    2.286    0.000    8.000    0.000    0.286 
#
# Total GULP energy -623944.096710 kJ/mol
# GULP energy per Si atom -5570.929435 kJ/mol
# Density = 1.685540 g / cm^3
# Si number density = 16.893856 Si / 1000 Ang^3
#
#
#
# Elastic Constant Matrix: (Units=GPa)
#
#
# Indices 1 2 3 4 5 6 
#
# 1 66.1146 20.6582 0.8333 0.0000 0.0000 0.0000
# 2 20.6582 66.1152 0.8327 0.0000 0.0000 0.0000
# 3 0.8333 0.8327 55.2913 0.0000 0.0000 0.0000
# 4 0.0000 0.0000 0.0000 22.3488 0.0000 0.0000
# 5 0.0000 0.0000 0.0000 0.0000 22.3489 0.0000
# 6 0.0000 0.0000 0.0000 0.0000 0.0000 14.3480
#
#
#
# Elastic Compliance Matrix: (Units=1/GPa)
#
#
# Indices 1 2 3 4 5 6 
#
# 1 0.016763 -0.005236 -0.000174 0.000000 0.000000 0.000000
# 2 -0.005236 0.016763 -0.000174 0.000000 0.000000 0.000000
# 3 -0.000174 -0.000174 0.018091 0.000000 0.000000 0.000000
# 4 0.000000 0.000000 0.000000 0.044745 0.000000 0.000000
# 5 0.000000 0.000000 0.000000 0.000000 0.044745 0.000000
# 6 0.000000 0.000000 0.000000 0.000000 0.000000 0.069696
#
#
# Mechanical properties :
#
#
# Convention : Reuss Voigt Hill
#
# Bulk Modulus (GPa) = 24.72071 25.79659 25.25865
# Shear Modulus (GPa) = 21.23559 22.82229 22.02894
#
# Velocity S-wave (km/s) = 3.54927 3.67948 3.61496
# Velocity P-wave (km/s) = 5.60902 5.77532 5.69278
#
# Compressibility (1/GPa) = 0.04045191
#
# Stress axis : x y z
#
# Youngs Moduli (GPa) = 59.65390 59.65447 55.27526
#
# Poissons Ratio (x) = 0.31233 0.00961
# Poissons Ratio (y) = 0.31233 0.00959
# Poissons Ratio (z) = 0.01037 0.01035
#
# Static dielectric constant tensor:
#      x y z
#    x 1.596690 0.000000 0.000000 
#    y 0.000000 1.596690 0.000000 
#    z 0.000000 0.000000 1.620270 
# 
# From -- ./inp_files/3287.got.cif
#   From: 2010.05.17/outbox.cif.g08.bks.cpg/sg138_2_cif.got.tgz:3287.got - 2010.05.20 13:08:53.
