data_PCOD9570369
_publ_section_title
;
Structure prediction by ZEFSAII (Michael W. Deem and Ramdas Pophale) SiO2 
 PCOD9570369
Probable space group: P 42/N M C
;
_chemical_formula_sum "Si O2"
_cell_formula_units_Z 64
_cell_length_a 14.167839
_cell_length_b 14.167839
_cell_length_c 15.532959
_cell_angle_alpha 90.000000
_cell_angle_beta 90.000000
_cell_angle_gamma 90.000000
_cell_volume 3117.894543
_symmetry_space_group_name_H-M "P 42/N M C"
_symmetry_group_IT_number 137
_space_group.IT_coordinate_system_code '2'
_symmetry_cell_setting 'tetragonal'
loop_
_space_group_symop_operation_xyz
x,y,z
1/2-y,x,1/2+z
1/2-x,1/2-y,z
y,1/2-x,1/2+z
1/2+x,-y,-z
-x,1/2+y,-z
1/2+y,1/2+x,1/2-z
-y,-x,1/2-z
-x,-y,-z
1/2+y,-x,1/2-z
1/2+x,1/2+y,-z
-y,1/2+x,1/2-z
1/2-x,y,z
x,1/2-y,z
1/2-y,1/2-x,1/2+z
y,x,1/2+z
loop_
_atom_site_type_symbol
_atom_site_label
_atom_site_fract_x
_atom_site_fract_y
_atom_site_fract_z
Si Si1 0.953958 0.537435 0.605640
Si Si2 0.860954 0.945763 0.937488
Si Si3 0.354076 0.138658 0.744850
Si Si4 0.140124 0.643806 0.853952
O O1 0.907803 0.593766 0.526042
O O2 0.908505 0.567919 0.695149
O O3 0.964534 0.426646 0.587640
O O4 0.061025 0.577283 0.608731
O O5 0.750000 0.965844 0.948592
O O6 0.871140 0.876803 0.855772
O O7 0.250000 0.098497 0.764700
O O8 0.353291 0.250000 0.763395
O O9 0.136673 0.636673 0.750000
O O10 0.250000 0.631645 0.878627
O O11 0.110565 0.750000 0.877722
#
# Coordination Sequence:
#
# PCOD9570369 Si02
#       4
#    16  16  16  16
#     4  11  21  36  60  81 109 156 195 231 286 350
#     4  10  22  37  54  82 116 149 191 241 288 336
#     4  10  21  37  59  87 117 149 187 233 285 343
#     4   9  17  29  49  80 113 144 185 237 287 337
#
# _framework density 20.526671
#
# number of rings (size 3 to 8) (size 9 to 14) (size 15 to 20)
#    0.000    2.000    0.000    5.250    0.000    4.000 
#    0.000    6.250    0.000    3.750    0.000    7.000 
#    0.000    0.000    0.000    0.000    0.000    0.000 
#
# Total GULP energy -357414.402153 kJ/mol
# GULP energy per Si atom -5584.600034 kJ/mol
# Density = 2.047995 g / cm^3
# Si number density = 20.526671 Si / 1000 Ang^3
#
#
#
# Elastic Constant Matrix: (Units=GPa)
#
#
# Indices 1 2 3 4 5 6 
#
# 1 71.1555 8.0801 10.2573 0.0000 0.0000 0.0000
# 2 8.0801 71.1555 10.2573 0.0000 0.0000 0.0000
# 3 10.2573 10.2573 57.2662 0.0000 0.0000 0.0000
# 4 0.0000 0.0000 0.0000 22.3235 0.0000 0.0000
# 5 0.0000 0.0000 0.0000 0.0000 22.3235 0.0000
# 6 0.0000 0.0000 0.0000 0.0000 0.0000 11.2990
#
#
#
# Elastic Compliance Matrix: (Units=1/GPa)
#
#
# Indices 1 2 3 4 5 6 
#
# 1 0.014544 -0.001310 -0.002370 0.000000 0.000000 0.000000
# 2 -0.001310 0.014544 -0.002370 0.000000 0.000000 0.000000
# 3 -0.002370 -0.002370 0.018312 0.000000 0.000000 0.000000
# 4 0.000000 0.000000 0.000000 0.044796 0.000000 0.000000
# 5 0.000000 0.000000 0.000000 0.000000 0.044796 0.000000
# 6 0.000000 0.000000 0.000000 0.000000 0.000000 0.088503
#
#
# Mechanical properties :
#
#
# Convention : Reuss Voigt Hill
#
# Bulk Modulus (GPa) = 28.33005 28.52963 28.42984
# Shear Modulus (GPa) = 20.05113 22.58802 21.31958
#
# Velocity S-wave (km/s) = 3.12882 3.32086 3.22627
# Velocity P-wave (km/s) = 5.18500 5.35099 5.26865
#
# Compressibility (1/GPa) = 0.03529821
#
# Stress axis : x y z
#
# Youngs Moduli (GPa) = 68.75604 68.75604 54.61048
#
# Poissons Ratio (x) = 0.09006 0.12945
# Poissons Ratio (y) = 0.09006 0.12945
# Poissons Ratio (z) = 0.16298 0.16298
#
# Static dielectric constant tensor:
#      x y z
#    x 1.757720 0.000000 0.000000 
#    y 0.000000 1.757720 0.000000 
#    z 0.000000 0.000000 1.742190 
# 
# From -- ./inp_files/4713.got.cif
#   From: 2010.05.17/outbox.cif.g08.bks.cpg/sg137_3_cif.got.tgz:4713.got - 2010.05.20 13:01:12.
