data_PCOD9570522
_publ_section_title
;
Structure prediction by ZEFSAII (Michael W. Deem and Ramdas Pophale) SiO2 
 PCOD9570522
Probable space group: P 42/N M C
;
_chemical_formula_sum "Si O2"
_cell_formula_units_Z 64
_cell_length_a 18.307111
_cell_length_b 18.307111
_cell_length_c 10.032427
_cell_angle_alpha 90.000000
_cell_angle_beta 90.000000
_cell_angle_gamma 90.000000
_cell_volume 3362.371051
_symmetry_space_group_name_H-M "P 42/N M C"
_symmetry_group_IT_number 137
_space_group.IT_coordinate_system_code '2'
_symmetry_cell_setting 'tetragonal'
loop_
_space_group_symop_operation_xyz
x,y,z
1/2-y,x,1/2+z
1/2-x,1/2-y,z
y,1/2-x,1/2+z
1/2+x,-y,-z
-x,1/2+y,-z
1/2+y,1/2+x,1/2-z
-y,-x,1/2-z
-x,-y,-z
1/2+y,-x,1/2-z
1/2+x,1/2+y,-z
-y,1/2+x,1/2-z
1/2-x,y,z
x,1/2-y,z
1/2-y,1/2-x,1/2+z
y,x,1/2+z
loop_
_atom_site_type_symbol
_atom_site_label
_atom_site_fract_x
_atom_site_fract_y
_atom_site_fract_z
Si Si1 0.162520 0.832961 0.106099
Si Si2 0.595833 0.916666 0.498925
Si Si3 0.163883 0.163481 0.753223
Si Si4 0.928755 0.420280 0.409958
O O1 0.136176 0.863825 0.250000
O O2 0.250000 0.830662 0.118083
O O3 0.135449 0.750000 0.090403
O O4 0.140314 0.879638 0.979863
O O5 0.621521 0.877436 0.364479
O O6 0.644886 0.880735 0.613512
O O7 0.511809 0.906100 0.543731
O O8 0.599791 0.003226 0.471847
O O9 0.250000 0.141153 0.762451
O O10 0.163111 0.250000 0.728891
O O11 0.923793 0.423793 0.250000
#
# Coordination Sequence:
#
# PCOD9570522 Si02
#       4
#    16  16  16  16
#     4   9  21  41  63  91 125 160 204 256 309 371
#     4  11  24  43  64  92 128 165 206 261 310 370
#     4  11  24  43  66  94 130 169 212 261 314 374
#     4  11  24  42  64  92 127 166 208 258 313 374
#
# _framework density 19.034186999999999
#
# number of rings (size 3 to 8) (size 9 to 14) (size 15 to 20)
#    0.000    1.500    2.500    2.250    3.500    7.000 
#    0.000    1.250    0.000    0.000    0.000    0.000 
#    0.000    0.000    0.000    0.000    0.000    0.000 
#
# Total GULP energy -357171.073529 kJ/mol
# GULP energy per Si atom -5580.798024 kJ/mol
# Density = 1.899086 g / cm^3
# Si number density = 19.034187 Si / 1000 Ang^3
#
#
#
# Elastic Constant Matrix: (Units=GPa)
#
#
# Indices 1 2 3 4 5 6 
#
# 1 35.0090 35.3523 12.7156 0.0000 0.0000 0.0000
# 2 35.3523 35.0093 12.7158 0.0000 0.0000 0.0000
# 3 12.7156 12.7158 87.6791 0.0000 0.0000 0.0000
# 4 0.0000 0.0000 0.0000 30.3226 0.0000 0.0000
# 5 0.0000 0.0000 0.0000 0.0000 30.3230 0.0000
# 6 0.0000 0.0000 0.0000 0.0000 0.0000 25.3176
#
#
#
# Elastic Compliance Matrix: (Units=1/GPa)
#
#
# Indices 1 2 3 4 5 6 
#
# 1 -1.449633 1.464626 -0.002179 0.000000 0.000000 0.000000
# 2 1.464626 -1.449623 -0.002172 0.000000 0.000000 0.000000
# 3 -0.002179 -0.002172 0.012036 0.000000 0.000000 0.000000
# 4 0.000000 0.000000 0.000000 0.032979 0.000000 0.000000
# 5 0.000000 0.000000 0.000000 0.000000 0.032978 0.000000
# 6 0.000000 0.000000 0.000000 0.000000 0.000000 0.039498
#
#
# Mechanical properties :
#
#
# Convention : Reuss Voigt Hill
#
# Bulk Modulus (GPa) = 30.00072 31.02940 30.51506
# Shear Modulus (GPa) = -0.87855 23.65356 11.38751
#
# Velocity S-wave (km/s) = -0.68012 3.52900 2.44860
# Velocity P-wave (km/s) = 3.89602 5.73955 4.90517
#
# Compressibility (1/GPa) = 0.03333253
#
# Stress axis : x y z
#
# Youngs Moduli (GPa) = -0.68983 -0.68983 83.08313
#
# Poissons Ratio (x) = 1.01035 0.18100
# Poissons Ratio (y) = 1.01034 0.18044
# Poissons Ratio (z) = -0.00150 -0.00150
#
# Static dielectric constant tensor:
#      x y z
#    x 1.655590 0.000000 0.000000 
#    y 0.000000 1.655590 0.000000 
#    z 0.000000 0.000000 1.674070 
# 
# From -- ./inp_files/3311.got.cif
#   From: 2010.05.17/outbox.cif.g08.bks.cpg/sg137_2_cif.got.tgz:3311.got - 2010.05.20 13:01:12.
