data_PCOD9570162
_publ_section_title
;
Structure prediction by ZEFSAII (Michael W. Deem and Ramdas Pophale) SiO2 
 PCOD9570162
Probable space group: P 42/N M C
;
_chemical_formula_sum "Si O2"
_cell_formula_units_Z 112
_cell_length_a 24.101001
_cell_length_b 24.101001
_cell_length_c 12.549984
_cell_angle_alpha 90.000000
_cell_angle_beta 90.000000
_cell_angle_gamma 90.000000
_cell_volume 7289.761734
_symmetry_space_group_name_H-M "P 42/N M C"
_symmetry_group_IT_number 137
_space_group.IT_coordinate_system_code '2'
_symmetry_cell_setting 'tetragonal'
loop_
_space_group_symop_operation_xyz
x,y,z
1/2-y,x,1/2+z
1/2-x,1/2-y,z
y,1/2-x,1/2+z
1/2+x,-y,-z
-x,1/2+y,-z
1/2+y,1/2+x,1/2-z
-y,-x,1/2-z
-x,-y,-z
1/2+y,-x,1/2-z
1/2+x,1/2+y,-z
-y,1/2+x,1/2-z
1/2-x,y,z
x,1/2-y,z
1/2-y,1/2-x,1/2+z
y,x,1/2+z
loop_
_atom_site_type_symbol
_atom_site_label
_atom_site_fract_x
_atom_site_fract_y
_atom_site_fract_z
Si Si1 0.091280 0.638947 0.014919
Si Si2 0.688071 0.400215 0.293225
Si Si3 0.814230 0.987719 0.157873
Si Si4 0.042230 0.518780 0.589365
Si Si5 0.970614 0.377962 0.775476
Si Si6 0.684451 0.446032 0.939428
Si Si7 0.948345 0.576207 0.725027
O O1 0.096193 0.683273 0.921044
O O2 0.054417 0.590546 0.961753
O O3 0.059975 0.651885 0.125556
O O4 0.150485 0.610559 0.039031
O O5 0.641641 0.358360 0.250000
O O6 0.750000 0.382097 0.261683
O O7 0.679093 0.460321 0.239363
O O8 0.750000 0.969480 0.163339
O O9 0.860092 0.942576 0.191129
O O10 0.824419 0.012918 0.039909
O O11 0.066733 0.466226 0.652587
O O12 0.000000 0.500000 0.500000
O O13 0.004097 0.556717 0.664228
O O14 0.932870 0.432870 0.750000
O O15 0.970143 0.341025 0.669517
O O16 0.032102 0.400373 0.801453
O O17 0.750000 0.436373 0.930552
#
# Coordination Sequence:
#
# PCOD9570162 Si02
#       7
#    16  16  16  16  16  16  16
#     4  11  19  32  47  69  92 124 159 200 240 299
#     4  11  21  34  49  67  89 121 165 212 255 289
#     4  10  20  32  48  68  96 133 162 187 240 296
#     4  11  17  26  42  69  99 120 152 189 234 287
#     4  10  20  30  46  73  96 123 164 194 236 292
#     4  10  20  33  48  64  94 129 159 195 235 292
#     4  11  18  27  45  70  99 125 149 196 232 283
#
# _framework density 15.364015
#
# number of rings (size 3 to 8) (size 9 to 14) (size 15 to 20)
#    0.000    1.429    7.143    0.857    0.000    0.714 
#    0.000    0.000    0.000    0.000    0.000    0.000 
#    0.000    0.571    0.000    3.143    0.000    0.000 
#
# Total GULP energy -624388.956494 kJ/mol
# GULP energy per Si atom -5574.901397 kJ/mol
# Density = 1.532905 g / cm^3
# Si number density = 15.364015 Si / 1000 Ang^3
#
#
#
# Elastic Constant Matrix: (Units=GPa)
#
#
# Indices 1 2 3 4 5 6 
#
# 1 56.2432 18.6003 25.5893 0.0000 0.0000 0.0000
# 2 18.6003 56.2429 25.5893 0.0000 0.0000 0.0000
# 3 25.5893 25.5893 92.3701 0.0000 0.0000 0.0000
# 4 0.0000 0.0000 0.0000 19.4564 0.0000 0.0000
# 5 0.0000 0.0000 0.0000 0.0000 19.4564 0.0000
# 6 0.0000 0.0000 0.0000 0.0000 0.0000 13.2413
#
#
#
# Elastic Compliance Matrix: (Units=1/GPa)
#
#
# Indices 1 2 3 4 5 6 
#
# 1 0.021525 -0.005041 -0.004567 0.000000 0.000000 0.000000
# 2 -0.005041 0.021525 -0.004567 0.000000 0.000000 0.000000
# 3 -0.004567 -0.004567 0.013356 0.000000 0.000000 0.000000
# 4 0.000000 0.000000 0.000000 0.051397 0.000000 0.000000
# 5 0.000000 0.000000 0.000000 0.000000 0.051397 0.000000
# 6 0.000000 0.000000 0.000000 0.000000 0.000000 0.075521
#
#
# Mechanical properties :
#
#
# Convention : Reuss Voigt Hill
#
# Bulk Modulus (GPa) = 35.64074 38.26823 36.95449
# Shear Modulus (GPa) = 18.35393 19.43597 18.89495
#
# Velocity S-wave (km/s) = 3.46006 3.56059 3.51068
# Velocity P-wave (km/s) = 6.26183 6.47035 6.36695
#
# Compressibility (1/GPa) = 0.02805778
#
# Stress axis : x y z
#
# Youngs Moduli (GPa) = 46.45839 46.45812 74.87192
#
# Poissons Ratio (x) = 0.23419 0.34190
# Poissons Ratio (y) = 0.23419 0.34191
# Poissons Ratio (z) = 0.21215 0.21215
#
# Static dielectric constant tensor:
#      x y z
#    x 1.510410 0.000000 0.000000 
#    y 0.000000 1.510410 0.000000 
#    z 0.000000 0.000000 1.572680 
# 
# From -- ./inp_files/3966.got.cif
#   From: 2010.05.17/outbox.cif.g08.bks.cpg/sg137_2_cif.got.tgz:3966.got - 2010.05.20 13:01:12.
