data_PCOD9570785
_publ_section_title
;
Structure prediction by ZEFSAII (Michael W. Deem and Ramdas Pophale) SiO2 
 PCOD9570785
Probable space group: P 42/N C M
;
_chemical_formula_sum "Si O2"
_cell_formula_units_Z 96
_cell_length_a 20.655233
_cell_length_b 20.655233
_cell_length_c 8.963155
_cell_angle_alpha 90.000000
_cell_angle_beta 90.000000
_cell_angle_gamma 90.000000
_cell_volume 3824.028351
_symmetry_space_group_name_H-M "P 42/N C M"
_symmetry_group_IT_number 138
_space_group.IT_coordinate_system_code '2'
_symmetry_cell_setting 'tetragonal'
loop_
_space_group_symop_operation_xyz
x,y,z
1/2-y,x,1/2+z
1/2-x,1/2-y,z
y,1/2-x,1/2+z
1/2+x,-y,1/2-z
-x,1/2+y,1/2-z
1/2+y,1/2+x,-z
-y,-x,-z
-x,-y,-z
1/2+y,-x,1/2-z
1/2+x,1/2+y,-z
-y,1/2+x,1/2-z
1/2-x,y,1/2+z
x,1/2-y,1/2+z
1/2-y,1/2-x,z
y,x,z
loop_
_atom_site_type_symbol
_atom_site_label
_atom_site_fract_x
_atom_site_fract_y
_atom_site_fract_z
Si Si1 0.666880 0.298039 0.717999
Si Si2 0.670491 0.571520 0.813346
Si Si3 0.362465 0.037923 0.129819
Si Si4 0.957827 0.241595 0.060208
Si Si5 0.065871 0.621524 0.640515
Si Si6 0.622331 0.780006 0.633475
O O1 0.738660 0.318460 0.668058
O O2 0.611491 0.268370 0.613239
O O3 0.635003 0.361420 0.789518
O O4 0.596021 0.596021 0.814770
O O5 0.695490 0.497765 0.823058
O O6 0.707617 0.607145 0.679762
O O7 0.700613 0.599453 0.968650
O O8 0.415467 0.084534 0.055521
O O9 0.322146 0.081430 0.247466
O O10 0.307695 0.999164 0.039363
O O11 0.397963 0.984592 0.233871
O O12 0.953782 0.193223 0.920555
O O13 0.074857 0.574857 0.500000
O O14 0.695599 0.804402 0.648445
#
# Coordination Sequence:
#
# PCOD9570785 Si02
#       6
#    16  16  16  16  16  16
#     4  10  21  37  57  86 121 155 195 246 310 374
#     4  10  20  35  56  81 114 155 198 248 307 368
#     4   9  19  36  57  81 117 160 201 248 306 368
#     4  10  20  36  58  83 118 158 195 250 303 364
#     4  11  20  34  59  89 118 152 205 252 305 367
#     4   9  18  33  53  77 109 149 195 247 304 360
#
# _framework density 25.104417999999999
#
# number of rings (size 3 to 8) (size 9 to 14) (size 15 to 20)
#    0.000    2.167    3.333    0.000    0.000    2.000 
#    0.000    1.667    0.000    0.000    0.000    4.667 
#    0.000    0.000    0.000    0.000    0.000    0.000 
#
# Total GULP energy -535635.036130 kJ/mol
# GULP energy per Si atom -5579.531626 kJ/mol
# Density = 2.504728 g / cm^3
# Si number density = 25.104418 Si / 1000 Ang^3
#
#
#
# Elastic Constant Matrix: (Units=GPa)
#
#
# Indices 1 2 3 4 5 6 
#
# 1 61.7073 55.6394 8.6682 0.0000 0.0000 0.0000
# 2 55.6394 61.7073 8.6682 0.0000 0.0000 0.0000
# 3 8.6682 8.6682 65.3037 0.0000 0.0000 0.0000
# 4 0.0000 0.0000 0.0000 19.8729 0.0000 0.0000
# 5 0.0000 0.0000 0.0000 0.0000 19.8729 0.0000
# 6 0.0000 0.0000 0.0000 0.0000 0.0000 50.3421
#
#
#
# Elastic Compliance Matrix: (Units=1/GPa)
#
#
# Indices 1 2 3 4 5 6 
#
# 1 0.086747 -0.078055 -0.001154 0.000000 0.000000 0.000000
# 2 -0.078055 0.086747 -0.001154 0.000000 0.000000 0.000000
# 3 -0.001154 -0.001154 0.015619 0.000000 0.000000 0.000000
# 4 0.000000 0.000000 0.000000 0.050320 0.000000 0.000000
# 5 0.000000 0.000000 0.000000 0.000000 0.050320 0.000000
# 6 0.000000 0.000000 0.000000 0.000000 0.000000 0.019864
#
#
# Mechanical properties :
#
#
# Convention : Reuss Voigt Hill
#
# Bulk Modulus (GPa) = 35.22531 37.18555 36.20543
# Shear Modulus (GPa) = 10.42087 25.73373 18.07730
#
# Velocity S-wave (km/s) = 2.03961 3.20514 2.68635
# Velocity P-wave (km/s) = 4.42817 5.34245 4.90665
#
# Compressibility (1/GPa) = 0.02838867
#
# Stress axis : x y z
#
# Youngs Moduli (GPa) = 11.52773 11.52773 64.02308
#
# Poissons Ratio (x) = 0.89980 0.07387
# Poissons Ratio (y) = 0.89980 0.07387
# Poissons Ratio (z) = 0.01330 0.01330
#
# Static dielectric constant tensor:
#      x y z
#    x 2.022780 0.000000 0.000000 
#    y 0.000000 2.022780 0.000000 
#    z 0.000000 0.000000 2.032770 
# 
# From -- ./inp_files/3107.got.cif
#   From: 2010.05.17/outbox.cif.g08.bks.cpg/sg138_2_cif.got.tgz:3107.got - 2010.05.20 13:08:53.
