data_PCOD9570807
_publ_section_title
;
Structure prediction by ZEFSAII (Michael W. Deem and Ramdas Pophale) SiO2 
 PCOD9570807
Probable space group: P 42/N C M
;
_chemical_formula_sum "Si O2"
_cell_formula_units_Z 80
_cell_length_a 12.346101
_cell_length_b 12.346101
_cell_length_c 27.957236
_cell_angle_alpha 90.000000
_cell_angle_beta 90.000000
_cell_angle_gamma 90.000000
_cell_volume 4261.415523
_symmetry_space_group_name_H-M "P 42/N C M"
_symmetry_group_IT_number 138
_space_group.IT_coordinate_system_code '2'
_symmetry_cell_setting 'tetragonal'
loop_
_space_group_symop_operation_xyz
x,y,z
1/2-y,x,1/2+z
1/2-x,1/2-y,z
y,1/2-x,1/2+z
1/2+x,-y,1/2-z
-x,1/2+y,1/2-z
1/2+y,1/2+x,-z
-y,-x,-z
-x,-y,-z
1/2+y,-x,1/2-z
1/2+x,1/2+y,-z
-y,1/2+x,1/2-z
1/2-x,y,1/2+z
x,1/2-y,1/2+z
1/2-y,1/2-x,z
y,x,z
loop_
_atom_site_type_symbol
_atom_site_label
_atom_site_fract_x
_atom_site_fract_y
_atom_site_fract_z
Si Si1 0.071813 0.243494 0.813608
Si Si2 0.371802 0.551737 0.948561
Si Si3 0.347237 0.527767 0.405852
Si Si4 0.257279 0.623485 0.127855
Si Si5 0.933336 0.748961 0.795389
O O1 0.168785 0.331216 0.811519
O O2 0.128865 0.128865 0.825201
O O3 0.027726 0.239672 0.759762
O O4 0.995384 0.286632 0.855066
O O5 0.449879 0.449879 0.940874
O O6 0.246457 0.519022 0.944937
O O7 0.389325 0.640582 0.907115
O O8 0.398730 0.601271 0.000000
O O9 0.439363 0.439363 0.411875
O O10 0.393608 0.647949 0.402689
O O11 0.250000 0.750000 0.143790
O O12 0.258543 0.535008 0.169672
O O13 0.856509 0.643492 0.804672
O O14 0.852635 0.852635 0.799616
#
# Coordination Sequence:
#
# PCOD9570807 Si02
#       5
#    16  16  16  16  16
#     4   8  15  30  53  79 106 141 187 232 270 312
#     4  10  22  41  62  82 108 144 187 235 284 336
#     4  10  20  36  58  84 112 145 186 232 278 331
#     4  10  21  36  52  80 117 150 177 221 279 343
#     4   9  17  33  57  80 107 146 190 233 272 319
#
# _framework density 18.773105999999999
#
# number of rings (size 3 to 8) (size 9 to 14) (size 15 to 20)
#    0.000    2.600    0.000    3.000    0.000    4.800 
#    7.200    3.000    0.000    2.400    0.000    0.000 
#    0.000    0.000    0.000    0.000    0.000    0.000 
#
# Total GULP energy -446245.699971 kJ/mol
# GULP energy per Si atom -5578.071250 kJ/mol
# Density = 1.873038 g / cm^3
# Si number density = 18.773106 Si / 1000 Ang^3
#
#
#
# Elastic Constant Matrix: (Units=GPa)
#
#
# Indices 1 2 3 4 5 6 
#
# 1 67.7431 33.6068 10.6516 0.0000 0.0000 0.0000
# 2 33.6068 67.7426 10.6515 0.0000 0.0000 0.0000
# 3 10.6516 10.6515 21.9616 0.0000 0.0000 0.0000
# 4 0.0000 0.0000 0.0000 5.7861 0.0000 0.0000
# 5 0.0000 0.0000 0.0000 0.0000 5.7900 0.0000
# 6 0.0000 0.0000 0.0000 0.0000 0.0000 15.5154
#
#
#
# Elastic Compliance Matrix: (Units=1/GPa)
#
#
# Indices 1 2 3 4 5 6 
#
# 1 0.020141 -0.009154 -0.005329 0.000000 0.000000 0.000000
# 2 -0.009154 0.020141 -0.005329 0.000000 0.000000 0.000000
# 3 -0.005329 -0.005329 0.050703 0.000000 0.000000 0.000000
# 4 0.000000 0.000000 0.000000 0.172827 0.000000 0.000000
# 5 0.000000 0.000000 0.000000 0.000000 0.172712 0.000000
# 6 0.000000 0.000000 0.000000 0.000000 0.000000 0.064452
#
#
# Mechanical properties :
#
#
# Convention : Reuss Voigt Hill
#
# Bulk Modulus (GPa) = 19.46974 29.69636 24.58305
# Shear Modulus (GPa) = 8.96511 12.25414 10.60963
#
# Velocity S-wave (km/s) = 2.18766 2.55767 2.37987
# Velocity P-wave (km/s) = 4.09570 4.95733 4.54697
#
# Compressibility (1/GPa) = 0.05136176
#
# Stress axis : x y z
#
# Youngs Moduli (GPa) = 49.65084 49.65054 19.72275
#
# Poissons Ratio (x) = 0.45449 0.10510
# Poissons Ratio (y) = 0.45449 0.10510
# Poissons Ratio (z) = 0.26458 0.26457
#
# Static dielectric constant tensor:
#      x y z
#    x 1.654020 0.000000 0.000000 
#    y 0.000000 1.654020 0.000000 
#    z 0.000000 0.000000 1.637400 
# 
# From -- ./inp_files/7876.got.cif
#   From: 2010.05.17/outbox.cif.g08.bks.cpg/sg138_4_cif.got.tgz:7876.got - 2010.05.20 13:08:53.
