data_PCOD9570814
_publ_section_title
;
Structure prediction by ZEFSAII (Michael W. Deem and Ramdas Pophale) SiO2 
 PCOD9570814
Probable space group: P 42/N C M
;
_chemical_formula_sum "Si O2"
_cell_formula_units_Z 64
_cell_length_a 11.722942
_cell_length_b 11.722942
_cell_length_c 21.127740
_cell_angle_alpha 90.000000
_cell_angle_beta 90.000000
_cell_angle_gamma 90.000000
_cell_volume 2903.529724
_symmetry_space_group_name_H-M "P 42/N C M"
_symmetry_group_IT_number 138
_space_group.IT_coordinate_system_code '2'
_symmetry_cell_setting 'tetragonal'
loop_
_space_group_symop_operation_xyz
x,y,z
1/2-y,x,1/2+z
1/2-x,1/2-y,z
y,1/2-x,1/2+z
1/2+x,-y,1/2-z
-x,1/2+y,1/2-z
1/2+y,1/2+x,-z
-y,-x,-z
-x,-y,-z
1/2+y,-x,1/2-z
1/2+x,1/2+y,-z
-y,1/2+x,1/2-z
1/2-x,y,1/2+z
x,1/2-y,1/2+z
1/2-y,1/2-x,z
y,x,z
loop_
_atom_site_type_symbol
_atom_site_label
_atom_site_fract_x
_atom_site_fract_y
_atom_site_fract_z
Si Si1 0.061188 0.728452 0.257365
Si Si2 0.460416 0.275862 0.871220
Si Si3 0.936753 0.758289 0.489580
Si Si4 0.619294 0.300786 0.109737
O O1 0.128049 0.846580 0.247210
O O2 0.981206 0.717016 0.196484
O O3 0.035015 0.731593 0.331770
O O4 0.344244 0.344244 0.866270
O O5 0.460487 0.209801 0.937281
O O6 0.564499 0.362748 0.884539
O O7 0.855692 0.644309 0.489039
O O8 0.859712 0.859712 0.461494
O O9 0.054000 0.736240 0.453046
O O10 0.750000 0.250000 0.116544
#
# Coordination Sequence:
#
# PCOD9570814 Si02
#       4
#    16  16  16  16
#     4   9  16  35  56  80 115 152 191 251 308 351
#     4  10  20  36  60  86 114 160 211 249 299 370
#     4  10  23  42  60  87 129 168 206 253 304 363
#     4  11  20  37  63  89 121 158 203 259 306 360
#
# _framework density 22.042138000000001
#
# number of rings (size 3 to 8) (size 9 to 14) (size 15 to 20)
#    0.000    2.000    5.000    1.500    0.000    5.000 
#    0.000    8.750    0.000    3.000    0.000    0.000 
#    0.000    0.000    0.000    0.000    0.000    0.000 
#
# Total GULP energy -356448.472820 kJ/mol
# GULP energy per Si atom -5569.507388 kJ/mol
# Density = 2.199197 g / cm^3
# Si number density = 22.042138 Si / 1000 Ang^3
#
#
#
# Elastic Constant Matrix: (Units=GPa)
#
#
# Indices 1 2 3 4 5 6 
#
# 1 47.6557 30.8390 42.7768 0.0000 0.0000 0.0000
# 2 30.8390 47.6557 42.7768 0.0000 0.0000 0.0000
# 3 42.7768 42.7768 165.6289 0.0000 0.0000 0.0000
# 4 0.0000 0.0000 0.0000 3.4402 0.0000 0.0000
# 5 0.0000 0.0000 0.0000 0.0000 3.4402 0.0000
# 6 0.0000 0.0000 0.0000 0.0000 0.0000 35.4111
#
#
#
# Elastic Compliance Matrix: (Units=1/GPa)
#
#
# Indices 1 2 3 4 5 6 
#
# 1 0.038598 -0.020867 -0.004579 0.000000 0.000000 0.000000
# 2 -0.020867 0.038598 -0.004579 0.000000 0.000000 0.000000
# 3 -0.004579 -0.004579 0.008403 0.000000 0.000000 0.000000
# 4 0.000000 0.000000 0.000000 0.290682 0.000000 0.000000
# 5 0.000000 0.000000 0.000000 0.000000 0.290682 0.000000
# 6 0.000000 0.000000 0.000000 0.000000 0.000000 0.028240
#
#
# Mechanical properties :
#
#
# Convention : Reuss Voigt Hill
#
# Bulk Modulus (GPa) = 39.14292 54.85840 47.00066
# Shear Modulus (GPa) = 6.54647 18.09480 12.32063
#
# Velocity S-wave (km/s) = 1.72523 2.86828 2.36679
# Velocity P-wave (km/s) = 4.66533 5.99261 5.37013
#
# Compressibility (1/GPa) = 0.02554740
#
# Stress axis : x y z
#
# Youngs Moduli (GPa) = 25.90819 25.90819 119.00512
#
# Poissons Ratio (x) = 0.54062 0.54497
# Poissons Ratio (y) = 0.54062 0.54497
# Poissons Ratio (z) = 0.11864 0.11864
#
# Static dielectric constant tensor:
#      x y z
#    x 1.812640 0.000000 0.000000 
#    y 0.000000 1.812640 0.000000 
#    z 0.000000 0.000000 1.915210 
# 
# From -- ./inp_files/5845.got.cif
#   From: 2010.05.17/outbox.cif.g08.bks.cpg/sg138_3_cif.got.tgz:5845.got - 2010.05.20 13:08:53.
