data_PCOD9570297
_publ_section_title
;
Structure prediction by ZEFSAII (Michael W. Deem and Ramdas Pophale) SiO2 
 PCOD9570297
Probable space group: P 42/N M C
;
_chemical_formula_sum "Si O2"
_cell_formula_units_Z 112
_cell_length_a 30.603502
_cell_length_b 30.603502
_cell_length_c 5.533219
_cell_angle_alpha 90.000000
_cell_angle_beta 90.000000
_cell_angle_gamma 90.000000
_cell_volume 5182.270903
_symmetry_space_group_name_H-M "P 42/N M C"
_symmetry_group_IT_number 137
_space_group.IT_coordinate_system_code '2'
_symmetry_cell_setting 'tetragonal'
loop_
_space_group_symop_operation_xyz
x,y,z
1/2-y,x,1/2+z
1/2-x,1/2-y,z
y,1/2-x,1/2+z
1/2+x,-y,-z
-x,1/2+y,-z
1/2+y,1/2+x,1/2-z
-y,-x,1/2-z
-x,-y,-z
1/2+y,-x,1/2-z
1/2+x,1/2+y,-z
-y,1/2+x,1/2-z
1/2-x,y,z
x,1/2-y,z
1/2-y,1/2-x,1/2+z
y,x,1/2+z
loop_
_atom_site_type_symbol
_atom_site_label
_atom_site_fract_x
_atom_site_fract_y
_atom_site_fract_z
Si Si1 0.374987 0.412472 0.526525
Si Si2 0.998333 0.129199 0.777696
Si Si3 0.144328 0.922378 0.628813
Si Si4 0.462209 0.700800 0.490174
Si Si5 0.048550 0.521267 0.000919
Si Si6 0.802343 0.658074 0.492209
Si Si7 0.798839 0.128784 0.694706
O O1 0.393121 0.400824 0.792029
O O2 0.376998 0.463970 0.473321
O O3 0.327881 0.388478 0.510747
O O4 0.998199 0.178992 0.682282
O O5 0.005115 0.092701 0.564865
O O6 0.950105 0.127946 0.900514
O O7 0.109349 0.890652 0.750000
O O8 0.164979 0.957732 0.803965
O O9 0.185294 0.892263 0.554866
O O10 0.472480 0.750000 0.563117
O O11 0.413549 0.701003 0.370556
O O12 0.046777 0.546777 0.250000
O O13 0.047330 0.547330 0.750000
O O14 0.000000 0.500000 0.000000
O O15 0.750000 0.654211 0.490496
O O16 0.818078 0.682496 0.243512
O O17 0.834896 0.165105 0.750000
O O18 0.750000 0.146551 0.687830
#
# Coordination Sequence:
#
# PCOD9570297 Si02
#       7
#    16  16  16  16  16  16  16
#     4  10  25  45  69  96 139 188 230 279 344 412
#     4  11  27  40  70  97 133 180 236 284 346 417
#     4  11  23  41  66  95 128 171 227 284 348 411
#     4  10  23  42  64  93 130 170 227 287 343 407
#     4  10  25  42  62  96 135 173 217 280 339 406
#     4  10  21  40  67 104 142 180 228 283 347 415
#     4  10  20  38  62  91 124 165 207 271 343 415
#
# _framework density 21.612145999999999
#
# number of rings (size 3 to 8) (size 9 to 14) (size 15 to 20)
#    0.000    1.714    1.429    0.857   10.000    2.143 
#    0.000    0.000    0.000    0.000    0.000    0.000 
#    0.000    0.000    0.000    0.000    0.000    0.000 
#
# Total GULP energy -623832.520406 kJ/mol
# GULP energy per Si atom -5569.933218 kJ/mol
# Density = 2.156296 g / cm^3
# Si number density = 21.612146 Si / 1000 Ang^3
#
#
#
# Elastic Constant Matrix: (Units=GPa)
#
#
# Indices 1 2 3 4 5 6 
#
# 1 124.8648 -27.8143 12.9450 0.0000 0.0000 0.0000
# 2 -27.8143 124.8880 12.9413 0.0000 0.0000 0.0000
# 3 12.9450 12.9413 95.2067 0.0000 0.0000 0.0000
# 4 0.0000 0.0000 0.0000 70.5306 0.0000 0.0000
# 5 0.0000 0.0000 0.0000 0.0000 70.4678 0.0000
# 6 0.0000 0.0000 0.0000 0.0000 0.0000 22.7146
#
#
#
# Elastic Compliance Matrix: (Units=1/GPa)
#
#
# Indices 1 2 3 4 5 6 
#
# 1 0.008621 0.002071 -0.001454 0.000000 0.000000 0.000000
# 2 0.002071 0.008619 -0.001453 0.000000 0.000000 0.000000
# 3 -0.001454 -0.001453 0.010899 0.000000 0.000000 0.000000
# 4 0.000000 0.000000 0.000000 0.014178 0.000000 0.000000
# 5 0.000000 0.000000 0.000000 0.000000 0.014191 0.000000
# 6 0.000000 0.000000 0.000000 0.000000 0.000000 0.044025
#
#
# Mechanical properties :
#
#
# Convention : Reuss Voigt Hill
#
# Bulk Modulus (GPa) = 37.78447 37.90038 37.84243
# Shear Modulus (GPa) = 45.03455 55.86843 50.45149
#
# Velocity S-wave (km/s) = 4.56978 5.08985 4.83681
# Velocity P-wave (km/s) = 6.73533 7.21920 6.98146
#
# Compressibility (1/GPa) = 0.02646590
#
# Stress axis : x y z
#
# Youngs Moduli (GPa) = 116.00145 116.02424 91.75479
#
# Poissons Ratio (x) = -0.24023 0.13337
# Poissons Ratio (y) = -0.24019 0.13333
# Poissons Ratio (z) = 0.16862 0.16859
#
# Static dielectric constant tensor:
#      x y z
#    x 1.191280 0.000000 0.000000 
#    y 0.000000 1.191190 0.000000 
#    z 0.000000 0.000000 1.826570 
# 
# From -- ./inp_files/691.got.cif
#   From: 2010.05.17/outbox.cif.g08.bks.cpg/sg137_1_cif.got.tgz:691.got - 2010.05.20 13:01:12.
