data_PCOD9570735
_publ_section_title
;
Structure prediction by ZEFSAII (Michael W. Deem and Ramdas Pophale) SiO2 
 PCOD9570735
Probable space group: P 42/N C M
;
_chemical_formula_sum "Si O2"
_cell_formula_units_Z 96
_cell_length_a 15.828492
_cell_length_b 15.828492
_cell_length_c 23.151095
_cell_angle_alpha 90.000000
_cell_angle_beta 90.000000
_cell_angle_gamma 90.000000
_cell_volume 5800.302173
_symmetry_space_group_name_H-M "P 42/N C M"
_symmetry_group_IT_number 138
_space_group.IT_coordinate_system_code '2'
_symmetry_cell_setting 'tetragonal'
loop_
_space_group_symop_operation_xyz
x,y,z
1/2-y,x,1/2+z
1/2-x,1/2-y,z
y,1/2-x,1/2+z
1/2+x,-y,1/2-z
-x,1/2+y,1/2-z
1/2+y,1/2+x,-z
-y,-x,-z
-x,-y,-z
1/2+y,-x,1/2-z
1/2+x,1/2+y,-z
-y,1/2+x,1/2-z
1/2-x,y,1/2+z
x,1/2-y,1/2+z
1/2-y,1/2-x,z
y,x,z
loop_
_atom_site_type_symbol
_atom_site_label
_atom_site_fract_x
_atom_site_fract_y
_atom_site_fract_z
Si Si1 0.539452 0.960549 0.558924
Si Si2 0.202836 0.880361 0.448399
Si Si3 0.058458 0.694033 0.870339
Si Si4 0.179675 0.179675 0.977459
Si Si5 0.315438 0.051071 0.022090
Si Si6 0.116131 0.626564 0.621289
Si Si7 0.811329 0.378364 0.747202
O O1 0.612945 0.887056 0.553468
O O2 0.459527 0.924008 0.592888
O O3 0.500000 0.000000 0.500000
O O4 0.183817 0.816184 0.500000
O O5 0.132086 0.861554 0.400282
O O6 0.291577 0.869383 0.418064
O O7 0.196989 0.971305 0.479730
O O8 0.080403 0.793570 0.876241
O O9 0.060932 0.675693 0.802102
O O10 0.979041 0.679439 0.911691
O O11 0.250000 0.250000 0.951210
O O12 0.239169 0.116357 0.013035
O O13 0.401019 0.098981 0.006010
O O14 0.091429 0.654296 0.685956
O O15 0.856254 0.288018 0.759152
#
# Coordination Sequence:
#
# PCOD9570735 Si02
#       7
#     8  16  16   8  16  16  16
#     4  12  24  36  56  86 118 148 185 250 285 327
#     4  10  20  31  54  81 110 137 176 222 278 330
#     4  10  20  33  54  79 110 143 171 225 277 336
#     4  10  20  38  58  78 108 152 190 220 280 343
#     4  10  21  36  54  80 106 144 185 228 272 326
#     4  11  21  35  53  81 114 141 186 225 278 334
#     4   9  17  33  54  77 106 143 180 219 272 338
#
# _framework density 16.550861999999999
#
# number of rings (size 3 to 8) (size 9 to 14) (size 15 to 20)
#    0.000    1.833    3.333    1.500    2.333    5.000 
#    1.500    0.000    0.000    0.000   13.000    0.000 
#    0.000    0.000    0.000    0.000    0.000    0.000 
#
# Total GULP energy -534788.808823 kJ/mol
# GULP energy per Si atom -5570.716759 kJ/mol
# Density = 1.651319 g / cm^3
# Si number density = 16.550862 Si / 1000 Ang^3
#
#
#
# Elastic Constant Matrix: (Units=GPa)
#
#
# Indices 1 2 3 4 5 6 
#
# 1 139.1000 -43.4965 33.0703 0.0000 0.0000 0.0000
# 2 -43.4965 139.1207 33.0836 0.0000 0.0000 0.0000
# 3 33.0703 33.0836 114.8180 0.0000 0.0000 0.0000
# 4 0.0000 0.0000 0.0000 17.7570 0.0000 0.0000
# 5 0.0000 0.0000 0.0000 0.0000 17.7557 0.0000
# 6 0.0000 0.0000 0.0000 0.0000 0.0000 27.8152
#
#
#
# Elastic Compliance Matrix: (Units=1/GPa)
#
#
# Indices 1 2 3 4 5 6 
#
# 1 0.009270 0.003793 -0.003763 0.000000 0.000000 0.000000
# 2 0.003793 0.009269 -0.003763 0.000000 0.000000 0.000000
# 3 -0.003763 -0.003763 0.010878 0.000000 0.000000 0.000000
# 4 0.000000 0.000000 0.000000 0.056316 0.000000 0.000000
# 5 0.000000 0.000000 0.000000 0.000000 0.056320 0.000000
# 6 0.000000 0.000000 0.000000 0.000000 0.000000 0.035952
#
#
# Mechanical properties :
#
#
# Convention : Reuss Voigt Hill
#
# Bulk Modulus (GPa) = 45.55781 48.70593 47.13187
# Shear Modulus (GPa) = 25.93549 37.35767 31.64658
#
# Velocity S-wave (km/s) = 3.96285 4.75609 4.37748
# Velocity P-wave (km/s) = 6.96596 7.72350 7.35449
#
# Compressibility (1/GPa) = 0.02195013
#
# Stress axis : x y z
#
# Youngs Moduli (GPa) = 107.87783 107.88868 91.93257
#
# Poissons Ratio (x) = -0.40923 0.34593
# Poissons Ratio (y) = -0.40918 0.34596
# Poissons Ratio (z) = 0.40593 0.40601
#
# Static dielectric constant tensor:
#      x y z
#    x 1.593600 0.000000 0.000000 
#    y 0.000000 1.593600 0.000000 
#    z 0.000000 0.000000 1.555670 
# 
# From -- ./inp_files/7002.got.cif
#   From: 2010.05.17/outbox.cif.g08.bks.cpg/sg138_4_cif.got.tgz:7002.got - 2010.05.20 13:08:53.
