data_PCOD9570528
_publ_section_title
;
Structure prediction by ZEFSAII (Michael W. Deem and Ramdas Pophale) SiO2 
 PCOD9570528
Probable space group: P 42/N M C
;
_chemical_formula_sum "Si O2"
_cell_formula_units_Z 56
_cell_length_a 14.969922
_cell_length_b 14.969922
_cell_length_c 10.948744
_cell_angle_alpha 90.000000
_cell_angle_beta 90.000000
_cell_angle_gamma 90.000000
_cell_volume 2453.597816
_symmetry_space_group_name_H-M "P 42/N M C"
_symmetry_group_IT_number 137
_space_group.IT_coordinate_system_code '2'
_symmetry_cell_setting 'tetragonal'
loop_
_space_group_symop_operation_xyz
x,y,z
1/2-y,x,1/2+z
1/2-x,1/2-y,z
y,1/2-x,1/2+z
1/2+x,-y,-z
-x,1/2+y,-z
1/2+y,1/2+x,1/2-z
-y,-x,1/2-z
-x,-y,-z
1/2+y,-x,1/2-z
1/2+x,1/2+y,-z
-y,1/2+x,1/2-z
1/2-x,y,z
x,1/2-y,z
1/2-y,1/2-x,1/2+z
y,x,1/2+z
loop_
_atom_site_type_symbol
_atom_site_label
_atom_site_fract_x
_atom_site_fract_y
_atom_site_fract_z
Si Si1 0.438216 0.078750 0.559937
Si Si2 0.250000 0.067492 0.683399
Si Si3 0.250000 0.642300 0.419779
Si Si4 0.250000 0.356063 0.927211
Si Si5 0.911197 0.411197 0.750000
Si Si6 0.112651 0.750000 0.793903
O O1 0.339286 0.053871 0.605789
O O2 0.411220 0.163385 0.475615
O O3 0.494829 0.101724 0.681726
O O4 0.500000 0.000000 0.500000
O O5 0.250000 0.147042 0.779327
O O6 0.250000 0.981517 0.769501
O O7 0.250000 0.750000 0.408161
O O8 0.336143 0.603961 0.351990
O O9 0.250000 0.617692 0.560662
O O10 0.250000 0.250000 0.970525
O O11 0.164342 0.664342 0.750000
#
# Coordination Sequence:
#
# PCOD9570528 Si02
#       6
#    16   8   8   8   8   8
#     4  12  28  53  78 117 159 210 271 336 405 496
#     4  12  29  49  79 111 157 201 284 324 407 484
#     4  12  23  45  69 117 166 199 266 333 410 493
#     4  12  29  52  84 114 165 215 266 338 410 491
#     4  12  25  44  80 112 155 210 262 334 414 484
#     4  11  26  43  73 108 154 209 259 326 406 467
#
# _framework density 22.823626999999998
#
# number of rings (size 3 to 8) (size 9 to 14) (size 15 to 20)
#    0.000    0.143    4.286    4.286   12.000    0.000 
#    5.143    0.000    0.000    0.000    0.000    0.000 
#    0.000    0.000    0.000    0.000    0.000    0.000 
#
# Total GULP energy -312737.771376 kJ/mol
# GULP energy per Si atom -5584.603060 kJ/mol
# Density = 2.277168 g / cm^3
# Si number density = 22.823627 Si / 1000 Ang^3
#
#
#
# Elastic Constant Matrix: (Units=GPa)
#
#
# Indices 1 2 3 4 5 6 
#
# 1 178.2009 71.8422 66.3565 0.0000 0.0000 0.0000
# 2 71.8422 178.2009 66.3565 0.0000 0.0000 0.0000
# 3 66.3565 66.3565 146.4206 0.0000 0.0000 0.0000
# 4 0.0000 0.0000 0.0000 35.7781 0.0000 0.0000
# 5 0.0000 0.0000 0.0000 0.0000 35.7781 0.0000
# 6 0.0000 0.0000 0.0000 0.0000 0.0000 47.9821
#
#
#
# Elastic Compliance Matrix: (Units=1/GPa)
#
#
# Indices 1 2 3 4 5 6 
#
# 1 0.007334 -0.002068 -0.002386 0.000000 0.000000 0.000000
# 2 -0.002068 0.007334 -0.002386 0.000000 0.000000 0.000000
# 3 -0.002386 -0.002386 0.008993 0.000000 0.000000 0.000000
# 4 0.000000 0.000000 0.000000 0.027950 0.000000 0.000000
# 5 0.000000 0.000000 0.000000 0.000000 0.027950 0.000000
# 6 0.000000 0.000000 0.000000 0.000000 0.000000 0.020841
#
#
# Mechanical properties :
#
#
# Convention : Reuss Voigt Hill
#
# Bulk Modulus (GPa) = 100.21357 101.32586 100.76972
# Shear Modulus (GPa) = 42.58565 43.79213 43.18889
#
# Velocity S-wave (km/s) = 4.32424 4.38507 4.35476
# Velocity P-wave (km/s) = 8.30273 8.37437 8.33862
#
# Compressibility (1/GPa) = 0.00997869
#
# Stress axis : x y z
#
# Youngs Moduli (GPa) = 136.35023 136.35023 111.20122
#
# Poissons Ratio (x) = 0.28199 0.26538
# Poissons Ratio (y) = 0.28199 0.26538
# Poissons Ratio (z) = 0.32540 0.32540
#
# Static dielectric constant tensor:
#      x y z
#    x 1.920870 0.000000 0.000000 
#    y 0.000000 1.920870 0.000000 
#    z 0.000000 0.000000 1.869960 
# 
# From -- ./inp_files/3212.got.cif
#   From: 2010.05.17/outbox.cif.g08.bks.cpg/sg137_2_cif.got.tgz:3212.got - 2010.05.20 13:01:12.
