data_PCOD9570363
_publ_section_title
;
Structure prediction by ZEFSAII (Michael W. Deem and Ramdas Pophale) SiO2 
 PCOD9570363
Probable space group: P 42/N M C
;
_chemical_formula_sum "Si O2"
_cell_formula_units_Z 64
_cell_length_a 19.576079
_cell_length_b 19.576079
_cell_length_c 9.472932
_cell_angle_alpha 90.000000
_cell_angle_beta 90.000000
_cell_angle_gamma 90.000000
_cell_volume 3630.244179
_symmetry_space_group_name_H-M "P 42/N M C"
_symmetry_group_IT_number 137
_space_group.IT_coordinate_system_code '2'
_symmetry_cell_setting 'tetragonal'
loop_
_space_group_symop_operation_xyz
x,y,z
1/2-y,x,1/2+z
1/2-x,1/2-y,z
y,1/2-x,1/2+z
1/2+x,-y,-z
-x,1/2+y,-z
1/2+y,1/2+x,1/2-z
-y,-x,1/2-z
-x,-y,-z
1/2+y,-x,1/2-z
1/2+x,1/2+y,-z
-y,1/2+x,1/2-z
1/2-x,y,z
x,1/2-y,z
1/2-y,1/2-x,1/2+z
y,x,1/2+z
loop_
_atom_site_type_symbol
_atom_site_label
_atom_site_fract_x
_atom_site_fract_y
_atom_site_fract_z
Si Si1 0.006065 0.392197 0.419955
Si Si2 0.138266 0.750000 0.212916
Si Si3 0.955395 0.250000 0.041370
Si Si4 0.140387 0.750000 0.708744
Si Si5 0.605968 0.508657 0.415095
Si Si6 0.953902 0.250000 0.535180
O O1 0.064248 0.432765 0.504768
O O2 0.022081 0.388769 0.252926
O O3 0.937666 0.438708 0.432640
O O4 0.992146 0.318388 0.486825
O O5 0.184273 0.684273 0.250000
O O6 0.113129 0.750000 0.052341
O O7 0.068518 0.750000 0.302924
O O8 0.928805 0.250000 0.202390
O O9 0.996844 0.180689 0.021159
O O10 0.184449 0.684449 0.750000
O O11 0.118870 0.750000 0.547329
#
# Coordination Sequence:
#
# PCOD9570363 Si02
#       6
#    16   8   8   8  16   8
#     4  10  21  37  58  84 113 148 193 242 290 345
#     4  11  24  36  50  82 124 159 190 228 282 349
#     4  12  22  37  58  81 114 156 195 236 287 344
#     4  11  20  32  54  82 112 147 186 226 274 345
#     4  10  21  37  58  84 113 148 193 242 290 345
#     4  12  22  37  58  81 114 156 195 236 287 344
#
# _framework density 17.629670000000001
#
# number of rings (size 3 to 8) (size 9 to 14) (size 15 to 20)
#    0.000    1.250    2.500    4.500    3.500    2.000 
#    0.000    0.000    0.000    0.750    0.000    3.500 
#    0.000    0.000    0.000    0.000    0.000    0.000 
#
# Total GULP energy -357603.776092 kJ/mol
# GULP energy per Si atom -5587.559001 kJ/mol
# Density = 1.758954 g / cm^3
# Si number density = 17.629670 Si / 1000 Ang^3
#
#
#
# Elastic Constant Matrix: (Units=GPa)
#
#
# Indices 1 2 3 4 5 6 
#
# 1 115.1417 58.5173 32.4508 0.0000 0.0000 0.0000
# 2 58.5173 115.1417 32.4508 0.0000 0.0000 0.0000
# 3 32.4508 32.4508 61.3845 0.0000 0.0000 0.0000
# 4 0.0000 0.0000 0.0000 25.9895 0.0000 0.0000
# 5 0.0000 0.0000 0.0000 0.0000 25.9895 0.0000
# 6 0.0000 0.0000 0.0000 0.0000 0.0000 38.8868
#
#
#
# Elastic Compliance Matrix: (Units=1/GPa)
#
#
# Indices 1 2 3 4 5 6 
#
# 1 0.012418 -0.005242 -0.003794 0.000000 0.000000 0.000000
# 2 -0.005242 0.012418 -0.003794 0.000000 0.000000 0.000000
# 3 -0.003794 -0.003794 0.020302 0.000000 0.000000 0.000000
# 4 0.000000 0.000000 0.000000 0.038477 0.000000 0.000000
# 5 0.000000 0.000000 0.000000 0.000000 0.038477 0.000000
# 6 0.000000 0.000000 0.000000 0.000000 0.000000 0.025716
#
#
# Mechanical properties :
#
#
# Convention : Reuss Voigt Hill
#
# Bulk Modulus (GPa) = 51.33603 59.83394 55.58499
# Shear Modulus (GPa) = 27.78394 29.38976 28.58685
#
# Velocity S-wave (km/s) = 3.97416 4.08740 4.03118
# Velocity P-wave (km/s) = 7.08809 7.50258 7.29828
#
# Compressibility (1/GPa) = 0.01947949
#
# Stress axis : x y z
#
# Youngs Moduli (GPa) = 80.52684 80.52684 49.25664
#
# Poissons Ratio (x) = 0.42212 0.18686
# Poissons Ratio (y) = 0.42212 0.18686
# Poissons Ratio (z) = 0.30549 0.30549
#
# Static dielectric constant tensor:
#      x y z
#    x 1.587710 0.000000 0.000000 
#    y 0.000000 1.587710 0.000000 
#    z 0.000000 0.000000 1.591860 
# 
# From -- ./inp_files/3402.got.cif
#   From: 2010.05.17/outbox.cif.g08.bks.cpg/sg137_2_cif.got.tgz:3402.got - 2010.05.20 13:01:12.
