data_PCOD9570908
_publ_section_title
;
Structure prediction by ZEFSAII (Michael W. Deem and Ramdas Pophale) SiO2 
 PCOD9570908
Probable space group: P 42/N C M
;
_chemical_formula_sum "Si O2"
_cell_formula_units_Z 64
_cell_length_a 12.869977
_cell_length_b 12.869977
_cell_length_c 20.627857
_cell_angle_alpha 90.000000
_cell_angle_beta 90.000000
_cell_angle_gamma 90.000000
_cell_volume 3416.722075
_symmetry_space_group_name_H-M "P 42/N C M"
_symmetry_group_IT_number 138
_space_group.IT_coordinate_system_code '2'
_symmetry_cell_setting 'tetragonal'
loop_
_space_group_symop_operation_xyz
x,y,z
1/2-y,x,1/2+z
1/2-x,1/2-y,z
y,1/2-x,1/2+z
1/2+x,-y,1/2-z
-x,1/2+y,1/2-z
1/2+y,1/2+x,-z
-y,-x,-z
-x,-y,-z
1/2+y,-x,1/2-z
1/2+x,1/2+y,-z
-y,1/2+x,1/2-z
1/2-x,y,1/2+z
x,1/2-y,1/2+z
1/2-y,1/2-x,z
y,x,z
loop_
_atom_site_type_symbol
_atom_site_label
_atom_site_fract_x
_atom_site_fract_y
_atom_site_fract_z
Si Si1 0.923253 0.266439 0.252122
Si Si2 0.477944 0.196459 0.622002
Si Si3 0.503804 0.829098 0.005354
Si Si4 0.479469 0.651755 0.110385
O O1 0.856539 0.161167 0.262680
O O2 0.702251 0.479245 0.181661
O O3 0.997825 0.248743 0.191101
O O4 0.377093 0.122908 0.624590
O O5 0.472083 0.278346 0.564173
O O6 0.576374 0.120778 0.607531
O O7 0.602417 0.897584 0.026960
O O8 0.407084 0.907084 0.000000
O O9 0.477894 0.739046 0.055953
O O10 0.578877 0.578877 0.100895
#
# Coordination Sequence:
#
# PCOD9570908 Si02
#       4
#    16  16  16  16
#     4   9  18  34  56  81 110 146 186 225 266 317
#     4  10  21  37  58  84 113 145 182 225 273 326
#     4  11  24  39  56  80 110 145 186 231 276 324
#     4  10  21  37  58  84 113 145 182 225 273 326
#
# _framework density 18.731404000000001
#
# number of rings (size 3 to 8) (size 9 to 14) (size 15 to 20)
#    0.000    2.000    0.000    3.000    0.000   10.000 
#    0.000    5.000    0.000    0.000    0.000    0.000 
#    0.000    0.000    0.000    0.000    0.000    0.000 
#
# Total GULP energy -357624.940607 kJ/mol
# GULP energy per Si atom -5587.889697 kJ/mol
# Density = 1.868877 g / cm^3
# Si number density = 18.731404 Si / 1000 Ang^3
#
#
#
# Elastic Constant Matrix: (Units=GPa)
#
#
# Indices 1 2 3 4 5 6 
#
# 1 -1290.6809 1331.7990 1.0930 0.0000 0.0000 0.0000
# 2 1331.7990-1290.6809 1.0930 0.0000 0.0000 0.0000
# 3 1.0930 1.0930 25.9998 0.0000 0.0000 0.0000
# 4 0.0000 0.0000 0.0000 -32.1580 0.0000 0.0000
# 5 0.0000 0.0000 0.0000 0.0000 -32.1580 0.0000
# 6 0.0000 0.0000 0.0000 0.0000 0.0000 3.9336
#
#
#
# Elastic Compliance Matrix: (Units=1/GPa)
#
#
# Indices 1 2 3 4 5 6 
#
# 1 0.011997 0.012378 -0.001025 0.000000 0.000000 0.000000
# 2 0.012378 0.011997 -0.001025 0.000000 0.000000 0.000000
# 3 -0.001025 -0.001025 0.038548 0.000000 0.000000 0.000000
# 4 0.000000 0.000000 0.000000 -0.031096 0.000000 0.000000
# 5 0.000000 0.000000 0.000000 0.000000 -0.031096 0.000000
# 6 0.000000 0.000000 0.000000 0.000000 0.000000 0.254218
#
#
# Mechanical properties :
#
#
# Convention : Reuss Voigt Hill
#
# Bulk Modulus (GPa) = 12.01943 12.51200 12.26571
# Shear Modulus (GPa) = 19.11011 -271.36626 -126.12807
#
# Velocity S-wave (km/s) = 3.19755 -12.04935 -8.21470
# Velocity P-wave (km/s) = 4.47918 13.67071 9.13305
#
# Compressibility (1/GPa) = 0.08319862
#
# Stress axis : x y z
#
# Youngs Moduli (GPa) = 83.35644 83.35644 25.94171
#
# Poissons Ratio (x) = -1.03179 0.02658
# Poissons Ratio (y) = -1.03179 0.02658
# Poissons Ratio (z) = 0.08541 0.08541
#
# Static dielectric constant tensor:
#      x y z
#    x 1.636550 0.000000 0.000000 
#    y 0.000000 1.636550 0.000000 
#    z 0.000000 0.000000 1.613880 
# 
# From -- ./inp_files/5851.got.cif
#   From: 2010.05.17/outbox.cif.g08.bks.cpg/sg138_3_cif.got.tgz:5851.got - 2010.05.20 13:08:53.
