data_PCOD9570364
_publ_section_title
;
Structure prediction by ZEFSAII (Michael W. Deem and Ramdas Pophale) SiO2 
 PCOD9570364
Probable space group: P 42/N M C
;
_chemical_formula_sum "Si O2"
_cell_formula_units_Z 112
_cell_length_a 14.304814
_cell_length_b 14.304814
_cell_length_c 27.569982
_cell_angle_alpha 90.000000
_cell_angle_beta 90.000000
_cell_angle_gamma 90.000000
_cell_volume 5641.582104
_symmetry_space_group_name_H-M "P 42/N M C"
_symmetry_group_IT_number 137
_space_group.IT_coordinate_system_code '2'
_symmetry_cell_setting 'tetragonal'
loop_
_space_group_symop_operation_xyz
x,y,z
1/2-y,x,1/2+z
1/2-x,1/2-y,z
y,1/2-x,1/2+z
1/2+x,-y,-z
-x,1/2+y,-z
1/2+y,1/2+x,1/2-z
-y,-x,1/2-z
-x,-y,-z
1/2+y,-x,1/2-z
1/2+x,1/2+y,-z
-y,1/2+x,1/2-z
1/2-x,y,z
x,1/2-y,z
1/2-y,1/2-x,1/2+z
y,x,1/2+z
loop_
_atom_site_type_symbol
_atom_site_label
_atom_site_fract_x
_atom_site_fract_y
_atom_site_fract_z
Si Si1 0.861666 0.019961 0.789224
Si Si2 0.855066 0.145273 0.408696
Si Si3 0.358903 0.530085 0.098004
Si Si4 0.856031 0.546355 0.142083
Si Si5 0.641054 0.945995 0.453215
Si Si6 0.522984 0.639048 0.059450
Si Si7 0.139448 0.486024 0.747601
O O1 0.911606 0.088395 0.750000
O O2 0.750000 0.011672 0.779970
O O3 0.873769 0.052033 0.844996
O O4 0.916892 0.921292 0.785771
O O5 0.750000 0.139276 0.388145
O O6 0.865105 0.250000 0.430181
O O7 0.935901 0.135359 0.369125
O O8 0.865576 0.057757 0.444288
O O9 0.250000 0.536597 0.087834
O O10 0.395413 0.426676 0.084307
O O11 0.419741 0.598436 0.065032
O O12 0.750000 0.574446 0.130914
O O13 0.922581 0.599544 0.105599
O O14 0.872012 0.558727 0.198740
O O15 0.750000 0.919678 0.447473
O O16 0.609789 0.930004 0.508649
O O17 0.521525 0.750000 0.059603
O O18 0.250000 0.493628 0.736801
O O19 0.085215 0.585215 0.750000
#
# Coordination Sequence:
#
# PCOD9570364 Si02
#       7
#    16  16  16  16  16  16  16
#     4  10  23  42  63  89 118 153 200 251 306 361
#     4   9  18  33  56  85 116 150 186 229 286 351
#     4  11  24  41  61  88 121 157 199 246 298 351
#     4  10  21  37  58  86 117 152 195 240 293 354
#     4  10  22  39  61  89 120 156 197 238 289 351
#     4  11  23  40  60  86 120 157 200 245 292 344
#     4  10  22  38  58  87 120 154 195 243 296 358
#
# _framework density 19.852585999999999
#
# number of rings (size 3 to 8) (size 9 to 14) (size 15 to 20)
#    0.000    1.857    1.429    2.143    0.000    6.000 
#    0.000    8.571    0.000    0.000    0.000    0.000 
#    0.000    0.000    0.000    0.000    0.000    0.000 
#
# Total GULP energy -625062.967631 kJ/mol
# GULP energy per Si atom -5580.919354 kJ/mol
# Density = 1.980740 g / cm^3
# Si number density = 19.852586 Si / 1000 Ang^3
#
#
#
# Elastic Constant Matrix: (Units=GPa)
#
#
# Indices 1 2 3 4 5 6 
#
# 1 66.7373 17.7563 17.0330 0.0000 0.0000 0.0000
# 2 17.7563 66.7371 17.0332 0.0000 0.0000 0.0000
# 3 17.0330 17.0332 51.6220 0.0000 0.0000 0.0000
# 4 0.0000 0.0000 0.0000 -10.2296 0.0000 0.0000
# 5 0.0000 0.0000 0.0000 0.0000 -10.2293 0.0000
# 6 0.0000 0.0000 0.0000 0.0000 0.0000 1.9199
#
#
#
# Elastic Compliance Matrix: (Units=1/GPa)
#
#
# Indices 1 2 3 4 5 6 
#
# 1 0.017034 -0.003382 -0.004504 0.000000 0.000000 0.000000
# 2 -0.003382 0.017034 -0.004504 0.000000 0.000000 0.000000
# 3 -0.004504 -0.004504 0.022344 0.000000 0.000000 0.000000
# 4 0.000000 0.000000 0.000000 -0.097756 0.000000 0.000000
# 5 0.000000 0.000000 0.000000 0.000000 -0.097758 0.000000
# 6 0.000000 0.000000 0.000000 0.000000 0.000000 0.520850
#
#
# Mechanical properties :
#
#
# Convention : Reuss Voigt Hill
#
# Bulk Modulus (GPa) = 31.61631 32.08239 31.84935
# Shear Modulus (GPa) = 11.98832 5.17714 8.58273
#
# Velocity S-wave (km/s) = 2.46004 1.61662 2.08149
# Velocity P-wave (km/s) = 4.90195 4.43621 4.67489
#
# Compressibility (1/GPa) = 0.03162924
#
# Stress axis : x y z
#
# Youngs Moduli (GPa) = 58.70728 58.70701 44.75460
#
# Poissons Ratio (x) = 0.19857 0.20159
# Poissons Ratio (y) = 0.19857 0.20159
# Poissons Ratio (z) = 0.26444 0.26444
#
# Static dielectric constant tensor:
#      x y z
#    x 1.703150 0.000000 0.000000 
#    y 0.000000 1.703150 0.000000 
#    z 0.000000 0.000000 1.715010 
# 
# From -- ./inp_files/9798.got.cif
#   From: 2010.05.17/outbox.cif.g08.bks.cpg/sg137_5_cif.got.tgz:9798.got - 2010.05.20 13:01:12.
