data_PCOD9570929
_publ_section_title
;
Structure prediction by ZEFSAII (Michael W. Deem and Ramdas Pophale) SiO2 
 PCOD9570929
Probable space group: P 42/N C M
;
_chemical_formula_sum "Si O2"
_cell_formula_units_Z 116
_cell_length_a 17.139071
_cell_length_b 17.139071
_cell_length_c 18.926417
_cell_angle_alpha 90.000000
_cell_angle_beta 90.000000
_cell_angle_gamma 90.000000
_cell_volume 5559.592499
_symmetry_space_group_name_H-M "P 42/N C M"
_symmetry_group_IT_number 138
_space_group.IT_coordinate_system_code '2'
_symmetry_cell_setting 'tetragonal'
loop_
_space_group_symop_operation_xyz
x,y,z
1/2-y,x,1/2+z
1/2-x,1/2-y,z
y,1/2-x,1/2+z
1/2+x,-y,1/2-z
-x,1/2+y,1/2-z
1/2+y,1/2+x,-z
-y,-x,-z
-x,-y,-z
1/2+y,-x,1/2-z
1/2+x,1/2+y,-z
-y,1/2+x,1/2-z
1/2-x,y,1/2+z
x,1/2-y,1/2+z
1/2-y,1/2-x,z
y,x,z
loop_
_atom_site_type_symbol
_atom_site_label
_atom_site_fract_x
_atom_site_fract_y
_atom_site_fract_z
Si Si1 0.569080 0.804522 0.811053
Si Si2 0.967453 0.404990 0.814506
Si Si3 0.978926 0.851956 0.083728
Si Si4 0.811254 0.935818 0.933227
Si Si5 0.101032 0.222421 0.325301
Si Si6 0.250000 0.750000 0.750000
Si Si7 0.393881 0.803864 0.830645
Si Si8 0.871499 0.074589 0.849361
O O1 0.614094 0.885907 0.806621
O O2 0.571399 0.768441 0.889501
O O3 0.609730 0.745554 0.756711
O O4 0.477595 0.804443 0.789852
O O5 0.890407 0.399569 0.863457
O O6 0.939158 0.389680 0.733459
O O7 0.013604 0.486397 0.818402
O O8 0.030331 0.338827 0.831649
O O9 0.934095 0.934095 0.073209
O O10 0.926378 0.799444 0.135001
O O11 0.062976 0.871110 0.116154
O O12 0.977990 0.808177 0.008719
O O13 0.852634 0.852634 0.943136
O O14 0.867068 0.990322 0.885687
O O15 0.178876 0.178876 0.350699
O O16 0.311033 0.802766 0.791870
O O17 0.394125 0.716733 0.863017
#
# Coordination Sequence:
#
# PCOD9570929 Si02
#       8
#    16  16  16  16  16   4  16  16
#     4  11  22  38  61  90 126 167 214 257 314 383
#     4  11  21  37  60  89 127 164 207 262 320 381
#     4  11  24  39  61  91 127 166 207 254 319 381
#     4  10  21  39  60  89 123 162 209 258 313 377
#     4  11  23  39  58  89 128 166 212 261 313 377
#     4  12  20  36  56  88 134 156 200 268 330 376
#     4  11  22  35  57  90 124 158 201 261 318 373
#     4  11  21  36  60  89 122 161 208 257 315 380
#
# _framework density 20.864840000000001
#
# number of rings (size 3 to 8) (size 9 to 14) (size 15 to 20)
#    0.000    1.103    4.138    3.724    1.931    3.586 
#    0.000    1.379    0.000    3.310    0.000    8.690 
#    0.000    0.000    0.000    0.000    0.000    0.000 
#
# Total GULP energy -646719.524501 kJ/mol
# GULP energy per Si atom -5575.168315 kJ/mol
# Density = 2.081735 g / cm^3
# Si number density = 20.864840 Si / 1000 Ang^3
#
#
#
# Elastic Constant Matrix: (Units=GPa)
#
#
# Indices 1 2 3 4 5 6 
#
# 1 86.4495 66.5967 10.6211 0.0000 0.0000 0.0000
# 2 66.5967 86.4495 10.6211 0.0000 0.0000 0.0000
# 3 10.6211 10.6211 42.6903 0.0000 0.0000 0.0000
# 4 0.0000 0.0000 0.0000 14.8730 0.0000 0.0000
# 5 0.0000 0.0000 0.0000 0.0000 14.8730 0.0000
# 6 0.0000 0.0000 0.0000 0.0000 0.0000 45.6686
#
#
#
# Elastic Compliance Matrix: (Units=1/GPa)
#
#
# Indices 1 2 3 4 5 6 
#
# 1 0.028569 -0.021802 -0.001684 0.000000 0.000000 0.000000
# 2 -0.021802 0.028569 -0.001684 0.000000 0.000000 0.000000
# 3 -0.001684 -0.001684 0.024262 0.000000 0.000000 0.000000
# 4 0.000000 0.000000 0.000000 0.067236 0.000000 0.000000
# 5 0.000000 0.000000 0.000000 0.000000 0.067236 0.000000
# 6 0.000000 0.000000 0.000000 0.000000 0.000000 0.021897
#
#
# Mechanical properties :
#
#
# Convention : Reuss Voigt Hill
#
# Bulk Modulus (GPa) = 32.19298 43.47411 37.83354
# Shear Modulus (GPa) = 16.75258 23.59963 20.17611
#
# Velocity S-wave (km/s) = 2.83664 3.36679 3.11302
# Velocity P-wave (km/s) = 5.11776 5.99958 5.57613
#
# Compressibility (1/GPa) = 0.03106267
#
# Stress axis : x y z
#
# Youngs Moduli (GPa) = 35.00275 35.00275 41.21610
#
# Poissons Ratio (x) = 0.76311 0.06940
# Poissons Ratio (y) = 0.76311 0.06940
# Poissons Ratio (z) = 0.05894 0.05894
#
# Static dielectric constant tensor:
#      x y z
#    x 1.792210 0.000000 0.000000 
#    y 0.000000 1.792210 0.000000 
#    z 0.000000 0.000000 1.769050 
# 
# From -- ./inp_files/5357.got.cif
#   From: 2010.05.17/outbox.cif.g08.bks.cpg/sg138_3_cif.got.tgz:5357.got - 2010.05.20 13:08:53.
