data_PCOD9570705
_publ_section_title
;
Structure prediction by ZEFSAII (Michael W. Deem and Ramdas Pophale) SiO2 
 PCOD9570705
Probable space group: P 42/N C M
;
_chemical_formula_sum "Si O2"
_cell_formula_units_Z 112
_cell_length_a 16.936814
_cell_length_b 16.936814
_cell_length_c 22.270755
_cell_angle_alpha 90.000000
_cell_angle_beta 90.000000
_cell_angle_gamma 90.000000
_cell_volume 6388.492313
_symmetry_space_group_name_H-M "P 42/N C M"
_symmetry_group_IT_number 138
_space_group.IT_coordinate_system_code '2'
_symmetry_cell_setting 'tetragonal'
loop_
_space_group_symop_operation_xyz
x,y,z
1/2-y,x,1/2+z
1/2-x,1/2-y,z
y,1/2-x,1/2+z
1/2+x,-y,1/2-z
-x,1/2+y,1/2-z
1/2+y,1/2+x,-z
-y,-x,-z
-x,-y,-z
1/2+y,-x,1/2-z
1/2+x,1/2+y,-z
-y,1/2+x,1/2-z
1/2-x,y,1/2+z
x,1/2-y,1/2+z
1/2-y,1/2-x,z
y,x,z
loop_
_atom_site_type_symbol
_atom_site_label
_atom_site_fract_x
_atom_site_fract_y
_atom_site_fract_z
Si Si1 0.373913 0.803148 0.247387
Si Si2 0.643358 0.199806 0.441079
Si Si3 0.505414 0.869243 0.911681
Si Si4 0.200948 0.943567 0.128042
Si Si5 0.071340 0.302459 0.966840
Si Si6 0.438717 0.841797 0.117145
Si Si7 0.358626 0.484837 0.005928
O O1 0.350230 0.709724 0.247851
O O2 0.433958 0.820542 0.302397
O O3 0.416899 0.826991 0.185937
O O4 0.694296 0.194296 0.500000
O O5 0.689707 0.147327 0.393100
O O6 0.622268 0.285996 0.418988
O O7 0.560283 0.158968 0.462946
O O8 0.479879 0.788438 0.878678
O O9 0.431761 0.926502 0.901796
O O10 0.585021 0.914980 0.892016
O O11 0.519029 0.845804 0.981239
O O12 0.151976 0.989542 0.075887
O O13 0.154257 0.345744 0.964740
O O14 0.024239 0.313111 0.904900
O O15 0.073217 0.212941 0.988592
O O16 0.439674 0.439674 0.995711
#
# Coordination Sequence:
#
# PCOD9570705 Si02
#       7
#    16  16  16  16  16  16  16
#     4  11  21  34  52  75 109 150 186 222 262 322
#     4   9  19  32  50  77 106 135 176 219 276 331
#     4  10  20  34  52  76 107 139 173 220 272 323
#     4  10  19  35  53  76 107 144 182 221 265 324
#     4   9  19  34  53  79 108 138 178 224 275 329
#     4  11  19  32  52  76 110 145 180 217 271 324
#     4   9  19  35  56  80 108 140 174 227 287 334
#
# _framework density 17.531521999999999
#
# number of rings (size 3 to 8) (size 9 to 14) (size 15 to 20)
#    0.000    2.143    2.857    1.714    0.000    4.571 
#    0.000    5.000    0.000    3.429    0.000    0.000 
#    0.000    6.857    0.000    0.000    0.000    0.000 
#
# Total GULP energy -623887.402410 kJ/mol
# GULP energy per Si atom -5570.423236 kJ/mol
# Density = 1.749162 g / cm^3
# Si number density = 17.531522 Si / 1000 Ang^3
#
#
#
# Elastic Constant Matrix: (Units=GPa)
#
#
# Indices 1 2 3 4 5 6 
#
# 1 46.7658 61.8232 22.5340 0.0000 0.0000 0.0000
# 2 61.8232 46.7658 22.5340 0.0000 0.0000 0.0000
# 3 22.5340 22.5340 84.4325 0.0000 0.0000 0.0000
# 4 0.0000 0.0000 0.0000 4.2464 0.0000 0.0000
# 5 0.0000 0.0000 0.0000 0.0000 4.2464 0.0000
# 6 0.0000 0.0000 0.0000 0.0000 0.0000 39.5798
#
#
#
# Elastic Compliance Matrix: (Units=1/GPa)
#
#
# Indices 1 2 3 4 5 6 
#
# 1 -0.028028 0.038384 -0.002764 0.000000 0.000000 0.000000
# 2 0.038384 -0.028028 -0.002764 0.000000 0.000000 0.000000
# 3 -0.002764 -0.002764 0.013319 0.000000 0.000000 0.000000
# 4 0.000000 0.000000 0.000000 0.235494 0.000000 0.000000
# 5 0.000000 0.000000 0.000000 0.000000 0.235494 0.000000
# 6 0.000000 0.000000 0.000000 0.000000 0.000000 0.025265
#
#
# Mechanical properties :
#
#
# Convention : Reuss Voigt Hill
#
# Bulk Modulus (GPa) = 43.52428 43.52741 43.52584
# Shear Modulus (GPa) = 12.64345 14.35271 13.49808
#
# Velocity S-wave (km/s) = 2.68840 2.86436 2.77778
# Velocity P-wave (km/s) = 5.87510 5.98510 5.93036
#
# Compressibility (1/GPa) = 0.02297568
#
# Stress axis : x y z
#
# Youngs Moduli (GPa) = -35.67829 -35.67829 75.08009
#
# Poissons Ratio (x) = 1.36949 0.20752
# Poissons Ratio (y) = 1.36949 0.20752
# Poissons Ratio (z) = -0.09861 -0.09861
#
# Static dielectric constant tensor:
#      x y z
#    x 1.678020 0.000000 0.000000 
#    y 0.000000 1.678020 0.000000 
#    z 0.000000 0.000000 1.657940 
# 
# From -- ./inp_files/7170.got.cif
#   From: 2010.05.17/outbox.cif.g08.bks.cpg/sg138_4_cif.got.tgz:7170.got - 2010.05.20 13:08:53.
