data_PCOD9570644
_publ_section_title
;
Structure prediction by ZEFSAII (Michael W. Deem and Ramdas Pophale) SiO2 
 PCOD9570644
Probable space group: P 42/N C M
;
_chemical_formula_sum "Si O2"
_cell_formula_units_Z 88
_cell_length_a 10.344678
_cell_length_b 10.344678
_cell_length_c 31.422792
_cell_angle_alpha 90.000000
_cell_angle_beta 90.000000
_cell_angle_gamma 90.000000
_cell_volume 3362.627222
_symmetry_space_group_name_H-M "P 42/N C M"
_symmetry_group_IT_number 138
_space_group.IT_coordinate_system_code '2'
_symmetry_cell_setting 'tetragonal'
loop_
_space_group_symop_operation_xyz
x,y,z
1/2-y,x,1/2+z
1/2-x,1/2-y,z
y,1/2-x,1/2+z
1/2+x,-y,1/2-z
-x,1/2+y,1/2-z
1/2+y,1/2+x,-z
-y,-x,-z
-x,-y,-z
1/2+y,-x,1/2-z
1/2+x,1/2+y,-z
-y,1/2+x,1/2-z
1/2-x,y,1/2+z
x,1/2-y,1/2+z
1/2-y,1/2-x,z
y,x,z
loop_
_atom_site_type_symbol
_atom_site_label
_atom_site_fract_x
_atom_site_fract_y
_atom_site_fract_z
Si Si1 0.487225 0.703469 0.626213
Si Si2 0.961397 0.263511 0.742844
Si Si3 0.382199 0.382199 0.810700
Si Si4 0.244893 0.468174 0.466419
Si Si5 0.961105 0.745372 0.942978
Si Si6 0.780649 0.503749 0.850317
O O1 0.623439 0.623439 0.626623
O O2 0.513566 0.827477 0.654150
O O3 0.454866 0.727778 0.576742
O O4 0.381093 0.614246 0.647773
O O5 0.878050 0.131250 0.742591
O O6 0.000757 0.291708 0.694383
O O7 0.069318 0.228655 0.776489
O O8 0.110891 0.389110 0.460010
O O9 0.358343 0.358343 0.469288
O O10 0.247429 0.536053 0.512545
O O11 0.898991 0.601010 0.938581
O O12 0.843518 0.843518 0.951222
O O13 0.009596 0.784335 0.896497
O O14 0.863359 0.636642 0.850336
#
# Coordination Sequence:
#
# PCOD9570644 Si02
#       6
#    16  16   8  16  16  16
#     4  10  19  31  54  87 117 148 190 247 302 354
#     4  11  24  42  60  80 113 154 195 241 291 350
#     4  12  21  38  60  83 113 151 198 236 303 357
#     4   8  13  24  44  74 115 153 185 230 294 354
#     4   8  15  28  46  73 115 159 191 229 290 359
#     4  10  19  34  54  81 116 149 191 244 296 353
#
# _framework density 26.170013999999998
#
# number of rings (size 3 to 8) (size 9 to 14) (size 15 to 20)
#    0.000    2.364    3.636    1.364    0.000    0.727 
#    3.273    3.636    0.000    0.000    0.000    2.545 
#    0.000    0.000    0.000    0.000    0.000    0.000 
#
# Total GULP energy -490090.995941 kJ/mol
# GULP energy per Si atom -5569.215863 kJ/mol
# Density = 2.611045 g / cm^3
# Si number density = 26.170014 Si / 1000 Ang^3
#
#
#
# Elastic Constant Matrix: (Units=GPa)
#
#
# Indices 1 2 3 4 5 6 
#
# 1 32.7426 51.0723 27.3610 0.0000 0.0000 0.0000
# 2 51.0723 32.7426 27.3610 0.0000 0.0000 0.0000
# 3 27.3610 27.3610 290.2605 0.0000 0.0000 0.0000
# 4 0.0000 0.0000 0.0000 24.7040 0.0000 0.0000
# 5 0.0000 0.0000 0.0000 0.0000 24.7040 0.0000
# 6 0.0000 0.0000 0.0000 0.0000 0.0000 -26.5979
#
#
#
# Elastic Compliance Matrix: (Units=1/GPa)
#
#
# Indices 1 2 3 4 5 6 
#
# 1 -0.020921 0.033635 -0.001198 0.000000 0.000000 0.000000
# 2 0.033635 -0.020921 -0.001198 0.000000 0.000000 0.000000
# 3 -0.001198 -0.001198 0.003671 0.000000 0.000000 0.000000
# 4 0.000000 0.000000 0.000000 0.040479 0.000000 0.000000
# 5 0.000000 0.000000 0.000000 0.000000 0.040479 0.000000
# 6 0.000000 0.000000 0.000000 0.000000 0.000000 -0.037597
#
#
# Mechanical properties :
#
#
# Convention : Reuss Voigt Hill
#
# Bulk Modulus (GPa) = 41.14476 63.03713 52.09094
# Shear Modulus (GPa) = -101.65761 21.22544 -40.21608
#
# Velocity S-wave (km/s) = -6.23934 2.85100 -3.92436
# Velocity P-wave (km/s) = 6.01246 5.91417 0.76557
#
# Compressibility (1/GPa) = 0.02430443
#
# Stress axis : x y z
#
# Youngs Moduli (GPa) = -47.79791 -47.79791 272.39680
#
# Poissons Ratio (x) = 1.60768 0.32645
# Poissons Ratio (y) = 1.60768 0.32645
# Poissons Ratio (z) = -0.05728 -0.05728
#
# Static dielectric constant tensor:
#      x y z
#    x 2.096990 0.000000 0.000000 
#    y 0.000000 2.096990 0.000000 
#    z 0.000000 0.000000 2.046190 
# 
# From -- ./inp_files/8020.got.cif
#   From: 2010.05.17/outbox.cif.g08.bks.cpg/sg138_5_cif.got.tgz:8020.got - 2010.05.20 13:08:53.
