data_PCOD9570462
_publ_section_title
;
Structure prediction by ZEFSAII (Michael W. Deem and Ramdas Pophale) SiO2 
 PCOD9570462
Probable space group: P 42/N M C
;
_chemical_formula_sum "Si O2"
_cell_formula_units_Z 64
_cell_length_a 14.523338
_cell_length_b 14.523338
_cell_length_c 15.039557
_cell_angle_alpha 90.000000
_cell_angle_beta 90.000000
_cell_angle_gamma 90.000000
_cell_volume 3172.253853
_symmetry_space_group_name_H-M "P 42/N M C"
_symmetry_group_IT_number 137
_space_group.IT_coordinate_system_code '2'
_symmetry_cell_setting 'tetragonal'
loop_
_space_group_symop_operation_xyz
x,y,z
1/2-y,x,1/2+z
1/2-x,1/2-y,z
y,1/2-x,1/2+z
1/2+x,-y,-z
-x,1/2+y,-z
1/2+y,1/2+x,1/2-z
-y,-x,1/2-z
-x,-y,-z
1/2+y,-x,1/2-z
1/2+x,1/2+y,-z
-y,1/2+x,1/2-z
1/2-x,y,z
x,1/2-y,z
1/2-y,1/2-x,1/2+z
y,x,1/2+z
loop_
_atom_site_type_symbol
_atom_site_label
_atom_site_fract_x
_atom_site_fract_y
_atom_site_fract_z
Si Si1 0.358621 0.645571 0.152495
Si Si2 0.462945 0.083321 0.558186
Si Si3 0.642855 0.853345 0.108935
Si Si4 0.989903 0.861980 0.766151
O O1 0.388677 0.611324 0.250000
O O2 0.250000 0.656213 0.161552
O O3 0.393751 0.750000 0.130623
O O4 0.372470 0.559690 0.087824
O O5 0.397892 0.135913 0.488483
O O6 0.402707 0.052820 0.642995
O O7 0.500000 0.000000 0.500000
O O8 0.750000 0.845060 0.130523
O O9 0.602890 0.750000 0.111728
O O10 0.607252 0.923078 0.184481
O O11 0.997008 0.750000 0.768771
O O12 0.087667 0.912334 0.750000
#
# Coordination Sequence:
#
# PCOD9570462 Si02
#       4
#    16  16  16  16
#     4   9  20  39  63  93 128 167 212 261 319 386
#     4  12  23  39  63  95 131 166 213 268 325 391
#     4  10  23  43  66  94 130 171 216 268 324 388
#     4  11  24  45  66  95 131 174 226 272 329 395
#
# _framework density 20.174928999999999
#
# number of rings (size 3 to 8) (size 9 to 14) (size 15 to 20)
#    0.000    1.500    2.500    3.000    0.000    4.250 
#    0.000    2.500    0.000    0.000    0.000    0.000 
#    0.000    0.000    0.000    0.000    0.000    0.000 
#
# Total GULP energy -356668.819945 kJ/mol
# GULP energy per Si atom -5572.950312 kJ/mol
# Density = 2.012901 g / cm^3
# Si number density = 20.174929 Si / 1000 Ang^3
#
#
#
# Elastic Constant Matrix: (Units=GPa)
#
#
# Indices 1 2 3 4 5 6 
#
# 1 120.0891 38.0436 48.9426 0.0000 0.0000 0.0000
# 2 38.0436 120.0900 48.9428 0.0000 0.0000 0.0000
# 3 48.9426 48.9428 136.6131 0.0000 0.0000 0.0000
# 4 0.0000 0.0000 0.0000 31.3752 0.0000 0.0000
# 5 0.0000 0.0000 0.0000 0.0000 31.3744 0.0000
# 6 0.0000 0.0000 0.0000 0.0000 0.0000 27.1539
#
#
#
# Elastic Compliance Matrix: (Units=1/GPa)
#
#
# Indices 1 2 3 4 5 6 
#
# 1 0.010157 -0.002031 -0.002911 0.000000 0.000000 0.000000
# 2 -0.002031 0.010157 -0.002911 0.000000 0.000000 0.000000
# 3 -0.002911 -0.002911 0.009406 0.000000 0.000000 0.000000
# 4 0.000000 0.000000 0.000000 0.031872 0.000000 0.000000
# 5 0.000000 0.000000 0.000000 0.000000 0.031873 0.000000
# 6 0.000000 0.000000 0.000000 0.000000 0.000000 0.036827
#
#
# Mechanical properties :
#
#
# Convention : Reuss Voigt Hill
#
# Bulk Modulus (GPa) = 71.36291 72.07224 71.71757
# Shear Modulus (GPa) = 33.18501 34.03824 33.61162
#
# Velocity S-wave (km/s) = 4.06009 4.11196 4.08611
# Velocity P-wave (km/s) = 7.57813 7.63842 7.60833
#
# Compressibility (1/GPa) = 0.01401288
#
# Stress axis : x y z
#
# Youngs Moduli (GPa) = 98.45348 98.45423 106.31722
#
# Poissons Ratio (x) = 0.19999 0.30950
# Poissons Ratio (y) = 0.19998 0.30950
# Poissons Ratio (z) = 0.28661 0.28661
#
# Static dielectric constant tensor:
#      x y z
#    x 1.760360 0.000000 0.000000 
#    y 0.000000 1.760360 0.000000 
#    z 0.000000 0.000000 1.119870 
# 
# From -- ./inp_files/4732.got.cif
#   From: 2010.05.17/outbox.cif.g08.bks.cpg/sg137_3_cif.got.tgz:4732.got - 2010.05.20 13:01:12.
