data_PCOD9570203
_publ_section_title
;
Structure prediction by ZEFSAII (Michael W. Deem and Ramdas Pophale) SiO2 
 PCOD9570203
Probable space group: P 42/N M C
;
_chemical_formula_sum "Si O2"
_cell_formula_units_Z 112
_cell_length_a 14.517776
_cell_length_b 14.517776
_cell_length_c 31.936748
_cell_angle_alpha 90.000000
_cell_angle_beta 90.000000
_cell_angle_gamma 90.000000
_cell_volume 6731.174880
_symmetry_space_group_name_H-M "P 42/N M C"
_symmetry_group_IT_number 137
_space_group.IT_coordinate_system_code '2'
_symmetry_cell_setting 'tetragonal'
loop_
_space_group_symop_operation_xyz
x,y,z
1/2-y,x,1/2+z
1/2-x,1/2-y,z
y,1/2-x,1/2+z
1/2+x,-y,-z
-x,1/2+y,-z
1/2+y,1/2+x,1/2-z
-y,-x,1/2-z
-x,-y,-z
1/2+y,-x,1/2-z
1/2+x,1/2+y,-z
-y,1/2+x,1/2-z
1/2-x,y,z
x,1/2-y,z
1/2-y,1/2-x,1/2+z
y,x,1/2+z
loop_
_atom_site_type_symbol
_atom_site_label
_atom_site_fract_x
_atom_site_fract_y
_atom_site_fract_z
Si Si1 0.643111 0.537594 0.336075
Si Si2 0.542040 0.961987 0.679063
Si Si3 0.857894 0.645267 0.251179
Si Si4 0.862251 0.856028 0.420105
Si Si5 0.639760 0.639699 0.102925
Si Si6 0.855291 0.142358 0.800515
Si Si7 0.138034 0.142591 0.989081
O O1 0.750000 0.507600 0.337944
O O2 0.567864 0.461742 0.324449
O O3 0.637265 0.613497 0.299178
O O4 0.615521 0.581725 0.380463
O O5 0.578926 0.915202 0.721368
O O6 0.588266 0.910927 0.640081
O O7 0.577732 0.067315 0.680130
O O8 0.750000 0.642445 0.238959
O O9 0.891458 0.750000 0.246249
O O10 0.750000 0.853893 0.422284
O O11 0.891907 0.750000 0.413651
O O12 0.896431 0.890274 0.465694
O O13 0.750000 0.627512 0.106683
O O14 0.622877 0.750000 0.105646
O O15 0.610657 0.605323 0.056427
O O16 0.862938 0.137062 0.750000
O O17 0.750000 0.118012 0.811662
O O18 0.870776 0.250000 0.811775
O O19 0.250000 0.141337 0.989890
O O20 0.110345 0.250000 0.988523
#
# Coordination Sequence:
#
# PCOD9570203 Si02
#       7
#    16  16  16  16  16  16  16
#     4  10  21  33  44  64  95 128 161 195 229 269
#     4  12  21  30  47  69  94 129 160 187 228 278
#     4  10  20  34  53  75  95 115 146 194 247 289
#     4   8  13  25  46  67  88 118 154 192 236 278
#     4   9  17  30  49  74  99 118 145 191 242 287
#     4   9  18  31  45  63  90 124 159 190 221 269
#     4   7  11  22  43  69  93 116 142 181 238 290
#
# _framework density 16.638995999999999
#
# number of rings (size 3 to 8) (size 9 to 14) (size 15 to 20)
#    0.000    2.714    0.000    5.571    0.000    5.143 
#    0.000    0.714    0.000    1.714    0.000    4.000 
#    0.000    0.000    0.000   14.857    0.000    2.714 
#
# Total GULP energy -623953.282041 kJ/mol
# GULP energy per Si atom -5571.011447 kJ/mol
# Density = 1.660113 g / cm^3
# Si number density = 16.638996 Si / 1000 Ang^3
#
#
#
# Elastic Constant Matrix: (Units=GPa)
#
#
# Indices 1 2 3 4 5 6 
#
# 1 48.4354 28.6165 26.0530 0.0000 0.0000 0.0000
# 2 28.6165 48.4355 26.0531 0.0000 0.0000 0.0000
# 3 26.0530 26.0531 87.9705 0.0000 0.0000 0.0000
# 4 0.0000 0.0000 0.0000 3.8293 0.0000 0.0000
# 5 0.0000 0.0000 0.0000 0.0000 3.8293 0.0000
# 6 0.0000 0.0000 0.0000 0.0000 0.0000 12.5144
#
#
#
# Elastic Compliance Matrix: (Units=1/GPa)
#
#
# Indices 1 2 3 4 5 6 
#
# 1 0.033343 -0.017114 -0.004806 0.000000 0.000000 0.000000
# 2 -0.017114 0.033343 -0.004806 0.000000 0.000000 0.000000
# 3 -0.004806 -0.004806 0.014214 0.000000 0.000000 0.000000
# 4 0.000000 0.000000 0.000000 0.261143 0.000000 0.000000
# 5 0.000000 0.000000 0.000000 0.000000 0.261142 0.000000
# 6 0.000000 0.000000 0.000000 0.000000 0.000000 0.079908
#
#
# Mechanical properties :
#
#
# Convention : Reuss Voigt Hill
#
# Bulk Modulus (GPa) = 36.43464 38.47627 37.45546
# Shear Modulus (GPa) = 6.70517 10.97586 8.84051
#
# Velocity S-wave (km/s) = 2.00961 2.57115 2.30752
# Velocity P-wave (km/s) = 5.22775 5.65586 5.44601
#
# Compressibility (1/GPa) = 0.02744641
#
# Stress axis : x y z
#
# Youngs Moduli (GPa) = 29.99171 29.99170 70.35218
#
# Poissons Ratio (x) = 0.51328 0.33812
# Poissons Ratio (y) = 0.51328 0.33813
# Poissons Ratio (z) = 0.14414 0.14415
#
# Static dielectric constant tensor:
#      x y z
#    x 1.562520 0.000000 0.000000 
#    y 0.000000 1.562520 0.000000 
#    z 0.000000 0.000000 1.594660 
# 
# From -- ./inp_files/10668.got.cif
#   From: 2010.05.17/outbox.cif.g08.bks.cpg/sg137_6_cif.got.tgz:10668.got - 2010.05.20 13:01:12.
