data_PCOD9570439
_publ_section_title
;
Structure prediction by ZEFSAII (Michael W. Deem and Ramdas Pophale) SiO2 
 PCOD9570439
Probable space group: P 42/N M C
;
_chemical_formula_sum "Si O2"
_cell_formula_units_Z 58
_cell_length_a 14.436501
_cell_length_b 14.436501
_cell_length_c 14.512205
_cell_angle_alpha 90.000000
_cell_angle_beta 90.000000
_cell_angle_gamma 90.000000
_cell_volume 3024.525812
_symmetry_space_group_name_H-M "P 42/N M C"
_symmetry_group_IT_number 137
_space_group.IT_coordinate_system_code '2'
_symmetry_cell_setting 'tetragonal'
loop_
_space_group_symop_operation_xyz
x,y,z
1/2-y,x,1/2+z
1/2-x,1/2-y,z
y,1/2-x,1/2+z
1/2+x,-y,-z
-x,1/2+y,-z
1/2+y,1/2+x,1/2-z
-y,-x,1/2-z
-x,-y,-z
1/2+y,-x,1/2-z
1/2+x,1/2+y,-z
-y,1/2+x,1/2-z
1/2-x,y,z
x,1/2-y,z
1/2-y,1/2-x,1/2+z
y,x,1/2+z
loop_
_atom_site_type_symbol
_atom_site_label
_atom_site_fract_x
_atom_site_fract_y
_atom_site_fract_z
Si Si1 0.487890 0.987890 0.750000
Si Si2 0.250000 0.750000 0.750000
Si Si3 0.638929 0.436999 0.413442
Si Si4 0.750000 0.438952 0.134897
Si Si5 0.250000 0.352786 0.853880
Si Si6 0.645426 0.957317 0.600927
O O1 0.482124 0.901094 0.820166
O O2 0.576172 0.983165 0.683212
O O3 0.151656 0.750000 0.699061
O O4 0.750000 0.419786 0.407523
O O5 0.579055 0.343056 0.422602
O O6 0.621110 0.498163 0.503306
O O7 0.750000 0.540107 0.182231
O O8 0.250000 0.250000 0.803343
O O9 0.153803 0.352504 0.908325
O O10 0.750000 0.987670 0.624498
#
# Coordination Sequence:
#
# PCOD9570439 Si02
#       6
#     8   2  16   8   8  16
#     4  12  23  38  69  95 120 171 208 262 310 387
#     4  12  24  36  60 124 116 150 208 296 344 384
#     4  11  24  40  63  95 129 159 205 267 330 377
#     4  12  22  34  66  92 131 153 202 270 334 380
#     4  10  22  40  64  82 125 172 209 250 311 380
#     4  10  24  45  61  90 129 168 211 258 311 387
#
# _framework density 19.176561
#
# number of rings (size 3 to 8) (size 9 to 14) (size 15 to 20)
#    0.000    1.103    4.138    1.655    3.862    0.000 
#    4.966    0.000    0.000    0.000    0.000    0.000 
#    0.000    0.000    0.000    0.000    0.000    0.000 
#
# Total GULP energy -323152.396815 kJ/mol
# GULP energy per Si atom -5571.593049 kJ/mol
# Density = 1.913291 g / cm^3
# Si number density = 19.176561 Si / 1000 Ang^3
#
#
#
# Elastic Constant Matrix: (Units=GPa)
#
#
# Indices 1 2 3 4 5 6 
#
# 1 133.2786 52.3259 67.0960 0.0000 0.0000 0.0000
# 2 52.3259 133.2786 67.0960 0.0000 0.0000 0.0000
# 3 67.0960 67.0960 123.7208 0.0000 0.0000 0.0000
# 4 0.0000 0.0000 0.0000 23.4203 0.0000 0.0000
# 5 0.0000 0.0000 0.0000 0.0000 23.4203 0.0000
# 6 0.0000 0.0000 0.0000 0.0000 0.0000 26.3636
#
#
#
# Elastic Compliance Matrix: (Units=1/GPa)
#
#
# Indices 1 2 3 4 5 6 
#
# 1 0.010608 -0.001745 -0.004807 0.000000 0.000000 0.000000
# 2 -0.001745 0.010608 -0.004807 0.000000 0.000000 0.000000
# 3 -0.004807 -0.004807 0.013296 0.000000 0.000000 0.000000
# 4 0.000000 0.000000 0.000000 0.042698 0.000000 0.000000
# 5 0.000000 0.000000 0.000000 0.000000 0.042698 0.000000
# 6 0.000000 0.000000 0.000000 0.000000 0.000000 0.037931
#
#
# Mechanical properties :
#
#
# Convention : Reuss Voigt Hill
#
# Bulk Modulus (GPa) = 84.77595 84.81262 84.79429
# Shear Modulus (GPa) = 27.10220 28.22485 27.66353
#
# Velocity S-wave (km/s) = 3.76346 3.84062 3.80224
# Velocity P-wave (km/s) = 7.94915 7.99940 7.97431
#
# Compressibility (1/GPa) = 0.01179580
#
# Stress axis : x y z
#
# Youngs Moduli (GPa) = 94.26933 94.26933 75.21037
#
# Poissons Ratio (x) = 0.16450 0.36150
# Poissons Ratio (y) = 0.16450 0.36150
# Poissons Ratio (z) = 0.45311 0.45311
#
# Static dielectric constant tensor:
#      x y z
#    x 1.734100 0.000000 0.000000 
#    y 0.000000 1.734100 0.000000 
#    z 0.000000 0.000000 1.635750 
# 
# From -- ./inp_files/4804.got.cif
#   From: 2010.05.17/outbox.cif.g08.bks.cpg/sg137_3_cif.got.tgz:4804.got - 2010.05.20 13:01:12.
