data_PCOD9570870
_publ_section_title
;
Structure prediction by ZEFSAII (Michael W. Deem and Ramdas Pophale) SiO2 
 PCOD9570870
Probable space group: P 42/N C M
;
_chemical_formula_sum "Si O2"
_cell_formula_units_Z 80
_cell_length_a 12.626357
_cell_length_b 12.626357
_cell_length_c 26.480599
_cell_angle_alpha 90.000000
_cell_angle_beta 90.000000
_cell_angle_gamma 90.000000
_cell_volume 4221.666612
_symmetry_space_group_name_H-M "P 42/N C M"
_symmetry_group_IT_number 138
_space_group.IT_coordinate_system_code '2'
_symmetry_cell_setting 'tetragonal'
loop_
_space_group_symop_operation_xyz
x,y,z
1/2-y,x,1/2+z
1/2-x,1/2-y,z
y,1/2-x,1/2+z
1/2+x,-y,1/2-z
-x,1/2+y,1/2-z
1/2+y,1/2+x,-z
-y,-x,-z
-x,-y,-z
1/2+y,-x,1/2-z
1/2+x,1/2+y,-z
-y,1/2+x,1/2-z
1/2-x,y,1/2+z
x,1/2-y,1/2+z
1/2-y,1/2-x,z
y,x,z
loop_
_atom_site_type_symbol
_atom_site_label
_atom_site_fract_x
_atom_site_fract_y
_atom_site_fract_z
Si Si1 0.256136 0.873773 0.873124
Si Si2 0.872596 0.044558 0.446540
Si Si3 0.471544 0.854506 0.415321
Si Si4 0.189102 0.021822 0.199763
Si Si5 0.486119 0.845534 0.715519
O O1 0.250000 0.750000 0.856500
O O2 0.362504 0.887373 0.905097
O O3 0.241898 0.949744 0.825132
O O4 0.150303 0.889293 0.907245
O O5 0.913336 0.086665 0.500000
O O6 0.747316 0.022599 0.450719
O O7 0.941333 0.941333 0.432957
O O8 0.548549 0.951452 0.428215
O O9 0.508393 0.809434 0.360420
O O10 0.132955 0.132955 0.211682
O O11 0.295856 0.007979 0.230220
O O12 0.109541 0.929095 0.217509
O O13 0.587690 0.912311 0.697555
#
# Coordination Sequence:
#
# PCOD9570870 Si02
#       5
#    16  16  16  16  16
#     4   9  19  35  56  82 109 143 184 232 274 327
#     4  10  22  39  58  84 115 145 183 232 285 342
#     4   9  19  38  60  82 109 144 188 237 280 327
#     4   9  20  34  51  78 110 144 184 225 269 322
#     4  10  21  34  51  78 112 146 183 225 269 326
#
# _framework density 18.949860999999999
#
# number of rings (size 3 to 8) (size 9 to 14) (size 15 to 20)
#    0.000    2.600    0.000    1.800    8.400    6.000 
#    0.000    5.000    0.000    4.200    0.000    0.000 
#    0.000    0.000    0.000    0.000    0.000    0.000 
#
# Total GULP energy -446269.749183 kJ/mol
# GULP energy per Si atom -5578.371865 kJ/mol
# Density = 1.890673 g / cm^3
# Si number density = 18.949861 Si / 1000 Ang^3
#
#
#
# Elastic Constant Matrix: (Units=GPa)
#
#
# Indices 1 2 3 4 5 6 
#
# 1 39.1912 18.6916 -2.7215 0.0000 0.0000 0.0000
# 2 18.6916 39.1908 -2.7217 0.0000 0.0000 0.0000
# 3 -2.7215 -2.7217 7.8211 0.0000 0.0000 0.0000
# 4 0.0000 0.0000 0.0000 19.2280 0.0000 0.0000
# 5 0.0000 0.0000 0.0000 0.0000 19.2280 0.0000
# 6 0.0000 0.0000 0.0000 0.0000 0.0000 24.6560
#
#
#
# Elastic Compliance Matrix: (Units=1/GPa)
#
#
# Indices 1 2 3 4 5 6 
#
# 1 0.033321 -0.015461 0.006215 0.000000 0.000000 0.000000
# 2 -0.015461 0.033322 0.006216 0.000000 0.000000 0.000000
# 3 0.006215 0.006216 0.132185 0.000000 0.000000 0.000000
# 4 0.000000 0.000000 0.000000 0.052007 0.000000 0.000000
# 5 0.000000 0.000000 0.000000 0.000000 0.052007 0.000000
# 6 0.000000 0.000000 0.000000 0.000000 0.000000 0.040558
#
#
# Mechanical properties :
#
#
# Convention : Reuss Voigt Hill
#
# Bulk Modulus (GPa) = 5.18761 12.52220 8.85491
# Shear Modulus (GPa) = 12.08558 17.48605 14.78582
#
# Velocity S-wave (km/s) = 2.52814 3.04098 2.79634
# Velocity P-wave (km/s) = 3.35641 4.35345 3.88703
#
# Compressibility (1/GPa) = 0.19276708
#
# Stress axis : x y z
#
# Youngs Moduli (GPa) = 30.01096 30.01056 7.56518
#
# Poissons Ratio (x) = 0.46398 -0.04701
# Poissons Ratio (y) = 0.46399 -0.04702
# Poissons Ratio (z) = -0.18650 -0.18654
#
# Static dielectric constant tensor:
#      x y z
#    x 1.668580 0.000000 0.000000 
#    y 0.000000 1.668590 0.000000 
#    z 0.000000 0.000000 1.669640 
# 
# From -- ./inp_files/7875.got.cif
#   From: 2010.05.17/outbox.cif.g08.bks.cpg/sg138_4_cif.got.tgz:7875.got - 2010.05.20 13:08:53.
