data_PCOD9570253
_publ_section_title
;
Structure prediction by ZEFSAII (Michael W. Deem and Ramdas Pophale) SiO2 
 PCOD9570253
Probable space group: P 42/N M C
;
_chemical_formula_sum "Si O2"
_cell_formula_units_Z 112
_cell_length_a 15.033107
_cell_length_b 15.033107
_cell_length_c 23.888603
_cell_angle_alpha 90.000000
_cell_angle_beta 90.000000
_cell_angle_gamma 90.000000
_cell_volume 5398.688258
_symmetry_space_group_name_H-M "P 42/N M C"
_symmetry_group_IT_number 137
_space_group.IT_coordinate_system_code '2'
_symmetry_cell_setting 'tetragonal'
loop_
_space_group_symop_operation_xyz
x,y,z
1/2-y,x,1/2+z
1/2-x,1/2-y,z
y,1/2-x,1/2+z
1/2+x,-y,-z
-x,1/2+y,-z
1/2+y,1/2+x,1/2-z
-y,-x,1/2-z
-x,-y,-z
1/2+y,-x,1/2-z
1/2+x,1/2+y,-z
-y,1/2+x,1/2-z
1/2-x,y,z
x,1/2-y,z
1/2-y,1/2-x,1/2+z
y,x,1/2+z
loop_
_atom_site_type_symbol
_atom_site_label
_atom_site_fract_x
_atom_site_fract_y
_atom_site_fract_z
Si Si1 0.644534 0.458567 0.530656
Si Si2 0.482331 0.844850 0.271914
Si Si3 0.852799 0.650754 0.570289
Si Si4 0.386994 0.349592 0.299067
Si Si5 0.851235 0.503810 0.904521
Si Si6 0.599250 0.150695 0.311675
Si Si7 0.352140 0.506019 0.594977
O O1 0.750000 0.453392 0.546587
O O2 0.611038 0.560156 0.543231
O O3 0.581508 0.391541 0.563778
O O4 0.638416 0.443781 0.464303
O O5 0.425537 0.925537 0.250000
O O6 0.443141 0.750000 0.253870
O O7 0.579052 0.852615 0.244469
O O8 0.484775 0.848187 0.338397
O O9 0.750000 0.655203 0.551957
O O10 0.892643 0.750000 0.560052
O O11 0.854758 0.636279 0.637301
O O12 0.361768 0.250000 0.282227
O O13 0.493452 0.355348 0.302837
O O14 0.750000 0.523842 0.923105
O O15 0.920901 0.584301 0.909126
O O16 0.640174 0.140174 0.250000
O O17 0.620598 0.250000 0.333557
O O18 0.626387 0.072562 0.354013
O O19 0.250000 0.476793 0.600314
#
# Coordination Sequence:
#
# PCOD9570253 Si02
#       7
#    16  16  16  16  16  16  16
#     4  10  22  41  65  91 121 159 205 258 310 366
#     4  11  23  38  58  85 120 163 210 258 306 359
#     4   9  17  31  55  88 122 157 202 255 308 360
#     4  10  20  35  59  89 121 159 201 250 309 370
#     4  11  25  42  61  88 123 164 208 255 309 366
#     4  11  23  39  62  91 123 157 194 244 308 379
#     4  11  24  42  65  92 123 162 206 250 303 369
#
# _framework density 20.74578
#
# number of rings (size 3 to 8) (size 9 to 14) (size 15 to 20)
#    0.000    1.571    0.000    5.143    0.000    7.143 
#    0.000    7.143    0.000    0.000    0.000    0.000 
#    0.000    0.000    0.000    0.000    0.000    0.143 
#
# Total GULP energy -625809.638085 kJ/mol
# GULP energy per Si atom -5587.586054 kJ/mol
# Density = 2.069856 g / cm^3
# Si number density = 20.745780 Si / 1000 Ang^3
#
#
#
# Elastic Constant Matrix: (Units=GPa)
#
#
# Indices 1 2 3 4 5 6 
#
# 1 120.6694 54.0440 52.0598 0.0000 0.0000 0.0000
# 2 54.0440 120.6694 52.0598 0.0000 0.0000 0.0000
# 3 52.0598 52.0598 94.7000 0.0000 0.0000 0.0000
# 4 0.0000 0.0000 0.0000 28.5454 0.0000 0.0000
# 5 0.0000 0.0000 0.0000 0.0000 28.5454 0.0000
# 6 0.0000 0.0000 0.0000 0.0000 0.0000 52.5707
#
#
#
# Elastic Compliance Matrix: (Units=1/GPa)
#
#
# Indices 1 2 3 4 5 6 
#
# 1 0.011761 -0.003248 -0.004680 0.000000 0.000000 0.000000
# 2 -0.003248 0.011761 -0.004680 0.000000 0.000000 0.000000
# 3 -0.004680 -0.004680 0.015705 0.000000 0.000000 0.000000
# 4 0.000000 0.000000 0.000000 0.035032 0.000000 0.000000
# 5 0.000000 0.000000 0.000000 0.000000 0.035032 0.000000
# 6 0.000000 0.000000 0.000000 0.000000 0.000000 0.019022
#
#
# Mechanical properties :
#
#
# Convention : Reuss Voigt Hill
#
# Bulk Modulus (GPa) = 71.37108 72.48509 71.92809
# Shear Modulus (GPa) = 31.60602 33.79067 32.69835
#
# Velocity S-wave (km/s) = 3.90743 4.04021 3.97438
# Velocity P-wave (km/s) = 7.40505 7.53525 7.47043
#
# Compressibility (1/GPa) = 0.01401128
#
# Stress axis : x y z
#
# Youngs Moduli (GPa) = 85.02780 85.02780 63.67520
#
# Poissons Ratio (x) = 0.27621 0.29797
# Poissons Ratio (y) = 0.27621 0.29797
# Poissons Ratio (z) = 0.39789 0.39789
#
# Static dielectric constant tensor:
#      x y z
#    x 1.732170 0.000000 0.000000 
#    y 0.000000 1.732170 0.000000 
#    z 0.000000 0.000000 1.721330 
# 
# From -- ./inp_files/8949.got.cif
#   From: 2010.05.17/outbox.cif.g08.bks.cpg/sg137_5_cif.got.tgz:8949.got - 2010.05.20 13:01:12.
