data_PCOD9570076
_publ_section_title
;
Structure prediction by ZEFSAII (Michael W. Deem and Ramdas Pophale) SiO2 
 PCOD9570076
Probable space group: P 42/N M C
;
_chemical_formula_sum "Si O2"
_cell_formula_units_Z 96
_cell_length_a 15.584511
_cell_length_b 15.584511
_cell_length_c 19.181939
_cell_angle_alpha 90.000000
_cell_angle_beta 90.000000
_cell_angle_gamma 90.000000
_cell_volume 4658.851475
_symmetry_space_group_name_H-M "P 42/N M C"
_symmetry_group_IT_number 137
_space_group.IT_coordinate_system_code '2'
_symmetry_cell_setting 'tetragonal'
loop_
_space_group_symop_operation_xyz
x,y,z
1/2-y,x,1/2+z
1/2-x,1/2-y,z
y,1/2-x,1/2+z
1/2+x,-y,-z
-x,1/2+y,-z
1/2+y,1/2+x,1/2-z
-y,-x,1/2-z
-x,-y,-z
1/2+y,-x,1/2-z
1/2+x,1/2+y,-z
-y,1/2+x,1/2-z
1/2-x,y,z
x,1/2-y,z
1/2-y,1/2-x,1/2+z
y,x,1/2+z
loop_
_atom_site_type_symbol
_atom_site_label
_atom_site_fract_x
_atom_site_fract_y
_atom_site_fract_z
Si Si1 0.344733 0.395428 0.459636
Si Si2 0.155661 0.932942 0.108664
Si Si3 0.343586 0.508329 0.599388
Si Si4 0.497281 0.654595 0.182496
Si Si5 0.847989 0.607411 0.816825
Si Si6 0.152934 0.959979 0.948706
O O1 0.250000 0.351303 0.465517
O O2 0.350115 0.457696 0.526162
O O3 0.341721 0.449312 0.388649
O O4 0.436439 0.348745 0.454572
O O5 0.250000 0.894958 0.120810
O O6 0.085620 0.898822 0.162098
O O7 0.160434 0.033445 0.125130
O O8 0.134980 0.923957 0.026993
O O9 0.250000 0.551910 0.601603
O O10 0.344414 0.432638 0.656964
O O11 0.420127 0.578108 0.599624
O O12 0.468056 0.750000 0.202535
O O13 0.561101 0.629105 0.244171
O O14 0.750000 0.645375 0.810646
O O15 0.250000 0.934597 0.928800
#
# Coordination Sequence:
#
# PCOD9570076 Si02
#       6
#    16  16  16  16  16  16
#     4  10  20  36  61  91 121 158 209 261 312 376
#     4  10  19  32  53  84 123 165 205 245 297 374
#     4  11  22  38  63  90 120 164 214 260 313 377
#     4  10  20  35  56  86 122 159 201 256 320 381
#     4  10  21  37  58  86 119 157 202 257 316 375
#     4  11  22  37  59  90 131 169 209 262 313 367
#
# _framework density 20.605937999999998
#
# number of rings (size 3 to 8) (size 9 to 14) (size 15 to 20)
#    0.000    1.667    3.333    2.000    0.000    1.333 
#    0.000    4.167    0.000    6.000    0.000    0.000 
#    0.000    2.667    0.000    0.000    0.000    0.167 
#
# Total GULP energy -534706.278533 kJ/mol
# GULP energy per Si atom -5569.857068 kJ/mol
# Density = 2.055904 g / cm^3
# Si number density = 20.605938 Si / 1000 Ang^3
#
#
#
# Elastic Constant Matrix: (Units=GPa)
#
#
# Indices 1 2 3 4 5 6 
#
# 1 97.3326 67.6676 29.5537 0.0000 0.0000 0.0000
# 2 67.6676 97.3326 29.5537 0.0000 0.0000 0.0000
# 3 29.5537 29.5537 62.8998 0.0000 0.0000 0.0000
# 4 0.0000 0.0000 0.0000 14.4753 0.0000 0.0000
# 5 0.0000 0.0000 0.0000 0.0000 14.4753 0.0000
# 6 0.0000 0.0000 0.0000 0.0000 0.0000 -23.6186
#
#
#
# Elastic Compliance Matrix: (Units=1/GPa)
#
#
# Indices 1 2 3 4 5 6 
#
# 1 0.020498 -0.013211 -0.003424 0.000000 0.000000 0.000000
# 2 -0.013211 0.020498 -0.003424 0.000000 0.000000 0.000000
# 3 -0.003424 -0.003424 0.019116 0.000000 0.000000 0.000000
# 4 0.000000 0.000000 0.000000 0.069083 0.000000 0.000000
# 5 0.000000 0.000000 0.000000 0.000000 0.069083 0.000000
# 6 0.000000 0.000000 0.000000 0.000000 0.000000 -0.042339
#
#
# Mechanical properties :
#
#
# Convention : Reuss Voigt Hill
#
# Bulk Modulus (GPa) = 50.01384 56.79056 53.40220
# Shear Modulus (GPa) = 24.66426 9.78573 17.22500
#
# Velocity S-wave (km/s) = 3.46345 2.18158 2.89437
# Velocity P-wave (km/s) = 6.34966 5.82802 6.09443
#
# Compressibility (1/GPa) = 0.01999446
#
# Stress axis : x y z
#
# Youngs Moduli (GPa) = 48.78418 48.78418 52.31285
#
# Poissons Ratio (x) = 0.64450 0.17911
# Poissons Ratio (y) = 0.64450 0.17911
# Poissons Ratio (z) = 0.16703 0.16703
#
# Static dielectric constant tensor:
#      x y z
#    x 1.877300 0.000000 0.000000 
#    y 0.000000 1.877300 0.000000 
#    z 0.000000 0.000000 1.716850 
# 
# From -- ./inp_files/7833.got.cif
#   From: 2010.05.17/outbox.cif.g08.bks.cpg/sg137_4_cif.got.tgz:7833.got - 2010.05.20 13:01:12.
