data_PCOD9570553
_publ_section_title
;
Structure prediction by ZEFSAII (Michael W. Deem and Ramdas Pophale) SiO2 
 PCOD9570553
Probable space group: P 42/N M C
;
_chemical_formula_sum "Si O2"
_cell_formula_units_Z 128
_cell_length_a 24.000000
_cell_length_b 24.000000
_cell_length_c 12.000000
_cell_angle_alpha 90.000000
_cell_angle_beta 90.000000
_cell_angle_gamma 90.000000
_cell_volume 6912.000000
_symmetry_space_group_name_H-M "P 42/N M C"
_symmetry_group_IT_number 137
_space_group.IT_coordinate_system_code '2'
_symmetry_cell_setting 'tetragonal'
loop_
_space_group_symop_operation_xyz
x,y,z
1/2-y,x,1/2+z
1/2-x,1/2-y,z
y,1/2-x,1/2+z
1/2+x,-y,-z
-x,1/2+y,-z
1/2+y,1/2+x,1/2-z
-y,-x,1/2-z
-x,-y,-z
1/2+y,-x,1/2-z
1/2+x,1/2+y,-z
-y,1/2+x,1/2-z
1/2-x,y,z
x,1/2-y,z
1/2-y,1/2-x,1/2+z
y,x,1/2+z
loop_
_atom_site_type_symbol
_atom_site_label
_atom_site_fract_x
_atom_site_fract_y
_atom_site_fract_z
Si Si1 0.071529 0.887740 0.997339
Si Si2 0.507589 0.369649 0.420121
Si Si3 0.594645 0.184671 0.799320
Si Si4 0.494448 0.815792 0.822364
Si Si5 0.451591 0.017769 0.343576
Si Si6 0.409096 0.186982 0.552731
Si Si7 0.402982 0.187260 0.015155
Si Si8 0.333477 0.037379 0.279679
O O1 0.090666 0.836346 0.073692
O O2 0.026270 0.923573 0.070216
O O3 0.043597 0.859325 0.890654
O O4 0.120629 0.930398 0.966696
O O5 0.506214 0.336666 0.304050
O O6 0.484152 0.432410 0.402258
O O7 0.465910 0.337601 0.501196
O O8 0.639294 0.139294 0.750000
O O9 0.610255 0.250000 0.786053
O O10 0.528869 0.179338 0.761105
O O11 0.478353 0.750000 0.830960
O O12 0.554900 0.820215 0.881182
O O13 0.399801 0.043410 0.277531
O O14 0.488334 0.988334 0.250000
O O15 0.398305 0.250000 0.512902
O O16 0.359582 0.144572 0.520865
O O17 0.422552 0.189138 0.684312
O O18 0.379704 0.250000 0.019097
O O19 0.441104 0.183249 0.902977
#
# Coordination Sequence:
#
# PCOD9570553 Si02
#       8
#    16  16  16  16  16  16  16  16
#     4  11  21  36  59  90 123 158 201 252 311 376
#     4  12  23  38  55  90 130 164 204 249 315 376
#     4  11  22  39  64  93 125 163 208 258 311 372
#     4  11  22  39  61  85 121 164 205 250 307 377
#     4  11  20  34  59  91 126 157 197 252 321 380
#     4  12  25  41  61  89 124 165 213 264 313 371
#     4  11  23  42  65  88 119 164 212 264 318 371
#     4  11  21  42  66  93 121 160 211 258 320 373
#
# _framework density 18.518519000000001
#
# number of rings (size 3 to 8) (size 9 to 14) (size 15 to 20)
#    0.000    0.750    3.750    7.125    0.000    0.375 
#    0.000    0.625    0.000    1.500    0.000    0.000 
#    0.000    3.000    0.000    0.000    0.000    0.000 
#
# Total GULP energy -714740.480742 kJ/mol
# GULP energy per Si atom -5583.910006 kJ/mol
# Density = 1.847637 g / cm^3
# Si number density = 18.518519 Si / 1000 Ang^3
#
#
#
# Elastic Constant Matrix: (Units=GPa)
#
#
# Indices 1 2 3 4 5 6 
#
# 1 94.9743 40.0338 19.8812 0.0000 0.0000 0.0000
# 2 40.0338 94.9743 19.8812 0.0000 0.0000 0.0000
# 3 19.8812 19.8812 70.5040 0.0000 0.0000 0.0000
# 4 0.0000 0.0000 0.0000 21.8639 0.0000 0.0000
# 5 0.0000 0.0000 0.0000 0.0000 21.8639 0.0000
# 6 0.0000 0.0000 0.0000 0.0000 0.0000 18.3729
#
#
#
# Elastic Compliance Matrix: (Units=1/GPa)
#
#
# Indices 1 2 3 4 5 6 
#
# 1 0.013140 -0.005062 -0.002278 0.000000 0.000000 0.000000
# 2 -0.005062 0.013140 -0.002278 0.000000 0.000000 0.000000
# 3 -0.002278 -0.002278 0.015468 0.000000 0.000000 0.000000
# 4 0.000000 0.000000 0.000000 0.045738 0.000000 0.000000
# 5 0.000000 0.000000 0.000000 0.000000 0.045738 0.000000
# 6 0.000000 0.000000 0.000000 0.000000 0.000000 0.054428
#
#
# Mechanical properties :
#
#
# Convention : Reuss Voigt Hill
#
# Bulk Modulus (GPa) = 44.41972 46.67167 45.54569
# Shear Modulus (GPa) = 23.32200 24.46390 23.89295
#
# Velocity S-wave (km/s) = 3.55264 3.63857 3.59586
# Velocity P-wave (km/s) = 6.39273 6.55055 6.47212
#
# Compressibility (1/GPa) = 0.02251253
#
# Stress axis : x y z
#
# Youngs Moduli (GPa) = 76.10550 76.10550 64.64863
#
# Poissons Ratio (x) = 0.38523 0.14726
# Poissons Ratio (y) = 0.38523 0.14726
# Poissons Ratio (z) = 0.17336 0.17336
#
# Static dielectric constant tensor:
#      x y z
#    x 1.647430 0.000000 0.000000 
#    y 0.000000 1.647430 0.000000 
#    z 0.000000 0.000000 1.667810 
# 
# From -- ./inp_files/4010.got.cif
#   From: 2010.05.17/outbox.ucp.g08.bks.cvg/sg137_3_cif.got.tgz:4010.got - 2010.06.11 11:41:14.
