data_PCOD9570276
_publ_section_title
;
Structure prediction by ZEFSAII (Michael W. Deem and Ramdas Pophale) SiO2 
 PCOD9570276
Probable space group: P 42/N M C
;
_chemical_formula_sum "Si O2"
_cell_formula_units_Z 72
_cell_length_a 17.600693
_cell_length_b 17.600693
_cell_length_c 11.373610
_cell_angle_alpha 90.000000
_cell_angle_beta 90.000000
_cell_angle_gamma 90.000000
_cell_volume 3523.366882
_symmetry_space_group_name_H-M "P 42/N M C"
_symmetry_group_IT_number 137
_space_group.IT_coordinate_system_code '2'
_symmetry_cell_setting 'tetragonal'
loop_
_space_group_symop_operation_xyz
x,y,z
1/2-y,x,1/2+z
1/2-x,1/2-y,z
y,1/2-x,1/2+z
1/2+x,-y,-z
-x,1/2+y,-z
1/2+y,1/2+x,1/2-z
-y,-x,1/2-z
-x,-y,-z
1/2+y,-x,1/2-z
1/2+x,1/2+y,-z
-y,1/2+x,1/2-z
1/2-x,y,z
x,1/2-y,z
1/2-y,1/2-x,1/2+z
y,x,1/2+z
loop_
_atom_site_type_symbol
_atom_site_label
_atom_site_fract_x
_atom_site_fract_y
_atom_site_fract_z
Si Si1 0.396351 0.663344 0.006961
Si Si2 0.905590 0.916562 0.747880
Si Si3 0.904233 0.404233 0.750000
Si Si4 0.060977 0.837008 0.678599
Si Si5 0.661514 0.921924 0.489395
O O1 0.376726 0.750000 0.972041
O O2 0.350569 0.593530 0.950663
O O3 0.486190 0.650392 0.979876
O O4 0.387381 0.651888 0.144494
O O5 0.886369 0.877200 0.873035
O O6 0.864006 0.900223 0.622431
O O7 0.990853 0.889470 0.715017
O O8 0.897031 0.005713 0.774055
O O9 0.134065 0.865936 0.750000
O O10 0.041167 0.750000 0.701023
O O11 0.750000 0.906377 0.480515
#
# Coordination Sequence:
#
# PCOD9570276 Si02
#       5
#    16  16   8  16  16
#     4  10  21  37  56  85 124 161 202 256 313 377
#     4  11  20  38  65  92 125 162 215 266 313 373
#     4  10  20  36  62  89 117 164 216 262 312 366
#     4  12  23  36  58  88 122 166 210 253 308 372
#     4  10  21  39  64  93 123 158 203 261 322 378
#
# _framework density 20.434999999999999
#
# number of rings (size 3 to 8) (size 9 to 14) (size 15 to 20)
#    0.000    1.333    3.333    2.667    0.000    6.000 
#    0.000    6.667    0.000    5.333    0.000    0.000 
#    0.000    0.000    0.000    0.000    0.000    0.000 
#
# Total GULP energy -401264.314642 kJ/mol
# GULP energy per Si atom -5573.115481 kJ/mol
# Density = 2.038849 g / cm^3
# Si number density = 20.435000 Si / 1000 Ang^3
#
#
#
# Elastic Constant Matrix: (Units=GPa)
#
#
# Indices 1 2 3 4 5 6 
#
# 1 27.0071 -2.2190 23.7133 0.0000 0.0000 0.0000
# 2 -2.2190 27.0061 23.7075 0.0000 0.0000 0.0000
# 3 23.7133 23.7075 113.2343 0.0000 0.0000 0.0000
# 4 0.0000 0.0000 0.0000 10.4558 0.0000 0.0000
# 5 0.0000 0.0000 0.0000 0.0000 10.4564 0.0000
# 6 0.0000 0.0000 0.0000 0.0000 0.0000 8.2494
#
#
#
# Elastic Compliance Matrix: (Units=1/GPa)
#
#
# Indices 1 2 3 4 5 6 
#
# 1 0.050762 0.016543 -0.014094 0.000000 0.000000 0.000000
# 2 0.016543 0.050758 -0.014092 0.000000 0.000000 0.000000
# 3 -0.014094 -0.014092 0.014733 0.000000 0.000000 0.000000
# 4 0.000000 0.000000 0.000000 0.095641 0.000000 0.000000
# 5 0.000000 0.000000 0.000000 0.000000 0.095635 0.000000
# 6 0.000000 0.000000 0.000000 0.000000 0.000000 0.121221
#
#
# Mechanical properties :
#
#
# Convention : Reuss Voigt Hill
#
# Bulk Modulus (GPa) = 10.75634 28.62791 19.69212
# Shear Modulus (GPa) = 10.35145 13.96870 12.16007
#
# Velocity S-wave (km/s) = 2.25312 2.61735 2.44203
# Velocity P-wave (km/s) = 3.47042 4.81391 4.19628
#
# Compressibility (1/GPa) = 0.09296847
#
# Stress axis : x y z
#
# Youngs Moduli (GPa) = 19.69995 19.70124 67.87449
#
# Poissons Ratio (x) = -0.32592 0.95662
# Poissons Ratio (y) = -0.32590 0.95646
# Poissons Ratio (z) = 0.27765 0.27762
#
# Static dielectric constant tensor:
#      x y z
#    x 1.732400 0.000000 0.000000 
#    y 0.000000 1.732400 0.000000 
#    z 0.000000 0.000000 1.928210 
# 
# From -- ./inp_files/3474.got.cif
#   From: 2010.05.17/outbox.cif.g08.bks.cpg/sg137_2_cif.got.tgz:3474.got - 2010.05.20 13:01:12.
