data_PCOD9570878
_publ_section_title
;
Structure prediction by ZEFSAII (Michael W. Deem and Ramdas Pophale) SiO2 
 PCOD9570878
Probable space group: P 42/N C M
;
_chemical_formula_sum "Si O2"
_cell_formula_units_Z 48
_cell_length_a 11.851936
_cell_length_b 11.851936
_cell_length_c 13.948292
_cell_angle_alpha 90.000000
_cell_angle_beta 90.000000
_cell_angle_gamma 90.000000
_cell_volume 1959.294078
_symmetry_space_group_name_H-M "P 42/N C M"
_symmetry_group_IT_number 138
_space_group.IT_coordinate_system_code '2'
_symmetry_cell_setting 'tetragonal'
loop_
_space_group_symop_operation_xyz
x,y,z
1/2-y,x,1/2+z
1/2-x,1/2-y,z
y,1/2-x,1/2+z
1/2+x,-y,1/2-z
-x,1/2+y,1/2-z
1/2+y,1/2+x,-z
-y,-x,-z
-x,-y,-z
1/2+y,-x,1/2-z
1/2+x,1/2+y,-z
-y,1/2+x,1/2-z
1/2-x,y,1/2+z
x,1/2-y,1/2+z
1/2-y,1/2-x,z
y,x,z
loop_
_atom_site_type_symbol
_atom_site_label
_atom_site_fract_x
_atom_site_fract_y
_atom_site_fract_z
Si Si1 0.154356 0.154356 0.959640
Si Si2 0.343952 0.343952 0.727715
Si Si3 0.751917 0.071673 0.743365
Si Si4 0.323984 0.987480 0.963636
O O1 0.250000 0.250000 0.977438
O O2 0.146698 0.146698 0.843893
O O3 0.037291 0.204041 0.996129
O O4 0.250000 0.250000 0.704751
O O5 0.302656 0.468295 0.698244
O O6 0.651916 0.155100 0.708305
O O7 0.815116 0.021439 0.651203
O O8 0.417987 0.082014 0.987596
O O9 0.368524 0.868524 0.000000
#
# Coordination Sequence:
#
# PCOD9570878 Si02
#       4
#     8   8  16  16
#     4   7  12  26  48  81 108 141 190 239 292 346
#     4   9  18  32  58  82 113 157 204 246 293 357
#     4  10  21  35  56  88 122 160 199 250 309 364
#     4   9  17  32  59  84 117 160 204 250 302 365
#
# _framework density 24.498619999999999
#
# number of rings (size 3 to 8) (size 9 to 14) (size 15 to 20)
#    0.000    3.000    0.000    3.000    4.667    0.000 
#    0.000    3.333    7.333    0.000    0.000   28.000 
#    0.000    0.000    0.000    0.000    0.000    0.000 
#
# Total GULP energy -267892.899623 kJ/mol
# GULP energy per Si atom -5581.102075 kJ/mol
# Density = 2.444286 g / cm^3
# Si number density = 24.498620 Si / 1000 Ang^3
#
#
#
# Elastic Constant Matrix: (Units=GPa)
#
#
# Indices 1 2 3 4 5 6 
#
# 1 115.2898 69.3791 -6.8013 0.0000 0.0000 0.0000
# 2 69.3791 115.2898 -6.8013 0.0000 0.0000 0.0000
# 3 -6.8013 -6.8013 52.9930 0.0000 0.0000 0.0000
# 4 0.0000 0.0000 0.0000 10.2206 0.0000 0.0000
# 5 0.0000 0.0000 0.0000 0.0000 10.2206 0.0000
# 6 0.0000 0.0000 0.0000 0.0000 0.0000 61.3288
#
#
#
# Elastic Compliance Matrix: (Units=1/GPa)
#
#
# Indices 1 2 3 4 5 6 
#
# 1 0.013624 -0.008157 0.000702 0.000000 0.000000 0.000000
# 2 -0.008157 0.013624 0.000702 0.000000 0.000000 0.000000
# 3 0.000702 0.000702 0.019051 0.000000 0.000000 0.000000
# 4 0.000000 0.000000 0.000000 0.097842 0.000000 0.000000
# 5 0.000000 0.000000 0.000000 0.000000 0.097842 0.000000
# 6 0.000000 0.000000 0.000000 0.000000 0.000000 0.016306
#
#
# Mechanical properties :
#
#
# Convention : Reuss Voigt Hill
#
# Bulk Modulus (GPa) = 30.49657 43.90285 37.19971
# Shear Modulus (GPa) = 17.68498 31.54042 24.61270
#
# Velocity S-wave (km/s) = 2.68969 3.59198 3.17307
# Velocity P-wave (km/s) = 4.70332 5.92980 5.35181
#
# Compressibility (1/GPa) = 0.03279057
#
# Stress axis : x y z
#
# Youngs Moduli (GPa) = 73.39943 73.39943 52.49199
#
# Poissons Ratio (x) = 0.59874 -0.03683
# Poissons Ratio (y) = 0.59874 -0.03683
# Poissons Ratio (z) = -0.05150 -0.05150
#
# Static dielectric constant tensor:
#      x y z
#    x 1.989920 0.000000 0.000000 
#    y 0.000000 1.989920 0.000000 
#    z 0.000000 0.000000 1.956930 
# 
# From -- ./inp_files/4735.got.cif
#   From: 2010.05.17/outbox.cif.g08.bks.cpg/sg138_3_cif.got.tgz:4735.got - 2010.05.20 13:08:53.
