data_PCOD9570652
_publ_section_title
;
Structure prediction by ZEFSAII (Michael W. Deem and Ramdas Pophale) SiO2 
 PCOD9570652
Probable space group: P 42/N C M
;
_chemical_formula_sum "Si O2"
_cell_formula_units_Z 112
_cell_length_a 15.425545
_cell_length_b 15.425545
_cell_length_c 29.375913
_cell_angle_alpha 90.000000
_cell_angle_beta 90.000000
_cell_angle_gamma 90.000000
_cell_volume 6989.923253
_symmetry_space_group_name_H-M "P 42/N C M"
_symmetry_group_IT_number 138
_space_group.IT_coordinate_system_code '2'
_symmetry_cell_setting 'tetragonal'
loop_
_space_group_symop_operation_xyz
x,y,z
1/2-y,x,1/2+z
1/2-x,1/2-y,z
y,1/2-x,1/2+z
1/2+x,-y,1/2-z
-x,1/2+y,1/2-z
1/2+y,1/2+x,-z
-y,-x,-z
-x,-y,-z
1/2+y,-x,1/2-z
1/2+x,1/2+y,-z
-y,1/2+x,1/2-z
1/2-x,y,1/2+z
x,1/2-y,1/2+z
1/2-y,1/2-x,z
y,x,z
loop_
_atom_site_type_symbol
_atom_site_label
_atom_site_fract_x
_atom_site_fract_y
_atom_site_fract_z
Si Si1 0.442291 0.688280 0.519514
Si Si2 0.889225 0.028052 0.044754
Si Si3 0.382580 0.696878 0.697287
Si Si4 0.689386 0.115662 0.298841
Si Si5 0.950365 0.090208 0.385960
Si Si6 0.994974 0.138342 0.115858
Si Si7 0.042960 0.182099 0.573549
O O1 0.349045 0.650956 0.500000
O O2 0.455386 0.788031 0.534601
O O3 0.461504 0.634680 0.565006
O O4 0.507651 0.671043 0.477852
O O5 0.922500 0.088023 0.086130
O O6 0.935564 0.064437 0.000000
O O7 0.931066 0.931066 0.051565
O O8 0.419423 0.677053 0.747574
O O9 0.371219 0.800219 0.693629
O O10 0.286504 0.654394 0.698297
O O11 0.430156 0.656941 0.654111
O O12 0.672987 0.047247 0.338054
O O13 0.871117 0.023127 0.393972
O O14 0.034000 0.034000 0.374564
O O15 0.034228 0.218133 0.087222
O O16 0.069812 0.069812 0.125450
O O17 0.136005 0.136005 0.577684
#
# Coordination Sequence:
#
# PCOD9570652 Si02
#       7
#    16  16  16  16  16  16  16
#     4  10  20  34  52  79 105 133 175 218 258 309
#     4  10  20  34  50  72 105 138 168 209 259 311
#     4   9  17  32  54  75 104 132 161 209 259 317
#     4   9  18  32  51  78 102 130 167 207 261 309
#     4  10  19  32  51  75 103 133 165 212 260 301
#     4  11  21  34  51  73 103 136 173 214 251 303
#     4  10  20  34  49  70 102 137 171 212 256 300
#
# _framework density 16.023064999999999
#
# number of rings (size 3 to 8) (size 9 to 14) (size 15 to 20)
#    0.000    2.143    2.857    2.143    0.000    2.857 
#    0.000    0.000    0.000    1.286    0.000    0.000 
#    0.000    0.000    0.000    0.000    0.000    0.000 
#
# Total GULP energy -623711.777918 kJ/mol
# GULP energy per Si atom -5568.855160 kJ/mol
# Density = 1.598660 g / cm^3
# Si number density = 16.023065 Si / 1000 Ang^3
#
#
#
# Elastic Constant Matrix: (Units=GPa)
#
#
# Indices 1 2 3 4 5 6 
#
# 1 52.5380 30.1591 20.7761 0.0000 0.0000 0.0000
# 2 30.1591 52.5385 20.7765 0.0000 0.0000 0.0000
# 3 20.7761 20.7765 106.8441 0.0000 0.0000 0.0000
# 4 0.0000 0.0000 0.0000 -52.9976 0.0000 0.0000
# 5 0.0000 0.0000 0.0000 0.0000 -53.0721 0.0000
# 6 0.0000 0.0000 0.0000 0.0000 0.0000 16.3585
#
#
#
# Elastic Compliance Matrix: (Units=1/GPa)
#
#
# Indices 1 2 3 4 5 6 
#
# 1 0.029043 -0.015641 -0.002606 0.000000 0.000000 0.000000
# 2 -0.015641 0.029043 -0.002606 0.000000 0.000000 0.000000
# 3 -0.002606 -0.002606 0.010373 0.000000 0.000000 0.000000
# 4 0.000000 0.000000 0.000000 -0.018869 0.000000 0.000000
# 5 0.000000 0.000000 0.000000 0.000000 -0.018842 0.000000
# 6 0.000000 0.000000 0.000000 0.000000 0.000000 0.061130
#
#
# Mechanical properties :
#
#
# Convention : Reuss Voigt Hill
#
# Bulk Modulus (GPa) = 37.37998 39.48266 38.43132
# Shear Modulus (GPa) = 35.08703 -8.59498 13.24603
#
# Velocity S-wave (km/s) = 4.68459 -2.31857 2.87833
# Velocity P-wave (km/s) = 7.25534 4.18652 5.92313
#
# Compressibility (1/GPa) = 0.02675229
#
# Stress axis : x y z
#
# Youngs Moduli (GPa) = 34.43143 34.43169 96.40476
#
# Poissons Ratio (x) = 0.53856 0.25123
# Poissons Ratio (y) = 0.53856 0.25124
# Poissons Ratio (z) = 0.08973 0.08973
#
# Static dielectric constant tensor:
#      x y z
#    x 1.541390 0.000000 0.000000 
#    y 0.000000 1.541390 0.000000 
#    z 0.000000 0.000000 1.529330 
# 
# From -- ./inp_files/7587.got.cif
#   From: 2010.05.17/outbox.cif.g08.bks.cpg/sg138_4_cif.got.tgz:7587.got - 2010.05.20 13:08:53.
