data_PCOD9570370
_publ_section_title
;
Structure prediction by ZEFSAII (Michael W. Deem and Ramdas Pophale) SiO2 
 PCOD9570370
Probable space group: P 42/N M C
;
_chemical_formula_sum "Si O2"
_cell_formula_units_Z 48
_cell_length_a 10.241120
_cell_length_b 10.241120
_cell_length_c 25.599708
_cell_angle_alpha 90.000000
_cell_angle_beta 90.000000
_cell_angle_gamma 90.000000
_cell_volume 2684.911170
_symmetry_space_group_name_H-M "P 42/N M C"
_symmetry_group_IT_number 137
_space_group.IT_coordinate_system_code '2'
_symmetry_cell_setting 'tetragonal'
loop_
_space_group_symop_operation_xyz
x,y,z
1/2-y,x,1/2+z
1/2-x,1/2-y,z
y,1/2-x,1/2+z
1/2+x,-y,-z
-x,1/2+y,-z
1/2+y,1/2+x,1/2-z
-y,-x,1/2-z
-x,-y,-z
1/2+y,-x,1/2-z
1/2+x,1/2+y,-z
-y,1/2+x,1/2-z
1/2-x,y,z
x,1/2-y,z
1/2-y,1/2-x,1/2+z
y,x,1/2+z
loop_
_atom_site_type_symbol
_atom_site_label
_atom_site_fract_x
_atom_site_fract_y
_atom_site_fract_z
Si Si1 0.250000 0.097586 0.806109
Si Si2 0.750000 0.908854 0.312558
Si Si3 0.509091 0.020046 0.377530
Si Si4 0.095034 0.750000 0.426274
Si Si5 0.092950 0.750000 0.545341
O O1 0.250000 0.250000 0.798190
O O2 0.250000 0.041912 0.747383
O O3 0.119619 0.064829 0.838652
O O4 0.750000 0.750000 0.314801
O O5 0.628307 0.966211 0.343645
O O6 0.548359 0.118537 0.424557
O O7 0.443827 0.886752 0.398711
O O8 0.250000 0.750000 0.429174
O O9 0.042971 0.750000 0.485855
O O10 0.250000 0.750000 0.545806
#
# Coordination Sequence:
#
# PCOD9570370 Si02
#       5
#     8   8  16   8   8
#     4  10  23  38  60  87 122 155 195 246 300 355
#     4  11  21  38  62  88 117 154 195 246 299 354
#     4  11  21  39  61  86 120 156 201 244 297 357
#     4  11  23  38  60  86 121 159 199 244 301 355
#     4  10  21  37  59  88 119 155 199 252 296 350
#
# _framework density 17.877687000000002
#
# number of rings (size 3 to 8) (size 9 to 14) (size 15 to 20)
#    0.000    1.333    3.333    3.000    0.000    0.000 
#    0.000    1.667    3.667    0.000    0.000    0.000 
#    0.000    0.000    0.000    0.000    0.000    0.000 
#
# Total GULP energy -267425.562404 kJ/mol
# GULP energy per Si atom -5571.365883 kJ/mol
# Density = 1.783700 g / cm^3
# Si number density = 17.877687 Si / 1000 Ang^3
#
#
#
# Elastic Constant Matrix: (Units=GPa)
#
#
# Indices 1 2 3 4 5 6 
#
# 1 115.8225 44.0754 65.1286 0.0000 0.0000 0.0000
# 2 44.0754 115.8225 65.1286 0.0000 0.0000 0.0000
# 3 65.1286 65.1286 156.4019 0.0000 0.0000 0.0000
# 4 0.0000 0.0000 0.0000 28.9580 0.0000 0.0000
# 5 0.0000 0.0000 0.0000 0.0000 28.9580 0.0000
# 6 0.0000 0.0000 0.0000 0.0000 0.0000 15.4347
#
#
#
# Elastic Compliance Matrix: (Units=1/GPa)
#
#
# Indices 1 2 3 4 5 6 
#
# 1 0.011701 -0.002237 -0.003941 0.000000 0.000000 0.000000
# 2 -0.002237 0.011701 -0.003941 0.000000 0.000000 0.000000
# 3 -0.003941 -0.003941 0.009676 0.000000 0.000000 0.000000
# 4 0.000000 0.000000 0.000000 0.034533 0.000000 0.000000
# 5 0.000000 0.000000 0.000000 0.000000 0.034533 0.000000
# 6 0.000000 0.000000 0.000000 0.000000 0.000000 0.064789
#
#
# Mechanical properties :
#
#
# Convention : Reuss Voigt Hill
#
# Bulk Modulus (GPa) = 77.87865 81.85687 79.86776
# Shear Modulus (GPa) = 26.11625 28.91775 27.51700
#
# Velocity S-wave (km/s) = 3.82623 4.02622 3.92750
# Velocity P-wave (km/s) = 7.94836 8.21587 8.08322
#
# Compressibility (1/GPa) = 0.01284049
#
# Stress axis : x y z
#
# Youngs Moduli (GPa) = 85.46100 85.46100 103.34635
#
# Poissons Ratio (x) = 0.19114 0.40731
# Poissons Ratio (y) = 0.19114 0.40731
# Poissons Ratio (z) = 0.33682 0.33682
#
# Static dielectric constant tensor:
#      x y z
#    x 1.528870 0.000000 0.000000 
#    y 0.000000 1.528870 0.000000 
#    z 0.000000 0.000000 1.630810 
# 
# From -- ./inp_files/8390.got.cif
#   From: 2010.05.17/outbox.cif.g08.bks.cpg/sg137_5_cif.got.tgz:8390.got - 2010.05.20 13:01:12.
