data_PCOD9570464
_publ_section_title
;
Structure prediction by ZEFSAII (Michael W. Deem and Ramdas Pophale) SiO2 
 PCOD9570464
Probable space group: P 42/N M C
;
_chemical_formula_sum "Si O2"
_cell_formula_units_Z 64
_cell_length_a 15.428423
_cell_length_b 15.428423
_cell_length_c 14.040454
_cell_angle_alpha 90.000000
_cell_angle_beta 90.000000
_cell_angle_gamma 90.000000
_cell_volume 3342.136826
_symmetry_space_group_name_H-M "P 42/N M C"
_symmetry_group_IT_number 137
_space_group.IT_coordinate_system_code '2'
_symmetry_cell_setting 'tetragonal'
loop_
_space_group_symop_operation_xyz
x,y,z
1/2-y,x,1/2+z
1/2-x,1/2-y,z
y,1/2-x,1/2+z
1/2+x,-y,-z
-x,1/2+y,-z
1/2+y,1/2+x,1/2-z
-y,-x,1/2-z
-x,-y,-z
1/2+y,-x,1/2-z
1/2+x,1/2+y,-z
-y,1/2+x,1/2-z
1/2-x,y,z
x,1/2-y,z
1/2-y,1/2-x,1/2+z
y,x,1/2+z
loop_
_atom_site_type_symbol
_atom_site_label
_atom_site_fract_x
_atom_site_fract_y
_atom_site_fract_z
Si Si1 0.651695 0.851606 0.348009
Si Si2 0.603235 0.500676 0.494989
Si Si3 0.511272 0.150373 0.785924
Si Si4 0.646142 0.151855 0.353321
O O1 0.750000 0.865605 0.312599
O O2 0.644326 0.750000 0.375929
O O3 0.635209 0.916539 0.435174
O O4 0.578830 0.868440 0.268560
O O5 0.500000 0.500000 0.500000
O O6 0.640159 0.500128 0.601157
O O7 0.627605 0.414269 0.437064
O O8 0.583924 0.083924 0.750000
O O9 0.535306 0.250000 0.764045
O O10 0.616308 0.116308 0.250000
O O11 0.750000 0.157481 0.343340
O O12 0.613110 0.250000 0.370028
#
# Coordination Sequence:
#
# PCOD9570464 Si02
#       4
#    16  16  16  16
#     4  10  23  44  67  92 126 168 214 262 311 368
#     4  12  24  39  65  93 130 164 206 261 313 370
#     4  11  24  43  64  94 130 167 213 258 310 380
#     4   9  20  39  63  93 124 157 204 255 307 372
#
# _framework density 19.149425000000001
#
# number of rings (size 3 to 8) (size 9 to 14) (size 15 to 20)
#    0.000    1.500    2.500    3.000    3.500    3.250 
#    0.000    2.500    0.000    0.000    0.000    0.000 
#    0.000    0.000    0.000    0.000    0.000    0.000 
#
# Total GULP energy -357514.125542 kJ/mol
# GULP energy per Si atom -5586.158212 kJ/mol
# Density = 1.910584 g / cm^3
# Si number density = 19.149425 Si / 1000 Ang^3
#
#
#
# Elastic Constant Matrix: (Units=GPa)
#
#
# Indices 1 2 3 4 5 6 
#
# 1 119.6206 72.9985 69.7544 0.0000 0.0000 0.0000
# 2 72.9985 119.6206 69.7544 0.0000 0.0000 0.0000
# 3 69.7544 69.7544 162.1565 0.0000 0.0000 0.0000
# 4 0.0000 0.0000 0.0000 30.6000 0.0000 0.0000
# 5 0.0000 0.0000 0.0000 0.0000 30.6000 0.0000
# 6 0.0000 0.0000 0.0000 0.0000 0.0000 31.5685
#
#
#
# Elastic Compliance Matrix: (Units=1/GPa)
#
#
# Indices 1 2 3 4 5 6 
#
# 1 0.014495 -0.006954 -0.003244 0.000000 0.000000 0.000000
# 2 -0.006954 0.014495 -0.003244 0.000000 0.000000 0.000000
# 3 -0.003244 -0.003244 0.008958 0.000000 0.000000 0.000000
# 4 0.000000 0.000000 0.000000 0.032680 0.000000 0.000000
# 5 0.000000 0.000000 0.000000 0.000000 0.032680 0.000000
# 6 0.000000 0.000000 0.000000 0.000000 0.000000 0.031677
#
#
# Mechanical properties :
#
#
# Convention : Reuss Voigt Hill
#
# Bulk Modulus (GPa) = 90.38156 91.82358 91.10257
# Shear Modulus (GPa) = 30.20121 31.14639 30.67380
#
# Velocity S-wave (km/s) = 3.97562 4.03735 4.00661
# Velocity P-wave (km/s) = 8.26889 8.35397 8.31154
#
# Compressibility (1/GPa) = 0.01106420
#
# Stress axis : x y z
#
# Youngs Moduli (GPa) = 68.98891 68.98891 111.63536
#
# Poissons Ratio (x) = 0.47975 0.36214
# Poissons Ratio (y) = 0.47975 0.36214
# Poissons Ratio (z) = 0.22379 0.22379
#
# Static dielectric constant tensor:
#      x y z
#    x 1.672640 0.000000 0.000000 
#    y 0.000000 1.672640 0.000000 
#    z 0.000000 0.000000 1.669870 
# 
# From -- ./inp_files/4719.got.cif
#   From: 2010.05.17/outbox.cif.g08.bks.cpg/sg137_3_cif.got.tgz:4719.got - 2010.05.20 13:01:12.
