data_PCOD9570992
_publ_section_title
;
Structure prediction by ZEFSAII (Michael W. Deem and Ramdas Pophale) SiO2 
 PCOD9570992
Probable space group: P 42/N C M
;
_chemical_formula_sum "Si O2"
_cell_formula_units_Z 52
_cell_length_a 13.453816
_cell_length_b 13.453816
_cell_length_c 14.563356
_cell_angle_alpha 90.000000
_cell_angle_beta 90.000000
_cell_angle_gamma 90.000000
_cell_volume 2636.042655
_symmetry_space_group_name_H-M "P 42/N C M"
_symmetry_group_IT_number 138
_space_group.IT_coordinate_system_code '2'
_symmetry_cell_setting 'tetragonal'
loop_
_space_group_symop_operation_xyz
x,y,z
1/2-y,x,1/2+z
1/2-x,1/2-y,z
y,1/2-x,1/2+z
1/2+x,-y,1/2-z
-x,1/2+y,1/2-z
1/2+y,1/2+x,-z
-y,-x,-z
-x,-y,-z
1/2+y,-x,1/2-z
1/2+x,1/2+y,-z
-y,1/2+x,1/2-z
1/2-x,y,1/2+z
x,1/2-y,1/2+z
1/2-y,1/2-x,z
y,x,z
loop_
_atom_site_type_symbol
_atom_site_label
_atom_site_fract_x
_atom_site_fract_y
_atom_site_fract_z
Si Si1 0.729734 0.440158 0.372279
Si Si2 0.245091 0.086028 0.963591
Si Si3 0.641528 0.476125 0.692774
Si Si4 0.250000 0.750000 0.500000
O O1 0.748210 0.534104 0.437702
O O2 0.615434 0.425149 0.342383
O O3 0.798799 0.445630 0.283261
O O4 0.752622 0.344880 0.434418
O O5 0.327639 0.172362 0.960699
O O6 0.139241 0.139241 0.947398
O O7 0.279405 0.008116 0.885803
O O8 0.569802 0.569802 0.710371
#
# Coordination Sequence:
#
# PCOD9570992 Si02
#       4
#    16  16  16   4
#     4  12  23  43  63  94 129 171 214 264 324 382
#     4  10  22  42  67  95 127 165 213 267 324 386
#     4  11  24  42  67  97 130 171 217 268 327 389
#     4  12  24  42  64  92 126 176 218 264 312 392
#
# _framework density 19.726538999999999
#
# number of rings (size 3 to 8) (size 9 to 14) (size 15 to 20)
#    0.000    0.923    3.077    3.692    0.000    4.923 
#    0.000    4.615    0.000    0.000    0.000    0.000 
#    0.000    0.000    0.000    0.000    0.000    0.000 
#
# Total GULP energy -290750.772333 kJ/mol
# GULP energy per Si atom -5591.361006 kJ/mol
# Density = 1.968164 g / cm^3
# Si number density = 19.726539 Si / 1000 Ang^3
#
#
#
# Elastic Constant Matrix: (Units=GPa)
#
#
# Indices 1 2 3 4 5 6 
#
# 1 147.0221 -33.8762 41.4579 0.0000 0.0000 0.0000
# 2 -33.8762 147.0221 41.4579 0.0000 0.0000 0.0000
# 3 41.4579 41.4579 125.0204 0.0000 0.0000 0.0000
# 4 0.0000 0.0000 0.0000 28.4499 0.0000 0.0000
# 5 0.0000 0.0000 0.0000 0.0000 28.4499 0.0000
# 6 0.0000 0.0000 0.0000 0.0000 0.0000 35.8757
#
#
#
# Elastic Compliance Matrix: (Units=1/GPa)
#
#
# Indices 1 2 3 4 5 6 
#
# 1 0.008602 0.003074 -0.003872 0.000000 0.000000 0.000000
# 2 0.003074 0.008602 -0.003872 0.000000 0.000000 0.000000
# 3 -0.003872 -0.003872 0.010566 0.000000 0.000000 0.000000
# 4 0.000000 0.000000 0.000000 0.035149 0.000000 0.000000
# 5 0.000000 0.000000 0.000000 0.000000 0.035149 0.000000
# 6 0.000000 0.000000 0.000000 0.000000 0.000000 0.027874
#
#
# Mechanical properties :
#
#
# Convention : Reuss Voigt Hill
#
# Bulk Modulus (GPa) = 54.25769 57.46043 55.85906
# Shear Modulus (GPa) = 35.35429 43.22345 39.28887
#
# Velocity S-wave (km/s) = 4.23805 4.68603 4.46766
# Velocity P-wave (km/s) = 7.17724 7.64658 7.41563
#
# Compressibility (1/GPa) = 0.01843057
#
# Stress axis : x y z
#
# Youngs Moduli (GPa) = 116.25637 116.25637 94.63910
#
# Poissons Ratio (x) = -0.35734 0.36641
# Poissons Ratio (y) = -0.35734 0.36641
# Poissons Ratio (z) = 0.45011 0.45011
#
# Static dielectric constant tensor:
#      x y z
#    x 1.695920 0.000000 0.000000 
#    y 0.000000 1.695920 0.000000 
#    z 0.000000 0.000000 1.655850 
# 
# From -- ./inp_files/2492.got.cif
#   From: 2010.05.17/outbox.cif.g08.bks.cpg/sg138_2_cif.got.tgz:2492.got - 2010.05.20 13:08:53.
