data_PCOD9570513
_publ_section_title
;
Structure prediction by ZEFSAII (Michael W. Deem and Ramdas Pophale) SiO2 
 PCOD9570513
Probable space group: P 42/N M C
;
_chemical_formula_sum "Si O2"
_cell_formula_units_Z 40
_cell_length_a 7.848732
_cell_length_b 7.848732
_cell_length_c 33.793984
_cell_angle_alpha 90.000000
_cell_angle_beta 90.000000
_cell_angle_gamma 90.000000
_cell_volume 2081.797076
_symmetry_space_group_name_H-M "P 42/N M C"
_symmetry_group_IT_number 137
_space_group.IT_coordinate_system_code '2'
_symmetry_cell_setting 'tetragonal'
loop_
_space_group_symop_operation_xyz
x,y,z
1/2-y,x,1/2+z
1/2-x,1/2-y,z
y,1/2-x,1/2+z
1/2+x,-y,-z
-x,1/2+y,-z
1/2+y,1/2+x,1/2-z
-y,-x,1/2-z
-x,-y,-z
1/2+y,-x,1/2-z
1/2+x,1/2+y,-z
-y,1/2+x,1/2-z
1/2-x,y,z
x,1/2-y,z
1/2-y,1/2-x,1/2+z
y,x,1/2+z
loop_
_atom_site_type_symbol
_atom_site_label
_atom_site_fract_x
_atom_site_fract_y
_atom_site_fract_z
Si Si1 0.543770 0.750000 0.310353
Si Si2 0.250000 0.048398 0.100671
Si Si3 0.952656 0.559766 0.544101
Si Si4 0.952537 0.047464 0.250000
O O1 0.750000 0.750000 0.312238
O O2 0.474630 0.750000 0.354965
O O3 0.500077 0.579373 0.285827
O O4 0.250000 0.250000 0.104666
O O5 0.417495 0.003612 0.075628
O O6 0.750000 0.570260 0.545331
O O7 0.023469 0.750000 0.551479
O O8 0.000000 0.500000 0.500000
O O9 0.750000 0.023910 0.241039
#
# Coordination Sequence:
#
# PCOD9570513 Si02
#       4
#     8   8  16   8
#     4   9  20  38  60  90 119 155 207 244 303 375
#     4  11  23  39  61  91 125 159 203 261 306 370
#     4  11  23  39  60  85 118 162 206 251 307 365
#     4   9  18  37  62  86 120 161 196 249 310 370
#
# _framework density 19.214169999999999
#
# number of rings (size 3 to 8) (size 9 to 14) (size 15 to 20)
#    0.000    1.800    2.000    1.800    0.000    4.400 
#    7.200    4.000    0.000    0.000    0.000    0.000 
#    0.000    0.000    0.000    0.000    0.000    0.000 
#
# Total GULP energy -223214.461094 kJ/mol
# GULP energy per Si atom -5580.361527 kJ/mol
# Density = 1.917044 g / cm^3
# Si number density = 19.214170 Si / 1000 Ang^3
#
#
#
# Elastic Constant Matrix: (Units=GPa)
#
#
# Indices 1 2 3 4 5 6 
#
# 1 117.4519 42.3795 77.2921 0.0000 0.0000 0.0000
# 2 42.3795 117.4529 77.2919 0.0000 0.0000 0.0000
# 3 77.2921 77.2919 201.6430 0.0000 0.0000 0.0000
# 4 0.0000 0.0000 0.0000 55.5347 0.0000 0.0000
# 5 0.0000 0.0000 0.0000 0.0000 55.5351 0.0000
# 6 0.0000 0.0000 0.0000 0.0000 0.0000 25.3780
#
#
#
# Elastic Compliance Matrix: (Units=1/GPa)
#
#
# Indices 1 2 3 4 5 6 
#
# 1 0.011632 -0.001689 -0.003811 0.000000 0.000000 0.000000
# 2 -0.001689 0.011631 -0.003811 0.000000 0.000000 0.000000
# 3 -0.003811 -0.003811 0.007881 0.000000 0.000000 0.000000
# 4 0.000000 0.000000 0.000000 0.018007 0.000000 0.000000
# 5 0.000000 0.000000 0.000000 0.000000 0.018007 0.000000
# 6 0.000000 0.000000 0.000000 0.000000 0.000000 0.039404
#
#
# Mechanical properties :
#
#
# Convention : Reuss Voigt Hill
#
# Bulk Modulus (GPa) = 79.86174 92.27498 86.06836
# Shear Modulus (GPa) = 38.65259 43.26185 40.95722
#
# Velocity S-wave (km/s) = 4.49003 4.75021 4.62195
# Velocity P-wave (km/s) = 8.27857 8.84391 8.56590
#
# Compressibility (1/GPa) = 0.01252164
#
# Stress axis : x y z
#
# Youngs Moduli (GPa) = 85.97321 85.97433 126.88880
#
# Poissons Ratio (x) = 0.14521 0.48359
# Poissons Ratio (y) = 0.14520 0.48358
# Poissons Ratio (z) = 0.32765 0.32765
#
# Static dielectric constant tensor:
#      x y z
#    x 1.677620 0.000000 0.000000 
#    y 0.000000 1.677620 0.000000 
#    z 0.000000 0.000000 1.741320 
# 
# From -- ./inp_files/9326.got.cif
#   From: 2010.05.17/outbox.cif.g08.bks.cpg/sg137_5_cif.got.tgz:9326.got - 2010.05.20 13:01:12.
