data_PCOD9570654
_publ_section_title
;
Structure prediction by ZEFSAII (Michael W. Deem and Ramdas Pophale) SiO2 
 PCOD9570654
Probable space group: P 42/N C M
;
_chemical_formula_sum "Si O2"
_cell_formula_units_Z 64
_cell_length_a 12.699290
_cell_length_b 12.699290
_cell_length_c 23.454130
_cell_angle_alpha 90.000000
_cell_angle_beta 90.000000
_cell_angle_gamma 90.000000
_cell_volume 3782.493668
_symmetry_space_group_name_H-M "P 42/N C M"
_symmetry_group_IT_number 138
_space_group.IT_coordinate_system_code '2'
_symmetry_cell_setting 'tetragonal'
loop_
_space_group_symop_operation_xyz
x,y,z
1/2-y,x,1/2+z
1/2-x,1/2-y,z
y,1/2-x,1/2+z
1/2+x,-y,1/2-z
-x,1/2+y,1/2-z
1/2+y,1/2+x,-z
-y,-x,-z
-x,-y,-z
1/2+y,-x,1/2-z
1/2+x,1/2+y,-z
-y,1/2+x,1/2-z
1/2-x,y,1/2+z
x,1/2-y,1/2+z
1/2-y,1/2-x,z
y,x,z
loop_
_atom_site_type_symbol
_atom_site_label
_atom_site_fract_x
_atom_site_fract_y
_atom_site_fract_z
Si Si1 0.076995 0.257479 0.869129
Si Si2 0.167782 0.992162 0.758967
Si Si3 0.105806 0.572536 0.433880
Si Si4 0.211380 0.628620 0.668427
O O1 0.132355 0.367646 0.883549
O O2 0.168894 0.168894 0.870583
O O3 0.033724 0.255386 0.804250
O O4 0.988166 0.211036 0.911491
O O5 0.207861 0.948369 0.699195
O O6 0.120811 0.893148 0.792941
O O7 0.083163 0.083163 0.752056
O O8 0.102349 0.602349 0.500000
O O9 0.097532 0.675150 0.394444
O O10 0.008913 0.491088 0.423436
O O11 0.250000 0.750000 0.670676
#
# Coordination Sequence:
#
# PCOD9570654 Si02
#       4
#    16  16  16  16
#     4   8  15  28  48  74 100 130 169 209 254 311
#     4  10  19  32  51  77 108 137 167 215 271 320
#     4   9  19  35  53  73 101 140 179 218 265 311
#     4  11  19  35  52  76 104 137 177 208 259 322
#
# _framework density 16.920054
#
# number of rings (size 3 to 8) (size 9 to 14) (size 15 to 20)
#    0.000    2.500    2.500    2.250    0.000    2.500 
#    0.000    1.250    0.000    1.500    0.000    5.250 
#    0.000    0.000    0.000    0.000    0.000    0.000 
#
# Total GULP energy -356417.324079 kJ/mol
# GULP energy per Si atom -5569.020689 kJ/mol
# Density = 1.688154 g / cm^3
# Si number density = 16.920054 Si / 1000 Ang^3
#
#
#
# Elastic Constant Matrix: (Units=GPa)
#
#
# Indices 1 2 3 4 5 6 
#
# 1 55.6889 28.4737 55.8984 0.0000 0.0000 0.0000
# 2 28.4737 55.6889 55.8984 0.0000 0.0000 0.0000
# 3 55.8984 55.8984 136.6513 0.0000 0.0000 0.0000
# 4 0.0000 0.0000 0.0000 15.8960 0.0000 0.0000
# 5 0.0000 0.0000 0.0000 0.0000 15.8960 0.0000
# 6 0.0000 0.0000 0.0000 0.0000 0.0000 24.1713
#
#
#
# Elastic Compliance Matrix: (Units=1/GPa)
#
#
# Indices 1 2 3 4 5 6 
#
# 1 0.031382 -0.005362 -0.010644 0.000000 0.000000 0.000000
# 2 -0.005362 0.031382 -0.010644 0.000000 0.000000 0.000000
# 3 -0.010644 -0.010644 0.016026 0.000000 0.000000 0.000000
# 4 0.000000 0.000000 0.000000 0.062909 0.000000 0.000000
# 5 0.000000 0.000000 0.000000 0.000000 0.062909 0.000000
# 6 0.000000 0.000000 0.000000 0.000000 0.000000 0.041371
#
#
# Mechanical properties :
#
#
# Convention : Reuss Voigt Hill
#
# Bulk Modulus (GPa) = 39.22909 58.73001 48.97955
# Shear Modulus (GPa) = 16.24555 18.37655 17.31105
#
# Velocity S-wave (km/s) = 3.10197 3.29915 3.20208
# Velocity P-wave (km/s) = 6.00541 7.02127 6.53311
#
# Compressibility (1/GPa) = 0.02549129
#
# Stress axis : x y z
#
# Youngs Moduli (GPa) = 31.86501 31.86501 62.39892
#
# Poissons Ratio (x) = 0.17085 0.66417
# Poissons Ratio (y) = 0.17085 0.66417
# Poissons Ratio (z) = 0.33917 0.33917
#
# Static dielectric constant tensor:
#      x y z
#    x 1.592490 0.000000 0.000000 
#    y 0.000000 1.592490 0.000000 
#    z 0.000000 0.000000 1.581330 
# 
# From -- ./inp_files/6734.got.cif
#   From: 2010.05.17/outbox.cif.g08.bks.cpg/sg138_4_cif.got.tgz:6734.got - 2010.05.20 13:08:53.
