data_PCOD9570372
_publ_section_title
;
Structure prediction by ZEFSAII (Michael W. Deem and Ramdas Pophale) SiO2 
 PCOD9570372
Probable space group: P 42/N M C
;
_chemical_formula_sum "Si O2"
_cell_formula_units_Z 96
_cell_length_a 15.726828
_cell_length_b 15.726828
_cell_length_c 20.367915
_cell_angle_alpha 90.000000
_cell_angle_beta 90.000000
_cell_angle_gamma 90.000000
_cell_volume 5037.659943
_symmetry_space_group_name_H-M "P 42/N M C"
_symmetry_group_IT_number 137
_space_group.IT_coordinate_system_code '2'
_symmetry_cell_setting 'tetragonal'
loop_
_space_group_symop_operation_xyz
x,y,z
1/2-y,x,1/2+z
1/2-x,1/2-y,z
y,1/2-x,1/2+z
1/2+x,-y,-z
-x,1/2+y,-z
1/2+y,1/2+x,1/2-z
-y,-x,1/2-z
-x,-y,-z
1/2+y,-x,1/2-z
1/2+x,1/2+y,-z
-y,1/2+x,1/2-z
1/2-x,y,z
x,1/2-y,z
1/2-y,1/2-x,1/2+z
y,x,1/2+z
loop_
_atom_site_type_symbol
_atom_site_label
_atom_site_fract_x
_atom_site_fract_y
_atom_site_fract_z
Si Si1 0.020606 0.418533 0.329075
Si Si2 0.147576 0.655742 0.042569
Si Si3 0.347628 0.349935 0.582144
Si Si4 0.151989 0.928004 0.312753
Si Si5 0.988465 0.655368 0.807945
Si Si6 0.015352 0.147228 0.473941
O O1 0.084809 0.495590 0.314636
O O2 0.031657 0.353419 0.269151
O O3 0.036169 0.384277 0.401553
O O4 0.922980 0.450440 0.325284
O O5 0.250000 0.655779 0.039280
O O6 0.117231 0.750000 0.021888
O O7 0.121313 0.642809 0.118246
O O8 0.116576 0.577137 0.998831
O O9 0.250000 0.359033 0.558964
O O10 0.362633 0.250000 0.595413
O O11 0.356747 0.404954 0.647660
O O12 0.414138 0.378911 0.527161
O O13 0.129598 0.870403 0.250000
O O14 0.250000 0.956937 0.307956
O O15 0.022902 0.750000 0.821542
O O16 0.014134 0.250000 0.473016
#
# Coordination Sequence:
#
# PCOD9570372 Si02
#       6
#    16  16  16  16  16  16
#     4  11  23  39  55  89 118 148 202 252 297 360
#     4   9  19  35  55  83 116 154 199 238 288 362
#     4   9  19  36  58  84 111 149 200 240 286 359
#     4  11  22  37  58  87 123 159 192 243 301 361
#     4  10  21  39  60  79 112 155 195 247 298 342
#     4  10  21  37  60  82 115 157 192 247 308 353
#
# _framework density 19.056467999999999
#
# number of rings (size 3 to 8) (size 9 to 14) (size 15 to 20)
#    0.000    2.000    1.667    2.000    0.000    5.500 
#    0.000    3.333    0.000   13.000    0.000    0.000 
#    0.000    0.000    0.000    0.000    0.000    0.000 
#
# Total GULP energy -535869.596838 kJ/mol
# GULP energy per Si atom -5581.974967 kJ/mol
# Density = 1.901309 g / cm^3
# Si number density = 19.056468 Si / 1000 Ang^3
#
#
#
# Elastic Constant Matrix: (Units=GPa)
#
#
# Indices 1 2 3 4 5 6 
#
# 1 66.1774 51.9051 46.2661 0.0000 0.0000 0.0000
# 2 51.9051 66.1764 46.2665 0.0000 0.0000 0.0000
# 3 46.2661 46.2665 126.2101 0.0000 0.0000 0.0000
# 4 0.0000 0.0000 0.0000 -79.3335 0.0000 0.0000
# 5 0.0000 0.0000 0.0000 0.0000 -79.3408 0.0000
# 6 0.0000 0.0000 0.0000 0.0000 0.0000 13.1301
#
#
#
# Elastic Compliance Matrix: (Units=1/GPa)
#
#
# Indices 1 2 3 4 5 6 
#
# 1 0.040975 -0.029093 -0.004355 0.000000 0.000000 0.000000
# 2 -0.029093 0.040976 -0.004356 0.000000 0.000000 0.000000
# 3 -0.004355 -0.004356 0.011117 0.000000 0.000000 0.000000
# 4 0.000000 0.000000 0.000000 -0.012605 0.000000 0.000000
# 5 0.000000 0.000000 0.000000 0.000000 -0.012604 0.000000
# 6 0.000000 0.000000 0.000000 0.000000 0.000000 0.076161
#
#
# Mechanical properties :
#
#
# Convention : Reuss Voigt Hill
#
# Bulk Modulus (GPa) = 57.28089 60.82658 59.05374
# Shear Modulus (GPa) = 22.17811 -21.50043 0.33884
#
# Velocity S-wave (km/s) = 3.41517 -3.36258 0.42213
# Velocity P-wave (km/s) = 6.75832 4.11248 5.59408
#
# Compressibility (1/GPa) = 0.01745783
#
# Stress axis : x y z
#
# Youngs Moduli (GPa) = 24.40539 24.40476 89.95444
#
# Poissons Ratio (x) = 0.71001 0.39179
# Poissons Ratio (y) = 0.71003 0.39184
# Poissons Ratio (z) = 0.10630 0.10631
#
# Static dielectric constant tensor:
#      x y z
#    x 1.665380 0.000000 0.000000 
#    y 0.000000 1.665380 0.000000 
#    z 0.000000 0.000000 1.636280 
# 
# From -- ./inp_files/7856.got.cif
#   From: 2010.05.17/outbox.cif.g08.bks.cpg/sg137_4_cif.got.tgz:7856.got - 2010.05.20 13:01:12.
