data_PCOD9570784
_publ_section_title
;
Structure prediction by ZEFSAII (Michael W. Deem and Ramdas Pophale) SiO2 
 PCOD9570784
Probable space group: P 42/N C M
;
_chemical_formula_sum "Si O2"
_cell_formula_units_Z 64
_cell_length_a 13.742092
_cell_length_b 13.742092
_cell_length_c 20.143328
_cell_angle_alpha 90.000000
_cell_angle_beta 90.000000
_cell_angle_gamma 90.000000
_cell_volume 3803.968640
_symmetry_space_group_name_H-M "P 42/N C M"
_symmetry_group_IT_number 138
_space_group.IT_coordinate_system_code '2'
_symmetry_cell_setting 'tetragonal'
loop_
_space_group_symop_operation_xyz
x,y,z
1/2-y,x,1/2+z
1/2-x,1/2-y,z
y,1/2-x,1/2+z
1/2+x,-y,1/2-z
-x,1/2+y,1/2-z
1/2+y,1/2+x,-z
-y,-x,-z
-x,-y,-z
1/2+y,-x,1/2-z
1/2+x,1/2+y,-z
-y,1/2+x,1/2-z
1/2-x,y,1/2+z
x,1/2-y,1/2+z
1/2-y,1/2-x,z
y,x,z
loop_
_atom_site_type_symbol
_atom_site_label
_atom_site_fract_x
_atom_site_fract_y
_atom_site_fract_z
Si Si1 0.517021 0.681559 0.959631
Si Si2 0.253299 0.088628 0.169261
Si Si3 0.906523 0.263055 0.264585
Si Si4 0.636314 0.470450 0.099512
O O1 0.605609 0.605609 0.966118
O O2 0.550103 0.760525 0.906396
O O3 0.431136 0.619298 0.924919
O O4 0.491327 0.704701 0.035561
O O5 0.345146 0.154855 0.186513
O O6 0.158372 0.158372 0.172831
O O7 0.244077 0.998994 0.218505
O O8 0.842832 0.165004 0.268801
O O9 0.941705 0.305527 0.334983
O O10 0.561630 0.561630 0.110673
#
# Coordination Sequence:
#
# PCOD9570784 Si02
#       4
#    16  16  16  16
#     4   8  15  30  54  79  99 132 181 220 259 310
#     4  10  20  35  56  80 107 140 177 222 275 322
#     4  11  22  34  51  78 113 146 181 218 262 320
#     4   9  16  31  56  78 101 137 177 220 261 307
#
# _framework density 16.824534
#
# number of rings (size 3 to 8) (size 9 to 14) (size 15 to 20)
#    0.000    2.500    2.500    2.250    0.000    1.000 
#    0.000    2.500    0.000    6.000    0.000    0.000 
#    0.000    0.000    0.000    0.000    0.000    0.000 
#
# Total GULP energy -356394.747149 kJ/mol
# GULP energy per Si atom -5568.667924 kJ/mol
# Density = 1.678624 g / cm^3
# Si number density = 16.824534 Si / 1000 Ang^3
#
#
#
# Elastic Constant Matrix: (Units=GPa)
#
#
# Indices 1 2 3 4 5 6 
#
# 1 52.5117 12.6546 16.9442 0.0000 0.0000 0.0000
# 2 12.6546 52.5117 16.9442 0.0000 0.0000 0.0000
# 3 16.9442 16.9442 96.2141 0.0000 0.0000 0.0000
# 4 0.0000 0.0000 0.0000 22.2071 0.0000 0.0000
# 5 0.0000 0.0000 0.0000 0.0000 22.2071 0.0000
# 6 0.0000 0.0000 0.0000 0.0000 0.0000 7.7319
#
#
#
# Elastic Compliance Matrix: (Units=1/GPa)
#
#
# Indices 1 2 3 4 5 6 
#
# 1 0.020991 -0.004099 -0.002975 0.000000 0.000000 0.000000
# 2 -0.004099 0.020991 -0.002975 0.000000 0.000000 0.000000
# 3 -0.002975 -0.002975 0.011441 0.000000 0.000000 0.000000
# 4 0.000000 0.000000 0.000000 0.045031 0.000000 0.000000
# 5 0.000000 0.000000 0.000000 0.000000 0.045031 0.000000
# 6 0.000000 0.000000 0.000000 0.000000 0.000000 0.129334
#
#
# Mechanical properties :
#
#
# Convention : Reuss Voigt Hill
#
# Bulk Modulus (GPa) = 30.00618 32.70261 31.35439
# Shear Modulus (GPa) = 16.44604 20.74220 18.59412
#
# Velocity S-wave (km/s) = 3.12990 3.51501 3.32803
# Velocity P-wave (km/s) = 5.56194 5.99611 5.78310
#
# Compressibility (1/GPa) = 0.03332647
#
# Stress axis : x y z
#
# Youngs Moduli (GPa) = 47.63944 47.63944 87.40261
#
# Poissons Ratio (x) = 0.19526 0.26001
# Poissons Ratio (y) = 0.19526 0.26001
# Poissons Ratio (z) = 0.14172 0.14172
#
# Static dielectric constant tensor:
#      x y z
#    x 1.562950 0.000000 0.000000 
#    y 0.000000 1.562950 0.000000 
#    z 0.000000 0.000000 1.586190 
# 
# From -- ./inp_files/4878.got.cif
#   From: 2010.05.17/outbox.cif.g08.bks.cpg/sg138_3_cif.got.tgz:4878.got - 2010.05.20 13:08:53.
