data_PCOD9570105
_publ_section_title
;
Structure prediction by ZEFSAII (Michael W. Deem and Ramdas Pophale) SiO2 
 PCOD9570105
Probable space group: P 42/N M C
;
_chemical_formula_sum "Si O2"
_cell_formula_units_Z 112
_cell_length_a 15.560906
_cell_length_b 15.560906
_cell_length_c 23.645733
_cell_angle_alpha 90.000000
_cell_angle_beta 90.000000
_cell_angle_gamma 90.000000
_cell_volume 5725.620245
_symmetry_space_group_name_H-M "P 42/N M C"
_symmetry_group_IT_number 137
_space_group.IT_coordinate_system_code '2'
_symmetry_cell_setting 'tetragonal'
loop_
_space_group_symop_operation_xyz
x,y,z
1/2-y,x,1/2+z
1/2-x,1/2-y,z
y,1/2-x,1/2+z
1/2+x,-y,-z
-x,1/2+y,-z
1/2+y,1/2+x,1/2-z
-y,-x,1/2-z
-x,-y,-z
1/2+y,-x,1/2-z
1/2+x,1/2+y,-z
-y,1/2+x,1/2-z
1/2-x,y,z
x,1/2-y,z
1/2-y,1/2-x,1/2+z
y,x,1/2+z
loop_
_atom_site_type_symbol
_atom_site_label
_atom_site_fract_x
_atom_site_fract_y
_atom_site_fract_z
Si Si1 0.346059 0.353597 0.096680
Si Si2 0.445954 0.844970 0.202905
Si Si3 0.349267 0.995329 0.907966
Si Si4 0.155501 0.381019 0.225233
Si Si5 0.022190 0.148368 0.912620
Si Si6 0.972123 0.149259 0.039340
Si Si7 0.026014 0.841269 0.726815
O O1 0.250000 0.373846 0.073471
O O2 0.347486 0.250000 0.106373
O O3 0.353791 0.397123 0.158221
O O4 0.430366 0.372684 0.059846
O O5 0.389153 0.889153 0.250000
O O6 0.411163 0.750000 0.191843
O O7 0.536382 0.840662 0.235034
O O8 0.466531 0.883325 0.141256
O O9 0.250000 0.994414 0.927233
O O10 0.405575 0.918466 0.934724
O O11 0.349184 0.982650 0.840321
O O12 0.395627 0.086686 0.918235
O O13 0.250000 0.339676 0.231413
O O14 0.068184 0.338485 0.245791
O O15 0.044244 0.250000 0.903053
O O16 0.971849 0.143444 0.971494
O O17 0.955872 0.250000 0.055104
O O18 0.079052 0.920949 0.750000
O O19 0.069713 0.750000 0.740390
#
# Coordination Sequence:
#
# PCOD9570105 Si02
#       7
#    16  16  16  16  16  16  16
#     4   9  18  32  54  86 118 153 202 253 304 358
#     4  10  21  37  60  88 118 155 197 246 310 376
#     4  11  24  39  59  90 123 163 207 251 303 364
#     4  10  19  33  56  86 117 152 195 246 305 364
#     4  10  22  42  65  89 118 159 206 255 314 372
#     4  10  22  41  64  88 122 165 205 255 309 362
#     4  11  23  37  56  83 120 165 207 249 299 355
#
# _framework density 19.561199999999999
#
# number of rings (size 3 to 8) (size 9 to 14) (size 15 to 20)
#    0.000    1.857    1.429    2.143    2.000    4.000 
#    0.000    5.000    0.000    2.571    0.000    0.000 
#    0.000    0.000    0.000    0.000    0.000    0.000 
#
# Total GULP energy -624223.265015 kJ/mol
# GULP energy per Si atom -5573.422009 kJ/mol
# Density = 1.951668 g / cm^3
# Si number density = 19.561200 Si / 1000 Ang^3
#
#
#
# Elastic Constant Matrix: (Units=GPa)
#
#
# Indices 1 2 3 4 5 6 
#
# 1 94.4829 66.5941 38.2357 0.0000 0.0000 0.0000
# 2 66.5941 94.4816 38.2365 0.0000 0.0000 0.0000
# 3 38.2357 38.2365 95.9955 0.0000 0.0000 0.0000
# 4 0.0000 0.0000 0.0000 92.4587 0.0000 0.0000
# 5 0.0000 0.0000 0.0000 0.0000 92.4846 0.0000
# 6 0.0000 0.0000 0.0000 0.0000 0.0000 881.8723
#
#
#
# Elastic Compliance Matrix: (Units=1/GPa)
#
#
# Indices 1 2 3 4 5 6 
#
# 1 0.021756 -0.014101 -0.003049 0.000000 0.000000 0.000000
# 2 -0.014101 0.021757 -0.003050 0.000000 0.000000 0.000000
# 3 -0.003049 -0.003050 0.012846 0.000000 0.000000 0.000000
# 4 0.000000 0.000000 0.000000 0.010816 0.000000 0.000000
# 5 0.000000 0.000000 0.000000 0.000000 0.010813 0.000000
# 6 0.000000 0.000000 0.000000 0.000000 0.000000 0.001134
#
#
# Mechanical properties :
#
#
# Convention : Reuss Voigt Hill
#
# Bulk Modulus (GPa) = 62.65450 63.45471 63.05460
# Shear Modulus (GPa) = 40.05073 222.82270 131.43672
#
# Velocity S-wave (km/s) = 4.52979 10.68447 8.20600
# Velocity P-wave (km/s) = 7.71092 13.59117 11.04939
#
# Compressibility (1/GPa) = 0.01596055
#
# Stress axis : x y z
#
# Youngs Moduli (GPa) = 45.96334 45.96220 77.84262
#
# Poissons Ratio (x) = 0.64810 0.23736
# Poissons Ratio (y) = 0.64812 0.23740
# Poissons Ratio (z) = 0.14015 0.14017
#
# Static dielectric constant tensor:
#      x y z
#    x 1.810970 0.000000 0.000000 
#    y 0.000000 1.810910 0.000000 
#    z 0.000000 0.000000 1.680710 
# 
# From -- ./inp_files/8983.got.cif
#   From: 2010.05.17/outbox.cif.g08.bks.cpg/sg137_5_cif.got.tgz:8983.got - 2010.05.20 13:01:12.
