data_PCOD9570797
_publ_section_title
;
Structure prediction by ZEFSAII (Michael W. Deem and Ramdas Pophale) SiO2 
 PCOD9570797
Probable space group: P 42/N C M
;
_chemical_formula_sum "Si O2"
_cell_formula_units_Z 60
_cell_length_a 12.877096
_cell_length_b 12.877096
_cell_length_c 14.458137
_cell_angle_alpha 90.000000
_cell_angle_beta 90.000000
_cell_angle_gamma 90.000000
_cell_volume 2397.442514
_symmetry_space_group_name_H-M "P 42/N C M"
_symmetry_group_IT_number 138
_space_group.IT_coordinate_system_code '2'
_symmetry_cell_setting 'tetragonal'
loop_
_space_group_symop_operation_xyz
x,y,z
1/2-y,x,1/2+z
1/2-x,1/2-y,z
y,1/2-x,1/2+z
1/2+x,-y,1/2-z
-x,1/2+y,1/2-z
1/2+y,1/2+x,-z
-y,-x,-z
-x,-y,-z
1/2+y,-x,1/2-z
1/2+x,1/2+y,-z
-y,1/2+x,1/2-z
1/2-x,y,1/2+z
x,1/2-y,1/2+z
1/2-y,1/2-x,z
y,x,z
loop_
_atom_site_type_symbol
_atom_site_label
_atom_site_fract_x
_atom_site_fract_y
_atom_site_fract_z
Si Si1 0.696918 0.093545 0.727258
Si Si2 0.592020 0.592020 0.526160
Si Si3 0.495348 0.495348 0.709701
Si Si4 0.437496 0.772158 0.515180
Si Si5 0.750000 0.750000 0.444216
Si Si6 0.408729 0.091272 0.604088
O O1 0.628591 0.198819 0.721822
O O2 0.626778 0.015957 0.784919
O O3 0.722336 0.051177 0.626315
O O4 0.550887 0.550887 0.624461
O O5 0.490445 0.659798 0.489887
O O6 0.679500 0.679500 0.511595
O O7 0.542556 0.542556 0.804498
O O8 0.321507 0.821507 0.500000
O O9 0.506169 0.853467 0.459019
O O10 0.678378 0.821623 0.380310
#
# Coordination Sequence:
#
# PCOD9570797 Si02
#       6
#    16   8   8  16   4   8
#     4  11  24  42  65  99 139 187 245 302 381 463
#     4  10  22  38  66 103 143 185 249 318 369 477
#     4  12  21  41  70 100 138 184 253 310 379 471
#     4  11  20  40  68 101 142 193 244 312 388 466
#     4   8  20  38  56 104 152 176 246 312 380 466
#     4  10  20  35  69 104 135 192 242 304 398 465
#
# _framework density 25.026669999999999
#
# number of rings (size 3 to 8) (size 9 to 14) (size 15 to 20)
#    0.000    1.333    5.333    1.200    0.000    0.533 
#    0.000    5.333    0.000    1.600    0.000    0.000 
#    0.000    0.000    0.000    0.000    0.000    0.000 
#
# Total GULP energy -334890.976942 kJ/mol
# GULP energy per Si atom -5581.516282 kJ/mol
# Density = 2.496971 g / cm^3
# Si number density = 25.026670 Si / 1000 Ang^3
#
#
#
# Elastic Constant Matrix: (Units=GPa)
#
#
# Indices 1 2 3 4 5 6 
#
# 1 -56.7935 264.9899 26.2148 0.0000 0.0000 0.0000
# 2 264.9899 -56.7935 26.2148 0.0000 0.0000 0.0000
# 3 26.2148 26.2148 150.8074 0.0000 0.0000 0.0000
# 4 0.0000 0.0000 0.0000 29.8790 0.0000 0.0000
# 5 0.0000 0.0000 0.0000 0.0000 29.8790 0.0000
# 6 0.0000 0.0000 0.0000 0.0000 0.0000 80.2609
#
#
#
# Elastic Compliance Matrix: (Units=1/GPa)
#
#
# Indices 1 2 3 4 5 6 
#
# 1 0.000958 0.004065 -0.000873 0.000000 0.000000 0.000000
# 2 0.004065 0.000958 -0.000873 0.000000 0.000000 0.000000
# 3 -0.000873 -0.000873 0.006935 0.000000 0.000000 0.000000
# 4 0.000000 0.000000 0.000000 0.033468 0.000000 0.000000
# 5 0.000000 0.000000 0.000000 0.000000 0.033468 0.000000
# 6 0.000000 0.000000 0.000000 0.000000 0.000000 0.012459
#
#
# Mechanical properties :
#
#
# Convention : Reuss Voigt Hill
#
# Bulk Modulus (GPa) = 74.13995 74.67326 74.40661
# Shear Modulus (GPa) = 56.75127 9.32384 33.03756
#
# Velocity S-wave (km/s) = 4.76713 1.93227 3.63725
# Velocity P-wave (km/s) = 7.74528 5.90597 6.88730
#
# Compressibility (1/GPa) = 0.01348800
#
# Stress axis : x y z
#
# Youngs Moduli (GPa) = 1044.19011 1044.19011 144.20577
#
# Poissons Ratio (x) = -4.24501 0.12591
# Poissons Ratio (y) = -4.24501 0.12591
# Poissons Ratio (z) = 0.91174 0.91174
#
# Static dielectric constant tensor:
#      x y z
#    x 2.011030 0.000000 0.000000 
#    y 0.000000 2.011030 0.000000 
#    z 0.000000 0.000000 1.899720 
# 
# From -- ./inp_files/3957.got.cif
#   From: 2010.05.17/outbox.cif.g08.bks.cpg/sg138_2_cif.got.tgz:3957.got - 2010.05.20 13:08:53.
