data_PCOD9570995
_publ_section_title
;
Structure prediction by ZEFSAII (Michael W. Deem and Ramdas Pophale) SiO2 
 PCOD9570995
Probable space group: P 42/N C M
;
_chemical_formula_sum "Si O2"
_cell_formula_units_Z 96
_cell_length_a 15.189504
_cell_length_b 15.189504
_cell_length_c 20.555707
_cell_angle_alpha 90.000000
_cell_angle_beta 90.000000
_cell_angle_gamma 90.000000
_cell_volume 4742.633928
_symmetry_space_group_name_H-M "P 42/N C M"
_symmetry_group_IT_number 138
_space_group.IT_coordinate_system_code '2'
_symmetry_cell_setting 'tetragonal'
loop_
_space_group_symop_operation_xyz
x,y,z
1/2-y,x,1/2+z
1/2-x,1/2-y,z
y,1/2-x,1/2+z
1/2+x,-y,1/2-z
-x,1/2+y,1/2-z
1/2+y,1/2+x,-z
-y,-x,-z
-x,-y,-z
1/2+y,-x,1/2-z
1/2+x,1/2+y,-z
-y,1/2+x,1/2-z
1/2-x,y,1/2+z
x,1/2-y,1/2+z
1/2-y,1/2-x,z
y,x,z
loop_
_atom_site_type_symbol
_atom_site_label
_atom_site_fract_x
_atom_site_fract_y
_atom_site_fract_z
Si Si1 0.920113 0.436099 0.209545
Si Si2 0.750551 0.014006 0.786234
Si Si3 0.976846 0.122916 0.094078
Si Si4 0.678775 0.821226 0.771467
Si Si5 0.974026 0.110521 0.436623
Si Si6 0.689422 0.010297 0.552581
Si Si7 0.178421 0.321579 0.384707
O O1 0.828206 0.478267 0.233037
O O2 0.922733 0.434664 0.131383
O O3 0.000873 0.499128 0.232140
O O4 0.928604 0.335114 0.231929
O O5 0.710490 0.916609 0.793476
O O6 0.800730 0.035852 0.853257
O O7 0.887334 0.066964 0.086067
O O8 0.998580 0.161403 0.022787
O O9 0.055634 0.055634 0.112969
O O10 0.750000 0.750000 0.793230
O O11 0.676726 0.823275 0.693151
O O12 0.933417 0.066584 0.500000
O O13 0.952812 0.212962 0.442278
O O14 0.076153 0.076153 0.434584
O O15 0.698118 0.917230 0.587619
O O16 0.250000 0.250000 0.405546
#
# Coordination Sequence:
#
# PCOD9570995 Si02
#       7
#    16  16  16   8  16  16   8
#     4  11  25  46  68 102 137 182 231 279 351 407
#     4  12  26  44  71  99 139 185 228 287 343 419
#     4  11  23  42  65  97 138 181 224 279 352 412
#     4  11  24  44  67 103 134 178 231 287 354 410
#     4  10  22  42  68  95 133 176 223 286 343 407
#     4  11  21  41  65  97 132 178 225 281 346 410
#     4  11  22  37  67  99 129 167 223 287 340 414
#
# _framework density 20.241917000000001
#
# number of rings (size 3 to 8) (size 9 to 14) (size 15 to 20)
#    0.000    1.000    2.500    4.500    4.667    3.000 
#    3.000    5.000    0.000    0.000    0.000    0.000 
#    0.000    0.000    0.000    0.000    0.000    0.000 
#
# Total GULP energy -536360.799487 kJ/mol
# GULP energy per Si atom -5587.091661 kJ/mol
# Density = 2.019585 g / cm^3
# Si number density = 20.241917 Si / 1000 Ang^3
#
#
#
# Elastic Constant Matrix: (Units=GPa)
#
#
# Indices 1 2 3 4 5 6 
#
# 1 106.2920 15.6790 13.9802 0.0000 0.0000 0.0000
# 2 15.6790 106.2919 13.9802 0.0000 0.0000 0.0000
# 3 13.9802 13.9802 71.0304 0.0000 0.0000 0.0000
# 4 0.0000 0.0000 0.0000 29.1866 0.0000 0.0000
# 5 0.0000 0.0000 0.0000 0.0000 29.1867 0.0000
# 6 0.0000 0.0000 0.0000 0.0000 0.0000 31.0761
#
#
#
# Elastic Compliance Matrix: (Units=1/GPa)
#
#
# Indices 1 2 3 4 5 6 
#
# 1 0.009811 -0.001225 -0.001690 0.000000 0.000000 0.000000
# 2 -0.001225 0.009811 -0.001690 0.000000 0.000000 0.000000
# 3 -0.001690 -0.001690 0.014744 0.000000 0.000000 0.000000
# 4 0.000000 0.000000 0.000000 0.034262 0.000000 0.000000
# 5 0.000000 0.000000 0.000000 0.000000 0.034262 0.000000
# 6 0.000000 0.000000 0.000000 0.000000 0.000000 0.032179
#
#
# Mechanical properties :
#
#
# Convention : Reuss Voigt Hill
#
# Bulk Modulus (GPa) = 39.75165 41.21035 40.48100
# Shear Modulus (GPa) = 32.75163 33.88821 33.31992
#
# Velocity S-wave (km/s) = 4.02681 4.09609 4.06160
# Velocity P-wave (km/s) = 6.42660 6.54016 6.48363
#
# Compressibility (1/GPa) = 0.02515619
#
# Stress axis : x y z
#
# Youngs Moduli (GPa) = 101.92638 101.92626 67.82556
#
# Poissons Ratio (x) = 0.12485 0.11462
# Poissons Ratio (y) = 0.12485 0.11462
# Poissons Ratio (z) = 0.17225 0.17225
#
# Static dielectric constant tensor:
#      x y z
#    x 1.795470 0.000000 0.000000 
#    y 0.000000 1.795470 0.000000 
#    z 0.000000 0.000000 1.711350 
# 
# From -- ./inp_files/6313.got.cif
#   From: 2010.05.17/outbox.cif.g08.bks.cpg/sg138_4_cif.got.tgz:6313.got - 2010.05.20 13:08:53.
