data_PCOD9570154
_publ_section_title
;
Structure prediction by ZEFSAII (Michael W. Deem and Ramdas Pophale) SiO2 
 PCOD9570154
Probable space group: P 42/N M C
;
_chemical_formula_sum "Si O2"
_cell_formula_units_Z 60
_cell_length_a 11.019570
_cell_length_b 11.019570
_cell_length_c 21.270246
_cell_angle_alpha 90.000000
_cell_angle_beta 90.000000
_cell_angle_gamma 90.000000
_cell_volume 2582.865604
_symmetry_space_group_name_H-M "P 42/N M C"
_symmetry_group_IT_number 137
_space_group.IT_coordinate_system_code '2'
_symmetry_cell_setting 'tetragonal'
loop_
_space_group_symop_operation_xyz
x,y,z
1/2-y,x,1/2+z
1/2-x,1/2-y,z
y,1/2-x,1/2+z
1/2+x,-y,-z
-x,1/2+y,-z
1/2+y,1/2+x,1/2-z
-y,-x,1/2-z
-x,-y,-z
1/2+y,-x,1/2-z
1/2+x,1/2+y,-z
-y,1/2+x,1/2-z
1/2-x,y,z
x,1/2-y,z
1/2-y,1/2-x,1/2+z
y,x,1/2+z
loop_
_atom_site_type_symbol
_atom_site_label
_atom_site_fract_x
_atom_site_fract_y
_atom_site_fract_z
Si Si1 0.250000 0.464097 0.408739
Si Si2 0.026284 0.506340 0.884044
Si Si3 0.750000 0.750000 0.955086
Si Si4 0.750000 0.976558 0.865836
Si Si5 0.606383 0.393618 0.250000
Si Si6 0.976248 0.250000 0.033517
Si Si7 0.750000 0.049875 0.735557
O O1 0.386807 0.407645 0.409944
O O2 0.250000 0.571060 0.462405
O O3 0.250000 0.504519 0.334767
O O4 0.065406 0.539555 0.813406
O O5 0.046608 0.627711 0.926564
O O6 0.882681 0.471338 0.882246
O O7 0.750000 0.860496 0.908280
O O8 0.619485 0.750000 0.986711
O O9 0.750000 0.951160 0.791056
O O10 0.750000 0.413988 0.259235
O O11 0.635707 0.135707 0.750000
#
# Coordination Sequence:
#
# PCOD9570154 Si02
#       7
#     8  16   4   8   8   8   8
#     4  12  23  38  67  98 137 175 225 293 331 418
#     4  11  22  42  67 101 131 181 225 279 345 405
#     4   8  20  38  64  82 126 184 212 262 342 414
#     4  10  19  38  62  93 132 169 214 271 338 398
#     4  11  24  46  74  93 134 184 230 283 338 410
#     4  10  22  43  64  90 139 180 226 272 350 415
#     4  11  20  34  57  89 130 161 209 278 338 382
#
# _framework density 23.230014000000001
#
# number of rings (size 3 to 8) (size 9 to 14) (size 15 to 20)
#    0.000    1.333    4.000    2.400    0.000    0.533 
#    2.400    0.667   11.733    0.000    0.000    0.000 
#    0.000    0.000    0.000    0.000    0.000    0.000 
#
# Total GULP energy -334290.571917 kJ/mol
# GULP energy per Si atom -5571.509532 kJ/mol
# Density = 2.317714 g / cm^3
# Si number density = 23.230014 Si / 1000 Ang^3
#
#
#
# Elastic Constant Matrix: (Units=GPa)
#
#
# Indices 1 2 3 4 5 6 
#
# 1 101.0692 42.4411 35.2787 0.0000 0.0000 0.0000
# 2 42.4411 101.0683 35.2787 0.0000 0.0000 0.0000
# 3 35.2787 35.2787 150.7728 0.0000 0.0000 0.0000
# 4 0.0000 0.0000 0.0000 4.0531 0.0000 0.0000
# 5 0.0000 0.0000 0.0000 0.0000 4.0525 0.0000
# 6 0.0000 0.0000 0.0000 0.0000 0.0000 5.6497
#
#
#
# Elastic Compliance Matrix: (Units=1/GPa)
#
#
# Indices 1 2 3 4 5 6 
#
# 1 0.012465 -0.004591 -0.001842 0.000000 0.000000 0.000000
# 2 -0.004591 0.012465 -0.001842 0.000000 0.000000 0.000000
# 3 -0.001842 -0.001842 0.007495 0.000000 0.000000 0.000000
# 4 0.000000 0.000000 0.000000 0.246724 0.000000 0.000000
# 5 0.000000 0.000000 0.000000 0.000000 0.246760 0.000000
# 6 0.000000 0.000000 0.000000 0.000000 0.000000 0.177002
#
#
# Mechanical properties :
#
#
# Convention : Reuss Voigt Hill
#
# Bulk Modulus (GPa) = 62.99983 64.32303 63.66143
# Shear Modulus (GPa) = 6.89888 18.74517 12.82203
#
# Velocity S-wave (km/s) = 1.72518 2.84375 2.35193
# Velocity P-wave (km/s) = 5.58097 6.20744 5.90252
#
# Compressibility (1/GPa) = 0.01587306
#
# Stress axis : x y z
#
# Youngs Moduli (GPa) = 80.22247 80.22170 133.42780
#
# Poissons Ratio (x) = 0.36833 0.24583
# Poissons Ratio (y) = 0.36833 0.24583
# Poissons Ratio (z) = 0.14780 0.14780
#
# Static dielectric constant tensor:
#      x y z
#    x 2.095950 0.000000 0.000000 
#    y 0.000000 2.095960 0.000000 
#    z 0.000000 0.000000 1.947910 
# 
# From -- ./inp_files/7425.got.cif
#   From: 2010.05.17/outbox.cif.g08.bks.cpg/sg137_4_cif.got.tgz:7425.got - 2010.05.20 13:01:12.
