data_PCOD9570854
_publ_section_title
;
Structure prediction by ZEFSAII (Michael W. Deem and Ramdas Pophale) SiO2 
 PCOD9570854
Probable space group: P 42/N C M
;
_chemical_formula_sum "Si O2"
_cell_formula_units_Z 80
_cell_length_a 10.822919
_cell_length_b 10.822919
_cell_length_c 32.857603
_cell_angle_alpha 90.000000
_cell_angle_beta 90.000000
_cell_angle_gamma 90.000000
_cell_volume 3848.794243
_symmetry_space_group_name_H-M "P 42/N C M"
_symmetry_group_IT_number 138
_space_group.IT_coordinate_system_code '2'
_symmetry_cell_setting 'tetragonal'
loop_
_space_group_symop_operation_xyz
x,y,z
1/2-y,x,1/2+z
1/2-x,1/2-y,z
y,1/2-x,1/2+z
1/2+x,-y,1/2-z
-x,1/2+y,1/2-z
1/2+y,1/2+x,-z
-y,-x,-z
-x,-y,-z
1/2+y,-x,1/2-z
1/2+x,1/2+y,-z
-y,1/2+x,1/2-z
1/2-x,y,1/2+z
x,1/2-y,1/2+z
1/2-y,1/2-x,z
y,x,z
loop_
_atom_site_type_symbol
_atom_site_label
_atom_site_fract_x
_atom_site_fract_y
_atom_site_fract_z
Si Si1 0.496784 0.700048 0.500220
Si Si2 0.362459 0.648931 0.355949
Si Si3 0.476722 0.286830 0.907845
Si Si4 0.905946 0.383960 0.237217
Si Si5 0.182859 0.502695 0.584390
O O1 0.363311 0.636690 0.500000
O O2 0.596139 0.596139 0.488382
O O3 0.527092 0.742174 0.545574
O O4 0.498865 0.796442 0.463917
O O5 0.250000 0.750000 0.352427
O O6 0.310987 0.524508 0.375792
O O7 0.415070 0.629023 0.311455
O O8 0.457503 0.701099 0.389265
O O9 0.349238 0.349238 0.896663
O O10 0.580947 0.392940 0.907599
O O11 0.920497 0.240131 0.253578
O O12 0.010742 0.489259 0.250182
O O13 0.127446 0.372555 0.597352
#
# Coordination Sequence:
#
# PCOD9570854 Si02
#       5
#    16  16  16  16  16
#     4  11  22  35  52  77 119 170 213 258 315 375
#     4  10  20  40  64  94 124 165 210 268 333 397
#     4  10  21  36  59  88 118 160 214 264 315 379
#     4  11  25  48  76 106 142 181 224 282 351 427
#     4  10  21  36  59  88 118 160 214 264 315 379
#
# _framework density 20.785729
#
# number of rings (size 3 to 8) (size 9 to 14) (size 15 to 20)
#    0.000    1.600    4.000    1.200    0.000    7.600 
#    0.000    0.000    0.000    0.000    0.000    0.000 
#    0.000    0.000    0.000    0.000    0.000    0.000 
#
# Total GULP energy -446316.443147 kJ/mol
# GULP energy per Si atom -5578.955539 kJ/mol
# Density = 2.073842 g / cm^3
# Si number density = 20.785729 Si / 1000 Ang^3
#
#
#
# Elastic Constant Matrix: (Units=GPa)
#
#
# Indices 1 2 3 4 5 6 
#
# 1 59.8913 78.2764 9.0617 0.0000 0.0000 0.0000
# 2 78.2764 59.8891 9.0602 0.0000 0.0000 0.0000
# 3 9.0617 9.0602 78.2266 0.0000 0.0000 0.0000
# 4 0.0000 0.0000 0.0000 11.8741 0.0000 0.0000
# 5 0.0000 0.0000 0.0000 0.0000 11.8736 0.0000
# 6 0.0000 0.0000 0.0000 0.0000 0.0000 38.4427
#
#
#
# Elastic Compliance Matrix: (Units=1/GPa)
#
#
# Indices 1 2 3 4 5 6 
#
# 1 -0.023519 0.030869 -0.000851 0.000000 0.000000 0.000000
# 2 0.030869 -0.023520 -0.000852 0.000000 0.000000 0.000000
# 3 -0.000851 -0.000852 0.012981 0.000000 0.000000 0.000000
# 4 0.000000 0.000000 0.000000 0.084217 0.000000 0.000000
# 5 0.000000 0.000000 0.000000 0.000000 0.084221 0.000000
# 6 0.000000 0.000000 0.000000 0.000000 0.000000 0.026013
#
#
# Mechanical properties :
#
#
# Convention : Reuss Voigt Hill
#
# Bulk Modulus (GPa) = 41.19617 43.42261 42.30939
# Shear Modulus (GPa) = 45.39265 19.21199 32.30232
#
# Velocity S-wave (km/s) = 4.67822 3.04351 3.94644
# Velocity P-wave (km/s) = 7.00311 5.76945 6.41600
#
# Compressibility (1/GPa) = 0.02427410
#
# Stress axis : x y z
#
# Youngs Moduli (GPa) = -42.51833 -42.51699 77.03819
#
# Poissons Ratio (x) = 1.31245 0.06554
# Poissons Ratio (y) = 1.31250 0.06562
# Poissons Ratio (z) = -0.03617 -0.03621
#
# Static dielectric constant tensor:
#      x y z
#    x 1.814990 0.000000 0.000000 
#    y 0.000000 1.815000 0.000000 
#    z 0.000000 0.000000 1.692050 
# 
# From -- ./inp_files/7852.got.cif
#   From: 2010.05.17/outbox.cif.g08.bks.cpg/sg138_4_cif.got.tgz:7852.got - 2010.05.20 13:08:53.
