data_PCOD9570533
_publ_section_title
;
Structure prediction by ZEFSAII (Michael W. Deem and Ramdas Pophale) SiO2 
 PCOD9570533
Probable space group: P 42/N M C
;
_chemical_formula_sum "Si O2"
_cell_formula_units_Z 72
_cell_length_a 13.573183
_cell_length_b 13.573183
_cell_length_c 15.779021
_cell_angle_alpha 90.000000
_cell_angle_beta 90.000000
_cell_angle_gamma 90.000000
_cell_volume 2906.989500
_symmetry_space_group_name_H-M "P 42/N M C"
_symmetry_group_IT_number 137
_space_group.IT_coordinate_system_code '2'
_symmetry_cell_setting 'tetragonal'
loop_
_space_group_symop_operation_xyz
x,y,z
1/2-y,x,1/2+z
1/2-x,1/2-y,z
y,1/2-x,1/2+z
1/2+x,-y,-z
-x,1/2+y,-z
1/2+y,1/2+x,1/2-z
-y,-x,1/2-z
-x,-y,-z
1/2+y,-x,1/2-z
1/2+x,1/2+y,-z
-y,1/2+x,1/2-z
1/2-x,y,z
x,1/2-y,z
1/2-y,1/2-x,1/2+z
y,x,1/2+z
loop_
_atom_site_type_symbol
_atom_site_label
_atom_site_fract_x
_atom_site_fract_y
_atom_site_fract_z
Si Si1 0.854464 0.368897 0.609800
Si Si2 0.365005 0.068174 0.183067
Si Si3 0.069262 0.632208 0.569116
Si Si4 0.141882 0.131459 0.492961
Si Si5 0.566515 0.433486 0.250000
O O1 0.750000 0.403834 0.646287
O O2 0.850431 0.250000 0.607904
O O3 0.868553 0.401560 0.512314
O O4 0.954108 0.387454 0.660097
O O5 0.250000 0.081290 0.206344
O O6 0.382022 0.124621 0.093898
O O7 0.449919 0.093799 0.249084
O O8 0.067561 0.750000 0.564429
O O9 0.107382 0.603748 0.660999
O O10 0.956980 0.596059 0.553756
O O11 0.250000 0.096223 0.466425
O O12 0.142096 0.250000 0.481136
#
# Coordination Sequence:
#
# PCOD9570533 Si02
#       5
#    16  16  16  16   8
#     4   8  15  33  59  78  95 128 174 218 253 288
#     4   9  20  36  51  74 106 133 166 212 252 295
#     4   9  20  36  51  74 106 133 166 212 252 295
#     4   8  15  33  59  78  95 128 174 218 253 288
#     4  12  24  34  48  76 112 142 164 196 252 314
#
# _framework density 24.767889
#
# number of rings (size 3 to 8) (size 9 to 14) (size 15 to 20)
#    0.000    3.111    0.000    2.667    0.000    7.111 
#    0.000    2.222    0.000    0.000    0.000    0.000 
#    0.000    0.000    0.000    0.000    0.000    0.000 
#
# Total GULP energy -402365.887127 kJ/mol
# GULP energy per Si atom -5588.415099 kJ/mol
# Density = 2.471152 g / cm^3
# Si number density = 24.767889 Si / 1000 Ang^3
#
#
#
# Elastic Constant Matrix: (Units=GPa)
#
#
# Indices 1 2 3 4 5 6 
#
# 1 64.9361 4.1296 -6.6866 0.0000 0.0000 0.0000
# 2 4.1296 64.9370 -6.6865 0.0000 0.0000 0.0000
# 3 -6.6866 -6.6865 59.6593 0.0000 0.0000 0.0000
# 4 0.0000 0.0000 0.0000 3.6476 0.0000 0.0000
# 5 0.0000 0.0000 0.0000 0.0000 3.6469 0.0000
# 6 0.0000 0.0000 0.0000 0.0000 0.0000 14.7408
#
#
#
# Elastic Compliance Matrix: (Units=1/GPa)
#
#
# Indices 1 2 3 4 5 6 
#
# 1 0.015623 -0.000823 0.001659 0.000000 0.000000 0.000000
# 2 -0.000823 0.015623 0.001659 0.000000 0.000000 0.000000
# 3 0.001659 0.001659 0.017134 0.000000 0.000000 0.000000
# 4 0.000000 0.000000 0.000000 0.274155 0.000000 0.000000
# 5 0.000000 0.000000 0.000000 0.000000 0.274208 0.000000
# 6 0.000000 0.000000 0.000000 0.000000 0.000000 0.067839
#
#
# Mechanical properties :
#
#
# Convention : Reuss Voigt Hill
#
# Bulk Modulus (GPa) = 18.73751 19.00504 18.87128
# Shear Modulus (GPa) = 7.38137 17.65876 12.52007
#
# Velocity S-wave (km/s) = 1.72820 2.67305 2.25076
# Velocity P-wave (km/s) = 3.40058 4.14932 3.79346
#
# Compressibility (1/GPa) = 0.05336889
#
# Stress axis : x y z
#
# Youngs Moduli (GPa) = 64.00868 64.00954 58.36457
#
# Poissons Ratio (x) = 0.05266 -0.09682
# Poissons Ratio (y) = 0.05266 -0.09681
# Poissons Ratio (z) = -0.10618 -0.10618
#
# Static dielectric constant tensor:
#      x y z
#    x 2.007840 0.000000 0.000000 
#    y 0.000000 2.007840 0.000000 
#    z 0.000000 0.000000 1.919570 
# 
# From -- ./inp_files/6182.got.cif
#   From: 2010.05.17/outbox.cif.g08.bks.cpg/sg137_4_cif.got.tgz:6182.got - 2010.05.20 13:01:12.
