data_PCOD9570544
_publ_section_title
;
Structure prediction by ZEFSAII (Michael W. Deem and Ramdas Pophale) SiO2 
 PCOD9570544
Probable space group: P 42/N M C
;
_chemical_formula_sum "Si O2"
_cell_formula_units_Z 112
_cell_length_a 15.000000
_cell_length_b 15.000000
_cell_length_c 24.000000
_cell_angle_alpha 90.000000
_cell_angle_beta 90.000000
_cell_angle_gamma 90.000000
_cell_volume 5400.000000
_symmetry_space_group_name_H-M "P 42/N M C"
_symmetry_group_IT_number 137
_space_group.IT_coordinate_system_code '2'
_symmetry_cell_setting 'tetragonal'
loop_
_space_group_symop_operation_xyz
x,y,z
1/2-y,x,1/2+z
1/2-x,1/2-y,z
y,1/2-x,1/2+z
1/2+x,-y,-z
-x,1/2+y,-z
1/2+y,1/2+x,1/2-z
-y,-x,1/2-z
-x,-y,-z
1/2+y,-x,1/2-z
1/2+x,1/2+y,-z
-y,1/2+x,1/2-z
1/2-x,y,z
x,1/2-y,z
1/2-y,1/2-x,1/2+z
y,x,1/2+z
loop_
_atom_site_type_symbol
_atom_site_label
_atom_site_fract_x
_atom_site_fract_y
_atom_site_fract_z
Si Si1 0.979355 0.645065 0.476749
Si Si2 0.148869 0.977790 0.785154
Si Si3 0.045729 0.646441 0.589403
Si Si4 0.384553 0.348261 0.195751
Si Si5 0.345818 0.016674 0.584247
Si Si6 0.052347 0.850795 0.297802
Si Si7 0.142336 0.650804 0.088048
O O1 0.965153 0.750000 0.463935
O O2 0.915788 0.582216 0.442867
O O3 0.972186 0.630115 0.542432
O O4 0.079767 0.620080 0.459194
O O5 0.084252 0.915749 0.750000
O O6 0.250000 0.941611 0.782434
O O7 0.123240 0.985671 0.849122
O O8 0.150258 0.073575 0.756672
O O9 0.068882 0.750000 0.585958
O O10 0.129235 0.584933 0.577116
O O11 0.341067 0.250000 0.188164
O O12 0.462456 0.346066 0.149867
O O13 0.344769 0.446769 0.189277
O O14 0.250000 0.038223 0.560645
O O15 0.079832 0.920169 0.250000
O O16 0.081647 0.750000 0.281921
O O17 0.104723 0.879487 0.353205
O O18 0.250000 0.657035 0.087380
O O19 0.105390 0.750000 0.082111
#
# Coordination Sequence:
#
# PCOD9570544 Si02
#       7
#    16  16  16  16  16  16  16
#     4  10  21  39  60  88 122 162 207 249 301 361
#     4  10  19  34  55  82 115 156 201 248 301 356
#     4  10  22  38  60  86 118 161 205 250 304 364
#     4  10  21  36  58  86 119 157 201 249 305 367
#     4  11  22  37  60  92 124 158 203 254 303 361
#     4  11  22  36  57  87 121 159 203 253 307 366
#     4   9  18  34  55  81 117 158 199 247 302 359
#
# _framework density 20.740741
#
# number of rings (size 3 to 8) (size 9 to 14) (size 15 to 20)
#    0.000    1.857    2.857    1.286    0.000    2.286 
#    0.000    4.286    0.000    0.857    0.000    4.000 
#    0.000    0.000    0.000    0.000    0.000    0.000 
#
# Total GULP energy -623808.672562 kJ/mol
# GULP energy per Si atom -5569.720291 kJ/mol
# Density = 2.069353 g / cm^3
# Si number density = 20.740741 Si / 1000 Ang^3
#
#
#
# Elastic Constant Matrix: (Units=GPa)
#
#
# Indices 1 2 3 4 5 6 
#
# 1 55.1470 -10.9204 33.3208 0.0000 0.0000 0.0000
# 2 -10.9204 55.1410 33.3187 0.0000 0.0000 0.0000
# 3 33.3208 33.3187 112.7548 0.0000 0.0000 0.0000
# 4 0.0000 0.0000 0.0000 44.0397 0.0000 0.0000
# 5 0.0000 0.0000 0.0000 0.0000 44.0420 0.0000
# 6 0.0000 0.0000 0.0000 0.0000 0.0000 -8.7448
#
#
#
# Elastic Compliance Matrix: (Units=1/GPa)
#
#
# Indices 1 2 3 4 5 6 
#
# 1 0.027949 0.012814 -0.012046 0.000000 0.000000 0.000000
# 2 0.012814 0.027952 -0.012046 0.000000 0.000000 0.000000
# 3 -0.012046 -0.012046 0.015988 0.000000 0.000000 0.000000
# 4 0.000000 0.000000 0.000000 0.022707 0.000000 0.000000
# 5 0.000000 0.000000 0.000000 0.000000 0.022706 0.000000
# 6 0.000000 0.000000 0.000000 0.000000 0.000000 -0.114354
#
#
# Mechanical properties :
#
#
# Convention : Reuss Voigt Hill
#
# Bulk Modulus (GPa) = 20.27058 37.16455 28.71756
# Shear Modulus (GPa) = 119.19251 27.02230 73.10741
#
# Velocity S-wave (km/s) = 7.58898 3.61343 5.94346
# Velocity P-wave (km/s) = 9.30509 5.94699 7.80869
#
# Compressibility (1/GPa) = 0.04933258
#
# Stress axis : x y z
#
# Youngs Moduli (GPa) = 35.77922 35.77551 62.54592
#
# Poissons Ratio (x) = -0.45842 0.75342
# Poissons Ratio (y) = -0.45847 0.75346
# Poissons Ratio (z) = 0.43099 0.43097
#
# Static dielectric constant tensor:
#      x y z
#    x 1.902550 0.000000 0.000000 
#    y 0.000000 1.902580 0.000000 
#    z 0.000000 0.000000 1.783400 
# 
# From -- ./inp_files/8989.got.cif
#   From: 2010.05.17/outbox.ucp.g08.bks.cvg/sg137_5_cif.got.tgz:8989.got - 2010.06.11 11:41:14.
