data_PCOD9570751
_publ_section_title
;
Structure prediction by ZEFSAII (Michael W. Deem and Ramdas Pophale) SiO2 
 PCOD9570751
Probable space group: P 42/N C M
;
_chemical_formula_sum "Si O2"
_cell_formula_units_Z 112
_cell_length_a 13.738446
_cell_length_b 13.738446
_cell_length_c 35.685211
_cell_angle_alpha 90.000000
_cell_angle_beta 90.000000
_cell_angle_gamma 90.000000
_cell_volume 6735.401528
_symmetry_space_group_name_H-M "P 42/N C M"
_symmetry_group_IT_number 138
_space_group.IT_coordinate_system_code '2'
_symmetry_cell_setting 'tetragonal'
loop_
_space_group_symop_operation_xyz
x,y,z
1/2-y,x,1/2+z
1/2-x,1/2-y,z
y,1/2-x,1/2+z
1/2+x,-y,1/2-z
-x,1/2+y,1/2-z
1/2+y,1/2+x,-z
-y,-x,-z
-x,-y,-z
1/2+y,-x,1/2-z
1/2+x,1/2+y,-z
-y,1/2+x,1/2-z
1/2-x,y,1/2+z
x,1/2-y,1/2+z
1/2-y,1/2-x,z
y,x,z
loop_
_atom_site_type_symbol
_atom_site_label
_atom_site_fract_x
_atom_site_fract_y
_atom_site_fract_z
Si Si1 0.586528 0.753959 0.017237
Si Si2 0.256048 0.411175 0.335095
Si Si3 0.509039 0.677164 0.090906
Si Si4 0.850910 0.015655 0.789524
Si Si5 0.863152 0.469481 0.376926
Si Si6 0.004018 0.167885 0.762020
Si Si7 0.412710 0.255044 0.567394
O O1 0.646871 0.853130 0.024181
O O2 0.668728 0.668728 0.017503
O O3 0.546247 0.756212 0.974967
O O4 0.513674 0.728711 0.050722
O O5 0.173344 0.326657 0.335697
O O6 0.357879 0.357879 0.328633
O O7 0.248760 0.461579 0.375363
O O8 0.225687 0.479770 0.301012
O O9 0.592840 0.592840 0.090106
O O10 0.410591 0.623227 0.102787
O O11 0.842227 0.045252 0.833149
O O12 0.911102 0.098712 0.767602
O O13 0.746764 0.001726 0.770601
O O14 0.917788 0.917788 0.787790
O O15 0.774099 0.511039 0.400981
O O16 0.947549 0.552452 0.377710
O O17 0.096383 0.096383 0.756955
O O18 0.329524 0.170477 0.567659
O O19 0.354962 0.354962 0.574202
#
# Coordination Sequence:
#
# PCOD9570751 Si02
#       7
#    16  16  16  16  16  16  16
#     4   8  13  20  30  48  76 111 153 196 233 279
#     4   9  15  24  40  61  84 112 148 190 236 283
#     4   9  14  21  34  53  79 111 148 191 239 285
#     4  10  20  34  50  69  95 123 159 207 249 294
#     4   9  16  26  39  55  80 114 151 198 246 284
#     4  10  20  34  50  70  94 122 157 199 245 297
#     4   8  14  23  33  48  75 113 157 199 236 279
#
# _framework density 16.628556
#
# number of rings (size 3 to 8) (size 9 to 14) (size 15 to 20)
#    0.000    3.000    1.429    1.714    0.000    4.000 
#    0.000    4.286    0.000    0.000    0.000    0.000 
#    0.000    0.000    0.000    1.286    3.714   15.714 
#
# Total GULP energy -623516.719509 kJ/mol
# GULP energy per Si atom -5567.113567 kJ/mol
# Density = 1.659071 g / cm^3
# Si number density = 16.628556 Si / 1000 Ang^3
#
#
#
# Elastic Constant Matrix: (Units=GPa)
#
#
# Indices 1 2 3 4 5 6 
#
# 1 48.0086 28.1250 44.4035 0.0000 0.0000 0.0000
# 2 28.1250 48.0086 44.4035 0.0000 0.0000 0.0000
# 3 44.4035 44.4035 106.4733 0.0000 0.0000 0.0000
# 4 0.0000 0.0000 0.0000 4.9834 0.0000 0.0000
# 5 0.0000 0.0000 0.0000 0.0000 4.9834 0.0000
# 6 0.0000 0.0000 0.0000 0.0000 0.0000 11.1408
#
#
#
# Elastic Compliance Matrix: (Units=1/GPa)
#
#
# Indices 1 2 3 4 5 6 
#
# 1 0.037935 -0.012358 -0.010667 0.000000 0.000000 0.000000
# 2 -0.012358 0.037935 -0.010667 0.000000 0.000000 0.000000
# 3 -0.010667 -0.010667 0.018289 0.000000 0.000000 0.000000
# 4 0.000000 0.000000 0.000000 0.200665 0.000000 0.000000
# 5 0.000000 0.000000 0.000000 0.000000 0.200665 0.000000
# 6 0.000000 0.000000 0.000000 0.000000 0.000000 0.089760
#
#
# Mechanical properties :
#
#
# Convention : Reuss Voigt Hill
#
# Bulk Modulus (GPa) = 37.34633 48.48383 42.91508
# Shear Modulus (GPa) = 7.55794 9.92543 8.74168
#
# Velocity S-wave (km/s) = 2.13425 2.44579 2.29531
# Velocity P-wave (km/s) = 5.34615 6.09886 5.73487
#
# Compressibility (1/GPa) = 0.02677639
#
# Stress axis : x y z
#
# Youngs Moduli (GPa) = 26.36094 26.36094 54.67828
#
# Poissons Ratio (x) = 0.32577 0.58323
# Poissons Ratio (y) = 0.32577 0.58323
# Poissons Ratio (z) = 0.28118 0.28118
#
# Static dielectric constant tensor:
#      x y z
#    x 1.556600 0.000000 0.000000 
#    y 0.000000 1.556600 0.000000 
#    z 0.000000 0.000000 1.562890 
# 
# From -- ./inp_files/8276.got.cif
#   From: 2010.05.17/outbox.cif.g08.bks.cpg/sg138_5_cif.got.tgz:8276.got - 2010.05.20 13:08:53.
