data_PCOD9570573
_publ_section_title
;
Structure prediction by ZEFSAII (Michael W. Deem and Ramdas Pophale) SiO2 
 PCOD9570573
Probable space group: P 42/N C M
;
_chemical_formula_sum "Si O2"
_cell_formula_units_Z 96
_cell_length_a 19.718439
_cell_length_b 19.718439
_cell_length_c 12.645686
_cell_angle_alpha 90.000000
_cell_angle_beta 90.000000
_cell_angle_gamma 90.000000
_cell_volume 4916.855627
_symmetry_space_group_name_H-M "P 42/N C M"
_symmetry_group_IT_number 138
_space_group.IT_coordinate_system_code '2'
_symmetry_cell_setting 'tetragonal'
loop_
_space_group_symop_operation_xyz
x,y,z
1/2-y,x,1/2+z
1/2-x,1/2-y,z
y,1/2-x,1/2+z
1/2+x,-y,1/2-z
-x,1/2+y,1/2-z
1/2+y,1/2+x,-z
-y,-x,-z
-x,-y,-z
1/2+y,-x,1/2-z
1/2+x,1/2+y,-z
-y,1/2+x,1/2-z
1/2-x,y,1/2+z
x,1/2-y,1/2+z
1/2-y,1/2-x,z
y,x,z
loop_
_atom_site_type_symbol
_atom_site_label
_atom_site_fract_x
_atom_site_fract_y
_atom_site_fract_z
Si Si1 0.524775 0.632946 0.439139
Si Si2 0.831525 0.125051 0.389447
Si Si3 0.745875 0.968734 0.603650
Si Si4 0.925320 0.204407 0.230331
Si Si5 0.118098 0.225379 0.704187
Si Si6 0.847024 0.955410 0.907069
O O1 0.562433 0.562433 0.458715
O O2 0.446371 0.630504 0.409712
O O3 0.532299 0.683790 0.538620
O O4 0.564850 0.671328 0.345114
O O5 0.835229 0.164772 0.500000
O O6 0.869646 0.164514 0.296668
O O7 0.755848 0.106931 0.353573
O O8 0.736581 0.901538 0.673983
O O9 0.685432 0.974901 0.519756
O O10 0.752024 0.030648 0.685484
O O11 0.979728 0.157278 0.169720
O O12 0.191309 0.191309 0.690419
O O13 0.099256 0.293794 0.642510
O O14 0.919100 0.919100 0.914856
#
# Coordination Sequence:
#
# PCOD9570573 Si02
#       6
#    16  16  16  16  16  16
#     4  10  20  36  62  94 124 163 211 260 313 372
#     4  12  23  45  68  92 126 161 205 263 321 379
#     4  10  17  37  59  86 122 167 204 254 311 368
#     4  11  23  41  66  90 123 161 208 260 321 379
#     4   9  18  33  56  85 125 170 209 252 308 370
#     4  10  20  35  57  87 124 164 209 257 309 376
#
# _framework density 19.524671999999999
#
# number of rings (size 3 to 8) (size 9 to 14) (size 15 to 20)
#    0.000    1.667    6.667    0.500    0.000    4.333 
#    0.000    4.167    0.000    8.000    0.000    0.000 
#    0.000    0.000    0.000    0.000    0.000    0.000 
#
# Total GULP energy -535811.155775 kJ/mol
# GULP energy per Si atom -5581.366206 kJ/mol
# Density = 1.948023 g / cm^3
# Si number density = 19.524672 Si / 1000 Ang^3
#
#
#
# Elastic Constant Matrix: (Units=GPa)
#
#
# Indices 1 2 3 4 5 6 
#
# 1 51.8040 43.6620 26.6407 0.0000 0.0000 0.0000
# 2 43.6620 51.8030 26.6412 0.0000 0.0000 0.0000
# 3 26.6407 26.6412 97.2012 0.0000 0.0000 0.0000
# 4 0.0000 0.0000 0.0000 -2.9214 0.0000 0.0000
# 5 0.0000 0.0000 0.0000 0.0000 -2.9212 0.0000
# 6 0.0000 0.0000 0.0000 0.0000 0.0000 27.3084
#
#
#
# Elastic Compliance Matrix: (Units=1/GPa)
#
#
# Indices 1 2 3 4 5 6 
#
# 1 0.067596 -0.055230 -0.003389 0.000000 0.000000 0.000000
# 2 -0.055230 0.067598 -0.003390 0.000000 0.000000 0.000000
# 3 -0.003389 -0.003390 0.012146 0.000000 0.000000 0.000000
# 4 0.000000 0.000000 0.000000 -0.342302 0.000000 0.000000
# 5 0.000000 0.000000 0.000000 0.000000 -0.342321 0.000000
# 6 0.000000 0.000000 0.000000 0.000000 0.000000 0.036619
#
#
# Mechanical properties :
#
#
# Convention : Reuss Voigt Hill
#
# Bulk Modulus (GPa) = 42.87891 43.85510 43.36701
# Shear Modulus (GPa) = -13.55483 11.21745 -1.16869
#
# Velocity S-wave (km/s) = -2.63770 2.39953 -0.77451
# Velocity P-wave (km/s) = 3.56825 5.49428 4.63247
#
# Compressibility (1/GPa) = 0.02332149
#
# Stress axis : x y z
#
# Youngs Moduli (GPa) = 14.79379 14.79336 82.33215
#
# Poissons Ratio (x) = 0.81704 0.27902
# Poissons Ratio (y) = 0.81706 0.27911
# Poissons Ratio (z) = 0.05014 0.05015
#
# Static dielectric constant tensor:
#      x y z
#    x 1.685690 0.000000 0.000000 
#    y 0.000000 1.685690 0.000000 
#    z 0.000000 0.000000 1.696970 
# 
# From -- ./inp_files/3092.got.cif
#   From: 2010.05.17/outbox.cif.g08.bks.cpg/sg138_2_cif.got.tgz:3092.got - 2010.05.20 13:08:53.
