data_PCOD9570361
_publ_section_title
;
Structure prediction by ZEFSAII (Michael W. Deem and Ramdas Pophale) SiO2 
 PCOD9570361
Probable space group: P 42/N M C
;
_chemical_formula_sum "Si O2"
_cell_formula_units_Z 56
_cell_length_a 13.215185
_cell_length_b 13.215185
_cell_length_c 17.048131
_cell_angle_alpha 90.000000
_cell_angle_beta 90.000000
_cell_angle_gamma 90.000000
_cell_volume 2977.304599
_symmetry_space_group_name_H-M "P 42/N M C"
_symmetry_group_IT_number 137
_space_group.IT_coordinate_system_code '2'
_symmetry_cell_setting 'tetragonal'
loop_
_space_group_symop_operation_xyz
x,y,z
1/2-y,x,1/2+z
1/2-x,1/2-y,z
y,1/2-x,1/2+z
1/2+x,-y,-z
-x,1/2+y,-z
1/2+y,1/2+x,1/2-z
-y,-x,1/2-z
-x,-y,-z
1/2+y,-x,1/2-z
1/2+x,1/2+y,-z
-y,1/2+x,1/2-z
1/2-x,y,z
x,1/2-y,z
1/2-y,1/2-x,1/2+z
y,x,1/2+z
loop_
_atom_site_type_symbol
_atom_site_label
_atom_site_fract_x
_atom_site_fract_y
_atom_site_fract_z
Si Si1 0.750000 0.870096 0.294565
Si Si2 0.631415 0.131415 0.250000
Si Si3 0.628552 0.750000 0.611117
Si Si4 0.012531 0.427236 0.119153
Si Si5 0.975208 0.631843 0.059103
O O1 0.750000 0.750000 0.299208
O O2 0.750000 0.899889 0.202846
O O3 0.648657 0.910814 0.336933
O O4 0.614304 0.250000 0.241514
O O5 0.586183 0.080176 0.173184
O O6 0.750000 0.750000 0.610056
O O7 0.602121 0.643898 0.569545
O O8 0.035767 0.546451 0.107979
O O9 0.997706 0.383237 0.032022
O O10 0.988268 0.750000 0.081473
#
# Coordination Sequence:
#
# PCOD9570361 Si02
#       5
#     8   8   8  16  16
#     4  11  22  38  59  91 121 157 213 260 312 378
#     4  11  22  38  60  88 128 167 202 262 317 382
#     4   9  20  36  60  86 118 162 203 258 314 368
#     4  11  22  36  59  89 119 167 206 254 319 372
#     4  10  21  37  57  86 124 164 207 256 315 378
#
# _framework density 18.808958000000001
#
# number of rings (size 3 to 8) (size 9 to 14) (size 15 to 20)
#    0.000    1.571    2.857    1.714    4.000    0.000 
#    0.000    0.000    0.000    2.571    0.000    0.000 
#    0.000   16.000    0.000    0.000    0.000    0.000 
#
# Total GULP energy -312209.001379 kJ/mol
# GULP energy per Si atom -5575.160739 kJ/mol
# Density = 1.876615 g / cm^3
# Si number density = 18.808958 Si / 1000 Ang^3
#
#
#
# Elastic Constant Matrix: (Units=GPa)
#
#
# Indices 1 2 3 4 5 6 
#
# 1 109.6501 16.7557 38.1096 0.0000 0.0000 0.0000
# 2 16.7557 109.6501 38.1096 0.0000 0.0000 0.0000
# 3 38.1096 38.1096 119.5084 0.0000 0.0000 0.0000
# 4 0.0000 0.0000 0.0000 6.8835 0.0000 0.0000
# 5 0.0000 0.0000 0.0000 0.0000 6.8835 0.0000
# 6 0.0000 0.0000 0.0000 0.0000 0.0000 20.1663
#
#
#
# Elastic Compliance Matrix: (Units=1/GPa)
#
#
# Indices 1 2 3 4 5 6 
#
# 1 0.010280 -0.000485 -0.003123 0.000000 0.000000 0.000000
# 2 -0.000485 0.010280 -0.003123 0.000000 0.000000 0.000000
# 3 -0.003123 -0.003123 0.010360 0.000000 0.000000 0.000000
# 4 0.000000 0.000000 0.000000 0.145276 0.000000 0.000000
# 5 0.000000 0.000000 0.000000 0.000000 0.145276 0.000000
# 6 0.000000 0.000000 0.000000 0.000000 0.000000 0.049588
#
#
# Mechanical properties :
#
#
# Convention : Reuss Voigt Hill
#
# Bulk Modulus (GPa) = 57.29006 58.30651 57.79828
# Shear Modulus (GPa) = 12.80934 23.17556 17.99245
#
# Velocity S-wave (km/s) = 2.61247 3.51402 3.09623
# Velocity P-wave (km/s) = 6.29484 6.89428 6.60137
#
# Compressibility (1/GPa) = 0.01745504
#
# Stress axis : x y z
#
# Youngs Moduli (GPa) = 97.28018 97.28018 96.52938
#
# Poissons Ratio (x) = 0.04721 0.30149
# Poissons Ratio (y) = 0.04721 0.30149
# Poissons Ratio (z) = 0.30383 0.30383
#
# Static dielectric constant tensor:
#      x y z
#    x 1.687130 0.000000 0.000000 
#    y 0.000000 1.687130 0.000000 
#    z 0.000000 0.000000 1.631890 
# 
# From -- ./inp_files/4645.got.cif
#   From: 2010.05.17/outbox.cif.g08.bks.cpg/sg137_3_cif.got.tgz:4645.got - 2010.05.20 13:01:12.
