data_PCOD9570895
_publ_section_title
;
Structure prediction by ZEFSAII (Michael W. Deem and Ramdas Pophale) SiO2 
 PCOD9570895
Probable space group: P 42/N C M
;
_chemical_formula_sum "Si O2"
_cell_formula_units_Z 96
_cell_length_a 24.173763
_cell_length_b 24.173763
_cell_length_c 8.419915
_cell_angle_alpha 90.000000
_cell_angle_beta 90.000000
_cell_angle_gamma 90.000000
_cell_volume 4920.352613
_symmetry_space_group_name_H-M "P 42/N C M"
_symmetry_group_IT_number 138
_space_group.IT_coordinate_system_code '2'
_symmetry_cell_setting 'tetragonal'
loop_
_space_group_symop_operation_xyz
x,y,z
1/2-y,x,1/2+z
1/2-x,1/2-y,z
y,1/2-x,1/2+z
1/2+x,-y,1/2-z
-x,1/2+y,1/2-z
1/2+y,1/2+x,-z
-y,-x,-z
-x,-y,-z
1/2+y,-x,1/2-z
1/2+x,1/2+y,-z
-y,1/2+x,1/2-z
1/2-x,y,1/2+z
x,1/2-y,1/2+z
1/2-y,1/2-x,z
y,x,z
loop_
_atom_site_type_symbol
_atom_site_label
_atom_site_fract_x
_atom_site_fract_y
_atom_site_fract_z
Si Si1 0.319410 0.319410 0.333019
Si Si2 0.334332 0.072964 0.335425
Si Si3 0.277389 0.950232 0.661503
Si Si4 0.782422 0.927673 0.811394
Si Si5 0.750000 0.250000 0.750000
Si Si6 0.050944 0.668568 0.683051
Si Si7 0.165722 0.650861 0.820867
Si Si8 0.750000 0.750000 0.418917
O O1 0.383707 0.308283 0.308289
O O2 0.288800 0.288800 0.186131
O O3 0.289878 0.289878 0.479928
O O4 0.380655 0.119346 0.314290
O O5 0.305656 0.080523 0.509961
O O6 0.283742 0.078719 0.210986
O O7 0.358511 0.010127 0.324530
O O8 0.298847 0.945662 0.483419
O O9 0.211596 0.952609 0.671692
O O10 0.295104 0.898243 0.764474
O O11 0.296690 0.009027 0.730788
O O12 0.701471 0.291749 0.685180
O O13 0.111478 0.643510 0.709575
O O14 0.145896 0.645896 0.000000
#
# Coordination Sequence:
#
# PCOD9570895 Si02
#       8
#     8  16  16  16   4  16  16   4
#     4  11  20  36  52  82 122 150 195 239 315 358
#     4  10  21  40  59  86 120 160 208 252 303 362
#     4  10  21  37  57  86 118 157 202 237 295 353
#     4  10  21  36  60  82 118 159 198 249 300 363
#     4  12  26  36  64 102 130 156 186 228 298 360
#     4  10  21  37  61  85 120 161 202 248 295 358
#     4  12  24  39  63  92 129 160 194 244 294 362
#     4  10  24  30  52  86 120 150 180 256 310 374
#
# _framework density 19.510797
#
# number of rings (size 3 to 8) (size 9 to 14) (size 15 to 20)
#    0.000    1.500    2.500    2.750    2.333    2.667 
#    1.500    0.000    1.833    2.500    0.000    0.000 
#    0.000    0.000    0.000    0.000    0.000    0.000 
#
# Total GULP energy -534802.026631 kJ/mol
# GULP energy per Si atom -5570.854444 kJ/mol
# Density = 1.946639 g / cm^3
# Si number density = 19.510797 Si / 1000 Ang^3
#
#
#
# Elastic Constant Matrix: (Units=GPa)
#
#
# Indices 1 2 3 4 5 6 
#
# 1 95.6168 33.7466 16.0969 0.0000 0.0000 0.0000
# 2 33.7466 95.6168 16.0969 0.0000 0.0000 0.0000
# 3 16.0969 16.0969 52.4386 0.0000 0.0000 0.0000
# 4 0.0000 0.0000 0.0000 14.7727 0.0000 0.0000
# 5 0.0000 0.0000 0.0000 0.0000 14.7727 0.0000
# 6 0.0000 0.0000 0.0000 0.0000 0.0000 25.6117
#
#
#
# Elastic Compliance Matrix: (Units=1/GPa)
#
#
# Indices 1 2 3 4 5 6 
#
# 1 0.012266 -0.003897 -0.002569 0.000000 0.000000 0.000000
# 2 -0.003897 0.012266 -0.002569 0.000000 0.000000 0.000000
# 3 -0.002569 -0.002569 0.020647 0.000000 0.000000 0.000000
# 4 0.000000 0.000000 0.000000 0.067693 0.000000 0.000000
# 5 0.000000 0.000000 0.000000 0.000000 0.067693 0.000000
# 6 0.000000 0.000000 0.000000 0.000000 0.000000 0.039045
#
#
# Mechanical properties :
#
#
# Convention : Reuss Voigt Hill
#
# Bulk Modulus (GPa) = 36.88727 41.72809 39.30768
# Shear Modulus (GPa) = 20.26622 22.88020 21.57321
#
# Velocity S-wave (km/s) = 3.22641 3.42818 3.32882
# Velocity P-wave (km/s) = 5.72946 6.09126 5.91313
#
# Compressibility (1/GPa) = 0.02710962
#
# Stress axis : x y z
#
# Youngs Moduli (GPa) = 81.52481 81.52481 48.43273
#
# Poissons Ratio (x) = 0.31768 0.12443
# Poissons Ratio (y) = 0.31768 0.12443
# Poissons Ratio (z) = 0.20945 0.20945
#
# Static dielectric constant tensor:
#      x y z
#    x 1.755000 0.000000 0.000000 
#    y 0.000000 1.755000 0.000000 
#    z 0.000000 0.000000 1.709140 
# 
# From -- ./inp_files/1793.got.cif
#   From: 2010.05.17/outbox.cif.g08.bks.cpg/sg138_1_cif.got.tgz:1793.got - 2010.05.20 13:08:53.
