data_PCOD9570639
_publ_section_title
;
Structure prediction by ZEFSAII (Michael W. Deem and Ramdas Pophale) SiO2 
 PCOD9570639
Probable space group: P 42/N C M
;
_chemical_formula_sum "Si O2"
_cell_formula_units_Z 64
_cell_length_a 11.856232
_cell_length_b 11.856232
_cell_length_c 20.686212
_cell_angle_alpha 90.000000
_cell_angle_beta 90.000000
_cell_angle_gamma 90.000000
_cell_volume 2907.865728
_symmetry_space_group_name_H-M "P 42/N C M"
_symmetry_group_IT_number 138
_space_group.IT_coordinate_system_code '2'
_symmetry_cell_setting 'tetragonal'
loop_
_space_group_symop_operation_xyz
x,y,z
1/2-y,x,1/2+z
1/2-x,1/2-y,z
y,1/2-x,1/2+z
1/2+x,-y,1/2-z
-x,1/2+y,1/2-z
1/2+y,1/2+x,-z
-y,-x,-z
-x,-y,-z
1/2+y,-x,1/2-z
1/2+x,1/2+y,-z
-y,1/2+x,1/2-z
1/2-x,y,1/2+z
x,1/2-y,1/2+z
1/2-y,1/2-x,z
y,x,z
loop_
_atom_site_type_symbol
_atom_site_label
_atom_site_fract_x
_atom_site_fract_y
_atom_site_fract_z
Si Si1 0.348539 0.151462 0.446472
Si Si2 0.314641 0.002181 0.711972
Si Si3 0.980284 0.173315 0.461315
Si Si4 0.156799 0.156799 0.800097
Si Si5 0.605812 0.418143 0.334495
O O1 0.250000 0.250000 0.447921
O O2 0.458433 0.209692 0.477070
O O3 0.379409 0.120592 0.371667
O O4 0.407181 0.092820 0.689302
O O5 0.222414 0.068266 0.755745
O O6 0.373965 0.919216 0.762543
O O7 0.238058 0.942136 0.658786
O O8 0.872968 0.127033 0.500000
O O9 0.944145 0.168454 0.386293
O O10 0.077950 0.077950 0.469819
O O11 0.250000 0.250000 0.815161
O O12 0.531515 0.531515 0.344796
#
# Coordination Sequence:
#
# PCOD9570639 Si02
#       5
#     8  16  16   8  16
#     4   9  14  26  48  68  95 144 191 230 281 340
#     4  10  19  31  49  74 103 137 175 220 281 343
#     4   9  17  29  45  71 107 144 189 238 281 337
#     4   9  14  26  48  68  92 131 177 214 259 337
#     4  10  19  31  49  74 106 140 177 225 277 336
#
# _framework density 22.009269
#
# number of rings (size 3 to 8) (size 9 to 14) (size 15 to 20)
#    0.000    2.500    3.750    0.000    0.000    0.500 
#    2.250    0.000    0.000    0.000    0.000    3.500 
#    0.000    6.000    0.000    0.000    0.000    0.000 
#
# Total GULP energy -356715.061298 kJ/mol
# GULP energy per Si atom -5573.672833 kJ/mol
# Density = 2.195918 g / cm^3
# Si number density = 22.009269 Si / 1000 Ang^3
#
#
#
# Elastic Constant Matrix: (Units=GPa)
#
#
# Indices 1 2 3 4 5 6 
#
# 1 75.6865 53.8843 10.0451 0.0000 0.0000 0.0000
# 2 53.8843 75.6858 10.0448 0.0000 0.0000 0.0000
# 3 10.0451 10.0448 8.2668 0.0000 0.0000 0.0000
# 4 0.0000 0.0000 0.0000 7.7062 0.0000 0.0000
# 5 0.0000 0.0000 0.0000 0.0000 7.7066 0.0000
# 6 0.0000 0.0000 0.0000 0.0000 0.0000 51.5200
#
#
#
# Elastic Compliance Matrix: (Units=1/GPa)
#
#
# Indices 1 2 3 4 5 6 
#
# 1 0.027689 -0.018179 -0.011556 0.000000 0.000000 0.000000
# 2 -0.018179 0.027689 -0.011554 0.000000 0.000000 0.000000
# 3 -0.011556 -0.011554 0.149047 0.000000 0.000000 0.000000
# 4 0.000000 0.000000 0.000000 0.129765 0.000000 0.000000
# 5 0.000000 0.000000 0.000000 0.000000 0.129759 0.000000
# 6 0.000000 0.000000 0.000000 0.000000 0.000000 0.019410
#
#
# Mechanical properties :
#
#
# Convention : Reuss Voigt Hill
#
# Bulk Modulus (GPa) = 8.20708 34.17637 21.19173
# Shear Modulus (GPa) = 8.24333 19.09755 13.67044
#
# Velocity S-wave (km/s) = 1.93740 2.94888 2.49494
# Velocity P-wave (km/s) = 2.95664 5.21118 4.23663
#
# Compressibility (1/GPa) = 0.12184596
#
# Stress axis : x y z
#
# Youngs Moduli (GPa) = 36.11605 36.11599 6.70931
#
# Poissons Ratio (x) = 0.65656 0.07753
# Poissons Ratio (y) = 0.65656 0.07752
# Poissons Ratio (z) = 0.41734 0.41729
#
# Static dielectric constant tensor:
#      x y z
#    x 1.850120 0.000000 0.000000 
#    y 0.000000 1.850120 0.000000 
#    z 0.000000 0.000000 1.844820 
# 
# From -- ./inp_files/6786.got.cif
#   From: 2010.05.17/outbox.cif.g08.bks.cpg/sg138_4_cif.got.tgz:6786.got - 2010.05.20 13:08:53.
