data_PCOD9570971
_publ_section_title
;
Structure prediction by ZEFSAII (Michael W. Deem and Ramdas Pophale) SiO2 
 PCOD9570971
Probable space group: P 42/N C M
;
_chemical_formula_sum "Si O2"
_cell_formula_units_Z 64
_cell_length_a 14.380083
_cell_length_b 14.380083
_cell_length_c 14.581870
_cell_angle_alpha 90.000000
_cell_angle_beta 90.000000
_cell_angle_gamma 90.000000
_cell_volume 3015.338047
_symmetry_space_group_name_H-M "P 42/N C M"
_symmetry_group_IT_number 138
_space_group.IT_coordinate_system_code '2'
_symmetry_cell_setting 'tetragonal'
loop_
_space_group_symop_operation_xyz
x,y,z
1/2-y,x,1/2+z
1/2-x,1/2-y,z
y,1/2-x,1/2+z
1/2+x,-y,1/2-z
-x,1/2+y,1/2-z
1/2+y,1/2+x,-z
-y,-x,-z
-x,-y,-z
1/2+y,-x,1/2-z
1/2+x,1/2+y,-z
-y,1/2+x,1/2-z
1/2-x,y,1/2+z
x,1/2-y,1/2+z
1/2-y,1/2-x,z
y,x,z
loop_
_atom_site_type_symbol
_atom_site_label
_atom_site_fract_x
_atom_site_fract_y
_atom_site_fract_z
Si Si1 0.099449 0.256681 0.540408
Si Si2 0.631543 0.020583 0.836371
Si Si3 0.505975 0.650093 0.123109
Si Si4 0.780853 0.345366 0.100331
O O1 0.150580 0.349421 0.578517
O O2 0.176255 0.176255 0.541323
O O3 0.070593 0.281544 0.436864
O O4 0.013863 0.215525 0.598084
O O5 0.612661 0.130164 0.847355
O O6 0.540284 0.959717 0.860277
O O7 0.658974 0.993983 0.732677
O O8 0.547019 0.547019 0.103072
O O9 0.406173 0.687915 0.093918
O O10 0.750000 0.250000 0.145899
O O11 0.820190 0.320190 0.000000
#
# Coordination Sequence:
#
# PCOD9570971 Si02
#       4
#    16  16  16  16
#     4   9  18  36  61  89 127 171 213 263 320 378
#     4  10  22  39  62  94 126 167 216 263 315 382
#     4  10  22  40  61  91 129 164 211 265 316 373
#     4  11  24  42  65  92 124 166 213 261 322 380
#
# _framework density 21.224817000000002
#
# number of rings (size 3 to 8) (size 9 to 14) (size 15 to 20)
#    0.000    2.000    2.500    0.000    3.500    2.500 
#    0.000    8.750    0.000    0.000    0.000    0.000 
#    0.000    0.000    0.000    0.000    0.000    0.000 
#
# Total GULP energy -356531.496933 kJ/mol
# GULP energy per Si atom -5570.804640 kJ/mol
# Density = 2.117651 g / cm^3
# Si number density = 21.224817 Si / 1000 Ang^3
#
#
#
# Elastic Constant Matrix: (Units=GPa)
#
#
# Indices 1 2 3 4 5 6 
#
# 1 77.9672 81.8473 20.1730 0.0000 0.0000 0.0000
# 2 81.8473 77.9672 20.1730 0.0000 0.0000 0.0000
# 3 20.1730 20.1730 90.2438 0.0000 0.0000 0.0000
# 4 0.0000 0.0000 0.0000 8.3969 0.0000 0.0000
# 5 0.0000 0.0000 0.0000 0.0000 8.3969 0.0000
# 6 0.0000 0.0000 0.0000 0.0000 0.0000 39.9107
#
#
#
# Elastic Compliance Matrix: (Units=1/GPa)
#
#
# Indices 1 2 3 4 5 6 
#
# 1 -0.125547 0.132179 -0.001482 0.000000 0.000000 0.000000
# 2 0.132179 -0.125547 -0.001482 0.000000 0.000000 0.000000
# 3 -0.001482 -0.001482 0.011744 0.000000 0.000000 0.000000
# 4 0.000000 0.000000 0.000000 0.119091 0.000000 0.000000
# 5 0.000000 0.000000 0.000000 0.000000 0.119091 0.000000
# 6 0.000000 0.000000 0.000000 0.000000 0.000000 0.025056
#
#
# Mechanical properties :
#
#
# Convention : Reuss Voigt Hill
#
# Bulk Modulus (GPa) = 52.41848 54.50719 53.46284
# Shear Modulus (GPa) = -21.91228 19.60658 -1.15285
#
# Velocity S-wave (km/s) = -3.21657 3.04263 -0.73779
# Velocity P-wave (km/s) = 3.30988 6.17091 4.95154
#
# Compressibility (1/GPa) = 0.01907724
#
# Stress axis : x y z
#
# Youngs Moduli (GPa) = -7.96511 -7.96511 85.15100
#
# Poissons Ratio (x) = 1.05282 0.12623
# Poissons Ratio (y) = 1.05282 0.12623
# Poissons Ratio (z) = -0.01181 -0.01181
#
# Static dielectric constant tensor:
#      x y z
#    x 1.811580 0.000000 0.000000 
#    y 0.000000 1.811580 0.000000 
#    z 0.000000 0.000000 1.765210 
# 
# From -- ./inp_files/3871.got.cif
#   From: 2010.05.17/outbox.cif.g08.bks.cpg/sg138_2_cif.got.tgz:3871.got - 2010.05.20 13:08:53.
