data_PCOD9570656
_publ_section_title
;
Structure prediction by ZEFSAII (Michael W. Deem and Ramdas Pophale) SiO2 
 PCOD9570656
Probable space group: P 42/N C M
;
_chemical_formula_sum "Si O2"
_cell_formula_units_Z 80
_cell_length_a 30.026244
_cell_length_b 30.026244
_cell_length_c 5.062392
_cell_angle_alpha 90.000000
_cell_angle_beta 90.000000
_cell_angle_gamma 90.000000
_cell_volume 4564.127732
_symmetry_space_group_name_H-M "P 42/N C M"
_symmetry_group_IT_number 138
_space_group.IT_coordinate_system_code '2'
_symmetry_cell_setting 'tetragonal'
loop_
_space_group_symop_operation_xyz
x,y,z
1/2-y,x,1/2+z
1/2-x,1/2-y,z
y,1/2-x,1/2+z
1/2+x,-y,1/2-z
-x,1/2+y,1/2-z
1/2+y,1/2+x,-z
-y,-x,-z
-x,-y,-z
1/2+y,-x,1/2-z
1/2+x,1/2+y,-z
-y,1/2+x,1/2-z
1/2-x,y,1/2+z
x,1/2-y,1/2+z
1/2-y,1/2-x,z
y,x,z
loop_
_atom_site_type_symbol
_atom_site_label
_atom_site_fract_x
_atom_site_fract_y
_atom_site_fract_z
Si Si1 0.719522 0.081870 0.507717
Si Si2 0.980860 0.909508 0.629569
Si Si3 0.083984 0.916017 0.500000
Si Si4 0.372062 0.872062 0.500000
Si Si5 0.479264 0.279349 0.050467
Si Si6 0.561207 0.632490 0.131051
O O1 0.758900 0.087371 0.295066
O O2 0.679316 0.115453 0.454380
O O3 0.703494 0.030330 0.481758
O O4 0.957068 0.957068 0.582215
O O5 0.956658 0.875909 0.425915
O O6 0.032568 0.909251 0.571076
O O7 0.969829 0.895214 0.927432
O O8 0.112840 0.900803 0.748808
O O9 0.474631 0.238260 0.847253
O O10 0.445088 0.317253 0.962669
O O11 0.609734 0.609734 0.109957
#
# Coordination Sequence:
#
# PCOD9570656 Si02
#       6
#    16  16   8   8  16  16
#     4  10  21  37  55  76 102 129 162 208 258 311
#     4  10  20  32  47  68 102 142 172 202 240 287
#     4  12  21  32  50  76 104 129 172 208 238 294
#     4  12  24  36  57  79  98 130 166 214 264 306
#     4  10  19  32  52  75 101 132 168 210 257 300
#     4  10  20  34  50  71 102 139 175 209 248 296
#
# _framework density 17.527994
#
# number of rings (size 3 to 8) (size 9 to 14) (size 15 to 20)
#    0.000    1.600    0.000    6.300    0.000    3.200 
#    0.000    4.000    0.000    1.800    0.000    0.000 
#    0.000    2.400    0.000    0.000    0.000    0.000 
#
# Total GULP energy -446885.268260 kJ/mol
# GULP energy per Si atom -5586.065853 kJ/mol
# Density = 1.748810 g / cm^3
# Si number density = 17.527994 Si / 1000 Ang^3
#
#
#
# Elastic Constant Matrix: (Units=GPa)
#
#
# Indices 1 2 3 4 5 6 
#
# 1 71.1197 7.5364 -17.8128 0.0000 0.0000 0.0000
# 2 7.5364 71.1272 -17.8104 0.0000 0.0000 0.0000
# 3 -17.8128 -17.8104 44.9330 0.0000 0.0000 0.0000
# 4 0.0000 0.0000 0.0000 14.9847 0.0000 0.0000
# 5 0.0000 0.0000 0.0000 0.0000 14.9844 0.0000
# 6 0.0000 0.0000 0.0000 0.0000 0.0000 24.6628
#
#
#
# Elastic Compliance Matrix: (Units=1/GPa)
#
#
# Indices 1 2 3 4 5 6 
#
# 1 0.015612 -0.000116 0.006143 0.000000 0.000000 0.000000
# 2 -0.000116 0.015609 0.006141 0.000000 0.000000 0.000000
# 3 0.006143 0.006141 0.027125 0.000000 0.000000 0.000000
# 4 0.000000 0.000000 0.000000 0.066735 0.000000 0.000000
# 5 0.000000 0.000000 0.000000 0.000000 0.066736 0.000000
# 6 0.000000 0.000000 0.000000 0.000000 0.000000 0.040547
#
#
# Mechanical properties :
#
#
# Convention : Reuss Voigt Hill
#
# Bulk Modulus (GPa) = 12.09445 14.55624 13.32535
# Shear Modulus (GPa) = 21.22348 25.27749 23.25049
#
# Velocity S-wave (km/s) = 3.48348 3.80165 3.64603
# Velocity P-wave (km/s) = 4.80568 5.25287 5.03424
#
# Compressibility (1/GPa) = 0.08268256
#
# Stress axis : x y z
#
# Youngs Moduli (GPa) = 64.05458 64.06403 36.86651
#
# Poissons Ratio (x) = 0.00743 -0.22647
# Poissons Ratio (y) = 0.00743 -0.22641
# Poissons Ratio (z) = -0.39349 -0.39343
#
# Static dielectric constant tensor:
#      x y z
#    x 1.592800 0.000000 0.000000 
#    y 0.000000 1.592800 0.000000 
#    z 0.000000 0.000000 1.591870 
# 
# From -- ./inp_files/481.got.cif
#   From: 2010.05.17/outbox.cif.g08.bks.cpg/sg138_1_cif.got.tgz:481.got - 2010.05.20 13:08:53.
