data_PCOD9570314
_publ_section_title
;
Structure prediction by ZEFSAII (Michael W. Deem and Ramdas Pophale) SiO2 
 PCOD9570314
Probable space group: P 42/N M C
;
_chemical_formula_sum "Si O2"
_cell_formula_units_Z 84
_cell_length_a 15.470066
_cell_length_b 15.470066
_cell_length_c 22.078790
_cell_angle_alpha 90.000000
_cell_angle_beta 90.000000
_cell_angle_gamma 90.000000
_cell_volume 5283.960980
_symmetry_space_group_name_H-M "P 42/N M C"
_symmetry_group_IT_number 137
_space_group.IT_coordinate_system_code '2'
_symmetry_cell_setting 'tetragonal'
loop_
_space_group_symop_operation_xyz
x,y,z
1/2-y,x,1/2+z
1/2-x,1/2-y,z
y,1/2-x,1/2+z
1/2+x,-y,-z
-x,1/2+y,-z
1/2+y,1/2+x,1/2-z
-y,-x,1/2-z
-x,-y,-z
1/2+y,-x,1/2-z
1/2+x,1/2+y,-z
-y,1/2+x,1/2-z
1/2-x,y,z
x,1/2-y,z
1/2-y,1/2-x,1/2+z
y,x,1/2+z
loop_
_atom_site_type_symbol
_atom_site_label
_atom_site_fract_x
_atom_site_fract_y
_atom_site_fract_z
Si Si1 0.936056 0.518647 0.191591
Si Si2 0.499790 0.424596 0.076990
Si Si3 0.352637 0.022808 0.987169
Si Si4 0.058299 0.750000 0.864890
Si Si5 0.065708 0.750000 0.718533
Si Si6 0.650470 0.846986 0.126965
Si Si7 0.750000 0.250000 0.155640
O O1 0.989911 0.489314 0.133299
O O2 0.840285 0.473675 0.193932
O O3 0.911173 0.617507 0.179640
O O4 0.987506 0.487506 0.250000
O O5 0.409792 0.437195 0.041730
O O6 0.512332 0.332376 0.107284
O O7 0.584059 0.444825 0.034753
O O8 0.250000 0.003861 0.998766
O O9 0.353990 0.090512 0.931210
O O10 0.056250 0.750000 0.791333
O O11 0.160337 0.750000 0.880580
O O12 0.163622 0.750000 0.695661
O O13 0.750000 0.849047 0.148235
O O14 0.628840 0.750000 0.108899
#
# Coordination Sequence:
#
# PCOD9570314 Si02
#       7
#    16  16  16   8   8  16   4
#     4  11  19  32  51  72 105 134 165 202 251 305
#     4  10  21  33  51  77 103 136 171 208 250 308
#     4   9  20  38  54  70 100 138 176 214 253 292
#     4  12  21  28  49  78 109 133 170 197 251 316
#     4  12  19  32  45  76 109 141 158 194 250 319
#     4   9  18  32  52  72  93 129 174 212 245 287
#     4  12  21  28  44  76 112 144 160 190 249 322
#
# _framework density 15.897164999999999
#
# number of rings (size 3 to 8) (size 9 to 14) (size 15 to 20)
#    0.000    1.714    4.762    0.857    4.000    0.000 
#    0.000    0.952    0.000    1.143    0.000    0.000 
#    0.000    2.286    0.000    0.000    0.000    0.000 
#
# Total GULP energy -467607.244875 kJ/mol
# GULP energy per Si atom -5566.752915 kJ/mol
# Density = 1.586098 g / cm^3
# Si number density = 15.897165 Si / 1000 Ang^3
#
#
#
# Elastic Constant Matrix: (Units=GPa)
#
#
# Indices 1 2 3 4 5 6 
#
# 1 67.5840 15.6258 22.7019 0.0000 0.0000 0.0000
# 2 15.6258 67.5840 22.7019 0.0000 0.0000 0.0000
# 3 22.7019 22.7019 63.6885 0.0000 0.0000 0.0000
# 4 0.0000 0.0000 0.0000 25.9677 0.0000 0.0000
# 5 0.0000 0.0000 0.0000 0.0000 25.9677 0.0000
# 6 0.0000 0.0000 0.0000 0.0000 0.0000 9.4055
#
#
#
# Elastic Compliance Matrix: (Units=1/GPa)
#
#
# Indices 1 2 3 4 5 6 
#
# 1 0.017083 -0.002163 -0.005318 0.000000 0.000000 0.000000
# 2 -0.002163 0.017083 -0.005318 0.000000 0.000000 0.000000
# 3 -0.005318 -0.005318 0.019493 0.000000 0.000000 0.000000
# 4 0.000000 0.000000 0.000000 0.038509 0.000000 0.000000
# 5 0.000000 0.000000 0.000000 0.000000 0.038509 0.000000
# 6 0.000000 0.000000 0.000000 0.000000 0.000000 0.106321
#
#
# Mechanical properties :
#
#
# Convention : Reuss Voigt Hill
#
# Bulk Modulus (GPa) = 35.63852 35.65729 35.64790
# Shear Modulus (GPa) = 18.38572 21.45666 19.92119
#
# Velocity S-wave (km/s) = 3.40448 3.67783 3.54380
# Velocity P-wave (km/s) = 6.15799 6.36506 6.26238
#
# Compressibility (1/GPa) = 0.02805953
#
# Stress axis : x y z
#
# Youngs Moduli (GPa) = 58.53788 58.53788 51.30111
#
# Poissons Ratio (x) = 0.12663 0.27283
# Poissons Ratio (y) = 0.12663 0.27283
# Poissons Ratio (z) = 0.31131 0.31131
#
# Static dielectric constant tensor:
#      x y z
#    x 1.558540 0.000000 0.000000 
#    y 0.000000 1.558540 0.000000 
#    z 0.000000 0.000000 1.545630 
# 
# From -- ./inp_files/7757.got.cif
#   From: 2010.05.17/outbox.cif.g08.bks.cpg/sg137_4_cif.got.tgz:7757.got - 2010.05.20 13:01:12.
