data_PCOD9570048
_publ_section_title
;
Structure prediction by ZEFSAII (Michael W. Deem and Ramdas Pophale) SiO2 
 PCOD9570048
Probable space group: P 42/N M C
;
_chemical_formula_sum "Si O2"
_cell_formula_units_Z 96
_cell_length_a 22.927278
_cell_length_b 22.927278
_cell_length_c 10.514289
_cell_angle_alpha 90.000000
_cell_angle_beta 90.000000
_cell_angle_gamma 90.000000
_cell_volume 5526.941960
_symmetry_space_group_name_H-M "P 42/N M C"
_symmetry_group_IT_number 137
_space_group.IT_coordinate_system_code '2'
_symmetry_cell_setting 'tetragonal'
loop_
_space_group_symop_operation_xyz
x,y,z
1/2-y,x,1/2+z
1/2-x,1/2-y,z
y,1/2-x,1/2+z
1/2+x,-y,-z
-x,1/2+y,-z
1/2+y,1/2+x,1/2-z
-y,-x,1/2-z
-x,-y,-z
1/2+y,-x,1/2-z
1/2+x,1/2+y,-z
-y,1/2+x,1/2-z
1/2-x,y,z
x,1/2-y,z
1/2-y,1/2-x,1/2+z
y,x,1/2+z
loop_
_atom_site_type_symbol
_atom_site_label
_atom_site_fract_x
_atom_site_fract_y
_atom_site_fract_z
Si Si1 0.386113 0.391410 0.506389
Si Si2 0.183038 0.385889 0.759538
Si Si3 0.087160 0.818575 0.241502
Si Si4 0.375931 0.970363 0.499802
Si Si5 0.025491 0.882007 0.474879
Si Si6 0.527396 0.183248 0.265075
O O1 0.368636 0.353453 0.384039
O O2 0.351177 0.370614 0.630744
O O3 0.374308 0.459996 0.484984
O O4 0.455769 0.386837 0.527875
O O5 0.250000 0.365239 0.760849
O O6 0.184647 0.456679 0.762455
O O7 0.149288 0.850713 0.250000
O O8 0.090817 0.750000 0.258021
O O9 0.058784 0.835393 0.106628
O O10 0.047931 0.847462 0.351940
O O11 0.440331 0.943493 0.479024
O O12 0.352837 0.954973 0.640448
O O13 0.043286 0.847547 0.602898
O O14 0.548280 0.250000 0.259568
#
# Coordination Sequence:
#
# PCOD9570048 Si02
#       6
#    16  16  16  16  16  16
#     4  10  19  34  54  77 106 136 164 208 266 319
#     4   9  19  34  52  75  98 128 169 203 243 305
#     4  10  21  35  51  74 104 140 184 228 266 310
#     4  10  19  31  50  77 106 134 168 212 265 323
#     4  10  19  31  50  77 106 134 168 212 265 323
#     4   9  17  30  48  70 100 135 168 202 243 300
#
# _framework density 17.369461000000001
#
# number of rings (size 3 to 8) (size 9 to 14) (size 15 to 20)
#    0.000    2.333    0.000    3.000    0.000    1.500 
#    0.000    5.833    0.000    1.500    0.000    0.000 
#    0.000   12.000    0.000    0.000    0.000    0.000 
#
# Total GULP energy -535470.042326 kJ/mol
# GULP energy per Si atom -5577.812941 kJ/mol
# Density = 1.732993 g / cm^3
# Si number density = 17.369461 Si / 1000 Ang^3
#
#
#
# Elastic Constant Matrix: (Units=GPa)
#
#
# Indices 1 2 3 4 5 6 
#
# 1 62.6880 -0.4662 10.5504 0.0000 0.0000 0.0000
# 2 -0.4662 62.6954 10.5529 0.0000 0.0000 0.0000
# 3 10.5504 10.5529 93.5544 0.0000 0.0000 0.0000
# 4 0.0000 0.0000 0.0000 18.6414 0.0000 0.0000
# 5 0.0000 0.0000 0.0000 0.0000 18.6408 0.0000
# 6 0.0000 0.0000 0.0000 0.0000 0.0000 2.3328
#
#
#
# Elastic Compliance Matrix: (Units=1/GPa)
#
#
# Indices 1 2 3 4 5 6 
#
# 1 0.016272 0.000438 -0.001885 0.000000 0.000000 0.000000
# 2 0.000438 0.016271 -0.001885 0.000000 0.000000 0.000000
# 3 -0.001885 -0.001885 0.011114 0.000000 0.000000 0.000000
# 4 0.000000 0.000000 0.000000 0.053644 0.000000 0.000000
# 5 0.000000 0.000000 0.000000 0.000000 0.053646 0.000000
# 6 0.000000 0.000000 0.000000 0.000000 0.000000 0.428677
#
#
# Mechanical properties :
#
#
# Convention : Reuss Voigt Hill
#
# Bulk Modulus (GPa) = 27.03066 28.91246 27.97156
# Shear Modulus (GPa) = 8.35257 21.14304 14.74780
#
# Velocity S-wave (km/s) = 2.19527 3.49270 2.91703
# Velocity P-wave (km/s) = 4.69271 5.73995 5.24255
#
# Compressibility (1/GPa) = 0.03699503
#
# Stress axis : x y z
#
# Youngs Moduli (GPa) = 61.45360 61.46039 89.97586
#
# Poissons Ratio (x) = -0.02693 0.16956
# Poissons Ratio (y) = -0.02693 0.16958
# Poissons Ratio (z) = 0.11581 0.11584
#
# Static dielectric constant tensor:
#      x y z
#    x 1.571760 0.000000 0.000000 
#    y 0.000000 1.571760 0.000000 
#    z 0.000000 0.000000 1.579660 
# 
# From -- ./inp_files/2161.got.cif
#   From: 2010.05.17/outbox.cif.g08.bks.cpg/sg137_2_cif.got.tgz:2161.got - 2010.05.20 13:01:12.
