data_PCOD9570755
_publ_section_title
;
Structure prediction by ZEFSAII (Michael W. Deem and Ramdas Pophale) SiO2 
 PCOD9570755
Probable space group: P 42/N C M
;
_chemical_formula_sum "Si O2"
_cell_formula_units_Z 96
_cell_length_a 16.977778
_cell_length_b 16.977778
_cell_length_c 17.884687
_cell_angle_alpha 90.000000
_cell_angle_beta 90.000000
_cell_angle_gamma 90.000000
_cell_volume 5155.170635
_symmetry_space_group_name_H-M "P 42/N C M"
_symmetry_group_IT_number 138
_space_group.IT_coordinate_system_code '2'
_symmetry_cell_setting 'tetragonal'
loop_
_space_group_symop_operation_xyz
x,y,z
1/2-y,x,1/2+z
1/2-x,1/2-y,z
y,1/2-x,1/2+z
1/2+x,-y,1/2-z
-x,1/2+y,1/2-z
1/2+y,1/2+x,-z
-y,-x,-z
-x,-y,-z
1/2+y,-x,1/2-z
1/2+x,1/2+y,-z
-y,1/2+x,1/2-z
1/2-x,y,1/2+z
x,1/2-y,1/2+z
1/2-y,1/2-x,z
y,x,z
loop_
_atom_site_type_symbol
_atom_site_label
_atom_site_fract_x
_atom_site_fract_y
_atom_site_fract_z
Si Si1 0.048192 0.779527 0.354245
Si Si2 0.165342 0.908086 0.352579
Si Si3 0.250615 0.127907 0.898472
Si Si4 0.984907 0.643743 0.005070
Si Si5 0.476149 0.603942 0.803339
Si Si6 0.178502 0.986810 0.809357
O O1 0.135814 0.818096 0.348715
O O2 0.036906 0.685694 0.348068
O O3 0.007157 0.812875 0.279699
O O4 0.013812 0.818077 0.428543
O O5 0.125389 0.956296 0.283587
O O6 0.257791 0.922415 0.338872
O O7 0.139384 0.947687 0.430911
O O8 0.317483 0.182518 0.860037
O O9 0.187073 0.187073 0.932069
O O10 0.295223 0.077066 0.959440
O O11 0.206185 0.068210 0.844591
O O12 0.937629 0.562372 0.994544
O O13 0.559916 0.559916 0.809806
O O14 0.408151 0.543090 0.827869
#
# Coordination Sequence:
#
# PCOD9570755 Si02
#       6
#    16  16  16  16  16  16
#     4  10  21  33  52  82 109 136 172 220 271 311
#     4   9  19  36  55  78 107 140 177 216 264 317
#     4   9  18  34  54  75 104 143 181 216 262 322
#     4  10  20  34  54  80 109 139 173 218 271 321
#     4  10  20  35  56  81 109 140 175 217 264 316
#     4   9  19  35  56  78 102 139 183 220 257 310
#
# _framework density 18.622081000000001
#
# number of rings (size 3 to 8) (size 9 to 14) (size 15 to 20)
#    0.000    2.500    0.000    1.500    0.000   10.000 
#    0.000    6.667    0.000   11.000    0.000    0.000 
#    0.000    0.000    0.000    0.000    0.000    0.000 
#
# Total GULP energy -534839.125968 kJ/mol
# GULP energy per Si atom -5571.240895 kJ/mol
# Density = 1.857970 g / cm^3
# Si number density = 18.622081 Si / 1000 Ang^3
#
#
#
# Elastic Constant Matrix: (Units=GPa)
#
#
# Indices 1 2 3 4 5 6 
#
# 1 97.4409 57.2291 37.2231 0.0000 0.0000 0.0000
# 2 57.2291 97.4409 37.2231 0.0000 0.0000 0.0000
# 3 37.2231 37.2231 100.1526 0.0000 0.0000 0.0000
# 4 0.0000 0.0000 0.0000 6.0290 0.0000 0.0000
# 5 0.0000 0.0000 0.0000 0.0000 6.0290 0.0000
# 6 0.0000 0.0000 0.0000 0.0000 0.0000 29.9911
#
#
#
# Elastic Compliance Matrix: (Units=1/GPa)
#
#
# Indices 1 2 3 4 5 6 
#
# 1 0.016371 -0.008497 -0.002926 0.000000 0.000000 0.000000
# 2 -0.008497 0.016371 -0.002926 0.000000 0.000000 0.000000
# 3 -0.002926 -0.002926 0.012160 0.000000 0.000000 0.000000
# 4 0.000000 0.000000 0.000000 0.165864 0.000000 0.000000
# 5 0.000000 0.000000 0.000000 0.000000 0.165864 0.000000
# 6 0.000000 0.000000 0.000000 0.000000 0.000000 0.033343
#
#
# Mechanical properties :
#
#
# Convention : Reuss Voigt Hill
#
# Bulk Modulus (GPa) = 61.72026 62.04278 61.88152
# Shear Modulus (GPa) = 11.25936 19.30044 15.27990
#
# Velocity S-wave (km/s) = 2.46158 3.22285 2.86759
# Velocity P-wave (km/s) = 6.42609 6.87300 6.65330
#
# Compressibility (1/GPa) = 0.01620214
#
# Stress axis : x y z
#
# Youngs Moduli (GPa) = 61.08309 61.08309 82.23628
#
# Poissons Ratio (x) = 0.51904 0.24066
# Poissons Ratio (y) = 0.51904 0.24066
# Poissons Ratio (z) = 0.17876 0.17876
#
# Static dielectric constant tensor:
#      x y z
#    x 1.673810 0.000000 0.000000 
#    y 0.000000 1.673810 0.000000 
#    z 0.000000 0.000000 1.617930 
# 
# From -- ./inp_files/5234.got.cif
#   From: 2010.05.17/outbox.cif.g08.bks.cpg/sg138_3_cif.got.tgz:5234.got - 2010.05.20 13:08:53.
