data_PCOD9570051
_publ_section_title
;
Structure prediction by ZEFSAII (Michael W. Deem and Ramdas Pophale) SiO2 
 PCOD9570051
Probable space group: P 42/N M C
;
_chemical_formula_sum "Si O2"
_cell_formula_units_Z 96
_cell_length_a 14.729158
_cell_length_b 14.729158
_cell_length_c 25.524647
_cell_angle_alpha 90.000000
_cell_angle_beta 90.000000
_cell_angle_gamma 90.000000
_cell_volume 5537.523552
_symmetry_space_group_name_H-M "P 42/N M C"
_symmetry_group_IT_number 137
_space_group.IT_coordinate_system_code '2'
_symmetry_cell_setting 'tetragonal'
loop_
_space_group_symop_operation_xyz
x,y,z
1/2-y,x,1/2+z
1/2-x,1/2-y,z
y,1/2-x,1/2+z
1/2+x,-y,-z
-x,1/2+y,-z
1/2+y,1/2+x,1/2-z
-y,-x,1/2-z
-x,-y,-z
1/2+y,-x,1/2-z
1/2+x,1/2+y,-z
-y,1/2+x,1/2-z
1/2-x,y,z
x,1/2-y,z
1/2-y,1/2-x,1/2+z
y,x,1/2+z
loop_
_atom_site_type_symbol
_atom_site_label
_atom_site_fract_x
_atom_site_fract_y
_atom_site_fract_z
Si Si1 0.983860 0.642541 0.605970
Si Si2 0.645171 0.639683 0.927792
Si Si3 0.358589 0.032776 0.470076
Si Si4 0.994989 0.358521 0.272060
Si Si5 0.354676 0.360468 0.189312
Si Si6 0.145820 0.643967 0.974483
O O1 0.959102 0.750000 0.601353
O O2 0.078898 0.631216 0.575145
O O3 0.911440 0.579944 0.576707
O O4 0.991394 0.619805 0.666982
O O5 0.750000 0.612239 0.936307
O O6 0.643793 0.750000 0.927391
O O7 0.616549 0.610271 0.869405
O O8 0.583109 0.611823 0.976078
O O9 0.250000 0.044438 0.463849
O O10 0.377650 0.927040 0.480674
O O11 0.988039 0.250000 0.267958
O O12 0.078276 0.389693 0.235189
O O13 0.905995 0.405995 0.250000
O O14 0.250000 0.388212 0.197350
O O15 0.355045 0.250000 0.189186
O O16 0.250000 0.632830 0.991662
O O17 0.131724 0.750000 0.959968
#
# Coordination Sequence:
#
# PCOD9570051 Si02
#       6
#    16  16  16  16  16  16
#     4  10  21  35  50  75 106 135 171 217 264 312
#     4   8  14  25  44  72 100 125 160 203 249 309
#     4  10  19  31  53  80 106 137 166 208 269 321
#     4  10  22  36  52  74 104 141 178 214 253 303
#     4   8  15  30  50  70  95 130 172 216 260 304
#     4   9  19  35  52  71 100 140 179 210 249 307
#
# _framework density 17.336269000000001
#
# number of rings (size 3 to 8) (size 9 to 14) (size 15 to 20)
#    0.000    2.833    0.000    2.000    2.333    2.500 
#    0.000    3.333    0.000    0.000    0.000    0.000 
#    0.000    0.333    0.000    0.000    0.000    0.000 
#
# Total GULP energy -535297.568692 kJ/mol
# GULP energy per Si atom -5576.016341 kJ/mol
# Density = 1.729681 g / cm^3
# Si number density = 17.336269 Si / 1000 Ang^3
#
#
#
# Elastic Constant Matrix: (Units=GPa)
#
#
# Indices 1 2 3 4 5 6 
#
# 1 -88.2591 189.2211 59.6659 0.0000 0.0000 0.0000
# 2 189.2211 -88.2591 59.6659 0.0000 0.0000 0.0000
# 3 59.6659 59.6659 131.5945 0.0000 0.0000 0.0000
# 4 0.0000 0.0000 0.0000 16.2166 0.0000 0.0000
# 5 0.0000 0.0000 0.0000 0.0000 16.2166 0.0000
# 6 0.0000 0.0000 0.0000 0.0000 0.0000 17.7012
#
#
#
# Elastic Compliance Matrix: (Units=1/GPa)
#
#
# Indices 1 2 3 4 5 6 
#
# 1 0.008869 0.012473 -0.009677 0.000000 0.000000 0.000000
# 2 0.012473 0.008869 -0.009677 0.000000 0.000000 0.000000
# 3 -0.009677 -0.009677 0.016374 0.000000 0.000000 0.000000
# 4 0.000000 0.000000 0.000000 0.061665 0.000000 0.000000
# 5 0.000000 0.000000 0.000000 0.000000 0.061665 0.000000
# 6 0.000000 0.000000 0.000000 0.000000 0.000000 0.056493
#
#
# Mechanical properties :
#
#
# Convention : Reuss Voigt Hill
#
# Bulk Modulus (GPa) = 49.13644 63.57577 56.35611
# Shear Modulus (GPa) = 21.32379 -13.53821 3.89279
#
# Velocity S-wave (km/s) = 3.51095 -2.79752 1.50011
# Velocity P-wave (km/s) = 6.69630 5.13000 5.96478
#
# Compressibility (1/GPa) = 0.02035149
#
# Stress axis : x y z
#
# Youngs Moduli (GPa) = 112.75197 112.75197 61.07265
#
# Poissons Ratio (x) = -1.40634 0.59097
# Poissons Ratio (y) = -1.40634 0.59097
# Poissons Ratio (z) = 1.09105 1.09105
#
# Static dielectric constant tensor:
#      x y z
#    x 1.607350 0.000000 0.000000 
#    y 0.000000 1.607350 0.000000 
#    z 0.000000 0.000000 1.569240 
# 
# From -- ./inp_files/7794.got.cif
#   From: 2010.05.17/outbox.cif.g08.bks.cpg/sg137_4_cif.got.tgz:7794.got - 2010.05.20 13:01:12.
