data_PCOD9570803
_publ_section_title
;
Structure prediction by ZEFSAII (Michael W. Deem and Ramdas Pophale) SiO2 
 PCOD9570803
Probable space group: P 42/N C M
;
_chemical_formula_sum "Si O2"
_cell_formula_units_Z 96
_cell_length_a 16.507780
_cell_length_b 16.507780
_cell_length_c 18.017851
_cell_angle_alpha 90.000000
_cell_angle_beta 90.000000
_cell_angle_gamma 90.000000
_cell_volume 4909.986928
_symmetry_space_group_name_H-M "P 42/N C M"
_symmetry_group_IT_number 138
_space_group.IT_coordinate_system_code '2'
_symmetry_cell_setting 'tetragonal'
loop_
_space_group_symop_operation_xyz
x,y,z
1/2-y,x,1/2+z
1/2-x,1/2-y,z
y,1/2-x,1/2+z
1/2+x,-y,1/2-z
-x,1/2+y,1/2-z
1/2+y,1/2+x,-z
-y,-x,-z
-x,-y,-z
1/2+y,-x,1/2-z
1/2+x,1/2+y,-z
-y,1/2+x,1/2-z
1/2-x,y,1/2+z
x,1/2-y,1/2+z
1/2-y,1/2-x,z
y,x,z
loop_
_atom_site_type_symbol
_atom_site_label
_atom_site_fract_x
_atom_site_fract_y
_atom_site_fract_z
Si Si1 0.046691 0.329489 0.199579
Si Si2 0.681934 0.183115 0.159959
Si Si3 0.446843 0.691373 0.791181
Si Si4 0.000742 0.128278 0.533564
Si Si5 0.228557 0.901641 0.965663
Si Si6 0.473917 0.601829 0.147700
O O1 0.138065 0.361936 0.201153
O O2 0.033459 0.233919 0.211176
O O3 0.009784 0.366152 0.123039
O O4 0.002556 0.366612 0.271893
O O5 0.750000 0.250000 0.177033
O O6 0.680843 0.106564 0.215924
O O7 0.604182 0.238895 0.167154
O O8 0.705431 0.150534 0.079886
O O9 0.445650 0.608904 0.835747
O O10 0.935281 0.064720 0.500000
O O11 0.968095 0.217304 0.509345
O O12 0.087707 0.087707 0.508953
O O13 0.174991 0.950792 0.905810
O O14 0.163589 0.836412 0.000000
O O15 0.542732 0.542732 0.117113
#
# Coordination Sequence:
#
# PCOD9570803 Si02
#       6
#    16  16  16  16  16  16
#     4  10  20  36  57  81 113 155 201 243 295 359
#     4  12  19  31  52  90 119 146 188 239 301 371
#     4  12  18  34  58  85 118 150 188 249 300 357
#     4  10  23  37  53  85 127 162 197 246 307 377
#     4  12  25  36  58  89 124 161 201 252 312 381
#     4  11  24  39  59  87 118 159 203 251 303 362
#
# _framework density 19.551987
#
# number of rings (size 3 to 8) (size 9 to 14) (size 15 to 20)
#    0.000    0.833    6.667    2.000    2.333    0.333 
#    0.000    0.000    0.000    1.000    0.000    4.667 
#    0.000    0.000    0.000    0.000    0.000    0.000 
#
# Total GULP energy -534575.857325 kJ/mol
# GULP energy per Si atom -5568.498514 kJ/mol
# Density = 1.950749 g / cm^3
# Si number density = 19.551987 Si / 1000 Ang^3
#
#
#
# Elastic Constant Matrix: (Units=GPa)
#
#
# Indices 1 2 3 4 5 6 
#
# 1 37.3920 44.1477 26.1423 0.0000 0.0000 0.0000
# 2 44.1477 37.3921 26.1426 0.0000 0.0000 0.0000
# 3 26.1423 26.1426 89.8479 0.0000 0.0000 0.0000
# 4 0.0000 0.0000 0.0000 18.2806 0.0000 0.0000
# 5 0.0000 0.0000 0.0000 0.0000 18.2805 0.0000
# 6 0.0000 0.0000 0.0000 0.0000 0.0000 41.5857
#
#
#
# Elastic Compliance Matrix: (Units=1/GPa)
#
#
# Indices 1 2 3 4 5 6 
#
# 1 -0.066474 0.081551 -0.004387 0.000000 0.000000 0.000000
# 2 0.081551 -0.066474 -0.004387 0.000000 0.000000 0.000000
# 3 -0.004387 -0.004387 0.013683 0.000000 0.000000 0.000000
# 4 0.000000 0.000000 0.000000 0.054703 0.000000 0.000000
# 5 0.000000 0.000000 0.000000 0.000000 0.054703 0.000000
# 6 0.000000 0.000000 0.000000 0.000000 0.000000 0.024047
#
#
# Mechanical properties :
#
#
# Convention : Reuss Voigt Hill
#
# Bulk Modulus (GPa) = 38.03843 39.72191 38.88017
# Shear Modulus (GPa) = -40.78175 20.17600 -10.30288
#
# Velocity S-wave (km/s) = -4.57202 3.21583 -2.29802
# Velocity P-wave (km/s) = 2.89377 5.84371 3.58991
#
# Compressibility (1/GPa) = 0.02628920
#
# Stress axis : x y z
#
# Youngs Moduli (GPa) = -15.04351 -15.04347 73.08480
#
# Poissons Ratio (x) = 1.22681 0.32063
# Poissons Ratio (y) = 1.22681 0.32059
# Poissons Ratio (z) = -0.06600 -0.06599
#
# Static dielectric constant tensor:
#      x y z
#    x 1.861280 0.000000 0.000000 
#    y 0.000000 1.861280 0.000000 
#    z 0.000000 0.000000 1.764040 
# 
# From -- ./inp_files/5240.got.cif
#   From: 2010.05.17/outbox.cif.g08.bks.cpg/sg138_3_cif.got.tgz:5240.got - 2010.05.20 13:08:53.
