data_PCOD9570905
_publ_section_title
;
Structure prediction by ZEFSAII (Michael W. Deem and Ramdas Pophale) SiO2 
 PCOD9570905
Probable space group: P 42/N C M
;
_chemical_formula_sum "Si O2"
_cell_formula_units_Z 96
_cell_length_a 17.219188
_cell_length_b 17.219188
_cell_length_c 18.175651
_cell_angle_alpha 90.000000
_cell_angle_beta 90.000000
_cell_angle_gamma 90.000000
_cell_volume 5389.088435
_symmetry_space_group_name_H-M "P 42/N C M"
_symmetry_group_IT_number 138
_space_group.IT_coordinate_system_code '2'
_symmetry_cell_setting 'tetragonal'
loop_
_space_group_symop_operation_xyz
x,y,z
1/2-y,x,1/2+z
1/2-x,1/2-y,z
y,1/2-x,1/2+z
1/2+x,-y,1/2-z
-x,1/2+y,1/2-z
1/2+y,1/2+x,-z
-y,-x,-z
-x,-y,-z
1/2+y,-x,1/2-z
1/2+x,1/2+y,-z
-y,1/2+x,1/2-z
1/2-x,y,1/2+z
x,1/2-y,1/2+z
1/2-y,1/2-x,z
y,x,z
loop_
_atom_site_type_symbol
_atom_site_label
_atom_site_fract_x
_atom_site_fract_y
_atom_site_fract_z
Si Si1 0.075618 0.868404 0.223874
Si Si2 0.945069 0.322621 0.031908
Si Si3 0.201803 0.671872 0.152402
Si Si4 0.759703 0.033979 0.621246
Si Si5 0.968397 0.662798 0.261460
Si Si6 0.827015 0.553140 0.834422
O O1 0.126778 0.804786 0.270310
O O2 0.050886 0.827817 0.148115
O O3 0.999769 0.872675 0.274798
O O4 0.121533 0.948960 0.219663
O O5 0.884628 0.275384 0.084814
O O6 0.012896 0.344936 0.087828
O O7 0.896420 0.396420 0.000000
O O8 0.979598 0.273466 0.964490
O O9 0.250000 0.750000 0.154372
O O10 0.114141 0.694782 0.134532
O O11 0.799712 0.975865 0.679439
O O12 0.901059 0.598942 0.264787
O O13 0.953202 0.736338 0.314253
O O14 0.861025 0.638976 0.831634
#
# Coordination Sequence:
#
# PCOD9570905 Si02
#       6
#    16  16  16  16  16  16
#     4   9  19  33  52  80 110 147 184 224 276 333
#     4   9  19  34  47  82 116 148 182 214 273 336
#     4   9  18  27  44  73 117 159 183 208 257 328
#     4   9  19  30  50  79 108 144 181 225 270 330
#     4  10  21  38  57  80 108 144 189 234 281 329
#     4  10  21  37  58  82 108 143 188 231 279 338
#
# _framework density 17.813773999999999
#
# number of rings (size 3 to 8) (size 9 to 14) (size 15 to 20)
#    0.000    2.667    0.000    1.500    9.333    4.333 
#    3.000    0.000    0.000    6.000    0.000    4.667 
#    0.000    0.000    0.000    0.000    0.000    0.000 
#
# Total GULP energy -534838.174994 kJ/mol
# GULP energy per Si atom -5571.230990 kJ/mol
# Density = 1.777323 g / cm^3
# Si number density = 17.813774 Si / 1000 Ang^3
#
#
#
# Elastic Constant Matrix: (Units=GPa)
#
#
# Indices 1 2 3 4 5 6 
#
# 1 80.7850 58.3284 38.3603 0.0000 0.0000 0.0000
# 2 58.3284 80.7850 38.3603 0.0000 0.0000 0.0000
# 3 38.3603 38.3603 101.2206 0.0000 0.0000 0.0000
# 4 0.0000 0.0000 0.0000 3.3960 0.0000 0.0000
# 5 0.0000 0.0000 0.0000 0.0000 3.3960 0.0000
# 6 0.0000 0.0000 0.0000 0.0000 0.0000 33.4469
#
#
#
# Elastic Compliance Matrix: (Units=1/GPa)
#
#
# Indices 1 2 3 4 5 6 
#
# 1 0.026809 -0.017721 -0.003444 0.000000 0.000000 0.000000
# 2 -0.017721 0.026809 -0.003444 0.000000 0.000000 0.000000
# 3 -0.003444 -0.003444 0.012490 0.000000 0.000000 0.000000
# 4 0.000000 0.000000 0.000000 0.294467 0.000000 0.000000
# 5 0.000000 0.000000 0.000000 0.000000 0.294467 0.000000
# 6 0.000000 0.000000 0.000000 0.000000 0.000000 0.029898
#
#
# Mechanical properties :
#
#
# Convention : Reuss Voigt Hill
#
# Bulk Modulus (GPa) = 59.20961 59.20987 59.20974
# Shear Modulus (GPa) = 6.75868 16.56387 11.66128
#
# Velocity S-wave (km/s) = 1.94995 3.05263 2.56133
# Velocity P-wave (km/s) = 6.19516 6.76277 6.48518
#
# Compressibility (1/GPa) = 0.01688915
#
# Stress axis : x y z
#
# Youngs Moduli (GPa) = 37.30088 37.30088 80.06506
#
# Poissons Ratio (x) = 0.66102 0.27575
# Poissons Ratio (y) = 0.66102 0.27575
# Poissons Ratio (z) = 0.12847 0.12847
#
# Static dielectric constant tensor:
#      x y z
#    x 1.625840 0.000000 0.000000 
#    y 0.000000 1.625840 0.000000 
#    z 0.000000 0.000000 1.655200 
# 
# From -- ./inp_files/5198.got.cif
#   From: 2010.05.17/outbox.cif.g08.bks.cpg/sg138_3_cif.got.tgz:5198.got - 2010.05.20 13:08:53.
