data_PCOD9570071
_publ_section_title
;
Structure prediction by ZEFSAII (Michael W. Deem and Ramdas Pophale) SiO2 
 PCOD9570071
Probable space group: P 42/N M C
;
_chemical_formula_sum "Si O2"
_cell_formula_units_Z 80
_cell_length_a 13.329752
_cell_length_b 13.329752
_cell_length_c 21.892088
_cell_angle_alpha 90.000000
_cell_angle_beta 90.000000
_cell_angle_gamma 90.000000
_cell_volume 3889.836293
_symmetry_space_group_name_H-M "P 42/N M C"
_symmetry_group_IT_number 137
_space_group.IT_coordinate_system_code '2'
_symmetry_cell_setting 'tetragonal'
loop_
_space_group_symop_operation_xyz
x,y,z
1/2-y,x,1/2+z
1/2-x,1/2-y,z
y,1/2-x,1/2+z
1/2+x,-y,-z
-x,1/2+y,-z
1/2+y,1/2+x,1/2-z
-y,-x,1/2-z
-x,-y,-z
1/2+y,-x,1/2-z
1/2+x,1/2+y,-z
-y,1/2+x,1/2-z
1/2-x,y,z
x,1/2-y,z
1/2-y,1/2-x,1/2+z
y,x,1/2+z
loop_
_atom_site_type_symbol
_atom_site_label
_atom_site_fract_x
_atom_site_fract_y
_atom_site_fract_z
Si Si1 0.132675 0.863552 0.439815
Si Si2 0.135110 0.034829 0.747950
Si Si3 0.640110 0.991132 0.119274
Si Si4 0.633256 0.576630 0.504497
Si Si5 0.079454 0.055168 0.125918
O O1 0.250000 0.868974 0.423917
O O2 0.113289 0.750000 0.462798
O O3 0.059454 0.885908 0.383083
O O4 0.112139 0.956408 0.485814
O O5 0.060441 0.939560 0.750000
O O6 0.250000 0.006052 0.735308
O O7 0.131887 0.073638 0.817854
O O8 0.099312 0.104301 0.691930
O O9 0.750000 0.040610 0.121241
O O10 0.542007 0.060400 0.121374
O O11 0.630283 0.926335 0.058418
O O12 0.750000 0.590893 0.514481
O O13 0.606500 0.613983 0.436833
#
# Coordination Sequence:
#
# PCOD9570071 Si02
#       5
#    16  16  16  16  16
#     4   9  18  33  52  74 101 134 175 222 269 317
#     4   9  18  33  53  77 107 142 175 210 258 316
#     4   9  18  33  52  73 100 137 175 208 251 311
#     4  10  20  32  50  77 105 136 175 216 262 316
#     4  10  19  32  53  79 107 138 172 220 270 312
#
# _framework density 20.566417000000001
#
# number of rings (size 3 to 8) (size 9 to 14) (size 15 to 20)
#    0.000    2.600    0.000    3.000    0.000    3.800 
#    0.000    1.000    0.000   24.600    0.000   35.000 
#    0.000    0.000    0.000    0.000    0.000    0.000 
#
# Total GULP energy -445387.808953 kJ/mol
# GULP energy per Si atom -5567.347612 kJ/mol
# Density = 2.051961 g / cm^3
# Si number density = 20.566417 Si / 1000 Ang^3
#
#
#
# Elastic Constant Matrix: (Units=GPa)
#
#
# Indices 1 2 3 4 5 6 
#
# 1 48.7106 7.2006 6.7491 0.0000 0.0000 0.0000
# 2 7.2006 48.7112 6.7493 0.0000 0.0000 0.0000
# 3 6.7491 6.7493 141.5910 0.0000 0.0000 0.0000
# 4 0.0000 0.0000 0.0000 14.3711 0.0000 0.0000
# 5 0.0000 0.0000 0.0000 0.0000 14.3709 0.0000
# 6 0.0000 0.0000 0.0000 0.0000 0.0000 10.4201
#
#
#
# Elastic Compliance Matrix: (Units=1/GPa)
#
#
# Indices 1 2 3 4 5 6 
#
# 1 0.021092 -0.002998 -0.000862 0.000000 0.000000 0.000000
# 2 -0.002998 0.021092 -0.000862 0.000000 0.000000 0.000000
# 3 -0.000862 -0.000862 0.007145 0.000000 0.000000 0.000000
# 4 0.000000 0.000000 0.000000 0.069584 0.000000 0.000000
# 5 0.000000 0.000000 0.000000 0.000000 0.069585 0.000000
# 6 0.000000 0.000000 0.000000 0.000000 0.000000 0.095968
#
#
# Mechanical properties :
#
#
# Convention : Reuss Voigt Hill
#
# Bulk Modulus (GPa) = 25.07381 31.15672 28.11527
# Shear Modulus (GPa) = 16.27567 22.38667 19.33117
#
# Velocity S-wave (km/s) = 2.81618 3.30283 3.06917
# Velocity P-wave (km/s) = 4.77416 5.45226 5.12444
#
# Compressibility (1/GPa) = 0.03988225
#
# Stress axis : x y z
#
# Youngs Moduli (GPa) = 47.41101 47.41162 139.96154
#
# Poissons Ratio (x) = 0.14216 0.12071
# Poissons Ratio (y) = 0.14216 0.12071
# Poissons Ratio (z) = 0.04089 0.04089
#
# Static dielectric constant tensor:
#      x y z
#    x 1.759140 0.000000 0.000000 
#    y 0.000000 1.759140 0.000000 
#    z 0.000000 0.000000 1.783420 
# 
# From -- ./inp_files/7606.got.cif
#   From: 2010.05.17/outbox.cif.g08.bks.cpg/sg137_4_cif.got.tgz:7606.got - 2010.05.20 13:01:12.
