data_PCOD9570795
_publ_section_title
;
Structure prediction by ZEFSAII (Michael W. Deem and Ramdas Pophale) SiO2 
 PCOD9570795
Probable space group: P 42/N C M
;
_chemical_formula_sum "Si O2"
_cell_formula_units_Z 80
_cell_length_a 13.103495
_cell_length_b 13.103495
_cell_length_c 25.213011
_cell_angle_alpha 90.000000
_cell_angle_beta 90.000000
_cell_angle_gamma 90.000000
_cell_volume 4329.113856
_symmetry_space_group_name_H-M "P 42/N C M"
_symmetry_group_IT_number 138
_space_group.IT_coordinate_system_code '2'
_symmetry_cell_setting 'tetragonal'
loop_
_space_group_symop_operation_xyz
x,y,z
1/2-y,x,1/2+z
1/2-x,1/2-y,z
y,1/2-x,1/2+z
1/2+x,-y,1/2-z
-x,1/2+y,1/2-z
1/2+y,1/2+x,-z
-y,-x,-z
-x,-y,-z
1/2+y,-x,1/2-z
1/2+x,1/2+y,-z
-y,1/2+x,1/2-z
1/2-x,y,1/2+z
x,1/2-y,1/2+z
1/2-y,1/2-x,z
y,x,z
loop_
_atom_site_type_symbol
_atom_site_label
_atom_site_fract_x
_atom_site_fract_y
_atom_site_fract_z
Si Si1 0.330656 0.996908 0.125645
Si Si2 0.917190 0.755072 0.268892
Si Si3 0.245830 0.080653 0.924605
Si Si4 0.017037 0.658013 0.174592
Si Si5 0.417211 0.751043 0.984997
O O1 0.382896 0.903056 0.157353
O O2 0.269208 0.955101 0.075109
O O3 0.421748 0.078253 0.110264
O O4 0.262084 0.050926 0.170033
O O5 0.828813 0.671188 0.263044
O O6 0.863967 0.863967 0.254857
O O7 0.006600 0.720815 0.229044
O O8 0.336379 0.163622 0.927248
O O9 0.141873 0.141873 0.918187
O O10 0.268098 0.011544 0.873752
O O11 0.246399 0.014413 0.977214
O O12 0.929679 0.570321 0.176926
O O13 0.349695 0.849695 0.000000
O O14 0.345412 0.654589 0.000000
#
# Coordination Sequence:
#
# PCOD9570795 Si02
#       5
#    16  16  16  16  16
#     4  10  20  36  60  84 109 151 196 233 284 349
#     4   9  18  34  56  83 115 147 184 235 286 335
#     4  10  20  35  60  88 109 142 193 241 285 336
#     4   9  17  33  56  83 113 143 183 230 278 334
#     4  11  23  39  56  79 117 155 190 235 291 344
#
# _framework density 18.479533
#
# number of rings (size 3 to 8) (size 9 to 14) (size 15 to 20)
#    0.000    2.200    2.000    1.200    0.000    4.400 
#    3.600    2.000    0.000    0.000    0.000    0.000 
#    0.000    0.000    0.000    0.000    0.000    0.000 
#
# Total GULP energy -445880.761360 kJ/mol
# GULP energy per Si atom -5573.509517 kJ/mol
# Density = 1.843747 g / cm^3
# Si number density = 18.479533 Si / 1000 Ang^3
#
#
#
# Elastic Constant Matrix: (Units=GPa)
#
#
# Indices 1 2 3 4 5 6 
#
# 1 25.8279 -1.1934 10.4370 0.0000 0.0000 0.0000
# 2 -1.1934 25.8270 10.4351 0.0000 0.0000 0.0000
# 3 10.4370 10.4351 96.8120 0.0000 0.0000 0.0000
# 4 0.0000 0.0000 0.0000 31.1021 0.0000 0.0000
# 5 0.0000 0.0000 0.0000 0.0000 31.1017 0.0000
# 6 0.0000 0.0000 0.0000 0.0000 0.0000 8.4359
#
#
#
# Elastic Compliance Matrix: (Units=1/GPa)
#
#
# Indices 1 2 3 4 5 6 
#
# 1 0.040841 0.003833 -0.004816 0.000000 0.000000 0.000000
# 2 0.003833 0.040842 -0.004815 0.000000 0.000000 0.000000
# 3 -0.004816 -0.004815 0.011368 0.000000 0.000000 0.000000
# 4 0.000000 0.000000 0.000000 0.032152 0.000000 0.000000
# 5 0.000000 0.000000 0.000000 0.000000 0.032153 0.000000
# 6 0.000000 0.000000 0.000000 0.000000 0.000000 0.118541
#
#
# Mechanical properties :
#
#
# Convention : Reuss Voigt Hill
#
# Bulk Modulus (GPa) = 12.27694 20.86938 16.57316
# Shear Modulus (GPa) = 15.89095 22.71382 19.30238
#
# Velocity S-wave (km/s) = 2.93562 3.50970 3.23542
# Velocity P-wave (km/s) = 4.26010 5.26705 4.79011
#
# Compressibility (1/GPa) = 0.08145352
#
# Stress axis : x y z
#
# Youngs Moduli (GPa) = 24.48513 24.48467 87.96956
#
# Poissons Ratio (x) = -0.09385 0.42367
# Poissons Ratio (y) = -0.09385 0.42362
# Poissons Ratio (z) = 0.11792 0.11791
#
# Static dielectric constant tensor:
#      x y z
#    x 1.654500 0.000000 0.000000 
#    y 0.000000 1.654500 0.000000 
#    z 0.000000 0.000000 1.612680 
# 
# From -- ./inp_files/6023.got.cif
#   From: 2010.05.17/outbox.cif.g08.bks.cpg/sg138_4_cif.got.tgz:6023.got - 2010.05.20 13:08:53.
