data_PCOD9570859
_publ_section_title
;
Structure prediction by ZEFSAII (Michael W. Deem and Ramdas Pophale) SiO2 
 PCOD9570859
Probable space group: P 42/N C M
;
_chemical_formula_sum "Si O2"
_cell_formula_units_Z 64
_cell_length_a 11.518575
_cell_length_b 11.518575
_cell_length_c 19.645149
_cell_angle_alpha 90.000000
_cell_angle_beta 90.000000
_cell_angle_gamma 90.000000
_cell_volume 2606.470632
_symmetry_space_group_name_H-M "P 42/N C M"
_symmetry_group_IT_number 138
_space_group.IT_coordinate_system_code '2'
_symmetry_cell_setting 'tetragonal'
loop_
_space_group_symop_operation_xyz
x,y,z
1/2-y,x,1/2+z
1/2-x,1/2-y,z
y,1/2-x,1/2+z
1/2+x,-y,1/2-z
-x,1/2+y,1/2-z
1/2+y,1/2+x,-z
-y,-x,-z
-x,-y,-z
1/2+y,-x,1/2-z
1/2+x,1/2+y,-z
-y,1/2+x,1/2-z
1/2-x,y,1/2+z
x,1/2-y,1/2+z
1/2-y,1/2-x,z
y,x,z
loop_
_atom_site_type_symbol
_atom_site_label
_atom_site_fract_x
_atom_site_fract_y
_atom_site_fract_z
Si Si1 0.507278 0.315781 0.531141
Si Si2 0.010332 0.673530 0.181178
Si Si3 0.539427 0.145536 0.433354
Si Si4 0.207825 0.479158 0.176685
O O1 0.623577 0.376424 0.500000
O O2 0.424423 0.424423 0.547014
O O3 0.455825 0.236732 0.472666
O O4 0.509743 0.243830 0.601804
O O5 0.893877 0.606124 0.156210
O O6 0.058950 0.780755 0.135479
O O7 0.109066 0.576677 0.182813
O O8 0.988272 0.712505 0.258186
O O9 0.624157 0.124157 0.500000
O O10 0.472346 0.027655 0.418195
O O11 0.145933 0.354068 0.177305
#
# Coordination Sequence:
#
# PCOD9570859 Si02
#       4
#    16  16  16  16
#     4  10  20  41  66  91 127 171 217 274 340 402
#     4  11  24  45  69  96 139 183 223 282 354 420
#     4  11  25  42  65  98 133 173 225 281 334 404
#     4  10  23  41  65  96 131 172 223 278 337 411
#
# _framework density 24.554279000000001
#
# number of rings (size 3 to 8) (size 9 to 14) (size 15 to 20)
#    0.000    1.500    2.500    1.500    3.500    5.500 
#    0.000    2.500    0.000    0.000    0.000    0.000 
#    0.000    0.000    0.000    0.000    0.000    0.000 
#
# Total GULP energy -356774.808414 kJ/mol
# GULP energy per Si atom -5574.606381 kJ/mol
# Density = 2.449839 g / cm^3
# Si number density = 24.554279 Si / 1000 Ang^3
#
#
#
# Elastic Constant Matrix: (Units=GPa)
#
#
# Indices 1 2 3 4 5 6 
#
# 1 1404.9643-1327.5546 11.4700 0.0000 0.0000 0.0000
# 2 -1327.5546 1404.9277 11.5495 0.0000 0.0000 0.0000
# 3 11.4700 11.5495 125.2537 0.0000 0.0000 0.0000
# 4 0.0000 0.0000 0.0000 35.9955 0.0000 0.0000
# 5 0.0000 0.0000 0.0000 0.0000 35.9951 0.0000
# 6 0.0000 0.0000 0.0000 0.0000 0.0000 23.5294
#
#
#
# Elastic Compliance Matrix: (Units=1/GPa)
#
#
# Indices 1 2 3 4 5 6 
#
# 1 0.006825 0.006459 -0.001221 0.000000 0.000000 0.000000
# 2 0.006459 0.006825 -0.001221 0.000000 0.000000 0.000000
# 3 -0.001221 -0.001221 0.008208 0.000000 0.000000 0.000000
# 4 0.000000 0.000000 0.000000 0.027781 0.000000 0.000000
# 5 0.000000 0.000000 0.000000 0.000000 0.027782 0.000000
# 6 0.000000 0.000000 0.000000 0.000000 0.000000 0.042500
#
#
# Mechanical properties :
#
#
# Convention : Reuss Voigt Hill
#
# Bulk Modulus (GPa) = 33.45140 36.23060 34.84100
# Shear Modulus (GPa) = 41.03387 301.74938 171.39162
#
# Velocity S-wave (km/s) = 4.09240 11.09764 8.36377
# Velocity P-wave (km/s) = 5.99862 13.37899 10.36776
#
# Compressibility (1/GPa) = 0.02989411
#
# Stress axis : x y z
#
# Youngs Moduli (GPa) = 146.51851 146.51316 121.83020
#
# Poissons Ratio (x) = -0.94636 0.14871
# Poissons Ratio (y) = -0.94640 0.14874
# Poissons Ratio (z) = 0.17884 0.17887
#
# Static dielectric constant tensor:
#      x y z
#    x 2.099620 0.000000 0.000000 
#    y 0.000000 2.099620 0.000000 
#    z 0.000000 0.000000 1.955370 
# 
# From -- ./inp_files/5858.got.cif
#   From: 2010.05.17/outbox.cif.g08.bks.cpg/sg138_3_cif.got.tgz:5858.got - 2010.05.20 13:08:53.
