data_PCOD9570519
_publ_section_title
;
Structure prediction by ZEFSAII (Michael W. Deem and Ramdas Pophale) SiO2 
 PCOD9570519
Probable space group: P 42/N M C
;
_chemical_formula_sum "Si O2"
_cell_formula_units_Z 64
_cell_length_a 15.759070
_cell_length_b 15.759070
_cell_length_c 13.250381
_cell_angle_alpha 90.000000
_cell_angle_beta 90.000000
_cell_angle_gamma 90.000000
_cell_volume 3290.709427
_symmetry_space_group_name_H-M "P 42/N M C"
_symmetry_group_IT_number 137
_space_group.IT_coordinate_system_code '2'
_symmetry_cell_setting 'tetragonal'
loop_
_space_group_symop_operation_xyz
x,y,z
1/2-y,x,1/2+z
1/2-x,1/2-y,z
y,1/2-x,1/2+z
1/2+x,-y,-z
-x,1/2+y,-z
1/2+y,1/2+x,1/2-z
-y,-x,1/2-z
-x,-y,-z
1/2+y,-x,1/2-z
1/2+x,1/2+y,-z
-y,1/2+x,1/2-z
1/2-x,y,z
x,1/2-y,z
1/2-y,1/2-x,1/2+z
y,x,1/2+z
loop_
_atom_site_type_symbol
_atom_site_label
_atom_site_fract_x
_atom_site_fract_y
_atom_site_fract_z
Si Si1 0.898040 0.845405 0.710756
Si Si2 0.929645 0.344412 0.158941
Si Si3 0.481503 0.847696 0.528074
Si Si4 0.655234 0.479651 0.791288
O O1 0.861267 0.750000 0.721487
O O2 0.846588 0.928948 0.737421
O O3 0.979334 0.849942 0.786321
O O4 0.935383 0.853956 0.597768
O O5 0.864768 0.364768 0.250000
O O6 0.917777 0.250000 0.119316
O O7 0.912591 0.413609 0.073803
O O8 0.450401 0.750000 0.543110
O O9 0.495010 0.860179 0.410205
O O10 0.582826 0.417175 0.750000
O O11 0.750000 0.442596 0.779439
#
# Coordination Sequence:
#
# PCOD9570519 Si02
#       4
#    16  16  16  16
#     4   9  19  37  60  84 108 137 182 239 292 338
#     4   9  16  27  49  80 108 138 181 233 287 337
#     4   9  19  35  53  77 112 149 184 229 282 331
#     4  11  24  40  58  81 114 156 193 226 270 328
#
# _framework density 19.448694
#
# number of rings (size 3 to 8) (size 9 to 14) (size 15 to 20)
#    0.000    2.500    0.000    4.500    0.000    7.500 
#    0.000    6.250    0.000    4.500    0.000    0.000 
#    0.000    0.000    0.000    0.000    0.000    0.000 
#
# Total GULP energy -356934.940487 kJ/mol
# GULP energy per Si atom -5577.108445 kJ/mol
# Density = 1.940443 g / cm^3
# Si number density = 19.448694 Si / 1000 Ang^3
#
#
#
# Elastic Constant Matrix: (Units=GPa)
#
#
# Indices 1 2 3 4 5 6 
#
# 1 69.5244 42.8516 36.9264 0.0000 0.0000 0.0000
# 2 42.8516 69.5228 36.9225 0.0000 0.0000 0.0000
# 3 36.9264 36.9225 91.0549 0.0000 0.0000 0.0000
# 4 0.0000 0.0000 0.0000 16.6162 0.0000 0.0000
# 5 0.0000 0.0000 0.0000 0.0000 16.6159 0.0000
# 6 0.0000 0.0000 0.0000 0.0000 0.0000 -1.0230
#
#
#
# Elastic Compliance Matrix: (Units=1/GPa)
#
#
# Indices 1 2 3 4 5 6 
#
# 1 0.024812 -0.012680 -0.004921 0.000000 0.000000 0.000000
# 2 -0.012680 0.024812 -0.004919 0.000000 0.000000 0.000000
# 3 -0.004921 -0.004919 0.014972 0.000000 0.000000 0.000000
# 4 0.000000 0.000000 0.000000 0.060182 0.000000 0.000000
# 5 0.000000 0.000000 0.000000 0.000000 0.060183 0.000000
# 6 0.000000 0.000000 0.000000 0.000000 0.000000 -0.977499
#
#
# Mechanical properties :
#
#
# Convention : Reuss Voigt Hill
#
# Bulk Modulus (GPa) = 51.13172 51.50034 51.31603
# Shear Modulus (GPa) = -6.74783 14.00192 3.62704
#
# Velocity S-wave (km/s) = -1.86470 2.68608 1.36711
# Velocity P-wave (km/s) = 4.65956 6.01312 5.37909
#
# Compressibility (1/GPa) = 0.01955733
#
# Stress axis : x y z
#
# Youngs Moduli (GPa) = 40.30231 40.30350 66.78952
#
# Poissons Ratio (x) = 0.51106 0.32865
# Poissons Ratio (y) = 0.51105 0.32852
# Poissons Ratio (z) = 0.19831 0.19824
#
# Static dielectric constant tensor:
#      x y z
#    x 1.689930 0.000000 0.000000 
#    y 0.000000 1.689930 0.000000 
#    z 0.000000 0.000000 1.655320 
# 
# From -- ./inp_files/3334.got.cif
#   From: 2010.05.17/outbox.cif.g08.bks.cpg/sg137_2_cif.got.tgz:3334.got - 2010.05.20 13:01:12.
