data_PCOD9570716
_publ_section_title
;
Structure prediction by ZEFSAII (Michael W. Deem and Ramdas Pophale) SiO2 
 PCOD9570716
Probable space group: P 42/N C M
;
_chemical_formula_sum "Si O2"
_cell_formula_units_Z 128
_cell_length_a 23.553753
_cell_length_b 23.553753
_cell_length_c 10.746436
_cell_angle_alpha 90.000000
_cell_angle_beta 90.000000
_cell_angle_gamma 90.000000
_cell_volume 5961.900031
_symmetry_space_group_name_H-M "P 42/N C M"
_symmetry_group_IT_number 138
_space_group.IT_coordinate_system_code '2'
_symmetry_cell_setting 'tetragonal'
loop_
_space_group_symop_operation_xyz
x,y,z
1/2-y,x,1/2+z
1/2-x,1/2-y,z
y,1/2-x,1/2+z
1/2+x,-y,1/2-z
-x,1/2+y,1/2-z
1/2+y,1/2+x,-z
-y,-x,-z
-x,-y,-z
1/2+y,-x,1/2-z
1/2+x,1/2+y,-z
-y,1/2+x,1/2-z
1/2-x,y,1/2+z
x,1/2-y,1/2+z
1/2-y,1/2-x,z
y,x,z
loop_
_atom_site_type_symbol
_atom_site_label
_atom_site_fract_x
_atom_site_fract_y
_atom_site_fract_z
Si Si1 0.644994 0.103989 0.655919
Si Si2 0.351539 0.760947 0.025910
Si Si3 0.193602 0.398812 0.360123
Si Si4 0.063863 0.675344 0.190190
Si Si5 0.630888 0.542220 0.771089
Si Si6 0.221301 0.945465 0.657769
Si Si7 0.933382 0.748227 0.897459
Si Si8 0.989030 0.599944 0.543851
O O1 0.701093 0.138034 0.601121
O O2 0.596356 0.146981 0.694584
O O3 0.662494 0.072257 0.783745
O O4 0.620436 0.052068 0.576842
O O5 0.387865 0.810571 0.092591
O O6 0.290531 0.790531 0.000000
O O7 0.388026 0.754781 0.901862
O O8 0.160202 0.339799 0.374628
O O9 0.211203 0.407410 0.215704
O O10 0.242043 0.404347 0.467850
O O11 0.148468 0.448093 0.397511
O O12 0.040968 0.737464 0.227087
O O13 0.007599 0.639093 0.171098
O O14 0.594033 0.594033 0.723568
O O15 0.690141 0.562942 0.830517
O O16 0.601732 0.516569 0.894800
O O17 0.226061 0.002020 0.577282
O O18 0.960224 0.539777 0.584691
#
# Coordination Sequence:
#
# PCOD9570716 Si02
#       8
#    16  16  16  16  16  16  16  16
#     4  11  20  36  57  83 118 151 201 250 310 374
#     4  11  22  38  58  79 114 161 209 256 302 363
#     4  10  20  36  59  91 123 155 201 255 307 368
#     4  10  22  36  58  82 111 151 197 250 304 374
#     4   9  19  35  57  87 118 149 190 242 306 376
#     4  10  21  35  57  82 108 156 210 246 299 361
#     4  10  19  35  64  89 119 161 206 253 306 375
#     4   9  18  34  57  89 120 148 190 254 314 370
#
# _framework density 21.469664999999999
#
# number of rings (size 3 to 8) (size 9 to 14) (size 15 to 20)
#    0.000    2.000    2.500    3.375    3.500    2.500 
#    0.000    3.750    0.000    4.125    0.000    0.000 
#    0.000    0.000    0.000    0.000    0.000    0.000 
#
# Total GULP energy -712599.294733 kJ/mol
# GULP energy per Si atom -5567.181990 kJ/mol
# Density = 2.142080 g / cm^3
# Si number density = 21.469665 Si / 1000 Ang^3
#
#
#
# Elastic Constant Matrix: (Units=GPa)
#
#
# Indices 1 2 3 4 5 6 
#
# 1 61.0178 46.5452 7.4645 0.0000 0.0000 0.0000
# 2 46.5452 61.0178 7.4645 0.0000 0.0000 0.0000
# 3 7.4645 7.4645 29.2270 0.0000 0.0000 0.0000
# 4 0.0000 0.0000 0.0000 14.1122 0.0000 0.0000
# 5 0.0000 0.0000 0.0000 0.0000 14.1122 0.0000
# 6 0.0000 0.0000 0.0000 0.0000 0.0000 29.8785
#
#
#
# Elastic Compliance Matrix: (Units=1/GPa)
#
#
# Indices 1 2 3 4 5 6 
#
# 1 0.039367 -0.029729 -0.002462 0.000000 0.000000 0.000000
# 2 -0.029729 0.039367 -0.002462 0.000000 0.000000 0.000000
# 3 -0.002462 -0.002462 0.035472 0.000000 0.000000 0.000000
# 4 0.000000 0.000000 0.000000 0.070860 0.000000 0.000000
# 5 0.000000 0.000000 0.000000 0.000000 0.070860 0.000000
# 6 0.000000 0.000000 0.000000 0.000000 0.000000 0.033469
#
#
# Mechanical properties :
#
#
# Convention : Reuss Voigt Hill
#
# Bulk Modulus (GPa) = 22.27034 30.46788 26.36911
# Shear Modulus (GPa) = 13.38084 17.60649 15.49367
#
# Velocity S-wave (km/s) = 2.49919 2.86678 2.68928
# Velocity P-wave (km/s) = 4.32706 5.01795 4.68526
#
# Compressibility (1/GPa) = 0.04490276
#
# Stress axis : x y z
#
# Youngs Moduli (GPa) = 25.40178 25.40178 28.19100
#
# Poissons Ratio (x) = 0.75516 0.06940
# Poissons Ratio (y) = 0.75516 0.06940
# Poissons Ratio (z) = 0.06253 0.06253
#
# Static dielectric constant tensor:
#      x y z
#    x 1.834460 0.000000 0.000000 
#    y 0.000000 1.834460 0.000000 
#    z 0.000000 0.000000 1.918480 
# 
# From -- ./inp_files/3327.got.cif
#   From: 2010.05.17/outbox.cif.g08.bks.cpg/sg138_2_cif.got.tgz:3327.got - 2010.05.20 13:08:53.
