data_PCOD9570480
_publ_section_title
;
Structure prediction by ZEFSAII (Michael W. Deem and Ramdas Pophale) SiO2 
 PCOD9570480
Probable space group: P 42/N M C
;
_chemical_formula_sum "Si O2"
_cell_formula_units_Z 72
_cell_length_a 17.023326
_cell_length_b 17.023326
_cell_length_c 16.385517
_cell_angle_alpha 90.000000
_cell_angle_beta 90.000000
_cell_angle_gamma 90.000000
_cell_volume 4748.418420
_symmetry_space_group_name_H-M "P 42/N M C"
_symmetry_group_IT_number 137
_space_group.IT_coordinate_system_code '2'
_symmetry_cell_setting 'tetragonal'
loop_
_space_group_symop_operation_xyz
x,y,z
1/2-y,x,1/2+z
1/2-x,1/2-y,z
y,1/2-x,1/2+z
1/2+x,-y,-z
-x,1/2+y,-z
1/2+y,1/2+x,1/2-z
-y,-x,1/2-z
-x,-y,-z
1/2+y,-x,1/2-z
1/2+x,1/2+y,-z
-y,1/2+x,1/2-z
1/2-x,y,z
x,1/2-y,z
1/2-y,1/2-x,1/2+z
y,x,1/2+z
loop_
_atom_site_type_symbol
_atom_site_label
_atom_site_fract_x
_atom_site_fract_y
_atom_site_fract_z
Si Si1 0.568424 0.093290 0.895010
Si Si2 0.157825 0.043148 0.532103
Si Si3 0.338432 0.838432 0.250000
Si Si4 0.157395 0.016783 0.983172
Si Si5 0.454779 0.952735 0.845087
O O1 0.604564 0.144498 0.824287
O O2 0.513740 0.026327 0.855304
O O3 0.517506 0.144321 0.957746
O O4 0.633081 0.045676 0.947068
O O5 0.250000 0.062474 0.541582
O O6 0.098767 0.114734 0.508646
O O7 0.120204 0.998669 0.610584
O O8 0.348526 0.750000 0.279888
O O9 0.250000 0.026358 0.976110
O O10 0.118735 0.980748 0.900691
O O11 0.438092 0.938092 0.750000
#
# Coordination Sequence:
#
# PCOD9570480 Si02
#       5
#    16  16   8  16  16
#     4   9  17  32  47  64  92 124 160 191 231 281
#     4   9  18  31  49  71  95 126 161 198 239 285
#     4  11  20  26  42  70  92 114 146 191 246 288
#     4   9  18  31  49  71  95 126 161 198 239 285
#     4   9  17  31  51  70  90 125 166 198 232 282
#
# _framework density 15.162944
#
# number of rings (size 3 to 8) (size 9 to 14) (size 15 to 20)
#    0.000    2.778    1.111    4.000    0.000    1.333 
#    0.000    0.000    0.000    6.000    0.000   12.444 
#    0.000    0.000    0.000    0.000    0.000    0.000 
#
# Total GULP energy -400818.091450 kJ/mol
# GULP energy per Si atom -5566.917937 kJ/mol
# Density = 1.512843 g / cm^3
# Si number density = 15.162944 Si / 1000 Ang^3
#
#
#
# Elastic Constant Matrix: (Units=GPa)
#
#
# Indices 1 2 3 4 5 6 
#
# 1 75.2668 31.2042 15.4220 0.0000 0.0000 0.0000
# 2 31.2042 75.2668 15.4220 0.0000 0.0000 0.0000
# 3 15.4220 15.4220 81.1657 0.0000 0.0000 0.0000
# 4 0.0000 0.0000 0.0000 11.7634 0.0000 0.0000
# 5 0.0000 0.0000 0.0000 0.0000 11.7634 0.0000
# 6 0.0000 0.0000 0.0000 0.0000 0.0000 12.5418
#
#
#
# Elastic Compliance Matrix: (Units=1/GPa)
#
#
# Indices 1 2 3 4 5 6 
#
# 1 0.016317 -0.006378 -0.001889 0.000000 0.000000 0.000000
# 2 -0.006378 0.016317 -0.001889 0.000000 0.000000 0.000000
# 3 -0.001889 -0.001889 0.013038 0.000000 0.000000 0.000000
# 4 0.000000 0.000000 0.000000 0.085009 0.000000 0.000000
# 5 0.000000 0.000000 0.000000 0.000000 0.085009 0.000000
# 6 0.000000 0.000000 0.000000 0.000000 0.000000 0.079734
#
#
# Mechanical properties :
#
#
# Convention : Reuss Voigt Hill
#
# Bulk Modulus (GPa) = 39.42805 39.53286 39.48046
# Shear Modulus (GPa) = 15.42314 18.52381 16.97347
#
# Velocity S-wave (km/s) = 3.19275 3.49900 3.34938
# Velocity P-wave (km/s) = 6.29690 6.51557 6.40717
#
# Compressibility (1/GPa) = 0.02536265
#
# Stress axis : x y z
#
# Youngs Moduli (GPa) = 61.28517 61.28517 76.69805
#
# Poissons Ratio (x) = 0.39087 0.14485
# Poissons Ratio (y) = 0.39087 0.14485
# Poissons Ratio (z) = 0.11574 0.11574
#
# Static dielectric constant tensor:
#      x y z
#    x 1.492860 0.000000 0.000000 
#    y 0.000000 1.492860 0.000000 
#    z 0.000000 0.000000 1.501190 
# 
# From -- ./inp_files/6187.got.cif
#   From: 2010.05.17/outbox.cif.g08.bks.cpg/sg137_4_cif.got.tgz:6187.got - 2010.05.20 13:01:12.
