data_PCOD9570281
_publ_section_title
;
Structure prediction by ZEFSAII (Michael W. Deem and Ramdas Pophale) SiO2 
 PCOD9570281
Probable space group: P 42/N M C
;
_chemical_formula_sum "Si O2"
_cell_formula_units_Z 72
_cell_length_a 14.523508
_cell_length_b 14.523508
_cell_length_c 19.132711
_cell_angle_alpha 90.000000
_cell_angle_beta 90.000000
_cell_angle_gamma 90.000000
_cell_volume 4035.706442
_symmetry_space_group_name_H-M "P 42/N M C"
_symmetry_group_IT_number 137
_space_group.IT_coordinate_system_code '2'
_symmetry_cell_setting 'tetragonal'
loop_
_space_group_symop_operation_xyz
x,y,z
1/2-y,x,1/2+z
1/2-x,1/2-y,z
y,1/2-x,1/2+z
1/2+x,-y,-z
-x,1/2+y,-z
1/2+y,1/2+x,1/2-z
-y,-x,1/2-z
-x,-y,-z
1/2+y,-x,1/2-z
1/2+x,1/2+y,-z
-y,1/2+x,1/2-z
1/2-x,y,z
x,1/2-y,z
1/2-y,1/2-x,1/2+z
y,x,1/2+z
loop_
_atom_site_type_symbol
_atom_site_label
_atom_site_fract_x
_atom_site_fract_y
_atom_site_fract_z
Si Si1 0.451170 0.140383 0.439700
Si Si2 0.360019 0.250000 0.982783
Si Si3 0.359836 0.750000 0.026784
Si Si4 0.989095 0.050223 0.169699
Si Si5 0.501841 0.250000 0.103844
Si Si6 0.949668 0.359170 0.586727
O O1 0.458437 0.250000 0.430226
O O2 0.343710 0.114333 0.443263
O O3 0.504903 0.088021 0.379822
O O4 0.495596 0.118322 0.515039
O O5 0.250000 0.250000 0.992057
O O6 0.409647 0.250000 0.057184
O O7 0.250000 0.750000 0.011381
O O8 0.380203 0.657194 0.070160
O O9 0.417064 0.750000 0.954761
O O10 0.965159 0.034842 0.250000
O O11 0.994975 0.157516 0.149246
O O12 0.081881 0.996510 0.147254
O O13 0.957943 0.250000 0.599297
#
# Coordination Sequence:
#
# PCOD9570281 Si02
#       6
#    16   8   8  16   8  16
#     4  10  20  38  65  91 119 149 201 251 295 347
#     4  10  20  36  68  96 112 143 200 264 302 340
#     4  10  20  36  68  96 116 143 202 264 301 340
#     4  12  26  40  58  87 126 168 195 238 300 368
#     4  12  22  38  62  88 120 158 200 240 299 364
#     4  10  20  40  65  92 117 154 203 255 296 348
#
# _framework density 17.840744000000001
#
# number of rings (size 3 to 8) (size 9 to 14) (size 15 to 20)
#    0.000    1.333    4.444    2.000    1.556    0.000 
#    4.000    0.000    0.000    0.000    0.000    0.000 
#    0.000    0.000    0.000    0.000    0.000    0.000 
#
# Total GULP energy -402297.160566 kJ/mol
# GULP energy per Si atom -5587.460563 kJ/mol
# Density = 1.780014 g / cm^3
# Si number density = 17.840744 Si / 1000 Ang^3
#
#
#
# Elastic Constant Matrix: (Units=GPa)
#
#
# Indices 1 2 3 4 5 6 
#
# 1 123.2022 40.7486 47.6295 0.0000 0.0000 0.0000
# 2 40.7486 123.2016 47.6287 0.0000 0.0000 0.0000
# 3 47.6295 47.6287 101.3836 0.0000 0.0000 0.0000
# 4 0.0000 0.0000 0.0000 11.0485 0.0000 0.0000
# 5 0.0000 0.0000 0.0000 0.0000 11.0481 0.0000
# 6 0.0000 0.0000 0.0000 0.0000 0.0000 14.3452
#
#
#
# Elastic Compliance Matrix: (Units=1/GPa)
#
#
# Indices 1 2 3 4 5 6 
#
# 1 0.010259 -0.001869 -0.003941 0.000000 0.000000 0.000000
# 2 -0.001869 0.010259 -0.003941 0.000000 0.000000 0.000000
# 3 -0.003941 -0.003941 0.013567 0.000000 0.000000 0.000000
# 4 0.000000 0.000000 0.000000 0.090510 0.000000 0.000000
# 5 0.000000 0.000000 0.000000 0.000000 0.090513 0.000000
# 6 0.000000 0.000000 0.000000 0.000000 0.000000 0.069710
#
#
# Mechanical properties :
#
#
# Convention : Reuss Voigt Hill
#
# Bulk Modulus (GPa) = 68.58537 68.86679 68.72608
# Shear Modulus (GPa) = 16.17177 21.40707 18.78942
#
# Velocity S-wave (km/s) = 3.01400 3.46771 3.24879
# Velocity P-wave (km/s) = 7.11610 7.39716 7.25799
#
# Compressibility (1/GPa) = 0.01458037
#
# Stress axis : x y z
#
# Youngs Moduli (GPa) = 97.47817 97.47830 73.71024
#
# Poissons Ratio (x) = 0.18222 0.29051
# Poissons Ratio (y) = 0.18222 0.29051
# Poissons Ratio (z) = 0.38419 0.38418
#
# Static dielectric constant tensor:
#      x y z
#    x 1.635100 0.000000 0.000000 
#    y 0.000000 1.635100 0.000000 
#    z 0.000000 0.000000 1.546440 
# 
# From -- ./inp_files/6243.got.cif
#   From: 2010.05.17/outbox.cif.g08.bks.cpg/sg137_4_cif.got.tgz:6243.got - 2010.05.20 13:01:12.
