data_PCOD9570688
_publ_section_title
;
Structure prediction by ZEFSAII (Michael W. Deem and Ramdas Pophale) SiO2 
 PCOD9570688
Probable space group: P 42/N C M
;
_chemical_formula_sum "Si O2"
_cell_formula_units_Z 80
_cell_length_a 15.178182
_cell_length_b 15.178182
_cell_length_c 15.155126
_cell_angle_alpha 90.000000
_cell_angle_beta 90.000000
_cell_angle_gamma 90.000000
_cell_volume 3491.395627
_symmetry_space_group_name_H-M "P 42/N C M"
_symmetry_group_IT_number 138
_space_group.IT_coordinate_system_code '2'
_symmetry_cell_setting 'tetragonal'
loop_
_space_group_symop_operation_xyz
x,y,z
1/2-y,x,1/2+z
1/2-x,1/2-y,z
y,1/2-x,1/2+z
1/2+x,-y,1/2-z
-x,1/2+y,1/2-z
1/2+y,1/2+x,-z
-y,-x,-z
-x,-y,-z
1/2+y,-x,1/2-z
1/2+x,1/2+y,-z
-y,1/2+x,1/2-z
1/2-x,y,1/2+z
x,1/2-y,1/2+z
1/2-y,1/2-x,z
y,x,z
loop_
_atom_site_type_symbol
_atom_site_label
_atom_site_fract_x
_atom_site_fract_y
_atom_site_fract_z
Si Si1 0.393061 0.255699 0.231282
Si Si2 0.427701 0.566478 0.129339
Si Si3 0.930802 0.713443 0.575024
Si Si4 0.461733 0.734484 0.415534
Si Si5 0.349153 0.654007 0.284240
O O1 0.325067 0.174934 0.227300
O O2 0.341863 0.341863 0.199369
O O3 0.415586 0.264816 0.334128
O O4 0.473512 0.233901 0.168769
O O5 0.472990 0.472990 0.111386
O O6 0.497984 0.638581 0.099947
O O7 0.333916 0.575625 0.082625
O O8 0.405160 0.581120 0.232504
O O9 0.841000 0.659001 0.549968
O O10 0.975572 0.773280 0.500098
O O11 0.382985 0.670843 0.383432
O O12 0.245439 0.637012 0.271564
#
# Coordination Sequence:
#
# PCOD9570688 Si02
#       5
#    16  16  16  16  16
#     4  10  21  36  53  78 114 149 181 225 279 330
#     4  10  19  34  57  82 108 138 182 234 276 322
#     4  10  20  34  52  80 109 137 180 231 274 319
#     4  11  20  34  58  82 105 144 189 226 273 330
#     4   9  19  35  55  80 112 147 181 223 278 331
#
# _framework density 22.913474999999998
#
# number of rings (size 3 to 8) (size 9 to 14) (size 15 to 20)
#    0.000    2.000    2.000    2.400    0.000    2.400 
#    0.000    3.000    0.000    4.800    0.000    4.200 
#    0.000    0.000    0.000    0.000    0.000    0.000 
#
# Total GULP energy -446836.936507 kJ/mol
# GULP energy per Si atom -5585.461706 kJ/mol
# Density = 2.286132 g / cm^3
# Si number density = 22.913475 Si / 1000 Ang^3
#
#
#
# Elastic Constant Matrix: (Units=GPa)
#
#
# Indices 1 2 3 4 5 6 
#
# 1 33.1512 -4.9184 14.2324 0.0000 0.0000 0.0000
# 2 -4.9184 33.1512 14.2324 0.0000 0.0000 0.0000
# 3 14.2324 14.2324 66.1332 0.0000 0.0000 0.0000
# 4 0.0000 0.0000 0.0000 25.5621 0.0000 0.0000
# 5 0.0000 0.0000 0.0000 0.0000 25.5621 0.0000
# 6 0.0000 0.0000 0.0000 0.0000 0.0000 22.2829
#
#
#
# Elastic Compliance Matrix: (Units=1/GPa)
#
#
# Indices 1 2 3 4 5 6 
#
# 1 0.035751 0.009484 -0.009735 0.000000 0.000000 0.000000
# 2 0.009484 0.035751 -0.009735 0.000000 0.000000 0.000000
# 3 -0.009735 -0.009735 0.019311 0.000000 0.000000 0.000000
# 4 0.000000 0.000000 0.000000 0.039120 0.000000 0.000000
# 5 0.000000 0.000000 0.000000 0.000000 0.039120 0.000000
# 6 0.000000 0.000000 0.000000 0.000000 0.000000 0.044877
#
#
# Mechanical properties :
#
#
# Convention : Reuss Voigt Hill
#
# Bulk Modulus (GPa) = 14.11612 19.94760 17.03186
# Shear Modulus (GPa) = 19.41612 21.94069 20.67841
#
# Velocity S-wave (km/s) = 2.91412 3.09778 3.00735
# Velocity P-wave (km/s) = 4.18291 4.63891 4.41680
#
# Compressibility (1/GPa) = 0.07084099
#
# Stress axis : x y z
#
# Youngs Moduli (GPa) = 27.97108 27.97108 51.78386
#
# Poissons Ratio (x) = -0.26526 0.50411
# Poissons Ratio (y) = -0.26526 0.50411
# Poissons Ratio (z) = 0.27230 0.27230
#
# Static dielectric constant tensor:
#      x y z
#    x 1.866570 0.000000 0.000000 
#    y 0.000000 1.866570 0.000000 
#    z 0.000000 0.000000 1.905490 
# 
# From -- ./inp_files/4059.got.cif
#   From: 2010.05.17/outbox.cif.g08.bks.cpg/sg138_3_cif.got.tgz:4059.got - 2010.05.20 13:08:53.
