data_PCOD9570600
_publ_section_title
;
Structure prediction by ZEFSAII (Michael W. Deem and Ramdas Pophale) SiO2 
 PCOD9570600
Probable space group: P 42/N C M
;
_chemical_formula_sum "Si O2"
_cell_formula_units_Z 96
_cell_length_a 23.442605
_cell_length_b 23.442605
_cell_length_c 7.992636
_cell_angle_alpha 90.000000
_cell_angle_beta 90.000000
_cell_angle_gamma 90.000000
_cell_volume 4392.398905
_symmetry_space_group_name_H-M "P 42/N C M"
_symmetry_group_IT_number 138
_space_group.IT_coordinate_system_code '2'
_symmetry_cell_setting 'tetragonal'
loop_
_space_group_symop_operation_xyz
x,y,z
1/2-y,x,1/2+z
1/2-x,1/2-y,z
y,1/2-x,1/2+z
1/2+x,-y,1/2-z
-x,1/2+y,1/2-z
1/2+y,1/2+x,-z
-y,-x,-z
-x,-y,-z
1/2+y,-x,1/2-z
1/2+x,1/2+y,-z
-y,1/2+x,1/2-z
1/2-x,y,1/2+z
x,1/2-y,1/2+z
1/2-y,1/2-x,z
y,x,z
loop_
_atom_site_type_symbol
_atom_site_label
_atom_site_fract_x
_atom_site_fract_y
_atom_site_fract_z
Si Si1 0.202100 0.824618 0.309532
Si Si2 0.122670 0.921091 0.182503
Si Si3 0.121596 0.210761 0.877138
Si Si4 0.580643 0.671634 0.490274
Si Si5 0.873476 0.538762 0.460042
Si Si6 0.907488 0.002032 0.334829
O O1 0.185315 0.814686 0.500000
O O2 0.270182 0.822159 0.291615
O O3 0.173612 0.881543 0.242991
O O4 0.068943 0.918522 0.309358
O O5 0.142078 0.985606 0.152244
O O6 0.101313 0.898687 0.000000
O O7 0.187000 0.187000 0.896716
O O8 0.100360 0.275198 0.898531
O O9 0.084674 0.175591 0.012340
O O10 0.102097 0.190342 0.694331
O O11 0.618469 0.618469 0.546893
O O12 0.518062 0.644329 0.456182
O O13 0.929985 0.570016 0.394726
O O14 0.888739 0.517447 0.647271
O O15 0.963638 0.963638 0.372787
#
# Coordination Sequence:
#
# PCOD9570600 Si02
#       6
#    16  16  16  16  16  16
#     4  11  23  41  60  78 104 135 169 210 257 306
#     4  10  18  31  56  85 107 133 170 207 248 301
#     4   9  18  32  48  68  96 129 167 210 252 294
#     4   9  18  32  48  68  96 129 167 210 252 294
#     4   8  15  29  50  76 105 137 173 211 248 293
#     4   8  15  29  50  76 105 137 173 211 248 293
#
# _framework density 21.855937999999998
#
# number of rings (size 3 to 8) (size 9 to 14) (size 15 to 20)
#    0.000    2.833    0.000    4.500    0.000    4.333 
#    0.000    6.667    0.000    4.000    0.000    0.000 
#    0.000    0.000    0.000    0.000    0.000    0.000 
#
# Total GULP energy -535621.819814 kJ/mol
# GULP energy per Si atom -5579.393956 kJ/mol
# Density = 2.180619 g / cm^3
# Si number density = 21.855938 Si / 1000 Ang^3
#
#
#
# Elastic Constant Matrix: (Units=GPa)
#
#
# Indices 1 2 3 4 5 6 
#
# 1 -9.5844 43.5526 8.8000 0.0000 0.0000 0.0000
# 2 43.5526 -9.5839 8.8013 0.0000 0.0000 0.0000
# 3 8.8000 8.8013 83.0594 0.0000 0.0000 0.0000
# 4 0.0000 0.0000 0.0000 5.4928 0.0000 0.0000
# 5 0.0000 0.0000 0.0000 0.0000 5.4905 0.0000
# 6 0.0000 0.0000 0.0000 0.0000 0.0000 27.5546
#
#
#
# Elastic Compliance Matrix: (Units=1/GPa)
#
#
# Indices 1 2 3 4 5 6 
#
# 1 0.006165 0.024984 -0.003301 0.000000 0.000000 0.000000
# 2 0.024984 0.006165 -0.003300 0.000000 0.000000 0.000000
# 3 -0.003301 -0.003300 0.012739 0.000000 0.000000 0.000000
# 4 0.000000 0.000000 0.000000 0.182055 0.000000 0.000000
# 5 0.000000 0.000000 0.000000 0.000000 0.182132 0.000000
# 6 0.000000 0.000000 0.000000 0.000000 0.000000 0.036292
#
#
# Mechanical properties :
#
#
# Convention : Reuss Voigt Hill
#
# Bulk Modulus (GPa) = 16.17191 20.68879 18.43035
# Shear Modulus (GPa) = 12.21322 7.89007 10.05165
#
# Velocity S-wave (km/s) = 2.36647 1.90207 2.14687
# Velocity P-wave (km/s) = 3.85776 3.78290 3.82051
#
# Compressibility (1/GPa) = 0.06183562
#
# Stress axis : x y z
#
# Youngs Moduli (GPa) = 162.20959 162.20584 78.49920
#
# Poissons Ratio (x) = -4.05260 0.25909
# Poissons Ratio (y) = -4.05269 0.25907
# Poissons Ratio (z) = 0.53539 0.53533
#
# Static dielectric constant tensor:
#      x y z
#    x 1.802420 0.000000 0.000000 
#    y 0.000000 1.802420 0.000000 
#    z 0.000000 0.000000 1.834890 
# 
# From -- ./inp_files/1720.got.cif
#   From: 2010.05.17/outbox.cif.g08.bks.cpg/sg138_1_cif.got.tgz:1720.got - 2010.05.20 13:08:53.
