data_PCOD9570038
_publ_section_title
;
Structure prediction by ZEFSAII (Michael W. Deem and Ramdas Pophale) SiO2 
 PCOD9570038
Probable space group: P 42/N M C
;
_chemical_formula_sum "Si O2"
_cell_formula_units_Z 96
_cell_length_a 24.739008
_cell_length_b 24.739008
_cell_length_c 6.831012
_cell_angle_alpha 90.000000
_cell_angle_beta 90.000000
_cell_angle_gamma 90.000000
_cell_volume 4180.705833
_symmetry_space_group_name_H-M "P 42/N M C"
_symmetry_group_IT_number 137
_space_group.IT_coordinate_system_code '2'
_symmetry_cell_setting 'tetragonal'
loop_
_space_group_symop_operation_xyz
x,y,z
1/2-y,x,1/2+z
1/2-x,1/2-y,z
y,1/2-x,1/2+z
1/2+x,-y,-z
-x,1/2+y,-z
1/2+y,1/2+x,1/2-z
-y,-x,1/2-z
-x,-y,-z
1/2+y,-x,1/2-z
1/2+x,1/2+y,-z
-y,1/2+x,1/2-z
1/2-x,y,z
x,1/2-y,z
1/2-y,1/2-x,1/2+z
y,x,1/2+z
loop_
_atom_site_type_symbol
_atom_site_label
_atom_site_fract_x
_atom_site_fract_y
_atom_site_fract_z
Si Si1 0.250000 0.577495 0.563751
Si Si2 0.624399 0.969186 0.917335
Si Si3 0.948427 0.629928 0.871275
Si Si4 0.750000 0.110795 0.976484
Si Si5 0.986612 0.750000 0.395322
Si Si6 0.750000 0.546845 0.347111
Si Si7 0.646333 0.136962 0.483197
Si Si8 0.547289 0.059544 0.017789
O O1 0.250000 0.597581 0.789424
O O2 0.250000 0.513861 0.569000
O O3 0.302291 0.602116 0.467899
O O4 0.633632 0.973598 0.152895
O O5 0.685842 0.976134 0.831279
O O6 0.568310 0.006246 0.900722
O O7 0.602473 0.909820 0.867184
O O8 0.931129 0.691715 0.914685
O O9 0.994773 0.599516 0.003044
O O10 0.696031 0.142817 0.930831
O O11 0.750000 0.051088 0.893731
O O12 0.958955 0.750000 0.611331
O O13 0.645195 0.145195 0.250000
O O14 0.595309 0.100139 0.524092
O O15 0.545185 0.045185 0.250000
#
# Coordination Sequence:
#
# PCOD9570038 Si02
#       8
#     8  16  16   8   8   8  16  16
#     4   9  14  21  34  54  84 122 158 188 219 258
#     4  10  19  31  48  71  95 121 153 188 226 271
#     4  10  19  31  48  71  95 121 153 188 226 271
#     4   9  14  21  34  54  84 122 158 188 219 258
#     4   9  16  28  46  64  87 121 155 182 219 276
#     4   9  16  28  46  64  87 121 155 182 219 276
#     4   9  14  20  33  55  85 120 157 191 219 255
#     4   9  15  25  43  66  92 120 151 186 224 266
#
# _framework density 22.962630000000001
#
# number of rings (size 3 to 8) (size 9 to 14) (size 15 to 20)
#    0.000    2.667    3.333    0.500    0.000    0.333 
#    0.000    2.500    0.000    0.500    0.000    3.500 
#    0.000    0.000    0.000    0.000    0.000    3.333 
#
# Total GULP energy -534970.979813 kJ/mol
# GULP energy per Si atom -5572.614373 kJ/mol
# Density = 2.291037 g / cm^3
# Si number density = 22.962630 Si / 1000 Ang^3
#
#
#
# Elastic Constant Matrix: (Units=GPa)
#
#
# Indices 1 2 3 4 5 6 
#
# 1 137.7103 60.8102 -10.4956 0.0000 0.0000 0.0000
# 2 60.8102 137.7103 -10.4956 0.0000 0.0000 0.0000
# 3 -10.4956 -10.4956 77.5362 0.0000 0.0000 0.0000
# 4 0.0000 0.0000 0.0000 22.6247 0.0000 0.0000
# 5 0.0000 0.0000 0.0000 0.0000 22.6247 0.0000
# 6 0.0000 0.0000 0.0000 0.0000 0.0000 -26.0645
#
#
#
# Elastic Compliance Matrix: (Units=1/GPa)
#
#
# Indices 1 2 3 4 5 6 
#
# 1 0.009057 -0.003947 0.000692 0.000000 0.000000 0.000000
# 2 -0.003947 0.009057 0.000692 0.000000 0.000000 0.000000
# 3 0.000692 0.000692 0.013084 0.000000 0.000000 0.000000
# 4 0.000000 0.000000 0.000000 0.044199 0.000000 0.000000
# 5 0.000000 0.000000 0.000000 0.000000 0.044199 0.000000
# 6 0.000000 0.000000 0.000000 0.000000 0.000000 -0.038366
#
#
# Mechanical properties :
#
#
# Convention : Reuss Voigt Hill
#
# Bulk Modulus (GPa) = 38.35477 48.06607 43.21042
# Shear Modulus (GPa) = 52.60469 24.71283 38.65876
#
# Velocity S-wave (km/s) = 4.79151 3.28414 4.10756
# Velocity P-wave (km/s) = 6.88119 5.94630 6.43076
#
# Compressibility (1/GPa) = 0.02607237
#
# Stress axis : x y z
#
# Youngs Moduli (GPa) = 110.41002 110.41002 76.42637
#
# Poissons Ratio (x) = 0.43576 -0.05287
# Poissons Ratio (y) = 0.43576 -0.05287
# Poissons Ratio (z) = -0.07638 -0.07638
#
# Static dielectric constant tensor:
#      x y z
#    x 1.764320 0.000000 0.000000 
#    y 0.000000 1.764320 0.000000 
#    z 0.000000 0.000000 2.065990 
# 
# From -- ./inp_files/2235.got.cif
#   From: 2010.05.17/outbox.cif.g08.bks.cpg/sg137_2_cif.got.tgz:2235.got - 2010.05.20 13:01:12.
