data_PCOD9570658
_publ_section_title
;
Structure prediction by ZEFSAII (Michael W. Deem and Ramdas Pophale) SiO2 
 PCOD9570658
Probable space group: P 42/N C M
;
_chemical_formula_sum "Si O2"
_cell_formula_units_Z 80
_cell_length_a 13.864862
_cell_length_b 13.864862
_cell_length_c 25.845787
_cell_angle_alpha 90.000000
_cell_angle_beta 90.000000
_cell_angle_gamma 90.000000
_cell_volume 4968.449312
_symmetry_space_group_name_H-M "P 42/N C M"
_symmetry_group_IT_number 138
_space_group.IT_coordinate_system_code '2'
_symmetry_cell_setting 'tetragonal'
loop_
_space_group_symop_operation_xyz
x,y,z
1/2-y,x,1/2+z
1/2-x,1/2-y,z
y,1/2-x,1/2+z
1/2+x,-y,1/2-z
-x,1/2+y,1/2-z
1/2+y,1/2+x,-z
-y,-x,-z
-x,-y,-z
1/2+y,-x,1/2-z
1/2+x,1/2+y,-z
-y,1/2+x,1/2-z
1/2-x,y,1/2+z
x,1/2-y,1/2+z
1/2-y,1/2-x,z
y,x,z
loop_
_atom_site_type_symbol
_atom_site_label
_atom_site_fract_x
_atom_site_fract_y
_atom_site_fract_z
Si Si1 0.864801 0.219979 0.369002
Si Si2 0.588808 0.751585 0.440143
Si Si3 0.163283 0.001600 0.659591
Si Si4 0.906883 0.250582 0.485014
Si Si5 0.724009 0.407660 0.239523
O O1 0.750000 0.250000 0.367909
O O2 0.911810 0.247397 0.423193
O O3 0.922575 0.268499 0.321693
O O4 0.864234 0.105198 0.360090
O O5 0.651902 0.848099 0.442920
O O6 0.662094 0.662094 0.448236
O O7 0.543697 0.736982 0.382918
O O8 0.504887 0.749790 0.482753
O O9 0.071706 0.071706 0.660386
O O10 0.203693 0.988602 0.717827
O O11 0.843534 0.343534 0.500000
O O12 0.842227 0.157774 0.500000
O O13 0.825426 0.357013 0.253382
#
# Coordination Sequence:
#
# PCOD9570658 Si02
#       5
#    16  16  16  16  16
#     4  11  17  32  54  79 104 141 173 216 279 326
#     4  10  22  39  56  76 109 152 190 228 277 328
#     4  10  19  32  52  79 104 134 184 229 262 319
#     4  11  20  32  56  85 112 137 182 231 276 327
#     4   9  16  29  53  73  99 138 170 209 268 323
#
# _framework density 16.101603000000001
#
# number of rings (size 3 to 8) (size 9 to 14) (size 15 to 20)
#    0.000    1.800    8.000    0.000    0.000    1.600 
#    0.000    5.000    0.000    0.000    0.000    2.800 
#    0.000    0.000    0.000    0.000    0.000    0.000 
#
# Total GULP energy -445685.015195 kJ/mol
# GULP energy per Si atom -5571.062690 kJ/mol
# Density = 1.606496 g / cm^3
# Si number density = 16.101603 Si / 1000 Ang^3
#
#
#
# Elastic Constant Matrix: (Units=GPa)
#
#
# Indices 1 2 3 4 5 6 
#
# 1 77.4996 42.4306 60.2038 0.0000 0.0000 0.0000
# 2 42.4306 77.4998 60.2044 0.0000 0.0000 0.0000
# 3 60.2038 60.2044 190.0206 0.0000 0.0000 0.0000
# 4 0.0000 0.0000 0.0000 23.4655 0.0000 0.0000
# 5 0.0000 0.0000 0.0000 0.0000 23.4654 0.0000
# 6 0.0000 0.0000 0.0000 0.0000 0.0000 3.9554
#
#
#
# Elastic Compliance Matrix: (Units=1/GPa)
#
#
# Indices 1 2 3 4 5 6 
#
# 1 0.020371 -0.008144 -0.003874 0.000000 0.000000 0.000000
# 2 -0.008144 0.020371 -0.003874 0.000000 0.000000 0.000000
# 3 -0.003874 -0.003874 0.007717 0.000000 0.000000 0.000000
# 4 0.000000 0.000000 0.000000 0.042616 0.000000 0.000000
# 5 0.000000 0.000000 0.000000 0.000000 0.042616 0.000000
# 6 0.000000 0.000000 0.000000 0.000000 0.000000 0.252822
#
#
# Mechanical properties :
#
#
# Convention : Reuss Voigt Hill
#
# Bulk Modulus (GPa) = 59.96470 74.52196 67.24333
# Shear Modulus (GPa) = 11.79645 22.32268 17.05956
#
# Velocity S-wave (km/s) = 2.70964 3.72743 3.25852
# Velocity P-wave (km/s) = 6.86381 8.05654 7.48397
#
# Compressibility (1/GPa) = 0.01667648
#
# Stress axis : x y z
#
# Youngs Moduli (GPa) = 49.08849 49.08830 129.57659
#
# Poissons Ratio (x) = 0.39976 0.50199
# Poissons Ratio (y) = 0.39976 0.50200
# Poissons Ratio (z) = 0.19017 0.19018
#
# Static dielectric constant tensor:
#      x y z
#    x 1.526000 0.000000 0.000000 
#    y 0.000000 1.526000 0.000000 
#    z 0.000000 0.000000 1.592520 
# 
# From -- ./inp_files/7855.got.cif
#   From: 2010.05.17/outbox.cif.g08.bks.cpg/sg138_4_cif.got.tgz:7855.got - 2010.05.20 13:08:53.
