data_PCOD9570974
_publ_section_title
;
Structure prediction by ZEFSAII (Michael W. Deem and Ramdas Pophale) SiO2 
 PCOD9570974
Probable space group: P 42/N C M
;
_chemical_formula_sum "Si O2"
_cell_formula_units_Z 64
_cell_length_a 14.753357
_cell_length_b 14.753357
_cell_length_c 14.186323
_cell_angle_alpha 90.000000
_cell_angle_beta 90.000000
_cell_angle_gamma 90.000000
_cell_volume 3087.816950
_symmetry_space_group_name_H-M "P 42/N C M"
_symmetry_group_IT_number 138
_space_group.IT_coordinate_system_code '2'
_symmetry_cell_setting 'tetragonal'
loop_
_space_group_symop_operation_xyz
x,y,z
1/2-y,x,1/2+z
1/2-x,1/2-y,z
y,1/2-x,1/2+z
1/2+x,-y,1/2-z
-x,1/2+y,1/2-z
1/2+y,1/2+x,-z
-y,-x,-z
-x,-y,-z
1/2+y,-x,1/2-z
1/2+x,1/2+y,-z
-y,1/2+x,1/2-z
1/2-x,y,1/2+z
x,1/2-y,1/2+z
1/2-y,1/2-x,z
y,x,z
loop_
_atom_site_type_symbol
_atom_site_label
_atom_site_fract_x
_atom_site_fract_y
_atom_site_fract_z
Si Si1 0.116980 0.969447 0.080608
Si Si2 0.549589 0.176319 0.279826
Si Si3 0.244914 0.103464 0.659375
Si Si4 0.161757 0.685839 0.106533
O O1 0.075941 0.918941 0.171711
O O2 0.210187 0.022311 0.098479
O O3 0.107003 0.892998 0.000000
O O4 0.051228 0.051228 0.052858
O O5 0.448322 0.198782 0.247096
O O6 0.580459 0.253780 0.352668
O O7 0.610707 0.179541 0.185880
O O8 0.327830 0.172171 0.684553
O O9 0.167173 0.167173 0.614551
O O10 0.250000 0.750000 0.107438
O O11 0.150474 0.650474 0.000000
#
# Coordination Sequence:
#
# PCOD9570974 Si02
#       4
#    16  16  16  16
#     4  10  22  39  64  95 125 166 218 267 319 386
#     4  12  20  39  62  92 126 165 212 263 319 386
#     4  10  22  41  64  90 126 168 210 263 324 383
#     4  11  22  34  57  93 128 162 207 262 323 384
#
# _framework density 20.726617000000001
#
# number of rings (size 3 to 8) (size 9 to 14) (size 15 to 20)
#    0.000    1.250    5.000    0.750    7.000    0.000 
#    0.000    1.250    0.000    8.250    0.000    0.000 
#    0.000    0.000    0.000    0.000    0.000    0.000 
#
# Total GULP energy -356718.136313 kJ/mol
# GULP energy per Si atom -5573.720880 kJ/mol
# Density = 2.067944 g / cm^3
# Si number density = 20.726617 Si / 1000 Ang^3
#
#
#
# Elastic Constant Matrix: (Units=GPa)
#
#
# Indices 1 2 3 4 5 6 
#
# 1 86.9949 55.3075 28.7676 0.0000 0.0000 0.0000
# 2 55.3075 86.9953 28.7673 0.0000 0.0000 0.0000
# 3 28.7676 28.7673 107.8956 0.0000 0.0000 0.0000
# 4 0.0000 0.0000 0.0000 8.8423 0.0000 0.0000
# 5 0.0000 0.0000 0.0000 0.0000 8.8429 0.0000
# 6 0.0000 0.0000 0.0000 0.0000 0.0000 43.7221
#
#
#
# Elastic Compliance Matrix: (Units=1/GPa)
#
#
# Indices 1 2 3 4 5 6 
#
# 1 0.019717 -0.011841 -0.002100 0.000000 0.000000 0.000000
# 2 -0.011841 0.019717 -0.002100 0.000000 0.000000 0.000000
# 3 -0.002100 -0.002100 0.010388 0.000000 0.000000 0.000000
# 4 0.000000 0.000000 0.000000 0.113092 0.000000 0.000000
# 5 0.000000 0.000000 0.000000 0.000000 0.113085 0.000000
# 6 0.000000 0.000000 0.000000 0.000000 0.000000 0.022872
#
#
# Mechanical properties :
#
#
# Convention : Reuss Voigt Hill
#
# Bulk Modulus (GPa) = 56.36767 56.39675 56.38221
# Shear Modulus (GPa) = 14.84265 23.55102 19.19683
#
# Velocity S-wave (km/s) = 2.67894 3.37452 3.04664
# Velocity P-wave (km/s) = 6.06826 6.51552 6.29586
#
# Compressibility (1/GPa) = 0.01774067
#
# Stress axis : x y z
#
# Youngs Moduli (GPa) = 50.71687 50.71724 96.26449
#
# Poissons Ratio (x) = 0.60054 0.20216
# Poissons Ratio (y) = 0.60053 0.20215
# Poissons Ratio (z) = 0.10651 0.10650
#
# Static dielectric constant tensor:
#      x y z
#    x 1.787500 0.000000 0.000000 
#    y 0.000000 1.787500 0.000000 
#    z 0.000000 0.000000 1.769370 
# 
# From -- ./inp_files/3913.got.cif
#   From: 2010.05.17/outbox.cif.g08.bks.cpg/sg138_2_cif.got.tgz:3913.got - 2010.05.20 13:08:53.
