data_PCOD9570865
_publ_section_title
;
Structure prediction by ZEFSAII (Michael W. Deem and Ramdas Pophale) SiO2 
 PCOD9570865
Probable space group: P 42/N C M
;
_chemical_formula_sum "Si O2"
_cell_formula_units_Z 48
_cell_length_a 20.859711
_cell_length_b 20.859711
_cell_length_c 5.375917
_cell_angle_alpha 90.000000
_cell_angle_beta 90.000000
_cell_angle_gamma 90.000000
_cell_volume 2339.209556
_symmetry_space_group_name_H-M "P 42/N C M"
_symmetry_group_IT_number 138
_space_group.IT_coordinate_system_code '2'
_symmetry_cell_setting 'tetragonal'
loop_
_space_group_symop_operation_xyz
x,y,z
1/2-y,x,1/2+z
1/2-x,1/2-y,z
y,1/2-x,1/2+z
1/2+x,-y,1/2-z
-x,1/2+y,1/2-z
1/2+y,1/2+x,-z
-y,-x,-z
-x,-y,-z
1/2+y,-x,1/2-z
1/2+x,1/2+y,-z
-y,1/2+x,1/2-z
1/2-x,y,1/2+z
x,1/2-y,1/2+z
1/2-y,1/2-x,z
y,x,z
loop_
_atom_site_type_symbol
_atom_site_label
_atom_site_fract_x
_atom_site_fract_y
_atom_site_fract_z
Si Si1 0.270720 0.484333 0.681512
Si Si2 0.373710 0.781471 0.398297
Si Si3 0.082043 0.525272 0.242337
O O1 0.260487 0.450280 0.417990
O O2 0.230391 0.550576 0.634311
O O3 0.344148 0.503556 0.730883
O O4 0.349422 0.849422 0.500000
O O5 0.350030 0.736486 0.624578
O O6 0.057331 0.557331 0.500000
O O7 0.037159 0.462842 0.208854
O O8 0.069789 0.569789 0.000000
#
# Coordination Sequence:
#
# PCOD9570865 Si02
#       3
#    16  16  16
#     4  10  21  34  52  77 106 139 181 231 287 338
#     4  10  21  33  43  60  91 133 176 213 250 299
#     4  10  21  38  59  81 108 147 196 247 294 339
#
# _framework density 20.519753000000001
#
# number of rings (size 3 to 8) (size 9 to 14) (size 15 to 20)
#    0.000    2.000    0.000    3.000    0.000   18.000 
#    0.000    0.000    0.000    0.000    0.000    0.000 
#    0.000    4.000    0.000    0.000    0.000    0.000 
#
# Total GULP energy -267591.056539 kJ/mol
# GULP energy per Si atom -5574.813678 kJ/mol
# Density = 2.047305 g / cm^3
# Si number density = 20.519753 Si / 1000 Ang^3
#
#
#
# Elastic Constant Matrix: (Units=GPa)
#
#
# Indices 1 2 3 4 5 6 
#
# 1 63.7550 8.5658 13.9447 0.0000 0.0000 0.0000
# 2 8.5658 63.7550 13.9447 0.0000 0.0000 0.0000
# 3 13.9447 13.9447 201.8902 0.0000 0.0000 0.0000
# 4 0.0000 0.0000 0.0000 9.8697 0.0000 0.0000
# 5 0.0000 0.0000 0.0000 0.0000 9.8697 0.0000
# 6 0.0000 0.0000 0.0000 0.0000 0.0000 22.4877
#
#
#
# Elastic Compliance Matrix: (Units=1/GPa)
#
#
# Indices 1 2 3 4 5 6 
#
# 1 0.016163 -0.001957 -0.000981 0.000000 0.000000 0.000000
# 2 -0.001957 0.016163 -0.000981 0.000000 0.000000 0.000000
# 3 -0.000981 -0.000981 0.005089 0.000000 0.000000 0.000000
# 4 0.000000 0.000000 0.000000 0.101321 0.000000 0.000000
# 5 0.000000 0.000000 0.000000 0.000000 0.101321 0.000000
# 6 0.000000 0.000000 0.000000 0.000000 0.000000 0.044469
#
#
# Mechanical properties :
#
#
# Convention : Reuss Voigt Hill
#
# Bulk Modulus (GPa) = 33.81200 44.70117 39.25659
# Shear Modulus (GPa) = 16.54419 27.97507 22.25963
#
# Velocity S-wave (km/s) = 2.84255 3.69633 3.29719
# Velocity P-wave (km/s) = 5.22369 6.32842 5.80241
#
# Compressibility (1/GPa) = 0.02957530
#
# Stress axis : x y z
#
# Youngs Moduli (GPa) = 61.87130 61.87130 196.51261
#
# Poissons Ratio (x) = 0.12108 0.19282
# Poissons Ratio (y) = 0.12108 0.19282
# Poissons Ratio (z) = 0.06071 0.06071
#
# Static dielectric constant tensor:
#      x y z
#    x 1.750460 0.000000 0.000000 
#    y 0.000000 1.750460 0.000000 
#    z 0.000000 0.000000 1.930190 
# 
# From -- ./inp_files/265.got.cif
#   From: 2010.05.17/outbox.cif.g08.bks.cpg/sg138_1_cif.got.tgz:265.got - 2010.05.20 13:08:53.
