data_PCOD9570560
_publ_section_title
;
Structure prediction by ZEFSAII (Michael W. Deem and Ramdas Pophale) SiO2 
 PCOD9570560
Probable space group: P 42/N C M
;
_chemical_formula_sum "Si O2"
_cell_formula_units_Z 96
_cell_length_a 16.748474
_cell_length_b 16.748474
_cell_length_c 19.989759
_cell_angle_alpha 90.000000
_cell_angle_beta 90.000000
_cell_angle_gamma 90.000000
_cell_volume 5607.354910
_symmetry_space_group_name_H-M "P 42/N C M"
_symmetry_group_IT_number 138
_space_group.IT_coordinate_system_code '2'
_symmetry_cell_setting 'tetragonal'
loop_
_space_group_symop_operation_xyz
x,y,z
1/2-y,x,1/2+z
1/2-x,1/2-y,z
y,1/2-x,1/2+z
1/2+x,-y,1/2-z
-x,1/2+y,1/2-z
1/2+y,1/2+x,-z
-y,-x,-z
-x,-y,-z
1/2+y,-x,1/2-z
1/2+x,1/2+y,-z
-y,1/2+x,1/2-z
1/2-x,y,1/2+z
x,1/2-y,1/2+z
1/2-y,1/2-x,z
y,x,z
loop_
_atom_site_type_symbol
_atom_site_label
_atom_site_fract_x
_atom_site_fract_y
_atom_site_fract_z
Si Si1 0.499912 0.366690 0.989608
Si Si2 0.543730 0.675812 0.862310
Si Si3 0.540554 0.262331 0.865298
Si Si4 0.869504 0.183817 0.174984
Si Si5 0.960152 0.672633 0.769770
Si Si6 0.129473 0.863817 0.322463
O O1 0.434565 0.434565 0.972222
O O2 0.504831 0.301375 0.931473
O O3 0.582956 0.417045 0.000000
O O4 0.471179 0.324581 0.058036
O O5 0.612738 0.612738 0.847599
O O6 0.457536 0.648287 0.835557
O O7 0.559880 0.758773 0.824197
O O8 0.625997 0.306256 0.857550
O O9 0.488794 0.286154 0.799756
O O10 0.565416 0.169318 0.864550
O O11 0.866729 0.274067 0.148126
O O12 0.859505 0.182143 0.254690
O O13 0.887860 0.612141 0.759239
O O14 0.038369 0.627065 0.798569
#
# Coordination Sequence:
#
# PCOD9570560 Si02
#       6
#    16  16  16  16  16  16
#     4  10  20  33  53  82 114 143 177 225 278 334
#     4  10  20  36  56  79 107 142 185 230 281 331
#     4  11  19  31  53  82 116 148 177 220 276 328
#     4  10  17  28  49  78 112 147 181 212 263 325
#     4  10  22  37  56  83 109 142 192 237 274 326
#     4  10  18  30  49  77 112 146 178 219 269 327
#
# _framework density 17.120370999999999
#
# number of rings (size 3 to 8) (size 9 to 14) (size 15 to 20)
#    0.000    1.833    6.667    1.000    0.000    3.000 
#    0.000    3.333    0.000    3.000    0.000    2.333 
#    0.000    0.000    0.000    0.000    0.000    0.000 
#
# Total GULP energy -534610.315276 kJ/mol
# GULP energy per Si atom -5568.857451 kJ/mol
# Density = 1.708140 g / cm^3
# Si number density = 17.120371 Si / 1000 Ang^3
#
#
#
# Elastic Constant Matrix: (Units=GPa)
#
#
# Indices 1 2 3 4 5 6 
#
# 1 74.7122 44.1942 41.8182 0.0000 0.0000 0.0000
# 2 44.1942 74.7126 41.8183 0.0000 0.0000 0.0000
# 3 41.8182 41.8183 75.0669 0.0000 0.0000 0.0000
# 4 0.0000 0.0000 0.0000 19.3371 0.0000 0.0000
# 5 0.0000 0.0000 0.0000 0.0000 19.3371 0.0000
# 6 0.0000 0.0000 0.0000 0.0000 0.0000 22.8335
#
#
#
# Elastic Compliance Matrix: (Units=1/GPa)
#
#
# Indices 1 2 3 4 5 6 
#
# 1 0.023298 -0.009469 -0.007704 0.000000 0.000000 0.000000
# 2 -0.009469 0.023298 -0.007704 0.000000 0.000000 0.000000
# 3 -0.007704 -0.007704 0.021904 0.000000 0.000000 0.000000
# 4 0.000000 0.000000 0.000000 0.051714 0.000000 0.000000
# 5 0.000000 0.000000 0.000000 0.000000 0.051714 0.000000
# 6 0.000000 0.000000 0.000000 0.000000 0.000000 0.043795
#
#
# Mechanical properties :
#
#
# Convention : Reuss Voigt Hill
#
# Bulk Modulus (GPa) = 53.34143 53.35035 53.34589
# Shear Modulus (GPa) = 18.40091 18.74563 18.57327
#
# Velocity S-wave (km/s) = 3.28197 3.31256 3.29730
# Velocity P-wave (km/s) = 6.75175 6.77203 6.76189
#
# Compressibility (1/GPa) = 0.01874715
#
# Stress axis : x y z
#
# Youngs Moduli (GPa) = 42.92215 42.92240 45.65281
#
# Poissons Ratio (x) = 0.40645 0.35169
# Poissons Ratio (y) = 0.40645 0.35169
# Poissons Ratio (z) = 0.33066 0.33065
#
# Static dielectric constant tensor:
#      x y z
#    x 1.603800 0.000000 0.000000 
#    y 0.000000 1.603800 0.000000 
#    z 0.000000 0.000000 1.597620 
# 
# From -- ./inp_files/6394.got.cif
#   From: 2010.05.17/outbox.cif.g08.bks.cpg/sg138_4_cif.got.tgz:6394.got - 2010.05.20 13:08:53.
