data_PCOD9570197
_publ_section_title
;
Structure prediction by ZEFSAII (Michael W. Deem and Ramdas Pophale) SiO2 
 PCOD9570197
Probable space group: P 42/N M C
;
_chemical_formula_sum "Si O2"
_cell_formula_units_Z 112
_cell_length_a 22.290807
_cell_length_b 22.290807
_cell_length_c 12.171564
_cell_angle_alpha 90.000000
_cell_angle_beta 90.000000
_cell_angle_gamma 90.000000
_cell_volume 6047.807654
_symmetry_space_group_name_H-M "P 42/N M C"
_symmetry_group_IT_number 137
_space_group.IT_coordinate_system_code '2'
_symmetry_cell_setting 'tetragonal'
loop_
_space_group_symop_operation_xyz
x,y,z
1/2-y,x,1/2+z
1/2-x,1/2-y,z
y,1/2-x,1/2+z
1/2+x,-y,-z
-x,1/2+y,-z
1/2+y,1/2+x,1/2-z
-y,-x,1/2-z
-x,-y,-z
1/2+y,-x,1/2-z
1/2+x,1/2+y,-z
-y,1/2+x,1/2-z
1/2-x,y,z
x,1/2-y,z
1/2-y,1/2-x,1/2+z
y,x,1/2+z
loop_
_atom_site_type_symbol
_atom_site_label
_atom_site_fract_x
_atom_site_fract_y
_atom_site_fract_z
Si Si1 0.021886 0.819443 0.374527
Si Si2 0.630171 0.062209 0.106079
Si Si3 0.930357 0.430357 0.750000
Si Si4 0.439649 0.155033 0.036035
Si Si5 0.392165 0.358850 0.709143
Si Si6 0.250000 0.393248 0.357726
Si Si7 0.547447 0.549532 0.121059
Si Si8 0.064720 0.681940 0.848650
O O1 0.031881 0.750000 0.348001
O O2 0.041116 0.833895 0.498942
O O3 0.057827 0.864263 0.294809
O O4 0.951952 0.833815 0.351626
O O5 0.607320 0.130542 0.100962
O O6 0.667030 0.057374 0.219350
O O7 0.573445 0.017051 0.115324
O O8 0.946324 0.478154 0.655154
O O9 0.385879 0.154134 0.122818
O O10 0.500654 0.174370 0.093633
O O11 0.425072 0.197969 0.935091
O O12 0.444823 0.087156 0.990146
O O13 0.367353 0.303782 0.778715
O O14 0.415378 0.413797 0.785811
O O15 0.086450 0.750000 0.862881
#
# Coordination Sequence:
#
# PCOD9570197 Si02
#       8
#    16  16   8  16  16   8  16  16
#     4  11  22  39  59  88 122 165 202 249 311 373
#     4  11  22  37  61  86 126 157 201 265 307 381
#     4  10  22  36  54  85 126 160 198 255 304 378
#     4  11  20  36  62  88 128 162 202 247 305 386
#     4  10  20  36  59  91 129 159 197 251 303 375
#     4  10  22  38  58  93 124 170 203 250 306 360
#     4  10  20  33  57  93 122 154 194 244 331 366
#     4  11  23  38  57  91 122 162 205 252 311 376
#
# _framework density 18.519107000000002
#
# number of rings (size 3 to 8) (size 9 to 14) (size 15 to 20)
#    0.000    1.429    4.286    2.143    2.000    1.143 
#    0.000    0.000    0.000    9.643    0.000    0.000 
#    0.000    0.000    0.000    0.000    0.000    0.000 
#
# Total GULP energy -623486.130882 kJ/mol
# GULP energy per Si atom -5566.840454 kJ/mol
# Density = 1.847696 g / cm^3
# Si number density = 18.519107 Si / 1000 Ang^3
#
#
#
# Elastic Constant Matrix: (Units=GPa)
#
#
# Indices 1 2 3 4 5 6 
#
# 1 65.3396 31.2350 5.4933 0.0000 0.0000 0.0000
# 2 31.2350 65.3396 5.4933 0.0000 0.0000 0.0000
# 3 5.4933 5.4933 23.6067 0.0000 0.0000 0.0000
# 4 0.0000 0.0000 0.0000 14.2564 0.0000 0.0000
# 5 0.0000 0.0000 0.0000 0.0000 14.2564 0.0000
# 6 0.0000 0.0000 0.0000 0.0000 0.0000 8.8211
#
#
#
# Elastic Compliance Matrix: (Units=1/GPa)
#
#
# Indices 1 2 3 4 5 6 
#
# 1 0.019979 -0.009343 -0.002475 0.000000 0.000000 0.000000
# 2 -0.009343 0.019979 -0.002475 0.000000 0.000000 0.000000
# 3 -0.002475 -0.002475 0.043513 0.000000 0.000000 0.000000
# 4 0.000000 0.000000 0.000000 0.070144 0.000000 0.000000
# 5 0.000000 0.000000 0.000000 0.000000 0.070144 0.000000
# 6 0.000000 0.000000 0.000000 0.000000 0.000000 0.113364
#
#
# Mechanical properties :
#
#
# Convention : Reuss Voigt Hill
#
# Bulk Modulus (GPa) = 18.21989 26.52543 22.37266
# Shear Modulus (GPa) = 13.02073 14.93775 13.97924
#
# Velocity S-wave (km/s) = 2.65447 2.84317 2.75044
# Velocity P-wave (km/s) = 4.38803 5.01324 4.71101
#
# Compressibility (1/GPa) = 0.05488507
#
# Stress axis : x y z
#
# Youngs Moduli (GPa) = 50.05279 50.05279 22.98178
#
# Poissons Ratio (x) = 0.46763 0.05688
# Poissons Ratio (y) = 0.46763 0.05688
# Poissons Ratio (z) = 0.12388 0.12388
#
# Static dielectric constant tensor:
#      x y z
#    x 1.632420 0.000000 0.000000 
#    y 0.000000 1.632420 0.000000 
#    z 0.000000 0.000000 1.684750 
# 
# From -- ./inp_files/3982.got.cif
#   From: 2010.05.17/outbox.cif.g08.bks.cpg/sg137_2_cif.got.tgz:3982.got - 2010.05.20 13:01:12.
