data_PCOD9570492
_publ_section_title
;
Structure prediction by ZEFSAII (Michael W. Deem and Ramdas Pophale) SiO2 
 PCOD9570492
Probable space group: P 42/N M C
;
_chemical_formula_sum "Si O2"
_cell_formula_units_Z 72
_cell_length_a 18.631224
_cell_length_b 18.631224
_cell_length_c 10.722381
_cell_angle_alpha 90.000000
_cell_angle_beta 90.000000
_cell_angle_gamma 90.000000
_cell_volume 3721.979782
_symmetry_space_group_name_H-M "P 42/N M C"
_symmetry_group_IT_number 137
_space_group.IT_coordinate_system_code '2'
_symmetry_cell_setting 'tetragonal'
loop_
_space_group_symop_operation_xyz
x,y,z
1/2-y,x,1/2+z
1/2-x,1/2-y,z
y,1/2-x,1/2+z
1/2+x,-y,-z
-x,1/2+y,-z
1/2+y,1/2+x,1/2-z
-y,-x,1/2-z
-x,-y,-z
1/2+y,-x,1/2-z
1/2+x,1/2+y,-z
-y,1/2+x,1/2-z
1/2-x,y,z
x,1/2-y,z
1/2-y,1/2-x,1/2+z
y,x,1/2+z
loop_
_atom_site_type_symbol
_atom_site_label
_atom_site_fract_x
_atom_site_fract_y
_atom_site_fract_z
Si Si1 0.898555 0.101446 0.250000
Si Si2 0.664700 0.168096 0.501972
Si Si3 0.836096 0.940449 0.251690
Si Si4 0.085522 0.407455 0.502256
Si Si5 0.436933 0.934868 0.110279
O O1 0.862260 0.135491 0.128453
O O2 0.982665 0.122101 0.247900
O O3 0.750000 0.164959 0.502208
O O4 0.641571 0.250000 0.517594
O O5 0.630792 0.117240 0.605109
O O6 0.750000 0.950980 0.255460
O O7 0.863627 0.899978 0.376903
O O8 0.859705 0.903028 0.121297
O O9 0.087466 0.490718 0.459786
O O10 0.003080 0.399154 0.546682
O O11 0.455943 0.955943 0.250000
#
# Coordination Sequence:
#
# PCOD9570492 Si02
#       5
#     8  16  16  16  16
#     4  12  20  35  62  96 134 166 210 259 308 382
#     4  11  23  36  53  86 136 182 213 249 306 383
#     4  12  24  42  71 103 130 168 220 273 334 397
#     4  11  22  40  64  95 128 164 218 279 328 385
#     4  11  21  36  60  88 125 178 223 265 316 372
#
# _framework density 19.344542000000001
#
# number of rings (size 3 to 8) (size 9 to 14) (size 15 to 20)
#    0.000    0.667    6.667    3.333    0.000    1.778 
#    0.000    2.222    0.000    2.000    0.000    0.000 
#    0.000    0.000    0.000    0.000    0.000    0.000 
#
# Total GULP energy -402169.474565 kJ/mol
# GULP energy per Si atom -5585.687147 kJ/mol
# Density = 1.930051 g / cm^3
# Si number density = 19.344542 Si / 1000 Ang^3
#
#
#
# Elastic Constant Matrix: (Units=GPa)
#
#
# Indices 1 2 3 4 5 6 
#
# 1 54.1790 40.8913 28.0865 0.0000 0.0000 0.0000
# 2 40.8913 54.1781 28.0862 0.0000 0.0000 0.0000
# 3 28.0865 28.0862 134.0571 0.0000 0.0000 0.0000
# 4 0.0000 0.0000 0.0000 21.1992 0.0000 0.0000
# 5 0.0000 0.0000 0.0000 0.0000 21.1994 0.0000
# 6 0.0000 0.0000 0.0000 0.0000 0.0000 22.9819
#
#
#
# Elastic Compliance Matrix: (Units=1/GPa)
#
#
# Indices 1 2 3 4 5 6 
#
# 1 0.043632 -0.031628 -0.002515 0.000000 0.000000 0.000000
# 2 -0.031628 0.043633 -0.002515 0.000000 0.000000 0.000000
# 3 -0.002515 -0.002515 0.008513 0.000000 0.000000 0.000000
# 4 0.000000 0.000000 0.000000 0.047172 0.000000 0.000000
# 5 0.000000 0.000000 0.000000 0.000000 0.047171 0.000000
# 6 0.000000 0.000000 0.000000 0.000000 0.000000 0.043512
#
#
# Mechanical properties :
#
#
# Convention : Reuss Voigt Hill
#
# Bulk Modulus (GPa) = 44.51907 48.50470 46.51188
# Shear Modulus (GPa) = 15.90146 22.76611 19.33378
#
# Velocity S-wave (km/s) = 2.87019 3.43428 3.16483
# Velocity P-wave (km/s) = 5.83504 6.39173 6.11972
#
# Compressibility (1/GPa) = 0.02246229
#
# Stress axis : x y z
#
# Youngs Moduli (GPa) = 22.91896 22.91859 117.46205
#
# Poissons Ratio (x) = 0.72486 0.29543
# Poissons Ratio (y) = 0.72487 0.29543
# Poissons Ratio (z) = 0.05764 0.05764
#
# Static dielectric constant tensor:
#      x y z
#    x 1.652160 0.000000 0.000000 
#    y 0.000000 1.652160 0.000000 
#    z 0.000000 0.000000 1.746550 
# 
# From -- ./inp_files/3479.got.cif
#   From: 2010.05.17/outbox.cif.g08.bks.cpg/sg137_2_cif.got.tgz:3479.got - 2010.05.20 13:01:12.
