data_PCOD9570715
_publ_section_title
;
Structure prediction by ZEFSAII (Michael W. Deem and Ramdas Pophale) SiO2 
 PCOD9570715
Probable space group: P 42/N C M
;
_chemical_formula_sum "Si O2"
_cell_formula_units_Z 96
_cell_length_a 15.689205
_cell_length_b 15.689205
_cell_length_c 19.987764
_cell_angle_alpha 90.000000
_cell_angle_beta 90.000000
_cell_angle_gamma 90.000000
_cell_volume 4920.011165
_symmetry_space_group_name_H-M "P 42/N C M"
_symmetry_group_IT_number 138
_space_group.IT_coordinate_system_code '2'
_symmetry_cell_setting 'tetragonal'
loop_
_space_group_symop_operation_xyz
x,y,z
1/2-y,x,1/2+z
1/2-x,1/2-y,z
y,1/2-x,1/2+z
1/2+x,-y,1/2-z
-x,1/2+y,1/2-z
1/2+y,1/2+x,-z
-y,-x,-z
-x,-y,-z
1/2+y,-x,1/2-z
1/2+x,1/2+y,-z
-y,1/2+x,1/2-z
1/2-x,y,1/2+z
x,1/2-y,1/2+z
1/2-y,1/2-x,z
y,x,z
loop_
_atom_site_type_symbol
_atom_site_label
_atom_site_fract_x
_atom_site_fract_y
_atom_site_fract_z
Si Si1 0.249385 0.111903 0.968176
Si Si2 0.837438 0.158612 0.279681
Si Si3 0.285410 0.075675 0.619715
Si Si4 0.575108 0.062799 0.419662
Si Si5 0.540251 0.247167 0.370058
Si Si6 0.831085 0.971091 0.256160
O O1 0.319774 0.180227 0.947140
O O2 0.156453 0.156453 0.954960
O O3 0.265820 0.023381 0.930714
O O4 0.253873 0.099181 0.047833
O O5 0.852576 0.234613 0.225506
O O6 0.882662 0.191794 0.347051
O O7 0.872041 0.065196 0.263857
O O8 0.344987 0.155014 0.641060
O O9 0.217398 0.053106 0.675869
O O10 0.347929 0.996681 0.604011
O O11 0.574442 0.074442 0.500000
O O12 0.577665 0.154563 0.386615
O O13 0.488749 0.011252 0.402566
O O14 0.481404 0.235646 0.304319
O O15 0.900979 0.900979 0.240398
#
# Coordination Sequence:
#
# PCOD9570715 Si02
#       6
#    16  16  16  16  16  16
#     4  10  20  37  61  90 129 169 205 258 323 377
#     4   9  22  41  60  82 121 165 199 250 314 370
#     4  10  22  39  62  94 129 167 209 258 318 381
#     4  10  19  35  63  95 123 154 208 267 313 367
#     4  11  22  38  62  93 120 158 214 267 314 369
#     4  11  24  40  63  92 125 164 208 256 313 376
#
# _framework density 19.512152
#
# number of rings (size 3 to 8) (size 9 to 14) (size 15 to 20)
#    0.000    1.833    1.667    2.000   11.667    2.333 
#    0.000    0.833    0.000    3.000    0.000    0.000 
#    0.000    0.000    0.000    0.000    0.000    0.000 
#
# Total GULP energy -535611.715092 kJ/mol
# GULP energy per Si atom -5579.288699 kJ/mol
# Density = 1.946774 g / cm^3
# Si number density = 19.512152 Si / 1000 Ang^3
#
#
#
# Elastic Constant Matrix: (Units=GPa)
#
#
# Indices 1 2 3 4 5 6 
#
# 1 45.3280 25.9555 16.5741 0.0000 0.0000 0.0000
# 2 25.9555 45.3280 16.5741 0.0000 0.0000 0.0000
# 3 16.5741 16.5741 68.6001 0.0000 0.0000 0.0000
# 4 0.0000 0.0000 0.0000 21.3356 0.0000 0.0000
# 5 0.0000 0.0000 0.0000 0.0000 21.3356 0.0000
# 6 0.0000 0.0000 0.0000 0.0000 0.0000 22.0619
#
#
#
# Elastic Compliance Matrix: (Units=1/GPa)
#
#
# Indices 1 2 3 4 5 6 
#
# 1 0.033712 -0.017908 -0.003818 0.000000 0.000000 0.000000
# 2 -0.017908 0.033712 -0.003818 0.000000 0.000000 0.000000
# 3 -0.003818 -0.003818 0.016422 0.000000 0.000000 0.000000
# 4 0.000000 0.000000 0.000000 0.046870 0.000000 0.000000
# 5 0.000000 0.000000 0.000000 0.000000 0.046870 0.000000
# 6 0.000000 0.000000 0.000000 0.000000 0.000000 0.045327
#
#
# Mechanical properties :
#
#
# Convention : Reuss Voigt Hill
#
# Bulk Modulus (GPa) = 30.52771 30.82928 30.67849
# Shear Modulus (GPa) = 17.54874 19.62345 18.58609
#
# Velocity S-wave (km/s) = 3.00221 3.17472 3.08967
# Velocity P-wave (km/s) = 5.26281 5.41044 5.33713
#
# Compressibility (1/GPa) = 0.03275712
#
# Stress axis : x y z
#
# Youngs Moduli (GPa) = 29.66321 29.66321 60.89286
#
# Poissons Ratio (x) = 0.53120 0.23251
# Poissons Ratio (y) = 0.53120 0.23251
# Poissons Ratio (z) = 0.11326 0.11326
#
# Static dielectric constant tensor:
#      x y z
#    x 1.702350 0.000000 0.000000 
#    y 0.000000 1.702350 0.000000 
#    z 0.000000 0.000000 1.697470 
# 
# From -- ./inp_files/6245.got.cif
#   From: 2010.05.17/outbox.cif.g08.bks.cpg/sg138_4_cif.got.tgz:6245.got - 2010.05.20 13:08:53.
