data_PCOD9570151
_publ_section_title
;
Structure prediction by ZEFSAII (Michael W. Deem and Ramdas Pophale) SiO2 
 PCOD9570151
Probable space group: P 42/N M C
;
_chemical_formula_sum "Si O2"
_cell_formula_units_Z 128
_cell_length_a 24.391264
_cell_length_b 24.391264
_cell_length_c 10.085251
_cell_angle_alpha 90.000000
_cell_angle_beta 90.000000
_cell_angle_gamma 90.000000
_cell_volume 6000.056293
_symmetry_space_group_name_H-M "P 42/N M C"
_symmetry_group_IT_number 137
_space_group.IT_coordinate_system_code '2'
_symmetry_cell_setting 'tetragonal'
loop_
_space_group_symop_operation_xyz
x,y,z
1/2-y,x,1/2+z
1/2-x,1/2-y,z
y,1/2-x,1/2+z
1/2+x,-y,-z
-x,1/2+y,-z
1/2+y,1/2+x,1/2-z
-y,-x,1/2-z
-x,-y,-z
1/2+y,-x,1/2-z
1/2+x,1/2+y,-z
-y,1/2+x,1/2-z
1/2-x,y,z
x,1/2-y,z
1/2-y,1/2-x,1/2+z
y,x,1/2+z
loop_
_atom_site_type_symbol
_atom_site_label
_atom_site_fract_x
_atom_site_fract_y
_atom_site_fract_z
Si Si1 0.491156 0.813303 0.810872
Si Si2 0.019569 0.314847 0.830254
Si Si3 0.646420 0.032778 0.062209
Si Si4 0.921297 0.624624 0.939689
Si Si5 0.046811 0.500601 0.110844
Si Si6 0.850465 0.312693 0.399481
Si Si7 0.921772 0.810246 0.452376
Si Si8 0.912554 0.311676 0.930654
O O1 0.486452 0.750000 0.765083
O O2 0.553218 0.829158 0.845800
O O3 0.470735 0.863918 0.719722
O O4 0.452635 0.815234 0.940740
O O5 0.020616 0.250000 0.878310
O O6 0.051432 0.312837 0.693499
O O7 0.955538 0.333534 0.820432
O O8 0.049060 0.359307 0.922981
O O9 0.596524 0.034332 0.959854
O O10 0.645318 0.170284 0.988669
O O11 0.676034 0.974800 0.040609
O O12 0.685322 0.085145 0.065098
O O13 0.935008 0.563615 0.884836
O O14 0.856949 0.623287 0.962933
O O15 0.025312 0.525312 0.250000
O O16 0.000000 0.500000 0.000000
O O17 0.835326 0.335326 0.250000
O O18 0.830638 0.250000 0.405677
O O19 0.900942 0.750000 0.480237
O O20 0.902823 0.250000 0.886642
#
# Coordination Sequence:
#
# PCOD9570151 Si02
#       8
#    16  16  16  16  16  16  16  16
#     4  10  19  37  61  89 119 157 209 257 307 374
#     4   9  20  40  63  87 117 160 208 251 303 378
#     4  11  24  37  59  84 124 163 209 251 309 381
#     4  10  22  35  64  85 123 156 205 248 313 372
#     4  11  26  40  59  93 135 168 205 259 331 396
#     4  12  24  37  56  85 121 163 211 269 331 379
#     4  10  22  39  60  88 124 161 204 250 303 377
#     4   9  19  36  59  83 114 155 200 257 315 369
#
# _framework density 21.333134000000001
#
# number of rings (size 3 to 8) (size 9 to 14) (size 15 to 20)
#    0.000    1.750    1.250    3.375   10.500    1.375 
#    0.000    0.000    0.000    1.500    0.000    4.375 
#    0.000    6.000    0.000    0.000    0.000    0.000 
#
# Total GULP energy -712551.281014 kJ/mol
# GULP energy per Si atom -5566.806883 kJ/mol
# Density = 2.128458 g / cm^3
# Si number density = 21.333134 Si / 1000 Ang^3
#
#
#
# Elastic Constant Matrix: (Units=GPa)
#
#
# Indices 1 2 3 4 5 6 
#
# 1 92.2440 33.9059 7.6609 0.0000 0.0000 0.0000
# 2 33.9059 92.2440 7.6609 0.0000 0.0000 0.0000
# 3 7.6609 7.6609 41.2043 0.0000 0.0000 0.0000
# 4 0.0000 0.0000 0.0000 13.5087 0.0000 0.0000
# 5 0.0000 0.0000 0.0000 0.0000 13.5087 0.0000
# 6 0.0000 0.0000 0.0000 0.0000 0.0000 26.7659
#
#
#
# Elastic Compliance Matrix: (Units=1/GPa)
#
#
# Indices 1 2 3 4 5 6 
#
# 1 0.012626 -0.004516 -0.001508 0.000000 0.000000 0.000000
# 2 -0.004516 0.012626 -0.001508 0.000000 0.000000 0.000000
# 3 -0.001508 -0.001508 0.024830 0.000000 0.000000 0.000000
# 4 0.000000 0.000000 0.000000 0.074026 0.000000 0.000000
# 5 0.000000 0.000000 0.000000 0.000000 0.074026 0.000000
# 6 0.000000 0.000000 0.000000 0.000000 0.000000 0.037361
#
#
# Mechanical properties :
#
#
# Convention : Reuss Voigt Hill
#
# Bulk Modulus (GPa) = 28.55600 36.01640 32.28620
# Shear Modulus (GPa) = 19.06717 22.52097 20.79407
#
# Velocity S-wave (km/s) = 2.99286 3.25265 3.12546
# Velocity P-wave (km/s) = 5.03565 5.57008 5.30959
#
# Compressibility (1/GPa) = 0.03501891
#
# Stress axis : x y z
#
# Youngs Moduli (GPa) = 79.20262 79.20262 40.27387
#
# Poissons Ratio (x) = 0.35765 0.06073
# Poissons Ratio (y) = 0.35765 0.06073
# Poissons Ratio (z) = 0.11943 0.11943
#
# Static dielectric constant tensor:
#      x y z
#    x 1.812360 0.000000 0.000000 
#    y 0.000000 1.812360 0.000000 
#    z 0.000000 0.000000 1.938010 
# 
# From -- ./inp_files/4043.got.cif
#   From: 2010.05.17/outbox.cif.g08.bks.cpg/sg137_3_cif.got.tgz:4043.got - 2010.05.20 13:01:12.
