data_PCOD9570005
_publ_section_title
;
Structure prediction by ZEFSAII (Michael W. Deem and Ramdas Pophale) SiO2 
 PCOD9570005
Probable space group: P 42/N M C
;
_chemical_formula_sum "Si O2"
_cell_formula_units_Z 88
_cell_length_a 17.218397
_cell_length_b 17.218397
_cell_length_c 16.896384
_cell_angle_alpha 90.000000
_cell_angle_beta 90.000000
_cell_angle_gamma 90.000000
_cell_volume 5009.324953
_symmetry_space_group_name_H-M "P 42/N M C"
_symmetry_group_IT_number 137
_space_group.IT_coordinate_system_code '2'
_symmetry_cell_setting 'tetragonal'
loop_
_space_group_symop_operation_xyz
x,y,z
1/2-y,x,1/2+z
1/2-x,1/2-y,z
y,1/2-x,1/2+z
1/2+x,-y,-z
-x,1/2+y,-z
1/2+y,1/2+x,1/2-z
-y,-x,1/2-z
-x,-y,-z
1/2+y,-x,1/2-z
1/2+x,1/2+y,-z
-y,1/2+x,1/2-z
1/2-x,y,z
x,1/2-y,z
1/2-y,1/2-x,1/2+z
y,x,1/2+z
loop_
_atom_site_type_symbol
_atom_site_label
_atom_site_fract_x
_atom_site_fract_y
_atom_site_fract_z
Si Si1 0.984803 0.575236 0.685150
Si Si2 0.160188 0.660188 0.250000
Si Si3 0.342301 0.499767 0.969514
Si Si4 0.592918 0.058037 0.876095
Si Si5 0.159776 0.094079 0.204968
Si Si6 0.156877 0.165582 0.036807
O O1 0.014648 0.635367 0.620612
O O2 0.964612 0.495806 0.638564
O O3 0.906039 0.603638 0.728634
O O4 0.047664 0.547664 0.750000
O O5 0.147644 0.750000 0.268442
O O6 0.111008 0.634387 0.173913
O O7 0.250000 0.503687 0.982121
O O8 0.383626 0.555632 0.032739
O O9 0.369903 0.411596 0.991312
O O10 0.644657 0.991227 0.832765
O O11 0.250000 0.101426 0.229992
O O12 0.145267 0.150887 0.130434
O O13 0.250000 0.167546 0.025057
O O14 0.125126 0.250000 0.012991
#
# Coordination Sequence:
#
# PCOD9570005 Si02
#       6
#    16   8  16  16  16  16
#     4  10  20  32  49  73  96 133 173 211 244 303
#     4  11  20  30  52  82 104 124 158 208 263 314
#     4  10  20  33  51  71  97 132 171 212 255 297
#     4  10  18  33  51  70  99 132 160 199 251 314
#     4   9  16  28  47  69  97 133 165 195 241 292
#     4   8  15  28  45  67  97 132 165 198 239 286
#
# _framework density 17.567236999999999
#
# number of rings (size 3 to 8) (size 9 to 14) (size 15 to 20)
#    0.000    2.455    2.727    3.273    0.000    1.455 
#    0.000    0.000    0.000    1.091    0.000    0.000 
#    0.000    0.000    0.000    0.000    0.000    0.000 
#
# Total GULP energy -490330.986110 kJ/mol
# GULP energy per Si atom -5571.943024 kJ/mol
# Density = 1.752725 g / cm^3
# Si number density = 17.567237 Si / 1000 Ang^3
#
#
#
# Elastic Constant Matrix: (Units=GPa)
#
#
# Indices 1 2 3 4 5 6 
#
# 1 17.8145 5.9846 5.3883 0.0000 0.0000 0.0000
# 2 5.9846 17.8145 5.3883 0.0000 0.0000 0.0000
# 3 5.3883 5.3883 80.3708 0.0000 0.0000 0.0000
# 4 0.0000 0.0000 0.0000 13.0078 0.0000 0.0000
# 5 0.0000 0.0000 0.0000 0.0000 13.0078 0.0000
# 6 0.0000 0.0000 0.0000 0.0000 0.0000 12.0061
#
#
#
# Elastic Compliance Matrix: (Units=1/GPa)
#
#
# Indices 1 2 3 4 5 6 
#
# 1 0.063933 -0.020599 -0.002905 0.000000 0.000000 0.000000
# 2 -0.020599 0.063933 -0.002905 0.000000 0.000000 0.000000
# 3 -0.002905 -0.002905 0.012832 0.000000 0.000000 0.000000
# 4 0.000000 0.000000 0.000000 0.076877 0.000000 0.000000
# 5 0.000000 0.000000 0.000000 0.000000 0.076877 0.000000
# 6 0.000000 0.000000 0.000000 0.000000 0.000000 0.083291
#
#
# Mechanical properties :
#
#
# Convention : Reuss Voigt Hill
#
# Bulk Modulus (GPa) = 11.37933 16.61361 13.99647
# Shear Modulus (GPa) = 10.87303 14.22024 12.54664
#
# Velocity S-wave (km/s) = 2.49055 2.84821 2.67536
# Velocity P-wave (km/s) = 3.84214 4.50490 4.18666
#
# Compressibility (1/GPa) = 0.08787863
#
# Stress axis : x y z
#
# Youngs Moduli (GPa) = 15.64147 15.64147 77.93085
#
# Poissons Ratio (x) = 0.32219 0.22641
# Poissons Ratio (y) = 0.32219 0.22641
# Poissons Ratio (z) = 0.04544 0.04544
#
# Static dielectric constant tensor:
#      x y z
#    x 1.606800 0.000000 0.000000 
#    y 0.000000 1.606800 0.000000 
#    z 0.000000 0.000000 1.620800 
# 
# From -- ./inp_files/5082.got.cif
#   From: 2010.05.17/outbox.cif.g08.bks.cpg/sg137_3_cif.got.tgz:5082.got - 2010.05.20 13:01:12.
