data_PCOD9570581
_publ_section_title
;
Structure prediction by ZEFSAII (Michael W. Deem and Ramdas Pophale) SiO2 
 PCOD9570581
Probable space group: P 42/N C M
;
_chemical_formula_sum "Si O2"
_cell_formula_units_Z 128
_cell_length_a 17.640570
_cell_length_b 17.640570
_cell_length_c 24.427744
_cell_angle_alpha 90.000000
_cell_angle_beta 90.000000
_cell_angle_gamma 90.000000
_cell_volume 7601.662569
_symmetry_space_group_name_H-M "P 42/N C M"
_symmetry_group_IT_number 138
_space_group.IT_coordinate_system_code '2'
_symmetry_cell_setting 'tetragonal'
loop_
_space_group_symop_operation_xyz
x,y,z
1/2-y,x,1/2+z
1/2-x,1/2-y,z
y,1/2-x,1/2+z
1/2+x,-y,1/2-z
-x,1/2+y,1/2-z
1/2+y,1/2+x,-z
-y,-x,-z
-x,-y,-z
1/2+y,-x,1/2-z
1/2+x,1/2+y,-z
-y,1/2+x,1/2-z
1/2-x,y,1/2+z
x,1/2-y,1/2+z
1/2-y,1/2-x,z
y,x,z
loop_
_atom_site_type_symbol
_atom_site_label
_atom_site_fract_x
_atom_site_fract_y
_atom_site_fract_z
Si Si1 0.501237 0.128583 0.501196
Si Si2 0.700878 0.020923 0.383511
Si Si3 0.572434 0.699240 0.704349
Si Si4 0.374694 0.247485 0.182086
Si Si5 0.179911 0.054946 0.887189
Si Si6 0.270913 0.664710 0.663116
Si Si7 0.070270 0.551419 0.316838
Si Si8 0.169881 0.599970 0.763075
O O1 0.579367 0.079367 0.500000
O O2 0.500603 0.180093 0.554815
O O3 0.483842 0.177528 0.446917
O O4 0.434759 0.065242 0.504630
O O5 0.748655 0.098374 0.378144
O O6 0.621064 0.039210 0.353087
O O7 0.740527 0.952006 0.351361
O O8 0.624082 0.624082 0.700048
O O9 0.609322 0.750027 0.752715
O O10 0.567231 0.743556 0.646927
O O11 0.488431 0.683058 0.727245
O O12 0.327848 0.172153 0.168064
O O13 0.319272 0.319272 0.170684
O O14 0.133913 0.133913 0.891467
O O15 0.128138 0.998835 0.850844
O O16 0.250000 0.750000 0.646810
O O17 0.227792 0.638853 0.719757
O O18 0.357923 0.670252 0.679712
O O19 0.110027 0.588390 0.265045
O O20 0.000252 0.499749 0.300252
#
# Coordination Sequence:
#
# PCOD9570581 Si02
#       8
#    16  16  16  16  16  16  16  16
#     4  10  19  34  57  85 112 141 186 241 293 339
#     4  11  21  34  56  80 113 151 184 234 285 349
#     4  11  22  36  55  80 113 152 191 229 281 351
#     4  10  20  34  53  80 117 156 190 228 279 343
#     4  10  21  34  54  82 111 145 181 235 290 334
#     4  11  21  33  52  80 112 147 182 232 295 338
#     4  10  18  29  51  83 111 139 182 224 274 338
#     4  11  19  32  52  76 110 150 179 223 278 341
#
# _framework density 16.838421
#
# number of rings (size 3 to 8) (size 9 to 14) (size 15 to 20)
#    0.000    1.500    5.000    2.625    1.750    0.750 
#    0.000    1.250    0.000    3.375    0.000    0.875 
#    0.000    0.000    0.000    0.000    0.000    0.000 
#
# Total GULP energy -713866.347024 kJ/mol
# GULP energy per Si atom -5577.080836 kJ/mol
# Density = 1.680010 g / cm^3
# Si number density = 16.838421 Si / 1000 Ang^3
#
#
#
# Elastic Constant Matrix: (Units=GPa)
#
#
# Indices 1 2 3 4 5 6 
#
# 1 72.3659 20.5231 19.6719 0.0000 0.0000 0.0000
# 2 20.5231 72.3659 19.6719 0.0000 0.0000 0.0000
# 3 19.6719 19.6719 80.3722 0.0000 0.0000 0.0000
# 4 0.0000 0.0000 0.0000 21.6047 0.0000 0.0000
# 5 0.0000 0.0000 0.0000 0.0000 21.6047 0.0000
# 6 0.0000 0.0000 0.0000 0.0000 0.0000 18.5174
#
#
#
# Elastic Compliance Matrix: (Units=1/GPa)
#
#
# Indices 1 2 3 4 5 6 
#
# 1 0.015650 -0.003639 -0.002940 0.000000 0.000000 0.000000
# 2 -0.003639 0.015650 -0.002940 0.000000 0.000000 0.000000
# 3 -0.002940 -0.002940 0.013881 0.000000 0.000000 0.000000
# 4 0.000000 0.000000 0.000000 0.046286 0.000000 0.000000
# 5 0.000000 0.000000 0.000000 0.000000 0.046286 0.000000
# 6 0.000000 0.000000 0.000000 0.000000 0.000000 0.054003
#
#
# Mechanical properties :
#
#
# Convention : Reuss Voigt Hill
#
# Bulk Modulus (GPa) = 38.25028 38.31531 38.28279
# Shear Modulus (GPa) = 22.77818 23.36118 23.06968
#
# Velocity S-wave (km/s) = 3.68197 3.72879 3.70545
# Velocity P-wave (km/s) = 6.39071 6.42982 6.41030
#
# Compressibility (1/GPa) = 0.02614360
#
# Stress axis : x y z
#
# Youngs Moduli (GPa) = 63.89822 63.89822 72.04001
#
# Poissons Ratio (x) = 0.23254 0.21178
# Poissons Ratio (y) = 0.23254 0.21178
# Poissons Ratio (z) = 0.18784 0.18784
#
# Static dielectric constant tensor:
#      x y z
#    x 1.594870 0.000000 0.000000 
#    y 0.000000 1.594870 0.000000 
#    z 0.000000 0.000000 1.567320 
# 
# From -- ./inp_files/7204.got.cif
#   From: 2010.05.17/outbox.cif.g08.bks.cpg/sg138_4_cif.got.tgz:7204.got - 2010.05.20 13:08:53.
