data_PCOD9570163
_publ_section_title
;
Structure prediction by ZEFSAII (Michael W. Deem and Ramdas Pophale) SiO2 
 PCOD9570163
Probable space group: P 42/N M C
;
_chemical_formula_sum "Si O2"
_cell_formula_units_Z 96
_cell_length_a 16.222252
_cell_length_b 16.222252
_cell_length_c 19.886806
_cell_angle_alpha 90.000000
_cell_angle_beta 90.000000
_cell_angle_gamma 90.000000
_cell_volume 5233.440901
_symmetry_space_group_name_H-M "P 42/N M C"
_symmetry_group_IT_number 137
_space_group.IT_coordinate_system_code '2'
_symmetry_cell_setting 'tetragonal'
loop_
_space_group_symop_operation_xyz
x,y,z
1/2-y,x,1/2+z
1/2-x,1/2-y,z
y,1/2-x,1/2+z
1/2+x,-y,-z
-x,1/2+y,-z
1/2+y,1/2+x,1/2-z
-y,-x,1/2-z
-x,-y,-z
1/2+y,-x,1/2-z
1/2+x,1/2+y,-z
-y,1/2+x,1/2-z
1/2-x,y,z
x,1/2-y,z
1/2-y,1/2-x,1/2+z
y,x,1/2+z
loop_
_atom_site_type_symbol
_atom_site_label
_atom_site_fract_x
_atom_site_fract_y
_atom_site_fract_z
Si Si1 0.344920 0.406378 0.603306
Si Si2 0.902232 0.160690 0.145887
Si Si3 0.159224 0.350257 0.247371
Si Si4 0.846381 0.338592 0.993721
Si Si5 0.014082 0.150915 0.343449
Si Si6 0.019458 0.350546 0.500084
O O1 0.250000 0.384391 0.586059
O O2 0.344520 0.501913 0.625224
O O3 0.371398 0.356652 0.669791
O O4 0.407329 0.388020 0.543546
O O5 0.888452 0.250000 0.179364
O O6 0.876639 0.076101 0.180008
O O7 0.853227 0.161088 0.074917
O O8 0.250000 0.377153 0.269132
O O9 0.157121 0.250000 0.249551
O O10 0.086280 0.380282 0.295239
O O11 0.750000 0.337603 0.975447
O O12 0.883549 0.250000 0.971651
O O13 0.879034 0.428798 0.973875
O O14 0.015725 0.250000 0.342131
O O15 0.026182 0.126135 0.421375
O O16 0.022338 0.250000 0.503742
#
# Coordination Sequence:
#
# PCOD9570163 Si02
#       6
#    16  16  16  16  16  16
#     4  10  20  31  45  67  95 129 165 198 240 294
#     4   9  17  29  46  69  97 127 157 192 237 289
#     4   9  18  33  49  64  89 126 162 198 244 294
#     4   8  14  26  44  66  94 126 155 187 235 290
#     4   9  18  31  49  73  97 124 161 200 241 293
#     4   9  17  29  47  71  94 119 157 202 239 279
#
# _framework density 18.343571000000001
#
# number of rings (size 3 to 8) (size 9 to 14) (size 15 to 20)
#    0.000    3.000    0.000    2.000    0.000    6.000 
#    0.000    1.667    0.000    2.000    0.000    9.333 
#    0.000    0.000    0.000    0.667    0.000   38.667 
#
# Total GULP energy -534765.697485 kJ/mol
# GULP energy per Si atom -5570.476015 kJ/mol
# Density = 1.830182 g / cm^3
# Si number density = 18.343571 Si / 1000 Ang^3
#
#
#
# Elastic Constant Matrix: (Units=GPa)
#
#
# Indices 1 2 3 4 5 6 
#
# 1 94.2158 18.9004 42.5121 0.0000 0.0000 0.0000
# 2 18.9004 94.2158 42.5121 0.0000 0.0000 0.0000
# 3 42.5121 42.5121 63.3574 0.0000 0.0000 0.0000
# 4 0.0000 0.0000 0.0000 4.8107 0.0000 0.0000
# 5 0.0000 0.0000 0.0000 0.0000 4.8107 0.0000
# 6 0.0000 0.0000 0.0000 0.0000 0.0000 22.6375
#
#
#
# Elastic Compliance Matrix: (Units=1/GPa)
#
#
# Indices 1 2 3 4 5 6 
#
# 1 0.015557 0.002279 -0.011968 0.000000 0.000000 0.000000
# 2 0.002279 0.015557 -0.011968 0.000000 0.000000 0.000000
# 3 -0.011968 -0.011968 0.031844 0.000000 0.000000 0.000000
# 4 0.000000 0.000000 0.000000 0.207872 0.000000 0.000000
# 5 0.000000 0.000000 0.000000 0.000000 0.207872 0.000000
# 6 0.000000 0.000000 0.000000 0.000000 0.000000 0.044174
#
#
# Mechanical properties :
#
#
# Convention : Reuss Voigt Hill
#
# Bulk Modulus (GPa) = 50.90370 51.07093 50.98732
# Shear Modulus (GPa) = 8.73000 16.30939 12.51970
#
# Velocity S-wave (km/s) = 2.18392 2.98502 2.61533
# Velocity P-wave (km/s) = 5.84549 6.30732 6.08079
#
# Compressibility (1/GPa) = 0.01964494
#
# Stress axis : x y z
#
# Youngs Moduli (GPa) = 64.28042 64.28042 31.40294
#
# Poissons Ratio (x) = -0.14652 0.37583
# Poissons Ratio (y) = -0.14652 0.37583
# Poissons Ratio (z) = 0.76930 0.76930
#
# Static dielectric constant tensor:
#      x y z
#    x 1.667360 0.000000 0.000000 
#    y 0.000000 1.667360 0.000000 
#    z 0.000000 0.000000 1.621160 
# 
# From -- ./inp_files/7843.got.cif
#   From: 2010.05.17/outbox.cif.g08.bks.cpg/sg137_4_cif.got.tgz:7843.got - 2010.05.20 13:01:12.
