data_PCOD9570254
_publ_section_title
;
Structure prediction by ZEFSAII (Michael W. Deem and Ramdas Pophale) SiO2 
 PCOD9570254
Probable space group: P 42/N M C
;
_chemical_formula_sum "Si O2"
_cell_formula_units_Z 96
_cell_length_a 14.784185
_cell_length_b 14.784185
_cell_length_c 19.500452
_cell_angle_alpha 90.000000
_cell_angle_beta 90.000000
_cell_angle_gamma 90.000000
_cell_volume 4262.255254
_symmetry_space_group_name_H-M "P 42/N M C"
_symmetry_group_IT_number 137
_space_group.IT_coordinate_system_code '2'
_symmetry_cell_setting 'tetragonal'
loop_
_space_group_symop_operation_xyz
x,y,z
1/2-y,x,1/2+z
1/2-x,1/2-y,z
y,1/2-x,1/2+z
1/2+x,-y,-z
-x,1/2+y,-z
1/2+y,1/2+x,1/2-z
-y,-x,1/2-z
-x,-y,-z
1/2+y,-x,1/2-z
1/2+x,1/2+y,-z
-y,1/2+x,1/2-z
1/2-x,y,z
x,1/2-y,z
1/2-y,1/2-x,1/2+z
y,x,1/2+z
loop_
_atom_site_type_symbol
_atom_site_label
_atom_site_fract_x
_atom_site_fract_y
_atom_site_fract_z
Si Si1 0.102118 0.464367 0.371828
Si Si2 0.346202 0.647806 0.556314
Si Si3 0.542207 0.400572 0.179887
Si Si4 0.356288 0.348017 0.741578
Si Si5 0.147393 0.142457 0.510808
Si Si6 0.538564 0.144557 0.575662
O O1 0.154165 0.420139 0.308449
O O2 0.132151 0.418092 0.442898
O O3 0.094801 0.573072 0.379472
O O4 0.999469 0.442091 0.351910
O O5 0.250000 0.644277 0.518241
O O6 0.358113 0.750000 0.583340
O O7 0.342288 0.579698 0.618554
O O8 0.423127 0.631640 0.501172
O O9 0.600102 0.399899 0.250000
O O10 0.438964 0.382139 0.201352
O O11 0.250000 0.355445 0.760873
O O12 0.366827 0.250000 0.705158
O O13 0.250000 0.127732 0.536279
O O14 0.138851 0.250000 0.493394
O O15 0.067688 0.122890 0.564920
O O16 0.549669 0.250000 0.594916
#
# Coordination Sequence:
#
# PCOD9570254 Si02
#       6
#    16  16  16  16  16  16
#     4  11  21  37  61  92 120 160 206 252 313 371
#     4  10  21  37  58  86 124 167 204 247 306 370
#     4  10  22  37  59  86 120 158 206 256 311 369
#     4  10  22  41  65  93 124 158 204 265 323 379
#     4  10  20  35  59  90 123 161 203 249 304 366
#     4  10  22  40  60  90 131 165 207 259 307 369
#
# _framework density 22.523285999999999
#
# number of rings (size 3 to 8) (size 9 to 14) (size 15 to 20)
#    0.000    1.833    1.667    2.000    0.000    6.667 
#    0.000    1.667    0.000    3.000    0.000    0.000 
#    0.000    0.000    0.000    0.000    0.000    0.000 
#
# Total GULP energy -535961.492328 kJ/mol
# GULP energy per Si atom -5582.932212 kJ/mol
# Density = 2.247202 g / cm^3
# Si number density = 22.523286 Si / 1000 Ang^3
#
#
#
# Elastic Constant Matrix: (Units=GPa)
#
#
# Indices 1 2 3 4 5 6 
#
# 1 113.7736 43.4949 37.2987 0.0000 0.0000 0.0000
# 2 43.4949 113.7738 37.2987 0.0000 0.0000 0.0000
# 3 37.2987 37.2987 66.8432 0.0000 0.0000 0.0000
# 4 0.0000 0.0000 0.0000 -10.8823 0.0000 0.0000
# 5 0.0000 0.0000 0.0000 0.0000 -10.8794 0.0000
# 6 0.0000 0.0000 0.0000 0.0000 0.0000 25.4181
#
#
#
# Elastic Compliance Matrix: (Units=1/GPa)
#
#
# Indices 1 2 3 4 5 6 
#
# 1 0.011438 -0.002791 -0.004825 0.000000 0.000000 0.000000
# 2 -0.002791 0.011438 -0.004825 0.000000 0.000000 0.000000
# 3 -0.004825 -0.004825 0.020345 0.000000 0.000000 0.000000
# 4 0.000000 0.000000 0.000000 -0.091893 0.000000 0.000000
# 5 0.000000 0.000000 0.000000 0.000000 -0.091917 0.000000
# 6 0.000000 0.000000 0.000000 0.000000 0.000000 0.039342
#
#
# Mechanical properties :
#
#
# Convention : Reuss Voigt Hill
#
# Bulk Modulus (GPa) = 54.52837 58.95280 56.74058
# Shear Modulus (GPa) = -71.17409 12.48451 -29.34479
#
# Velocity S-wave (km/s) = -5.62751 2.35690 -3.61344
# Velocity P-wave (km/s) = 4.23825 5.79979 2.79954
#
# Compressibility (1/GPa) = 0.01833908
#
# Stress axis : x y z
#
# Youngs Moduli (GPa) = 87.42647 87.42673 49.15130
#
# Poissons Ratio (x) = 0.24400 0.23717
# Poissons Ratio (y) = 0.24400 0.23717
# Poissons Ratio (z) = 0.42185 0.42185
#
# Static dielectric constant tensor:
#      x y z
#    x 1.879640 0.000000 0.000000 
#    y 0.000000 1.879640 0.000000 
#    z 0.000000 0.000000 1.808990 
# 
# From -- ./inp_files/7851.got.cif
#   From: 2010.05.17/outbox.cif.g08.bks.cpg/sg137_4_cif.got.tgz:7851.got - 2010.05.20 13:01:12.
