data_PCOD9570551
_publ_section_title
;
Structure prediction by ZEFSAII (Michael W. Deem and Ramdas Pophale) SiO2 
 PCOD9570551
Probable space group: P 42/N M C
;
_chemical_formula_sum "Si O2"
_cell_formula_units_Z 88
_cell_length_a 15.000000
_cell_length_b 15.000000
_cell_length_c 21.000000
_cell_angle_alpha 90.000000
_cell_angle_beta 90.000000
_cell_angle_gamma 90.000000
_cell_volume 4725.000000
_symmetry_space_group_name_H-M "P 42/N M C"
_symmetry_group_IT_number 137
_space_group.IT_coordinate_system_code '2'
_symmetry_cell_setting 'tetragonal'
loop_
_space_group_symop_operation_xyz
x,y,z
1/2-y,x,1/2+z
1/2-x,1/2-y,z
y,1/2-x,1/2+z
1/2+x,-y,-z
-x,1/2+y,-z
1/2+y,1/2+x,1/2-z
-y,-x,1/2-z
-x,-y,-z
1/2+y,-x,1/2-z
1/2+x,1/2+y,-z
-y,1/2+x,1/2-z
1/2-x,y,z
x,1/2-y,z
1/2-y,1/2-x,1/2+z
y,x,1/2+z
loop_
_atom_site_type_symbol
_atom_site_label
_atom_site_fract_x
_atom_site_fract_y
_atom_site_fract_z
Si Si1 0.355878 0.353912 0.161945
Si Si2 0.953967 0.351295 0.382784
Si Si3 0.002306 0.852741 0.232548
Si Si4 0.991823 0.644585 0.952537
Si Si5 0.646941 0.583812 0.595399
Si Si6 0.144186 0.855815 0.750000
O O1 0.250000 0.361595 0.147742
O O2 0.373807 0.250000 0.177995
O O3 0.375187 0.417009 0.222451
O O4 0.414027 0.376633 0.099315
O O5 0.923242 0.250000 0.394609
O O6 0.911870 0.422529 0.431352
O O7 0.917280 0.375424 0.311661
O O8 0.061051 0.354765 0.390863
O O9 0.080341 0.919660 0.250000
O O10 0.025514 0.750000 0.247126
O O11 0.980250 0.856853 0.157350
O O12 0.011508 0.750000 0.945527
O O13 0.960976 0.631895 0.025863
O O14 0.750000 0.620196 0.594498
O O15 0.250000 0.867999 0.733982
#
# Coordination Sequence:
#
# PCOD9570551 Si02
#       6
#    16  16  16  16  16   8
#     4   9  19  36  60  87 112 147 194 239 289 351
#     4  11  23  37  60  90 121 161 201 241 297 363
#     4  10  21  38  59  81 110 147 191 243 292 342
#     4  10  21  39  62  87 121 157 195 246 300 358
#     4  10  23  40  57  84 120 159 199 245 301 354
#     4   9  20  38  58  88 124 152 191 246 304 364
#
# _framework density 18.624338999999999
#
# number of rings (size 3 to 8) (size 9 to 14) (size 15 to 20)
#    0.000    2.091    0.000    2.182    3.818    3.091 
#    0.000    6.364    0.000    3.273    0.000    0.000 
#    0.000    0.000    0.000    0.000    0.000    0.000 
#
# Total GULP energy -491153.946560 kJ/mol
# GULP energy per Si atom -5581.294847 kJ/mol
# Density = 1.858195 g / cm^3
# Si number density = 18.624339 Si / 1000 Ang^3
#
#
#
# Elastic Constant Matrix: (Units=GPa)
#
#
# Indices 1 2 3 4 5 6 
#
# 1 92.7463 60.5565 60.5275 0.0000 0.0000 0.0000
# 2 60.5565 92.7478 60.5271 0.0000 0.0000 0.0000
# 3 60.5275 60.5271 149.5245 0.0000 0.0000 0.0000
# 4 0.0000 0.0000 0.0000 23.6267 0.0000 0.0000
# 5 0.0000 0.0000 0.0000 0.0000 23.6266 0.0000
# 6 0.0000 0.0000 0.0000 0.0000 0.0000 29.6486
#
#
#
# Elastic Compliance Matrix: (Units=1/GPa)
#
#
# Indices 1 2 3 4 5 6 
#
# 1 0.020327 -0.010739 -0.003881 0.000000 0.000000 0.000000
# 2 -0.010739 0.020326 -0.003881 0.000000 0.000000 0.000000
# 3 -0.003881 -0.003881 0.009830 0.000000 0.000000 0.000000
# 4 0.000000 0.000000 0.000000 0.042325 0.000000 0.000000
# 5 0.000000 0.000000 0.000000 0.000000 0.042325 0.000000
# 6 0.000000 0.000000 0.000000 0.000000 0.000000 0.033728
#
#
# Mechanical properties :
#
#
# Convention : Reuss Voigt Hill
#
# Bulk Modulus (GPa) = 74.17848 77.58232 75.88040
# Shear Modulus (GPa) = 23.76915 25.60753 24.68834
#
# Velocity S-wave (km/s) = 3.57633 3.71205 3.64482
# Velocity P-wave (km/s) = 7.54776 7.75366 7.65141
#
# Compressibility (1/GPa) = 0.01348100
#
# Stress axis : x y z
#
# Youngs Moduli (GPa) = 49.19661 49.19784 101.72970
#
# Poissons Ratio (x) = 0.52832 0.39483
# Poissons Ratio (y) = 0.52831 0.39481
# Poissons Ratio (z) = 0.19094 0.19093
#
# Static dielectric constant tensor:
#      x y z
#    x 1.651050 0.000000 0.000000 
#    y 0.000000 1.651060 0.000000 
#    z 0.000000 0.000000 1.622980 
# 
# From -- ./inp_files/7727.got.cif
#   From: 2010.05.17/outbox.ucp.g08.bks.cvg/sg137_4_cif.got.tgz:7727.got - 2010.06.11 11:41:14.
