data_PCOD9570935
_publ_section_title
;
Structure prediction by ZEFSAII (Michael W. Deem and Ramdas Pophale) SiO2 
 PCOD9570935
Probable space group: P 42/N C M
;
_chemical_formula_sum "Si O2"
_cell_formula_units_Z 84
_cell_length_a 11.569669
_cell_length_b 11.569669
_cell_length_c 33.779444
_cell_angle_alpha 90.000000
_cell_angle_beta 90.000000
_cell_angle_gamma 90.000000
_cell_volume 4521.623169
_symmetry_space_group_name_H-M "P 42/N C M"
_symmetry_group_IT_number 138
_space_group.IT_coordinate_system_code '2'
_symmetry_cell_setting 'tetragonal'
loop_
_space_group_symop_operation_xyz
x,y,z
1/2-y,x,1/2+z
1/2-x,1/2-y,z
y,1/2-x,1/2+z
1/2+x,-y,1/2-z
-x,1/2+y,1/2-z
1/2+y,1/2+x,-z
-y,-x,-z
-x,-y,-z
1/2+y,-x,1/2-z
1/2+x,1/2+y,-z
-y,1/2+x,1/2-z
1/2-x,y,1/2+z
x,1/2-y,1/2+z
1/2-y,1/2-x,z
y,x,z
loop_
_atom_site_type_symbol
_atom_site_label
_atom_site_fract_x
_atom_site_fract_y
_atom_site_fract_z
Si Si1 0.658837 0.658837 0.733368
Si Si2 0.540269 0.540269 0.807842
Si Si3 0.348541 0.348541 0.024754
Si Si4 0.816780 0.486150 0.021032
Si Si5 0.051130 0.051130 0.103829
Si Si6 0.444717 0.764277 0.690275
Si Si7 0.250000 0.750000 0.750000
Si Si8 0.614198 0.221468 0.398933
O O1 0.750000 0.750000 0.749327
O O2 0.598488 0.598488 0.770407
O O3 0.566907 0.722968 0.705880
O O4 0.583077 0.583077 0.850910
O O5 0.562541 0.402979 0.806457
O O6 0.250000 0.250000 0.025432
O O7 0.383269 0.383269 0.068973
O O8 0.458458 0.292189 0.002232
O O9 0.914868 0.585133 0.021644
O O10 0.781157 0.452798 0.065205
O O11 0.874965 0.374965 0.000000
O O12 0.914769 0.081222 0.099682
O O13 0.350771 0.711679 0.720296
O O14 0.421707 0.734344 0.644672
O O15 0.750000 0.250000 0.403572
#
# Coordination Sequence:
#
# PCOD9570935 Si02
#       8
#     8   8   8  16   8  16   4  16
#     4  12  24  39  66  96 123 163 216 258 314 387
#     4  10  22  41  58  89 131 153 207 262 310 365
#     4  10  21  40  62  84 117 165 202 239 323 364
#     4  10  22  39  59  87 122 157 199 256 301 371
#     4  10  23  39  61  88 121 156 204 263 290 371
#     4  11  23  39  61  91 121 168 203 258 313 377
#     4  12  20  40  68  80 130 168 200 248 320 376
#     4  11  23  39  60  90 121 158 206 250 313 366
#
# _framework density 18.577397999999999
#
# number of rings (size 3 to 8) (size 9 to 14) (size 15 to 20)
#    0.000    1.333    3.810    1.714    1.333    3.810 
#    0.000    0.000    0.000    1.143    0.000    0.000 
#    0.000    0.000    0.000    0.000    0.000    0.000 
#
# Total GULP energy -469027.766134 kJ/mol
# GULP energy per Si atom -5583.663883 kJ/mol
# Density = 1.853512 g / cm^3
# Si number density = 18.577398 Si / 1000 Ang^3
#
#
#
# Elastic Constant Matrix: (Units=GPa)
#
#
# Indices 1 2 3 4 5 6 
#
# 1 71.9344 34.3243 49.7457 0.0000 0.0000 0.0000
# 2 34.3243 71.9344 49.7457 0.0000 0.0000 0.0000
# 3 49.7457 49.7457 170.0214 0.0000 0.0000 0.0000
# 4 0.0000 0.0000 0.0000 66.4841 0.0000 0.0000
# 5 0.0000 0.0000 0.0000 0.0000 66.4841 0.0000
# 6 0.0000 0.0000 0.0000 0.0000 0.0000 27.2045
#
#
#
# Elastic Compliance Matrix: (Units=1/GPa)
#
#
# Indices 1 2 3 4 5 6 
#
# 1 0.019775 -0.006813 -0.003792 0.000000 0.000000 0.000000
# 2 -0.006813 0.019775 -0.003792 0.000000 0.000000 0.000000
# 3 -0.003792 -0.003792 0.008101 0.000000 0.000000 0.000000
# 4 0.000000 0.000000 0.000000 0.015041 0.000000 0.000000
# 5 0.000000 0.000000 0.000000 0.000000 0.015041 0.000000
# 6 0.000000 0.000000 0.000000 0.000000 0.000000 0.036759
#
#
# Mechanical properties :
#
#
# Convention : Reuss Voigt Hill
#
# Bulk Modulus (GPa) = 53.03678 64.61350 58.82514
# Shear Modulus (GPa) = 33.42833 44.03954 38.73393
#
# Velocity S-wave (km/s) = 4.24655 4.87416 4.57114
# Velocity P-wave (km/s) = 7.25639 8.15676 7.71972
#
# Compressibility (1/GPa) = 0.01885484
#
# Stress axis : x y z
#
# Youngs Moduli (GPa) = 50.56826 50.56826 123.44393
#
# Poissons Ratio (x) = 0.34454 0.46816
# Poissons Ratio (y) = 0.34454 0.46816
# Poissons Ratio (z) = 0.19178 0.19178
#
# Static dielectric constant tensor:
#      x y z
#    x 1.645830 0.000000 0.000000 
#    y 0.000000 1.645830 0.000000 
#    z 0.000000 0.000000 1.609390 
# 
# From -- ./inp_files/8161.got.cif
#   From: 2010.05.17/outbox.cif.g08.bks.cpg/sg138_5_cif.got.tgz:8161.got - 2010.05.20 13:08:53.
