data_PCOD9570711
_publ_section_title
;
Structure prediction by ZEFSAII (Michael W. Deem and Ramdas Pophale) SiO2 
 PCOD9570711
Probable space group: P 42/N C M
;
_chemical_formula_sum "Si O2"
_cell_formula_units_Z 72
_cell_length_a 14.738415
_cell_length_b 14.738415
_cell_length_c 17.239996
_cell_angle_alpha 90.000000
_cell_angle_beta 90.000000
_cell_angle_gamma 90.000000
_cell_volume 3744.887046
_symmetry_space_group_name_H-M "P 42/N C M"
_symmetry_group_IT_number 138
_space_group.IT_coordinate_system_code '2'
_symmetry_cell_setting 'tetragonal'
loop_
_space_group_symop_operation_xyz
x,y,z
1/2-y,x,1/2+z
1/2-x,1/2-y,z
y,1/2-x,1/2+z
1/2+x,-y,1/2-z
-x,1/2+y,1/2-z
1/2+y,1/2+x,-z
-y,-x,-z
-x,-y,-z
1/2+y,-x,1/2-z
1/2+x,1/2+y,-z
-y,1/2+x,1/2-z
1/2-x,y,1/2+z
x,1/2-y,1/2+z
1/2-y,1/2-x,z
y,x,z
loop_
_atom_site_type_symbol
_atom_site_label
_atom_site_fract_x
_atom_site_fract_y
_atom_site_fract_z
Si Si1 0.651554 0.848447 0.629787
Si Si2 0.326252 0.677820 0.594474
Si Si3 0.174157 0.325844 0.203711
Si Si4 0.981256 0.740478 0.909044
Si Si5 0.963265 0.823402 0.585806
Si Si6 0.428952 0.428952 0.027684
O O1 0.631303 0.868698 0.719124
O O2 0.610111 0.746946 0.620704
O O3 0.608664 0.891337 0.553349
O O4 0.250000 0.750000 0.620866
O O5 0.322392 0.677609 0.500000
O O6 0.294184 0.578204 0.619616
O O7 0.432975 0.693018 0.613592
O O8 0.250000 0.250000 0.225267
O O9 0.218694 0.402576 0.150900
O O10 0.975889 0.847396 0.926239
O O11 0.963589 0.693308 0.992747
O O12 0.923999 0.923999 0.600978
O O13 0.500000 0.500000 0.000000
#
# Coordination Sequence:
#
# PCOD9570711 Si02
#       6
#     8  16   8  16  16   8
#     4  10  24  38  62  88 123 159 200 264 313 375
#     4   9  20  34  56  86 121 154 198 253 309 360
#     4  12  22  40  57  91 126 158 200 255 336 379
#     4  10  21  34  60  89 123 159 201 261 312 372
#     4  10  19  35  59  88 115 154 206 253 303 359
#     4  10  22  39  65  96 124 164 224 266 306 370
#
# _framework density 19.226213999999999
#
# number of rings (size 3 to 8) (size 9 to 14) (size 15 to 20)
#    0.000    2.000    2.222    1.000   10.889    1.333 
#    0.000    2.222    0.000    0.000    0.000    0.000 
#    0.000    0.000    0.000    0.000    0.000    0.000 
#
# Total GULP energy -400912.743170 kJ/mol
# GULP energy per Si atom -5568.232544 kJ/mol
# Density = 1.918245 g / cm^3
# Si number density = 19.226214 Si / 1000 Ang^3
#
#
#
# Elastic Constant Matrix: (Units=GPa)
#
#
# Indices 1 2 3 4 5 6 
#
# 1 179.5973 15.0065 5.7634 0.0000 0.0000 0.0000
# 2 15.0065 179.5975 5.7636 0.0000 0.0000 0.0000
# 3 5.7634 5.7636 33.4183 0.0000 0.0000 0.0000
# 4 0.0000 0.0000 0.0000 -5.2751 0.0000 0.0000
# 5 0.0000 0.0000 0.0000 0.0000 -5.2745 0.0000
# 6 0.0000 0.0000 0.0000 0.0000 0.0000 25.7675
#
#
#
# Elastic Compliance Matrix: (Units=1/GPa)
#
#
# Indices 1 2 3 4 5 6 
#
# 1 0.005634 -0.000442 -0.000895 0.000000 0.000000 0.000000
# 2 -0.000442 0.005634 -0.000895 0.000000 0.000000 0.000000
# 3 -0.000895 -0.000895 0.030233 0.000000 0.000000 0.000000
# 4 0.000000 0.000000 0.000000 -0.189568 0.000000 0.000000
# 5 0.000000 0.000000 0.000000 0.000000 -0.189591 0.000000
# 6 0.000000 0.000000 0.000000 0.000000 0.000000 0.038809
#
#
# Mechanical properties :
#
#
# Convention : Reuss Voigt Hill
#
# Bulk Modulus (GPa) = 27.00194 49.52001 38.26097
# Shear Modulus (GPa) = -17.72796 27.44887 4.86045
#
# Velocity S-wave (km/s) = -3.03986 3.78256 1.59170
# Velocity P-wave (km/s) = 1.32432 6.69996 4.82925
#
# Compressibility (1/GPa) = 0.03703438
#
# Stress axis : x y z
#
# Youngs Moduli (GPa) = 177.50401 177.50406 33.07692
#
# Poissons Ratio (x) = 0.07846 0.02962
# Poissons Ratio (y) = 0.07846 0.02962
# Poissons Ratio (z) = 0.15893 0.15894
#
# Static dielectric constant tensor:
#      x y z
#    x 1.701140 0.000000 0.000000 
#    y 0.000000 1.701140 0.000000 
#    z 0.000000 0.000000 1.620720 
# 
# From -- ./inp_files/5066.got.cif
#   From: 2010.05.17/outbox.cif.g08.bks.cpg/sg138_3_cif.got.tgz:5066.got - 2010.05.20 13:08:53.
