data_PCOD9570325
_publ_section_title
;
Structure prediction by ZEFSAII (Michael W. Deem and Ramdas Pophale) SiO2 
 PCOD9570325
Probable space group: P 42/N M C
;
_chemical_formula_sum "Si O2"
_cell_formula_units_Z 112
_cell_length_a 13.821405
_cell_length_b 13.821405
_cell_length_c 27.828816
_cell_angle_alpha 90.000000
_cell_angle_beta 90.000000
_cell_angle_gamma 90.000000
_cell_volume 5316.173122
_symmetry_space_group_name_H-M "P 42/N M C"
_symmetry_group_IT_number 137
_space_group.IT_coordinate_system_code '2'
_symmetry_cell_setting 'tetragonal'
loop_
_space_group_symop_operation_xyz
x,y,z
1/2-y,x,1/2+z
1/2-x,1/2-y,z
y,1/2-x,1/2+z
1/2+x,-y,-z
-x,1/2+y,-z
1/2+y,1/2+x,1/2-z
-y,-x,1/2-z
-x,-y,-z
1/2+y,-x,1/2-z
1/2+x,1/2+y,-z
-y,1/2+x,1/2-z
1/2-x,y,z
x,1/2-y,z
1/2-y,1/2-x,1/2+z
y,x,1/2+z
loop_
_atom_site_type_symbol
_atom_site_label
_atom_site_fract_x
_atom_site_fract_y
_atom_site_fract_z
Si Si1 0.551854 0.131885 0.505318
Si Si2 0.530778 0.366442 0.795215
Si Si3 0.359011 0.866456 0.902965
Si Si4 0.547268 0.866898 0.852891
Si Si5 0.365242 0.022077 0.753497
Si Si6 0.361659 0.633533 0.107391
Si Si7 0.134290 0.141328 0.046871
O O1 0.557529 0.250000 0.505600
O O2 0.600965 0.104801 0.455408
O O3 0.600892 0.101128 0.555192
O O4 0.439776 0.102347 0.509247
O O5 0.592335 0.407666 0.750000
O O6 0.528384 0.250000 0.792953
O O7 0.424577 0.413227 0.790791
O O8 0.578273 0.397080 0.845904
O O9 0.250000 0.902480 0.894389
O O10 0.355470 0.750000 0.902694
O O11 0.437696 0.898342 0.864440
O O12 0.548438 0.750000 0.854336
O O13 0.572040 0.889091 0.798319
O O14 0.610177 0.894716 0.899086
O O15 0.417176 0.917176 0.750000
O O16 0.250000 0.016102 0.760127
O O17 0.250000 0.600818 0.112580
O O18 0.361018 0.750000 0.107356
O O19 0.250000 0.146880 0.043508
O O20 0.095037 0.250000 0.039824
#
# Coordination Sequence:
#
# PCOD9570325 Si02
#       7
#    16  16  16  16  16  16  16
#     4   9  17  28  49  79 110 144 178 216 269 329
#     4  10  21  35  55  83 115 150 186 227 279 341
#     4   9  17  31  52  79 108 135 168 215 275 341
#     4   9  19  35  53  75 102 132 173 227 283 331
#     4  10  23  40  58  82 108 141 190 245 297 345
#     4   9  17  30  50  80 117 150 180 219 271 334
#     4   9  18  31  48  72 103 138 176 219 264 314
#
# _framework density 21.067786999999999
#
# number of rings (size 3 to 8) (size 9 to 14) (size 15 to 20)
#    0.000    2.714    0.000    0.857    4.000    4.571 
#    0.000    2.857    0.000    0.000    0.000    1.000 
#    0.000    0.000    0.000    0.000    0.000    0.000 
#
# Total GULP energy -625093.731201 kJ/mol
# GULP energy per Si atom -5581.194029 kJ/mol
# Density = 2.101984 g / cm^3
# Si number density = 21.067787 Si / 1000 Ang^3
#
#
#
# Elastic Constant Matrix: (Units=GPa)
#
#
# Indices 1 2 3 4 5 6 
#
# 1 64.0352 23.3364 14.1983 0.0000 0.0000 0.0000
# 2 23.3364 64.0359 14.1987 0.0000 0.0000 0.0000
# 3 14.1983 14.1987 82.4836 0.0000 0.0000 0.0000
# 4 0.0000 0.0000 0.0000 27.3063 0.0000 0.0000
# 5 0.0000 0.0000 0.0000 0.0000 27.3063 0.0000
# 6 0.0000 0.0000 0.0000 0.0000 0.0000 22.8656
#
#
#
# Elastic Compliance Matrix: (Units=1/GPa)
#
#
# Indices 1 2 3 4 5 6 
#
# 1 0.018347 -0.006223 -0.002087 0.000000 0.000000 0.000000
# 2 -0.006223 0.018347 -0.002087 0.000000 0.000000 0.000000
# 3 -0.002087 -0.002087 0.012842 0.000000 0.000000 0.000000
# 4 0.000000 0.000000 0.000000 0.036622 0.000000 0.000000
# 5 0.000000 0.000000 0.000000 0.000000 0.036622 0.000000
# 6 0.000000 0.000000 0.000000 0.000000 0.000000 0.043734
#
#
# Mechanical properties :
#
#
# Convention : Reuss Voigt Hill
#
# Bulk Modulus (GPa) = 34.79277 34.89127 34.84202
# Shear Modulus (GPa) = 25.39510 26.08372 25.73941
#
# Velocity S-wave (km/s) = 3.47565 3.52246 3.49914
# Velocity P-wave (km/s) = 5.71467 5.75682 5.73578
#
# Compressibility (1/GPa) = 0.02874160
#
# Stress axis : x y z
#
# Youngs Moduli (GPa) = 54.50439 54.50493 77.86891
#
# Poissons Ratio (x) = 0.33921 0.16250
# Poissons Ratio (y) = 0.33921 0.16251
# Poissons Ratio (z) = 0.11374 0.11375
#
# Static dielectric constant tensor:
#      x y z
#    x 1.795630 0.000000 0.000000 
#    y 0.000000 1.795630 0.000000 
#    z 0.000000 0.000000 1.743080 
# 
# From -- ./inp_files/9009.got.cif
#   From: 2010.05.17/outbox.cif.g08.bks.cpg/sg137_5_cif.got.tgz:9009.got - 2010.05.20 13:01:12.
