data_PCOD9570322
_publ_section_title
;
Structure prediction by ZEFSAII (Michael W. Deem and Ramdas Pophale) SiO2 
 PCOD9570322
Probable space group: P 42/N M C
;
_chemical_formula_sum "Si O2"
_cell_formula_units_Z 96
_cell_length_a 25.532571
_cell_length_b 25.532571
_cell_length_c 8.768487
_cell_angle_alpha 90.000000
_cell_angle_beta 90.000000
_cell_angle_gamma 90.000000
_cell_volume 5716.283492
_symmetry_space_group_name_H-M "P 42/N M C"
_symmetry_group_IT_number 137
_space_group.IT_coordinate_system_code '2'
_symmetry_cell_setting 'tetragonal'
loop_
_space_group_symop_operation_xyz
x,y,z
1/2-y,x,1/2+z
1/2-x,1/2-y,z
y,1/2-x,1/2+z
1/2+x,-y,-z
-x,1/2+y,-z
1/2+y,1/2+x,1/2-z
-y,-x,1/2-z
-x,-y,-z
1/2+y,-x,1/2-z
1/2+x,1/2+y,-z
-y,1/2+x,1/2-z
1/2-x,y,z
x,1/2-y,z
1/2-y,1/2-x,1/2+z
y,x,1/2+z
loop_
_atom_site_type_symbol
_atom_site_label
_atom_site_fract_x
_atom_site_fract_y
_atom_site_fract_z
Si Si1 0.808688 0.348877 0.104010
Si Si2 0.691591 0.468771 0.092682
Si Si3 0.981071 0.191089 0.041899
Si Si4 0.807430 0.373864 0.649442
Si Si5 0.003065 0.916323 0.444848
Si Si6 0.005722 0.417149 0.920104
O O1 0.845384 0.345384 0.250000
O O2 0.750000 0.337112 0.154581
O O3 0.810094 0.408023 0.044700
O O4 0.829057 0.309424 0.978490
O O5 0.750000 0.489222 0.052225
O O6 0.687581 0.470207 0.277049
O O7 0.641507 0.494703 0.015148
O O8 0.002634 0.250000 0.014499
O O9 0.928167 0.187401 0.940397
O O10 0.012993 0.140262 0.990818
O O11 0.857291 0.357291 0.750000
O O12 0.750000 0.372884 0.726582
O O13 0.994809 0.914214 0.263008
O O14 0.957028 0.950006 0.522191
O O15 0.056366 0.950235 0.470775
#
# Coordination Sequence:
#
# PCOD9570322 Si02
#       6
#    16  16  16  16  16  16
#     4  11  21  33  48  65  87 123 169 215 261 304
#     4  10  21  36  53  74 100 133 169 209 259 314
#     4  10  21  36  53  73 101 134 168 209 259 314
#     4  11  23  35  46  63  89 125 167 216 266 305
#     4  10  21  35  55  80 105 135 171 217 262 312
#     4  10  21  35  54  80 105 135 173 214 265 309
#
# _framework density 16.794129000000002
#
# number of rings (size 3 to 8) (size 9 to 14) (size 15 to 20)
#    0.000    1.667    1.667    3.000    4.667    4.000 
#    0.000    0.000    0.000    0.000    0.000    0.000 
#    0.000    0.667    0.000    7.000    0.000    3.000 
#
# Total GULP energy -535611.622427 kJ/mol
# GULP energy per Si atom -5579.287734 kJ/mol
# Density = 1.675590 g / cm^3
# Si number density = 16.794129 Si / 1000 Ang^3
#
#
#
# Elastic Constant Matrix: (Units=GPa)
#
#
# Indices 1 2 3 4 5 6 
#
# 1 89.0976 37.7937 27.4742 0.0000 0.0000 0.0000
# 2 37.7937 89.0976 27.4742 0.0000 0.0000 0.0000
# 3 27.4742 27.4742 56.3444 0.0000 0.0000 0.0000
# 4 0.0000 0.0000 0.0000 26.7396 0.0000 0.0000
# 5 0.0000 0.0000 0.0000 0.0000 26.7396 0.0000
# 6 0.0000 0.0000 0.0000 0.0000 0.0000 20.5936
#
#
#
# Elastic Compliance Matrix: (Units=1/GPa)
#
#
# Indices 1 2 3 4 5 6 
#
# 1 0.014741 -0.004751 -0.004871 0.000000 0.000000 0.000000
# 2 -0.004751 0.014741 -0.004871 0.000000 0.000000 0.000000
# 3 -0.004871 -0.004871 0.022499 0.000000 0.000000 0.000000
# 4 0.000000 0.000000 0.000000 0.037398 0.000000 0.000000
# 5 0.000000 0.000000 0.000000 0.000000 0.037398 0.000000
# 6 0.000000 0.000000 0.000000 0.000000 0.000000 0.048559
#
#
# Mechanical properties :
#
#
# Convention : Reuss Voigt Hill
#
# Bulk Modulus (GPa) = 43.49016 46.66930 45.07973
# Shear Modulus (GPa) = 23.58644 24.26773 23.92708
#
# Velocity S-wave (km/s) = 3.75166 3.80546 3.77865
# Velocity P-wave (km/s) = 6.68722 6.86717 6.77779
#
# Compressibility (1/GPa) = 0.02299371
#
# Stress axis : x y z
#
# Youngs Moduli (GPa) = 67.83821 67.83821 44.44711
#
# Poissons Ratio (x) = 0.32228 0.21652
# Poissons Ratio (y) = 0.32228 0.21652
# Poissons Ratio (z) = 0.33046 0.33046
#
# Static dielectric constant tensor:
#      x y z
#    x 1.571240 0.000000 0.000000 
#    y 0.000000 1.571240 0.000000 
#    z 0.000000 0.000000 1.620490 
# 
# From -- ./inp_files/2185.got.cif
#   From: 2010.05.17/outbox.cif.g08.bks.cpg/sg137_2_cif.got.tgz:2185.got - 2010.05.20 13:01:12.
