data_PCOD9570215
_publ_section_title
;
Structure prediction by ZEFSAII (Michael W. Deem and Ramdas Pophale) SiO2 
 PCOD9570215
Probable space group: P 42/N M C
;
_chemical_formula_sum "Si O2"
_cell_formula_units_Z 48
_cell_length_a 9.092118
_cell_length_b 9.092118
_cell_length_c 31.983285
_cell_angle_alpha 90.000000
_cell_angle_beta 90.000000
_cell_angle_gamma 90.000000
_cell_volume 2643.949739
_symmetry_space_group_name_H-M "P 42/N M C"
_symmetry_group_IT_number 137
_space_group.IT_coordinate_system_code '2'
_symmetry_cell_setting 'tetragonal'
loop_
_space_group_symop_operation_xyz
x,y,z
1/2-y,x,1/2+z
1/2-x,1/2-y,z
y,1/2-x,1/2+z
1/2+x,-y,-z
-x,1/2+y,-z
1/2+y,1/2+x,1/2-z
-y,-x,1/2-z
-x,-y,-z
1/2+y,-x,1/2-z
1/2+x,1/2+y,-z
-y,1/2+x,1/2-z
1/2-x,y,z
x,1/2-y,z
1/2-y,1/2-x,1/2+z
y,x,1/2+z
loop_
_atom_site_type_symbol
_atom_site_label
_atom_site_fract_x
_atom_site_fract_y
_atom_site_fract_z
Si Si1 0.919857 0.070957 0.295935
Si Si2 0.923363 0.926618 0.618893
Si Si3 0.075231 0.424725 0.539824
O O1 0.975380 0.024621 0.250000
O O2 0.750000 0.024119 0.301556
O O3 0.919190 0.250000 0.294388
O O4 0.014985 0.027255 0.335788
O O5 0.750000 0.955476 0.615842
O O6 0.945481 0.750000 0.615026
O O7 0.008512 0.006821 0.581866
O O8 0.250000 0.450202 0.538499
O O9 0.049083 0.250000 0.538686
O O10 0.000000 0.500000 0.500000
#
# Coordination Sequence:
#
# PCOD9570215 Si02
#       3
#    16  16  16
#     4   8  14  27  49  75 103 139 182 223 262 306
#     4  10  20  34  54  81 111 143 179 218 263 315
#     4  11  24  40  58  81 107 137 175 217 263 316
#
# _framework density 18.154655999999999
#
# number of rings (size 3 to 8) (size 9 to 14) (size 15 to 20)
#    0.000    2.333    0.000    4.000    0.000    8.667 
#    0.000    1.667    0.000    6.000    0.000    0.000 
#    0.000    0.000    0.000    0.000    0.000    0.000 
#
# Total GULP energy -267914.444064 kJ/mol
# GULP energy per Si atom -5581.550918 kJ/mol
# Density = 1.811334 g / cm^3
# Si number density = 18.154656 Si / 1000 Ang^3
#
#
#
# Elastic Constant Matrix: (Units=GPa)
#
#
# Indices 1 2 3 4 5 6 
#
# 1 79.9004 74.8566 87.1455 0.0000 0.0000 0.0000
# 2 74.8566 79.9007 87.1456 0.0000 0.0000 0.0000
# 3 87.1455 87.1456 212.8310 0.0000 0.0000 0.0000
# 4 0.0000 0.0000 0.0000 32.0156 0.0000 0.0000
# 5 0.0000 0.0000 0.0000 0.0000 32.0154 0.0000
# 6 0.0000 0.0000 0.0000 0.0000 0.0000 22.9896
#
#
#
# Elastic Compliance Matrix: (Units=1/GPa)
#
#
# Indices 1 2 3 4 5 6 
#
# 1 0.105125 -0.093133 -0.004910 0.000000 0.000000 0.000000
# 2 -0.093133 0.105124 -0.004910 0.000000 0.000000 0.000000
# 3 -0.004910 -0.004910 0.008719 0.000000 0.000000 0.000000
# 4 0.000000 0.000000 0.000000 0.031235 0.000000 0.000000
# 5 0.000000 0.000000 0.000000 0.000000 0.031235 0.000000
# 6 0.000000 0.000000 0.000000 0.000000 0.000000 0.043498
#
#
# Mechanical properties :
#
#
# Convention : Reuss Voigt Hill
#
# Bulk Modulus (GPa) = 76.55565 96.76974 86.66269
# Shear Modulus (GPa) = 9.34235 25.63642 17.48939
#
# Velocity S-wave (km/s) = 2.27094 3.76189 3.10716
# Velocity P-wave (km/s) = 7.00973 8.50222 7.79179
#
# Compressibility (1/GPa) = 0.01306239
#
# Stress axis : x y z
#
# Youngs Moduli (GPa) = 9.51249 9.51254 114.68559
#
# Poissons Ratio (x) = 0.88593 0.56312
# Poissons Ratio (y) = 0.88593 0.56310
# Poissons Ratio (z) = 0.04671 0.04671
#
# Static dielectric constant tensor:
#      x y z
#    x 1.607960 0.000000 0.000000 
#    y 0.000000 1.607960 0.000000 
#    z 0.000000 0.000000 1.614180 
# 
# From -- ./inp_files/9943.got.cif
#   From: 2010.05.17/outbox.cif.g08.bks.cpg/sg137_5_cif.got.tgz:9943.got - 2010.05.20 13:01:12.
