data_PCOD9570798
_publ_section_title
;
Structure prediction by ZEFSAII (Michael W. Deem and Ramdas Pophale) SiO2 
 PCOD9570798
Probable space group: P 42/N C M
;
_chemical_formula_sum "Si O2"
_cell_formula_units_Z 72
_cell_length_a 14.358441
_cell_length_b 14.358441
_cell_length_c 20.266641
_cell_angle_alpha 90.000000
_cell_angle_beta 90.000000
_cell_angle_gamma 90.000000
_cell_volume 4178.268555
_symmetry_space_group_name_H-M "P 42/N C M"
_symmetry_group_IT_number 138
_space_group.IT_coordinate_system_code '2'
_symmetry_cell_setting 'tetragonal'
loop_
_space_group_symop_operation_xyz
x,y,z
1/2-y,x,1/2+z
1/2-x,1/2-y,z
y,1/2-x,1/2+z
1/2+x,-y,1/2-z
-x,1/2+y,1/2-z
1/2+y,1/2+x,-z
-y,-x,-z
-x,-y,-z
1/2+y,-x,1/2-z
1/2+x,1/2+y,-z
-y,1/2+x,1/2-z
1/2-x,y,1/2+z
x,1/2-y,1/2+z
1/2-y,1/2-x,z
y,x,z
loop_
_atom_site_type_symbol
_atom_site_label
_atom_site_fract_x
_atom_site_fract_y
_atom_site_fract_z
Si Si1 0.538771 0.109749 0.699615
Si Si2 0.626490 0.126490 0.500000
Si Si3 0.018840 0.334303 0.387041
Si Si4 0.124994 0.525567 0.857423
Si Si5 0.237690 0.858754 0.619797
O O1 0.535485 0.120674 0.777912
O O2 0.569643 0.207040 0.667076
O O3 0.441633 0.058368 0.678970
O O4 0.618524 0.039380 0.672998
O O5 0.536818 0.133922 0.452851
O O6 0.712755 0.131684 0.450448
O O7 0.119910 0.380091 0.387402
O O8 0.015689 0.224359 0.378621
O O9 0.119433 0.629662 0.884509
O O10 0.041592 0.458409 0.878257
O O11 0.250000 0.750000 0.641913
#
# Coordination Sequence:
#
# PCOD9570798 Si02
#       5
#    16   8  16  16  16
#     4   9  19  34  54  82 110 138 182 227 272 330
#     4  10  20  36  54  84 107 135 190 232 264 322
#     4  10  20  36  57  79 109 147 183 226 277 328
#     4  11  22  34  52  83 114 142 178 227 281 330
#     4  11  20  33  59  80 111 140 184 227 279 321
#
# _framework density 17.232019000000001
#
# number of rings (size 3 to 8) (size 9 to 14) (size 15 to 20)
#    0.000    1.778    4.444    2.000    0.000    1.333 
#    0.000    2.222    0.000    2.000    0.000    0.000 
#    0.000    0.000    0.000    0.000    0.000    0.000 
#
# Total GULP energy -401541.152791 kJ/mol
# GULP energy per Si atom -5576.960455 kJ/mol
# Density = 1.719280 g / cm^3
# Si number density = 17.232019 Si / 1000 Ang^3
#
#
#
# Elastic Constant Matrix: (Units=GPa)
#
#
# Indices 1 2 3 4 5 6 
#
# 1 96.3291 66.9236 10.4407 0.0000 0.0000 0.0000
# 2 66.9236 96.3291 10.4407 0.0000 0.0000 0.0000
# 3 10.4407 10.4407 46.1508 0.0000 0.0000 0.0000
# 4 0.0000 0.0000 0.0000 9.0029 0.0000 0.0000
# 5 0.0000 0.0000 0.0000 0.0000 9.0029 0.0000
# 6 0.0000 0.0000 0.0000 0.0000 0.0000 29.6973
#
#
#
# Elastic Compliance Matrix: (Units=1/GPa)
#
#
# Indices 1 2 3 4 5 6 
#
# 1 0.020158 -0.013850 -0.001427 0.000000 0.000000 0.000000
# 2 -0.013850 0.020158 -0.001427 0.000000 0.000000 0.000000
# 3 -0.001427 -0.001427 0.022314 0.000000 0.000000 0.000000
# 4 0.000000 0.000000 0.000000 0.111076 0.000000 0.000000
# 5 0.000000 0.000000 0.000000 0.000000 0.111076 0.000000
# 6 0.000000 0.000000 0.000000 0.000000 0.000000 0.033673
#
#
# Mechanical properties :
#
#
# Convention : Reuss Voigt Hill
#
# Bulk Modulus (GPa) = 34.22130 46.04653 40.13392
# Shear Modulus (GPa) = 13.82735 19.60753 16.71744
#
# Velocity S-wave (km/s) = 2.83578 3.37687 3.11808
# Velocity P-wave (km/s) = 5.53394 6.47949 6.02529
#
# Compressibility (1/GPa) = 0.02922157
#
# Stress axis : x y z
#
# Youngs Moduli (GPa) = 49.60893 49.60893 44.81537
#
# Poissons Ratio (x) = 0.68707 0.06395
# Poissons Ratio (y) = 0.68707 0.06395
# Poissons Ratio (z) = 0.07079 0.07079
#
# Static dielectric constant tensor:
#      x y z
#    x 1.586460 0.000000 0.000000 
#    y 0.000000 1.586460 0.000000 
#    z 0.000000 0.000000 1.594450 
# 
# From -- ./inp_files/5023.got.cif
#   From: 2010.05.17/outbox.cif.g08.bks.cpg/sg138_3_cif.got.tgz:5023.got - 2010.05.20 13:08:53.
