data_PCOD9570947
_publ_section_title
;
Structure prediction by ZEFSAII (Michael W. Deem and Ramdas Pophale) SiO2 
 PCOD9570947
Probable space group: P 42/N C M
;
_chemical_formula_sum "Si O2"
_cell_formula_units_Z 84
_cell_length_a 10.373889
_cell_length_b 10.373889
_cell_length_c 37.645570
_cell_angle_alpha 90.000000
_cell_angle_beta 90.000000
_cell_angle_gamma 90.000000
_cell_volume 4051.324877
_symmetry_space_group_name_H-M "P 42/N C M"
_symmetry_group_IT_number 138
_space_group.IT_coordinate_system_code '2'
_symmetry_cell_setting 'tetragonal'
loop_
_space_group_symop_operation_xyz
x,y,z
1/2-y,x,1/2+z
1/2-x,1/2-y,z
y,1/2-x,1/2+z
1/2+x,-y,1/2-z
-x,1/2+y,1/2-z
1/2+y,1/2+x,-z
-y,-x,-z
-x,-y,-z
1/2+y,-x,1/2-z
1/2+x,1/2+y,-z
-y,1/2+x,1/2-z
1/2-x,y,1/2+z
x,1/2-y,1/2+z
1/2-y,1/2-x,z
y,x,z
loop_
_atom_site_type_symbol
_atom_site_label
_atom_site_fract_x
_atom_site_fract_y
_atom_site_fract_z
Si Si1 0.466313 0.252066 0.103192
Si Si2 0.746183 0.540596 0.592188
Si Si3 0.936051 0.242146 0.268514
Si Si4 0.875388 0.404233 0.460080
Si Si5 0.750000 0.750000 0.733777
Si Si6 0.899175 0.114277 0.342854
O O1 0.367438 0.132563 0.101060
O O2 0.380415 0.380415 0.107986
O O3 0.543163 0.264381 0.066098
O O4 0.558343 0.225770 0.136825
O O5 0.864800 0.635201 0.600935
O O6 0.630339 0.630339 0.578952
O O7 0.793456 0.444250 0.562361
O O8 0.698160 0.470006 0.627139
O O9 0.874869 0.134510 0.242237
O O10 0.891327 0.195948 0.307449
O O11 0.089595 0.249709 0.266743
O O12 0.855711 0.355711 0.500000
O O13 0.975957 0.524044 0.462746
O O14 0.992118 0.992118 0.334565
#
# Coordination Sequence:
#
# PCOD9570947 Si02
#       6
#    16  16  16  16   4  16
#     4   9  19  37  60  89 124 168 218 277 343 406
#     4   9  19  34  57  86 114 151 203 260 316 371
#     4  11  26  46  71 107 141 182 230 280 344 416
#     4   9  18  33  54  84 121 164 212 260 326 404
#     4  12  24  48  76 100 148 184 220 282 344 424
#     4  10  21  41  66  93 124 162 214 274 327 399
#
# _framework density 20.733958000000001
#
# number of rings (size 3 to 8) (size 9 to 14) (size 15 to 20)
#    0.000    2.286    0.952    0.571    1.333    4.571 
#    1.714    5.714    0.000    3.429    0.000    0.000 
#    0.000    0.000    0.000    0.000    0.000    0.000 
#
# Total GULP energy -467943.448298 kJ/mol
# GULP energy per Si atom -5570.755337 kJ/mol
# Density = 2.068677 g / cm^3
# Si number density = 20.733958 Si / 1000 Ang^3
#
#
#
# Elastic Constant Matrix: (Units=GPa)
#
#
# Indices 1 2 3 4 5 6 
#
# 1 111.8320 57.6026 51.4414 0.0000 0.0000 0.0000
# 2 57.6026 111.8320 51.4414 0.0000 0.0000 0.0000
# 3 51.4414 51.4414 115.1934 0.0000 0.0000 0.0000
# 4 0.0000 0.0000 0.0000 240.2610 0.0000 0.0000
# 5 0.0000 0.0000 0.0000 0.0000 240.2610 0.0000
# 6 0.0000 0.0000 0.0000 0.0000 0.0000 21.2015
#
#
#
# Elastic Compliance Matrix: (Units=1/GPa)
#
#
# Indices 1 2 3 4 5 6 
#
# 1 0.013269 -0.005171 -0.003616 0.000000 0.000000 0.000000
# 2 -0.005171 0.013269 -0.003616 0.000000 0.000000 0.000000
# 3 -0.003616 -0.003616 0.011911 0.000000 0.000000 0.000000
# 4 0.000000 0.000000 0.000000 0.004162 0.000000 0.000000
# 5 0.000000 0.000000 0.000000 0.000000 0.004162 0.000000
# 6 0.000000 0.000000 0.000000 0.000000 0.000000 0.047166
#
#
# Mechanical properties :
#
#
# Convention : Reuss Voigt Hill
#
# Bulk Modulus (GPa) = 73.30525 73.31423 73.30974
# Shear Modulus (GPa) = 40.55354 112.23616 76.39485
#
# Velocity S-wave (km/s) = 4.42735 7.36540 6.07662
# Velocity P-wave (km/s) = 7.84648 10.38115 9.20151
#
# Compressibility (1/GPa) = 0.01364159
#
# Stress axis : x y z
#
# Youngs Moduli (GPa) = 75.36373 75.36373 83.95761
#
# Poissons Ratio (x) = 0.38972 0.30361
# Poissons Ratio (y) = 0.38972 0.30361
# Poissons Ratio (z) = 0.27253 0.27253
#
# Static dielectric constant tensor:
#      x y z
#    x 1.736880 0.000000 0.000000 
#    y 0.000000 1.736880 0.000000 
#    z 0.000000 0.000000 1.767990 
# 
# From -- ./inp_files/8090.got.cif
#   From: 2010.05.17/outbox.cif.g08.bks.cpg/sg138_5_cif.got.tgz:8090.got - 2010.05.20 13:08:53.
