data_PCOD9570001
_publ_section_title
;
Structure prediction by ZEFSAII (Michael W. Deem and Ramdas Pophale) SiO2 
 PCOD9570001
Probable space group: P 42/N M C
;
_chemical_formula_sum "Si O2"
_cell_formula_units_Z 64
_cell_length_a 13.492790
_cell_length_b 13.492790
_cell_length_c 16.758384
_cell_angle_alpha 90.000000
_cell_angle_beta 90.000000
_cell_angle_gamma 90.000000
_cell_volume 3050.954001
_symmetry_space_group_name_H-M "P 42/N M C"
_symmetry_group_IT_number 137
_space_group.IT_coordinate_system_code '2'
_symmetry_cell_setting 'tetragonal'
loop_
_space_group_symop_operation_xyz
x,y,z
1/2-y,x,1/2+z
1/2-x,1/2-y,z
y,1/2-x,1/2+z
1/2+x,-y,-z
-x,1/2+y,-z
1/2+y,1/2+x,1/2-z
-y,-x,1/2-z
-x,-y,-z
1/2+y,-x,1/2-z
1/2+x,1/2+y,-z
-y,1/2+x,1/2-z
1/2-x,y,z
x,1/2-y,z
1/2-y,1/2-x,1/2+z
y,x,1/2+z
loop_
_atom_site_type_symbol
_atom_site_label
_atom_site_fract_x
_atom_site_fract_y
_atom_site_fract_z
Si Si1 0.869006 0.362229 0.157398
Si Si2 0.936522 0.939118 0.585742
Si Si3 0.530513 0.862635 0.249710
Si Si4 0.035443 0.136145 0.576198
O O1 0.889992 0.389992 0.250000
O O2 0.750000 0.360298 0.151005
O O3 0.904947 0.250000 0.142006
O O4 0.908529 0.449032 0.101904
O O5 0.903195 0.891253 0.502948
O O6 0.944464 0.057974 0.576310
O O7 0.881111 0.911830 0.667250
O O8 0.441125 0.941125 0.250000
O O9 0.493732 0.750000 0.248301
O O10 0.583745 0.875770 0.335664
O O11 0.004122 0.250000 0.569090
#
# Coordination Sequence:
#
# PCOD9570001 Si02
#       4
#    16  16  16  16
#     4   9  17  29  48  76 105 133 172 219 262 307
#     4  10  18  32  55  75 102 145 177 213 271 321
#     4   9  18  33  54  79 106 139 179 220 265 319
#     4   9  18  32  51  77 106 136 177 224 265 314
#
# _framework density 20.977043999999999
#
# number of rings (size 3 to 8) (size 9 to 14) (size 15 to 20)
#    0.000    2.750    0.000    3.750    0.000    0.250 
#    0.000   11.250    0.000   14.250    0.000   24.500 
#    0.000    0.000    0.000    0.000    0.000    0.000 
#
# Total GULP energy -356272.673722 kJ/mol
# GULP energy per Si atom -5566.760527 kJ/mol
# Density = 2.092930 g / cm^3
# Si number density = 20.977044 Si / 1000 Ang^3
#
#
#
# Elastic Constant Matrix: (Units=GPa)
#
#
# Indices 1 2 3 4 5 6 
#
# 1 41.7279 21.3450 34.9586 0.0000 0.0000 0.0000
# 2 21.3450 41.7279 34.9586 0.0000 0.0000 0.0000
# 3 34.9586 34.9586 216.4674 0.0000 0.0000 0.0000
# 4 0.0000 0.0000 0.0000 13.0091 0.0000 0.0000
# 5 0.0000 0.0000 0.0000 0.0000 13.0091 0.0000
# 6 0.0000 0.0000 0.0000 0.0000 0.0000 5.8910
#
#
#
# Elastic Compliance Matrix: (Units=1/GPa)
#
#
# Indices 1 2 3 4 5 6 
#
# 1 0.034186 -0.014874 -0.003119 0.000000 0.000000 0.000000
# 2 -0.014874 0.034186 -0.003119 0.000000 0.000000 0.000000
# 3 -0.003119 -0.003119 0.005627 0.000000 0.000000 0.000000
# 4 0.000000 0.000000 0.000000 0.076869 0.000000 0.000000
# 5 0.000000 0.000000 0.000000 0.000000 0.076869 0.000000
# 6 0.000000 0.000000 0.000000 0.000000 0.000000 0.169751
#
#
# Mechanical properties :
#
#
# Convention : Reuss Voigt Hill
#
# Bulk Modulus (GPa) = 31.47066 53.60529 42.53798
# Shear Modulus (GPa) = 11.10360 20.29257 15.69808
#
# Velocity S-wave (km/s) = 2.30319 3.11363 2.73856
# Velocity P-wave (km/s) = 4.70191 6.20774 5.50654
#
# Compressibility (1/GPa) = 0.03177562
#
# Stress axis : x y z
#
# Youngs Moduli (GPa) = 29.25148 29.25148 177.71516
#
# Poissons Ratio (x) = 0.43510 0.55426
# Poissons Ratio (y) = 0.43510 0.55426
# Poissons Ratio (z) = 0.09123 0.09123
#
# Static dielectric constant tensor:
#      x y z
#    x 1.751310 0.000000 0.000000 
#    y 0.000000 1.751310 0.000000 
#    z 0.000000 0.000000 1.879160 
# 
# From -- ./inp_files/4737.got.cif
#   From: 2010.05.17/outbox.cif.g08.bks.cpg/sg137_3_cif.got.tgz:4737.got - 2010.05.20 13:01:12.
