data_PCOD9570794
_publ_section_title
;
Structure prediction by ZEFSAII (Michael W. Deem and Ramdas Pophale) SiO2 
 PCOD9570794
Probable space group: P 42/N C M
;
_chemical_formula_sum "Si O2"
_cell_formula_units_Z 64
_cell_length_a 13.029181
_cell_length_b 13.029181
_cell_length_c 17.632055
_cell_angle_alpha 90.000000
_cell_angle_beta 90.000000
_cell_angle_gamma 90.000000
_cell_volume 2993.209855
_symmetry_space_group_name_H-M "P 42/N C M"
_symmetry_group_IT_number 138
_space_group.IT_coordinate_system_code '2'
_symmetry_cell_setting 'tetragonal'
loop_
_space_group_symop_operation_xyz
x,y,z
1/2-y,x,1/2+z
1/2-x,1/2-y,z
y,1/2-x,1/2+z
1/2+x,-y,1/2-z
-x,1/2+y,1/2-z
1/2+y,1/2+x,-z
-y,-x,-z
-x,-y,-z
1/2+y,-x,1/2-z
1/2+x,1/2+y,-z
-y,1/2+x,1/2-z
1/2-x,y,1/2+z
x,1/2-y,1/2+z
1/2-y,1/2-x,z
y,x,z
loop_
_atom_site_type_symbol
_atom_site_label
_atom_site_fract_x
_atom_site_fract_y
_atom_site_fract_z
Si Si1 0.575631 0.404927 0.891391
Si Si2 0.399363 0.566426 0.281232
Si Si3 0.247201 0.415192 0.859317
Si Si4 0.865454 0.291585 0.075552
O O1 0.504563 0.504563 0.898415
O O2 0.607730 0.389632 0.802995
O O3 0.501120 0.307791 0.907506
O O4 0.682865 0.422128 0.933298
O O5 0.506439 0.506439 0.285149
O O6 0.311272 0.480931 0.295475
O O7 0.395073 0.645798 0.350121
O O8 0.157963 0.342038 0.894641
O O9 0.336091 0.336091 0.832693
O O10 0.750000 0.250000 0.086682
O O11 0.860930 0.360930 0.000000
#
# Coordination Sequence:
#
# PCOD9570794 Si02
#       4
#    16  16  16  16
#     4  10  20  36  60  88 116 152 201 253 304 354
#     4  10  20  35  59  87 114 155 202 250 306 356
#     4   9  17  31  52  80 112 144 185 241 300 356
#     4  11  23  37  55  86 122 158 199 239 300 371
#
# _framework density 21.381727999999999
#
# number of rings (size 3 to 8) (size 9 to 14) (size 15 to 20)
#    0.000    2.000    2.500    1.500    0.000    0.500 
#    0.000    3.750    0.000    1.500    0.000    0.000 
#    0.000    0.000    0.000    0.000    0.000    0.000 
#
# Total GULP energy -356899.926345 kJ/mol
# GULP energy per Si atom -5576.561349 kJ/mol
# Density = 2.133306 g / cm^3
# Si number density = 21.381728 Si / 1000 Ang^3
#
#
#
# Elastic Constant Matrix: (Units=GPa)
#
#
# Indices 1 2 3 4 5 6 
#
# 1 94.5339 35.3907 49.2701 0.0000 0.0000 0.0000
# 2 35.3907 94.5339 49.2701 0.0000 0.0000 0.0000
# 3 49.2701 49.2701 116.1921 0.0000 0.0000 0.0000
# 4 0.0000 0.0000 0.0000 16.5469 0.0000 0.0000
# 5 0.0000 0.0000 0.0000 0.0000 16.5469 0.0000
# 6 0.0000 0.0000 0.0000 0.0000 0.0000 33.1221
#
#
#
# Elastic Compliance Matrix: (Units=1/GPa)
#
#
# Indices 1 2 3 4 5 6 
#
# 1 0.014127 -0.002781 -0.004811 0.000000 0.000000 0.000000
# 2 -0.002781 0.014127 -0.004811 0.000000 0.000000 0.000000
# 3 -0.004811 -0.004811 0.012687 0.000000 0.000000 0.000000
# 4 0.000000 0.000000 0.000000 0.060434 0.000000 0.000000
# 5 0.000000 0.000000 0.000000 0.000000 0.060434 0.000000
# 6 0.000000 0.000000 0.000000 0.000000 0.000000 0.030191
#
#
# Mechanical properties :
#
#
# Convention : Reuss Voigt Hill
#
# Bulk Modulus (GPa) = 61.98161 63.68017 62.83089
# Shear Modulus (GPa) = 22.50377 24.66509 23.58443
#
# Velocity S-wave (km/s) = 3.24771 3.40009 3.32477
# Velocity P-wave (km/s) = 6.56617 6.72766 6.64740
#
# Compressibility (1/GPa) = 0.01613382
#
# Stress axis : x y z
#
# Youngs Moduli (GPa) = 70.78705 70.78705 78.82360
#
# Poissons Ratio (x) = 0.19688 0.37922
# Poissons Ratio (y) = 0.19688 0.37922
# Poissons Ratio (z) = 0.34056 0.34056
#
# Static dielectric constant tensor:
#      x y z
#    x 1.830800 0.000000 0.000000 
#    y 0.000000 1.830800 0.000000 
#    z 0.000000 0.000000 1.805680 
# 
# From -- ./inp_files/3910.got.cif
#   From: 2010.05.17/outbox.cif.g08.bks.cpg/sg138_2_cif.got.tgz:3910.got - 2010.05.20 13:08:53.
