data_PCOD9570710
_publ_section_title
;
Structure prediction by ZEFSAII (Michael W. Deem and Ramdas Pophale) SiO2 
 PCOD9570710
Probable space group: P 42/N C M
;
_chemical_formula_sum "Si O2"
_cell_formula_units_Z 112
_cell_length_a 14.591233
_cell_length_b 14.591233
_cell_length_c 28.081706
_cell_angle_alpha 90.000000
_cell_angle_beta 90.000000
_cell_angle_gamma 90.000000
_cell_volume 5978.709794
_symmetry_space_group_name_H-M "P 42/N C M"
_symmetry_group_IT_number 138
_space_group.IT_coordinate_system_code '2'
_symmetry_cell_setting 'tetragonal'
loop_
_space_group_symop_operation_xyz
x,y,z
1/2-y,x,1/2+z
1/2-x,1/2-y,z
y,1/2-x,1/2+z
1/2+x,-y,1/2-z
-x,1/2+y,1/2-z
1/2+y,1/2+x,-z
-y,-x,-z
-x,-y,-z
1/2+y,-x,1/2-z
1/2+x,1/2+y,-z
-y,1/2+x,1/2-z
1/2-x,y,1/2+z
x,1/2-y,1/2+z
1/2-y,1/2-x,z
y,x,z
loop_
_atom_site_type_symbol
_atom_site_label
_atom_site_fract_x
_atom_site_fract_y
_atom_site_fract_z
Si Si1 0.436899 0.281450 0.425210
Si Si2 0.814567 0.112586 0.241516
Si Si3 0.484374 0.633363 0.145117
Si Si4 0.281298 0.435751 0.533067
Si Si5 0.151962 0.004885 0.669763
Si Si6 0.069884 0.578931 0.929070
Si Si7 0.487659 0.342645 0.119839
O O1 0.356312 0.356312 0.412487
O O2 0.456133 0.202566 0.387171
O O3 0.416810 0.250641 0.479329
O O4 0.536073 0.330785 0.429817
O O5 0.710101 0.134057 0.256674
O O6 0.819708 0.064911 0.190080
O O7 0.859397 0.047012 0.280889
O O8 0.554733 0.554733 0.162070
O O9 0.402901 0.580284 0.116468
O O10 0.353572 0.353572 0.546523
O O11 0.339426 0.530636 0.538740
O O12 0.200707 0.451061 0.570529
O O13 0.103957 0.103957 0.671218
O O14 0.257960 0.005176 0.655513
O O15 0.105609 0.952399 0.625335
O O16 0.006151 0.493850 0.943137
O O17 0.411404 0.411404 0.138491
#
# Coordination Sequence:
#
# PCOD9570710 Si02
#       7
#    16  16  16  16  16  16  16
#     4  10  20  36  58  84 116 158 200 241 294 355
#     4  11  22  39  63  88 113 147 189 239 293 358
#     4  11  24  41  58  82 121 158 195 246 300 360
#     4   9  18  33  57  87 119 155 199 243 288 348
#     4  10  19  35  59  86 113 144 185 233 290 352
#     4   8  15  30  55  85 113 142 182 237 289 339
#     4  10  21  38  57  81 114 152 194 243 294 341
#
# _framework density 18.733139000000001
#
# number of rings (size 3 to 8) (size 9 to 14) (size 15 to 20)
#    0.000    2.143    1.429    3.000    0.000    4.286 
#    0.000    4.286    0.000    5.143    0.000    0.000 
#    0.000    0.000    0.000    0.000    0.000    0.000 
#
# Total GULP energy -623889.717589 kJ/mol
# GULP energy per Si atom -5570.443907 kJ/mol
# Density = 1.869050 g / cm^3
# Si number density = 18.733139 Si / 1000 Ang^3
#
#
#
# Elastic Constant Matrix: (Units=GPa)
#
#
# Indices 1 2 3 4 5 6 
#
# 1 77.5207 27.1935 38.1042 0.0000 0.0000 0.0000
# 2 27.1935 77.5207 38.1042 0.0000 0.0000 0.0000
# 3 38.1042 38.1042 106.5654 0.0000 0.0000 0.0000
# 4 0.0000 0.0000 0.0000 0.4792 0.0000 0.0000
# 5 0.0000 0.0000 0.0000 0.0000 0.4792 0.0000
# 6 0.0000 0.0000 0.0000 0.0000 0.0000 29.6121
#
#
#
# Elastic Compliance Matrix: (Units=1/GPa)
#
#
# Indices 1 2 3 4 5 6 
#
# 1 0.016390 -0.003480 -0.004616 0.000000 0.000000 0.000000
# 2 -0.003480 0.016390 -0.004616 0.000000 0.000000 0.000000
# 3 -0.004616 -0.004616 0.012685 0.000000 0.000000 0.000000
# 4 0.000000 0.000000 0.000000 2.086743 0.000000 0.000000
# 5 0.000000 0.000000 0.000000 0.000000 2.086743 0.000000
# 6 0.000000 0.000000 0.000000 0.000000 0.000000 0.033770
#
#
# Mechanical properties :
#
#
# Convention : Reuss Voigt Hill
#
# Bulk Modulus (GPa) = 49.90113 52.04564 50.97339
# Shear Modulus (GPa) = 1.16691 16.66110 8.91400
#
# Velocity S-wave (km/s) = 0.79010 2.98550 2.18375
# Velocity P-wave (km/s) = 5.24672 6.30296 5.79894
#
# Compressibility (1/GPa) = 0.02003963
#
# Stress axis : x y z
#
# Youngs Moduli (GPa) = 61.01449 61.01449 78.83413
#
# Poissons Ratio (x) = 0.21236 0.36389
# Poissons Ratio (y) = 0.21236 0.36389
# Poissons Ratio (z) = 0.28163 0.28163
#
# Static dielectric constant tensor:
#      x y z
#    x 1.667470 0.000000 0.000000 
#    y 0.000000 1.667470 0.000000 
#    z 0.000000 0.000000 1.654130 
# 
# From -- ./inp_files/7582.got.cif
#   From: 2010.05.17/outbox.cif.g08.bks.cpg/sg138_4_cif.got.tgz:7582.got - 2010.05.20 13:08:53.
