data_PCOD9570257
_publ_section_title
;
Structure prediction by ZEFSAII (Michael W. Deem and Ramdas Pophale) SiO2 
 PCOD9570257
Probable space group: P 42/N M C
;
_chemical_formula_sum "Si O2"
_cell_formula_units_Z 112
_cell_length_a 15.283699
_cell_length_b 15.283699
_cell_length_c 24.958148
_cell_angle_alpha 90.000000
_cell_angle_beta 90.000000
_cell_angle_gamma 90.000000
_cell_volume 5830.010108
_symmetry_space_group_name_H-M "P 42/N M C"
_symmetry_group_IT_number 137
_space_group.IT_coordinate_system_code '2'
_symmetry_cell_setting 'tetragonal'
loop_
_space_group_symop_operation_xyz
x,y,z
1/2-y,x,1/2+z
1/2-x,1/2-y,z
y,1/2-x,1/2+z
1/2+x,-y,-z
-x,1/2+y,-z
1/2+y,1/2+x,1/2-z
-y,-x,1/2-z
-x,-y,-z
1/2+y,-x,1/2-z
1/2+x,1/2+y,-z
-y,1/2+x,1/2-z
1/2-x,y,z
x,1/2-y,z
1/2-y,1/2-x,1/2+z
y,x,1/2+z
loop_
_atom_site_type_symbol
_atom_site_label
_atom_site_fract_x
_atom_site_fract_y
_atom_site_fract_z
Si Si1 0.963299 0.844516 0.955620
Si Si2 0.153164 0.616735 0.124302
Si Si3 0.652431 0.855923 0.252121
Si Si4 0.850404 0.955662 0.651362
Si Si5 0.148784 0.408236 0.948656
Si Si6 0.583395 0.849942 0.365989
Si Si7 0.652942 0.395466 0.005103
O O1 0.949711 0.750000 0.930535
O O2 0.918887 0.909531 0.913887
O O3 0.907064 0.851239 0.009761
O O4 0.064989 0.856378 0.969557
O O5 0.250000 0.655163 0.136586
O O6 0.156610 0.518561 0.146465
O O7 0.146902 0.613543 0.059297
O O8 0.060512 0.651545 0.145284
O O9 0.750000 0.883864 0.235440
O O10 0.651281 0.750000 0.253797
O O11 0.579318 0.881630 0.209027
O O12 0.632685 0.881650 0.313056
O O13 0.750000 0.924784 0.643624
O O14 0.906423 0.906744 0.605893
O O15 0.250000 0.380032 0.941114
O O16 0.151355 0.503959 0.975750
O O17 0.612546 0.750000 0.381450
O O18 0.750000 0.360468 0.020253
#
# Coordination Sequence:
#
# PCOD9570257 Si02
#       7
#    16  16  16  16  16  16  16
#     4  12  22  32  53  84 111 139 180 233 282 331
#     4  10  20  36  56  76 106 149 195 235 274 330
#     4   9  19  36  55  76 108 145 176 217 282 352
#     4  11  22  35  53  80 113 148 187 232 284 339
#     4  11  21  34  53  78 109 145 183 227 281 338
#     4  10  20  36  57  80 107 143 185 230 284 343
#     4  10  21  38  55  73 108 155 190 222 274 339
#
# _framework density 19.210946
#
# number of rings (size 3 to 8) (size 9 to 14) (size 15 to 20)
#    0.000    1.571    2.857    3.000    0.000    4.286 
#    0.000    1.429    0.000    0.000    0.000    4.000 
#    0.000    0.000    0.000    4.714    0.000    0.286 
#
# Total GULP energy -624309.353265 kJ/mol
# GULP energy per Si atom -5574.190654 kJ/mol
# Density = 1.916722 g / cm^3
# Si number density = 19.210946 Si / 1000 Ang^3
#
#
#
# Elastic Constant Matrix: (Units=GPa)
#
#
# Indices 1 2 3 4 5 6 
#
# 1 94.5517 13.4098 19.7516 0.0000 0.0000 0.0000
# 2 13.4098 94.5517 19.7516 0.0000 0.0000 0.0000
# 3 19.7516 19.7516 77.1963 0.0000 0.0000 0.0000
# 4 0.0000 0.0000 0.0000 18.8231 0.0000 0.0000
# 5 0.0000 0.0000 0.0000 0.0000 18.8231 0.0000
# 6 0.0000 0.0000 0.0000 0.0000 0.0000 -81.8634
#
#
#
# Elastic Compliance Matrix: (Units=1/GPa)
#
#
# Indices 1 2 3 4 5 6 
#
# 1 0.011272 -0.001052 -0.002615 0.000000 0.000000 0.000000
# 2 -0.001052 0.011272 -0.002615 0.000000 0.000000 0.000000
# 3 -0.002615 -0.002615 0.014292 0.000000 0.000000 0.000000
# 4 0.000000 0.000000 0.000000 0.053126 0.000000 0.000000
# 5 0.000000 0.000000 0.000000 0.000000 0.053126 0.000000
# 6 0.000000 0.000000 0.000000 0.000000 0.000000 -0.012215
#
#
# Mechanical properties :
#
#
# Convention : Reuss Voigt Hill
#
# Bulk Modulus (GPa) = 41.20027 41.34729 41.27378
# Shear Modulus (GPa) = 32.99748 5.38233 19.18990
#
# Velocity S-wave (km/s) = 4.14894 1.67564 3.16397
# Velocity P-wave (km/s) = 6.66666 5.03122 5.90583
#
# Compressibility (1/GPa) = 0.02427169
#
# Stress axis : x y z
#
# Youngs Moduli (GPa) = 88.71779 88.71779 69.96915
#
# Poissons Ratio (x) = 0.09337 0.18295
# Poissons Ratio (y) = 0.09337 0.18295
# Poissons Ratio (z) = 0.23197 0.23197
#
# Static dielectric constant tensor:
#      x y z
#    x 1.704980 0.000000 0.000000 
#    y 0.000000 1.704980 0.000000 
#    z 0.000000 0.000000 1.660220 
# 
# From -- ./inp_files/8922.got.cif
#   From: 2010.05.17/outbox.cif.g08.bks.cpg/sg137_5_cif.got.tgz:8922.got - 2010.05.20 13:01:12.
