data_PCOD9570478
_publ_section_title
;
Structure prediction by ZEFSAII (Michael W. Deem and Ramdas Pophale) SiO2 
 PCOD9570478
Probable space group: P 42/N M C
;
_chemical_formula_sum "Si O2"
_cell_formula_units_Z 84
_cell_length_a 14.848673
_cell_length_b 14.848673
_cell_length_c 16.384870
_cell_angle_alpha 90.000000
_cell_angle_beta 90.000000
_cell_angle_gamma 90.000000
_cell_volume 3612.586765
_symmetry_space_group_name_H-M "P 42/N M C"
_symmetry_group_IT_number 137
_space_group.IT_coordinate_system_code '2'
_symmetry_cell_setting 'tetragonal'
loop_
_space_group_symop_operation_xyz
x,y,z
1/2-y,x,1/2+z
1/2-x,1/2-y,z
y,1/2-x,1/2+z
1/2+x,-y,-z
-x,1/2+y,-z
1/2+y,1/2+x,1/2-z
-y,-x,1/2-z
-x,-y,-z
1/2+y,-x,1/2-z
1/2+x,1/2+y,-z
-y,1/2+x,1/2-z
1/2-x,y,z
x,1/2-y,z
1/2-y,1/2-x,1/2+z
y,x,1/2+z
loop_
_atom_site_type_symbol
_atom_site_label
_atom_site_fract_x
_atom_site_fract_y
_atom_site_fract_z
Si Si1 0.515601 0.149604 0.705964
Si Si2 0.884588 0.151554 0.925386
Si Si3 0.086144 0.647132 0.600887
Si Si4 0.111365 0.088046 0.459096
Si Si5 0.960899 0.645350 0.850188
Si Si6 0.250000 0.250000 0.429170
O O1 0.589538 0.089538 0.750000
O O2 0.504380 0.250000 0.737813
O O3 0.563349 0.154709 0.617520
O O4 0.421678 0.097550 0.704433
O O5 0.858400 0.250000 0.891848
O O6 0.856415 0.147003 0.019574
O O7 0.992685 0.140630 0.920931
O O8 0.081913 0.750000 0.631682
O O9 0.123882 0.566852 0.656945
O O10 0.988985 0.611954 0.569553
O O11 0.122848 0.069991 0.556457
O O12 0.172819 0.170721 0.434033
O O13 0.943216 0.750000 0.834520
#
# Coordination Sequence:
#
# PCOD9570478 Si02
#       6
#    16  16  16  16  16   4
#     4  12  27  45  66  88 120 164 216 267 318 370
#     4  11  21  37  59  87 130 166 202 254 314 373
#     4  11  20  34  61  97 136 168 199 245 318 385
#     4  11  19  33  57  96 133 167 203 253 312 379
#     4  11  23  41  65  93 127 166 214 265 313 379
#     4  12  20  28  60 100 134 172 216 244 320 398
#
# _framework density 23.252034999999999
#
# number of rings (size 3 to 8) (size 9 to 14) (size 15 to 20)
#    0.000    0.762    6.667    4.000    1.333    4.000 
#    0.000    0.952    2.095    0.000    0.000    0.000 
#    0.000    0.000    0.000    0.000    0.000    0.000 
#
# Total GULP energy -468975.995456 kJ/mol
# GULP energy per Si atom -5583.047565 kJ/mol
# Density = 2.319911 g / cm^3
# Si number density = 23.252035 Si / 1000 Ang^3
#
#
#
# Elastic Constant Matrix: (Units=GPa)
#
#
# Indices 1 2 3 4 5 6 
#
# 1 213.5932 67.2177 10.7894 0.0000 0.0000 0.0000
# 2 67.2177 213.5932 10.7894 0.0000 0.0000 0.0000
# 3 10.7894 10.7894 25.1102 0.0000 0.0000 0.0000
# 4 0.0000 0.0000 0.0000 12.0061 0.0000 0.0000
# 5 0.0000 0.0000 0.0000 0.0000 12.0061 0.0000
# 6 0.0000 0.0000 0.0000 0.0000 0.0000 23.1657
#
#
#
# Elastic Compliance Matrix: (Units=1/GPa)
#
#
# Indices 1 2 3 4 5 6 
#
# 1 0.005257 -0.001575 -0.001582 0.000000 0.000000 0.000000
# 2 -0.001575 0.005257 -0.001582 0.000000 0.000000 0.000000
# 3 -0.001582 -0.001582 0.041184 0.000000 0.000000 0.000000
# 4 0.000000 0.000000 0.000000 0.083291 0.000000 0.000000
# 5 0.000000 0.000000 0.000000 0.000000 0.083291 0.000000
# 6 0.000000 0.000000 0.000000 0.000000 0.000000 0.043167
#
#
# Mechanical properties :
#
#
# Convention : Reuss Voigt Hill
#
# Bulk Modulus (GPa) = 23.68535 69.98775 46.83655
# Shear Modulus (GPa) = 17.54382 33.66890 25.60636
#
# Velocity S-wave (km/s) = 2.74981 3.80939 3.32211
# Velocity P-wave (km/s) = 4.50449 7.03658 5.90779
#
# Compressibility (1/GPa) = 0.04222018
#
# Stress axis : x y z
#
# Youngs Moduli (GPa) = 190.21428 190.21428 24.28107
#
# Poissons Ratio (x) = 0.29950 0.03842
# Poissons Ratio (y) = 0.29950 0.03842
# Poissons Ratio (z) = 0.30099 0.30099
#
# Static dielectric constant tensor:
#      x y z
#    x 1.867380 0.000000 0.000000 
#    y 0.000000 1.867380 0.000000 
#    z 0.000000 0.000000 2.008780 
# 
# From -- ./inp_files/7689.got.cif
#   From: 2010.05.17/outbox.cif.g08.bks.cpg/sg137_4_cif.got.tgz:7689.got - 2010.05.20 13:01:12.
