data_PCOD9570116
_publ_section_title
;
Structure prediction by ZEFSAII (Michael W. Deem and Ramdas Pophale) SiO2 
 PCOD9570116
Probable space group: P 42/N M C
;
_chemical_formula_sum "Si O2"
_cell_formula_units_Z 96
_cell_length_a 15.341603
_cell_length_b 15.341603
_cell_length_c 22.351541
_cell_angle_alpha 90.000000
_cell_angle_beta 90.000000
_cell_angle_gamma 90.000000
_cell_volume 5260.765588
_symmetry_space_group_name_H-M "P 42/N M C"
_symmetry_group_IT_number 137
_space_group.IT_coordinate_system_code '2'
_symmetry_cell_setting 'tetragonal'
loop_
_space_group_symop_operation_xyz
x,y,z
1/2-y,x,1/2+z
1/2-x,1/2-y,z
y,1/2-x,1/2+z
1/2+x,-y,-z
-x,1/2+y,-z
1/2+y,1/2+x,1/2-z
-y,-x,1/2-z
-x,-y,-z
1/2+y,-x,1/2-z
1/2+x,1/2+y,-z
-y,1/2+x,1/2-z
1/2-x,y,z
x,1/2-y,z
1/2-y,1/2-x,1/2+z
y,x,1/2+z
loop_
_atom_site_type_symbol
_atom_site_label
_atom_site_fract_x
_atom_site_fract_y
_atom_site_fract_z
Si Si1 0.151926 0.569847 0.473297
Si Si2 0.072155 0.150991 0.658300
Si Si3 0.008719 0.050823 0.862908
Si Si4 0.011562 0.845154 0.552416
Si Si5 0.151472 0.118568 0.528075
Si Si6 0.352020 0.152200 0.285255
O O1 0.250000 0.603983 0.469621
O O2 0.118603 0.533820 0.409794
O O3 0.082691 0.635724 0.501314
O O4 0.151329 0.485166 0.516375
O O5 0.034961 0.250000 0.660847
O O6 0.119418 0.140452 0.594479
O O7 0.137683 0.142951 0.713986
O O8 0.003030 0.072405 0.663028
O O9 0.073071 0.097866 0.816693
O O10 0.074776 0.990458 0.901514
O O11 0.026705 0.750000 0.579478
O O12 0.917970 0.846205 0.519523
O O13 0.250000 0.149056 0.518209
O O14 0.250000 0.146913 0.302356
O O15 0.383069 0.250000 0.301077
#
# Coordination Sequence:
#
# PCOD9570116 Si02
#       6
#    16  16  16  16  16  16
#     4  10  20  35  55  78 111 152 190 229 273 327
#     4  11  21  35  57  82 114 149 185 233 283 333
#     4  11  20  38  56  83 112 151 188 235 280 340
#     4  11  21  35  55  81 115 150 186 231 283 336
#     4  10  19  34  55  81 112 144 183 233 288 338
#     4  10  22  38  57  84 113 144 186 235 289 343
#
# _framework density 18.248294999999999
#
# number of rings (size 3 to 8) (size 9 to 14) (size 15 to 20)
#    0.000    1.500    3.333    3.500    0.000    3.000 
#    0.000    0.000    0.000    1.500    0.000    4.667 
#    0.000    2.667    0.000    0.000    0.000    0.000 
#
# Total GULP energy -535590.388771 kJ/mol
# GULP energy per Si atom -5579.066550 kJ/mol
# Density = 1.820676 g / cm^3
# Si number density = 18.248295 Si / 1000 Ang^3
#
#
#
# Elastic Constant Matrix: (Units=GPa)
#
#
# Indices 1 2 3 4 5 6 
#
# 1 101.3966 59.2478 15.0781 0.0000 0.0000 0.0000
# 2 59.2478 101.3966 15.0781 0.0000 0.0000 0.0000
# 3 15.0781 15.0781 44.9132 0.0000 0.0000 0.0000
# 4 0.0000 0.0000 0.0000 15.1371 0.0000 0.0000
# 5 0.0000 0.0000 0.0000 0.0000 15.1371 0.0000
# 6 0.0000 0.0000 0.0000 0.0000 0.0000 -18.5355
#
#
#
# Elastic Compliance Matrix: (Units=1/GPa)
#
#
# Indices 1 2 3 4 5 6 
#
# 1 0.015185 -0.008541 -0.002230 0.000000 0.000000 0.000000
# 2 -0.008541 0.015185 -0.002230 0.000000 0.000000 0.000000
# 3 -0.002230 -0.002230 0.023763 0.000000 0.000000 0.000000
# 4 0.000000 0.000000 0.000000 0.066063 0.000000 0.000000
# 5 0.000000 0.000000 0.000000 0.000000 0.066063 0.000000
# 6 0.000000 0.000000 0.000000 0.000000 0.000000 -0.053951
#
#
# Mechanical properties :
#
#
# Convention : Reuss Voigt Hill
#
# Bulk Modulus (GPa) = 35.55118 47.39048 41.47083
# Shear Modulus (GPa) = 29.81761 12.90125 21.35943
#
# Velocity S-wave (km/s) = 4.04665 2.66180 3.42495
# Velocity P-wave (km/s) = 6.43103 5.95593 6.19803
#
# Compressibility (1/GPa) = 0.02812846
#
# Stress axis : x y z
#
# Youngs Moduli (GPa) = 65.85646 65.85646 42.08273
#
# Poissons Ratio (x) = 0.56247 0.09386
# Poissons Ratio (y) = 0.56247 0.09386
# Poissons Ratio (z) = 0.14688 0.14688
#
# Static dielectric constant tensor:
#      x y z
#    x 1.637320 0.000000 0.000000 
#    y 0.000000 1.637320 0.000000 
#    z 0.000000 0.000000 1.622580 
# 
# From -- ./inp_files/7818.got.cif
#   From: 2010.05.17/outbox.cif.g08.bks.cpg/sg137_4_cif.got.tgz:7818.got - 2010.05.20 13:01:12.
