data_PCOD9570169
_publ_section_title
;
Structure prediction by ZEFSAII (Michael W. Deem and Ramdas Pophale) SiO2 
 PCOD9570169
Probable space group: P 42/N M C
;
_chemical_formula_sum "Si O2"
_cell_formula_units_Z 72
_cell_length_a 13.761562
_cell_length_b 13.761562
_cell_length_c 22.394729
_cell_angle_alpha 90.000000
_cell_angle_beta 90.000000
_cell_angle_gamma 90.000000
_cell_volume 4241.126961
_symmetry_space_group_name_H-M "P 42/N M C"
_symmetry_group_IT_number 137
_space_group.IT_coordinate_system_code '2'
_symmetry_cell_setting 'tetragonal'
loop_
_space_group_symop_operation_xyz
x,y,z
1/2-y,x,1/2+z
1/2-x,1/2-y,z
y,1/2-x,1/2+z
1/2+x,-y,-z
-x,1/2+y,-z
1/2+y,1/2+x,1/2-z
-y,-x,1/2-z
-x,-y,-z
1/2+y,-x,1/2-z
1/2+x,1/2+y,-z
-y,1/2+x,1/2-z
1/2-x,y,z
x,1/2-y,z
1/2-y,1/2-x,1/2+z
y,x,1/2+z
loop_
_atom_site_type_symbol
_atom_site_label
_atom_site_fract_x
_atom_site_fract_y
_atom_site_fract_z
Si Si1 0.548168 0.865571 0.434773
Si Si2 0.946879 0.361854 0.876373
Si Si3 0.050474 0.550474 0.250000
Si Si4 0.137057 0.132829 0.691232
Si Si5 0.865258 0.638948 0.559128
O O1 0.558778 0.750000 0.438244
O O2 0.438467 0.892423 0.418183
O O3 0.612897 0.895634 0.377582
O O4 0.582946 0.900295 0.499382
O O5 0.925470 0.250000 0.889990
O O6 0.923033 0.387126 0.808217
O O7 0.061755 0.379525 0.888268
O O8 0.939802 0.575309 0.268217
O O9 0.250000 0.115234 0.704669
O O10 0.119458 0.250000 0.697098
O O11 0.750000 0.641806 0.546448
O O12 0.895894 0.750000 0.572641
#
# Coordination Sequence:
#
# PCOD9570169 Si02
#       5
#    16  16   8  16  16
#     4   9  17  30  48  70  95 122 154 193 237 284
#     4  10  20  32  46  67  96 129 161 192 231 282
#     4  10  20  32  46  68  98 128 162 202 242 280
#     4   9  17  30  49  70  92 123 163 202 239 286
#     4   9  17  30  50  74  96 117 146 191 242 283
#
# _framework density 16.97662
#
# number of rings (size 3 to 8) (size 9 to 14) (size 15 to 20)
#    0.000    2.667    0.000    2.000    0.000    4.889 
#    0.000    2.222    0.000    4.667    0.000    0.000 
#    0.000    0.000    0.000    0.000    0.000    0.000 
#
# Total GULP energy -401042.661939 kJ/mol
# GULP energy per Si atom -5570.036971 kJ/mol
# Density = 1.693798 g / cm^3
# Si number density = 16.976620 Si / 1000 Ang^3
#
#
#
# Elastic Constant Matrix: (Units=GPa)
#
#
# Indices 1 2 3 4 5 6 
#
# 1 25.2487 9.4332 8.9506 0.0000 0.0000 0.0000
# 2 9.4332 25.2487 8.9506 0.0000 0.0000 0.0000
# 3 8.9506 8.9506 55.1636 0.0000 0.0000 0.0000
# 4 0.0000 0.0000 0.0000 16.8580 0.0000 0.0000
# 5 0.0000 0.0000 0.0000 0.0000 16.8580 0.0000
# 6 0.0000 0.0000 0.0000 0.0000 0.0000 26.6915
#
#
#
# Elastic Compliance Matrix: (Units=1/GPa)
#
#
# Indices 1 2 3 4 5 6 
#
# 1 0.047349 -0.015880 -0.005106 0.000000 0.000000 0.000000
# 2 -0.015880 0.047349 -0.005106 0.000000 0.000000 0.000000
# 3 -0.005106 -0.005106 0.019785 0.000000 0.000000 0.000000
# 4 0.000000 0.000000 0.000000 0.059319 0.000000 0.000000
# 5 0.000000 0.000000 0.000000 0.000000 0.059319 0.000000
# 6 0.000000 0.000000 0.000000 0.000000 0.000000 0.037465
#
#
# Mechanical properties :
#
#
# Convention : Reuss Voigt Hill
#
# Bulk Modulus (GPa) = 16.05168 17.81442 16.93305
# Shear Modulus (GPa) = 14.55450 17.30328 15.92889
#
# Velocity S-wave (km/s) = 2.93119 3.19602 3.06647
# Velocity P-wave (km/s) = 4.57510 4.91281 4.74696
#
# Compressibility (1/GPa) = 0.06229878
#
# Stress axis : x y z
#
# Youngs Moduli (GPa) = 21.11976 21.11976 50.54365
#
# Poissons Ratio (x) = 0.33538 0.25808
# Poissons Ratio (y) = 0.33538 0.25808
# Poissons Ratio (z) = 0.10784 0.10784
#
# Static dielectric constant tensor:
#      x y z
#    x 1.571640 0.000000 0.000000 
#    y 0.000000 1.571640 0.000000 
#    z 0.000000 0.000000 1.598720 
# 
# From -- ./inp_files/6233.got.cif
#   From: 2010.05.17/outbox.cif.g08.bks.cpg/sg137_4_cif.got.tgz:6233.got - 2010.05.20 13:01:12.
