data_PCOD9570958
_publ_section_title
;
Structure prediction by ZEFSAII (Michael W. Deem and Ramdas Pophale) SiO2 
 PCOD9570958
Probable space group: P 42/N C M
;
_chemical_formula_sum "Si O2"
_cell_formula_units_Z 36
_cell_length_a 11.569418
_cell_length_b 11.569418
_cell_length_c 14.902417
_cell_angle_alpha 90.000000
_cell_angle_beta 90.000000
_cell_angle_gamma 90.000000
_cell_volume 1994.709869
_symmetry_space_group_name_H-M "P 42/N C M"
_symmetry_group_IT_number 138
_space_group.IT_coordinate_system_code '2'
_symmetry_cell_setting 'tetragonal'
loop_
_space_group_symop_operation_xyz
x,y,z
1/2-y,x,1/2+z
1/2-x,1/2-y,z
y,1/2-x,1/2+z
1/2+x,-y,1/2-z
-x,1/2+y,1/2-z
1/2+y,1/2+x,-z
-y,-x,-z
-x,-y,-z
1/2+y,-x,1/2-z
1/2+x,1/2+y,-z
-y,1/2+x,1/2-z
1/2-x,y,1/2+z
x,1/2-y,1/2+z
1/2-y,1/2-x,z
y,x,z
loop_
_atom_site_type_symbol
_atom_site_label
_atom_site_fract_x
_atom_site_fract_y
_atom_site_fract_z
Si Si1 0.574654 0.187835 0.236765
Si Si2 0.750000 0.750000 0.984950
Si Si3 0.436586 0.436586 0.583584
Si Si4 0.342373 0.342373 0.840871
O O1 0.617541 0.317937 0.222775
O O2 0.531272 0.126313 0.146304
O O3 0.467990 0.188018 0.304912
O O4 0.838716 0.661285 0.937802
O O5 0.827378 0.827378 0.053015
O O6 0.500000 0.500000 0.500000
O O7 0.250000 0.250000 0.802096
#
# Coordination Sequence:
#
# PCOD9570958 Si02
#       4
#    16   4   8   8
#     4  10  22  39  62  88 118 161 206 246 304 378
#     4  10  22  36  56  92 114 164 198 250 320 356
#     4  11  23  39  64  90 129 158 203 267 316 362
#     4   9  21  37  62  79 124 156 208 241 308 371
#
# _framework density 18.047737000000001
#
# number of rings (size 3 to 8) (size 9 to 14) (size 15 to 20)
#    0.667    1.333    0.000    2.667   12.444    0.000 
#    0.000   17.778    0.000    0.000    0.000    0.000 
#    0.000    0.000    0.000    0.000    0.000    0.000 
#
# Total GULP energy -200607.102118 kJ/mol
# GULP energy per Si atom -5572.419503 kJ/mol
# Density = 1.800666 g / cm^3
# Si number density = 18.047737 Si / 1000 Ang^3
#
#
#
# Elastic Constant Matrix: (Units=GPa)
#
#
# Indices 1 2 3 4 5 6 
#
# 1 133.7297 77.1090 45.8976 0.0000 0.0000 0.0000
# 2 77.1090 133.7297 45.8976 0.0000 0.0000 0.0000
# 3 45.8976 45.8976 91.4085 0.0000 0.0000 0.0000
# 4 0.0000 0.0000 0.0000 11.6988 0.0000 0.0000
# 5 0.0000 0.0000 0.0000 0.0000 11.6988 0.0000
# 6 0.0000 0.0000 0.0000 0.0000 0.0000 30.6057
#
#
#
# Elastic Compliance Matrix: (Units=1/GPa)
#
#
# Indices 1 2 3 4 5 6 
#
# 1 0.011866 -0.005796 -0.003048 0.000000 0.000000 0.000000
# 2 -0.005796 0.011866 -0.003048 0.000000 0.000000 0.000000
# 3 -0.003048 -0.003048 0.014001 0.000000 0.000000 0.000000
# 4 0.000000 0.000000 0.000000 0.085479 0.000000 0.000000
# 5 0.000000 0.000000 0.000000 0.000000 0.085479 0.000000
# 6 0.000000 0.000000 0.000000 0.000000 0.000000 0.032674
#
#
# Mechanical properties :
#
#
# Convention : Reuss Voigt Hill
#
# Bulk Modulus (GPa) = 71.68851 77.40847 74.54849
# Shear Modulus (GPa) = 18.53252 23.46489 20.99870
#
# Velocity S-wave (km/s) = 3.20794 3.60968 3.41473
# Velocity P-wave (km/s) = 7.31635 7.76898 7.54606
#
# Compressibility (1/GPa) = 0.01394924
#
# Stress axis : x y z
#
# Youngs Moduli (GPa) = 84.27683 84.27683 71.42560
#
# Poissons Ratio (x) = 0.48845 0.21769
# Poissons Ratio (y) = 0.48845 0.21769
# Poissons Ratio (z) = 0.25686 0.25686
#
# Static dielectric constant tensor:
#      x y z
#    x 1.624670 0.000000 0.000000 
#    y 0.000000 1.624670 0.000000 
#    z 0.000000 0.000000 1.612290 
# 
# From -- ./inp_files/2197.got.cif
#   From: 2010.05.17/outbox.cif.g08.bks.cpg/sg138_2_cif.got.tgz:2197.got - 2010.05.20 13:08:53.
