data_PCOD9570973
_publ_section_title
;
Structure prediction by ZEFSAII (Michael W. Deem and Ramdas Pophale) SiO2 
 PCOD9570973
Probable space group: P 42/N C M
;
_chemical_formula_sum "Si O2"
_cell_formula_units_Z 56
_cell_length_a 13.870252
_cell_length_b 13.870252
_cell_length_c 14.560745
_cell_angle_alpha 90.000000
_cell_angle_beta 90.000000
_cell_angle_gamma 90.000000
_cell_volume 2801.252772
_symmetry_space_group_name_H-M "P 42/N C M"
_symmetry_group_IT_number 138
_space_group.IT_coordinate_system_code '2'
_symmetry_cell_setting 'tetragonal'
loop_
_space_group_symop_operation_xyz
x,y,z
1/2-y,x,1/2+z
1/2-x,1/2-y,z
y,1/2-x,1/2+z
1/2+x,-y,1/2-z
-x,1/2+y,1/2-z
1/2+y,1/2+x,-z
-y,-x,-z
-x,-y,-z
1/2+y,-x,1/2-z
1/2+x,1/2+y,-z
-y,1/2+x,1/2-z
1/2-x,y,1/2+z
x,1/2-y,1/2+z
1/2-y,1/2-x,z
y,x,z
loop_
_atom_site_type_symbol
_atom_site_label
_atom_site_fract_x
_atom_site_fract_y
_atom_site_fract_z
Si Si1 0.392661 0.545571 0.754113
Si Si2 0.370117 0.370117 0.864633
Si Si3 0.220312 0.567819 0.630060
Si Si4 0.750000 0.250000 0.500000
Si Si5 0.128125 0.371876 0.571423
Si Si6 0.250000 0.250000 0.717139
O O1 0.496424 0.496424 0.734515
O O2 0.355126 0.483286 0.841489
O O3 0.320239 0.528451 0.670821
O O4 0.398113 0.655799 0.783337
O O5 0.313850 0.313850 0.785710
O O6 0.344125 0.344125 0.967574
O O7 0.244392 0.655329 0.563273
O O8 0.155977 0.483716 0.584506
O O9 0.185065 0.314936 0.650346
#
# Coordination Sequence:
#
# PCOD9570973 Si02
#       6
#    16   8  16   4   8   4
#     4  10  22  41  67  96 137 173 229 283 348 408
#     4  10  22  39  64 101 131 171 228 276 342 405
#     4  12  23  44  67 101 137 188 227 292 351 413
#     4  12  28  40  66 100 140 184 240 278 346 438
#     4  12  22  41  76  96 138 180 233 283 348 426
#     4  12  22  44  64 104 136 176 222 294 348 412
#
# _framework density 19.991056
#
# number of rings (size 3 to 8) (size 9 to 14) (size 15 to 20)
#    0.857    0.000    4.286    3.857    0.000    1.714 
#    0.000    0.714    0.000    0.000    0.000    0.000 
#    0.000    0.000    0.000    0.000    0.000    0.000 
#
# Total GULP energy -312459.176309 kJ/mol
# GULP energy per Si atom -5579.628148 kJ/mol
# Density = 1.994556 g / cm^3
# Si number density = 19.991056 Si / 1000 Ang^3
#
#
#
# Elastic Constant Matrix: (Units=GPa)
#
#
# Indices 1 2 3 4 5 6 
#
# 1 83.6838 41.4627 32.5929 0.0000 0.0000 0.0000
# 2 41.4627 83.6838 32.5929 0.0000 0.0000 0.0000
# 3 32.5929 32.5929 100.5055 0.0000 0.0000 0.0000
# 4 0.0000 0.0000 0.0000 19.9508 0.0000 0.0000
# 5 0.0000 0.0000 0.0000 0.0000 19.9508 0.0000
# 6 0.0000 0.0000 0.0000 0.0000 0.0000 29.7665
#
#
#
# Elastic Compliance Matrix: (Units=1/GPa)
#
#
# Indices 1 2 3 4 5 6 
#
# 1 0.016650 -0.007035 -0.003118 0.000000 0.000000 0.000000
# 2 -0.007035 0.016650 -0.003118 0.000000 0.000000 0.000000
# 3 -0.003118 -0.003118 0.011972 0.000000 0.000000 0.000000
# 4 0.000000 0.000000 0.000000 0.050123 0.000000 0.000000
# 5 0.000000 0.000000 0.000000 0.000000 0.050123 0.000000
# 6 0.000000 0.000000 0.000000 0.000000 0.000000 0.033595
#
#
# Mechanical properties :
#
#
# Convention : Reuss Voigt Hill
#
# Bulk Modulus (GPa) = 53.39155 53.46332 53.42743
# Shear Modulus (GPa) = 23.59628 24.68195 24.13911
#
# Velocity S-wave (km/s) = 3.43934 3.51757 3.47867
# Velocity P-wave (km/s) = 6.52210 6.58023 6.55123
#
# Compressibility (1/GPa) = 0.01872956
#
# Stress axis : x y z
#
# Youngs Moduli (GPa) = 60.06086 60.06086 83.52865
#
# Poissons Ratio (x) = 0.42253 0.26044
# Poissons Ratio (y) = 0.42253 0.26044
# Poissons Ratio (z) = 0.18727 0.18727
#
# Static dielectric constant tensor:
#      x y z
#    x 1.730060 0.000000 0.000000 
#    y 0.000000 1.730060 0.000000 
#    z 0.000000 0.000000 1.676560 
# 
# From -- ./inp_files/2577.got.cif
#   From: 2010.05.17/outbox.cif.g08.bks.cpg/sg138_2_cif.got.tgz:2577.got - 2010.05.20 13:08:53.
