data_PCOD9570505
_publ_section_title
;
Structure prediction by ZEFSAII (Michael W. Deem and Ramdas Pophale) SiO2 
 PCOD9570505
Probable space group: P 42/N M C
;
_chemical_formula_sum "Si O2"
_cell_formula_units_Z 116
_cell_length_a 18.260583
_cell_length_b 18.260583
_cell_length_c 16.327526
_cell_angle_alpha 90.000000
_cell_angle_beta 90.000000
_cell_angle_gamma 90.000000
_cell_volume 5444.395446
_symmetry_space_group_name_H-M "P 42/N M C"
_symmetry_group_IT_number 137
_space_group.IT_coordinate_system_code '2'
_symmetry_cell_setting 'tetragonal'
loop_
_space_group_symop_operation_xyz
x,y,z
1/2-y,x,1/2+z
1/2-x,1/2-y,z
y,1/2-x,1/2+z
1/2+x,-y,-z
-x,1/2+y,-z
1/2+y,1/2+x,1/2-z
-y,-x,1/2-z
-x,-y,-z
1/2+y,-x,1/2-z
1/2+x,1/2+y,-z
-y,1/2+x,1/2-z
1/2-x,y,z
x,1/2-y,z
1/2-y,1/2-x,1/2+z
y,x,1/2+z
loop_
_atom_site_type_symbol
_atom_site_label
_atom_site_fract_x
_atom_site_fract_y
_atom_site_fract_z
Si Si1 0.167887 0.028555 0.253953
Si Si2 0.597893 0.665923 0.820228
Si Si3 0.517191 0.944338 0.108571
Si Si4 0.373992 0.139520 0.496479
Si Si5 0.668556 0.167688 0.027877
Si Si6 0.975101 0.144410 0.570769
Si Si7 0.934578 0.102540 0.163384
Si Si8 0.250000 0.250000 0.440271
O O1 0.250000 0.022157 0.286771
O O2 0.146023 0.113248 0.236969
O O3 0.105953 0.997582 0.313502
O O4 0.164677 0.991773 0.164327
O O5 0.598568 0.750000 0.793792
O O6 0.628043 0.659164 0.912794
O O7 0.516247 0.633290 0.824154
O O8 0.443686 0.973269 0.067197
O O9 0.559806 0.016867 0.138151
O O10 0.564639 0.892096 0.050592
O O11 0.456166 0.169706 0.515633
O O12 0.315636 0.187160 0.447601
O O13 0.750000 0.166301 0.065679
O O14 0.655885 0.250000 0.995928
O O15 0.607787 0.146556 0.094029
O O16 0.667940 0.103859 0.960532
O O17 0.894053 0.105948 0.250000
#
# Coordination Sequence:
#
# PCOD9570505 Si02
#       8
#    16  16  16  16  16  16  16   4
#     4  11  25  40  66  99 140 183 227 287 358 427
#     4  11  23  39  65  98 129 176 234 289 342 411
#     4  12  22  44  66  99 133 178 236 287 334 419
#     4  11  24  39  68  93 138 182 230 283 338 415
#     4  11  26  44  66 100 134 168 225 295 355 417
#     4  11  22  43  74  97 127 183 235 284 352 416
#     4  12  22  43  68  98 133 175 231 285 344 420
#     4  12  28  44  60 110 150 188 226 290 356 428
#
# _framework density 21.306315000000001
#
# number of rings (size 3 to 8) (size 9 to 14) (size 15 to 20)
#    0.000    0.690    6.207    2.483    5.793    1.931 
#    1.241    0.690    0.000    0.000    0.000    1.931 
#    0.000    0.000    0.000    0.000    0.000    0.000 
#
# Total GULP energy -647499.327925 kJ/mol
# GULP energy per Si atom -5581.890758 kJ/mol
# Density = 2.125782 g / cm^3
# Si number density = 21.306315 Si / 1000 Ang^3
#
#
#
# Elastic Constant Matrix: (Units=GPa)
#
#
# Indices 1 2 3 4 5 6 
#
# 1 136.8184 26.3458 16.6716 0.0000 0.0000 0.0000
# 2 26.3458 136.8182 16.6716 0.0000 0.0000 0.0000
# 3 16.6716 16.6716 35.4766 0.0000 0.0000 0.0000
# 4 0.0000 0.0000 0.0000 5.8212 0.0000 0.0000
# 5 0.0000 0.0000 0.0000 0.0000 5.8212 0.0000
# 6 0.0000 0.0000 0.0000 0.0000 0.0000 45.7601
#
#
#
# Elastic Compliance Matrix: (Units=1/GPa)
#
#
# Indices 1 2 3 4 5 6 
#
# 1 0.007916 -0.001136 -0.003186 0.000000 0.000000 0.000000
# 2 -0.001136 0.007916 -0.003186 0.000000 0.000000 0.000000
# 3 -0.003186 -0.003186 0.031182 0.000000 0.000000 0.000000
# 4 0.000000 0.000000 0.000000 0.171785 0.000000 0.000000
# 5 0.000000 0.000000 0.000000 0.000000 0.171787 0.000000
# 6 0.000000 0.000000 0.000000 0.000000 0.000000 0.021853
#
#
# Mechanical properties :
#
#
# Convention : Reuss Voigt Hill
#
# Bulk Modulus (GPa) = 31.25246 47.61014 39.43130
# Shear Modulus (GPa) = 11.41236 28.10878 19.76057
#
# Velocity S-wave (km/s) = 2.31688 3.63612 3.04871
# Velocity P-wave (km/s) = 4.67518 6.32634 5.56236
#
# Compressibility (1/GPa) = 0.03199748
#
# Stress axis : x y z
#
# Youngs Moduli (GPa) = 126.32720 126.32695 32.06972
#
# Poissons Ratio (x) = 0.14352 0.10218
# Poissons Ratio (y) = 0.14352 0.10218
# Poissons Ratio (z) = 0.40249 0.40249
#
# Static dielectric constant tensor:
#      x y z
#    x 1.586550 0.000000 0.000000 
#    y 0.000000 1.586610 0.000000 
#    z 0.000000 0.000000 1.791540 
# 
# From -- ./inp_files/6666.got.cif
#   From: 2010.05.17/outbox.cif.g08.bks.cpg/sg137_4_cif.got.tgz:6666.got - 2010.05.20 13:01:12.
