data_PCOD9570469
_publ_section_title
;
Structure prediction by ZEFSAII (Michael W. Deem and Ramdas Pophale) SiO2 
 PCOD9570469
Probable space group: P 42/N M C
;
_chemical_formula_sum "Si O2"
_cell_formula_units_Z 56
_cell_length_a 16.024235
_cell_length_b 16.024235
_cell_length_c 8.990580
_cell_angle_alpha 90.000000
_cell_angle_beta 90.000000
_cell_angle_gamma 90.000000
_cell_volume 2308.566135
_symmetry_space_group_name_H-M "P 42/N M C"
_symmetry_group_IT_number 137
_space_group.IT_coordinate_system_code '2'
_symmetry_cell_setting 'tetragonal'
loop_
_space_group_symop_operation_xyz
x,y,z
1/2-y,x,1/2+z
1/2-x,1/2-y,z
y,1/2-x,1/2+z
1/2+x,-y,-z
-x,1/2+y,-z
1/2+y,1/2+x,1/2-z
-y,-x,1/2-z
-x,-y,-z
1/2+y,-x,1/2-z
1/2+x,1/2+y,-z
-y,1/2+x,1/2-z
1/2-x,y,z
x,1/2-y,z
1/2-y,1/2-x,1/2+z
y,x,1/2+z
loop_
_atom_site_type_symbol
_atom_site_label
_atom_site_fract_x
_atom_site_fract_y
_atom_site_fract_z
Si Si1 0.926384 0.588928 0.494231
Si Si2 0.382008 0.750000 0.689913
Si Si3 0.250000 0.462219 0.599175
Si Si4 0.750000 0.341789 0.863911
Si Si5 0.490443 0.509558 0.250000
Si Si6 0.750000 0.651371 0.137057
O O1 0.840743 0.533125 0.480492
O O2 0.991192 0.556089 0.617200
O O3 0.888815 0.672575 0.554976
O O4 0.978780 0.591058 0.340845
O O5 0.329209 0.829209 0.750000
O O6 0.468137 0.750000 0.775466
O O7 0.397138 0.750000 0.510154
O O8 0.250000 0.375476 0.690369
O O9 0.750000 0.250000 0.941440
O O10 0.829611 0.329611 0.750000
O O11 0.750000 0.750000 0.126790
#
# Coordination Sequence:
#
# PCOD9570469 Si02
#       6
#    16   8   8   8   8   8
#     4  11  24  47  75 112 150 202 245 330 386 469
#     4  11  20  38  69  98 150 204 252 310 377 479
#     4  12  27  39  73 112 141 196 261 308 402 448
#     4   6  12  30  64  89 122 177 239 304 372 410
#     4  10  24  44  76 100 167 189 242 304 406 468
#     4  12  26  46  79 114 154 194 270 331 394 460
#
# _framework density 24.257480000000001
#
# number of rings (size 3 to 8) (size 9 to 14) (size 15 to 20)
#    0.857    0.714    5.714    0.000    4.000    1.143 
#    0.000    0.000   28.286    0.000    0.000    0.000 
#    0.000    0.000    0.000    0.000    0.000    0.000 
#
# Total GULP energy -311862.989246 kJ/mol
# GULP energy per Si atom -5568.981951 kJ/mol
# Density = 2.420227 g / cm^3
# Si number density = 24.257480 Si / 1000 Ang^3
#
#
#
# Elastic Constant Matrix: (Units=GPa)
#
#
# Indices 1 2 3 4 5 6 
#
# 1 82.7287 47.8998 30.8169 0.0000 0.0000 0.0000
# 2 47.8998 82.7281 30.8161 0.0000 0.0000 0.0000
# 3 30.8169 30.8161 148.3014 0.0000 0.0000 0.0000
# 4 0.0000 0.0000 0.0000 30.1600 0.0000 0.0000
# 5 0.0000 0.0000 0.0000 0.0000 30.1600 0.0000
# 6 0.0000 0.0000 0.0000 0.0000 0.0000 28.4482
#
#
#
# Elastic Compliance Matrix: (Units=1/GPa)
#
#
# Indices 1 2 3 4 5 6 
#
# 1 0.018600 -0.010112 -0.001764 0.000000 0.000000 0.000000
# 2 -0.010112 0.018600 -0.001764 0.000000 0.000000 0.000000
# 3 -0.001764 -0.001764 0.007476 0.000000 0.000000 0.000000
# 4 0.000000 0.000000 0.000000 0.033157 0.000000 0.000000
# 5 0.000000 0.000000 0.000000 0.000000 0.033156 0.000000
# 6 0.000000 0.000000 0.000000 0.000000 0.000000 0.035152
#
#
# Mechanical properties :
#
#
# Convention : Reuss Voigt Hill
#
# Bulk Modulus (GPa) = 57.48369 59.20263 58.34316
# Shear Modulus (GPa) = 27.89900 31.36869 29.63385
#
# Velocity S-wave (km/s) = 3.39502 3.59995 3.49898
# Velocity P-wave (km/s) = 6.25436 6.46053 6.35828
#
# Compressibility (1/GPa) = 0.01739624
#
# Stress axis : x y z
#
# Youngs Moduli (GPa) = 53.76434 53.76414 133.76155
#
# Poissons Ratio (x) = 0.54368 0.23592
# Poissons Ratio (y) = 0.54368 0.23590
# Poissons Ratio (z) = 0.09483 0.09482
#
# Static dielectric constant tensor:
#      x y z
#    x 2.045780 0.000000 0.000000 
#    y 0.000000 2.045790 0.000000 
#    z 0.000000 0.000000 1.921040 
# 
# From -- ./inp_files/1624.got.cif
#   From: 2010.05.17/outbox.cif.g08.bks.cpg/sg137_1_cif.got.tgz:1624.got - 2010.05.20 13:01:12.
