data_PCOD9570996
_publ_section_title
;
Structure prediction by ZEFSAII (Michael W. Deem and Ramdas Pophale) SiO2 
 PCOD9570996
Probable space group: P 42/N C M
;
_chemical_formula_sum "Si O2"
_cell_formula_units_Z 64
_cell_length_a 10.844896
_cell_length_b 10.844896
_cell_length_c 24.205727
_cell_angle_alpha 90.000000
_cell_angle_beta 90.000000
_cell_angle_gamma 90.000000
_cell_volume 2846.878378
_symmetry_space_group_name_H-M "P 42/N C M"
_symmetry_group_IT_number 138
_space_group.IT_coordinate_system_code '2'
_symmetry_cell_setting 'tetragonal'
loop_
_space_group_symop_operation_xyz
x,y,z
1/2-y,x,1/2+z
1/2-x,1/2-y,z
y,1/2-x,1/2+z
1/2+x,-y,1/2-z
-x,1/2+y,1/2-z
1/2+y,1/2+x,-z
-y,-x,-z
-x,-y,-z
1/2+y,-x,1/2-z
1/2+x,1/2+y,-z
-y,1/2+x,1/2-z
1/2-x,y,1/2+z
x,1/2-y,1/2+z
1/2-y,1/2-x,z
y,x,z
loop_
_atom_site_type_symbol
_atom_site_label
_atom_site_fract_x
_atom_site_fract_y
_atom_site_fract_z
Si Si1 0.088292 0.411709 0.578509
Si Si2 0.731000 0.398441 0.357556
Si Si3 0.296989 0.013622 0.871384
Si Si4 0.609281 0.890720 0.541456
Si Si5 0.251104 0.456393 0.251922
O O1 0.184276 0.498467 0.612077
O O2 0.142502 0.357499 0.521301
O O3 0.992832 0.507169 0.553074
O O4 0.750000 0.250000 0.367460
O O5 0.590313 0.399654 0.378254
O O6 0.738762 0.438453 0.293892
O O7 0.357546 0.142455 0.856664
O O8 0.221471 0.046263 0.925459
O O9 0.227667 0.988428 0.813362
O O10 0.146012 0.353989 0.241576
O O11 0.382907 0.382907 0.246406
#
# Coordination Sequence:
#
# PCOD9570996 Si02
#       5
#     8  16  16   8  16
#     4  11  26  48  70 100 136 187 250 304 362 426
#     4  12  25  43  69 104 144 187 241 303 362 443
#     4  11  24  43  69 105 142 186 240 293 366 435
#     4  11  23  48  74  94 139 192 245 305 352 429
#     4  10  22  42  69 100 147 191 229 295 364 437
#
# _framework density 22.480763
#
# number of rings (size 3 to 8) (size 9 to 14) (size 15 to 20)
#    0.000    1.000    5.000    1.125    3.500    1.000 
#    0.000    6.250    0.000    0.000    0.000    0.000 
#    0.000    0.000    0.000    0.000    0.000    0.000 
#
# Total GULP energy -356316.340394 kJ/mol
# GULP energy per Si atom -5567.442819 kJ/mol
# Density = 2.242960 g / cm^3
# Si number density = 22.480763 Si / 1000 Ang^3
#
#
#
# Elastic Constant Matrix: (Units=GPa)
#
#
# Indices 1 2 3 4 5 6 
#
# 1 62.6841 72.8980 46.5725 0.0000 0.0000 0.0000
# 2 72.8980 62.6841 46.5725 0.0000 0.0000 0.0000
# 3 46.5725 46.5725 154.2698 0.0000 0.0000 0.0000
# 4 0.0000 0.0000 0.0000 33.8285 0.0000 0.0000
# 5 0.0000 0.0000 0.0000 0.0000 33.8285 0.0000
# 6 0.0000 0.0000 0.0000 0.0000 0.0000 50.7882
#
#
#
# Elastic Compliance Matrix: (Units=1/GPa)
#
#
# Indices 1 2 3 4 5 6 
#
# 1 -0.044300 0.053606 -0.002809 0.000000 0.000000 0.000000
# 2 0.053606 -0.044300 -0.002809 0.000000 0.000000 0.000000
# 3 -0.002809 -0.002809 0.008178 0.000000 0.000000 0.000000
# 4 0.000000 0.000000 0.000000 0.029561 0.000000 0.000000
# 5 0.000000 0.000000 0.000000 0.000000 0.029561 0.000000
# 6 0.000000 0.000000 0.000000 0.000000 0.000000 0.019690
#
#
# Mechanical properties :
#
#
# Convention : Reuss Voigt Hill
#
# Bulk Modulus (GPa) = 64.29863 67.96931 66.13397
# Shear Modulus (GPa) = -54.11187 31.26205 -11.42491
#
# Velocity S-wave (km/s) = -4.91147 3.73314 -2.25679
# Velocity P-wave (km/s) = 1.87075 6.99155 4.76351
#
# Compressibility (1/GPa) = 0.01555243
#
# Stress axis : x y z
#
# Youngs Moduli (GPa) = -22.57326 -22.57326 122.27446
#
# Poissons Ratio (x) = 1.21006 0.34350
# Poissons Ratio (y) = 1.21006 0.34350
# Poissons Ratio (z) = -0.06341 -0.06341
#
# Static dielectric constant tensor:
#      x y z
#    x 1.983750 0.000000 0.000000 
#    y 0.000000 1.983750 0.000000 
#    z 0.000000 0.000000 2.165430 
# 
# From -- ./inp_files/6790.got.cif
#   From: 2010.05.17/outbox.cif.g08.bks.cpg/sg138_4_cif.got.tgz:6790.got - 2010.05.20 13:08:53.
