data_PCOD9570119
_publ_section_title
;
Structure prediction by ZEFSAII (Michael W. Deem and Ramdas Pophale) SiO2 
 PCOD9570119
Probable space group: P 42/N M C
;
_chemical_formula_sum "Si O2"
_cell_formula_units_Z 80
_cell_length_a 15.679691
_cell_length_b 15.679691
_cell_length_c 18.134231
_cell_angle_alpha 90.000000
_cell_angle_beta 90.000000
_cell_angle_gamma 90.000000
_cell_volume 4458.349832
_symmetry_space_group_name_H-M "P 42/N M C"
_symmetry_group_IT_number 137
_space_group.IT_coordinate_system_code '2'
_symmetry_cell_setting 'tetragonal'
loop_
_space_group_symop_operation_xyz
x,y,z
1/2-y,x,1/2+z
1/2-x,1/2-y,z
y,1/2-x,1/2+z
1/2+x,-y,-z
-x,1/2+y,-z
1/2+y,1/2+x,1/2-z
-y,-x,1/2-z
-x,-y,-z
1/2+y,-x,1/2-z
1/2+x,1/2+y,-z
-y,1/2+x,1/2-z
1/2-x,y,z
x,1/2-y,z
1/2-y,1/2-x,1/2+z
y,x,1/2+z
loop_
_atom_site_type_symbol
_atom_site_label
_atom_site_fract_x
_atom_site_fract_y
_atom_site_fract_z
Si Si1 0.021557 0.154723 0.943601
Si Si2 0.842405 0.123708 0.018630
Si Si3 0.530343 0.007902 0.833666
Si Si4 0.559711 0.652772 0.454991
Si Si5 0.343621 0.908855 0.675207
O O1 0.043012 0.250000 0.917166
O O2 0.016252 0.081725 0.881175
O O3 0.087346 0.125643 0.007504
O O4 0.926348 0.156280 0.977641
O O5 0.750000 0.150429 0.988469
O O6 0.850830 0.149672 0.103123
O O7 0.846152 0.021580 0.009782
O O8 0.540565 0.040565 0.750000
O O9 0.614059 0.979116 0.879354
O O10 0.474402 0.921878 0.830389
O O11 0.590567 0.750000 0.446436
O O12 0.356971 0.856971 0.750000
O O13 0.250000 0.950429 0.675735
#
# Coordination Sequence:
#
# PCOD9570119 Si02
#       5
#    16  16  16  16  16
#     4  11  21  37  58  84 117 151 196 243 286 340
#     4  10  19  34  56  80 111 146 183 234 290 341
#     4  10  21  39  58  83 117 152 192 239 291 346
#     4  10  20  37  59  83 113 151 196 239 283 336
#     4  11  21  33  52  80 115 146 176 223 287 353
#
# _framework density 17.943859
#
# number of rings (size 3 to 8) (size 9 to 14) (size 15 to 20)
#    0.000    1.600    4.000    2.400    0.000    3.800 
#    0.000    0.000    0.000    0.000    0.000    5.600 
#    0.000    0.000    0.000    0.000    0.000    0.000 
#
# Total GULP energy -445871.757177 kJ/mol
# GULP energy per Si atom -5573.396965 kJ/mol
# Density = 1.790302 g / cm^3
# Si number density = 17.943859 Si / 1000 Ang^3
#
#
#
# Elastic Constant Matrix: (Units=GPa)
#
#
# Indices 1 2 3 4 5 6 
#
# 1 106.7463 42.9616 35.4529 0.0000 0.0000 0.0000
# 2 42.9616 106.7463 35.4529 0.0000 0.0000 0.0000
# 3 35.4529 35.4529 114.4328 0.0000 0.0000 0.0000
# 4 0.0000 0.0000 0.0000 5.1305 0.0000 0.0000
# 5 0.0000 0.0000 0.0000 0.0000 5.1305 0.0000
# 6 0.0000 0.0000 0.0000 0.0000 0.0000 0.2226
#
#
#
# Elastic Compliance Matrix: (Units=1/GPa)
#
#
# Indices 1 2 3 4 5 6 
#
# 1 0.011753 -0.003925 -0.002425 0.000000 0.000000 0.000000
# 2 -0.003925 0.011753 -0.002425 0.000000 0.000000 0.000000
# 3 -0.002425 -0.002425 0.010242 0.000000 0.000000 0.000000
# 4 0.000000 0.000000 0.000000 0.194912 0.000000 0.000000
# 5 0.000000 0.000000 0.000000 0.000000 0.194912 0.000000
# 6 0.000000 0.000000 0.000000 0.000000 0.000000 4.492745
#
#
# Mechanical properties :
#
#
# Convention : Reuss Voigt Hill
#
# Bulk Modulus (GPa) = 61.73999 61.74002 61.74000
# Shear Modulus (GPa) = 1.01230 16.36727 8.68978
#
# Velocity S-wave (km/s) = 0.75191 3.02344 2.20301
# Velocity P-wave (km/s) = 5.93598 6.83156 6.39946
#
# Compressibility (1/GPa) = 0.01619696
#
# Stress axis : x y z
#
# Youngs Moduli (GPa) = 85.08425 85.08425 97.64136
#
# Poissons Ratio (x) = 0.33393 0.23681
# Poissons Ratio (y) = 0.33393 0.23681
# Poissons Ratio (z) = 0.20636 0.20636
#
# Static dielectric constant tensor:
#      x y z
#    x 1.632250 0.000000 0.000000 
#    y 0.000000 1.632250 0.000000 
#    z 0.000000 0.000000 1.610980 
# 
# From -- ./inp_files/7541.got.cif
#   From: 2010.05.17/outbox.cif.g08.bks.cpg/sg137_4_cif.got.tgz:7541.got - 2010.05.20 13:01:12.
