data_PCOD9570333
_publ_section_title
;
Structure prediction by ZEFSAII (Michael W. Deem and Ramdas Pophale) SiO2 
 PCOD9570333
Probable space group: P 42/N M C
;
_chemical_formula_sum "Si O2"
_cell_formula_units_Z 96
_cell_length_a 14.563456
_cell_length_b 14.563456
_cell_length_c 24.011894
_cell_angle_alpha 90.000000
_cell_angle_beta 90.000000
_cell_angle_gamma 90.000000
_cell_volume 5092.784665
_symmetry_space_group_name_H-M "P 42/N M C"
_symmetry_group_IT_number 137
_space_group.IT_coordinate_system_code '2'
_symmetry_cell_setting 'tetragonal'
loop_
_space_group_symop_operation_xyz
x,y,z
1/2-y,x,1/2+z
1/2-x,1/2-y,z
y,1/2-x,1/2+z
1/2+x,-y,-z
-x,1/2+y,-z
1/2+y,1/2+x,1/2-z
-y,-x,1/2-z
-x,-y,-z
1/2+y,-x,1/2-z
1/2+x,1/2+y,-z
-y,1/2+x,1/2-z
1/2-x,y,z
x,1/2-y,z
1/2-y,1/2-x,1/2+z
y,x,1/2+z
loop_
_atom_site_type_symbol
_atom_site_label
_atom_site_fract_x
_atom_site_fract_y
_atom_site_fract_z
Si Si1 0.859187 0.640235 0.870431
Si Si2 0.147247 0.361220 0.755144
Si Si3 0.859550 0.359550 0.250000
Si Si4 0.357617 0.857617 0.250000
Si Si5 0.001005 0.518252 0.934727
Si Si6 0.640985 0.360379 0.372210
Si Si7 0.860427 0.002928 0.653860
O O1 0.750000 0.625526 0.875900
O O2 0.875545 0.750000 0.876597
O O3 0.887602 0.615744 0.806810
O O4 0.916056 0.580240 0.913461
O O5 0.250000 0.397196 0.763455
O O6 0.151276 0.250000 0.753447
O O7 0.082807 0.384007 0.806238
O O8 0.873632 0.250000 0.249529
O O9 0.892499 0.391182 0.189698
O O10 0.374485 0.750000 0.259093
O O11 0.411466 0.882706 0.194199
O O12 0.998612 0.423094 0.900352
O O13 0.089493 0.577778 0.916561
O O14 0.000000 0.500000 0.000000
O O15 0.750000 0.382425 0.378387
O O16 0.633666 0.250000 0.374829
O O17 0.750000 0.002695 0.642677
#
# Coordination Sequence:
#
# PCOD9570333 Si02
#       7
#    16  16   8   8  16  16  16
#     4   9  19  38  63  87 110 138 176 228 287 338
#     4   8  15  31  57  86 111 135 170 222 284 344
#     4   7  12  27  54  86 114 135 160 207 276 348
#     4   9  18  35  60  86 108 134 176 232 292 345
#     4  12  26  38  53  78 112 154 200 235 260 308
#     4   9  19  38  62  87 115 143 175 224 284 340
#     4  10  21  36  54  79 113 149 182 225 282 334
#
# _framework density 18.850199
#
# number of rings (size 3 to 8) (size 9 to 14) (size 15 to 20)
#    0.000    2.667    0.000    3.500    0.000    6.667 
#    0.000    3.333    0.000    4.000    0.000    0.000 
#    0.000    0.000    0.000    0.000    0.000    0.000 
#
# Total GULP energy -535846.155158 kJ/mol
# GULP energy per Si atom -5581.730783 kJ/mol
# Density = 1.880730 g / cm^3
# Si number density = 18.850199 Si / 1000 Ang^3
#
#
#
# Elastic Constant Matrix: (Units=GPa)
#
#
# Indices 1 2 3 4 5 6 
#
# 1 113.9242 27.0962 71.3209 0.0000 0.0000 0.0000
# 2 27.0962 113.9242 71.3209 0.0000 0.0000 0.0000
# 3 71.3209 71.3209 195.7303 0.0000 0.0000 0.0000
# 4 0.0000 0.0000 0.0000 14.7410 0.0000 0.0000
# 5 0.0000 0.0000 0.0000 0.0000 14.7410 0.0000
# 6 0.0000 0.0000 0.0000 0.0000 0.0000 26.9992
#
#
#
# Elastic Compliance Matrix: (Units=1/GPa)
#
#
# Indices 1 2 3 4 5 6 
#
# 1 0.011374 -0.000143 -0.004092 0.000000 0.000000 0.000000
# 2 -0.000143 0.011374 -0.004092 0.000000 0.000000 0.000000
# 3 -0.004092 -0.004092 0.008091 0.000000 0.000000 0.000000
# 4 0.000000 0.000000 0.000000 0.067838 0.000000 0.000000
# 5 0.000000 0.000000 0.000000 0.000000 0.067838 0.000000
# 6 0.000000 0.000000 0.000000 0.000000 0.000000 0.037038
#
#
# Mechanical properties :
#
#
# Convention : Reuss Voigt Hill
#
# Bulk Modulus (GPa) = 70.50491 84.78385 77.64438
# Shear Modulus (GPa) = 22.22858 28.21897 25.22378
#
# Velocity S-wave (km/s) = 3.43771 3.87332 3.66200
# Velocity P-wave (km/s) = 7.29665 8.06714 7.69155
#
# Compressibility (1/GPa) = 0.01418341
#
# Stress axis : x y z
#
# Youngs Moduli (GPa) = 87.92211 87.92211 123.58948
#
# Poissons Ratio (x) = 0.01260 0.50575
# Poissons Ratio (y) = 0.01260 0.50575
# Poissons Ratio (z) = 0.35979 0.35979
#
# Static dielectric constant tensor:
#      x y z
#    x 1.681780 0.000000 0.000000 
#    y 0.000000 1.681780 0.000000 
#    z 0.000000 0.000000 1.604350 
# 
# From -- ./inp_files/8871.got.cif
#   From: 2010.05.17/outbox.cif.g08.bks.cpg/sg137_5_cif.got.tgz:8871.got - 2010.05.20 13:01:12.
