data_PCOD9570060
_publ_section_title
;
Structure prediction by ZEFSAII (Michael W. Deem and Ramdas Pophale) SiO2 
 PCOD9570060
Probable space group: P 42/N M C
;
_chemical_formula_sum "Si O2"
_cell_formula_units_Z 42
_cell_length_a 7.982718
_cell_length_b 7.982718
_cell_length_c 32.952072
_cell_angle_alpha 90.000000
_cell_angle_beta 90.000000
_cell_angle_gamma 90.000000
_cell_volume 2099.830806
_symmetry_space_group_name_H-M "P 42/N M C"
_symmetry_group_IT_number 137
_space_group.IT_coordinate_system_code '2'
_symmetry_cell_setting 'tetragonal'
loop_
_space_group_symop_operation_xyz
x,y,z
1/2-y,x,1/2+z
1/2-x,1/2-y,z
y,1/2-x,1/2+z
1/2+x,-y,-z
-x,1/2+y,-z
1/2+y,1/2+x,1/2-z
-y,-x,1/2-z
-x,-y,-z
1/2+y,-x,1/2-z
1/2+x,1/2+y,-z
-y,1/2+x,1/2-z
1/2-x,y,z
x,1/2-y,z
1/2-y,1/2-x,1/2+z
y,x,1/2+z
loop_
_atom_site_type_symbol
_atom_site_label
_atom_site_fract_x
_atom_site_fract_y
_atom_site_fract_z
Si Si1 0.453624 0.931172 0.869963
Si Si2 0.548233 0.560084 0.044527
Si Si3 0.750000 0.953932 0.685557
Si Si4 0.250000 0.750000 0.250000
O O1 0.250000 0.929425 0.871203
O O2 0.510932 0.750000 0.854768
O O3 0.511686 0.957556 0.916387
O O4 0.495114 0.086921 0.841621
O O5 0.750000 0.558707 0.046021
O O6 0.489632 0.750000 0.049860
O O7 0.500000 0.500000 0.000000
O O8 0.750000 0.750000 0.693902
O O9 0.750000 0.079820 0.723288
#
# Coordination Sequence:
#
# PCOD9570060 Si02
#       4
#    16  16   8   2
#     4   9  17  34  61  85 113 160 206 245 311 377
#     4  10  19  32  50  78 117 159 206 257 300 353
#     4  10  22  44  66  90 126 160 198 258 316 382
#     4  12  28  44  68 104 124 156 212 260 332 384
#
# _framework density 20.001612999999999
#
# number of rings (size 3 to 8) (size 9 to 14) (size 15 to 20)
#    0.000    2.286    1.905    1.143    0.000    3.810 
#    3.429    0.000    0.000    0.000    0.000    0.000 
#    0.000    0.000    0.000    0.000    0.000    0.000 
#
# Total GULP energy -234274.779650 kJ/mol
# GULP energy per Si atom -5577.970944 kJ/mol
# Density = 1.995609 g / cm^3
# Si number density = 20.001613 Si / 1000 Ang^3
#
#
#
# Elastic Constant Matrix: (Units=GPa)
#
#
# Indices 1 2 3 4 5 6 
#
# 1 104.2878 30.4607 60.5473 0.0000 0.0000 0.0000
# 2 30.4607 104.2878 60.5473 0.0000 0.0000 0.0000
# 3 60.5473 60.5473 136.3466 0.0000 0.0000 0.0000
# 4 0.0000 0.0000 0.0000 31.8748 0.0000 0.0000
# 5 0.0000 0.0000 0.0000 0.0000 31.8748 0.0000
# 6 0.0000 0.0000 0.0000 0.0000 0.0000 8.7202
#
#
#
# Elastic Compliance Matrix: (Units=1/GPa)
#
#
# Indices 1 2 3 4 5 6 
#
# 1 0.012947 -0.000598 -0.005484 0.000000 0.000000 0.000000
# 2 -0.000598 0.012947 -0.005484 0.000000 0.000000 0.000000
# 3 -0.005484 -0.005484 0.012205 0.000000 0.000000 0.000000
# 4 0.000000 0.000000 0.000000 0.031373 0.000000 0.000000
# 5 0.000000 0.000000 0.000000 0.000000 0.031373 0.000000
# 6 0.000000 0.000000 0.000000 0.000000 0.000000 0.114676
#
#
# Mechanical properties :
#
#
# Convention : Reuss Voigt Hill
#
# Bulk Modulus (GPa) = 66.81017 72.00366 69.40692
# Shear Modulus (GPa) = 20.52188 27.38510 23.95349
#
# Velocity S-wave (km/s) = 3.20662 3.70421 3.46436
# Velocity P-wave (km/s) = 6.86912 7.37374 7.12589
#
# Compressibility (1/GPa) = 0.01496778
#
# Stress axis : x y z
#
# Youngs Moduli (GPa) = 77.23560 77.23560 81.93442
#
# Poissons Ratio (x) = 0.04617 0.44934
# Poissons Ratio (y) = 0.04617 0.44934
# Poissons Ratio (z) = 0.42357 0.42357
#
# Static dielectric constant tensor:
#      x y z
#    x 1.717630 0.000000 0.000000 
#    y 0.000000 1.717630 0.000000 
#    z 0.000000 0.000000 1.694510 
# 
# From -- ./inp_files/9318.got.cif
#   From: 2010.05.17/outbox.cif.g08.bks.cpg/sg137_5_cif.got.tgz:9318.got - 2010.05.20 13:01:12.
