data_PCOD9570135
_publ_section_title
;
Structure prediction by ZEFSAII (Michael W. Deem and Ramdas Pophale) SiO2 
 PCOD9570135
Probable space group: P 42/N M C
;
_chemical_formula_sum "Si O2"
_cell_formula_units_Z 56
_cell_length_a 15.695007
_cell_length_b 15.695007
_cell_length_c 12.325060
_cell_angle_alpha 90.000000
_cell_angle_beta 90.000000
_cell_angle_gamma 90.000000
_cell_volume 3036.072021
_symmetry_space_group_name_H-M "P 42/N M C"
_symmetry_group_IT_number 137
_space_group.IT_coordinate_system_code '2'
_symmetry_cell_setting 'tetragonal'
loop_
_space_group_symop_operation_xyz
x,y,z
1/2-y,x,1/2+z
1/2-x,1/2-y,z
y,1/2-x,1/2+z
1/2+x,-y,-z
-x,1/2+y,-z
1/2+y,1/2+x,1/2-z
-y,-x,1/2-z
-x,-y,-z
1/2+y,-x,1/2-z
1/2+x,1/2+y,-z
-y,1/2+x,1/2-z
1/2-x,y,z
x,1/2-y,z
1/2-y,1/2-x,1/2+z
y,x,1/2+z
loop_
_atom_site_type_symbol
_atom_site_label
_atom_site_fract_x
_atom_site_fract_y
_atom_site_fract_z
Si Si1 0.484025 0.609965 0.416699
Si Si2 0.842299 0.342299 0.750000
Si Si3 0.347839 0.152178 0.205299
Si Si4 0.085358 0.999111 0.846411
O O1 0.417581 0.652623 0.336178
O O2 0.580368 0.636589 0.386082
O O3 0.466984 0.627213 0.542772
O O4 0.475422 0.509873 0.386005
O O5 0.848098 0.250000 0.805473
O O6 0.250000 0.143209 0.243982
O O7 0.358881 0.250000 0.168239
O O8 0.418559 0.131143 0.296100
O O9 0.068741 0.931260 0.750000
#
# Coordination Sequence:
#
# PCOD9570135 Si02
#       4
#    16   8  16  16
#     4  10  19  36  58  79 114 150 188 238 290 330
#     4  11  22  36  60  88 108 144 197 240 290 338
#     4  10  20  33  52  83 119 154 191 230 283 349
#     4   9  19  36  56  79 108 149 192 227 278 347
#
# _framework density 18.444884999999999
#
# number of rings (size 3 to 8) (size 9 to 14) (size 15 to 20)
#    0.000    2.143    4.286    0.857    0.000    3.429 
#    0.000   14.286    0.000    0.000    0.000    2.000 
#    0.000    2.286    0.000    0.000    0.000    0.000 
#
# Total GULP energy -311934.797689 kJ/mol
# GULP energy per Si atom -5570.264244 kJ/mol
# Density = 1.840290 g / cm^3
# Si number density = 18.444885 Si / 1000 Ang^3
#
#
#
# Elastic Constant Matrix: (Units=GPa)
#
#
# Indices 1 2 3 4 5 6 
#
# 1 89.7002 44.4453 35.0479 0.0000 0.0000 0.0000
# 2 44.4453 89.6993 35.0479 0.0000 0.0000 0.0000
# 3 35.0479 35.0479 140.3526 0.0000 0.0000 0.0000
# 4 0.0000 0.0000 0.0000 -2.0253 0.0000 0.0000
# 5 0.0000 0.0000 0.0000 0.0000 -2.0254 0.0000
# 6 0.0000 0.0000 0.0000 0.0000 0.0000 27.5927
#
#
#
# Elastic Compliance Matrix: (Units=1/GPa)
#
#
# Indices 1 2 3 4 5 6 
#
# 1 0.015335 -0.006762 -0.002141 0.000000 0.000000 0.000000
# 2 -0.006762 0.015335 -0.002141 0.000000 0.000000 0.000000
# 3 -0.002141 -0.002141 0.008194 0.000000 0.000000 0.000000
# 4 0.000000 0.000000 0.000000 -0.493756 0.000000 0.000000
# 5 0.000000 0.000000 0.000000 0.000000 -0.493719 0.000000
# 6 0.000000 0.000000 0.000000 0.000000 0.000000 0.036241
#
#
# Mechanical properties :
#
#
# Convention : Reuss Voigt Hill
#
# Bulk Modulus (GPa) = 59.60452 60.98159 60.29305
# Shear Modulus (GPa) = -5.65170 18.38912 6.36871
#
# Velocity S-wave (km/s) = -1.75236 3.16092 1.86020
# Velocity P-wave (km/s) = 5.31890 6.81580 6.11334
#
# Compressibility (1/GPa) = 0.01677725
#
# Stress axis : x y z
#
# Youngs Moduli (GPa) = 65.20948 65.20878 122.03872
#
# Poissons Ratio (x) = 0.44094 0.26127
# Poissons Ratio (y) = 0.44094 0.26127
# Poissons Ratio (z) = 0.13960 0.13960
#
# Static dielectric constant tensor:
#      x y z
#    x 1.653860 0.000000 0.000000 
#    y 0.000000 1.653860 0.000000 
#    z 0.000000 0.000000 1.652080 
# 
# From -- ./inp_files/3116.got.cif
#   From: 2010.05.17/outbox.cif.g08.bks.cpg/sg137_2_cif.got.tgz:3116.got - 2010.05.20 13:01:12.
