data_PCOD9570278
_publ_section_title
;
Structure prediction by ZEFSAII (Michael W. Deem and Ramdas Pophale) SiO2 
 PCOD9570278
Probable space group: P 42/N M C
;
_chemical_formula_sum "Si O2"
_cell_formula_units_Z 112
_cell_length_a 15.282279
_cell_length_b 15.282279
_cell_length_c 24.271774
_cell_angle_alpha 90.000000
_cell_angle_beta 90.000000
_cell_angle_gamma 90.000000
_cell_volume 5668.625523
_symmetry_space_group_name_H-M "P 42/N M C"
_symmetry_group_IT_number 137
_space_group.IT_coordinate_system_code '2'
_symmetry_cell_setting 'tetragonal'
loop_
_space_group_symop_operation_xyz
x,y,z
1/2-y,x,1/2+z
1/2-x,1/2-y,z
y,1/2-x,1/2+z
1/2+x,-y,-z
-x,1/2+y,-z
1/2+y,1/2+x,1/2-z
-y,-x,1/2-z
-x,-y,-z
1/2+y,-x,1/2-z
1/2+x,1/2+y,-z
-y,1/2+x,1/2-z
1/2-x,y,z
x,1/2-y,z
1/2-y,1/2-x,1/2+z
y,x,1/2+z
loop_
_atom_site_type_symbol
_atom_site_label
_atom_site_fract_x
_atom_site_fract_y
_atom_site_fract_z
Si Si1 0.892688 0.153693 0.309747
Si Si2 0.400331 0.987976 0.983437
Si Si3 0.354892 0.155659 0.910252
Si Si4 0.350166 0.971524 0.594022
Si Si5 0.957792 0.651594 0.401635
Si Si6 0.399635 0.148037 0.288708
Si Si7 0.017188 0.851685 0.280763
O O1 0.850262 0.149739 0.250000
O O2 0.876894 0.250000 0.334920
O O3 0.859423 0.074026 0.346509
O O4 0.996560 0.144012 0.299770
O O5 0.377628 0.072325 0.946747
O O6 0.404567 0.902675 0.945594
O O7 0.349451 0.989047 0.040913
O O8 0.500000 0.000000 0.000000
O O9 0.250000 0.158261 0.909606
O O10 0.387741 0.250000 0.931141
O O11 0.381044 0.143079 0.846644
O O12 0.250000 0.978401 0.577737
O O13 0.392298 0.068740 0.594565
O O14 0.918579 0.750000 0.395899
O O15 0.014999 0.635929 0.346795
O O16 0.376930 0.250000 0.277215
O O17 0.372239 0.080465 0.241778
O O18 0.083528 0.916473 0.250000
O O19 0.037371 0.750000 0.269293
#
# Coordination Sequence:
#
# PCOD9570278 Si02
#       7
#    16  16  16  16  16  16  16
#     4  11  22  36  58  90 131 175 212 251 304 376
#     4  10  22  39  60  87 124 162 202 256 308 375
#     4  10  20  36  62  93 122 158 206 258 314 372
#     4  11  23  40  62  92 129 171 211 255 313 380
#     4  10  23  43  66  90 121 165 215 269 328 376
#     4  10  20  37  63  95 127 159 201 260 320 372
#     4  11  24  41  65  93 125 168 212 259 315 372
#
# _framework density 19.757877000000001
#
# number of rings (size 3 to 8) (size 9 to 14) (size 15 to 20)
#    0.000    1.571    1.429    3.429    2.000    6.857 
#    0.000    2.143    0.000    0.857    0.000    0.000 
#    0.000    0.000    0.000    0.000    0.000    0.000 
#
# Total GULP energy -625077.796278 kJ/mol
# GULP energy per Si atom -5581.051752 kJ/mol
# Density = 1.971291 g / cm^3
# Si number density = 19.757877 Si / 1000 Ang^3
#
#
#
# Elastic Constant Matrix: (Units=GPa)
#
#
# Indices 1 2 3 4 5 6 
#
# 1 98.1155 47.8783 44.2318 0.0000 0.0000 0.0000
# 2 47.8783 98.1127 44.2313 0.0000 0.0000 0.0000
# 3 44.2318 44.2313 115.4699 0.0000 0.0000 0.0000
# 4 0.0000 0.0000 0.0000 -15.2586 0.0000 0.0000
# 5 0.0000 0.0000 0.0000 0.0000 -15.2595 0.0000
# 6 0.0000 0.0000 0.0000 0.0000 0.0000 -18.7730
#
#
#
# Elastic Compliance Matrix: (Units=1/GPa)
#
#
# Indices 1 2 3 4 5 6 
#
# 1 0.014413 -0.005493 -0.003417 0.000000 0.000000 0.000000
# 2 -0.005493 0.014413 -0.003417 0.000000 0.000000 0.000000
# 3 -0.003417 -0.003417 0.011278 0.000000 0.000000 0.000000
# 4 0.000000 0.000000 0.000000 -0.065537 0.000000 0.000000
# 5 0.000000 0.000000 0.000000 0.000000 -0.065533 0.000000
# 6 0.000000 0.000000 0.000000 0.000000 0.000000 -0.053268
#
#
# Mechanical properties :
#
#
# Convention : Reuss Voigt Hill
#
# Bulk Modulus (GPa) = 64.72240 64.93121 64.82681
# Shear Modulus (GPa) = -43.69500 1.83222 -20.93139
#
# Velocity S-wave (km/s) = -4.70778 0.96403 -3.25837
# Velocity P-wave (km/s) = 1.81050 5.84585 4.32735
#
# Compressibility (1/GPa) = 0.01545060
#
# Stress axis : x y z
#
# Youngs Moduli (GPa) = 69.38224 69.38020 88.66807
#
# Poissons Ratio (x) = 0.38110 0.30297
# Poissons Ratio (y) = 0.38112 0.30297
# Poissons Ratio (z) = 0.23707 0.23707
#
# Static dielectric constant tensor:
#      x y z
#    x 1.705300 0.000000 0.000000 
#    y 0.000000 1.705300 0.000000 
#    z 0.000000 0.000000 2.426960 
# 
# From -- ./inp_files/8950.got.cif
#   From: 2010.05.17/outbox.cif.g08.bks.cpg/sg137_5_cif.got.tgz:8950.got - 2010.05.20 13:01:12.
