data_PCOD9570036
_publ_section_title
;
Structure prediction by ZEFSAII (Michael W. Deem and Ramdas Pophale) SiO2 
 PCOD9570036
Probable space group: P 42/N M C
;
_chemical_formula_sum "Si O2"
_cell_formula_units_Z 112
_cell_length_a 15.326591
_cell_length_b 15.326591
_cell_length_c 24.951644
_cell_angle_alpha 90.000000
_cell_angle_beta 90.000000
_cell_angle_gamma 90.000000
_cell_volume 5861.250755
_symmetry_space_group_name_H-M "P 42/N M C"
_symmetry_group_IT_number 137
_space_group.IT_coordinate_system_code '2'
_symmetry_cell_setting 'tetragonal'
loop_
_space_group_symop_operation_xyz
x,y,z
1/2-y,x,1/2+z
1/2-x,1/2-y,z
y,1/2-x,1/2+z
1/2+x,-y,-z
-x,1/2+y,-z
1/2+y,1/2+x,1/2-z
-y,-x,1/2-z
-x,-y,-z
1/2+y,-x,1/2-z
1/2+x,1/2+y,-z
-y,1/2+x,1/2-z
1/2-x,y,z
x,1/2-y,z
1/2-y,1/2-x,1/2+z
y,x,1/2+z
loop_
_atom_site_type_symbol
_atom_site_label
_atom_site_fract_x
_atom_site_fract_y
_atom_site_fract_z
Si Si1 0.152803 0.151865 0.054963
Si Si2 0.147147 0.653833 0.990538
Si Si3 0.002988 0.463149 0.809950
Si Si4 0.087170 0.474862 0.967826
Si Si5 0.349150 0.350279 0.265464
Si Si6 0.852243 0.028136 0.596622
Si Si7 0.037454 0.348929 0.159152
O O1 0.250000 0.148941 0.078681
O O2 0.139868 0.250000 0.032160
O O3 0.081936 0.140222 0.101305
O O4 0.144764 0.078982 0.009884
O O5 0.250000 0.653864 0.000626
O O6 0.122082 0.750000 0.968379
O O7 0.096231 0.644567 0.047111
O O8 0.126083 0.569507 0.954340
O O9 0.092223 0.410549 0.802613
O O10 0.944379 0.408838 0.851823
O O11 0.964380 0.464380 0.750000
O O12 0.016472 0.563272 0.828613
O O13 0.056589 0.406425 0.923333
O O14 0.000000 0.500000 0.000000
O O15 0.250000 0.382904 0.265827
O O16 0.349746 0.250000 0.282761
O O17 0.388162 0.352142 0.205284
O O18 0.750000 0.012172 0.608082
O O19 0.999194 0.250000 0.162098
#
# Coordination Sequence:
#
# PCOD9570036 Si02
#       7
#    16  16  16  16  16  16  16
#     4  10  19  31  50  77 105 130 163 214 271 323
#     4   9  18  33  53  76 105 143 181 215 255 309
#     4  10  20  34  52  76 102 133 178 224 267 317
#     4  10  19  31  48  71 100 136 174 208 247 303
#     4   9  17  31  51  73  99 134 175 220 271 324
#     4  10  20  35  53  75 107 143 177 215 264 319
#     4   9  17  30  50  76 105 134 167 214 273 329
#
# _framework density 19.108549
#
# number of rings (size 3 to 8) (size 9 to 14) (size 15 to 20)
#    0.000    2.429    0.000    3.429    0.000    2.286 
#    0.000    5.714    0.000    3.857    0.000    3.000 
#    0.000    3.429    0.000    0.000    0.000    0.000 
#
# Total GULP energy -623846.750099 kJ/mol
# GULP energy per Si atom -5570.060269 kJ/mol
# Density = 1.906506 g / cm^3
# Si number density = 19.108549 Si / 1000 Ang^3
#
#
#
# Elastic Constant Matrix: (Units=GPa)
#
#
# Indices 1 2 3 4 5 6 
#
# 1 98.9022 43.9643 17.1460 0.0000 0.0000 0.0000
# 2 43.9643 98.9022 17.1460 0.0000 0.0000 0.0000
# 3 17.1460 17.1460 45.1298 0.0000 0.0000 0.0000
# 4 0.0000 0.0000 0.0000 14.9524 0.0000 0.0000
# 5 0.0000 0.0000 0.0000 0.0000 14.9524 0.0000
# 6 0.0000 0.0000 0.0000 0.0000 0.0000 30.8643
#
#
#
# Elastic Compliance Matrix: (Units=1/GPa)
#
#
# Indices 1 2 3 4 5 6 
#
# 1 0.012952 -0.005250 -0.002926 0.000000 0.000000 0.000000
# 2 -0.005250 0.012952 -0.002926 0.000000 0.000000 0.000000
# 3 -0.002926 -0.002926 0.024382 0.000000 0.000000 0.000000
# 4 0.000000 0.000000 0.000000 0.066879 0.000000 0.000000
# 5 0.000000 0.000000 0.000000 0.000000 0.066879 0.000000
# 6 0.000000 0.000000 0.000000 0.000000 0.000000 0.032400
#
#
# Mechanical properties :
#
#
# Convention : Reuss Voigt Hill
#
# Bulk Modulus (GPa) = 35.61133 44.38297 39.99715
# Shear Modulus (GPa) = 20.16052 23.13233 21.64642
#
# Velocity S-wave (km/s) = 3.25168 3.48311 3.36938
# Velocity P-wave (km/s) = 5.72492 6.28118 6.00949
#
# Compressibility (1/GPa) = 0.02808095
#
# Stress axis : x y z
#
# Youngs Moduli (GPa) = 77.20731 77.20731 41.01430
#
# Poissons Ratio (x) = 0.40536 0.12001
# Poissons Ratio (y) = 0.40536 0.12001
# Poissons Ratio (z) = 0.22592 0.22592
#
# Static dielectric constant tensor:
#      x y z
#    x 1.694940 0.000000 0.000000 
#    y 0.000000 1.694940 0.000000 
#    z 0.000000 0.000000 1.696700 
# 
# From -- ./inp_files/9793.got.cif
#   From: 2010.05.17/outbox.cif.g08.bks.cpg/sg137_5_cif.got.tgz:9793.got - 2010.05.20 13:01:12.
