data_PCOD9570687
_publ_section_title
;
Structure prediction by ZEFSAII (Michael W. Deem and Ramdas Pophale) SiO2 
 PCOD9570687
Probable space group: P 42/N C M
;
_chemical_formula_sum "Si O2"
_cell_formula_units_Z 80
_cell_length_a 12.277940
_cell_length_b 12.277940
_cell_length_c 27.346313
_cell_angle_alpha 90.000000
_cell_angle_beta 90.000000
_cell_angle_gamma 90.000000
_cell_volume 4122.396814
_symmetry_space_group_name_H-M "P 42/N C M"
_symmetry_group_IT_number 138
_space_group.IT_coordinate_system_code '2'
_symmetry_cell_setting 'tetragonal'
loop_
_space_group_symop_operation_xyz
x,y,z
1/2-y,x,1/2+z
1/2-x,1/2-y,z
y,1/2-x,1/2+z
1/2+x,-y,1/2-z
-x,1/2+y,1/2-z
1/2+y,1/2+x,-z
-y,-x,-z
-x,-y,-z
1/2+y,-x,1/2-z
1/2+x,1/2+y,-z
-y,1/2+x,1/2-z
1/2-x,y,1/2+z
x,1/2-y,1/2+z
1/2-y,1/2-x,z
y,x,z
loop_
_atom_site_type_symbol
_atom_site_label
_atom_site_fract_x
_atom_site_fract_y
_atom_site_fract_z
Si Si1 0.964607 0.139520 0.548179
Si Si2 0.986027 0.686326 0.305953
Si Si3 0.277247 0.621558 0.377796
Si Si4 0.083399 0.910246 0.712012
Si Si5 0.621682 0.052567 0.416341
O O1 0.907409 0.092592 0.500000
O O2 0.888468 0.102052 0.593064
O O3 0.957889 0.270571 0.550450
O O4 0.083219 0.083219 0.552312
O O5 0.865755 0.634246 0.297684
O O6 0.012749 0.812030 0.296038
O O7 0.064792 0.623420 0.268077
O O8 0.016270 0.660518 0.361830
O O9 0.250000 0.750000 0.378471
O O10 0.303930 0.591857 0.322182
O O11 0.173833 0.575495 0.406941
O O12 0.977724 0.977724 0.696919
O O13 0.528793 0.971208 0.433382
#
# Coordination Sequence:
#
# PCOD9570687 Si02
#       5
#    16  16  16  16  16
#     4  10  21  38  60  86 115 149 194 247 298 354
#     4  10  21  33  52  84 117 156 201 246 293 347
#     4  10  19  34  56  84 112 150 198 241 288 350
#     4  11  21  34  55  82 117 160 203 244 295 349
#     4  10  21  37  57  86 119 152 191 244 300 349
#
# _framework density 19.406186999999999
#
# number of rings (size 3 to 8) (size 9 to 14) (size 15 to 20)
#    0.000    1.800    4.000    1.800    0.000    4.400 
#    0.000    4.000    0.000    4.800    0.000    0.000 
#    0.000    0.000    0.000    0.000    0.000    0.000 
#
# Total GULP energy -445928.979813 kJ/mol
# GULP energy per Si atom -5574.112248 kJ/mol
# Density = 1.936202 g / cm^3
# Si number density = 19.406187 Si / 1000 Ang^3
#
#
#
# Elastic Constant Matrix: (Units=GPa)
#
#
# Indices 1 2 3 4 5 6 
#
# 1 62.0612 48.0691 3.9458 0.0000 0.0000 0.0000
# 2 48.0691 62.0622 3.9472 0.0000 0.0000 0.0000
# 3 3.9458 3.9472 42.6281 0.0000 0.0000 0.0000
# 4 0.0000 0.0000 0.0000 22.6005 0.0000 0.0000
# 5 0.0000 0.0000 0.0000 0.0000 22.6009 0.0000
# 6 0.0000 0.0000 0.0000 0.0000 0.0000 24.8234
#
#
#
# Elastic Compliance Matrix: (Units=1/GPa)
#
#
# Indices 1 2 3 4 5 6 
#
# 1 0.040304 -0.031163 -0.000845 0.000000 0.000000 0.000000
# 2 -0.031163 0.040303 -0.000847 0.000000 0.000000 0.000000
# 3 -0.000845 -0.000847 0.023615 0.000000 0.000000 0.000000
# 4 0.000000 0.000000 0.000000 0.044247 0.000000 0.000000
# 5 0.000000 0.000000 0.000000 0.000000 0.044246 0.000000
# 6 0.000000 0.000000 0.000000 0.000000 0.000000 0.040285
#
#
# Mechanical properties :
#
#
# Convention : Reuss Voigt Hill
#
# Bulk Modulus (GPa) = 25.96598 30.96395 28.46496
# Shear Modulus (GPa) = 16.04889 21.39092 18.71990
#
# Velocity S-wave (km/s) = 2.87888 3.32365 3.10923
# Velocity P-wave (km/s) = 4.94569 5.54249 5.25258
#
# Compressibility (1/GPa) = 0.03851194
#
# Stress axis : x y z
#
# Youngs Moduli (GPa) = 24.81151 24.81181 42.34525
#
# Poissons Ratio (x) = 0.77321 0.03578
# Poissons Ratio (y) = 0.77320 0.03589
# Poissons Ratio (z) = 0.02097 0.02103
#
# Static dielectric constant tensor:
#      x y z
#    x 1.705190 0.000000 0.000000 
#    y 0.000000 1.705190 0.000000 
#    z 0.000000 0.000000 1.717700 
# 
# From -- ./inp_files/7864.got.cif
#   From: 2010.05.17/outbox.cif.g08.bks.cpg/sg138_4_cif.got.tgz:7864.got - 2010.05.20 13:08:53.
