data_PCOD9570708
_publ_section_title
;
Structure prediction by ZEFSAII (Michael W. Deem and Ramdas Pophale) SiO2 
 PCOD9570708
Probable space group: P 42/N C M
;
_chemical_formula_sum "Si O2"
_cell_formula_units_Z 84
_cell_length_a 10.722791
_cell_length_b 10.722791
_cell_length_c 34.152422
_cell_angle_alpha 90.000000
_cell_angle_beta 90.000000
_cell_angle_gamma 90.000000
_cell_volume 3926.785607
_symmetry_space_group_name_H-M "P 42/N C M"
_symmetry_group_IT_number 138
_space_group.IT_coordinate_system_code '2'
_symmetry_cell_setting 'tetragonal'
loop_
_space_group_symop_operation_xyz
x,y,z
1/2-y,x,1/2+z
1/2-x,1/2-y,z
y,1/2-x,1/2+z
1/2+x,-y,1/2-z
-x,1/2+y,1/2-z
1/2+y,1/2+x,-z
-y,-x,-z
-x,-y,-z
1/2+y,-x,1/2-z
1/2+x,1/2+y,-z
-y,1/2+x,1/2-z
1/2-x,y,1/2+z
x,1/2-y,1/2+z
1/2-y,1/2-x,z
y,x,z
loop_
_atom_site_type_symbol
_atom_site_label
_atom_site_fract_x
_atom_site_fract_y
_atom_site_fract_z
Si Si1 0.042920 0.671788 0.034921
Si Si2 0.608487 0.891514 0.292877
Si Si3 0.793695 0.500792 0.854059
Si Si4 0.082107 0.082107 0.829898
Si Si5 0.026588 0.688371 0.125111
Si Si6 0.358564 0.141437 0.587294
Si Si7 0.142234 0.142234 0.997769
Si Si8 0.250000 0.250000 0.273925
O O1 0.076999 0.682485 0.080447
O O2 0.939827 0.560174 0.033837
O O3 0.974389 0.798659 0.023532
O O4 0.137991 0.637991 0.000000
O O5 0.554272 0.772413 0.315969
O O6 0.660405 0.839596 0.252139
O O7 0.504115 0.995886 0.302129
O O8 0.908061 0.591940 0.864322
O O9 0.860434 0.369816 0.849935
O O10 0.696367 0.524364 0.889116
O O11 0.165059 0.165059 0.801159
O O12 0.007403 0.177402 0.857900
O O13 0.901842 0.598158 0.126877
O O14 0.250000 0.250000 0.588304
O O15 0.385733 0.114268 0.542704
O O16 0.250000 0.250000 0.997584
#
# Coordination Sequence:
#
# PCOD9570708 Si02
#       8
#    16   8  16   8  16   8   8   4
#     4   9  16  25  43  78 122 171 217 265 311 361
#     4  11  24  44  70  96 121 158 209 268 326 404
#     4   9  17  34  62  89 117 158 202 266 326 371
#     4  12  26  42  67  97 129 177 211 256 347 411
#     4  10  19  35  58  89 133 173 219 262 317 397
#     4   8  13  23  43  79 115 156 212 265 320 365
#     4   9  14  20  34  63 113 159 204 259 311 361
#     4  12  26  50  68  98 134 160 206 272 338 408
#
# _framework density 21.391542000000001
#
# number of rings (size 3 to 8) (size 9 to 14) (size 15 to 20)
#    0.000    2.286    1.905    2.286    0.000    8.381 
#    0.000    0.000    0.000    0.000    0.000   30.667 
#    0.000    0.000    0.000    0.190    0.000    0.190 
#
# Total GULP energy -468714.191079 kJ/mol
# GULP energy per Si atom -5579.930846 kJ/mol
# Density = 2.134285 g / cm^3
# Si number density = 21.391542 Si / 1000 Ang^3
#
#
#
# Elastic Constant Matrix: (Units=GPa)
#
#
# Indices 1 2 3 4 5 6 
#
# 1 64.8064 69.6893 25.7792 0.0000 0.0000 0.0000
# 2 69.6893 64.8064 25.7792 0.0000 0.0000 0.0000
# 3 25.7792 25.7792 82.3340 0.0000 0.0000 0.0000
# 4 0.0000 0.0000 0.0000 -10.1211 0.0000 0.0000
# 5 0.0000 0.0000 0.0000 0.0000 -10.1211 0.0000
# 6 0.0000 0.0000 0.0000 0.0000 0.0000 50.4897
#
#
#
# Elastic Compliance Matrix: (Units=1/GPa)
#
#
# Indices 1 2 3 4 5 6 
#
# 1 -0.098173 0.106623 -0.002646 0.000000 0.000000 0.000000
# 2 0.106623 -0.098173 -0.002646 0.000000 0.000000 0.000000
# 3 -0.002646 -0.002646 0.013802 0.000000 0.000000 0.000000
# 4 0.000000 0.000000 0.000000 -0.098804 0.000000 0.000000
# 5 0.000000 0.000000 0.000000 0.000000 -0.098804 0.000000
# 6 0.000000 0.000000 0.000000 0.000000 0.000000 0.019806
#
#
# Mechanical properties :
#
#
# Convention : Reuss Voigt Hill
#
# Bulk Modulus (GPa) = 49.70462 50.49358 50.09910
# Shear Modulus (GPa) = -8.98792 12.09611 1.55410
#
# Velocity S-wave (km/s) = -2.05201 2.38052 0.85327
# Velocity P-wave (km/s) = 4.20378 5.58673 4.94385
#
# Compressibility (1/GPa) = 0.02011885
#
# Stress axis : x y z
#
# Youngs Moduli (GPa) = -10.18608 -10.18608 72.45157
#
# Poissons Ratio (x) = 1.08607 0.19167
# Poissons Ratio (y) = 1.08607 0.19167
# Poissons Ratio (z) = -0.02695 -0.02695
#
# Static dielectric constant tensor:
#      x y z
#    x 1.812060 0.000000 0.000000 
#    y 0.000000 1.812060 0.000000 
#    z 0.000000 0.000000 1.741080 
# 
# From -- ./inp_files/8151.got.cif
#   From: 2010.05.17/outbox.cif.g08.bks.cpg/sg138_5_cif.got.tgz:8151.got - 2010.05.20 13:08:53.
