data_PCOD9570343
_publ_section_title
;
Structure prediction by ZEFSAII (Michael W. Deem and Ramdas Pophale) SiO2 
 PCOD9570343
Probable space group: P 42/N M C
;
_chemical_formula_sum "Si O2"
_cell_formula_units_Z 96
_cell_length_a 23.901347
_cell_length_b 23.901347
_cell_length_c 9.324651
_cell_angle_alpha 90.000000
_cell_angle_beta 90.000000
_cell_angle_gamma 90.000000
_cell_volume 5326.934297
_symmetry_space_group_name_H-M "P 42/N M C"
_symmetry_group_IT_number 137
_space_group.IT_coordinate_system_code '2'
_symmetry_cell_setting 'tetragonal'
loop_
_space_group_symop_operation_xyz
x,y,z
1/2-y,x,1/2+z
1/2-x,1/2-y,z
y,1/2-x,1/2+z
1/2+x,-y,-z
-x,1/2+y,-z
1/2+y,1/2+x,1/2-z
-y,-x,1/2-z
-x,-y,-z
1/2+y,-x,1/2-z
1/2+x,1/2+y,-z
-y,1/2+x,1/2-z
1/2-x,y,z
x,1/2-y,z
1/2-y,1/2-x,1/2+z
y,x,1/2+z
loop_
_atom_site_type_symbol
_atom_site_label
_atom_site_fract_x
_atom_site_fract_y
_atom_site_fract_z
Si Si1 0.881267 0.185594 0.364703
Si Si2 0.184008 0.637500 0.394520
Si Si3 0.817178 0.606016 0.123897
Si Si4 0.402019 0.317288 0.038884
Si Si5 0.991798 0.182351 0.539926
Si Si6 0.512795 0.317842 0.871066
O O1 0.858042 0.141959 0.250000
O O2 0.886919 0.250000 0.311166
O O3 0.834688 0.181869 0.488251
O O4 0.938516 0.167277 0.442540
O O5 0.152423 0.652423 0.250000
O O6 0.250000 0.639366 0.369334
O O7 0.168587 0.573672 0.435302
O O8 0.750000 0.613948 0.111652
O O9 0.851442 0.655131 0.048251
O O10 0.831113 0.601086 0.292411
O O11 0.832328 0.548995 0.040255
O O12 0.399281 0.250000 0.027598
O O13 0.460290 0.336458 0.965965
O O14 0.989508 0.250000 0.547755
O O15 0.989821 0.162472 0.705025
O O16 0.509805 0.250000 0.867259
#
# Coordination Sequence:
#
# PCOD9570343 Si02
#       6
#    16  16  16  16  16  16
#     4  11  23  36  52  78 112 150 186 229 283 333
#     4  11  21  34  54  80 110 146 186 230 280 331
#     4  10  21  36  58  86 115 147 180 220 267 319
#     4  10  21  36  58  87 115 146 181 219 267 320
#     4   9  18  35  55  76 106 146 189 226 267 323
#     4   9  18  34  55  78 106 144 188 228 267 321
#
# _framework density 18.021622000000001
#
# number of rings (size 3 to 8) (size 9 to 14) (size 15 to 20)
#    0.000    2.000    1.667    2.000    2.333    4.333 
#    0.000    1.667    0.000    2.000    0.000    0.000 
#    0.000    0.000    0.000    0.000    0.000    0.000 
#
# Total GULP energy -535303.668907 kJ/mol
# GULP energy per Si atom -5576.079884 kJ/mol
# Density = 1.798060 g / cm^3
# Si number density = 18.021622 Si / 1000 Ang^3
#
#
#
# Elastic Constant Matrix: (Units=GPa)
#
#
# Indices 1 2 3 4 5 6 
#
# 1 44.5479 23.1010 15.0788 0.0000 0.0000 0.0000
# 2 23.1010 44.5439 15.0733 0.0000 0.0000 0.0000
# 3 15.0788 15.0733 54.1964 0.0000 0.0000 0.0000
# 4 0.0000 0.0000 0.0000 -0.1318 0.0000 0.0000
# 5 0.0000 0.0000 0.0000 0.0000 -0.0808 0.0000
# 6 0.0000 0.0000 0.0000 0.0000 0.0000 -0.8296
#
#
#
# Elastic Compliance Matrix: (Units=1/GPa)
#
#
# Indices 1 2 3 4 5 6 
#
# 1 0.031753 -0.014878 -0.004696 0.000000 0.000000 0.000000
# 2 -0.014878 0.031753 -0.004692 0.000000 0.000000 0.000000
# 3 -0.004696 -0.004692 0.021063 0.000000 0.000000 0.000000
# 4 0.000000 0.000000 0.000000 -7.584605 0.000000 0.000000
# 5 0.000000 0.000000 0.000000 0.000000-12.377985 0.000000
# 6 0.000000 0.000000 0.000000 0.000000 0.000000 -1.205401
#
#
# Mechanical properties :
#
#
# Convention : Reuss Voigt Hill
#
# Bulk Modulus (GPa) = 27.74987 27.75495 27.75241
# Shear Modulus (GPa) = -0.23784 5.79389 2.77803
#
# Velocity S-wave (km/s) = -0.36367 1.79498 1.24292
# Velocity P-wave (km/s) = 3.90579 4.44188 4.18243
#
# Compressibility (1/GPa) = 0.03603620
#
# Stress axis : x y z
#
# Youngs Moduli (GPa) = 31.49341 31.49272 47.47652
#
# Poissons Ratio (x) = 0.46855 0.22297
# Poissons Ratio (y) = 0.46856 0.22276
# Poissons Ratio (z) = 0.14791 0.14776
#
# Static dielectric constant tensor:
#      x y z
#    x 1.622150 0.000000 0.000000 
#    y 0.000000 1.622150 0.000000 
#    z 0.000000 0.000000 -0.337530 
# 
# From -- ./inp_files/2122.got.cif
#   From: 2010.05.17/outbox.cif.g08.bks.cpg/sg137_2_cif.got.tgz:2122.got - 2010.05.20 13:01:12.
