data_PCOD9570509
_publ_section_title
;
Structure prediction by ZEFSAII (Michael W. Deem and Ramdas Pophale) SiO2 
 PCOD9570509
Probable space group: P 42/N M C
;
_chemical_formula_sum "Si O2"
_cell_formula_units_Z 56
_cell_length_a 18.489369
_cell_length_b 18.489369
_cell_length_c 6.911125
_cell_angle_alpha 90.000000
_cell_angle_beta 90.000000
_cell_angle_gamma 90.000000
_cell_volume 2362.614842
_symmetry_space_group_name_H-M "P 42/N M C"
_symmetry_group_IT_number 137
_space_group.IT_coordinate_system_code '2'
_symmetry_cell_setting 'tetragonal'
loop_
_space_group_symop_operation_xyz
x,y,z
1/2-y,x,1/2+z
1/2-x,1/2-y,z
y,1/2-x,1/2+z
1/2+x,-y,-z
-x,1/2+y,-z
1/2+y,1/2+x,1/2-z
-y,-x,1/2-z
-x,-y,-z
1/2+y,-x,1/2-z
1/2+x,1/2+y,-z
-y,1/2+x,1/2-z
1/2-x,y,z
x,1/2-y,z
1/2-y,1/2-x,1/2+z
y,x,1/2+z
loop_
_atom_site_type_symbol
_atom_site_label
_atom_site_fract_x
_atom_site_fract_y
_atom_site_fract_z
Si Si1 0.429932 0.665540 0.376200
Si Si2 0.579584 0.079584 0.250000
Si Si3 0.913258 0.581495 0.837226
Si Si4 0.335726 0.163908 0.411891
O O1 0.364327 0.635673 0.250000
O O2 0.442516 0.750000 0.351756
O O3 0.415142 0.643122 0.595937
O O4 0.502277 0.622227 0.320810
O O5 0.500458 0.083856 0.152867
O O6 0.905761 0.603081 0.587370
O O7 0.852901 0.651616 0.838163
O O8 0.250000 0.145316 0.405342
O O9 0.348777 0.250000 0.418266
#
# Coordination Sequence:
#
# PCOD9570509 Si02
#       4
#    16   8  16  16
#     4  12  27  48  75 106 141 189 245 308 371 429
#     4  12  26  46  76 109 145 184 246 304 358 438
#     4  12  22  42  67  97 140 185 231 289 349 431
#     4  11  23  37  61 100 143 184 225 276 346 429
#
# _framework density 23.702551
#
# number of rings (size 3 to 8) (size 9 to 14) (size 15 to 20)
#    0.000    0.286    4.286    6.000    0.000    4.857 
#    0.000    0.000    0.000    0.000    0.000    0.000 
#    0.000    0.000    0.000    0.000    0.000    0.000 
#
# Total GULP energy -313266.023019 kJ/mol
# GULP energy per Si atom -5594.036125 kJ/mol
# Density = 2.364860 g / cm^3
# Si number density = 23.702551 Si / 1000 Ang^3
#
#
#
# Elastic Constant Matrix: (Units=GPa)
#
#
# Indices 1 2 3 4 5 6 
#
# 1 -1188.4280 1238.6719 22.1111 0.0000 0.0000 0.0000
# 2 1238.6719-1189.6480 21.5342 0.0000 0.0000 0.0000
# 3 22.1111 21.5342 168.5249 0.0000 0.0000 0.0000
# 4 0.0000 0.0000 0.0000 59.4224 0.0000 0.0000
# 5 0.0000 0.0000 0.0000 0.0000 59.4231 0.0000
# 6 0.0000 0.0000 0.0000 0.0000 0.0000 32.0339
#
#
#
# Elastic Compliance Matrix: (Units=1/GPa)
#
#
# Indices 1 2 3 4 5 6 
#
# 1 0.011167 0.011574 -0.002944 0.000000 0.000000 0.000000
# 2 0.011574 0.011157 -0.002944 0.000000 0.000000 0.000000
# 3 -0.002944 -0.002944 0.006696 0.000000 0.000000 0.000000
# 4 0.000000 0.000000 0.000000 0.016829 0.000000 0.000000
# 5 0.000000 0.000000 0.000000 0.000000 0.016828 0.000000
# 6 0.000000 0.000000 0.000000 0.000000 0.000000 0.031217
#
#
# Mechanical properties :
#
#
# Convention : Reuss Voigt Hill
#
# Bulk Modulus (GPa) = 24.75716 39.45373 32.10544
# Shear Modulus (GPa) = 52.09013 -202.61533 -75.26260
#
# Velocity S-wave (km/s) = 4.69301 -9.25570 -5.64109
# Velocity P-wave (km/s) = 6.31137 9.87637 5.37165
#
# Compressibility (1/GPa) = 0.04039236
#
# Stress axis : x y z
#
# Youngs Moduli (GPa) = 89.54747 89.62794 149.33523
#
# Poissons Ratio (x) = -1.03737 0.43966
# Poissons Ratio (y) = -1.03644 0.43968
# Poissons Ratio (z) = 0.26364 0.26389
#
# Static dielectric constant tensor:
#      x y z
#    x 1.764430 0.000000 0.000000 
#    y 0.000000 1.764430 0.000000 
#    z 0.000000 0.000000 2.329050 
# 
# From -- ./inp_files/1537.got.cif
#   From: 2010.05.17/outbox.cif.g08.bks.cpg/sg137_1_cif.got.tgz:1537.got - 2010.05.20 13:01:12.
