data_PCOD9570951
_publ_section_title
;
Structure prediction by ZEFSAII (Michael W. Deem and Ramdas Pophale) SiO2 
 PCOD9570951
Probable space group: P 42/N C M
;
_chemical_formula_sum "Si O2"
_cell_formula_units_Z 88
_cell_length_a 11.887000
_cell_length_b 11.887000
_cell_length_c 32.025175
_cell_angle_alpha 90.000000
_cell_angle_beta 90.000000
_cell_angle_gamma 90.000000
_cell_volume 4525.181855
_symmetry_space_group_name_H-M "P 42/N C M"
_symmetry_group_IT_number 138
_space_group.IT_coordinate_system_code '2'
_symmetry_cell_setting 'tetragonal'
loop_
_space_group_symop_operation_xyz
x,y,z
1/2-y,x,1/2+z
1/2-x,1/2-y,z
y,1/2-x,1/2+z
1/2+x,-y,1/2-z
-x,1/2+y,1/2-z
1/2+y,1/2+x,-z
-y,-x,-z
-x,-y,-z
1/2+y,-x,1/2-z
1/2+x,1/2+y,-z
-y,1/2+x,1/2-z
1/2-x,y,1/2+z
x,1/2-y,1/2+z
1/2-y,1/2-x,z
y,x,z
loop_
_atom_site_type_symbol
_atom_site_label
_atom_site_fract_x
_atom_site_fract_y
_atom_site_fract_z
Si Si1 0.524299 0.160626 0.561070
Si Si2 0.964956 0.964956 0.546396
Si Si3 0.156048 0.156048 0.707609
Si Si4 0.625622 0.286385 0.636956
Si Si5 0.479386 0.292335 0.966859
Si Si6 0.966825 0.966825 0.367937
Si Si7 0.738325 0.418256 0.269665
O O1 0.548368 0.238721 0.600130
O O2 0.503394 0.219239 0.516491
O O3 0.416980 0.083020 0.569531
O O4 0.628686 0.075972 0.552575
O O5 0.982444 0.831328 0.551702
O O6 0.000000 0.000000 0.500000
O O7 0.032047 0.032047 0.581820
O O8 0.250000 0.250000 0.701725
O O9 0.110644 0.110644 0.662413
O O10 0.048571 0.206166 0.732094
O O11 0.750000 0.250000 0.624930
O O12 0.590741 0.417399 0.642391
O O13 0.603560 0.231682 0.681953
O O14 0.362997 0.362997 0.962354
O O15 0.840193 0.368847 0.242305
#
# Coordination Sequence:
#
# PCOD9570951 Si02
#       7
#    16   8   8  16  16   8  16
#     4   9  19  35  55  83 113 156 206 257 311 378
#     4  12  21  33  52  82 115 160 210 260 317 368
#     4  10  24  42  69  98 130 173 205 264 329 389
#     4  11  20  37  60  85 119 161 199 251 323 370
#     4   9  19  36  55  77 116 158 207 260 313 373
#     4  10  24  37  54  91 125 158 206 258 302 380
#     4  10  21  42  64  96 126 165 209 263 318 387
#
# _framework density 19.446732000000001
#
# number of rings (size 3 to 8) (size 9 to 14) (size 15 to 20)
#    0.000    2.000    1.818    3.545    1.273    2.909 
#    0.000    3.636    0.000    0.000    7.091    0.000 
#    0.000    0.000    0.000    0.000    0.000    0.000 
#
# Total GULP energy -490442.142728 kJ/mol
# GULP energy per Si atom -5573.206167 kJ/mol
# Density = 1.940247 g / cm^3
# Si number density = 19.446732 Si / 1000 Ang^3
#
#
#
# Elastic Constant Matrix: (Units=GPa)
#
#
# Indices 1 2 3 4 5 6 
#
# 1 98.6216 47.7940 27.9748 0.0000 0.0000 0.0000
# 2 47.7940 98.6216 27.9748 0.0000 0.0000 0.0000
# 3 27.9748 27.9748 88.7675 0.0000 0.0000 0.0000
# 4 0.0000 0.0000 0.0000 24.3637 0.0000 0.0000
# 5 0.0000 0.0000 0.0000 0.0000 24.3637 0.0000
# 6 0.0000 0.0000 0.0000 0.0000 0.0000 18.1294
#
#
#
# Elastic Compliance Matrix: (Units=1/GPa)
#
#
# Indices 1 2 3 4 5 6 
#
# 1 0.013720 -0.005955 -0.002447 0.000000 0.000000 0.000000
# 2 -0.005955 0.013720 -0.002447 0.000000 0.000000 0.000000
# 3 -0.002447 -0.002447 0.012808 0.000000 0.000000 0.000000
# 4 0.000000 0.000000 0.000000 0.041045 0.000000 0.000000
# 5 0.000000 0.000000 0.000000 0.000000 0.041045 0.000000
# 6 0.000000 0.000000 0.000000 0.000000 0.000000 0.055159
#
#
# Mechanical properties :
#
#
# Convention : Reuss Voigt Hill
#
# Bulk Modulus (GPa) = 53.91035 54.83308 54.37171
# Shear Modulus (GPa) = 24.34552 25.52248 24.93400
#
# Velocity S-wave (km/s) = 3.54207 3.62668 3.58462
# Velocity P-wave (km/s) = 6.67163 6.76719 6.71958
#
# Compressibility (1/GPa) = 0.01854932
#
# Stress axis : x y z
#
# Youngs Moduli (GPa) = 72.88807 72.88807 78.07753
#
# Poissons Ratio (x) = 0.43402 0.19106
# Poissons Ratio (y) = 0.43402 0.19106
# Poissons Ratio (z) = 0.17837 0.17837
#
# Static dielectric constant tensor:
#      x y z
#    x 1.721950 0.000000 0.000000 
#    y 0.000000 1.721950 0.000000 
#    z 0.000000 0.000000 1.678970 
# 
# From -- ./inp_files/8106.got.cif
#   From: 2010.05.17/outbox.cif.g08.bks.cpg/sg138_5_cif.got.tgz:8106.got - 2010.05.20 13:08:53.
