data_PCOD9570761
_publ_section_title
;
Structure prediction by ZEFSAII (Michael W. Deem and Ramdas Pophale) SiO2 
 PCOD9570761
Probable space group: P 42/N C M
;
_chemical_formula_sum "Si O2"
_cell_formula_units_Z 104
_cell_length_a 17.575170
_cell_length_b 17.575170
_cell_length_c 19.272059
_cell_angle_alpha 90.000000
_cell_angle_beta 90.000000
_cell_angle_gamma 90.000000
_cell_volume 5952.880790
_symmetry_space_group_name_H-M "P 42/N C M"
_symmetry_group_IT_number 138
_space_group.IT_coordinate_system_code '2'
_symmetry_cell_setting 'tetragonal'
loop_
_space_group_symop_operation_xyz
x,y,z
1/2-y,x,1/2+z
1/2-x,1/2-y,z
y,1/2-x,1/2+z
1/2+x,-y,1/2-z
-x,1/2+y,1/2-z
1/2+y,1/2+x,-z
-y,-x,-z
-x,-y,-z
1/2+y,-x,1/2-z
1/2+x,1/2+y,-z
-y,1/2+x,1/2-z
1/2-x,y,1/2+z
x,1/2-y,1/2+z
1/2-y,1/2-x,z
y,x,z
loop_
_atom_site_type_symbol
_atom_site_label
_atom_site_fract_x
_atom_site_fract_y
_atom_site_fract_z
Si Si1 0.383904 0.508903 0.744699
Si Si2 0.867920 0.367920 0.000000
Si Si3 0.246438 0.374198 0.503083
Si Si4 0.130536 0.705051 0.566530
Si Si5 0.668080 0.167935 0.718744
Si Si6 0.839855 0.537540 0.608009
Si Si7 0.850482 0.979231 0.411894
O O1 0.464521 0.464521 0.743604
O O2 0.387278 0.598572 0.761640
O O3 0.336989 0.472399 0.808926
O O4 0.346113 0.495830 0.669962
O O5 0.867957 0.295044 0.948814
O O6 0.864320 0.443869 0.954193
O O7 0.173370 0.326631 0.529026
O O8 0.313812 0.313812 0.493451
O O9 0.222754 0.410835 0.429831
O O10 0.276869 0.437413 0.556091
O O11 0.168106 0.668106 0.500000
O O12 0.173564 0.681105 0.636549
O O13 0.045595 0.672716 0.576423
O O14 0.646418 0.249146 0.749819
O O15 0.920424 0.579577 0.593337
O O16 0.921144 0.921144 0.421774
#
# Coordination Sequence:
#
# PCOD9570761 Si02
#       7
#    16   8  16  16  16  16  16
#     4   9  19  36  57  77 107 145 180 218 264 320
#     4  12  22  34  54  78 112 138 172 224 258 324
#     4   9  17  32  55  81 107 136 174 219 265 315
#     4  11  24  35  53  81 105 139 180 224 266 309
#     4  10  22  36  55  79 109 146 180 216 268 322
#     4   9  18  37  57  77 104 140 179 218 266 317
#     4  10  20  34  55  82 108 141 176 217 270 320
#
# _framework density 17.470533
#
# number of rings (size 3 to 8) (size 9 to 14) (size 15 to 20)
#    0.000    2.154    1.538    1.385    6.462    0.308 
#    0.000    0.769    0.000    5.538    0.000    0.000 
#    0.000    0.000    0.000    0.000    0.000    0.000 
#
# Total GULP energy -579792.765468 kJ/mol
# GULP energy per Si atom -5574.930437 kJ/mol
# Density = 1.743077 g / cm^3
# Si number density = 17.470533 Si / 1000 Ang^3
#
#
#
# Elastic Constant Matrix: (Units=GPa)
#
#
# Indices 1 2 3 4 5 6 
#
# 1 62.7749 41.5227 47.4467 0.0000 0.0000 0.0000
# 2 41.5227 62.7749 47.4467 0.0000 0.0000 0.0000
# 3 47.4467 47.4467 116.6724 0.0000 0.0000 0.0000
# 4 0.0000 0.0000 0.0000 34.4108 0.0000 0.0000
# 5 0.0000 0.0000 0.0000 0.0000 34.4108 0.0000
# 6 0.0000 0.0000 0.0000 0.0000 0.0000 18.6384
#
#
#
# Elastic Compliance Matrix: (Units=1/GPa)
#
#
# Indices 1 2 3 4 5 6 
#
# 1 0.031136 -0.015918 -0.006189 0.000000 0.000000 0.000000
# 2 -0.015918 0.031136 -0.006189 0.000000 0.000000 0.000000
# 3 -0.006189 -0.006189 0.013605 0.000000 0.000000 0.000000
# 4 0.000000 0.000000 0.000000 0.029061 0.000000 0.000000
# 5 0.000000 0.000000 0.000000 0.000000 0.029061 0.000000
# 6 0.000000 0.000000 0.000000 0.000000 0.000000 0.053653
#
#
# Mechanical properties :
#
#
# Convention : Reuss Voigt Hill
#
# Bulk Modulus (GPa) = 51.84972 57.22824 54.53898
# Shear Modulus (GPa) = 19.94641 24.54575 22.24608
#
# Velocity S-wave (km/s) = 3.38260 3.75237 3.57227
# Velocity P-wave (km/s) = 6.70811 7.18344 6.94984
#
# Compressibility (1/GPa) = 0.01928651
#
# Stress axis : x y z
#
# Youngs Moduli (GPa) = 32.11667 32.11667 73.50387
#
# Poissons Ratio (x) = 0.51122 0.45492
# Poissons Ratio (y) = 0.51122 0.45492
# Poissons Ratio (z) = 0.19877 0.19877
#
# Static dielectric constant tensor:
#      x y z
#    x 1.602770 0.000000 0.000000 
#    y 0.000000 1.602770 0.000000 
#    z 0.000000 0.000000 1.581120 
# 
# From -- ./inp_files/5314.got.cif
#   From: 2010.05.17/outbox.cif.g08.bks.cpg/sg138_3_cif.got.tgz:5314.got - 2010.05.20 13:08:53.
