data_PCOD9570941
_publ_section_title
;
Structure prediction by ZEFSAII (Michael W. Deem and Ramdas Pophale) SiO2 
 PCOD9570941
Probable space group: P 42/N C M
;
_chemical_formula_sum "Si O2"
_cell_formula_units_Z 84
_cell_length_a 10.494061
_cell_length_b 10.494061
_cell_length_c 32.989561
_cell_angle_alpha 90.000000
_cell_angle_beta 90.000000
_cell_angle_gamma 90.000000
_cell_volume 3632.985839
_symmetry_space_group_name_H-M "P 42/N C M"
_symmetry_group_IT_number 138
_space_group.IT_coordinate_system_code '2'
_symmetry_cell_setting 'tetragonal'
loop_
_space_group_symop_operation_xyz
x,y,z
1/2-y,x,1/2+z
1/2-x,1/2-y,z
y,1/2-x,1/2+z
1/2+x,-y,1/2-z
-x,1/2+y,1/2-z
1/2+y,1/2+x,-z
-y,-x,-z
-x,-y,-z
1/2+y,-x,1/2-z
1/2+x,1/2+y,-z
-y,1/2+x,1/2-z
1/2-x,y,1/2+z
x,1/2-y,1/2+z
1/2-y,1/2-x,z
y,x,z
loop_
_atom_site_type_symbol
_atom_site_label
_atom_site_fract_x
_atom_site_fract_y
_atom_site_fract_z
Si Si1 0.461979 0.243697 0.104718
Si Si2 0.747901 0.543851 0.571149
Si Si3 0.947086 0.254695 0.266430
Si Si4 0.706344 0.499429 0.485854
Si Si5 0.750000 0.750000 0.747965
Si Si6 0.919895 0.360037 0.354974
O O1 0.391596 0.108405 0.110670
O O2 0.349940 0.349940 0.105026
O O3 0.523047 0.251558 0.059608
O O4 0.563659 0.288759 0.137815
O O5 0.841602 0.658399 0.582173
O O6 0.606063 0.606063 0.569608
O O7 0.790441 0.501793 0.526157
O O8 0.769764 0.442610 0.606093
O O9 0.870779 0.127710 0.254841
O O10 0.933096 0.281901 0.314204
O O11 0.092891 0.249765 0.253896
O O12 0.602547 0.397453 0.500000
O O13 0.637676 0.637676 0.483219
O O14 0.030649 0.469352 0.354045
#
# Coordination Sequence:
#
# PCOD9570941 Si02
#       6
#    16  16  16  16   4  16
#     4   9  18  35  59  88 131 184 236 294 360 433
#     4   9  18  32  56  88 122 169 224 283 345 412
#     4  11  26  50  76 115 156 190 240 307 373 457
#     4   9  17  32  52  80 125 173 232 289 349 420
#     4  12  24  48  92 112 144 198 240 292 388 458
#     4  10  21  40  65 100 136 175 231 295 362 439
#
# _framework density 23.121476000000001
#
# number of rings (size 3 to 8) (size 9 to 14) (size 15 to 20)
#    0.000    2.286    0.952    1.143    1.333    3.048 
#    8.571    3.810    0.000    0.000    0.000    0.000 
#    0.000    0.000    0.000    0.000    0.000    0.000 
#
# Total GULP energy -468115.495089 kJ/mol
# GULP energy per Si atom -5572.803513 kJ/mol
# Density = 2.306885 g / cm^3
# Si number density = 23.121476 Si / 1000 Ang^3
#
#
#
# Elastic Constant Matrix: (Units=GPa)
#
#
# Indices 1 2 3 4 5 6 
#
# 1 101.2161 64.3446 15.4120 0.0000 0.0000 0.0000
# 2 64.3446 101.2162 15.4131 0.0000 0.0000 0.0000
# 3 15.4120 15.4131 32.0402 0.0000 0.0000 0.0000
# 4 0.0000 0.0000 0.0000 1.7881 0.0000 0.0000
# 5 0.0000 0.0000 0.0000 0.0000 1.7890 0.0000
# 6 0.0000 0.0000 0.0000 0.0000 0.0000 21.8083
#
#
#
# Elastic Compliance Matrix: (Units=1/GPa)
#
#
# Indices 1 2 3 4 5 6 
#
# 1 0.016878 -0.010243 -0.003191 0.000000 0.000000 0.000000
# 2 -0.010243 0.016878 -0.003192 0.000000 0.000000 0.000000
# 3 -0.003191 -0.003192 0.034281 0.000000 0.000000 0.000000
# 4 0.000000 0.000000 0.000000 0.559264 0.000000 0.000000
# 5 0.000000 0.000000 0.000000 0.000000 0.558976 0.000000
# 6 0.000000 0.000000 0.000000 0.000000 0.000000 0.045854
#
#
# Mechanical properties :
#
#
# Convention : Reuss Voigt Hill
#
# Bulk Modulus (GPa) = 28.74857 47.20131 37.97494
# Shear Modulus (GPa) = 3.91550 14.36392 9.13971
#
# Velocity S-wave (km/s) = 1.30274 2.49517 1.99035
# Velocity P-wave (km/s) = 3.83713 5.36283 4.66280
#
# Compressibility (1/GPa) = 0.03478433
#
# Stress axis : x y z
#
# Youngs Moduli (GPa) = 59.24992 59.24932 29.17055
#
# Poissons Ratio (x) = 0.60692 0.09308
# Poissons Ratio (y) = 0.60693 0.09311
# Poissons Ratio (z) = 0.18906 0.18911
#
# Static dielectric constant tensor:
#      x y z
#    x 1.918010 0.000000 0.000000 
#    y 0.000000 1.918000 0.000000 
#    z 0.000000 0.000000 1.878130 
# 
# From -- ./inp_files/8091.got.cif
#   From: 2010.05.17/outbox.cif.g08.bks.cpg/sg138_5_cif.got.tgz:8091.got - 2010.05.20 13:08:53.
