data_PCOD9570244
_publ_section_title
;
Structure prediction by ZEFSAII (Michael W. Deem and Ramdas Pophale) SiO2 
 PCOD9570244
Probable space group: P 42/N M C
;
_chemical_formula_sum "Si O2"
_cell_formula_units_Z 48
_cell_length_a 7.871558
_cell_length_b 7.871558
_cell_length_c 38.888909
_cell_angle_alpha 90.000000
_cell_angle_beta 90.000000
_cell_angle_gamma 90.000000
_cell_volume 2409.612232
_symmetry_space_group_name_H-M "P 42/N M C"
_symmetry_group_IT_number 137
_space_group.IT_coordinate_system_code '2'
_symmetry_cell_setting 'tetragonal'
loop_
_space_group_symop_operation_xyz
x,y,z
1/2-y,x,1/2+z
1/2-x,1/2-y,z
y,1/2-x,1/2+z
1/2+x,-y,-z
-x,1/2+y,-z
1/2+y,1/2+x,1/2-z
-y,-x,1/2-z
-x,-y,-z
1/2+y,-x,1/2-z
1/2+x,1/2+y,-z
-y,1/2+x,1/2-z
1/2-x,y,z
x,1/2-y,z
1/2-y,1/2-x,1/2+z
y,x,1/2+z
loop_
_atom_site_type_symbol
_atom_site_label
_atom_site_fract_x
_atom_site_fract_y
_atom_site_fract_z
Si Si1 0.955015 0.441427 0.961557
Si Si2 0.045739 0.250000 0.085125
Si Si3 0.454888 0.750000 0.835240
Si Si4 0.939907 0.544145 0.711881
O O1 0.750000 0.437049 0.959246
O O2 0.018641 0.250000 0.955502
O O3 0.018230 0.581991 0.934605
O O4 0.000000 0.500000 0.000000
O O5 0.250000 0.250000 0.081659
O O6 0.004722 0.250000 0.125168
O O7 0.250000 0.750000 0.833771
O O8 0.514737 0.583776 0.814555
O O9 0.750000 0.496133 0.701070
O O10 0.948597 0.750000 0.713848
O O11 0.976541 0.476541 0.750000
#
# Coordination Sequence:
#
# PCOD9570244 Si02
#       4
#    16   8   8  16
#     4  10  20  35  57  83 110 146 194 243 293 353
#     4  10  22  38  54  80 118 154 190 238 302 354
#     4  10  22  38  58  84 122 158 196 246 302 348
#     4  10  20  36  61  88 115 152 198 244 296 357
#
# _framework density 19.920217000000001
#
# number of rings (size 3 to 8) (size 9 to 14) (size 15 to 20)
#    0.000    2.000    3.333    0.000    0.000    4.333 
#    0.000    0.000    0.000    0.000    0.000    0.000 
#    0.000    0.000    0.000    0.000    0.000    0.000 
#
# Total GULP energy -268137.802099 kJ/mol
# GULP energy per Si atom -5586.204210 kJ/mol
# Density = 1.987488 g / cm^3
# Si number density = 19.920217 Si / 1000 Ang^3
#
#
#
# Elastic Constant Matrix: (Units=GPa)
#
#
# Indices 1 2 3 4 5 6 
#
# 1 104.2079 49.1714 65.9626 0.0000 0.0000 0.0000
# 2 49.1714 104.2079 65.9626 0.0000 0.0000 0.0000
# 3 65.9626 65.9626 179.4110 0.0000 0.0000 0.0000
# 4 0.0000 0.0000 0.0000 20.0202 0.0000 0.0000
# 5 0.0000 0.0000 0.0000 0.0000 20.0202 0.0000
# 6 0.0000 0.0000 0.0000 0.0000 0.0000 11.6114
#
#
#
# Elastic Compliance Matrix: (Units=1/GPa)
#
#
# Indices 1 2 3 4 5 6 
#
# 1 0.013852 -0.004317 -0.003506 0.000000 0.000000 0.000000
# 2 -0.004317 0.013852 -0.003506 0.000000 0.000000 0.000000
# 3 -0.003506 -0.003506 0.008152 0.000000 0.000000 0.000000
# 4 0.000000 0.000000 0.000000 0.049950 0.000000 0.000000
# 5 0.000000 0.000000 0.000000 0.000000 0.049950 0.000000
# 6 0.000000 0.000000 0.000000 0.000000 0.000000 0.086123
#
#
# Mechanical properties :
#
#
# Convention : Reuss Voigt Hill
#
# Bulk Modulus (GPa) = 75.76299 83.33557 79.54928
# Shear Modulus (GPa) = 20.08552 24.11234 22.09893
#
# Velocity S-wave (km/s) = 3.17882 3.48292 3.33434
# Velocity P-wave (km/s) = 7.18254 7.62232 7.40570
#
# Compressibility (1/GPa) = 0.01319906
#
# Stress axis : x y z
#
# Youngs Moduli (GPa) = 72.18938 72.18938 122.67499
#
# Poissons Ratio (x) = 0.31167 0.43006
# Poissons Ratio (y) = 0.31167 0.43006
# Poissons Ratio (z) = 0.25307 0.25307
#
# Static dielectric constant tensor:
#      x y z
#    x 1.725540 0.000000 0.000000 
#    y 0.000000 1.725540 0.000000 
#    z 0.000000 0.000000 1.629290 
# 
# From -- ./inp_files/10037.got.cif
#   From: 2010.05.17/outbox.cif.g08.bks.cpg/sg137_6_cif.got.tgz:10037.got - 2010.05.20 13:01:12.
