data_PCOD9570673
_publ_section_title
;
Structure prediction by ZEFSAII (Michael W. Deem and Ramdas Pophale) SiO2 
 PCOD9570673
Probable space group: P 42/N C M
;
_chemical_formula_sum "Si O2"
_cell_formula_units_Z 96
_cell_length_a 17.317670
_cell_length_b 17.317670
_cell_length_c 17.329898
_cell_angle_alpha 90.000000
_cell_angle_beta 90.000000
_cell_angle_gamma 90.000000
_cell_volume 5197.265771
_symmetry_space_group_name_H-M "P 42/N C M"
_symmetry_group_IT_number 138
_space_group.IT_coordinate_system_code '2'
_symmetry_cell_setting 'tetragonal'
loop_
_space_group_symop_operation_xyz
x,y,z
1/2-y,x,1/2+z
1/2-x,1/2-y,z
y,1/2-x,1/2+z
1/2+x,-y,1/2-z
-x,1/2+y,1/2-z
1/2+y,1/2+x,-z
-y,-x,-z
-x,-y,-z
1/2+y,-x,1/2-z
1/2+x,1/2+y,-z
-y,1/2+x,1/2-z
1/2-x,y,1/2+z
x,1/2-y,1/2+z
1/2-y,1/2-x,z
y,x,z
loop_
_atom_site_type_symbol
_atom_site_label
_atom_site_fract_x
_atom_site_fract_y
_atom_site_fract_z
Si Si1 0.591989 0.783529 0.272883
Si Si2 0.509563 0.212667 0.356938
Si Si3 0.007720 0.492281 0.871981
Si Si4 0.810314 0.139378 0.264309
Si Si5 0.355040 0.904899 0.919499
Si Si6 0.946240 0.553761 0.303311
Si Si7 0.063730 0.436271 0.365363
Si Si8 0.611616 0.888385 0.810855
O O1 0.675415 0.824586 0.262858
O O2 0.552889 0.762149 0.191424
O O3 0.542916 0.853552 0.310513
O O4 0.596330 0.703148 0.318297
O O5 0.567451 0.176957 0.292203
O O6 0.559212 0.270887 0.407235
O O7 0.469793 0.141996 0.400398
O O8 0.081504 0.527771 0.913684
O O9 0.032357 0.467644 0.785112
O O10 0.941929 0.558072 0.863290
O O11 0.718473 0.153645 0.269250
O O12 0.849284 0.127682 0.346842
O O13 0.362427 0.862427 0.000000
O O14 0.998625 0.501376 0.357043
O O15 0.089246 0.410755 0.277833
#
# Coordination Sequence:
#
# PCOD9570673 Si02
#       8
#    16  16   8  16  16   8   8   8
#     4   9  16  26  45  76 112 140 177 233 278 321
#     4  10  19  33  53  79 113 147 186 235 284 341
#     4  11  19  35  48  79 118 150 180 228 293 350
#     4   9  19  34  52  80 112 147 186 231 286 326
#     4  11  21  35  57  85 112 150 193 233 286 346
#     4   9  16  26  49  76 114 144 185 232 274 341
#     4   9  18  29  46  77 102 151 187 224 288 321
#     4   9  17  27  47  76 111 147 184 232 280 335
#
# _framework density 18.471252
#
# number of rings (size 3 to 8) (size 9 to 14) (size 15 to 20)
#    0.500    1.833    1.667    3.500    2.333    0.000 
#    0.000    6.667    0.000    0.000   10.833    1.167 
#    0.000    0.000    0.000    0.000    0.000    0.000 
#
# Total GULP energy -535206.188516 kJ/mol
# GULP energy per Si atom -5575.064464 kJ/mol
# Density = 1.842921 g / cm^3
# Si number density = 18.471252 Si / 1000 Ang^3
#
#
#
# Elastic Constant Matrix: (Units=GPa)
#
#
# Indices 1 2 3 4 5 6 
#
# 1 102.7746 46.0333 28.1561 0.0000 0.0000 0.0000
# 2 46.0333 102.7746 28.1561 0.0000 0.0000 0.0000
# 3 28.1561 28.1561 47.7343 0.0000 0.0000 0.0000
# 4 0.0000 0.0000 0.0000 3.5092 0.0000 0.0000
# 5 0.0000 0.0000 0.0000 0.0000 3.5092 0.0000
# 6 0.0000 0.0000 0.0000 0.0000 0.0000 35.2147
#
#
#
# Elastic Compliance Matrix: (Units=1/GPa)
#
#
# Indices 1 2 3 4 5 6 
#
# 1 0.013137 -0.004486 -0.005103 0.000000 0.000000 0.000000
# 2 -0.004486 0.013137 -0.005103 0.000000 0.000000 0.000000
# 3 -0.005103 -0.005103 0.026969 0.000000 0.000000 0.000000
# 4 0.000000 0.000000 0.000000 0.284963 0.000000 0.000000
# 5 0.000000 0.000000 0.000000 0.000000 0.284963 0.000000
# 6 0.000000 0.000000 0.000000 0.000000 0.000000 0.028397
#
#
# Mechanical properties :
#
#
# Convention : Reuss Voigt Hill
#
# Bulk Modulus (GPa) = 41.91131 50.88607 46.39869
# Shear Modulus (GPa) = 7.25789 18.50916 12.88353
#
# Velocity S-wave (km/s) = 1.98439 3.16895 2.64387
# Velocity P-wave (km/s) = 5.29053 6.40299 5.87316
#
# Compressibility (1/GPa) = 0.02385991
#
# Stress axis : x y z
#
# Youngs Moduli (GPa) = 76.11813 76.11813 37.07944
#
# Poissons Ratio (x) = 0.34149 0.18921
# Poissons Ratio (y) = 0.34149 0.18921
# Poissons Ratio (z) = 0.38842 0.38842
#
# Static dielectric constant tensor:
#      x y z
#    x 1.674160 0.000000 0.000000 
#    y 0.000000 1.674160 0.000000 
#    z 0.000000 0.000000 1.602330 
# 
# From -- ./inp_files/5278.got.cif
#   From: 2010.05.17/outbox.cif.g08.bks.cpg/sg138_3_cif.got.tgz:5278.got - 2010.05.20 13:08:53.
