data_PCOD9570661
_publ_section_title
;
Structure prediction by ZEFSAII (Michael W. Deem and Ramdas Pophale) SiO2 
 PCOD9570661
Probable space group: P 42/N C M
;
_chemical_formula_sum "Si O2"
_cell_formula_units_Z 96
_cell_length_a 15.164710
_cell_length_b 15.164710
_cell_length_c 23.619668
_cell_angle_alpha 90.000000
_cell_angle_beta 90.000000
_cell_angle_gamma 90.000000
_cell_volume 5431.777953
_symmetry_space_group_name_H-M "P 42/N C M"
_symmetry_group_IT_number 138
_space_group.IT_coordinate_system_code '2'
_symmetry_cell_setting 'tetragonal'
loop_
_space_group_symop_operation_xyz
x,y,z
1/2-y,x,1/2+z
1/2-x,1/2-y,z
y,1/2-x,1/2+z
1/2+x,-y,1/2-z
-x,1/2+y,1/2-z
1/2+y,1/2+x,-z
-y,-x,-z
-x,-y,-z
1/2+y,-x,1/2-z
1/2+x,1/2+y,-z
-y,1/2+x,1/2-z
1/2-x,y,1/2+z
x,1/2-y,1/2+z
1/2-y,1/2-x,z
y,x,z
loop_
_atom_site_type_symbol
_atom_site_label
_atom_site_fract_x
_atom_site_fract_y
_atom_site_fract_z
Si Si1 0.875796 0.180778 0.744974
Si Si2 0.550719 0.803825 0.686114
Si Si3 0.414841 0.561637 0.631331
Si Si4 0.801031 0.948390 0.577366
Si Si5 0.826061 0.826061 0.879531
Si Si6 0.202817 0.051327 0.553079
Si Si7 0.825842 0.674159 0.249080
O O1 0.783935 0.141744 0.767485
O O2 0.903186 0.129309 0.688326
O O3 0.954535 0.176785 0.790024
O O4 0.615494 0.884507 0.699419
O O5 0.554482 0.780441 0.620029
O O6 0.591200 0.717149 0.717388
O O7 0.478168 0.478168 0.644663
O O8 0.476266 0.633952 0.601334
O O9 0.340916 0.528359 0.587413
O O10 0.856826 0.856826 0.579912
O O11 0.777251 0.966899 0.512394
O O12 0.750000 0.750000 0.878737
O O13 0.784184 0.907832 0.912672
O O14 0.846218 0.846218 0.814229
O O15 0.127128 0.127128 0.552008
O O16 0.750000 0.750000 0.247740
#
# Coordination Sequence:
#
# PCOD9570661 Si02
#       7
#    16  16  16  16   8  16   8
#     4  11  23  39  57  80 110 147 193 235 278 330
#     4  11  21  35  56  85 117 150 179 232 289 343
#     4  10  19  36  58  82 111 145 188 235 281 337
#     4  10  19  32  53  85 119 145 184 226 287 343
#     4   9  16  28  44  72 111 154 190 222 268 337
#     4   9  18  30  50  80 113 150 182 230 280 334
#     4   9  18  32  52  82 118 150 184 219 279 339
#
# _framework density 17.673772
#
# number of rings (size 3 to 8) (size 9 to 14) (size 15 to 20)
#    0.000    2.000    2.500    2.000    1.167    4.667 
#    1.500    0.000    0.000    1.000    0.000    1.167 
#    0.000    0.000    0.000    0.000    0.000    0.000 
#
# Total GULP energy -535781.822261 kJ/mol
# GULP energy per Si atom -5581.060649 kJ/mol
# Density = 1.763355 g / cm^3
# Si number density = 17.673772 Si / 1000 Ang^3
#
#
#
# Elastic Constant Matrix: (Units=GPa)
#
#
# Indices 1 2 3 4 5 6 
#
# 1 53.5645 14.6470 12.8128 0.0000 0.0000 0.0000
# 2 14.6470 53.5645 12.8128 0.0000 0.0000 0.0000
# 3 12.8128 12.8128 99.2878 0.0000 0.0000 0.0000
# 4 0.0000 0.0000 0.0000 8.1020 0.0000 0.0000
# 5 0.0000 0.0000 0.0000 0.0000 8.1020 0.0000
# 6 0.0000 0.0000 0.0000 0.0000 0.0000 14.7033
#
#
#
# Elastic Compliance Matrix: (Units=1/GPa)
#
#
# Indices 1 2 3 4 5 6 
#
# 1 0.020551 -0.005144 -0.001988 0.000000 0.000000 0.000000
# 2 -0.005144 0.020551 -0.001988 0.000000 0.000000 0.000000
# 3 -0.001988 -0.001988 0.010585 0.000000 0.000000 0.000000
# 4 0.000000 0.000000 0.000000 0.123426 0.000000 0.000000
# 5 0.000000 0.000000 0.000000 0.000000 0.123426 0.000000
# 6 0.000000 0.000000 0.000000 0.000000 0.000000 0.068012
#
#
# Mechanical properties :
#
#
# Convention : Reuss Voigt Hill
#
# Bulk Modulus (GPa) = 29.89867 31.88467 30.89167
# Shear Modulus (GPa) = 12.62810 17.25774 14.94292
#
# Velocity S-wave (km/s) = 2.67593 3.12823 2.91088
# Velocity P-wave (km/s) = 5.14793 5.57921 5.36790
#
# Compressibility (1/GPa) = 0.03344630
#
# Stress axis : x y z
#
# Youngs Moduli (GPa) = 48.65874 48.65874 94.47432
#
# Poissons Ratio (x) = 0.25030 0.18784
# Poissons Ratio (y) = 0.25030 0.18784
# Poissons Ratio (z) = 0.09675 0.09675
#
# Static dielectric constant tensor:
#      x y z
#    x 1.602260 0.000000 0.000000 
#    y 0.000000 1.602260 0.000000 
#    z 0.000000 0.000000 1.583150 
# 
# From -- ./inp_files/6288.got.cif
#   From: 2010.05.17/outbox.cif.g08.bks.cpg/sg138_4_cif.got.tgz:6288.got - 2010.05.20 13:08:53.
