data_PCOD9570640
_publ_section_title
;
Structure prediction by ZEFSAII (Michael W. Deem and Ramdas Pophale) SiO2 
 PCOD9570640
Probable space group: P 42/N C M
;
_chemical_formula_sum "Si O2"
_cell_formula_units_Z 108
_cell_length_a 16.279496
_cell_length_b 16.279496
_cell_length_c 20.446476
_cell_angle_alpha 90.000000
_cell_angle_beta 90.000000
_cell_angle_gamma 90.000000
_cell_volume 5418.765758
_symmetry_space_group_name_H-M "P 42/N C M"
_symmetry_group_IT_number 138
_space_group.IT_coordinate_system_code '2'
_symmetry_cell_setting 'tetragonal'
loop_
_space_group_symop_operation_xyz
x,y,z
1/2-y,x,1/2+z
1/2-x,1/2-y,z
y,1/2-x,1/2+z
1/2+x,-y,1/2-z
-x,1/2+y,1/2-z
1/2+y,1/2+x,-z
-y,-x,-z
-x,-y,-z
1/2+y,-x,1/2-z
1/2+x,1/2+y,-z
-y,1/2+x,1/2-z
1/2-x,y,1/2+z
x,1/2-y,1/2+z
1/2-y,1/2-x,z
y,x,z
loop_
_atom_site_type_symbol
_atom_site_label
_atom_site_fract_x
_atom_site_fract_y
_atom_site_fract_z
Si Si1 0.481444 0.610833 0.708421
Si Si2 0.751156 0.614181 0.028813
Si Si3 0.255792 0.559654 0.397971
Si Si4 0.974959 0.839287 0.412957
Si Si5 0.863694 0.363694 0.000000
Si Si6 0.509783 0.380752 0.812067
Si Si7 0.250000 0.250000 0.686395
Si Si8 0.755387 0.942331 0.285736
O O1 0.547859 0.547859 0.678384
O O2 0.442448 0.670670 0.654896
O O3 0.418482 0.559586 0.751772
O O4 0.526546 0.668625 0.760765
O O5 0.822966 0.677035 0.051207
O O6 0.667759 0.667759 0.027532
O O7 0.749311 0.532596 0.072275
O O8 0.779217 0.580952 0.957922
O O9 0.284184 0.623293 0.453823
O O10 0.168820 0.568508 0.361354
O O11 0.919558 0.919558 0.399189
O O12 0.993720 0.793221 0.345673
O O13 0.055335 0.863328 0.454023
O O14 0.452981 0.452981 0.841396
O O15 0.450770 0.313880 0.777653
O O16 0.350338 0.250731 0.689798
#
# Coordination Sequence:
#
# PCOD9570640 Si02
#       8
#    16  16  16  16   8  16   4  16
#     4  10  21  35  55  82 115 152 192 231 281 345
#     4   9  18  29  45  75 112 152 186 218 274 337
#     4  10  20  34  54  77 109 144 187 239 279 329
#     4  10  19  31  52  77 114 152 189 234 281 338
#     4  10  21  36  54  81 108 150 200 240 282 334
#     4  10  20  36  55  79 110 151 190 232 287 343
#     4  12  20  32  52  90 126 148 184 222 304 354
#     4  11  21  33  55  85 120 153 186 238 290 349
#
# _framework density 19.930738000000002
#
# number of rings (size 3 to 8) (size 9 to 14) (size 15 to 20)
#    0.000    1.926    2.222    2.000    1.037    2.963 
#    0.000    0.000    0.000   19.556    0.000    9.333 
#    0.000    0.000    0.000    0.000    0.000    0.000 
#
# Total GULP energy -601487.164380 kJ/mol
# GULP energy per Si atom -5569.325596 kJ/mol
# Density = 1.988537 g / cm^3
# Si number density = 19.930738 Si / 1000 Ang^3
#
#
#
# Elastic Constant Matrix: (Units=GPa)
#
#
# Indices 1 2 3 4 5 6 
#
# 1 58.1626 35.0619 18.6954 0.0000 0.0000 0.0000
# 2 35.0619 58.1626 18.6954 0.0000 0.0000 0.0000
# 3 18.6954 18.6954 65.2852 0.0000 0.0000 0.0000
# 4 0.0000 0.0000 0.0000 7.8543 0.0000 0.0000
# 5 0.0000 0.0000 0.0000 0.0000 7.8543 0.0000
# 6 0.0000 0.0000 0.0000 0.0000 0.0000 29.1819
#
#
#
# Elastic Compliance Matrix: (Units=1/GPa)
#
#
# Indices 1 2 3 4 5 6 
#
# 1 0.027704 -0.015585 -0.003470 0.000000 0.000000 0.000000
# 2 -0.015585 0.027704 -0.003470 0.000000 0.000000 0.000000
# 3 -0.003470 -0.003470 0.017305 0.000000 0.000000 0.000000
# 4 0.000000 0.000000 0.000000 0.127319 0.000000 0.000000
# 5 0.000000 0.000000 0.000000 0.000000 0.127319 0.000000
# 6 0.000000 0.000000 0.000000 0.000000 0.000000 0.034268
#
#
# Mechanical properties :
#
#
# Convention : Reuss Voigt Hill
#
# Bulk Modulus (GPa) = 36.15208 36.27952 36.21580
# Shear Modulus (GPa) = 12.02240 16.25527 14.13883
#
# Velocity S-wave (km/s) = 2.45870 2.85895 2.66634
# Velocity P-wave (km/s) = 5.12235 5.39819 5.26208
#
# Compressibility (1/GPa) = 0.02766092
#
# Stress axis : x y z
#
# Youngs Moduli (GPa) = 36.09632 36.09632 57.78675
#
# Poissons Ratio (x) = 0.56256 0.20054
# Poissons Ratio (y) = 0.56256 0.20054
# Poissons Ratio (z) = 0.12527 0.12527
#
# Static dielectric constant tensor:
#      x y z
#    x 1.722970 0.000000 0.000000 
#    y 0.000000 1.722970 0.000000 
#    z 0.000000 0.000000 1.734500 
# 
# From -- ./inp_files/6506.got.cif
#   From: 2010.05.17/outbox.cif.g08.bks.cpg/sg138_4_cif.got.tgz:6506.got - 2010.05.20 13:08:53.
