data_PCOD9570229
_publ_section_title
;
Structure prediction by ZEFSAII (Michael W. Deem and Ramdas Pophale) SiO2 
 PCOD9570229
Probable space group: P 42/N M C
;
_chemical_formula_sum "Si O2"
_cell_formula_units_Z 96
_cell_length_a 14.396341
_cell_length_b 14.396341
_cell_length_c 27.483235
_cell_angle_alpha 90.000000
_cell_angle_beta 90.000000
_cell_angle_gamma 90.000000
_cell_volume 5696.027816
_symmetry_space_group_name_H-M "P 42/N M C"
_symmetry_group_IT_number 137
_space_group.IT_coordinate_system_code '2'
_symmetry_cell_setting 'tetragonal'
loop_
_space_group_symop_operation_xyz
x,y,z
1/2-y,x,1/2+z
1/2-x,1/2-y,z
y,1/2-x,1/2+z
1/2+x,-y,-z
-x,1/2+y,-z
1/2+y,1/2+x,1/2-z
-y,-x,1/2-z
-x,-y,-z
1/2+y,-x,1/2-z
1/2+x,1/2+y,-z
-y,1/2+x,1/2-z
1/2-x,y,z
x,1/2-y,z
1/2-y,1/2-x,1/2+z
y,x,1/2+z
loop_
_atom_site_type_symbol
_atom_site_label
_atom_site_fract_x
_atom_site_fract_y
_atom_site_fract_z
Si Si1 0.637903 0.750000 0.710362
Si Si2 0.750000 0.139240 0.976914
Si Si3 0.364039 0.250000 0.404405
Si Si4 0.250000 0.860074 0.132003
Si Si5 0.424718 0.555907 0.327515
Si Si6 0.562301 0.857981 0.260448
Si Si7 0.448618 0.446861 0.928354
Si Si8 0.138737 0.551285 0.520819
O O1 0.750000 0.750000 0.712043
O O2 0.615386 0.750000 0.653523
O O3 0.607039 0.658779 0.738543
O O4 0.750000 0.250000 0.970729
O O5 0.750000 0.098027 0.922641
O O6 0.842441 0.118670 0.006034
O O7 0.250000 0.250000 0.410876
O O8 0.412718 0.157844 0.425426
O O9 0.250000 0.750000 0.128193
O O10 0.157389 0.888225 0.159402
O O11 0.364802 0.508122 0.285198
O O12 0.524363 0.576532 0.303001
O O13 0.425048 0.495722 0.376415
O O14 0.569712 0.750000 0.275828
O O15 0.467437 0.556267 0.940296
O O16 0.493879 0.387191 0.972185
O O17 0.250000 0.540453 0.532630
#
# Coordination Sequence:
#
# PCOD9570229 Si02
#       8
#     8   8   8   8  16  16  16  16
#     4   9  18  33  55  76 104 141 182 223 267 310
#     4   9  17  31  55  77 102 142 175 210 266 323
#     4  11  21  35  58  84 109 141 186 233 270 311
#     4  11  20  31  51  80 112 145 169 208 272 329
#     4  11  21  34  52  78 112 139 175 220 266 326
#     4  10  20  35  53  78 106 141 179 218 265 323
#     4  11  22  36  57  82 108 145 185 227 275 322
#     4  10  21  37  56  81 112 143 181 226 272 326
#
# _framework density 16.853850000000001
#
# number of rings (size 3 to 8) (size 9 to 14) (size 15 to 20)
#    0.000    1.667    4.167    1.500    0.000    1.333 
#    1.500    0.000    0.000    0.000    0.000    0.000 
#    0.000    0.000    0.000    0.000    0.000    0.000 
#
# Total GULP energy -534781.677701 kJ/mol
# GULP energy per Si atom -5570.642476 kJ/mol
# Density = 1.681549 g / cm^3
# Si number density = 16.853850 Si / 1000 Ang^3
#
#
#
# Elastic Constant Matrix: (Units=GPa)
#
#
# Indices 1 2 3 4 5 6 
#
# 1 81.0723 12.5074 15.0331 0.0000 0.0000 0.0000
# 2 12.5074 81.0723 15.0331 0.0000 0.0000 0.0000
# 3 15.0331 15.0331 45.4868 0.0000 0.0000 0.0000
# 4 0.0000 0.0000 0.0000 15.0780 0.0000 0.0000
# 5 0.0000 0.0000 0.0000 0.0000 15.0780 0.0000
# 6 0.0000 0.0000 0.0000 0.0000 0.0000 12.9612
#
#
#
# Elastic Compliance Matrix: (Units=1/GPa)
#
#
# Indices 1 2 3 4 5 6 
#
# 1 0.013270 -0.001315 -0.003951 0.000000 0.000000 0.000000
# 2 -0.001315 0.013270 -0.003951 0.000000 0.000000 0.000000
# 3 -0.003951 -0.003951 0.024596 0.000000 0.000000 0.000000
# 4 0.000000 0.000000 0.000000 0.066322 0.000000 0.000000
# 5 0.000000 0.000000 0.000000 0.000000 0.066322 0.000000
# 6 0.000000 0.000000 0.000000 0.000000 0.000000 0.077153
#
#
# Mechanical properties :
#
#
# Convention : Reuss Voigt Hill
#
# Bulk Modulus (GPa) = 30.57888 32.53093 31.55490
# Shear Modulus (GPa) = 17.22544 19.62729 18.42637
#
# Velocity S-wave (km/s) = 3.20042 3.41626 3.31010
# Velocity P-wave (km/s) = 5.64268 5.90803 5.77688
#
# Compressibility (1/GPa) = 0.03270231
#
# Stress axis : x y z
#
# Youngs Moduli (GPa) = 75.35710 75.35710 40.65686
#
# Poissons Ratio (x) = 0.09906 0.16064
# Poissons Ratio (y) = 0.09906 0.16064
# Poissons Ratio (z) = 0.29775 0.29775
#
# Static dielectric constant tensor:
#      x y z
#    x 1.594270 0.000000 0.000000 
#    y 0.000000 1.594270 0.000000 
#    z 0.000000 0.000000 1.585000 
# 
# From -- ./inp_files/9739.got.cif
#   From: 2010.05.17/outbox.cif.g08.bks.cpg/sg137_5_cif.got.tgz:9739.got - 2010.05.20 13:01:12.
