data_PCOD9570388
_publ_section_title
;
Structure prediction by ZEFSAII (Michael W. Deem and Ramdas Pophale) SiO2 
 PCOD9570388
Probable space group: P 42/N M C
;
_chemical_formula_sum "Si O2"
_cell_formula_units_Z 64
_cell_length_a 17.876137
_cell_length_b 17.876137
_cell_length_c 9.639813
_cell_angle_alpha 90.000000
_cell_angle_beta 90.000000
_cell_angle_gamma 90.000000
_cell_volume 3080.462725
_symmetry_space_group_name_H-M "P 42/N M C"
_symmetry_group_IT_number 137
_space_group.IT_coordinate_system_code '2'
_symmetry_cell_setting 'tetragonal'
loop_
_space_group_symop_operation_xyz
x,y,z
1/2-y,x,1/2+z
1/2-x,1/2-y,z
y,1/2-x,1/2+z
1/2+x,-y,-z
-x,1/2+y,-z
1/2+y,1/2+x,1/2-z
-y,-x,1/2-z
-x,-y,-z
1/2+y,-x,1/2-z
1/2+x,1/2+y,-z
-y,1/2+x,1/2-z
1/2-x,y,z
x,1/2-y,z
1/2-y,1/2-x,1/2+z
y,x,1/2+z
loop_
_atom_site_type_symbol
_atom_site_label
_atom_site_fract_x
_atom_site_fract_y
_atom_site_fract_z
Si Si1 0.168019 0.162123 0.844147
Si Si2 0.072689 0.836787 0.548669
Si Si3 0.612841 0.928304 0.903538
Si Si4 0.969851 0.165503 0.127663
O O1 0.250000 0.145495 0.779146
O O2 0.164532 0.250000 0.869662
O O3 0.100114 0.138238 0.746358
O O4 0.161843 0.117739 0.986267
O O5 0.087220 0.750000 0.515892
O O6 0.036842 0.838474 0.704439
O O7 0.144596 0.889570 0.563868
O O8 0.013902 0.872605 0.441296
O O9 0.528644 0.897480 0.918356
O O10 0.992403 0.250000 0.089948
#
# Coordination Sequence:
#
# PCOD9570388 Si02
#       4
#    16  16  16  16
#     4  11  22  34  53  82 118 160 199 235 286 350
#     4  10  21  38  60  87 119 155 197 244 293 348
#     4  12  21  37  58  84 118 153 192 246 295 344
#     4  10  21  38  60  87 119 155 197 244 293 348
#
# _framework density 20.776098000000001
#
# number of rings (size 3 to 8) (size 9 to 14) (size 15 to 20)
#    0.000    1.250    2.500    5.250    0.000    2.500 
#    0.000    2.500    0.000    0.000    0.000    0.000 
#    0.000    6.000    0.000    0.000    0.000    0.000 
#
# Total GULP energy -357594.681297 kJ/mol
# GULP energy per Si atom -5587.416895 kJ/mol
# Density = 2.072881 g / cm^3
# Si number density = 20.776098 Si / 1000 Ang^3
#
#
#
# Elastic Constant Matrix: (Units=GPa)
#
#
# Indices 1 2 3 4 5 6 
#
# 1 47.9698 -2.1875 -10.2237 0.0000 0.0000 0.0000
# 2 -2.1875 47.9698 -10.2237 0.0000 0.0000 0.0000
# 3 -10.2237 -10.2237 25.3499 0.0000 0.0000 0.0000
# 4 0.0000 0.0000 0.0000 20.6406 0.0000 0.0000
# 5 0.0000 0.0000 0.0000 0.0000 20.6406 0.0000
# 6 0.0000 0.0000 0.0000 0.0000 0.0000 18.1731
#
#
#
# Elastic Compliance Matrix: (Units=1/GPa)
#
#
# Indices 1 2 3 4 5 6 
#
# 1 0.023289 0.003352 0.010744 0.000000 0.000000 0.000000
# 2 0.003352 0.023289 0.010744 0.000000 0.000000 0.000000
# 3 0.010744 0.010744 0.048114 0.000000 0.000000 0.000000
# 4 0.000000 0.000000 0.000000 0.048448 0.000000 0.000000
# 5 0.000000 0.000000 0.000000 0.000000 0.048448 0.000000
# 6 0.000000 0.000000 0.000000 0.000000 0.000000 0.055026
#
#
# Mechanical properties :
#
#
# Convention : Reuss Voigt Hill
#
# Bulk Modulus (GPa) = 6.92643 8.44666 7.68654
# Shear Modulus (GPa) = 20.40328 21.48583 20.94456
#
# Velocity S-wave (km/s) = 3.13718 3.21933 3.17852
# Velocity P-wave (km/s) = 4.05753 4.23003 4.14468
#
# Compressibility (1/GPa) = 0.14437459
#
# Stress axis : x y z
#
# Youngs Moduli (GPa) = 42.93833 42.93833 20.78378
#
# Poissons Ratio (x) = -0.14393 -0.22331
# Poissons Ratio (y) = -0.14393 -0.22331
# Poissons Ratio (z) = -0.46135 -0.46135
#
# Static dielectric constant tensor:
#      x y z
#    x 1.758080 0.000000 0.000000 
#    y 0.000000 1.758080 0.000000 
#    z 0.000000 0.000000 1.722440 
# 
# From -- ./inp_files/3338.got.cif
#   From: 2010.05.17/outbox.cif.g08.bks.cpg/sg137_2_cif.got.tgz:3338.got - 2010.05.20 13:01:12.
