data_PCOD9570494
_publ_section_title
;
Structure prediction by ZEFSAII (Michael W. Deem and Ramdas Pophale) SiO2 
 PCOD9570494
Probable space group: P 42/N M C
;
_chemical_formula_sum "Si O2"
_cell_formula_units_Z 80
_cell_length_a 12.318694
_cell_length_b 12.318694
_cell_length_c 29.744357
_cell_angle_alpha 90.000000
_cell_angle_beta 90.000000
_cell_angle_gamma 90.000000
_cell_volume 4513.712774
_symmetry_space_group_name_H-M "P 42/N M C"
_symmetry_group_IT_number 137
_space_group.IT_coordinate_system_code '2'
_symmetry_cell_setting 'tetragonal'
loop_
_space_group_symop_operation_xyz
x,y,z
1/2-y,x,1/2+z
1/2-x,1/2-y,z
y,1/2-x,1/2+z
1/2+x,-y,-z
-x,1/2+y,-z
1/2+y,1/2+x,1/2-z
-y,-x,1/2-z
-x,-y,-z
1/2+y,-x,1/2-z
1/2+x,1/2+y,-z
-y,1/2+x,1/2-z
1/2-x,y,z
x,1/2-y,z
1/2-y,1/2-x,1/2+z
y,x,1/2+z
loop_
_atom_site_type_symbol
_atom_site_label
_atom_site_fract_x
_atom_site_fract_y
_atom_site_fract_z
Si Si1 0.620280 0.750000 0.655337
Si Si2 0.379678 0.872511 0.458282
Si Si3 0.117966 0.492550 0.210312
Si Si4 0.250000 0.118964 0.741845
Si Si5 0.621087 0.125486 0.440730
Si Si6 0.481543 0.034657 0.878841
O O1 0.750000 0.750000 0.656135
O O2 0.578356 0.750000 0.706794
O O3 0.585035 0.864359 0.633532
O O4 0.250000 0.865615 0.461150
O O5 0.420879 0.750000 0.448243
O O6 0.417518 0.902777 0.508721
O O7 0.405533 0.955583 0.418960
O O8 0.066175 0.566175 0.250000
O O9 0.250000 0.503511 0.208915
O O10 0.089905 0.365264 0.219419
O O11 0.059167 0.527259 0.164219
O O12 0.250000 0.250000 0.743341
O O13 0.750000 0.124255 0.441122
O O14 0.585887 0.250000 0.432356
O O15 0.579377 0.048126 0.401833
#
# Coordination Sequence:
#
# PCOD9570494 Si02
#       6
#     8  16  16   8  16  16
#     4  11  22  36  57  83 115 153 192 228 280 345
#     4   9  19  36  57  81 114 151 189 235 287 337
#     4  11  24  40  61  86 115 150 190 238 289 344
#     4   9  20  42  58  76 114 154 184 222 286 353
#     4   9  19  36  56  82 114 151 191 234 284 337
#     4  12  21  35  59  88 112 149 191 236 282 335
#
# _framework density 17.723769999999998
#
# number of rings (size 3 to 8) (size 9 to 14) (size 15 to 20)
#    0.000    1.800    3.000    3.000    1.400    1.000 
#    0.000    0.000    0.000    1.500    0.000    0.000 
#    0.000    0.000    0.000    0.000    0.000    0.000 
#
# Total GULP energy -445602.745490 kJ/mol
# GULP energy per Si atom -5570.034319 kJ/mol
# Density = 1.768343 g / cm^3
# Si number density = 17.723770 Si / 1000 Ang^3
#
#
#
# Elastic Constant Matrix: (Units=GPa)
#
#
# Indices 1 2 3 4 5 6 
#
# 1 84.6846 35.4016 43.9080 0.0000 0.0000 0.0000
# 2 35.4016 84.6846 43.9080 0.0000 0.0000 0.0000
# 3 43.9080 43.9080 120.1259 0.0000 0.0000 0.0000
# 4 0.0000 0.0000 0.0000 30.6039 0.0000 0.0000
# 5 0.0000 0.0000 0.0000 0.0000 30.6039 0.0000
# 6 0.0000 0.0000 0.0000 0.0000 0.0000 25.0760
#
#
#
# Elastic Compliance Matrix: (Units=1/GPa)
#
#
# Indices 1 2 3 4 5 6 
#
# 1 0.015828 -0.004463 -0.004154 0.000000 0.000000 0.000000
# 2 -0.004463 0.015828 -0.004154 0.000000 0.000000 0.000000
# 3 -0.004154 -0.004154 0.011361 0.000000 0.000000 0.000000
# 4 0.000000 0.000000 0.000000 0.032676 0.000000 0.000000
# 5 0.000000 0.000000 0.000000 0.000000 0.032676 0.000000
# 6 0.000000 0.000000 0.000000 0.000000 0.000000 0.039879
#
#
# Mechanical properties :
#
#
# Convention : Reuss Voigt Hill
#
# Bulk Modulus (GPa) = 57.22413 59.54782 58.38598
# Shear Modulus (GPa) = 27.83732 28.34193 28.08962
#
# Velocity S-wave (km/s) = 3.96741 4.00320 3.98534
# Velocity P-wave (km/s) = 7.30369 7.41877 7.36145
#
# Compressibility (1/GPa) = 0.01747515
#
# Stress axis : x y z
#
# Youngs Moduli (GPa) = 63.17888 63.17888 88.01711
#
# Poissons Ratio (x) = 0.28196 0.36564
# Poissons Ratio (y) = 0.28196 0.36564
# Poissons Ratio (z) = 0.26246 0.26246
#
# Static dielectric constant tensor:
#      x y z
#    x 1.613580 0.000000 0.000000 
#    y 0.000000 1.613580 0.000000 
#    z 0.000000 0.000000 1.610400 
# 
# From -- ./inp_files/10332.got.cif
#   From: 2010.05.17/outbox.cif.g08.bks.cpg/sg137_6_cif.got.tgz:10332.got - 2010.05.20 13:01:12.
