data_PCOD9570542
_publ_section_title
;
Structure prediction by ZEFSAII (Michael W. Deem and Ramdas Pophale) SiO2 
 PCOD9570542
Probable space group: P 42/N M C
;
_chemical_formula_sum "Si O2"
_cell_formula_units_Z 128
_cell_length_a 18.000000
_cell_length_b 18.000000
_cell_length_c 24.000000
_cell_angle_alpha 90.000000
_cell_angle_beta 90.000000
_cell_angle_gamma 90.000000
_cell_volume 7776.000000
_symmetry_space_group_name_H-M "P 42/N M C"
_symmetry_group_IT_number 137
_space_group.IT_coordinate_system_code '2'
_symmetry_cell_setting 'tetragonal'
loop_
_space_group_symop_operation_xyz
x,y,z
1/2-y,x,1/2+z
1/2-x,1/2-y,z
y,1/2-x,1/2+z
1/2+x,-y,-z
-x,1/2+y,-z
1/2+y,1/2+x,1/2-z
-y,-x,1/2-z
-x,-y,-z
1/2+y,-x,1/2-z
1/2+x,1/2+y,-z
-y,1/2+x,1/2-z
1/2-x,y,z
x,1/2-y,z
1/2-y,1/2-x,1/2+z
y,x,1/2+z
loop_
_atom_site_type_symbol
_atom_site_label
_atom_site_fract_x
_atom_site_fract_y
_atom_site_fract_z
Si Si1 0.659944 0.526940 0.249120
Si Si2 0.053015 0.940919 0.032909
Si Si3 0.907250 0.901173 0.572789
Si Si4 0.663898 0.934656 0.371562
Si Si5 0.432741 0.338385 0.550487
Si Si6 0.161243 0.548667 0.860442
Si Si7 0.160793 0.330897 0.823554
Si Si8 0.410784 0.835155 0.934762
O O1 0.750000 0.521385 0.252810
O O2 0.633298 0.534806 0.312478
O O3 0.638184 0.464092 0.203970
O O4 0.638901 0.603022 0.217549
O O5 0.990446 0.902166 0.070299
O O6 0.117371 0.990116 0.059679
O O7 0.090171 0.883814 0.990378
O O8 0.000000 0.000000 0.000000
O O9 0.904399 0.866064 0.510822
O O10 0.846837 0.868970 0.614819
O O11 0.985674 0.877324 0.601138
O O12 0.750000 0.913478 0.363296
O O13 0.620901 0.868050 0.401019
O O14 0.661169 0.004337 0.413367
O O15 0.440368 0.250000 0.549860
O O16 0.250000 0.537393 0.864090
O O17 0.138241 0.626374 0.887017
O O18 0.250000 0.333427 0.826330
O O19 0.137510 0.250000 0.803450
O O20 0.390162 0.750000 0.943607
#
# Coordination Sequence:
#
# PCOD9570542 Si02
#       8
#    16  16  16  16  16  16  16  16
#     4   8  17  32  49  66  94 137 171 201 250 305
#     4  10  18  34  50  69 100 135 165 199 248 312
#     4  10  17  30  51  70  95 130 169 208 247 300
#     4  10  20  34  48  70 102 134 169 204 250 312
#     4  11  20  31  51  75  98 131 168 207 253 303
#     4  10  18  32  52  73  96 129 175 218 255 299
#     4   9  17  28  45  72 101 130 166 206 248 297
#     4  11  21  33  50  73 102 134 168 213 262 306
#
# _framework density 16.460905
#
# number of rings (size 3 to 8) (size 9 to 14) (size 15 to 20)
#    0.000    2.125    5.000    1.875    0.000    2.500 
#    0.000    1.250    0.000    0.000    0.000    3.500 
#    0.000    0.000    0.000    0.000    0.000    3.375 
#
# Total GULP energy -712820.083307 kJ/mol
# GULP energy per Si atom -5568.906901 kJ/mol
# Density = 1.642344 g / cm^3
# Si number density = 16.460905 Si / 1000 Ang^3
#
#
#
# Elastic Constant Matrix: (Units=GPa)
#
#
# Indices 1 2 3 4 5 6 
#
# 1 67.2621 15.0234 26.1646 0.0000 0.0000 0.0000
# 2 15.0234 67.2621 26.1646 0.0000 0.0000 0.0000
# 3 26.1646 26.1646 60.0626 0.0000 0.0000 0.0000
# 4 0.0000 0.0000 0.0000 18.2719 0.0000 0.0000
# 5 0.0000 0.0000 0.0000 0.0000 18.2719 0.0000
# 6 0.0000 0.0000 0.0000 0.0000 0.0000 17.1579
#
#
#
# Elastic Compliance Matrix: (Units=1/GPa)
#
#
# Indices 1 2 3 4 5 6 
#
# 1 0.017976 -0.001167 -0.007323 0.000000 0.000000 0.000000
# 2 -0.001167 0.017976 -0.007323 0.000000 0.000000 0.000000
# 3 -0.007323 -0.007323 0.023029 0.000000 0.000000 0.000000
# 4 0.000000 0.000000 0.000000 0.054729 0.000000 0.000000
# 5 0.000000 0.000000 0.000000 0.000000 0.054729 0.000000
# 6 0.000000 0.000000 0.000000 0.000000 0.000000 0.058282
#
#
# Mechanical properties :
#
#
# Convention : Reuss Voigt Hill
#
# Bulk Modulus (GPa) = 36.55267 36.58799 36.57033
# Shear Modulus (GPa) = 18.69407 19.22262 18.95835
#
# Velocity S-wave (km/s) = 3.37362 3.42098 3.39738
# Velocity P-wave (km/s) = 6.11793 6.15464 6.13631
#
# Compressibility (1/GPa) = 0.02735779
#
# Stress axis : x y z
#
# Youngs Moduli (GPa) = 55.62892 55.62892 43.42337
#
# Poissons Ratio (x) = 0.06490 0.31797
# Poissons Ratio (y) = 0.06490 0.31797
# Poissons Ratio (z) = 0.40735 0.40735
#
# Static dielectric constant tensor:
#      x y z
#    x 1.576660 0.000000 0.000000 
#    y 0.000000 1.576660 0.000000 
#    z 0.000000 0.000000 1.571640 
# 
# From -- ./inp_files/9206.got.cif
#   From: 2010.05.17/outbox.ucp.g08.bks.cvg/sg137_5_cif.got.tgz:9206.got - 2010.06.11 11:41:14.
