data_PCOD9570299
_publ_section_title
;
Structure prediction by ZEFSAII (Michael W. Deem and Ramdas Pophale) SiO2 
 PCOD9570299
Probable space group: P 42/N M C
;
_chemical_formula_sum "Si O2"
_cell_formula_units_Z 58
_cell_length_a 11.535491
_cell_length_b 11.535491
_cell_length_c 19.498114
_cell_angle_alpha 90.000000
_cell_angle_beta 90.000000
_cell_angle_gamma 90.000000
_cell_volume 2594.566311
_symmetry_space_group_name_H-M "P 42/N M C"
_symmetry_group_IT_number 137
_space_group.IT_coordinate_system_code '2'
_symmetry_cell_setting 'tetragonal'
loop_
_space_group_symop_operation_xyz
x,y,z
1/2-y,x,1/2+z
1/2-x,1/2-y,z
y,1/2-x,1/2+z
1/2+x,-y,-z
-x,1/2+y,-z
1/2+y,1/2+x,1/2-z
-y,-x,1/2-z
-x,-y,-z
1/2+y,-x,1/2-z
1/2+x,1/2+y,-z
-y,1/2+x,1/2-z
1/2-x,y,z
x,1/2-y,z
1/2-y,1/2-x,1/2+z
y,x,1/2+z
loop_
_atom_site_type_symbol
_atom_site_label
_atom_site_fract_x
_atom_site_fract_y
_atom_site_fract_z
Si Si1 0.998328 0.943105 0.925253
Si Si2 0.250000 0.750000 0.750000
Si Si3 0.479471 0.116380 0.797506
Si Si4 0.750000 0.876754 0.964817
Si Si5 0.250000 0.003394 0.758933
Si Si6 0.750000 0.073282 0.082600
O O1 0.869778 0.887899 0.921757
O O2 0.120814 0.873886 0.924375
O O3 0.009951 0.039920 0.866080
O O4 0.000000 0.000000 0.000000
O O5 0.250000 0.619217 0.719140
O O6 0.465631 0.250000 0.814674
O O7 0.368672 0.073208 0.752472
O O8 0.589469 0.089469 0.750000
O O9 0.750000 0.750000 0.997751
O O10 0.750000 0.971456 0.025476
O O11 0.250000 0.969240 0.839137
#
# Coordination Sequence:
#
# PCOD9570299 Si02
#       6
#    16   2  16   8   8   8
#     4   9  20  39  63  93 129 165 223 277 331 395
#     4  12  20  40  64  84 136 152 200 280 338 372
#     4  11  24  43  67  97 133 179 227 272 334 409
#     4  10  20  38  63  95 133 169 210 277 336 395
#     4  10  21  41  67  93 124 166 214 274 329 396
#     4   8  18  38  62  87 122 162 216 259 327 394
#
# _framework density 22.354412
#
# number of rings (size 3 to 8) (size 9 to 14) (size 15 to 20)
#    0.000    2.207    1.379    0.414    1.931   10.207 
#   12.414    0.000    3.034    0.000    0.000    0.000 
#    0.000    0.000    0.000    0.000    0.000    0.000 
#
# Total GULP energy -322918.273061 kJ/mol
# GULP energy per Si atom -5567.556432 kJ/mol
# Density = 2.230353 g / cm^3
# Si number density = 22.354412 Si / 1000 Ang^3
#
#
#
# Elastic Constant Matrix: (Units=GPa)
#
#
# Indices 1 2 3 4 5 6 
#
# 1 186.5393 45.3803 30.7173 0.0000 0.0000 0.0000
# 2 45.3803 186.5393 30.7173 0.0000 0.0000 0.0000
# 3 30.7173 30.7173 96.7925 0.0000 0.0000 0.0000
# 4 0.0000 0.0000 0.0000 15.5989 0.0000 0.0000
# 5 0.0000 0.0000 0.0000 0.0000 15.5989 0.0000
# 6 0.0000 0.0000 0.0000 0.0000 0.0000 4.9339
#
#
#
# Elastic Compliance Matrix: (Units=1/GPa)
#
#
# Indices 1 2 3 4 5 6 
#
# 1 0.005896 -0.001188 -0.001494 0.000000 0.000000 0.000000
# 2 -0.001188 0.005896 -0.001494 0.000000 0.000000 0.000000
# 3 -0.001494 -0.001494 0.011280 0.000000 0.000000 0.000000
# 4 0.000000 0.000000 0.000000 0.064107 0.000000 0.000000
# 5 0.000000 0.000000 0.000000 0.000000 0.064107 0.000000
# 6 0.000000 0.000000 0.000000 0.000000 0.000000 0.202680
#
#
# Mechanical properties :
#
#
# Convention : Reuss Voigt Hill
#
# Bulk Modulus (GPa) = 67.93975 75.94455 71.94215
# Shear Modulus (GPa) = 13.61567 31.43010 22.52288
#
# Velocity S-wave (km/s) = 2.47064 3.75372 3.17761
# Velocity P-wave (km/s) = 6.21263 7.26870 6.76131
#
# Compressibility (1/GPa) = 0.01471892
#
# Stress axis : x y z
#
# Youngs Moduli (GPa) = 169.60947 169.60947 88.65565
#
# Poissons Ratio (x) = 0.20155 0.13245
# Poissons Ratio (y) = 0.20155 0.13245
# Poissons Ratio (z) = 0.25339 0.25339
#
# Static dielectric constant tensor:
#      x y z
#    x 1.876100 0.000000 0.000000 
#    y 0.000000 1.876100 0.000000 
#    z 0.000000 0.000000 1.803250 
# 
# From -- ./inp_files/7411.got.cif
#   From: 2010.05.17/outbox.cif.g08.bks.cpg/sg137_4_cif.got.tgz:7411.got - 2010.05.20 13:01:12.
