data_PCOD9570772
_publ_section_title
;
Structure prediction by ZEFSAII (Michael W. Deem and Ramdas Pophale) SiO2 
 PCOD9570772
Probable space group: P 42/N C M
;
_chemical_formula_sum "Si O2"
_cell_formula_units_Z 128
_cell_length_a 17.216853
_cell_length_b 17.216853
_cell_length_c 25.957867
_cell_angle_alpha 90.000000
_cell_angle_beta 90.000000
_cell_angle_gamma 90.000000
_cell_volume 7694.431643
_symmetry_space_group_name_H-M "P 42/N C M"
_symmetry_group_IT_number 138
_space_group.IT_coordinate_system_code '2'
_symmetry_cell_setting 'tetragonal'
loop_
_space_group_symop_operation_xyz
x,y,z
1/2-y,x,1/2+z
1/2-x,1/2-y,z
y,1/2-x,1/2+z
1/2+x,-y,1/2-z
-x,1/2+y,1/2-z
1/2+y,1/2+x,-z
-y,-x,-z
-x,-y,-z
1/2+y,-x,1/2-z
1/2+x,1/2+y,-z
-y,1/2+x,1/2-z
1/2-x,y,1/2+z
x,1/2-y,1/2+z
1/2-y,1/2-x,z
y,x,z
loop_
_atom_site_type_symbol
_atom_site_label
_atom_site_fract_x
_atom_site_fract_y
_atom_site_fract_z
Si Si1 0.188040 0.056165 0.438842
Si Si2 0.085678 0.285904 0.233459
Si Si3 0.688519 0.943809 0.651701
Si Si4 0.053967 0.180653 0.139322
Si Si5 0.431423 0.934353 0.678252
Si Si6 0.455323 0.915295 0.790565
Si Si7 0.448189 0.316399 0.556312
Si Si8 0.065468 0.567745 0.095379
O O1 0.127067 0.127067 0.431341
O O2 0.254926 0.060245 0.396541
O O3 0.214131 0.058610 0.498150
O O4 0.140238 0.976723 0.430060
O O5 0.166322 0.333679 0.228984
O O6 0.070258 0.268483 0.293536
O O7 0.079870 0.214914 0.194658
O O8 0.018373 0.346618 0.216196
O O9 0.623849 0.876152 0.648470
O O10 0.640818 0.024560 0.656122
O O11 0.115598 0.115598 0.123194
O O12 0.054248 0.249737 0.098631
O O13 0.970903 0.139135 0.146824
O O14 0.407781 0.917834 0.737557
O O15 0.498243 0.001758 0.679945
O O16 0.415009 0.909366 0.845778
O O17 0.505741 0.994260 0.791837
O O18 0.377525 0.377525 0.564794
O O19 0.527436 0.365001 0.564507
O O20 0.999458 0.500543 0.097428
#
# Coordination Sequence:
#
# PCOD9570772 Si02
#       8
#    16  16  16  16  16  16  16  16
#     4  10  21  33  52  78  99 129 174 214 250 299
#     4   9  17  30  47  71 102 135 162 195 254 312
#     4   9  19  36  53  71 104 138 164 204 259 305
#     4  11  21  31  49  76 103 134 175 211 244 297
#     4   8  17  32  49  71  99 132 171 211 244 290
#     4   8  13  26  48  70  95 126 157 196 251 298
#     4  10  20  35  50  72 107 139 167 207 257 298
#     4   9  16  29  51  75 100 128 166 210 250 296
#
# _framework density 16.635407000000001
#
# number of rings (size 3 to 8) (size 9 to 14) (size 15 to 20)
#    0.000    2.750    1.250    2.250    1.750    3.750 
#    0.000    3.125    0.000    3.000    0.000    1.750 
#    0.000    0.000    0.000    0.000    0.000    0.000 
#
# Total GULP energy -713087.832155 kJ/mol
# GULP energy per Si atom -5570.998689 kJ/mol
# Density = 1.659754 g / cm^3
# Si number density = 16.635407 Si / 1000 Ang^3
#
#
#
# Elastic Constant Matrix: (Units=GPa)
#
#
# Indices 1 2 3 4 5 6 
#
# 1 6.6548 49.4141 42.0736 0.0000 0.0000 0.0000
# 2 49.4141 6.6548 42.0736 0.0000 0.0000 0.0000
# 3 42.0736 42.0736 123.6654 0.0000 0.0000 0.0000
# 4 0.0000 0.0000 0.0000 21.1077 0.0000 0.0000
# 5 0.0000 0.0000 0.0000 0.0000 21.1077 0.0000
# 6 0.0000 0.0000 0.0000 0.0000 0.0000 9.8226
#
#
#
# Elastic Compliance Matrix: (Units=1/GPa)
#
#
# Indices 1 2 3 4 5 6 
#
# 1 0.006528 0.029915 -0.012399 0.000000 0.000000 0.000000
# 2 0.029915 0.006528 -0.012399 0.000000 0.000000 0.000000
# 3 -0.012399 -0.012399 0.016523 0.000000 0.000000 0.000000
# 4 0.000000 0.000000 0.000000 0.047376 0.000000 0.000000
# 5 0.000000 0.000000 0.000000 0.000000 0.047376 0.000000
# 6 0.000000 0.000000 0.000000 0.000000 0.000000 0.101806
#
#
# Mechanical properties :
#
#
# Convention : Reuss Voigt Hill
#
# Bulk Modulus (GPa) = 25.11678 44.89972 35.00825
# Shear Modulus (GPa) = 21.81749 10.63516 16.22633
#
# Velocity S-wave (km/s) = 3.62541 2.53120 3.12654
# Velocity P-wave (km/s) = 5.71454 5.96588 5.84156
#
# Compressibility (1/GPa) = 0.03981403
#
# Stress axis : x y z
#
# Youngs Moduli (GPa) = 153.18546 153.18546 60.52218
#
# Poissons Ratio (x) = -4.58250 0.75039
# Poissons Ratio (y) = -4.58250 0.75039
# Poissons Ratio (z) = 1.89929 1.89929
#
# Static dielectric constant tensor:
#      x y z
#    x 1.557330 0.000000 0.000000 
#    y 0.000000 1.557330 0.000000 
#    z 0.000000 0.000000 1.573210 
# 
# From -- ./inp_files/7216.got.cif
#   From: 2010.05.17/outbox.cif.g08.bks.cpg/sg138_4_cif.got.tgz:7216.got - 2010.05.20 13:08:53.
