data_PCOD9570596
_publ_section_title
;
Structure prediction by ZEFSAII (Michael W. Deem and Ramdas Pophale) SiO2 
 PCOD9570596
Probable space group: P 42/N C M
;
_chemical_formula_sum "Si O2"
_cell_formula_units_Z 68
_cell_length_a 10.368586
_cell_length_b 10.368586
_cell_length_c 30.226699
_cell_angle_alpha 90.000000
_cell_angle_beta 90.000000
_cell_angle_gamma 90.000000
_cell_volume 3249.599129
_symmetry_space_group_name_H-M "P 42/N C M"
_symmetry_group_IT_number 138
_space_group.IT_coordinate_system_code '2'
_symmetry_cell_setting 'tetragonal'
loop_
_space_group_symop_operation_xyz
x,y,z
1/2-y,x,1/2+z
1/2-x,1/2-y,z
y,1/2-x,1/2+z
1/2+x,-y,1/2-z
-x,1/2+y,1/2-z
1/2+y,1/2+x,-z
-y,-x,-z
-x,-y,-z
1/2+y,-x,1/2-z
1/2+x,1/2+y,-z
-y,1/2+x,1/2-z
1/2-x,y,1/2+z
x,1/2-y,1/2+z
1/2-y,1/2-x,z
y,x,z
loop_
_atom_site_type_symbol
_atom_site_label
_atom_site_fract_x
_atom_site_fract_y
_atom_site_fract_z
Si Si1 0.861710 0.638291 0.983285
Si Si2 0.328747 0.949154 0.371226
Si Si3 0.750000 0.750000 0.731314
Si Si4 0.861112 0.638889 0.085353
Si Si5 0.436679 0.759732 0.727368
Si Si6 0.334485 0.557190 0.044385
O O1 0.750000 0.750000 0.983220
O O2 0.799768 0.515784 0.960189
O O3 0.890263 0.609738 0.034457
O O4 0.302720 0.900547 0.322376
O O5 0.369672 0.851236 0.409678
O O6 0.442555 0.057446 0.368476
O O7 0.202192 0.021615 0.389021
O O8 0.590095 0.750569 0.730289
O O9 0.750000 0.750000 0.084357
O O10 0.366531 0.626647 0.740458
O O11 0.447895 0.447895 0.043980
O O12 0.360695 0.639306 0.000000
#
# Coordination Sequence:
#
# PCOD9570596 Si02
#       6
#     8  16   4   8  16  16
#     4   9  14  23  38  70 120 172 220 271 326 376
#     4  10  18  31  53  84 121 175 226 276 329 415
#     4  12  22  44  74 102 132 176 228 306 362 424
#     4   9  15  23  45  79 115 160 219 266 325 388
#     4  11  25  44  67  99 138 180 234 292 358 432
#     4   9  15  24  42  73 121 172 224 276 324 385
#
# _framework density 20.925657999999999
#
# number of rings (size 3 to 8) (size 9 to 14) (size 15 to 20)
#    0.000    2.118    3.529    1.412    1.647    0.000 
#    0.000    1.176    2.588    0.000    0.000    3.294 
#    0.000    7.529    0.000    0.706    0.941    0.000 
#
# Total GULP energy -378974.748537 kJ/mol
# GULP energy per Si atom -5573.158067 kJ/mol
# Density = 2.087803 g / cm^3
# Si number density = 20.925658 Si / 1000 Ang^3
#
#
#
# Elastic Constant Matrix: (Units=GPa)
#
#
# Indices 1 2 3 4 5 6 
#
# 1 101.9763 56.1305 56.3362 0.0000 0.0000 0.0000
# 2 56.1305 101.9763 56.3363 0.0000 0.0000 0.0000
# 3 56.3362 56.3363 181.9170 0.0000 0.0000 0.0000
# 4 0.0000 0.0000 0.0000 2.1691 0.0000 0.0000
# 5 0.0000 0.0000 0.0000 0.0000 2.1700 0.0000
# 6 0.0000 0.0000 0.0000 0.0000 0.0000 42.1196
#
#
#
# Elastic Compliance Matrix: (Units=1/GPa)
#
#
# Indices 1 2 3 4 5 6 
#
# 1 0.014964 -0.006848 -0.002513 0.000000 0.000000 0.000000
# 2 -0.006848 0.014964 -0.002513 0.000000 0.000000 0.000000
# 3 -0.002513 -0.002513 0.007054 0.000000 0.000000 0.000000
# 4 0.000000 0.000000 0.000000 0.461013 0.000000 0.000000
# 5 0.000000 0.000000 0.000000 0.000000 0.460821 0.000000
# 6 0.000000 0.000000 0.000000 0.000000 0.000000 0.023742
#
#
# Mechanical properties :
#
#
# Convention : Reuss Voigt Hill
#
# Bulk Modulus (GPa) = 75.57345 80.38617 77.97981
# Shear Modulus (GPa) = 4.94698 23.76285 14.35492
#
# Velocity S-wave (km/s) = 1.53922 3.37350 2.62199
# Velocity P-wave (km/s) = 6.27316 7.32615 6.82001
#
# Compressibility (1/GPa) = 0.01323216
#
# Stress axis : x y z
#
# Youngs Moduli (GPa) = 66.82660 66.82655 141.76978
#
# Poissons Ratio (x) = 0.45764 0.35632
# Poissons Ratio (y) = 0.45764 0.35632
# Poissons Ratio (z) = 0.16796 0.16796
#
# Static dielectric constant tensor:
#      x y z
#    x 1.764710 0.000000 0.000000 
#    y 0.000000 1.764710 0.000000 
#    z 0.000000 0.000000 1.742710 
# 
# From -- ./inp_files/7446.got.cif
#   From: 2010.05.17/outbox.cif.g08.bks.cpg/sg138_4_cif.got.tgz:7446.got - 2010.05.20 13:08:53.
