data_PCOD9570685
_publ_section_title
;
Structure prediction by ZEFSAII (Michael W. Deem and Ramdas Pophale) SiO2 
 PCOD9570685
Probable space group: P 42/N C M
;
_chemical_formula_sum "Si O2"
_cell_formula_units_Z 112
_cell_length_a 15.462459
_cell_length_b 15.462459
_cell_length_c 27.246261
_cell_angle_alpha 90.000000
_cell_angle_beta 90.000000
_cell_angle_gamma 90.000000
_cell_volume 6514.244196
_symmetry_space_group_name_H-M "P 42/N C M"
_symmetry_group_IT_number 138
_space_group.IT_coordinate_system_code '2'
_symmetry_cell_setting 'tetragonal'
loop_
_space_group_symop_operation_xyz
x,y,z
1/2-y,x,1/2+z
1/2-x,1/2-y,z
y,1/2-x,1/2+z
1/2+x,-y,1/2-z
-x,1/2+y,1/2-z
1/2+y,1/2+x,-z
-y,-x,-z
-x,-y,-z
1/2+y,-x,1/2-z
1/2+x,1/2+y,-z
-y,1/2+x,1/2-z
1/2-x,y,1/2+z
x,1/2-y,1/2+z
1/2-y,1/2-x,z
y,x,z
loop_
_atom_site_type_symbol
_atom_site_label
_atom_site_fract_x
_atom_site_fract_y
_atom_site_fract_z
Si Si1 0.108501 0.253375 0.124119
Si Si2 0.610367 0.336013 0.865162
Si Si3 0.777383 0.120818 0.729271
Si Si4 0.858321 0.358321 0.000000
Si Si5 0.801794 0.946689 0.484235
Si Si6 0.014353 0.869855 0.034649
Si Si7 0.502263 0.853983 0.303106
Si Si8 0.750000 0.250000 0.422801
O O1 0.169174 0.330827 0.142194
O O2 0.172062 0.172062 0.113810
O O3 0.066868 0.281201 0.073039
O O4 0.041330 0.222980 0.164422
O O5 0.603667 0.260068 0.824644
O O6 0.547774 0.340445 0.911965
O O7 0.605934 0.424376 0.834946
O O8 0.703867 0.321074 0.889404
O O9 0.698861 0.153947 0.764620
O O10 0.818962 0.036959 0.752984
O O11 0.799396 0.321314 0.044475
O O12 0.959655 0.344301 0.007983
O O13 0.866865 0.866865 0.498688
O O14 0.708906 0.960046 0.510812
O O15 0.094591 0.905410 0.000000
O O16 0.951409 0.951409 0.040433
O O17 0.575998 0.924003 0.295128
#
# Coordination Sequence:
#
# PCOD9570685 Si02
#       8
#    16  16  16   8  16  16  16   8
#     4   9  18  33  54  78 104 144 191 228 273 334
#     4  11  20  34  56  84 108 143 186 233 282 340
#     4   9  19  36  57  79 105 141 177 221 281 343
#     4  11  21  34  52  82 114 148 188 230 276 330
#     4  11  22  36  53  78 118 157 191 232 285 345
#     4  11  22  37  57  84 116 150 196 244 280 329
#     4  10  19  34  56  81 110 137 178 241 289 329
#     4  11  20  32  59  82 112 144 185 234 279 334
#
# _framework density 17.193090999999999
#
# number of rings (size 3 to 8) (size 9 to 14) (size 15 to 20)
#    0.000    1.714    1.429    5.357    0.000    3.143 
#    0.000    4.286    0.000    0.000    0.000    0.000 
#    0.000    0.000    0.000    0.000    0.000    0.000 
#
# Total GULP energy -624389.816395 kJ/mol
# GULP energy per Si atom -5574.909075 kJ/mol
# Density = 1.715396 g / cm^3
# Si number density = 17.193091 Si / 1000 Ang^3
#
#
#
# Elastic Constant Matrix: (Units=GPa)
#
#
# Indices 1 2 3 4 5 6 
#
# 1 70.8001 26.8308 34.7692 0.0000 0.0000 0.0000
# 2 26.8308 70.7999 34.7694 0.0000 0.0000 0.0000
# 3 34.7692 34.7694 82.7831 0.0000 0.0000 0.0000
# 4 0.0000 0.0000 0.0000 22.0875 0.0000 0.0000
# 5 0.0000 0.0000 0.0000 0.0000 22.0876 0.0000
# 6 0.0000 0.0000 0.0000 0.0000 0.0000 23.6133
#
#
#
# Elastic Compliance Matrix: (Units=1/GPa)
#
#
# Indices 1 2 3 4 5 6 
#
# 1 0.018679 -0.004064 -0.006138 0.000000 0.000000 0.000000
# 2 -0.004064 0.018679 -0.006138 0.000000 0.000000 0.000000
# 3 -0.006138 -0.006138 0.017236 0.000000 0.000000 0.000000
# 4 0.000000 0.000000 0.000000 0.045274 0.000000 0.000000
# 5 0.000000 0.000000 0.000000 0.000000 0.045274 0.000000
# 6 0.000000 0.000000 0.000000 0.000000 0.000000 0.042349
#
#
# Mechanical properties :
#
#
# Convention : Reuss Voigt Hill
#
# Bulk Modulus (GPa) = 45.63632 46.34688 45.99160
# Shear Modulus (GPa) = 21.98022 22.09192 22.03607
#
# Velocity S-wave (km/s) = 3.57940 3.58848 3.58394
# Velocity P-wave (km/s) = 6.60937 6.64717 6.62830
#
# Compressibility (1/GPa) = 0.02191237
#
# Stress axis : x y z
#
# Youngs Moduli (GPa) = 53.53639 53.53606 58.01826
#
# Poissons Ratio (x) = 0.21758 0.35613
# Poissons Ratio (y) = 0.21758 0.35613
# Poissons Ratio (z) = 0.32862 0.32862
#
# Static dielectric constant tensor:
#      x y z
#    x 1.595600 0.000000 0.000000 
#    y 0.000000 1.595600 0.000000 
#    z 0.000000 0.000000 1.574400 
# 
# From -- ./inp_files/7641.got.cif
#   From: 2010.05.17/outbox.cif.g08.bks.cpg/sg138_4_cif.got.tgz:7641.got - 2010.05.20 13:08:53.
