data_PCOD9570881
_publ_section_title
;
Structure prediction by ZEFSAII (Michael W. Deem and Ramdas Pophale) SiO2 
 PCOD9570881
Probable space group: P 42/N C M
;
_chemical_formula_sum "Si O2"
_cell_formula_units_Z 60
_cell_length_a 19.789941
_cell_length_b 19.789941
_cell_length_c 7.505227
_cell_angle_alpha 90.000000
_cell_angle_beta 90.000000
_cell_angle_gamma 90.000000
_cell_volume 2939.360347
_symmetry_space_group_name_H-M "P 42/N C M"
_symmetry_group_IT_number 138
_space_group.IT_coordinate_system_code '2'
_symmetry_cell_setting 'tetragonal'
loop_
_space_group_symop_operation_xyz
x,y,z
1/2-y,x,1/2+z
1/2-x,1/2-y,z
y,1/2-x,1/2+z
1/2+x,-y,1/2-z
-x,1/2+y,1/2-z
1/2+y,1/2+x,-z
-y,-x,-z
-x,-y,-z
1/2+y,-x,1/2-z
1/2+x,1/2+y,-z
-y,1/2+x,1/2-z
1/2-x,y,1/2+z
x,1/2-y,1/2+z
1/2-y,1/2-x,z
y,x,z
loop_
_atom_site_type_symbol
_atom_site_label
_atom_site_fract_x
_atom_site_fract_y
_atom_site_fract_z
Si Si1 0.458472 0.566794 0.710095
Si Si2 0.039003 0.348898 0.259738
Si Si3 0.695352 0.974653 0.152802
Si Si4 0.161371 0.338630 0.681235
Si Si5 0.250000 0.250000 0.934238
O O1 0.447797 0.552204 0.500000
O O2 0.528417 0.528417 0.759819
O O3 0.398373 0.524328 0.799052
O O4 0.464068 0.647672 0.721130
O O5 0.106879 0.393122 0.302387
O O6 0.024195 0.276311 0.347236
O O7 0.042259 0.332013 0.046358
O O8 0.676920 0.915803 0.290488
O O9 0.198417 0.301584 0.523409
O O10 0.199744 0.300257 0.839327
#
# Coordination Sequence:
#
# PCOD9570881 Si02
#       5
#    16  16  16   8   4
#     4   8  15  33  54  71  96 134 177 212 248 299
#     4  10  21  36  53  78 104 137 173 210 254 304
#     4  11  19  34  54  76 101 136 176 211 252 301
#     4  11  20  32  45  69 101 142 169 204 243 306
#     4  10  24  30  40  64 110 142 170 200 244 298
#
# _framework density 20.412603000000001
#
# number of rings (size 3 to 8) (size 9 to 14) (size 15 to 20)
#    0.000    2.133    2.667    3.200    3.733    0.000 
#    2.400    1.333    0.000    4.000    0.000    5.600 
#    0.000    0.000    0.000    0.000    0.000    0.000 
#
# Total GULP energy -334478.865837 kJ/mol
# GULP energy per Si atom -5574.647764 kJ/mol
# Density = 2.036614 g / cm^3
# Si number density = 20.412603 Si / 1000 Ang^3
#
#
#
# Elastic Constant Matrix: (Units=GPa)
#
#
# Indices 1 2 3 4 5 6 
#
# 1 130.9951 93.8191 20.9893 0.0000 0.0000 0.0000
# 2 93.8191 130.9956 20.9890 0.0000 0.0000 0.0000
# 3 20.9893 20.9890 24.9543 0.0000 0.0000 0.0000
# 4 0.0000 0.0000 0.0000 20.9483 0.0000 0.0000
# 5 0.0000 0.0000 0.0000 0.0000 20.9483 0.0000
# 6 0.0000 0.0000 0.0000 0.0000 0.0000 33.1236
#
#
#
# Elastic Compliance Matrix: (Units=1/GPa)
#
#
# Indices 1 2 3 4 5 6 
#
# 1 0.016088 -0.010811 -0.004439 0.000000 0.000000 0.000000
# 2 -0.010811 0.016088 -0.004438 0.000000 0.000000 0.000000
# 3 -0.004439 -0.004438 0.047540 0.000000 0.000000 0.000000
# 4 0.000000 0.000000 0.000000 0.047737 0.000000 0.000000
# 5 0.000000 0.000000 0.000000 0.000000 0.047737 0.000000
# 6 0.000000 0.000000 0.000000 0.000000 0.000000 0.030190
#
#
# Mechanical properties :
#
#
# Convention : Reuss Voigt Hill
#
# Bulk Modulus (GPa) = 24.78942 62.05996 43.42469
# Shear Modulus (GPa) = 19.36477 25.08054 22.22266
#
# Velocity S-wave (km/s) = 3.08339 3.50905 3.30308
# Velocity P-wave (km/s) = 4.98467 6.84739 5.98889
#
# Compressibility (1/GPa) = 0.04033979
#
# Stress axis : x y z
#
# Youngs Moduli (GPa) = 62.15830 62.15878 21.03509
#
# Poissons Ratio (x) = 0.67200 0.09337
# Poissons Ratio (y) = 0.67200 0.09336
# Poissons Ratio (z) = 0.27590 0.27587
#
# Static dielectric constant tensor:
#      x y z
#    x 1.732050 0.000000 0.000000 
#    y 0.000000 1.732050 0.000000 
#    z 0.000000 0.000000 1.865540 
# 
# From -- ./inp_files/1212.got.cif
#   From: 2010.05.17/outbox.cif.g08.bks.cpg/sg138_1_cif.got.tgz:1212.got - 2010.05.20 13:08:53.
