data_PCOD9570012
_publ_section_title
;
Structure prediction by ZEFSAII (Michael W. Deem and Ramdas Pophale) SiO2 
 PCOD9570012
Probable space group: P 42/N M C
;
_chemical_formula_sum "Si O2"
_cell_formula_units_Z 92
_cell_length_a 15.909327
_cell_length_b 15.909327
_cell_length_c 19.360254
_cell_angle_alpha 90.000000
_cell_angle_beta 90.000000
_cell_angle_gamma 90.000000
_cell_volume 4900.209722
_symmetry_space_group_name_H-M "P 42/N M C"
_symmetry_group_IT_number 137
_space_group.IT_coordinate_system_code '2'
_symmetry_cell_setting 'tetragonal'
loop_
_space_group_symop_operation_xyz
x,y,z
1/2-y,x,1/2+z
1/2-x,1/2-y,z
y,1/2-x,1/2+z
1/2+x,-y,-z
-x,1/2+y,-z
1/2+y,1/2+x,1/2-z
-y,-x,1/2-z
-x,-y,-z
1/2+y,-x,1/2-z
1/2+x,1/2+y,-z
-y,1/2+x,1/2-z
1/2-x,y,z
x,1/2-y,z
1/2-y,1/2-x,1/2+z
y,x,1/2+z
loop_
_atom_site_type_symbol
_atom_site_label
_atom_site_fract_x
_atom_site_fract_y
_atom_site_fract_z
Si Si1 0.250000 0.250000 0.935608
Si Si2 0.995420 0.350743 0.509645
Si Si3 0.406712 0.906712 0.250000
Si Si4 0.609530 0.883882 0.606633
Si Si5 0.351658 0.341090 0.091997
Si Si6 0.648929 0.901320 0.755580
Si Si7 0.080321 0.845305 0.099731
O O1 0.322802 0.176010 0.929966
O O2 0.992585 0.250000 0.514349
O O3 0.020655 0.375983 0.432079
O O4 0.076192 0.382977 0.553582
O O5 0.912327 0.385698 0.544992
O O6 0.504821 0.887249 0.262453
O O7 0.362132 0.884431 0.322495
O O8 0.609912 0.860505 0.687405
O O9 0.640626 0.979940 0.604437
O O10 0.250000 0.338252 0.081281
O O11 0.384820 0.250000 0.069810
O O12 0.365382 0.352984 0.173406
O O13 0.750000 0.906286 0.744798
O O14 0.098722 0.750000 0.079932
#
# Coordination Sequence:
#
# PCOD9570012 Si02
#       7
#     4  16   8  16  16  16  16
#     4  12  20  36  60  90 112 148 200 242 292 376
#     4  11  23  37  55  83 117 156 196 239 283 351
#     4  10  18  34  56  77 110 148 194 233 286 348
#     4  11  22  35  58  84 114 147 194 242 298 354
#     4   9  19  30  50  77 112 145 184 237 295 341
#     4  10  19  33  52  80 110 148 189 238 289 350
#     4  11  23  40  58  84 117 157 197 244 291 342
#
# _framework density 18.774706999999999
#
# number of rings (size 3 to 8) (size 9 to 14) (size 15 to 20)
#    0.000    1.565    4.348    2.087    2.435    1.043 
#    0.000    0.000    0.000    2.348    0.000    0.000 
#    0.000    0.000    0.000    0.000    0.000    0.087 
#
# Total GULP energy -512676.157057 kJ/mol
# GULP energy per Si atom -5572.566925 kJ/mol
# Density = 1.873198 g / cm^3
# Si number density = 18.774707 Si / 1000 Ang^3
#
#
#
# Elastic Constant Matrix: (Units=GPa)
#
#
# Indices 1 2 3 4 5 6 
#
# 1 78.0636 22.7671 33.1744 0.0000 0.0000 0.0000
# 2 22.7671 78.0636 33.1744 0.0000 0.0000 0.0000
# 3 33.1744 33.1744 84.9391 0.0000 0.0000 0.0000
# 4 0.0000 0.0000 0.0000 12.6820 0.0000 0.0000
# 5 0.0000 0.0000 0.0000 0.0000 12.6820 0.0000
# 6 0.0000 0.0000 0.0000 0.0000 0.0000 35.8210
#
#
#
# Elastic Compliance Matrix: (Units=1/GPa)
#
#
# Indices 1 2 3 4 5 6 
#
# 1 0.015716 -0.002368 -0.005213 0.000000 0.000000 0.000000
# 2 -0.002368 0.015716 -0.005213 0.000000 0.000000 0.000000
# 3 -0.005213 -0.005213 0.015845 0.000000 0.000000 0.000000
# 4 0.000000 0.000000 0.000000 0.078852 0.000000 0.000000
# 5 0.000000 0.000000 0.000000 0.000000 0.078852 0.000000
# 6 0.000000 0.000000 0.000000 0.000000 0.000000 0.027917
#
#
# Mechanical properties :
#
#
# Convention : Reuss Voigt Hill
#
# Bulk Modulus (GPa) = 46.10776 46.58872 46.34824
# Shear Modulus (GPa) = 18.81703 22.36704 20.59203
#
# Velocity S-wave (km/s) = 3.16927 3.45532 3.31538
# Velocity P-wave (km/s) = 6.16475 6.38651 6.27661
#
# Compressibility (1/GPa) = 0.02168832
#
# Stress axis : x y z
#
# Youngs Moduli (GPa) = 63.62857 63.62857 63.10960
#
# Poissons Ratio (x) = 0.15068 0.32901
# Poissons Ratio (y) = 0.15068 0.32901
# Poissons Ratio (z) = 0.33172 0.33172
#
# Static dielectric constant tensor:
#      x y z
#    x 1.648190 0.000000 0.000000 
#    y 0.000000 1.648190 0.000000 
#    z 0.000000 0.000000 1.744700 
# 
# From -- ./inp_files/7904.got.cif
#   From: 2010.05.17/outbox.cif.g08.bks.cpg/sg137_4_cif.got.tgz:7904.got - 2010.05.20 13:01:12.
