data_PCOD9570589
_publ_section_title
;
Structure prediction by ZEFSAII (Michael W. Deem and Ramdas Pophale) SiO2 
 PCOD9570589
Probable space group: P 42/N C M
;
_chemical_formula_sum "Si O2"
_cell_formula_units_Z 112
_cell_length_a 18.173269
_cell_length_b 18.173269
_cell_length_c 20.180796
_cell_angle_alpha 90.000000
_cell_angle_beta 90.000000
_cell_angle_gamma 90.000000
_cell_volume 6665.065203
_symmetry_space_group_name_H-M "P 42/N C M"
_symmetry_group_IT_number 138
_space_group.IT_coordinate_system_code '2'
_symmetry_cell_setting 'tetragonal'
loop_
_space_group_symop_operation_xyz
x,y,z
1/2-y,x,1/2+z
1/2-x,1/2-y,z
y,1/2-x,1/2+z
1/2+x,-y,1/2-z
-x,1/2+y,1/2-z
1/2+y,1/2+x,-z
-y,-x,-z
-x,-y,-z
1/2+y,-x,1/2-z
1/2+x,1/2+y,-z
-y,1/2+x,1/2-z
1/2-x,y,1/2+z
x,1/2-y,1/2+z
1/2-y,1/2-x,z
y,x,z
loop_
_atom_site_type_symbol
_atom_site_label
_atom_site_fract_x
_atom_site_fract_y
_atom_site_fract_z
Si Si1 0.831104 0.086127 0.058190
Si Si2 0.001448 0.382712 0.333140
Si Si3 0.753864 0.469225 0.258059
Si Si4 0.188782 0.921482 0.529282
Si Si5 0.146700 0.477453 0.140741
Si Si6 0.229878 0.833173 0.146329
Si Si7 0.463776 0.919741 0.222411
O O1 0.870632 0.016586 0.090602
O O2 0.829898 0.147557 0.116432
O O3 0.879209 0.120791 0.000000
O O4 0.751151 0.071058 0.026974
O O5 0.985960 0.305601 0.298005
O O6 0.945429 0.437773 0.295658
O O7 0.080883 0.419118 0.321197
O O8 0.722674 0.522101 0.317040
O O9 0.757066 0.388540 0.292698
O O10 0.833661 0.476081 0.225798
O O11 0.117320 0.882681 0.500000
O O12 0.222040 0.865927 0.585264
O O13 0.167549 0.995886 0.567480
O O14 0.094848 0.405153 0.144531
O O15 0.098196 0.543985 0.174530
O O16 0.250000 0.750000 0.162778
O O17 0.538108 0.961893 0.205205
#
# Coordination Sequence:
#
# PCOD9570589 Si02
#       7
#    16  16  16  16  16  16  16
#     4  10  20  32  49  73 108 144 174 209 255 311
#     4  10  21  36  52  73 106 141 178 219 259 311
#     4  10  19  32  54  76  99 140 174 213 269 320
#     4  10  19  29  50  70 105 144 174 209 251 314
#     4   9  20  36  51  73 108 141 176 222 265 312
#     4  10  18  31  44  75 113 141 165 203 255 315
#     4   9  18  34  53  77 104 131 171 226 271 314
#
# _framework density 16.804037000000001
#
# number of rings (size 3 to 8) (size 9 to 14) (size 15 to 20)
#    0.000    2.286    2.857    1.286    2.000    1.714 
#    0.000    0.000    0.000    1.714    0.000    0.000 
#    0.000    0.000    0.000    0.000    0.000    0.000 
#
# Total GULP energy -623688.093300 kJ/mol
# GULP energy per Si atom -5568.643690 kJ/mol
# Density = 1.676579 g / cm^3
# Si number density = 16.804037 Si / 1000 Ang^3
#
#
#
# Elastic Constant Matrix: (Units=GPa)
#
#
# Indices 1 2 3 4 5 6 
#
# 1 65.7176 29.8625 18.6883 0.0000 0.0000 0.0000
# 2 29.8625 65.7159 18.6877 0.0000 0.0000 0.0000
# 3 18.6883 18.6877 48.9603 0.0000 0.0000 0.0000
# 4 0.0000 0.0000 0.0000 15.4651 0.0000 0.0000
# 5 0.0000 0.0000 0.0000 0.0000 15.4644 0.0000
# 6 0.0000 0.0000 0.0000 0.0000 0.0000 19.7153
#
#
#
# Elastic Compliance Matrix: (Units=1/GPa)
#
#
# Indices 1 2 3 4 5 6 
#
# 1 0.020094 -0.007796 -0.004694 0.000000 0.000000 0.000000
# 2 -0.007796 0.020095 -0.004694 0.000000 0.000000 0.000000
# 3 -0.004694 -0.004694 0.024008 0.000000 0.000000 0.000000
# 4 0.000000 0.000000 0.000000 0.064662 0.000000 0.000000
# 5 0.000000 0.000000 0.000000 0.000000 0.064665 0.000000
# 6 0.000000 0.000000 0.000000 0.000000 0.000000 0.050722
#
#
# Mechanical properties :
#
#
# Convention : Reuss Voigt Hill
#
# Bulk Modulus (GPa) = 33.52570 34.98563 34.25567
# Shear Modulus (GPa) = 17.32759 17.67266 17.50013
#
# Velocity S-wave (km/s) = 3.21465 3.24650 3.23061
# Velocity P-wave (km/s) = 5.81145 5.90914 5.86050
#
# Compressibility (1/GPa) = 0.02982786
#
# Stress axis : x y z
#
# Youngs Moduli (GPa) = 49.76554 49.76455 41.65247
#
# Poissons Ratio (x) = 0.38798 0.19553
# Poissons Ratio (y) = 0.38799 0.19552
# Poissons Ratio (z) = 0.23361 0.23360
#
# Static dielectric constant tensor:
#      x y z
#    x 1.587720 0.000000 0.000000 
#    y 0.000000 1.587720 0.000000 
#    z 0.000000 0.000000 1.619700 
# 
# From -- ./inp_files/6490.got.cif
#   From: 2010.05.17/outbox.cif.g08.bks.cpg/sg138_4_cif.got.tgz:6490.got - 2010.05.20 13:08:53.
