data_PCOD9570227
_publ_section_title
;
Structure prediction by ZEFSAII (Michael W. Deem and Ramdas Pophale) SiO2 
 PCOD9570227
Probable space group: P 42/N M C
;
_chemical_formula_sum "Si O2"
_cell_formula_units_Z 96
_cell_length_a 20.756177
_cell_length_b 20.756177
_cell_length_c 11.291787
_cell_angle_alpha 90.000000
_cell_angle_beta 90.000000
_cell_angle_gamma 90.000000
_cell_volume 4864.715070
_symmetry_space_group_name_H-M "P 42/N M C"
_symmetry_group_IT_number 137
_space_group.IT_coordinate_system_code '2'
_symmetry_cell_setting 'tetragonal'
loop_
_space_group_symop_operation_xyz
x,y,z
1/2-y,x,1/2+z
1/2-x,1/2-y,z
y,1/2-x,1/2+z
1/2+x,-y,-z
-x,1/2+y,-z
1/2+y,1/2+x,1/2-z
-y,-x,1/2-z
-x,-y,-z
1/2+y,-x,1/2-z
1/2+x,1/2+y,-z
-y,1/2+x,1/2-z
1/2-x,y,z
x,1/2-y,z
1/2-y,1/2-x,1/2+z
y,x,1/2+z
loop_
_atom_site_type_symbol
_atom_site_label
_atom_site_fract_x
_atom_site_fract_y
_atom_site_fract_z
Si Si1 0.179941 0.014282 0.174678
Si Si2 0.620662 0.354344 0.611004
Si Si3 0.629327 0.005512 0.564201
Si Si4 0.578004 0.750000 0.704312
Si Si5 0.676603 0.250000 0.036749
Si Si6 0.250000 0.327958 0.570324
Si Si7 0.750000 0.032066 0.393713
Si Si8 0.609108 0.636893 0.520872
O O1 0.250000 0.039103 0.204395
O O2 0.148742 0.998945 0.299031
O O3 0.183400 0.946194 0.106650
O O4 0.149259 0.069660 0.098041
O O5 0.640644 0.359357 0.750000
O O6 0.599072 0.423866 0.558973
O O7 0.684397 0.330648 0.541989
O O8 0.595564 0.937866 0.545188
O O9 0.688900 0.011021 0.473287
O O10 0.634006 0.750000 0.804485
O O11 0.509913 0.750000 0.774317
O O12 0.585873 0.687074 0.621126
O O13 0.750000 0.250000 0.086812
O O14 0.610602 0.250000 0.115882
O O15 0.250000 0.250000 0.583512
O O16 0.184977 0.349568 0.501931
#
# Coordination Sequence:
#
# PCOD9570227 Si02
#       8
#    16  16  16   8   8   8   8  16
#     4  11  21  39  59  88 123 157 201 252 323 374
#     4   9  21  34  60  93 125 158 193 257 317 376
#     4  10  20  38  57  86 120 164 199 252 320 370
#     4  12  24  39  59  90 119 173 212 259 315 383
#     4  10  20  34  63 100 122 156 201 249 317 372
#     4  12  24  40  57  91 121 156 211 275 312 349
#     4  10  20  39  59  85 130 165 198 249 326 374
#     4  12  24  38  60  87 117 170 215 257 311 369
#
# _framework density 19.733941000000002
#
# number of rings (size 3 to 8) (size 9 to 14) (size 15 to 20)
#    0.000    1.333    4.167    1.500    5.833    0.667 
#    0.000    0.000    0.000    0.000    2.167    0.000 
#    0.000    0.000    0.000    0.000    0.000    0.000 
#
# Total GULP energy -534870.769447 kJ/mol
# GULP energy per Si atom -5571.570515 kJ/mol
# Density = 1.968903 g / cm^3
# Si number density = 19.733941 Si / 1000 Ang^3
#
#
#
# Elastic Constant Matrix: (Units=GPa)
#
#
# Indices 1 2 3 4 5 6 
#
# 1 120.3787 -7.5523 16.2056 0.0000 0.0000 0.0000
# 2 -7.5523 120.3788 16.2056 0.0000 0.0000 0.0000
# 3 16.2056 16.2056 48.7719 0.0000 0.0000 0.0000
# 4 0.0000 0.0000 0.0000 25.2851 0.0000 0.0000
# 5 0.0000 0.0000 0.0000 0.0000 25.2848 0.0000
# 6 0.0000 0.0000 0.0000 0.0000 0.0000 3.9146
#
#
#
# Elastic Compliance Matrix: (Units=1/GPa)
#
#
# Indices 1 2 3 4 5 6 
#
# 1 0.008808 0.000991 -0.003256 0.000000 0.000000 0.000000
# 2 0.000991 0.008808 -0.003256 0.000000 0.000000 0.000000
# 3 -0.003256 -0.003256 0.022667 0.000000 0.000000 0.000000
# 4 0.000000 0.000000 0.000000 0.039549 0.000000 0.000000
# 5 0.000000 0.000000 0.000000 0.000000 0.039550 0.000000
# 6 0.000000 0.000000 0.000000 0.000000 0.000000 0.255455
#
#
# Mechanical properties :
#
#
# Convention : Reuss Voigt Hill
#
# Bulk Modulus (GPa) = 34.19849 37.69413 35.94631
# Shear Modulus (GPa) = 12.63827 28.54159 20.58993
#
# Velocity S-wave (km/s) = 2.53342 3.80718 3.23364
# Velocity P-wave (km/s) = 5.09166 6.20232 5.67423
#
# Compressibility (1/GPa) = 0.02924106
#
# Stress axis : x y z
#
# Youngs Moduli (GPa) = 113.53858 113.53864 44.11658
#
# Poissons Ratio (x) = -0.11250 0.14363
# Poissons Ratio (y) = -0.11250 0.14363
# Poissons Ratio (z) = 0.36965 0.36965
#
# Static dielectric constant tensor:
#      x y z
#    x 1.688610 0.000000 0.000000 
#    y 0.000000 1.688600 0.000000 
#    z 0.000000 0.000000 1.655490 
# 
# From -- ./inp_files/3824.got.cif
#   From: 2010.05.17/outbox.cif.g08.bks.cpg/sg137_2_cif.got.tgz:3824.got - 2010.05.20 13:01:12.
