data_PCOD9570758
_publ_section_title
;
Structure prediction by ZEFSAII (Michael W. Deem and Ramdas Pophale) SiO2 
 PCOD9570758
Probable space group: P 42/N C M
;
_chemical_formula_sum "Si O2"
_cell_formula_units_Z 60
_cell_length_a 18.452299
_cell_length_b 18.452299
_cell_length_c 8.805041
_cell_angle_alpha 90.000000
_cell_angle_beta 90.000000
_cell_angle_gamma 90.000000
_cell_volume 2998.004974
_symmetry_space_group_name_H-M "P 42/N C M"
_symmetry_group_IT_number 138
_space_group.IT_coordinate_system_code '2'
_symmetry_cell_setting 'tetragonal'
loop_
_space_group_symop_operation_xyz
x,y,z
1/2-y,x,1/2+z
1/2-x,1/2-y,z
y,1/2-x,1/2+z
1/2+x,-y,1/2-z
-x,1/2+y,1/2-z
1/2+y,1/2+x,-z
-y,-x,-z
-x,-y,-z
1/2+y,-x,1/2-z
1/2+x,1/2+y,-z
-y,1/2+x,1/2-z
1/2-x,y,1/2+z
x,1/2-y,1/2+z
1/2-y,1/2-x,z
y,x,z
loop_
_atom_site_type_symbol
_atom_site_label
_atom_site_fract_x
_atom_site_fract_y
_atom_site_fract_z
Si Si1 0.810563 0.998500 0.115713
Si Si2 0.951043 0.332187 0.054282
Si Si3 0.750000 0.750000 0.453831
Si Si4 0.444983 0.444983 0.074954
Si Si5 0.442822 0.057179 0.935248
Si Si6 0.834964 0.834964 0.204740
O O1 0.808422 0.918599 0.195566
O O2 0.830844 0.047922 0.262047
O O3 0.869372 0.975755 0.988555
O O4 0.745589 0.039741 0.027921
O O5 0.883627 0.383627 0.000000
O O6 0.026383 0.369122 0.999851
O O7 0.799728 0.799728 0.350690
O O8 0.700563 0.799438 0.557525
O O9 0.443487 0.443487 0.254972
O O10 0.500000 0.500000 0.000000
O O11 0.500000 0.000000 0.000000
#
# Coordination Sequence:
#
# PCOD9570758 Si02
#       6
#    16  16   4   8   8   8
#     4  11  23  39  62  92 124 165 218 273 330 399
#     4  11  23  41  64  92 128 170 220 279 336 397
#     4  10  20  34  54  82 128 170 198 252 334 400
#     4  11  21  38  64  92 122 159 206 263 326 395
#     4  10  20  36  58  88 123 165 212 265 319 380
#     4  10  21  36  55  88 123 164 211 258 324 408
#
# _framework density 20.013309
#
# number of rings (size 3 to 8) (size 9 to 14) (size 15 to 20)
#    0.000    1.333    0.000    8.000    0.000    4.267 
#    0.000    0.000    0.000    6.400    0.000    0.000 
#    0.000    0.000    0.000    0.000    0.000    0.000 
#
# Total GULP energy -334054.807135 kJ/mol
# GULP energy per Si atom -5567.580119 kJ/mol
# Density = 1.996776 g / cm^3
# Si number density = 20.013309 Si / 1000 Ang^3
#
#
#
# Elastic Constant Matrix: (Units=GPa)
#
#
# Indices 1 2 3 4 5 6 
#
# 1 25.6448 108.0819 47.3873 0.0000 0.0000 0.0000
# 2 108.0819 25.6448 47.3873 0.0000 0.0000 0.0000
# 3 47.3873 47.3873 185.8173 0.0000 0.0000 0.0000
# 4 0.0000 0.0000 0.0000 -3.9409 0.0000 0.0000
# 5 0.0000 0.0000 0.0000 0.0000 -3.9409 0.0000
# 6 0.0000 0.0000 0.0000 0.0000 0.0000 28.7411
#
#
#
# Elastic Compliance Matrix: (Units=1/GPa)
#
#
# Indices 1 2 3 4 5 6 
#
# 1 -0.001501 0.010629 -0.002328 0.000000 0.000000 0.000000
# 2 0.010629 -0.001501 -0.002328 0.000000 0.000000 0.000000
# 3 -0.002328 -0.002328 0.006569 0.000000 0.000000 0.000000
# 4 0.000000 0.000000 0.000000 -0.253751 0.000000 0.000000
# 5 0.000000 0.000000 0.000000 0.000000 -0.253751 0.000000
# 6 0.000000 0.000000 0.000000 0.000000 0.000000 0.034793
#
#
# Mechanical properties :
#
#
# Convention : Reuss Voigt Hill
#
# Bulk Modulus (GPa) = 64.46118 71.42442 67.94280
# Shear Modulus (GPa) = -10.50598 6.45523 -2.02538
#
# Velocity S-wave (km/s) = -2.29366 1.79791 -1.00708
# Velocity P-wave (km/s) = 5.02639 6.33055 5.71579
#
# Compressibility (1/GPa) = 0.01551321
#
# Stress axis : x y z
#
# Youngs Moduli (GPa) = -666.04262 -666.04262 152.23307
#
# Poissons Ratio (x) = 7.07940 0.35436
# Poissons Ratio (y) = 7.07940 0.35436
# Poissons Ratio (z) = -1.55037 -1.55037
#
# Static dielectric constant tensor:
#      x y z
#    x 1.750630 0.000000 0.000000 
#    y 0.000000 1.750630 0.000000 
#    z 0.000000 0.000000 1.671410 
# 
# From -- ./inp_files/1239.got.cif
#   From: 2010.05.17/outbox.cif.g08.bks.cpg/sg138_1_cif.got.tgz:1239.got - 2010.05.20 13:08:53.
