data_PCOD9570040
_publ_section_title
;
Structure prediction by ZEFSAII (Michael W. Deem and Ramdas Pophale) SiO2 
 PCOD9570040
Probable space group: P 42/N M C
;
_chemical_formula_sum "Si O2"
_cell_formula_units_Z 96
_cell_length_a 19.537992
_cell_length_b 19.537992
_cell_length_c 15.160919
_cell_angle_alpha 90.000000
_cell_angle_beta 90.000000
_cell_angle_gamma 90.000000
_cell_volume 5787.425085
_symmetry_space_group_name_H-M "P 42/N M C"
_symmetry_group_IT_number 137
_space_group.IT_coordinate_system_code '2'
_symmetry_cell_setting 'tetragonal'
loop_
_space_group_symop_operation_xyz
x,y,z
1/2-y,x,1/2+z
1/2-x,1/2-y,z
y,1/2-x,1/2+z
1/2+x,-y,-z
-x,1/2+y,-z
1/2+y,1/2+x,1/2-z
-y,-x,1/2-z
-x,-y,-z
1/2+y,-x,1/2-z
1/2+x,1/2+y,-z
-y,1/2+x,1/2-z
1/2-x,y,z
x,1/2-y,z
1/2-y,1/2-x,1/2+z
y,x,1/2+z
loop_
_atom_site_type_symbol
_atom_site_label
_atom_site_fract_x
_atom_site_fract_y
_atom_site_fract_z
Si Si1 0.551272 0.673068 0.254463
Si Si2 0.329389 0.551511 0.597137
Si Si3 0.673799 0.433153 0.608233
Si Si4 0.909686 0.978594 0.254356
Si Si5 0.330288 0.931266 0.888206
Si Si6 0.555500 0.172118 0.593362
O O1 0.582980 0.750000 0.252000
O O2 0.493815 0.671752 0.178229
O O3 0.592203 0.602784 0.242606
O O4 0.511597 0.665423 0.347379
O O5 0.250000 0.547121 0.622489
O O6 0.334760 0.540423 0.492127
O O7 0.375591 0.499841 0.653012
O O8 0.360957 0.626559 0.616618
O O9 0.750000 0.401366 0.612729
O O10 0.613680 0.379705 0.624581
O O11 0.865354 0.016872 0.179654
O O12 0.985387 0.014614 0.250000
O O13 0.250000 0.922512 0.870225
O O14 0.338572 0.956587 0.989254
O O15 0.580504 0.250000 0.604244
#
# Coordination Sequence:
#
# PCOD9570040 Si02
#       6
#    16  16  16  16  16  16
#     4  10  20  33  47  64  90 122 157 200 241 273
#     4   9  18  31  48  72  99 126 154 185 225 275
#     4   9  17  29  45  67  95 124 154 187 226 275
#     4  10  19  31  49  70  93 123 159 196 232 274
#     4   9  18  31  48  72  99 126 154 185 225 275
#     4   9  17  29  45  67  95 124 154 187 226 275
#
# _framework density 16.587686999999999
#
# number of rings (size 3 to 8) (size 9 to 14) (size 15 to 20)
#    0.000    2.667    0.000    2.000    0.000    2.000 
#    0.000    8.333    0.000    8.000    0.000    0.000 
#    0.000   16.000    0.000    0.000    0.000    0.667 
#
# Total GULP energy -534759.921350 kJ/mol
# GULP energy per Si atom -5570.415847 kJ/mol
# Density = 1.654993 g / cm^3
# Si number density = 16.587687 Si / 1000 Ang^3
#
#
#
# Elastic Constant Matrix: (Units=GPa)
#
#
# Indices 1 2 3 4 5 6 
#
# 1 45.3446 -2.0994 0.5903 0.0000 0.0000 0.0000
# 2 -2.0994 45.3466 0.5908 0.0000 0.0000 0.0000
# 3 0.5903 0.5908 20.3124 0.0000 0.0000 0.0000
# 4 0.0000 0.0000 0.0000 16.0268 0.0000 0.0000
# 5 0.0000 0.0000 0.0000 0.0000 16.0265 0.0000
# 6 0.0000 0.0000 0.0000 0.0000 0.0000 16.1227
#
#
#
# Elastic Compliance Matrix: (Units=1/GPa)
#
#
# Indices 1 2 3 4 5 6 
#
# 1 0.022110 0.001032 -0.000673 0.000000 0.000000 0.000000
# 2 0.001032 0.022109 -0.000673 0.000000 0.000000 0.000000
# 3 -0.000673 -0.000673 0.049270 0.000000 0.000000 0.000000
# 4 0.000000 0.000000 0.000000 0.062395 0.000000 0.000000
# 5 0.000000 0.000000 0.000000 0.000000 0.062397 0.000000
# 6 0.000000 0.000000 0.000000 0.000000 0.000000 0.062024
#
#
# Mechanical properties :
#
#
# Convention : Reuss Voigt Hill
#
# Bulk Modulus (GPa) = 10.76860 12.12966 11.44913
# Shear Modulus (GPa) = 16.03149 17.09665 16.56407
#
# Velocity S-wave (km/s) = 3.11218 3.21391 3.16345
# Velocity P-wave (km/s) = 4.40684 4.59354 4.50116
#
# Compressibility (1/GPa) = 0.09286255
#
# Stress axis : x y z
#
# Youngs Moduli (GPa) = 45.22857 45.23056 20.29624
#
# Poissons Ratio (x) = -0.04669 0.01365
# Poissons Ratio (y) = -0.04669 0.01366
# Poissons Ratio (z) = 0.03042 0.03044
#
# Static dielectric constant tensor:
#      x y z
#    x 1.551100 0.000000 0.000000 
#    y 0.000000 1.551100 0.000000 
#    z 0.000000 0.000000 1.582060 
# 
# From -- ./inp_files/6494.got.cif
#   From: 2010.05.17/outbox.cif.g08.bks.cpg/sg137_4_cif.got.tgz:6494.got - 2010.05.20 13:01:12.
