data_PCOD9570457
_publ_section_title
;
Structure prediction by ZEFSAII (Michael W. Deem and Ramdas Pophale) SiO2 
 PCOD9570457
Probable space group: P 42/N M C
;
_chemical_formula_sum "Si O2"
_cell_formula_units_Z 116
_cell_length_a 17.943287
_cell_length_b 17.943287
_cell_length_c 16.261587
_cell_angle_alpha 90.000000
_cell_angle_beta 90.000000
_cell_angle_gamma 90.000000
_cell_volume 5235.605729
_symmetry_space_group_name_H-M "P 42/N M C"
_symmetry_group_IT_number 137
_space_group.IT_coordinate_system_code '2'
_symmetry_cell_setting 'tetragonal'
loop_
_space_group_symop_operation_xyz
x,y,z
1/2-y,x,1/2+z
1/2-x,1/2-y,z
y,1/2-x,1/2+z
1/2+x,-y,-z
-x,1/2+y,-z
1/2+y,1/2+x,1/2-z
-y,-x,1/2-z
-x,-y,-z
1/2+y,-x,1/2-z
1/2+x,1/2+y,-z
-y,1/2+x,1/2-z
1/2-x,y,z
x,1/2-y,z
1/2-y,1/2-x,1/2+z
y,x,1/2+z
loop_
_atom_site_type_symbol
_atom_site_label
_atom_site_fract_x
_atom_site_fract_y
_atom_site_fract_z
Si Si1 0.665636 0.017225 0.433827
Si Si2 0.622119 0.334650 0.340532
Si Si3 0.124600 0.133450 0.641865
Si Si4 0.962964 0.165478 0.588463
Si Si5 0.528049 0.663123 0.582903
Si Si6 0.896456 0.663494 0.176406
Si Si7 0.750000 0.750000 0.411249
Si Si8 0.057444 0.665491 0.124501
O O1 0.750000 0.995109 0.414655
O O2 0.652823 0.098772 0.395844
O O3 0.658617 0.024962 0.531593
O O4 0.619718 0.950673 0.392521
O O5 0.653793 0.346208 0.250000
O O6 0.638556 0.250000 0.369340
O O7 0.532325 0.343138 0.343999
O O8 0.142649 0.139373 0.738826
O O9 0.184220 0.184439 0.594579
O O10 0.041905 0.166036 0.633250
O O11 0.935298 0.250000 0.577920
O O12 0.899956 0.116827 0.631718
O O13 0.985595 0.134010 0.498004
O O14 0.542070 0.750000 0.566995
O O15 0.605690 0.627262 0.606445
O O16 0.878275 0.750000 0.158179
O O17 0.985812 0.657579 0.182393
O O18 0.087380 0.750000 0.133183
#
# Coordination Sequence:
#
# PCOD9570457 Si02
#       8
#    16  16  16  16  16  16   4  16
#     4  11  23  40  67  97 129 178 226 272 328 409
#     4  11  23  40  60  95 137 180 225 283 339 401
#     4  12  25  43  71  98 135 175 226 280 345 409
#     4  11  23  45  68  98 130 175 227 280 338 407
#     4  10  23  40  63  93 130 171 224 273 329 405
#     4  11  24  42  62  95 130 175 222 274 346 404
#     4  12  24  48  68 106 136 180 216 294 340 416
#     4  10  24  44  67  95 135 172 224 284 335 409
#
# _framework density 22.155984
#
# number of rings (size 3 to 8) (size 9 to 14) (size 15 to 20)
#    0.000    1.103    3.448    2.069    2.897    4.276 
#    1.241    1.379    0.000    0.828    0.000    1.931 
#    0.000    0.000    0.000    0.000    0.000    0.000 
#
# Total GULP energy -647231.563959 kJ/mol
# GULP energy per Si atom -5579.582448 kJ/mol
# Density = 2.210556 g / cm^3
# Si number density = 22.155984 Si / 1000 Ang^3
#
#
#
# Elastic Constant Matrix: (Units=GPa)
#
#
# Indices 1 2 3 4 5 6 
#
# 1 102.1763 24.8072 5.6684 0.0000 0.0000 0.0000
# 2 24.8072 102.1759 5.6693 0.0000 0.0000 0.0000
# 3 5.6684 5.6693 32.4704 0.0000 0.0000 0.0000
# 4 0.0000 0.0000 0.0000 9.5788 0.0000 0.0000
# 5 0.0000 0.0000 0.0000 0.0000 9.5792 0.0000
# 6 0.0000 0.0000 0.0000 0.0000 0.0000 50.4295
#
#
#
# Elastic Compliance Matrix: (Units=1/GPa)
#
#
# Indices 1 2 3 4 5 6 
#
# 1 0.010462 -0.002463 -0.001396 0.000000 0.000000 0.000000
# 2 -0.002463 0.010462 -0.001397 0.000000 0.000000 0.000000
# 3 -0.001396 -0.001397 0.031285 0.000000 0.000000 0.000000
# 4 0.000000 0.000000 0.000000 0.104398 0.000000 0.000000
# 5 0.000000 0.000000 0.000000 0.000000 0.104393 0.000000
# 6 0.000000 0.000000 0.000000 0.000000 0.000000 0.019830
#
#
# Mechanical properties :
#
#
# Convention : Reuss Voigt Hill
#
# Bulk Modulus (GPa) = 23.98200 34.34582 29.16391
# Shear Modulus (GPa) = 16.38047 27.29599 21.83823
#
# Velocity S-wave (km/s) = 2.72200 3.51378 3.14293
# Velocity P-wave (km/s) = 4.55266 5.65665 5.13441
#
# Compressibility (1/GPa) = 0.04169794
#
# Stress axis : x y z
#
# Youngs Moduli (GPa) = 95.58052 95.57980 31.96421
#
# Poissons Ratio (x) = 0.23538 0.04464
# Poissons Ratio (y) = 0.23538 0.04465
# Poissons Ratio (z) = 0.13347 0.13351
#
# Static dielectric constant tensor:
#      x y z
#    x 1.801680 0.000000 0.000000 
#    y 0.000000 1.801680 0.000000 
#    z 0.000000 0.000000 1.883890 
# 
# From -- ./inp_files/6659.got.cif
#   From: 2010.05.17/outbox.cif.g08.bks.cpg/sg137_4_cif.got.tgz:6659.got - 2010.05.20 13:01:12.
