data_PCOD9570568
_publ_section_title
;
Structure prediction by ZEFSAII (Michael W. Deem and Ramdas Pophale) SiO2 
 PCOD9570568
Probable space group: P 42/N C M
;
_chemical_formula_sum "Si O2"
_cell_formula_units_Z 64
_cell_length_a 20.704353
_cell_length_b 20.704353
_cell_length_c 9.033958
_cell_angle_alpha 90.000000
_cell_angle_beta 90.000000
_cell_angle_gamma 90.000000
_cell_volume 3872.588882
_symmetry_space_group_name_H-M "P 42/N C M"
_symmetry_group_IT_number 138
_space_group.IT_coordinate_system_code '2'
_symmetry_cell_setting 'tetragonal'
loop_
_space_group_symop_operation_xyz
x,y,z
1/2-y,x,1/2+z
1/2-x,1/2-y,z
y,1/2-x,1/2+z
1/2+x,-y,1/2-z
-x,1/2+y,1/2-z
1/2+y,1/2+x,-z
-y,-x,-z
-x,-y,-z
1/2+y,-x,1/2-z
1/2+x,1/2+y,-z
-y,1/2+x,1/2-z
1/2-x,y,1/2+z
x,1/2-y,1/2+z
1/2-y,1/2-x,z
y,x,z
loop_
_atom_site_type_symbol
_atom_site_label
_atom_site_fract_x
_atom_site_fract_y
_atom_site_fract_z
Si Si1 0.478374 0.257632 0.428409
Si Si2 0.571012 0.203085 0.179548
Si Si3 0.657715 0.948943 0.330380
Si Si4 0.397425 0.652500 0.841869
O O1 0.521657 0.214821 0.316181
O O2 0.527819 0.298003 0.531823
O O3 0.440957 0.209627 0.537442
O O4 0.438025 0.304999 0.324369
O O5 0.615289 0.142603 0.216556
O O6 0.610609 0.270216 0.170289
O O7 0.596862 0.903139 0.347454
O O8 0.640955 0.025535 0.332013
O O9 0.371594 0.628407 0.000000
#
# Coordination Sequence:
#
# PCOD9570568 Si02
#       4
#    16  16  16  16
#     4   8  18  35  54  75 113 142 172 215 279 334
#     4  10  17  33  51  73 109 154 183 222 261 296
#     4  10  20  36  61  82 104 141 178 221 272 330
#     4  10  19  34  51  79 111 146 190 224 261 310
#
# _framework density 16.526413000000002
#
# number of rings (size 3 to 8) (size 9 to 14) (size 15 to 20)
#    0.000    3.000    5.000    0.000    0.000    5.000 
#    0.000    8.750    0.000    2.250    0.000    0.000 
#    0.000    0.000    0.000    0.000    0.000    0.000 
#
# Total GULP energy -356408.193855 kJ/mol
# GULP energy per Si atom -5568.878029 kJ/mol
# Density = 1.648880 g / cm^3
# Si number density = 16.526413 Si / 1000 Ang^3
#
#
#
# Elastic Constant Matrix: (Units=GPa)
#
#
# Indices 1 2 3 4 5 6 
#
# 1 64.7262 51.5546 24.7951 0.0000 0.0000 0.0000
# 2 51.5546 64.7251 24.7947 0.0000 0.0000 0.0000
# 3 24.7951 24.7947 93.4635 0.0000 0.0000 0.0000
# 4 0.0000 0.0000 0.0000 14.6005 0.0000 0.0000
# 5 0.0000 0.0000 0.0000 0.0000 14.6009 0.0000
# 6 0.0000 0.0000 0.0000 0.0000 0.0000 -52.4035
#
#
#
# Elastic Compliance Matrix: (Units=1/GPa)
#
#
# Indices 1 2 3 4 5 6 
#
# 1 0.042810 -0.033114 -0.002573 0.000000 0.000000 0.000000
# 2 -0.033114 0.042811 -0.002572 0.000000 0.000000 0.000000
# 3 -0.002573 -0.002572 0.012064 0.000000 0.000000 0.000000
# 4 0.000000 0.000000 0.000000 0.068491 0.000000 0.000000
# 5 0.000000 0.000000 0.000000 0.000000 0.068489 0.000000
# 6 0.000000 0.000000 0.000000 0.000000 0.000000 -0.019083
#
#
# Mechanical properties :
#
#
# Convention : Reuss Voigt Hill
#
# Bulk Modulus (GPa) = 47.24060 47.24486 47.24273
# Shear Modulus (GPa) = 16.71369 3.47759 10.09564
#
# Velocity S-wave (km/s) = 3.18359 1.45218 2.47428
# Velocity P-wave (km/s) = 6.49312 5.60904 6.06721
#
# Compressibility (1/GPa) = 0.02116823
#
# Stress axis : x y z
#
# Youngs Moduli (GPa) = 23.35884 23.35850 82.88925
#
# Poissons Ratio (x) = 0.77349 0.21324
# Poissons Ratio (y) = 0.77350 0.21323
# Poissons Ratio (z) = 0.06009 0.06009
#
# Static dielectric constant tensor:
#      x y z
#    x 1.542510 0.000000 0.000000 
#    y 0.000000 1.542510 0.000000 
#    z 0.000000 0.000000 1.603400 
# 
# From -- ./inp_files/1410.got.cif
#   From: 2010.05.17/outbox.cif.g08.bks.cpg/sg138_1_cif.got.tgz:1410.got - 2010.05.20 13:08:53.
