data_PCOD9570760
_publ_section_title
;
Structure prediction by ZEFSAII (Michael W. Deem and Ramdas Pophale) SiO2 
 PCOD9570760
Probable space group: P 42/N C M
;
_chemical_formula_sum "Si O2"
_cell_formula_units_Z 96
_cell_length_a 16.413463
_cell_length_b 16.413463
_cell_length_c 20.461000
_cell_angle_alpha 90.000000
_cell_angle_beta 90.000000
_cell_angle_gamma 90.000000
_cell_volume 5512.229568
_symmetry_space_group_name_H-M "P 42/N C M"
_symmetry_group_IT_number 138
_space_group.IT_coordinate_system_code '2'
_symmetry_cell_setting 'tetragonal'
loop_
_space_group_symop_operation_xyz
x,y,z
1/2-y,x,1/2+z
1/2-x,1/2-y,z
y,1/2-x,1/2+z
1/2+x,-y,1/2-z
-x,1/2+y,1/2-z
1/2+y,1/2+x,-z
-y,-x,-z
-x,-y,-z
1/2+y,-x,1/2-z
1/2+x,1/2+y,-z
-y,1/2+x,1/2-z
1/2-x,y,1/2+z
x,1/2-y,1/2+z
1/2-y,1/2-x,z
y,x,z
loop_
_atom_site_type_symbol
_atom_site_label
_atom_site_fract_x
_atom_site_fract_y
_atom_site_fract_z
Si Si1 0.447175 0.188838 0.196103
Si Si2 0.746598 0.616261 0.540629
Si Si3 0.947996 0.419342 0.790126
Si Si4 0.821126 0.959756 0.917516
Si Si5 0.006537 0.247179 0.337406
Si Si6 0.577429 0.442497 0.137375
O O1 0.366979 0.133022 0.190118
O O2 0.524418 0.128003 0.189724
O O3 0.451701 0.257714 0.141537
O O4 0.452628 0.226411 0.268749
O O5 0.821639 0.678362 0.551647
O O6 0.671162 0.671162 0.516947
O O7 0.774663 0.552959 0.485447
O O8 0.725924 0.572484 0.607975
O O9 0.951404 0.330957 0.821896
O O10 0.943677 0.414029 0.711285
O O11 0.029691 0.470310 0.806149
O O12 0.886525 0.886525 0.911712
O O13 0.874325 0.041521 0.910404
O O14 0.959645 0.327019 0.363693
O O15 0.526477 0.526477 0.126674
#
# Coordination Sequence:
#
# PCOD9570760 Si02
#       6
#    16  16  16  16  16  16
#     4  10  20  34  55  80 106 140 184 225 265 320
#     4  10  21  34  50  80 115 141 175 226 277 326
#     4   9  18  33  52  78 110 138 175 228 270 316
#     4  10  20  36  55  75 109 146 178 221 270 324
#     4  11  19  33  55  77 106 142 177 224 275 317
#     4   9  18  33  53  78 105 139 185 225 262 316
#
# _framework density 17.415821000000001
#
# number of rings (size 3 to 8) (size 9 to 14) (size 15 to 20)
#    0.000    2.167    1.667    3.500    0.000    2.333 
#    0.000    4.167    0.000    3.000    0.000    2.333 
#    0.000    0.000    0.000    0.000    0.000    0.000 
#
# Total GULP energy -535623.776700 kJ/mol
# GULP energy per Si atom -5579.414341 kJ/mol
# Density = 1.737618 g / cm^3
# Si number density = 17.415821 Si / 1000 Ang^3
#
#
#
# Elastic Constant Matrix: (Units=GPa)
#
#
# Indices 1 2 3 4 5 6 
#
# 1 65.6516 6.8280 18.1453 0.0000 0.0000 0.0000
# 2 6.8280 65.6516 18.1453 0.0000 0.0000 0.0000
# 3 18.1453 18.1453 45.5995 0.0000 0.0000 0.0000
# 4 0.0000 0.0000 0.0000 22.5234 0.0000 0.0000
# 5 0.0000 0.0000 0.0000 0.0000 22.5234 0.0000
# 6 0.0000 0.0000 0.0000 0.0000 0.0000 10.1762
#
#
#
# Elastic Compliance Matrix: (Units=1/GPa)
#
#
# Indices 1 2 3 4 5 6 
#
# 1 0.017115 0.000115 -0.006856 0.000000 0.000000 0.000000
# 2 0.000115 0.017115 -0.006856 0.000000 0.000000 0.000000
# 3 -0.006856 -0.006856 0.027387 0.000000 0.000000 0.000000
# 4 0.000000 0.000000 0.000000 0.044398 0.000000 0.000000
# 5 0.000000 0.000000 0.000000 0.000000 0.044398 0.000000
# 6 0.000000 0.000000 0.000000 0.000000 0.000000 0.098269
#
#
# Mechanical properties :
#
#
# Convention : Reuss Voigt Hill
#
# Bulk Modulus (GPa) = 29.05164 29.23776 29.14470
# Shear Modulus (GPa) = 17.40032 19.96352 18.68192
#
# Velocity S-wave (km/s) = 3.16430 3.38936 3.27876
# Velocity P-wave (km/s) = 5.48341 5.66935 5.57715
#
# Compressibility (1/GPa) = 0.03442147
#
# Stress axis : x y z
#
# Youngs Moduli (GPa) = 58.42845 58.42845 36.51410
#
# Poissons Ratio (x) = -0.00672 0.25035
# Poissons Ratio (y) = -0.00672 0.25035
# Poissons Ratio (z) = 0.40060 0.40060
#
# Static dielectric constant tensor:
#      x y z
#    x 1.589030 0.000000 0.000000 
#    y 0.000000 1.589030 0.000000 
#    z 0.000000 0.000000 1.579840 
# 
# From -- ./inp_files/6240.got.cif
#   From: 2010.05.17/outbox.cif.g08.bks.cpg/sg138_4_cif.got.tgz:6240.got - 2010.05.20 13:08:53.
