data_PCOD9570374
_publ_section_title
;
Structure prediction by ZEFSAII (Michael W. Deem and Ramdas Pophale) SiO2 
 PCOD9570374
Probable space group: P 42/N M C
;
_chemical_formula_sum "Si O2"
_cell_formula_units_Z 112
_cell_length_a 15.110870
_cell_length_b 15.110870
_cell_length_c 23.282581
_cell_angle_alpha 90.000000
_cell_angle_beta 90.000000
_cell_angle_gamma 90.000000
_cell_volume 5316.307111
_symmetry_space_group_name_H-M "P 42/N M C"
_symmetry_group_IT_number 137
_space_group.IT_coordinate_system_code '2'
_symmetry_cell_setting 'tetragonal'
loop_
_space_group_symop_operation_xyz
x,y,z
1/2-y,x,1/2+z
1/2-x,1/2-y,z
y,1/2-x,1/2+z
1/2+x,-y,-z
-x,1/2+y,-z
1/2+y,1/2+x,1/2-z
-y,-x,1/2-z
-x,-y,-z
1/2+y,-x,1/2-z
1/2+x,1/2+y,-z
-y,1/2+x,1/2-z
1/2-x,y,z
x,1/2-y,z
1/2-y,1/2-x,1/2+z
y,x,1/2+z
loop_
_atom_site_type_symbol
_atom_site_label
_atom_site_fract_x
_atom_site_fract_y
_atom_site_fract_z
Si Si1 0.354403 0.032458 0.461135
Si Si2 0.847373 0.351372 0.680690
Si Si3 0.353976 0.847705 0.512399
Si Si4 0.540616 0.921924 0.334045
Si Si5 0.150478 0.507400 0.759723
Si Si6 0.104466 0.512529 0.887837
Si Si7 0.653480 0.853113 0.930965
O O1 0.250000 0.044395 0.448609
O O2 0.373796 0.928270 0.469412
O O3 0.420418 0.078857 0.417542
O O4 0.373188 0.078548 0.522540
O O5 0.846260 0.346260 0.750000
O O6 0.750000 0.386113 0.662026
O O7 0.855110 0.250000 0.659765
O O8 0.936097 0.404494 0.667356
O O9 0.250000 0.858552 0.529669
O O10 0.363156 0.750000 0.486347
O O11 0.420390 0.853720 0.566271
O O12 0.588868 0.852050 0.374097
O O13 0.586801 0.936352 0.272258
O O14 0.557159 0.013831 0.366510
O O15 0.101516 0.601516 0.750000
O O16 0.250000 0.504752 0.736124
O O17 0.153386 0.494419 0.828091
O O18 0.750000 0.865393 0.958797
O O19 0.644170 0.750000 0.915177
#
# Coordination Sequence:
#
# PCOD9570374 Si02
#       7
#    16  16  16  16  16  16  16
#     4  10  22  42  63  89 124 162 210 266 320 384
#     4   9  18  34  56  82 113 152 203 259 311 368
#     4  10  21  38  63  93 124 161 205 259 321 380
#     4  11  21  37  60  86 125 164 210 255 312 373
#     4  10  23  40  61  92 129 171 215 261 314 379
#     4  11  22  38  61  91 124 164 206 255 318 377
#     4  10  21  37  60  88 117 157 207 259 317 383
#
# _framework density 21.067253999999998
#
# number of rings (size 3 to 8) (size 9 to 14) (size 15 to 20)
#    0.000    1.857    1.429    3.429    0.000    4.143 
#    0.000    2.143    0.000    4.286    0.000    2.000 
#    0.000    0.000    0.000    0.000    0.000    0.000 
#
# Total GULP energy -625244.046248 kJ/mol
# GULP energy per Si atom -5582.536127 kJ/mol
# Density = 2.101930 g / cm^3
# Si number density = 21.067254 Si / 1000 Ang^3
#
#
#
# Elastic Constant Matrix: (Units=GPa)
#
#
# Indices 1 2 3 4 5 6 
#
# 1 102.0194 47.8830 40.7710 0.0000 0.0000 0.0000
# 2 47.8830 102.0194 40.7710 0.0000 0.0000 0.0000
# 3 40.7710 40.7710 84.2779 0.0000 0.0000 0.0000
# 4 0.0000 0.0000 0.0000 12.6688 0.0000 0.0000
# 5 0.0000 0.0000 0.0000 0.0000 12.6688 0.0000
# 6 0.0000 0.0000 0.0000 0.0000 0.0000 26.0271
#
#
#
# Elastic Compliance Matrix: (Units=1/GPa)
#
#
# Indices 1 2 3 4 5 6 
#
# 1 0.013763 -0.004709 -0.004380 0.000000 0.000000 0.000000
# 2 -0.004709 0.013763 -0.004380 0.000000 0.000000 0.000000
# 3 -0.004380 -0.004380 0.016103 0.000000 0.000000 0.000000
# 4 0.000000 0.000000 0.000000 0.078934 0.000000 0.000000
# 5 0.000000 0.000000 0.000000 0.000000 0.078934 0.000000
# 6 0.000000 0.000000 0.000000 0.000000 0.000000 0.038421
#
#
# Mechanical properties :
#
#
# Convention : Reuss Voigt Hill
#
# Bulk Modulus (GPa) = 59.91285 60.79630 60.35457
# Shear Modulus (GPa) = 18.35407 20.86572 19.60990
#
# Velocity S-wave (km/s) = 2.95483 3.15053 3.05425
# Velocity P-wave (km/s) = 6.33577 6.49271 6.41472
#
# Compressibility (1/GPa) = 0.01669091
#
# Stress axis : x y z
#
# Youngs Moduli (GPa) = 72.66035 72.66035 62.09976
#
# Poissons Ratio (x) = 0.34217 0.27198
# Poissons Ratio (y) = 0.34217 0.27198
# Poissons Ratio (z) = 0.31824 0.31824
#
# Static dielectric constant tensor:
#      x y z
#    x 1.768350 0.000000 0.000000 
#    y 0.000000 1.768350 0.000000 
#    z 0.000000 0.000000 1.776670 
# 
# From -- ./inp_files/8994.got.cif
#   From: 2010.05.17/outbox.cif.g08.bks.cpg/sg137_5_cif.got.tgz:8994.got - 2010.05.20 13:01:12.
