data_PCOD9570456
_publ_section_title
;
Structure prediction by ZEFSAII (Michael W. Deem and Ramdas Pophale) SiO2 
 PCOD9570456
Probable space group: P 42/N M C
;
_chemical_formula_sum "Si O2"
_cell_formula_units_Z 96
_cell_length_a 15.096233
_cell_length_b 15.096233
_cell_length_c 20.628671
_cell_angle_alpha 90.000000
_cell_angle_beta 90.000000
_cell_angle_gamma 90.000000
_cell_volume 4701.196780
_symmetry_space_group_name_H-M "P 42/N M C"
_symmetry_group_IT_number 137
_space_group.IT_coordinate_system_code '2'
_symmetry_cell_setting 'tetragonal'
loop_
_space_group_symop_operation_xyz
x,y,z
1/2-y,x,1/2+z
1/2-x,1/2-y,z
y,1/2-x,1/2+z
1/2+x,-y,-z
-x,1/2+y,-z
1/2+y,1/2+x,1/2-z
-y,-x,1/2-z
-x,-y,-z
1/2+y,-x,1/2-z
1/2+x,1/2+y,-z
-y,1/2+x,1/2-z
1/2-x,y,z
x,1/2-y,z
1/2-y,1/2-x,1/2+z
y,x,1/2+z
loop_
_atom_site_type_symbol
_atom_site_label
_atom_site_fract_x
_atom_site_fract_y
_atom_site_fract_z
Si Si1 0.144167 0.855834 0.750000
Si Si2 0.602519 0.991666 0.484655
Si Si3 0.849892 0.855173 0.096321
Si Si4 0.904811 0.095190 0.750000
Si Si5 0.006740 0.151373 0.155922
Si Si6 0.851653 0.250000 0.841754
Si Si7 0.750000 0.357652 0.504220
Si Si8 0.643816 0.601817 0.742951
O O1 0.250000 0.869188 0.761033
O O2 0.081773 0.885229 0.809582
O O3 0.632939 0.919428 0.537951
O O4 0.606807 0.961533 0.409851
O O5 0.500000 0.000000 0.500000
O O6 0.662660 0.082075 0.487126
O O7 0.750000 0.891394 0.084153
O O8 0.841436 0.750000 0.103011
O O9 0.884204 0.883711 0.167737
O O10 0.889741 0.162547 0.808956
O O11 0.004561 0.116457 0.732591
O O12 0.981120 0.250000 0.135644
O O13 0.083466 0.157776 0.209195
O O14 0.750000 0.250000 0.823732
O O15 0.859387 0.250000 0.917943
O O16 0.750000 0.250000 0.484958
O O17 0.750000 0.615279 0.748356
#
# Coordination Sequence:
#
# PCOD9570456 Si02
#       8
#     8  16  16   8  16   8   8  16
#     4   9  21  42  69  99 130 174 224 282 346 411
#     4  12  27  46  70 103 140 187 240 295 360 435
#     4  10  22  45  73  98 134 184 235 283 348 426
#     4  12  20  36  61  97 140 176 218 292 342 426
#     4  11  24  44  66  96 137 173 227 287 349 409
#     4  11  20  36  60  95 135 181 227 271 354 427
#     4  11  26  48  73 101 147 195 240 299 363 441
#     4  11  24  39  66 101 136 175 228 283 348 412
#
# _framework density 20.420331000000001
#
# number of rings (size 3 to 8) (size 9 to 14) (size 15 to 20)
#    0.000    1.083    3.333    2.000    7.000    3.000 
#    0.000    0.000    0.000    0.000    0.000    0.000 
#    0.000    0.000    0.000    0.000    0.000    0.000 
#
# Total GULP energy -535021.766260 kJ/mol
# GULP energy per Si atom -5573.143399 kJ/mol
# Density = 2.037385 g / cm^3
# Si number density = 20.420331 Si / 1000 Ang^3
#
#
#
# Elastic Constant Matrix: (Units=GPa)
#
#
# Indices 1 2 3 4 5 6 
#
# 1 140.5397 10.0281 43.1726 0.0000 0.0000 0.0000
# 2 10.0281 140.5348 43.1729 0.0000 0.0000 0.0000
# 3 43.1726 43.1729 154.1787 0.0000 0.0000 0.0000
# 4 0.0000 0.0000 0.0000 22.5405 0.0000 0.0000
# 5 0.0000 0.0000 0.0000 0.0000 22.5274 0.0000
# 6 0.0000 0.0000 0.0000 0.0000 0.0000 17.3511
#
#
#
# Elastic Compliance Matrix: (Units=1/GPa)
#
#
# Indices 1 2 3 4 5 6 
#
# 1 0.007787 0.000125 -0.002216 0.000000 0.000000 0.000000
# 2 0.000125 0.007787 -0.002216 0.000000 0.000000 0.000000
# 3 -0.002216 -0.002216 0.007727 0.000000 0.000000 0.000000
# 4 0.000000 0.000000 0.000000 0.044364 0.000000 0.000000
# 5 0.000000 0.000000 0.000000 0.000000 0.044390 0.000000
# 6 0.000000 0.000000 0.000000 0.000000 0.000000 0.057633
#
#
# Mechanical properties :
#
#
# Convention : Reuss Voigt Hill
#
# Bulk Modulus (GPa) = 68.07839 69.77782 68.92811
# Shear Modulus (GPa) = 27.29286 35.07578 31.18432
#
# Velocity S-wave (km/s) = 3.65986 4.14900 3.91208
# Velocity P-wave (km/s) = 7.16033 7.56288 7.36436
#
# Compressibility (1/GPa) = 0.01468895
#
# Stress axis : x y z
#
# Youngs Moduli (GPa) = 128.41755 128.41249 129.42017
#
# Poissons Ratio (x) = -0.01605 0.28673
# Poissons Ratio (y) = -0.01605 0.28674
# Poissons Ratio (z) = 0.28451 0.28451
#
# Static dielectric constant tensor:
#      x y z
#    x 2.388650 0.000000 0.000000 
#    y 0.000000 2.387290 0.000000 
#    z 0.000000 0.000000 1.764600 
# 
# From -- ./inp_files/7928.got.cif
#   From: 2010.05.17/outbox.cif.g08.bks.cpg/sg137_4_cif.got.tgz:7928.got - 2010.05.20 13:01:12.
