data_PCOD9570602
_publ_section_title
;
Structure prediction by ZEFSAII (Michael W. Deem and Ramdas Pophale) SiO2 
 PCOD9570602
Probable space group: P 42/N C M
;
_chemical_formula_sum "Si O2"
_cell_formula_units_Z 92
_cell_length_a 29.494526
_cell_length_b 29.494526
_cell_length_c 7.750529
_cell_angle_alpha 90.000000
_cell_angle_beta 90.000000
_cell_angle_gamma 90.000000
_cell_volume 6742.394937
_symmetry_space_group_name_H-M "P 42/N C M"
_symmetry_group_IT_number 138
_space_group.IT_coordinate_system_code '2'
_symmetry_cell_setting 'tetragonal'
loop_
_space_group_symop_operation_xyz
x,y,z
1/2-y,x,1/2+z
1/2-x,1/2-y,z
y,1/2-x,1/2+z
1/2+x,-y,1/2-z
-x,1/2+y,1/2-z
1/2+y,1/2+x,-z
-y,-x,-z
-x,-y,-z
1/2+y,-x,1/2-z
1/2+x,1/2+y,-z
-y,1/2+x,1/2-z
1/2-x,y,1/2+z
x,1/2-y,1/2+z
1/2-y,1/2-x,z
y,x,z
loop_
_atom_site_type_symbol
_atom_site_label
_atom_site_fract_x
_atom_site_fract_y
_atom_site_fract_z
Si Si1 0.191123 0.191123 0.335689
Si Si2 0.396888 0.287799 0.155004
Si Si3 0.538809 0.614551 0.356958
Si Si4 0.127557 0.450810 0.751403
Si Si5 0.250000 0.250000 0.582631
Si Si6 0.186334 0.113008 0.760465
Si Si7 0.503141 0.074634 0.458283
O O1 0.138917 0.199748 0.304259
O O2 0.216177 0.216177 0.487760
O O3 0.216868 0.216868 0.181562
O O4 0.438346 0.321281 0.196462
O O5 0.398907 0.233507 0.167123
O O6 0.381295 0.302296 0.963314
O O7 0.569893 0.569893 0.371720
O O8 0.529536 0.627311 0.554760
O O9 0.571272 0.652364 0.271049
O O10 0.499571 0.601956 0.221855
O O11 0.095106 0.404895 0.747563
O O12 0.105643 0.484906 0.613943
O O13 0.158057 0.158057 0.704252
O O14 0.465778 0.034223 0.445172
O O15 0.550416 0.050416 0.500000
#
# Coordination Sequence:
#
# PCOD9570602 Si02
#       7
#     8  16  16  16   4  16  16
#     4  11  22  34  42  54  73 101 136 186 234 271
#     4  12  21  33  46  57  78 111 144 186 231 269
#     4   9  18  31  47  64  85 106 132 167 208 261
#     4  10  18  32  47  63  84 108 134 170 217 266
#     4  10  24  34  40  54  76  94 136 198 232 272
#     4  11  22  35  44  60  80 110 148 188 228 274
#     4   9  17  30  49  68  88 107 127 162 212 268
#
# _framework density 13.645003000000001
#
# number of rings (size 3 to 8) (size 9 to 14) (size 15 to 20)
#    0.000    1.739    3.478    2.087    2.435    0.696 
#    1.565    3.478    0.000    0.000    0.000    0.000 
#    0.000    0.000    0.000    0.000    0.000    0.000 
#
# Total GULP energy -512774.964361 kJ/mol
# GULP energy per Si atom -5573.640917 kJ/mol
# Density = 1.361395 g / cm^3
# Si number density = 13.645003 Si / 1000 Ang^3
#
#
#
# Elastic Constant Matrix: (Units=GPa)
#
#
# Indices 1 2 3 4 5 6 
#
# 1 41.2107 35.4036 23.4510 0.0000 0.0000 0.0000
# 2 35.4036 41.2107 23.4510 0.0000 0.0000 0.0000
# 3 23.4510 23.4510 64.7902 0.0000 0.0000 0.0000
# 4 0.0000 0.0000 0.0000 11.5767 0.0000 0.0000
# 5 0.0000 0.0000 0.0000 0.0000 11.5767 0.0000
# 6 0.0000 0.0000 0.0000 0.0000 0.0000 25.9830
#
#
#
# Elastic Compliance Matrix: (Units=1/GPa)
#
#
# Indices 1 2 3 4 5 6 
#
# 1 0.094485 -0.077717 -0.006069 0.000000 0.000000 0.000000
# 2 -0.077717 0.094485 -0.006069 0.000000 0.000000 0.000000
# 3 -0.006069 -0.006069 0.019828 0.000000 0.000000 0.000000
# 4 0.000000 0.000000 0.000000 0.086381 0.000000 0.000000
# 5 0.000000 0.000000 0.000000 0.000000 0.086381 0.000000
# 6 0.000000 0.000000 0.000000 0.000000 0.000000 0.038487
#
#
# Mechanical properties :
#
#
# Convention : Reuss Voigt Hill
#
# Bulk Modulus (GPa) = 34.37968 34.64697 34.51332
# Shear Modulus (GPa) = 8.20408 14.15434 11.17921
#
# Velocity S-wave (km/s) = 2.45470 3.22425 2.86543
# Velocity P-wave (km/s) = 5.76928 6.26960 6.02464
#
# Compressibility (1/GPa) = 0.02908695
#
# Stress axis : x y z
#
# Youngs Moduli (GPa) = 10.58369 10.58369 50.43389
#
# Poissons Ratio (x) = 0.82253 0.30609
# Poissons Ratio (y) = 0.82253 0.30609
# Poissons Ratio (z) = 0.06423 0.06423
#
# Static dielectric constant tensor:
#      x y z
#    x 1.438050 0.000000 0.000000 
#    y 0.000000 1.438050 0.000000 
#    z 0.000000 0.000000 1.530410 
# 
# From -- ./inp_files/1860.got.cif
#   From: 2010.05.17/outbox.cif.g08.bks.cpg/sg138_1_cif.got.tgz:1860.got - 2010.05.20 13:08:53.
