data_PCOD9570046
_publ_section_title
;
Structure prediction by ZEFSAII (Michael W. Deem and Ramdas Pophale) SiO2 
 PCOD9570046
Probable space group: P 42/N M C
;
_chemical_formula_sum "Si O2"
_cell_formula_units_Z 80
_cell_length_a 15.681371
_cell_length_b 15.681371
_cell_length_c 18.578571
_cell_angle_alpha 90.000000
_cell_angle_beta 90.000000
_cell_angle_gamma 90.000000
_cell_volume 4568.570867
_symmetry_space_group_name_H-M "P 42/N M C"
_symmetry_group_IT_number 137
_space_group.IT_coordinate_system_code '2'
_symmetry_cell_setting 'tetragonal'
loop_
_space_group_symop_operation_xyz
x,y,z
1/2-y,x,1/2+z
1/2-x,1/2-y,z
y,1/2-x,1/2+z
1/2+x,-y,-z
-x,1/2+y,-z
1/2+y,1/2+x,1/2-z
-y,-x,1/2-z
-x,-y,-z
1/2+y,-x,1/2-z
1/2+x,1/2+y,-z
-y,1/2+x,1/2-z
1/2-x,y,z
x,1/2-y,z
1/2-y,1/2-x,1/2+z
y,x,1/2+z
loop_
_atom_site_type_symbol
_atom_site_label
_atom_site_fract_x
_atom_site_fract_y
_atom_site_fract_z
Si Si1 0.346112 0.509983 0.126456
Si Si2 0.564100 0.847977 0.930916
Si Si3 0.346125 0.410672 0.269983
Si Si4 0.347368 0.517887 0.412862
Si Si5 0.654821 0.478109 0.282198
O O1 0.250000 0.536429 0.111016
O O2 0.367749 0.420845 0.086745
O O3 0.353274 0.487036 0.211250
O O4 0.411880 0.581782 0.103019
O O5 0.596206 0.750000 0.925849
O O6 0.493754 0.857558 0.867558
O O7 0.523988 0.860466 0.009194
O O8 0.250000 0.374246 0.260571
O O9 0.353539 0.447801 0.349785
O O10 0.426973 0.352687 0.251680
O O11 0.250000 0.551770 0.410446
O O12 0.582705 0.417296 0.250000
O O13 0.750000 0.444488 0.269385
#
# Coordination Sequence:
#
# PCOD9570046 Si02
#       5
#    16  16  16  16  16
#     4  10  19  31  50  75 101 128 161 202 246 296
#     4   9  19  35  53  71  94 130 169 204 248 295
#     4   9  18  33  54  77  99 128 166 206 248 295
#     4  10  19  33  52  72 100 134 164 198 244 301
#     4  10  20  35  54  74 100 134 172 212 250 294
#
# _framework density 17.510947000000002
#
# number of rings (size 3 to 8) (size 9 to 14) (size 15 to 20)
#    0.000    2.400    0.000    3.600    0.000    1.400 
#    0.000    8.000    0.000   10.800    0.000    0.000 
#    0.000    0.000    0.000    0.000    0.000    0.000 
#
# Total GULP energy -445921.990362 kJ/mol
# GULP energy per Si atom -5574.024880 kJ/mol
# Density = 1.747109 g / cm^3
# Si number density = 17.510947 Si / 1000 Ang^3
#
#
#
# Elastic Constant Matrix: (Units=GPa)
#
#
# Indices 1 2 3 4 5 6 
#
# 1 51.3026 24.8524 38.6802 0.0000 0.0000 0.0000
# 2 24.8524 51.3005 38.6788 0.0000 0.0000 0.0000
# 3 38.6802 38.6788 124.4113 0.0000 0.0000 0.0000
# 4 0.0000 0.0000 0.0000 11.2735 0.0000 0.0000
# 5 0.0000 0.0000 0.0000 0.0000 11.2736 0.0000
# 6 0.0000 0.0000 0.0000 0.0000 0.0000 -0.8520
#
#
#
# Elastic Compliance Matrix: (Units=1/GPa)
#
#
# Indices 1 2 3 4 5 6 
#
# 1 0.028500 -0.009308 -0.005967 0.000000 0.000000 0.000000
# 2 -0.009308 0.028501 -0.005967 0.000000 0.000000 0.000000
# 3 -0.005967 -0.005967 0.011748 0.000000 0.000000 0.000000
# 4 0.000000 0.000000 0.000000 0.088704 0.000000 0.000000
# 5 0.000000 0.000000 0.000000 0.000000 0.088703 0.000000
# 6 0.000000 0.000000 0.000000 0.000000 0.000000 -1.173775
#
#
# Mechanical properties :
#
#
# Convention : Reuss Voigt Hill
#
# Bulk Modulus (GPa) = 38.07269 47.93747 43.00508
# Shear Modulus (GPa) = -5.70529 12.65923 3.47697
#
# Velocity S-wave (km/s) = -1.80699 2.69166 1.41064
# Velocity P-wave (km/s) = 4.17562 6.09058 5.22164
#
# Compressibility (1/GPa) = 0.02626555
#
# Stress axis : x y z
#
# Youngs Moduli (GPa) = 35.08760 35.08645 85.11962
#
# Poissons Ratio (x) = 0.32658 0.50792
# Poissons Ratio (y) = 0.32659 0.50791
# Poissons Ratio (z) = 0.20937 0.20936
#
# Static dielectric constant tensor:
#      x y z
#    x 1.584710 0.000000 0.000000 
#    y 0.000000 1.584710 0.000000 
#    z 0.000000 0.000000 1.593150 
# 
# From -- ./inp_files/7596.got.cif
#   From: 2010.05.17/outbox.cif.g08.bks.cpg/sg137_4_cif.got.tgz:7596.got - 2010.05.20 13:01:12.
