data_PCOD9570409
_publ_section_title
;
Structure prediction by ZEFSAII (Michael W. Deem and Ramdas Pophale) SiO2 
 PCOD9570409
Probable space group: P 42/N M C
;
_chemical_formula_sum "Si O2"
_cell_formula_units_Z 42
_cell_length_a 8.074125
_cell_length_b 8.074125
_cell_length_c 32.330568
_cell_angle_alpha 90.000000
_cell_angle_beta 90.000000
_cell_angle_gamma 90.000000
_cell_volume 2107.678046
_symmetry_space_group_name_H-M "P 42/N M C"
_symmetry_group_IT_number 137
_space_group.IT_coordinate_system_code '2'
_symmetry_cell_setting 'tetragonal'
loop_
_space_group_symop_operation_xyz
x,y,z
1/2-y,x,1/2+z
1/2-x,1/2-y,z
y,1/2-x,1/2+z
1/2+x,-y,-z
-x,1/2+y,-z
1/2+y,1/2+x,1/2-z
-y,-x,1/2-z
-x,-y,-z
1/2+y,-x,1/2-z
1/2+x,1/2+y,-z
-y,1/2+x,1/2-z
1/2-x,y,z
x,1/2-y,z
1/2-y,1/2-x,1/2+z
y,x,1/2+z
loop_
_atom_site_type_symbol
_atom_site_label
_atom_site_fract_x
_atom_site_fract_y
_atom_site_fract_z
Si Si1 0.562178 0.051992 0.544994
Si Si2 0.250000 0.750000 0.250000
Si Si3 0.928903 0.447647 0.368555
Si Si4 0.750000 0.546298 0.685071
O O1 0.750000 0.990138 0.550596
O O2 0.562419 0.250000 0.546702
O O3 0.500000 0.000000 0.500000
O O4 0.456251 0.988355 0.583347
O O5 0.420870 0.750000 0.223537
O O6 0.750000 0.515528 0.354895
O O7 0.923816 0.250000 0.364750
O O8 0.087479 0.498580 0.341944
O O9 0.750000 0.750000 0.692779
#
# Coordination Sequence:
#
# PCOD9570409 Si02
#       4
#    16   2  16   8
#     4  11  23  36  54  84 125 168 218 269 317 380
#     4  12  28  44  76 104 132 164 236 268 332 432
#     4  10  21  39  64  91 124 169 215 259 326 394
#     4  10  24  46  68  98 136 170 208 280 338 386
#
# _framework density 19.927140999999999
#
# number of rings (size 3 to 8) (size 9 to 14) (size 15 to 20)
#    0.000    1.524    1.905    2.286    2.667    9.143 
#    0.000    0.000    0.000    0.000    0.000    0.000 
#    0.000    0.000    0.000    0.000    0.000    0.000 
#
# Total GULP energy -234487.201891 kJ/mol
# GULP energy per Si atom -5583.028616 kJ/mol
# Density = 1.988179 g / cm^3
# Si number density = 19.927141 Si / 1000 Ang^3
#
#
#
# Elastic Constant Matrix: (Units=GPa)
#
#
# Indices 1 2 3 4 5 6 
#
# 1 99.7953 34.9298 48.4579 0.0000 0.0000 0.0000
# 2 34.9298 99.7953 48.4579 0.0000 0.0000 0.0000
# 3 48.4579 48.4579 116.4727 0.0000 0.0000 0.0000
# 4 0.0000 0.0000 0.0000 37.3917 0.0000 0.0000
# 5 0.0000 0.0000 0.0000 0.0000 37.3917 0.0000
# 6 0.0000 0.0000 0.0000 0.0000 0.0000 15.7999
#
#
#
# Elastic Compliance Matrix: (Units=1/GPa)
#
#
# Indices 1 2 3 4 5 6 
#
# 1 0.013005 -0.002412 -0.004407 0.000000 0.000000 0.000000
# 2 -0.002412 0.013005 -0.004407 0.000000 0.000000 0.000000
# 3 -0.004407 -0.004407 0.012253 0.000000 0.000000 0.000000
# 4 0.000000 0.000000 0.000000 0.026744 0.000000 0.000000
# 5 0.000000 0.000000 0.000000 0.000000 0.026744 0.000000
# 6 0.000000 0.000000 0.000000 0.000000 0.000000 0.063291
#
#
# Mechanical properties :
#
#
# Convention : Reuss Voigt Hill
#
# Bulk Modulus (GPa) = 63.25087 64.41718 63.83402
# Shear Modulus (GPa) = 27.35776 30.39784 28.87780
#
# Velocity S-wave (km/s) = 3.70927 3.90994 3.81093
# Velocity P-wave (km/s) = 7.08201 7.26499 7.17408
#
# Compressibility (1/GPa) = 0.01581006
#
# Stress axis : x y z
#
# Youngs Moduli (GPa) = 76.89553 76.89553 81.61396
#
# Poissons Ratio (x) = 0.18546 0.35968
# Poissons Ratio (y) = 0.18546 0.35968
# Poissons Ratio (z) = 0.33889 0.33889
#
# Static dielectric constant tensor:
#      x y z
#    x 1.714680 0.000000 0.000000 
#    y 0.000000 1.714680 0.000000 
#    z 0.000000 0.000000 1.768870 
# 
# From -- ./inp_files/9319.got.cif
#   From: 2010.05.17/outbox.cif.g08.bks.cpg/sg137_5_cif.got.tgz:9319.got - 2010.05.20 13:01:12.
