data_PCOD9570070
_publ_section_title
;
Structure prediction by ZEFSAII (Michael W. Deem and Ramdas Pophale) SiO2 
 PCOD9570070
Probable space group: P 42/N M C
;
_chemical_formula_sum "Si O2"
_cell_formula_units_Z 80
_cell_length_a 14.326514
_cell_length_b 14.326514
_cell_length_c 21.098080
_cell_angle_alpha 90.000000
_cell_angle_beta 90.000000
_cell_angle_gamma 90.000000
_cell_volume 4330.359893
_symmetry_space_group_name_H-M "P 42/N M C"
_symmetry_group_IT_number 137
_space_group.IT_coordinate_system_code '2'
_symmetry_cell_setting 'tetragonal'
loop_
_space_group_symop_operation_xyz
x,y,z
1/2-y,x,1/2+z
1/2-x,1/2-y,z
y,1/2-x,1/2+z
1/2+x,-y,-z
-x,1/2+y,-z
1/2+y,1/2+x,1/2-z
-y,-x,1/2-z
-x,-y,-z
1/2+y,-x,1/2-z
1/2+x,1/2+y,-z
-y,1/2+x,1/2-z
1/2-x,y,z
x,1/2-y,z
1/2-y,1/2-x,1/2+z
y,x,1/2+z
loop_
_atom_site_type_symbol
_atom_site_label
_atom_site_fract_x
_atom_site_fract_y
_atom_site_fract_z
Si Si1 0.136394 0.142733 0.880810
Si Si2 0.046962 0.143651 0.123834
Si Si3 0.639125 0.541156 0.989997
Si Si4 0.644173 0.355931 0.060819
Si Si5 0.986635 0.639622 0.737384
O O1 0.250000 0.142920 0.880688
O O2 0.105721 0.250000 0.872856
O O3 0.107104 0.100987 0.948748
O O4 0.109245 0.074108 0.823344
O O5 0.073739 0.250000 0.106145
O O6 0.071168 0.129140 0.196976
O O7 0.934897 0.137383 0.114015
O O8 0.091165 0.073956 0.073853
O O9 0.750000 0.555355 0.983671
O O10 0.623331 0.433604 0.008471
O O11 0.750000 0.374248 0.084427
O O12 0.641241 0.250000 0.036245
O O13 0.008803 0.750000 0.731275
O O14 0.076651 0.576651 0.750000
#
# Coordination Sequence:
#
# PCOD9570070 Si02
#       5
#    16  16  16  16  16
#     4   9  18  33  51  71  99 136 173 207 250 306
#     4  10  20  32  49  74 101 130 167 212 257 297
#     4  10  19  32  53  78 103 132 169 213 256 304
#     4   9  18  32  49  71 101 134 166 205 255 307
#     4  10  21  35  51  74 104 136 168 205 251 304
#
# _framework density 18.474216999999999
#
# number of rings (size 3 to 8) (size 9 to 14) (size 15 to 20)
#    0.000    2.400    0.000    2.400    0.000    4.600 
#    0.000    4.000    0.000    0.000    0.000    0.000 
#    0.000    0.400    0.000    0.800    0.000    0.200 
#
# Total GULP energy -446279.981041 kJ/mol
# GULP energy per Si atom -5578.499763 kJ/mol
# Density = 1.843217 g / cm^3
# Si number density = 18.474217 Si / 1000 Ang^3
#
#
#
# Elastic Constant Matrix: (Units=GPa)
#
#
# Indices 1 2 3 4 5 6 
#
# 1 62.9278 28.6940 31.3313 0.0000 0.0000 0.0000
# 2 28.6940 62.9278 31.3313 0.0000 0.0000 0.0000
# 3 31.3313 31.3313 89.9233 0.0000 0.0000 0.0000
# 4 0.0000 0.0000 0.0000 15.9613 0.0000 0.0000
# 5 0.0000 0.0000 0.0000 0.0000 15.9613 0.0000
# 6 0.0000 0.0000 0.0000 0.0000 0.0000 14.9188
#
#
#
# Elastic Compliance Matrix: (Units=1/GPa)
#
#
# Indices 1 2 3 4 5 6 
#
# 1 0.021770 -0.007441 -0.004993 0.000000 0.000000 0.000000
# 2 -0.007441 0.021770 -0.004993 0.000000 0.000000 0.000000
# 3 -0.004993 -0.004993 0.014600 0.000000 0.000000 0.000000
# 4 0.000000 0.000000 0.000000 0.062652 0.000000 0.000000
# 5 0.000000 0.000000 0.000000 0.000000 0.062652 0.000000
# 6 0.000000 0.000000 0.000000 0.000000 0.000000 0.067029
#
#
# Mechanical properties :
#
#
# Convention : Reuss Voigt Hill
#
# Bulk Modulus (GPa) = 42.94170 44.27692 43.60931
# Shear Modulus (GPa) = 17.05981 17.66310 17.36145
#
# Velocity S-wave (km/s) = 3.04211 3.09543 3.06889
# Velocity P-wave (km/s) = 5.96941 6.06585 6.01782
#
# Compressibility (1/GPa) = 0.02328739
#
# Stress axis : x y z
#
# Youngs Moduli (GPa) = 45.93492 45.93492 68.49499
#
# Poissons Ratio (x) = 0.34180 0.34196
# Poissons Ratio (y) = 0.34180 0.34196
# Poissons Ratio (z) = 0.22933 0.22933
#
# Static dielectric constant tensor:
#      x y z
#    x 1.661220 0.000000 0.000000 
#    y 0.000000 1.661220 0.000000 
#    z 0.000000 0.000000 1.630390 
# 
# From -- ./inp_files/7527.got.cif
#   From: 2010.05.17/outbox.cif.g08.bks.cpg/sg137_4_cif.got.tgz:7527.got - 2010.05.20 13:01:12.
