data_PCOD9570762
_publ_section_title
;
Structure prediction by ZEFSAII (Michael W. Deem and Ramdas Pophale) SiO2 
 PCOD9570762
Probable space group: P 42/N C M
;
_chemical_formula_sum "Si O2"
_cell_formula_units_Z 80
_cell_length_a 23.278351
_cell_length_b 23.278351
_cell_length_c 8.977785
_cell_angle_alpha 90.000000
_cell_angle_beta 90.000000
_cell_angle_gamma 90.000000
_cell_volume 4864.896727
_symmetry_space_group_name_H-M "P 42/N C M"
_symmetry_group_IT_number 138
_space_group.IT_coordinate_system_code '2'
_symmetry_cell_setting 'tetragonal'
loop_
_space_group_symop_operation_xyz
x,y,z
1/2-y,x,1/2+z
1/2-x,1/2-y,z
y,1/2-x,1/2+z
1/2+x,-y,1/2-z
-x,1/2+y,1/2-z
1/2+y,1/2+x,-z
-y,-x,-z
-x,-y,-z
1/2+y,-x,1/2-z
1/2+x,1/2+y,-z
-y,1/2+x,1/2-z
1/2-x,y,1/2+z
x,1/2-y,1/2+z
1/2-y,1/2-x,z
y,x,z
loop_
_atom_site_type_symbol
_atom_site_label
_atom_site_fract_x
_atom_site_fract_y
_atom_site_fract_z
Si Si1 0.872989 0.037820 0.072285
Si Si2 0.545371 0.545371 0.570275
Si Si3 0.079346 0.745314 0.043823
Si Si4 0.158549 0.763633 0.793057
Si Si5 0.454789 0.045212 0.571472
Si Si6 0.373445 0.962412 0.073314
O O1 0.805444 0.046946 0.049778
O O2 0.884780 0.036448 0.249725
O O3 0.909195 0.090806 0.000000
O O4 0.895632 0.979882 0.993115
O O5 0.500000 0.500000 0.500000
O O6 0.544215 0.544215 0.749362
O O7 0.604548 0.520826 0.504783
O O8 0.098986 0.725827 0.207425
O O9 0.140244 0.756941 0.962483
O O10 0.048766 0.693043 0.961403
O O11 0.203615 0.812799 0.755178
O O12 0.500000 0.000000 0.500000
O O13 0.410341 0.910341 0.000000
#
# Coordination Sequence:
#
# PCOD9570762 Si02
#       6
#    16   8  16  16   8  16
#     4  11  22  36  54  74 102 134 174 219 266 317
#     4  10  20  34  56  76  98 127 166 215 268 324
#     4  12  24  33  52  74 100 137 178 224 262 306
#     4  11  22  36  48  66  98 140 184 221 256 294
#     4  10  20  34  56  76  98 127 166 215 268 324
#     4  11  22  36  54  74 102 134 174 219 266 317
#
# _framework density 16.444336
#
# number of rings (size 3 to 8) (size 9 to 14) (size 15 to 20)
#    0.000    1.000    2.000    9.000    5.600    1.600 
#    0.000    0.000    0.000    0.000    0.000    0.000 
#    0.000    0.800    0.000    5.600    0.000    1.400 
#
# Total GULP energy -446664.801877 kJ/mol
# GULP energy per Si atom -5583.310023 kJ/mol
# Density = 1.640691 g / cm^3
# Si number density = 16.444336 Si / 1000 Ang^3
#
#
#
# Elastic Constant Matrix: (Units=GPa)
#
#
# Indices 1 2 3 4 5 6 
#
# 1 60.3713 40.4671 44.4085 0.0000 0.0000 0.0000
# 2 40.4671 60.3702 44.4087 0.0000 0.0000 0.0000
# 3 44.4085 44.4087 142.9008 0.0000 0.0000 0.0000
# 4 0.0000 0.0000 0.0000 23.5031 0.0000 0.0000
# 5 0.0000 0.0000 0.0000 0.0000 23.5032 0.0000
# 6 0.0000 0.0000 0.0000 0.0000 0.0000 13.9654
#
#
#
# Elastic Compliance Matrix: (Units=1/GPa)
#
#
# Indices 1 2 3 4 5 6 
#
# 1 0.031948 -0.018294 -0.004243 0.000000 0.000000 0.000000
# 2 -0.018294 0.031949 -0.004243 0.000000 0.000000 0.000000
# 3 -0.004243 -0.004243 0.009635 0.000000 0.000000 0.000000
# 4 0.000000 0.000000 0.000000 0.042548 0.000000 0.000000
# 5 0.000000 0.000000 0.000000 0.000000 0.042547 0.000000
# 6 0.000000 0.000000 0.000000 0.000000 0.000000 0.071605
#
#
# Mechanical properties :
#
#
# Convention : Reuss Voigt Hill
#
# Bulk Modulus (GPa) = 50.07325 58.02342 54.04834
# Shear Modulus (GPa) = 17.21466 21.15154 19.18310
#
# Velocity S-wave (km/s) = 3.23901 3.59032 3.41918
# Velocity P-wave (km/s) = 6.67117 7.24904 6.96610
#
# Compressibility (1/GPa) = 0.01997074
#
# Stress axis : x y z
#
# Youngs Moduli (GPa) = 31.30097 31.30016 103.78614
#
# Poissons Ratio (x) = 0.57260 0.44038
# Poissons Ratio (y) = 0.57262 0.44041
# Poissons Ratio (z) = 0.13281 0.13282
#
# Static dielectric constant tensor:
#      x y z
#    x 1.572720 0.000000 0.000000 
#    y 0.000000 1.572720 0.000000 
#    z 0.000000 0.000000 1.590210 
# 
# From -- ./inp_files/1643.got.cif
#   From: 2010.05.17/outbox.cif.g08.bks.cpg/sg138_1_cif.got.tgz:1643.got - 2010.05.20 13:08:53.
