data_PCOD9570686
_publ_section_title
;
Structure prediction by ZEFSAII (Michael W. Deem and Ramdas Pophale) SiO2 
 PCOD9570686
Probable space group: P 42/N C M
;
_chemical_formula_sum "Si O2"
_cell_formula_units_Z 76
_cell_length_a 20.883237
_cell_length_b 20.883237
_cell_length_c 9.969420
_cell_angle_alpha 90.000000
_cell_angle_beta 90.000000
_cell_angle_gamma 90.000000
_cell_volume 4347.759645
_symmetry_space_group_name_H-M "P 42/N C M"
_symmetry_group_IT_number 138
_space_group.IT_coordinate_system_code '2'
_symmetry_cell_setting 'tetragonal'
loop_
_space_group_symop_operation_xyz
x,y,z
1/2-y,x,1/2+z
1/2-x,1/2-y,z
y,1/2-x,1/2+z
1/2+x,-y,1/2-z
-x,1/2+y,1/2-z
1/2+y,1/2+x,-z
-y,-x,-z
-x,-y,-z
1/2+y,-x,1/2-z
1/2+x,1/2+y,-z
-y,1/2+x,1/2-z
1/2-x,y,1/2+z
x,1/2-y,1/2+z
1/2-y,1/2-x,z
y,x,z
loop_
_atom_site_type_symbol
_atom_site_label
_atom_site_fract_x
_atom_site_fract_y
_atom_site_fract_z
Si Si1 0.151617 0.348384 0.518715
Si Si2 0.848796 0.651204 0.786893
Si Si3 0.744358 0.950543 0.355372
Si Si4 0.347941 0.775851 0.760922
Si Si5 0.250000 0.250000 0.110963
Si Si6 0.965606 0.218840 0.399638
Si Si7 0.626392 0.126392 0.000000
O O1 0.134943 0.365058 0.366377
O O2 0.093821 0.313896 0.594941
O O3 0.206094 0.293907 0.519062
O O4 0.909552 0.688998 0.849900
O O5 0.794322 0.705679 0.797975
O O6 0.753561 0.006868 0.462501
O O7 0.726706 0.978992 0.210821
O O8 0.316098 0.709137 0.807871
O O9 0.405611 0.758154 0.661911
O O10 0.367442 0.818629 0.887340
O O11 0.939482 0.146541 0.426879
#
# Coordination Sequence:
#
# PCOD9570686 Si02
#       7
#     8   8  16  16   4  16   8
#     4  10  19  34  56  82 117 148 191 241 292 357
#     4  10  19  34  56  86 117 156 187 246 296 352
#     4  11  22  37  60  85 120 152 200 239 299 346
#     4   9  19  33  54  85 115 146 184 237 300 355
#     4   8  18  28  52  86 116 142 178 240 312 356
#     4  11  21  37  55  89 116 155 189 240 289 358
#     4  10  20  37  56  85 122 154 190 245 304 359
#
# _framework density 17.480267999999999
#
# number of rings (size 3 to 8) (size 9 to 14) (size 15 to 20)
#    0.000    1.895    4.211    0.316    0.000    7.579 
#    0.000    0.000    0.000    2.526    0.000    7.368 
#    0.000    0.000    0.000    0.000    0.000    0.000 
#
# Total GULP energy -423147.298827 kJ/mol
# GULP energy per Si atom -5567.727616 kJ/mol
# Density = 1.744048 g / cm^3
# Si number density = 17.480268 Si / 1000 Ang^3
#
#
#
# Elastic Constant Matrix: (Units=GPa)
#
#
# Indices 1 2 3 4 5 6 
#
# 1 64.1015 25.7125 9.2024 0.0000 0.0000 0.0000
# 2 25.7125 64.1015 9.2024 0.0000 0.0000 0.0000
# 3 9.2024 9.2024 63.4590 0.0000 0.0000 0.0000
# 4 0.0000 0.0000 0.0000 19.4157 0.0000 0.0000
# 5 0.0000 0.0000 0.0000 0.0000 19.4157 0.0000
# 6 0.0000 0.0000 0.0000 0.0000 0.0000 25.9796
#
#
#
# Elastic Compliance Matrix: (Units=1/GPa)
#
#
# Indices 1 2 3 4 5 6 
#
# 1 0.018762 -0.007287 -0.001664 0.000000 0.000000 0.000000
# 2 -0.007287 0.018762 -0.001664 0.000000 0.000000 0.000000
# 3 -0.001664 -0.001664 0.016241 0.000000 0.000000 0.000000
# 4 0.000000 0.000000 0.000000 0.051505 0.000000 0.000000
# 5 0.000000 0.000000 0.000000 0.000000 0.051505 0.000000
# 6 0.000000 0.000000 0.000000 0.000000 0.000000 0.038492
#
#
# Mechanical properties :
#
#
# Convention : Reuss Voigt Hill
#
# Bulk Modulus (GPa) = 30.73625 31.09963 30.91794
# Shear Modulus (GPa) = 21.99334 22.79850 22.39592
#
# Velocity S-wave (km/s) = 3.55093 3.61535 3.58328
# Velocity P-wave (km/s) = 5.86803 5.93781 5.90302
#
# Compressibility (1/GPa) = 0.03253487
#
# Stress axis : x y z
#
# Youngs Moduli (GPa) = 53.29884 53.29884 61.57321
#
# Poissons Ratio (x) = 0.38839 0.10246
# Poissons Ratio (y) = 0.38839 0.10246
# Poissons Ratio (z) = 0.08869 0.08869
#
# Static dielectric constant tensor:
#      x y z
#    x 1.613560 0.000000 0.000000 
#    y 0.000000 1.613560 0.000000 
#    z 0.000000 0.000000 1.609750 
# 
# From -- ./inp_files/3020.got.cif
#   From: 2010.05.17/outbox.cif.g08.bks.cpg/sg138_2_cif.got.tgz:3020.got - 2010.05.20 13:08:53.
