data_PCOD9570496
_publ_section_title
;
Structure prediction by ZEFSAII (Michael W. Deem and Ramdas Pophale) SiO2 
 PCOD9570496
Probable space group: P 42/N M C
;
_chemical_formula_sum "Si O2"
_cell_formula_units_Z 96
_cell_length_a 24.227496
_cell_length_b 24.227496
_cell_length_c 9.180862
_cell_angle_alpha 90.000000
_cell_angle_beta 90.000000
_cell_angle_gamma 90.000000
_cell_volume 5388.904913
_symmetry_space_group_name_H-M "P 42/N M C"
_symmetry_group_IT_number 137
_space_group.IT_coordinate_system_code '2'
_symmetry_cell_setting 'tetragonal'
loop_
_space_group_symop_operation_xyz
x,y,z
1/2-y,x,1/2+z
1/2-x,1/2-y,z
y,1/2-x,1/2+z
1/2+x,-y,-z
-x,1/2+y,-z
1/2+y,1/2+x,1/2-z
-y,-x,1/2-z
-x,-y,-z
1/2+y,-x,1/2-z
1/2+x,1/2+y,-z
-y,1/2+x,1/2-z
1/2-x,y,z
x,1/2-y,z
1/2-y,1/2-x,1/2+z
y,x,1/2+z
loop_
_atom_site_type_symbol
_atom_site_label
_atom_site_fract_x
_atom_site_fract_y
_atom_site_fract_z
Si Si1 0.865847 0.559262 0.928181
Si Si2 0.930339 0.373439 0.612648
Si Si3 0.750000 0.565251 0.793803
Si Si4 0.556342 0.750000 0.957274
Si Si5 0.250000 0.932277 0.149173
Si Si6 0.359700 0.049435 0.721495
Si Si7 0.750000 0.075189 0.518312
Si Si8 0.636100 0.421956 0.370210
O O1 0.873270 0.496356 0.870979
O O2 0.807799 0.582953 0.866195
O O3 0.916485 0.593465 0.862574
O O4 0.862734 0.559057 0.104482
O O5 0.896121 0.396121 0.750000
O O6 0.916881 0.308807 0.578902
O O7 0.912662 0.414708 0.485987
O O8 0.750000 0.580228 0.621769
O O9 0.750000 0.498830 0.826496
O O10 0.567918 0.803063 0.857748
O O11 0.491086 0.750000 0.995488
O O12 0.250000 0.909517 0.313069
O O13 0.363368 0.983700 0.692874
O O14 0.806483 0.092811 0.445071
O O15 0.622383 0.377618 0.250000
#
# Coordination Sequence:
#
# PCOD9570496 Si02
#       8
#    16  16   8   8   8  16   8  16
#     4  11  23  37  57  87 118 155 190 234 282 340
#     4  11  22  36  59  81 115 148 193 236 291 345
#     4   9  19  37  59  82 113 148 197 230 277 331
#     4   9  19  37  59  82 111 152 192 235 274 334
#     4   9  18  34  56  81 100 148 192 232 276 342
#     4  11  23  37  58  85 121 152 192 231 285 336
#     4   9  18  34  58  75 108 144 191 231 279 339
#     4  11  22  38  55  85 112 151 188 237 290 342
#
# _framework density 17.814378999999999
#
# number of rings (size 3 to 8) (size 9 to 14) (size 15 to 20)
#    0.000    1.667    3.333    1.500    4.667    2.000 
#    0.000    0.000    0.000    3.500    0.000    3.500 
#    0.000    0.000    0.000    0.000    0.000    0.000 
#
# Total GULP energy -534885.096055 kJ/mol
# GULP energy per Si atom -5571.719751 kJ/mol
# Density = 1.777383 g / cm^3
# Si number density = 17.814379 Si / 1000 Ang^3
#
#
#
# Elastic Constant Matrix: (Units=GPa)
#
#
# Indices 1 2 3 4 5 6 
#
# 1 59.0369 40.4708 17.9451 0.0000 0.0000 0.0000
# 2 40.4708 59.0393 17.9452 0.0000 0.0000 0.0000
# 3 17.9451 17.9452 73.6101 0.0000 0.0000 0.0000
# 4 0.0000 0.0000 0.0000 17.7125 0.0000 0.0000
# 5 0.0000 0.0000 0.0000 0.0000 17.7068 0.0000
# 6 0.0000 0.0000 0.0000 0.0000 0.0000 -32.2965
#
#
#
# Elastic Compliance Matrix: (Units=1/GPa)
#
#
# Indices 1 2 3 4 5 6 
#
# 1 0.032439 -0.021420 -0.002686 0.000000 0.000000 0.000000
# 2 -0.021420 0.032437 -0.002686 0.000000 0.000000 0.000000
# 3 -0.002686 -0.002686 0.014895 0.000000 0.000000 0.000000
# 4 0.000000 0.000000 0.000000 0.056457 0.000000 0.000000
# 5 0.000000 0.000000 0.000000 0.000000 0.056476 0.000000
# 6 0.000000 0.000000 0.000000 0.000000 0.000000 -0.030963
#
#
# Mechanical properties :
#
#
# Convention : Reuss Voigt Hill
#
# Bulk Modulus (GPa) = 38.18726 38.26761 38.22744
# Shear Modulus (GPa) = 22.31606 8.31290 15.31448
#
# Velocity S-wave (km/s) = 3.54319 2.16253 2.93519
# Velocity P-wave (km/s) = 6.18237 5.26909 5.74391
#
# Compressibility (1/GPa) = 0.02618674
#
# Stress axis : x y z
#
# Youngs Moduli (GPa) = 30.82727 30.82860 67.13778
#
# Poissons Ratio (x) = 0.66035 0.18034
# Poissons Ratio (y) = 0.66032 0.18033
# Poissons Ratio (z) = 0.08281 0.08280
#
# Static dielectric constant tensor:
#      x y z
#    x 1.606600 0.000000 0.000000 
#    y 0.000000 1.606590 0.000000 
#    z 0.000000 0.000000 1.682670 
# 
# From -- ./inp_files/2227.got.cif
#   From: 2010.05.17/outbox.cif.g08.bks.cpg/sg137_2_cif.got.tgz:2227.got - 2010.05.20 13:01:12.
