data_PCOD9570332
_publ_section_title
;
Structure prediction by ZEFSAII (Michael W. Deem and Ramdas Pophale) SiO2 
 PCOD9570332
Probable space group: P 42/N M C
;
_chemical_formula_sum "Si O2"
_cell_formula_units_Z 58
_cell_length_a 12.253158
_cell_length_b 12.253158
_cell_length_c 23.444968
_cell_angle_alpha 90.000000
_cell_angle_beta 90.000000
_cell_angle_gamma 90.000000
_cell_volume 3520.024705
_symmetry_space_group_name_H-M "P 42/N M C"
_symmetry_group_IT_number 137
_space_group.IT_coordinate_system_code '2'
_symmetry_cell_setting 'tetragonal'
loop_
_space_group_symop_operation_xyz
x,y,z
1/2-y,x,1/2+z
1/2-x,1/2-y,z
y,1/2-x,1/2+z
1/2+x,-y,-z
-x,1/2+y,-z
1/2+y,1/2+x,1/2-z
-y,-x,1/2-z
-x,-y,-z
1/2+y,-x,1/2-z
1/2+x,1/2+y,-z
-y,1/2+x,1/2-z
1/2-x,y,z
x,1/2-y,z
1/2-y,1/2-x,1/2+z
y,x,1/2+z
loop_
_atom_site_type_symbol
_atom_site_label
_atom_site_fract_x
_atom_site_fract_y
_atom_site_fract_z
Si Si1 0.379255 0.373677 0.512893
Si Si2 0.750000 0.250000 0.250000
Si Si3 0.750000 0.125928 0.138882
Si Si4 0.620050 0.375964 0.682395
Si Si5 0.497257 0.037690 0.404042
O O1 0.250000 0.371783 0.518253
O O2 0.422143 0.250000 0.520658
O O3 0.427624 0.456095 0.559204
O O4 0.411977 0.415101 0.450116
O O5 0.750000 0.147908 0.207015
O O6 0.750000 0.250000 0.114283
O O7 0.640930 0.063610 0.120199
O O8 0.604552 0.395449 0.750000
O O9 0.750000 0.382382 0.671435
O O10 0.586224 0.250000 0.670011
O O11 0.558628 0.465114 0.644762
#
# Coordination Sequence:
#
# PCOD9570332 Si02
#       5
#    16   2   8  16  16
#     4  10  21  36  53  79 111 142 180 231 276 325
#     4   8  24  40  56  76 120 140 192 244 270 328
#     4  10  22  38  55  83 108 150 188 233 280 333
#     4   9  19  35  56  83 111 141 181 231 281 333
#     4  11  20  35  58  79 107 150 184 224 277 342
#
# _framework density 16.477156999999998
#
# number of rings (size 3 to 8) (size 9 to 14) (size 15 to 20)
#    0.414    1.655    1.379    3.310    1.931    0.000 
#    0.000    0.000    0.000    0.000    0.000    0.000 
#    0.000    0.000    0.000    0.000    0.000    0.000 
#
# Total GULP energy -323268.815222 kJ/mol
# GULP energy per Si atom -5573.600262 kJ/mol
# Density = 1.643965 g / cm^3
# Si number density = 16.477157 Si / 1000 Ang^3
#
#
#
# Elastic Constant Matrix: (Units=GPa)
#
#
# Indices 1 2 3 4 5 6 
#
# 1 105.4023 57.5758 58.3843 0.0000 0.0000 0.0000
# 2 57.5758 105.4019 58.3842 0.0000 0.0000 0.0000
# 3 58.3843 58.3842 96.4913 0.0000 0.0000 0.0000
# 4 0.0000 0.0000 0.0000 -18.8160 0.0000 0.0000
# 5 0.0000 0.0000 0.0000 0.0000 -18.8157 0.0000
# 6 0.0000 0.0000 0.0000 0.0000 0.0000 25.2448
#
#
#
# Elastic Compliance Matrix: (Units=1/GPa)
#
#
# Indices 1 2 3 4 5 6 
#
# 1 0.015870 -0.005039 -0.006554 0.000000 0.000000 0.000000
# 2 -0.005039 0.015870 -0.006554 0.000000 0.000000 0.000000
# 3 -0.006554 -0.006554 0.018295 0.000000 0.000000 0.000000
# 4 0.000000 0.000000 0.000000 -0.053146 0.000000 0.000000
# 5 0.000000 0.000000 0.000000 0.000000 -0.053147 0.000000
# 6 0.000000 0.000000 0.000000 0.000000 0.000000 0.039612
#
#
# Mechanical properties :
#
#
# Convention : Reuss Voigt Hill
#
# Bulk Modulus (GPa) = 72.76797 72.88713 72.82755
# Shear Modulus (GPa) = 206.37831 6.38602 106.38216
#
# Velocity S-wave (km/s) = 11.20371 1.97081 8.04385
# Velocity P-wave (km/s) = 14.54726 7.03634 11.42657
#
# Compressibility (1/GPa) = 0.01374231
#
# Stress axis : x y z
#
# Youngs Moduli (GPa) = 63.01142 63.01121 54.66089
#
# Poissons Ratio (x) = 0.31750 0.35823
# Poissons Ratio (y) = 0.31750 0.35823
# Poissons Ratio (z) = 0.41296 0.41296
#
# Static dielectric constant tensor:
#      x y z
#    x 1.540080 0.000000 0.000000 
#    y 0.000000 1.540080 0.000000 
#    z 0.000000 0.000000 1.532930 
# 
# From -- ./inp_files/7362.got.cif
#   From: 2010.05.17/outbox.cif.g08.bks.cpg/sg137_4_cif.got.tgz:7362.got - 2010.05.20 13:01:12.
