data_PCOD9570554
_publ_section_title
;
Structure prediction by ZEFSAII (Michael W. Deem and Ramdas Pophale) SiO2 
 PCOD9570554
Probable space group: P 42/N M C
;
_chemical_formula_sum "Si O2"
_cell_formula_units_Z 64
_cell_length_a 15.000000
_cell_length_b 15.000000
_cell_length_c 18.000000
_cell_angle_alpha 90.000000
_cell_angle_beta 90.000000
_cell_angle_gamma 90.000000
_cell_volume 4050.000000
_symmetry_space_group_name_H-M "P 42/N M C"
_symmetry_group_IT_number 137
_space_group.IT_coordinate_system_code '2'
_symmetry_cell_setting 'tetragonal'
loop_
_space_group_symop_operation_xyz
x,y,z
1/2-y,x,1/2+z
1/2-x,1/2-y,z
y,1/2-x,1/2+z
1/2+x,-y,-z
-x,1/2+y,-z
1/2+y,1/2+x,1/2-z
-y,-x,1/2-z
-x,-y,-z
1/2+y,-x,1/2-z
1/2+x,1/2+y,-z
-y,1/2+x,1/2-z
1/2-x,y,z
x,1/2-y,z
1/2-y,1/2-x,1/2+z
y,x,1/2+z
loop_
_atom_site_type_symbol
_atom_site_label
_atom_site_fract_x
_atom_site_fract_y
_atom_site_fract_z
Si Si1 0.145313 0.497154 0.552933
Si Si2 0.003341 0.524848 0.161391
Si Si3 0.356420 0.855852 0.074715
Si Si4 0.856311 0.642827 0.579976
O O1 0.250000 0.495913 0.577463
O O2 0.133068 0.585885 0.501449
O O3 0.132175 0.411258 0.498180
O O4 0.069297 0.496827 0.616127
O O5 0.009160 0.509160 0.250000
O O6 0.088991 0.582744 0.132828
O O7 0.915148 0.582003 0.136336
O O8 0.250000 0.876450 0.068490
O O9 0.363636 0.750000 0.093951
O O10 0.750000 0.634512 0.598423
O O11 0.876268 0.750000 0.576355
#
# Coordination Sequence:
#
# PCOD9570554 Si02
#       4
#    16  16  16  16
#     4   9  19  35  52  73  99 128 170 215 246 283
#     4  11  22  32  48  76 108 138 163 196 248 308
#     4   9  18  34  56  77  96 124 165 211 253 293
#     4   9  18  35  57  76  96 128 172 216 252 290
#
# _framework density 15.802469
#
# number of rings (size 3 to 8) (size 9 to 14) (size 15 to 20)
#    0.000    2.500    0.000    5.250    0.000    7.000 
#    0.000    1.250    0.000    3.000    0.000    1.750 
#    0.000    0.000    0.000    0.000    0.000    0.000 
#
# Total GULP energy -356627.976608 kJ/mol
# GULP energy per Si atom -5572.312135 kJ/mol
# Density = 1.576650 g / cm^3
# Si number density = 15.802469 Si / 1000 Ang^3
#
#
#
# Elastic Constant Matrix: (Units=GPa)
#
#
# Indices 1 2 3 4 5 6 
#
# 1 145.9424 65.0113 71.9904 0.0000 0.0000 0.0000
# 2 65.0113 145.9424 71.9904 0.0000 0.0000 0.0000
# 3 71.9904 71.9904 127.9893 0.0000 0.0000 0.0000
# 4 0.0000 0.0000 0.0000 16.1226 0.0000 0.0000
# 5 0.0000 0.0000 0.0000 0.0000 16.1226 0.0000
# 6 0.0000 0.0000 0.0000 0.0000 0.0000 31.7473
#
#
#
# Elastic Compliance Matrix: (Units=1/GPa)
#
#
# Indices 1 2 3 4 5 6 
#
# 1 0.010025 -0.002331 -0.004328 0.000000 0.000000 0.000000
# 2 -0.002331 0.010025 -0.004328 0.000000 0.000000 0.000000
# 3 -0.004328 -0.004328 0.012682 0.000000 0.000000 0.000000
# 4 0.000000 0.000000 0.000000 0.062025 0.000000 0.000000
# 5 0.000000 0.000000 0.000000 0.000000 0.062025 0.000000
# 6 0.000000 0.000000 0.000000 0.000000 0.000000 0.031499
#
#
# Mechanical properties :
#
#
# Convention : Reuss Voigt Hill
#
# Bulk Modulus (GPa) = 92.94582 93.09535 93.02058
# Shear Modulus (GPa) = 23.38206 26.85732 25.11969
#
# Velocity S-wave (km/s) = 3.85079 4.12705 3.99131
# Velocity P-wave (km/s) = 8.87223 9.04156 8.95729
#
# Compressibility (1/GPa) = 0.01075896
#
# Stress axis : x y z
#
# Youngs Moduli (GPa) = 99.74882 99.74882 78.85422
#
# Poissons Ratio (x) = 0.23252 0.34126
# Poissons Ratio (y) = 0.23252 0.34126
# Poissons Ratio (z) = 0.43169 0.43169
#
# Static dielectric constant tensor:
#      x y z
#    x 1.540060 0.000000 0.000000 
#    y 0.000000 1.540060 0.000000 
#    z 0.000000 0.000000 1.512990 
# 
# From -- ./inp_files/4691.got.cif
#   From: 2010.05.17/outbox.ucp.g08.bks.cvg/sg137_3_cif.got.tgz:4691.got - 2010.06.11 11:41:14.
