data_PCOD9570816
_publ_section_title
;
Structure prediction by ZEFSAII (Michael W. Deem and Ramdas Pophale) SiO2 
 PCOD9570816
Probable space group: P 42/N C M
;
_chemical_formula_sum "Si O2"
_cell_formula_units_Z 116
_cell_length_a 18.043478
_cell_length_b 18.043478
_cell_length_c 15.232176
_cell_angle_alpha 90.000000
_cell_angle_beta 90.000000
_cell_angle_gamma 90.000000
_cell_volume 4959.095342
_symmetry_space_group_name_H-M "P 42/N C M"
_symmetry_group_IT_number 138
_space_group.IT_coordinate_system_code '2'
_symmetry_cell_setting 'tetragonal'
loop_
_space_group_symop_operation_xyz
x,y,z
1/2-y,x,1/2+z
1/2-x,1/2-y,z
y,1/2-x,1/2+z
1/2+x,-y,1/2-z
-x,1/2+y,1/2-z
1/2+y,1/2+x,-z
-y,-x,-z
-x,-y,-z
1/2+y,-x,1/2-z
1/2+x,1/2+y,-z
-y,1/2+x,1/2-z
1/2-x,y,1/2+z
x,1/2-y,1/2+z
1/2-y,1/2-x,z
y,x,z
loop_
_atom_site_type_symbol
_atom_site_label
_atom_site_fract_x
_atom_site_fract_y
_atom_site_fract_z
Si Si1 0.738176 0.172711 0.589855
Si Si2 0.250000 0.250000 0.933558
Si Si3 0.429641 0.256608 0.406346
Si Si4 0.829071 0.393857 0.848851
Si Si5 0.542006 0.664886 0.932455
Si Si6 0.153361 0.899141 0.181679
Si Si7 0.381273 0.494729 0.518335
Si Si8 0.748906 0.874348 0.781904
O O1 0.750000 0.250000 0.641861
O O2 0.699494 0.199494 0.500000
O O3 0.822266 0.148437 0.590962
O O4 0.676218 0.125828 0.635172
O O5 0.249388 0.342252 0.931446
O O6 0.470243 0.199255 0.471545
O O7 0.466233 0.334390 0.435229
O O8 0.429197 0.244158 0.301552
O O9 0.891386 0.387025 0.774188
O O10 0.744025 0.392838 0.812320
O O11 0.831661 0.465522 0.909183
O O12 0.595173 0.595173 0.941836
O O13 0.469190 0.641521 0.879341
O O14 0.586101 0.723666 0.870094
O O15 0.444899 0.555102 0.500000
O O16 0.422744 0.422744 0.555289
O O17 0.674709 0.825292 0.791423
O O18 0.813491 0.813491 0.759673
#
# Coordination Sequence:
#
# PCOD9570816 Si02
#       8
#    16   4  16  16  16  16  16  16
#     4   9  20  36  64  93 116 152 210 272 319 378
#     4  12  20  36  76  88 124 194 226 274 322 380
#     4  12  21  41  64  94 133 178 232 272 331 395
#     4  11  22  40  65  90 126 166 212 273 330 399
#     4  11  25  38  62  96 132 173 220 275 331 402
#     4  11  22  41  61  93 123 163 211 272 333 393
#     4  11  26  41  62  97 141 179 209 271 348 412
#     4  10  20  36  61  92 127 175 229 277 320 380
#
# _framework density 23.391362999999998
#
# number of rings (size 3 to 8) (size 9 to 14) (size 15 to 20)
#    0.000    1.241    5.517    0.000    6.759    0.552 
#    0.000    0.000    0.000    0.414    0.000    0.000 
#    0.000    0.000    0.000    0.000    0.000    0.000 
#
# Total GULP energy -646239.461402 kJ/mol
# GULP energy per Si atom -5571.029840 kJ/mol
# Density = 2.333812 g / cm^3
# Si number density = 23.391363 Si / 1000 Ang^3
#
#
#
# Elastic Constant Matrix: (Units=GPa)
#
#
# Indices 1 2 3 4 5 6 
#
# 1 70.3678 15.4182 4.5886 0.0000 0.0000 0.0000
# 2 15.4182 70.3678 4.5886 0.0000 0.0000 0.0000
# 3 4.5886 4.5886 68.1074 0.0000 0.0000 0.0000
# 4 0.0000 0.0000 0.0000 12.3008 0.0000 0.0000
# 5 0.0000 0.0000 0.0000 0.0000 12.2964 0.0000
# 6 0.0000 0.0000 0.0000 0.0000 0.0000 39.2420
#
#
#
# Elastic Compliance Matrix: (Units=1/GPa)
#
#
# Indices 1 2 3 4 5 6 
#
# 1 0.014970 -0.003228 -0.000791 0.000000 0.000000 0.000000
# 2 -0.003228 0.014970 -0.000791 0.000000 0.000000 0.000000
# 3 -0.000791 -0.000791 0.014789 0.000000 0.000000 0.000000
# 4 0.000000 0.000000 0.000000 0.081296 0.000000 0.000000
# 5 0.000000 0.000000 0.000000 0.000000 0.081325 0.000000
# 6 0.000000 0.000000 0.000000 0.000000 0.000000 0.025483
#
#
# Mechanical properties :
#
#
# Convention : Reuss Voigt Hill
#
# Bulk Modulus (GPa) = 28.48346 28.67044 28.57695
# Shear Modulus (GPa) = 19.67289 25.05099 22.36194
#
# Velocity S-wave (km/s) = 2.90320 3.27609 3.09527
# Velocity P-wave (km/s) = 4.84164 5.15692 5.00176
#
# Compressibility (1/GPa) = 0.03510810
#
# Stress axis : x y z
#
# Youngs Moduli (GPa) = 66.80019 66.80016 67.61654
#
# Poissons Ratio (x) = 0.21566 0.05349
# Poissons Ratio (y) = 0.21566 0.05349
# Poissons Ratio (z) = 0.05284 0.05284
#
# Static dielectric constant tensor:
#      x y z
#    x 1.926960 0.000000 0.000000 
#    y 0.000000 1.926960 0.000000 
#    z 0.000000 0.000000 1.963860 
# 
# From -- ./inp_files/5368.got.cif
#   From: 2010.05.17/outbox.cif.g08.bks.cpg/sg138_3_cif.got.tgz:5368.got - 2010.05.20 13:08:53.
