data_PCOD9570950
_publ_section_title
;
Structure prediction by ZEFSAII (Michael W. Deem and Ramdas Pophale) SiO2 
 PCOD9570950
Probable space group: P 42/N C M
;
_chemical_formula_sum "Si O2"
_cell_formula_units_Z 52
_cell_length_a 16.696670
_cell_length_b 16.696670
_cell_length_c 8.255654
_cell_angle_alpha 90.000000
_cell_angle_beta 90.000000
_cell_angle_gamma 90.000000
_cell_volume 2301.501225
_symmetry_space_group_name_H-M "P 42/N C M"
_symmetry_group_IT_number 138
_space_group.IT_coordinate_system_code '2'
_symmetry_cell_setting 'tetragonal'
loop_
_space_group_symop_operation_xyz
x,y,z
1/2-y,x,1/2+z
1/2-x,1/2-y,z
y,1/2-x,1/2+z
1/2+x,-y,1/2-z
-x,1/2+y,1/2-z
1/2+y,1/2+x,-z
-y,-x,-z
-x,-y,-z
1/2+y,-x,1/2-z
1/2+x,1/2+y,-z
-y,1/2+x,1/2-z
1/2-x,y,1/2+z
x,1/2-y,1/2+z
1/2-y,1/2-x,z
y,x,z
loop_
_atom_site_type_symbol
_atom_site_label
_atom_site_fract_x
_atom_site_fract_y
_atom_site_fract_z
Si Si1 0.750000 0.250000 0.500000
Si Si2 0.234987 0.932806 0.636841
Si Si3 0.862908 0.989669 0.654578
Si Si4 0.404356 0.523685 0.836481
O O1 0.752113 0.162194 0.406076
O O2 0.182779 0.942151 0.802093
O O3 0.309605 0.988371 0.687454
O O4 0.185288 0.979801 0.500304
O O5 0.901175 0.901175 0.645635
O O6 0.936382 0.048543 0.688010
O O7 0.429942 0.429942 0.836426
O O8 0.440374 0.559627 0.000000
#
# Coordination Sequence:
#
# PCOD9570950 Si02
#       4
#     4  16  16  16
#     4  12  28  42  70 112 150 184 214 288 402 416
#     4  12  25  43  69 102 153 181 236 301 359 440
#     4  11  25  44  69 101 140 195 243 287 358 431
#     4  10  21  41  68  98 136 187 239 286 349 434
#
# _framework density 22.59395
#
# number of rings (size 3 to 8) (size 9 to 14) (size 15 to 20)
#    0.000    0.923    3.077    2.769    6.462    3.692 
#    0.000    2.308    0.000    7.385    0.000    0.000 
#    0.000    0.000    0.000    0.000    0.000    0.000 
#
# Total GULP energy -289510.796296 kJ/mol
# GULP energy per Si atom -5567.515313 kJ/mol
# Density = 2.254253 g / cm^3
# Si number density = 22.593950 Si / 1000 Ang^3
#
#
#
# Elastic Constant Matrix: (Units=GPa)
#
#
# Indices 1 2 3 4 5 6 
#
# 1 127.5889 102.2865 58.9160 0.0000 0.0000 0.0000
# 2 102.2865 127.5887 58.9157 0.0000 0.0000 0.0000
# 3 58.9160 58.9157 114.0382 0.0000 0.0000 0.0000
# 4 0.0000 0.0000 0.0000 13.7560 0.0000 0.0000
# 5 0.0000 0.0000 0.0000 0.0000 13.7568 0.0000
# 6 0.0000 0.0000 0.0000 0.0000 0.0000 44.8800
#
#
#
# Elastic Compliance Matrix: (Units=1/GPa)
#
#
# Indices 1 2 3 4 5 6 
#
# 1 0.022720 -0.016802 -0.003057 0.000000 0.000000 0.000000
# 2 -0.016802 0.022720 -0.003057 0.000000 0.000000 0.000000
# 3 -0.003057 -0.003057 0.011928 0.000000 0.000000 0.000000
# 4 0.000000 0.000000 0.000000 0.072696 0.000000 0.000000
# 5 0.000000 0.000000 0.000000 0.000000 0.072691 0.000000
# 6 0.000000 0.000000 0.000000 0.000000 0.000000 0.022282
#
#
# Mechanical properties :
#
#
# Convention : Reuss Voigt Hill
#
# Bulk Modulus (GPa) = 86.70005 89.93912 88.31959
# Shear Modulus (GPa) = 18.20081 24.41841 21.30961
#
# Velocity S-wave (km/s) = 2.84132 3.29104 3.07442
# Velocity P-wave (km/s) = 7.01574 7.37119 7.19566
#
# Compressibility (1/GPa) = 0.01153402
#
# Stress axis : x y z
#
# Youngs Moduli (GPa) = 44.01483 44.01483 83.83857
#
# Poissons Ratio (x) = 0.73956 0.25630
# Poissons Ratio (y) = 0.73956 0.25629
# Poissons Ratio (z) = 0.13456 0.13455
#
# Static dielectric constant tensor:
#      x y z
#    x 2.092160 0.000000 0.000000 
#    y 0.000000 2.092160 0.000000 
#    z 0.000000 0.000000 1.973110 
# 
# From -- ./inp_files/1104.got.cif
#   From: 2010.05.17/outbox.cif.g08.bks.cpg/sg138_1_cif.got.tgz:1104.got - 2010.05.20 13:08:53.
