data_PCOD9570910
_publ_section_title
;
Structure prediction by ZEFSAII (Michael W. Deem and Ramdas Pophale) SiO2 
 PCOD9570910
Probable space group: P 42/N C M
;
_chemical_formula_sum "Si O2"
_cell_formula_units_Z 80
_cell_length_a 11.406083
_cell_length_b 11.406083
_cell_length_c 27.730456
_cell_angle_alpha 90.000000
_cell_angle_beta 90.000000
_cell_angle_gamma 90.000000
_cell_volume 3607.697091
_symmetry_space_group_name_H-M "P 42/N C M"
_symmetry_group_IT_number 138
_space_group.IT_coordinate_system_code '2'
_symmetry_cell_setting 'tetragonal'
loop_
_space_group_symop_operation_xyz
x,y,z
1/2-y,x,1/2+z
1/2-x,1/2-y,z
y,1/2-x,1/2+z
1/2+x,-y,1/2-z
-x,1/2+y,1/2-z
1/2+y,1/2+x,-z
-y,-x,-z
-x,-y,-z
1/2+y,-x,1/2-z
1/2+x,1/2+y,-z
-y,1/2+x,1/2-z
1/2-x,y,1/2+z
x,1/2-y,1/2+z
1/2-y,1/2-x,z
y,x,z
loop_
_atom_site_type_symbol
_atom_site_label
_atom_site_fract_x
_atom_site_fract_y
_atom_site_fract_z
Si Si1 0.817121 0.003216 0.875457
Si Si2 0.425824 0.621174 0.596399
Si Si3 0.563576 0.276203 0.235776
Si Si4 0.754783 0.935212 0.171786
Si Si5 0.853421 0.035728 0.047598
O O1 0.690977 0.045036 0.895807
O O2 0.811917 0.033544 0.818526
O O3 0.903333 0.082529 0.907299
O O4 0.871495 0.871495 0.880361
O O5 0.528608 0.528608 0.590923
O O6 0.453030 0.704580 0.643071
O O7 0.437211 0.716426 0.553825
O O8 0.652194 0.370269 0.259082
O O9 0.455581 0.262302 0.271655
O O10 0.666457 0.833544 0.156131
O O11 0.884983 0.884983 0.162887
O O12 0.903477 0.096524 0.000000
O O13 0.900833 0.900833 0.046495
#
# Coordination Sequence:
#
# PCOD9570910 Si02
#       5
#    16  16  16  16  16
#     4  11  24  42  66  95 135 183 229 280 342 416
#     4  11  23  41  67  99 135 173 221 280 344 416
#     4  11  22  36  59  90 127 176 227 279 334 400
#     4  10  21  37  59  89 125 168 219 274 332 400
#     4  10  23  45  72 100 130 170 222 284 348 410
#
# _framework density 22.174811999999999
#
# number of rings (size 3 to 8) (size 9 to 14) (size 15 to 20)
#    0.000    1.400    2.000    3.000    2.800    7.200 
#    0.000    2.000    0.000    3.600    0.000    0.000 
#    0.000    0.000    0.000    0.000    0.000    0.000 
#
# Total GULP energy -446155.627219 kJ/mol
# GULP energy per Si atom -5576.945340 kJ/mol
# Density = 2.212434 g / cm^3
# Si number density = 22.174812 Si / 1000 Ang^3
#
#
#
# Elastic Constant Matrix: (Units=GPa)
#
#
# Indices 1 2 3 4 5 6 
#
# 1 127.0977 81.1347 44.6265 0.0000 0.0000 0.0000
# 2 81.1347 127.0967 44.6267 0.0000 0.0000 0.0000
# 3 44.6265 44.6267 81.2281 0.0000 0.0000 0.0000
# 4 0.0000 0.0000 0.0000 18.2244 0.0000 0.0000
# 5 0.0000 0.0000 0.0000 0.0000 18.2247 0.0000
# 6 0.0000 0.0000 0.0000 0.0000 0.0000 2.8445
#
#
#
# Elastic Compliance Matrix: (Units=1/GPa)
#
#
# Indices 1 2 3 4 5 6 
#
# 1 0.014019 -0.007738 -0.003451 0.000000 0.000000 0.000000
# 2 -0.007738 0.014019 -0.003451 0.000000 0.000000 0.000000
# 3 -0.003451 -0.003451 0.016103 0.000000 0.000000 0.000000
# 4 0.000000 0.000000 0.000000 0.054872 0.000000 0.000000
# 5 0.000000 0.000000 0.000000 0.000000 0.054870 0.000000
# 6 0.000000 0.000000 0.000000 0.000000 0.000000 0.351557
#
#
# Mechanical properties :
#
#
# Convention : Reuss Voigt Hill
#
# Bulk Modulus (GPa) = 67.28639 75.13314 71.20976
# Shear Modulus (GPa) = 9.26485 18.86103 14.06294
#
# Velocity S-wave (km/s) = 2.04626 2.91960 2.52104
# Velocity P-wave (km/s) = 5.99936 6.73210 6.37627
#
# Compressibility (1/GPa) = 0.01486185
#
# Stress axis : x y z
#
# Youngs Moduli (GPa) = 71.33114 71.33029 62.10001
#
# Poissons Ratio (x) = 0.55193 0.21431
# Poissons Ratio (y) = 0.55194 0.21432
# Poissons Ratio (z) = 0.24616 0.24617
#
# Static dielectric constant tensor:
#      x y z
#    x 1.871090 0.000000 0.000000 
#    y 0.000000 1.871090 0.000000 
#    z 0.000000 0.000000 1.842600 
# 
# From -- ./inp_files/7885.got.cif
#   From: 2010.05.17/outbox.cif.g08.bks.cpg/sg138_4_cif.got.tgz:7885.got - 2010.05.20 13:08:53.
