data_PCOD9570484
_publ_section_title
;
Structure prediction by ZEFSAII (Michael W. Deem and Ramdas Pophale) SiO2 
 PCOD9570484
Probable space group: P 42/N M C
;
_chemical_formula_sum "Si O2"
_cell_formula_units_Z 72
_cell_length_a 13.836544
_cell_length_b 13.836544
_cell_length_c 22.098725
_cell_angle_alpha 90.000000
_cell_angle_beta 90.000000
_cell_angle_gamma 90.000000
_cell_volume 4230.799793
_symmetry_space_group_name_H-M "P 42/N M C"
_symmetry_group_IT_number 137
_space_group.IT_coordinate_system_code '2'
_symmetry_cell_setting 'tetragonal'
loop_
_space_group_symop_operation_xyz
x,y,z
1/2-y,x,1/2+z
1/2-x,1/2-y,z
y,1/2-x,1/2+z
1/2+x,-y,-z
-x,1/2+y,-z
1/2+y,1/2+x,1/2-z
-y,-x,1/2-z
-x,-y,-z
1/2+y,-x,1/2-z
1/2+x,1/2+y,-z
-y,1/2+x,1/2-z
1/2-x,y,z
x,1/2-y,z
1/2-y,1/2-x,1/2+z
y,x,1/2+z
loop_
_atom_site_type_symbol
_atom_site_label
_atom_site_fract_x
_atom_site_fract_y
_atom_site_fract_z
Si Si1 0.549990 0.051088 0.373165
Si Si2 0.863978 0.550043 0.561790
Si Si3 0.634240 0.355789 0.492317
Si Si4 0.638540 0.866048 0.931434
Si Si5 0.365536 0.865536 0.750000
O O1 0.435639 0.067300 0.382890
O O2 0.596809 0.115406 0.426524
O O3 0.590160 0.084846 0.309376
O O4 0.581463 0.941635 0.390507
O O5 0.750000 0.558193 0.575011
O O6 0.888117 0.442124 0.538010
O O7 0.886034 0.615743 0.502608
O O8 0.750000 0.353766 0.488792
O O9 0.599232 0.250000 0.510866
O O10 0.750000 0.888260 0.917561
O O11 0.624017 0.750000 0.924656
O O12 0.381627 0.750000 0.747946
#
# Coordination Sequence:
#
# PCOD9570484 Si02
#       5
#    16  16  16  16   8
#     4  11  20  32  51  71  98 135 170 202 241 291
#     4   9  19  32  47  73 104 131 162 201 245 292
#     4   9  16  28  50  79 105 127 157 201 250 296
#     4   9  17  30  50  77 106 131 158 198 249 302
#     4  11  24  40  56  74  96 123 160 206 248 287
#
# _framework density 17.018059999999998
#
# number of rings (size 3 to 8) (size 9 to 14) (size 15 to 20)
#    0.000    2.333    0.000    6.667    0.000    6.222 
#    0.000    1.111    0.000    1.333    0.000    0.000 
#    0.000    1.778    0.000    0.000    0.000    0.000 
#
# Total GULP energy -401667.274440 kJ/mol
# GULP energy per Si atom -5578.712145 kJ/mol
# Density = 1.697933 g / cm^3
# Si number density = 17.018060 Si / 1000 Ang^3
#
#
#
# Elastic Constant Matrix: (Units=GPa)
#
#
# Indices 1 2 3 4 5 6 
#
# 1 86.5659 42.1798 52.1305 0.0000 0.0000 0.0000
# 2 42.1798 86.5659 52.1305 0.0000 0.0000 0.0000
# 3 52.1305 52.1305 84.0720 0.0000 0.0000 0.0000
# 4 0.0000 0.0000 0.0000 8.7864 0.0000 0.0000
# 5 0.0000 0.0000 0.0000 0.0000 8.7864 0.0000
# 6 0.0000 0.0000 0.0000 0.0000 0.0000 14.8824
#
#
#
# Elastic Compliance Matrix: (Units=1/GPa)
#
#
# Indices 1 2 3 4 5 6 
#
# 1 0.019066 -0.003464 -0.009674 0.000000 0.000000 0.000000
# 2 -0.003464 0.019066 -0.009674 0.000000 0.000000 0.000000
# 3 -0.009674 -0.009674 0.023892 0.000000 0.000000 0.000000
# 4 0.000000 0.000000 0.000000 0.113813 0.000000 0.000000
# 5 0.000000 0.000000 0.000000 0.000000 0.113813 0.000000
# 6 0.000000 0.000000 0.000000 0.000000 0.000000 0.067193
#
#
# Mechanical properties :
#
#
# Convention : Reuss Voigt Hill
#
# Bulk Modulus (GPa) = 60.98078 61.12061 61.05069
# Shear Modulus (GPa) = 12.25695 13.87522 13.06608
#
# Velocity S-wave (km/s) = 2.68662 2.85848 2.77389
# Velocity P-wave (km/s) = 6.74794 6.84746 6.79788
#
# Compressibility (1/GPa) = 0.01639861
#
# Stress axis : x y z
#
# Youngs Moduli (GPa) = 52.45068 52.45068 41.85565
#
# Poissons Ratio (x) = 0.18169 0.40491
# Poissons Ratio (y) = 0.18169 0.40491
# Poissons Ratio (z) = 0.50741 0.50741
#
# Static dielectric constant tensor:
#      x y z
#    x 1.620920 0.000000 0.000000 
#    y 0.000000 1.620920 0.000000 
#    z 0.000000 0.000000 1.520840 
# 
# From -- ./inp_files/6191.got.cif
#   From: 2010.05.17/outbox.cif.g08.bks.cpg/sg137_4_cif.got.tgz:6191.got - 2010.05.20 13:01:12.
