data_PCOD9570879
_publ_section_title
;
Structure prediction by ZEFSAII (Michael W. Deem and Ramdas Pophale) SiO2 
 PCOD9570879
Probable space group: P 42/N C M
;
_chemical_formula_sum "Si O2"
_cell_formula_units_Z 96
_cell_length_a 14.802990
_cell_length_b 14.802990
_cell_length_c 21.123060
_cell_angle_alpha 90.000000
_cell_angle_beta 90.000000
_cell_angle_gamma 90.000000
_cell_volume 4628.664727
_symmetry_space_group_name_H-M "P 42/N C M"
_symmetry_group_IT_number 138
_space_group.IT_coordinate_system_code '2'
_symmetry_cell_setting 'tetragonal'
loop_
_space_group_symop_operation_xyz
x,y,z
1/2-y,x,1/2+z
1/2-x,1/2-y,z
y,1/2-x,1/2+z
1/2+x,-y,1/2-z
-x,1/2+y,1/2-z
1/2+y,1/2+x,-z
-y,-x,-z
-x,-y,-z
1/2+y,-x,1/2-z
1/2+x,1/2+y,-z
-y,1/2+x,1/2-z
1/2-x,y,1/2+z
x,1/2-y,1/2+z
1/2-y,1/2-x,z
y,x,z
loop_
_atom_site_type_symbol
_atom_site_label
_atom_site_fract_x
_atom_site_fract_y
_atom_site_fract_z
Si Si1 0.491356 0.746671 0.365488
Si Si2 0.089545 0.089545 0.452334
Si Si3 0.396323 0.770807 0.237572
Si Si4 0.924811 0.072330 0.923905
Si Si5 0.245050 0.483246 0.875531
Si Si6 0.546781 0.546781 0.402857
Si Si7 0.323935 0.176066 0.786698
Si Si8 0.325821 0.174180 0.644987
O O1 0.471870 0.761306 0.291308
O O2 0.425878 0.820266 0.399614
O O3 0.502906 0.638976 0.375515
O O4 0.587801 0.783913 0.387074
O O5 0.053855 0.189552 0.435824
O O6 0.068921 0.068921 0.524315
O O7 0.029481 0.029481 0.404343
O O8 0.344738 0.675291 0.239638
O O9 0.433282 0.790785 0.167563
O O10 0.983867 0.155703 0.896060
O O11 0.922778 0.077222 0.000000
O O12 0.980841 0.980841 0.905909
O O13 0.226300 0.400749 0.827229
O O14 0.250000 0.250000 0.773862
O O15 0.353610 0.146391 0.716779
O O16 0.250000 0.250000 0.645433
#
# Coordination Sequence:
#
# PCOD9570879 Si02
#       8
#    16   8  16  16  16   8   8   8
#     4  12  22  40  64  94 127 170 212 262 329 387
#     4  10  24  44  65  87 122 168 223 265 312 384
#     4  11  23  39  61  92 129 162 209 268 326 387
#     4  11  24  41  63  93 130 170 218 267 318 385
#     4  11  21  41  63  89 125 169 210 263 326 379
#     4  11  24  43  64  91 122 167 219 267 312 380
#     4  10  21  35  59  88 125 160 204 254 314 383
#     4  11  21  37  58  92 128 162 203 256 318 389
#
# _framework density 20.740323
#
# number of rings (size 3 to 8) (size 9 to 14) (size 15 to 20)
#    0.000    1.000    5.000    2.500    0.000    0.000 
#    1.500    0.000    1.833    4.000    0.000    0.000 
#    0.000    0.000    0.000    0.000    0.000    0.000 
#
# Total GULP energy -534452.219898 kJ/mol
# GULP energy per Si atom -5567.210624 kJ/mol
# Density = 2.069312 g / cm^3
# Si number density = 20.740323 Si / 1000 Ang^3
#
#
#
# Elastic Constant Matrix: (Units=GPa)
#
#
# Indices 1 2 3 4 5 6 
#
# 1 89.4504 30.7819 3.9328 0.0000 0.0000 0.0000
# 2 30.7819 89.4504 3.9328 0.0000 0.0000 0.0000
# 3 3.9328 3.9328 46.8557 0.0000 0.0000 0.0000
# 4 0.0000 0.0000 0.0000 25.1900 0.0000 0.0000
# 5 0.0000 0.0000 0.0000 0.0000 25.1900 0.0000
# 6 0.0000 0.0000 0.0000 0.0000 0.0000 23.6216
#
#
#
# Elastic Compliance Matrix: (Units=1/GPa)
#
#
# Indices 1 2 3 4 5 6 
#
# 1 0.012704 -0.004341 -0.000702 0.000000 0.000000 0.000000
# 2 -0.004341 0.012704 -0.000702 0.000000 0.000000 0.000000
# 3 -0.000702 -0.000702 0.021460 0.000000 0.000000 0.000000
# 4 0.000000 0.000000 0.000000 0.039698 0.000000 0.000000
# 5 0.000000 0.000000 0.000000 0.000000 0.039698 0.000000
# 6 0.000000 0.000000 0.000000 0.000000 0.000000 0.042334
#
#
# Mechanical properties :
#
#
# Convention : Reuss Voigt Hill
#
# Bulk Modulus (GPa) = 28.26580 33.67238 30.96909
# Shear Modulus (GPa) = 26.05779 27.27425 26.66602
#
# Velocity S-wave (km/s) = 3.54839 3.63028 3.58957
# Velocity P-wave (km/s) = 5.51780 5.81742 5.66959
#
# Compressibility (1/GPa) = 0.03537844
#
# Stress axis : x y z
#
# Youngs Moduli (GPa) = 78.71512 78.71506 46.59847
#
# Poissons Ratio (x) = 0.34169 0.03271
# Poissons Ratio (y) = 0.34169 0.03271
# Poissons Ratio (z) = 0.05525 0.05525
#
# Static dielectric constant tensor:
#      x y z
#    x 1.787120 0.000000 0.000000 
#    y 0.000000 1.787120 0.000000 
#    z 0.000000 0.000000 1.730270 
# 
# From -- ./inp_files/6334.got.cif
#   From: 2010.05.17/outbox.cif.g08.bks.cpg/sg138_4_cif.got.tgz:6334.got - 2010.05.20 13:08:53.
