data_PCOD9570366
_publ_section_title
;
Structure prediction by ZEFSAII (Michael W. Deem and Ramdas Pophale) SiO2 
 PCOD9570366
Probable space group: P 42/N M C
;
_chemical_formula_sum "Si O2"
_cell_formula_units_Z 96
_cell_length_a 14.933193
_cell_length_b 14.933193
_cell_length_c 23.196279
_cell_angle_alpha 90.000000
_cell_angle_beta 90.000000
_cell_angle_gamma 90.000000
_cell_volume 5172.776090
_symmetry_space_group_name_H-M "P 42/N M C"
_symmetry_group_IT_number 137
_space_group.IT_coordinate_system_code '2'
_symmetry_cell_setting 'tetragonal'
loop_
_space_group_symop_operation_xyz
x,y,z
1/2-y,x,1/2+z
1/2-x,1/2-y,z
y,1/2-x,1/2+z
1/2+x,-y,-z
-x,1/2+y,-z
1/2+y,1/2+x,1/2-z
-y,-x,1/2-z
-x,-y,-z
1/2+y,-x,1/2-z
1/2+x,1/2+y,-z
-y,1/2+x,1/2-z
1/2-x,y,z
x,1/2-y,z
1/2-y,1/2-x,1/2+z
y,x,1/2+z
loop_
_atom_site_type_symbol
_atom_site_label
_atom_site_fract_x
_atom_site_fract_y
_atom_site_fract_z
Si Si1 0.063803 0.356826 0.137241
Si Si2 0.146028 0.929640 0.372815
Si Si3 0.009910 0.074367 0.388184
Si Si4 0.642796 0.142796 0.750000
Si Si5 0.750000 0.350373 0.946563
Si Si6 0.012394 0.250000 0.466826
Si Si7 0.855743 0.499575 0.237903
Si Si8 0.142409 0.250000 0.574031
O O1 0.049094 0.250000 0.128080
O O2 0.159033 0.381782 0.108837
O O3 0.982551 0.417319 0.112838
O O4 0.062209 0.372480 0.206454
O O5 0.250000 0.956218 0.370769
O O6 0.115170 0.909724 0.307319
O O7 0.139683 0.836731 0.406635
O O8 0.086297 0.003331 0.403411
O O9 0.011357 0.160727 0.428309
O O10 0.031477 0.106993 0.323159
O O11 0.630262 0.250000 0.741588
O O12 0.750000 0.250000 0.970776
O O13 0.750000 0.423168 0.995468
O O14 0.093488 0.250000 0.512633
O O15 0.906877 0.406877 0.250000
O O16 0.750000 0.486222 0.233355
O O17 0.250000 0.250000 0.567614
#
# Coordination Sequence:
#
# PCOD9570366 Si02
#       8
#    16  16  16   8   8   8  16   8
#     4   9  20  39  64  89 116 149 202 255 304 347
#     4  10  21  37  58  90 126 158 198 242 307 366
#     4  11  23  39  58  86 123 160 202 242 307 359
#     4   9  16  32  60  92 124 156 185 240 308 374
#     4  10  22  42  62  88 122 156 200 257 296 353
#     4  12  26  42  60  84 122 168 208 245 294 358
#     4   9  18  36  59  85 117 152 192 257 307 350
#     4  10  22  42  64  88 118 160 202 244 288 353
#
# _framework density 18.558700999999999
#
# number of rings (size 3 to 8) (size 9 to 14) (size 15 to 20)
#    0.000    2.083    1.667    1.000    3.500    4.167 
#    1.500    3.333    0.000    0.000    0.000    0.000 
#    0.000    0.000    0.000    0.000    0.000    0.000 
#
# Total GULP energy -535825.333699 kJ/mol
# GULP energy per Si atom -5581.513893 kJ/mol
# Density = 1.851646 g / cm^3
# Si number density = 18.558701 Si / 1000 Ang^3
#
#
#
# Elastic Constant Matrix: (Units=GPa)
#
#
# Indices 1 2 3 4 5 6 
#
# 1 88.9278 45.4613 47.5376 0.0000 0.0000 0.0000
# 2 45.4613 88.9278 47.5376 0.0000 0.0000 0.0000
# 3 47.5376 47.5376 75.6408 0.0000 0.0000 0.0000
# 4 0.0000 0.0000 0.0000 8.3755 0.0000 0.0000
# 5 0.0000 0.0000 0.0000 0.0000 8.3755 0.0000
# 6 0.0000 0.0000 0.0000 0.0000 0.0000 24.0821
#
#
#
# Elastic Compliance Matrix: (Units=1/GPa)
#
#
# Indices 1 2 3 4 5 6 
#
# 1 0.018202 -0.004804 -0.008420 0.000000 0.000000 0.000000
# 2 -0.004804 0.018202 -0.008420 0.000000 0.000000 0.000000
# 3 -0.008420 -0.008420 0.023804 0.000000 0.000000 0.000000
# 4 0.000000 0.000000 0.000000 0.119395 0.000000 0.000000
# 5 0.000000 0.000000 0.000000 0.000000 0.119395 0.000000
# 6 0.000000 0.000000 0.000000 0.000000 0.000000 0.041525
#
#
# Mechanical properties :
#
#
# Convention : Reuss Voigt Hill
#
# Bulk Modulus (GPa) = 59.10422 59.39660 59.25041
# Shear Modulus (GPa) = 12.83855 15.69730 14.26792
#
# Velocity S-wave (km/s) = 2.63303 2.91145 2.77573
# Velocity P-wave (km/s) = 6.41561 6.58607 6.50140
#
# Compressibility (1/GPa) = 0.01691927
#
# Stress axis : x y z
#
# Youngs Moduli (GPa) = 54.93853 54.93853 42.00972
#
# Poissons Ratio (x) = 0.26393 0.35373
# Poissons Ratio (y) = 0.26393 0.35373
# Poissons Ratio (z) = 0.46259 0.46259
#
# Static dielectric constant tensor:
#      x y z
#    x 1.697230 0.000000 0.000000 
#    y 0.000000 1.697230 0.000000 
#    z 0.000000 0.000000 1.648440 
# 
# From -- ./inp_files/7939.got.cif
#   From: 2010.05.17/outbox.cif.g08.bks.cpg/sg137_4_cif.got.tgz:7939.got - 2010.05.20 13:01:12.
