data_PCOD9570433
_publ_section_title
;
Structure prediction by ZEFSAII (Michael W. Deem and Ramdas Pophale) SiO2 
 PCOD9570433
Probable space group: P 42/N M C
;
_chemical_formula_sum "Si O2"
_cell_formula_units_Z 72
_cell_length_a 11.120061
_cell_length_b 11.120061
_cell_length_c 28.215285
_cell_angle_alpha 90.000000
_cell_angle_beta 90.000000
_cell_angle_gamma 90.000000
_cell_volume 3488.982416
_symmetry_space_group_name_H-M "P 42/N M C"
_symmetry_group_IT_number 137
_space_group.IT_coordinate_system_code '2'
_symmetry_cell_setting 'tetragonal'
loop_
_space_group_symop_operation_xyz
x,y,z
1/2-y,x,1/2+z
1/2-x,1/2-y,z
y,1/2-x,1/2+z
1/2+x,-y,-z
-x,1/2+y,-z
1/2+y,1/2+x,1/2-z
-y,-x,1/2-z
-x,-y,-z
1/2+y,-x,1/2-z
1/2+x,1/2+y,-z
-y,1/2+x,1/2-z
1/2-x,y,z
x,1/2-y,z
1/2-y,1/2-x,1/2+z
y,x,1/2+z
loop_
_atom_site_type_symbol
_atom_site_label
_atom_site_fract_x
_atom_site_fract_y
_atom_site_fract_z
Si Si1 0.895742 0.750000 0.704621
Si Si2 0.614582 0.378277 0.032551
Si Si3 0.993918 0.496573 0.835096
Si Si4 0.617562 0.382439 0.750000
Si Si5 0.250000 0.102992 0.679733
Si Si6 0.615726 0.486118 0.567663
O O1 0.750000 0.750000 0.696456
O O2 0.913857 0.750000 0.762166
O O3 0.955197 0.628714 0.681485
O O4 0.750000 0.370983 0.048848
O O5 0.552523 0.250000 0.044562
O O6 0.565802 0.501188 0.053551
O O7 0.608916 0.384852 0.975223
O O8 0.950913 0.415804 0.879045
O O9 0.906189 0.472943 0.791349
O O10 0.967347 0.636348 0.842964
O O11 0.750000 0.397147 0.729948
O O12 0.250000 0.250000 0.671488
O O13 0.750000 0.541560 0.567115
#
# Coordination Sequence:
#
# PCOD9570433 Si02
#       6
#     8  16  16   8   8  16
#     4  11  22  41  65  93 133 174 214 268 322 379
#     4   9  20  40  63  87 122 161 201 261 330 387
#     4  12  24  40  63  93 130 170 217 264 323 383
#     4  11  22  38  62  89 122 166 214 267 324 377
#     4  11  24  43  65  91 133 176 214 268 326 381
#     4  10  22  39  63  92 124 160 213 265 317 384
#
# _framework density 20.636389000000001
#
# number of rings (size 3 to 8) (size 9 to 14) (size 15 to 20)
#    0.000    1.444    2.222    2.667    3.111    2.667 
#    0.000    3.333    0.000    0.000    0.000    0.000 
#    0.000    0.000    0.000    0.000    0.000    0.000 
#
# Total GULP energy -400805.801502 kJ/mol
# GULP energy per Si atom -5566.747243 kJ/mol
# Density = 2.058942 g / cm^3
# Si number density = 20.636389 Si / 1000 Ang^3
#
#
#
# Elastic Constant Matrix: (Units=GPa)
#
#
# Indices 1 2 3 4 5 6 
#
# 1 97.7355 66.1555 0.9018 0.0000 0.0000 0.0000
# 2 66.1555 97.7356 0.9051 0.0000 0.0000 0.0000
# 3 0.9018 0.9051 64.8781 0.0000 0.0000 0.0000
# 4 0.0000 0.0000 0.0000 -157.5102 0.0000 0.0000
# 5 0.0000 0.0000 0.0000 0.0000 -157.5103 0.0000
# 6 0.0000 0.0000 0.0000 0.0000 0.0000 43.3485
#
#
#
# Elastic Compliance Matrix: (Units=1/GPa)
#
#
# Indices 1 2 3 4 5 6 
#
# 1 0.018884 -0.012781 -0.000084 0.000000 0.000000 0.000000
# 2 -0.012781 0.018884 -0.000086 0.000000 0.000000 0.000000
# 3 -0.000084 -0.000086 0.015416 0.000000 0.000000 0.000000
# 4 0.000000 0.000000 0.000000 -0.006349 0.000000 0.000000
# 5 0.000000 0.000000 0.000000 0.000000 -0.006349 0.000000
# 6 0.000000 0.000000 0.000000 0.000000 0.000000 0.023069
#
#
# Mechanical properties :
#
#
# Convention : Reuss Voigt Hill
#
# Bulk Modulus (GPa) = 36.65545 44.03044 40.34294
# Shear Modulus (GPa) = 50.73480 -41.50859 4.61310
#
# Velocity S-wave (km/s) = 4.96372 -4.48976 1.49675
# Velocity P-wave (km/s) = 7.11705 2.34406 4.75173
#
# Compressibility (1/GPa) = 0.02728107
#
# Stress axis : x y z
#
# Youngs Moduli (GPa) = 52.95485 52.95485 64.86816
#
# Poissons Ratio (x) = 0.67684 0.00546
# Poissons Ratio (y) = 0.67684 0.00557
# Poissons Ratio (z) = 0.00446 0.00454
#
# Static dielectric constant tensor:
#      x y z
#    x 1.799760 0.000000 0.000000 
#    y 0.000000 1.799760 0.000000 
#    z 0.000000 0.000000 1.759830 
# 
# From -- ./inp_files/9588.got.cif
#   From: 2010.05.17/outbox.cif.g08.bks.cpg/sg137_5_cif.got.tgz:9588.got - 2010.05.20 13:01:12.
