data_PCOD9570467
_publ_section_title
;
Structure prediction by ZEFSAII (Michael W. Deem and Ramdas Pophale) SiO2 
 PCOD9570467
Probable space group: P 42/N M C
;
_chemical_formula_sum "Si O2"
_cell_formula_units_Z 58
_cell_length_a 13.227507
_cell_length_b 13.227507
_cell_length_c 19.188427
_cell_angle_alpha 90.000000
_cell_angle_beta 90.000000
_cell_angle_gamma 90.000000
_cell_volume 3357.340383
_symmetry_space_group_name_H-M "P 42/N M C"
_symmetry_group_IT_number 137
_space_group.IT_coordinate_system_code '2'
_symmetry_cell_setting 'tetragonal'
loop_
_space_group_symop_operation_xyz
x,y,z
1/2-y,x,1/2+z
1/2-x,1/2-y,z
y,1/2-x,1/2+z
1/2+x,-y,-z
-x,1/2+y,-z
1/2+y,1/2+x,1/2-z
-y,-x,1/2-z
-x,-y,-z
1/2+y,-x,1/2-z
1/2+x,1/2+y,-z
-y,1/2+x,1/2-z
1/2-x,y,z
x,1/2-y,z
1/2-y,1/2-x,1/2+z
y,x,1/2+z
loop_
_atom_site_type_symbol
_atom_site_label
_atom_site_fract_x
_atom_site_fract_y
_atom_site_fract_z
Si Si1 0.370245 0.132829 0.175015
Si Si2 0.750000 0.135593 0.390420
Si Si3 0.865718 0.871545 0.665363
Si Si4 0.250000 0.750000 0.750000
Si Si5 0.975135 0.460994 0.076874
O O1 0.250000 0.131543 0.167128
O O2 0.403497 0.250000 0.165202
O O3 0.392390 0.102778 0.254633
O O4 0.423526 0.061213 0.120311
O O5 0.750000 0.250000 0.418431
O O6 0.750000 0.155916 0.305139
O O7 0.646446 0.083428 0.415811
O O8 0.750000 0.905558 0.650729
O O9 0.865115 0.750000 0.661550
O O10 0.950007 0.914286 0.614844
O O11 0.000000 0.500000 0.000000
#
# Coordination Sequence:
#
# PCOD9570467 Si02
#       5
#    16   8  16   2  16
#     4   9  19  37  60  85 112 148 200 251 295 354
#     4  10  24  40  61  99 120 155 205 262 337 365
#     4   9  20  37  61  87 112 150 200 252 300 353
#     4   8  24  40  72  92 128 148 202 288 328 376
#     4  12  24  35  59  85 128 163 197 245 309 384
#
# _framework density 17.275579
#
# number of rings (size 3 to 8) (size 9 to 14) (size 15 to 20)
#    0.414    1.655    1.379    3.310    5.793    2.207 
#    0.000    2.759    0.000    0.000    0.000    3.862 
#    0.000    0.000    0.000    0.000    0.000    0.000 
#
# Total GULP energy -323275.067803 kJ/mol
# GULP energy per Si atom -5573.708066 kJ/mol
# Density = 1.723626 g / cm^3
# Si number density = 17.275579 Si / 1000 Ang^3
#
#
#
# Elastic Constant Matrix: (Units=GPa)
#
#
# Indices 1 2 3 4 5 6 
#
# 1 84.3548 47.1778 83.7456 0.0000 0.0000 0.0000
# 2 47.1778 84.3548 83.7456 0.0000 0.0000 0.0000
# 3 83.7456 83.7456 147.3345 0.0000 0.0000 0.0000
# 4 0.0000 0.0000 0.0000 17.1166 0.0000 0.0000
# 5 0.0000 0.0000 0.0000 0.0000 17.1166 0.0000
# 6 0.0000 0.0000 0.0000 0.0000 0.0000 30.2244
#
#
#
# Elastic Compliance Matrix: (Units=1/GPa)
#
#
# Indices 1 2 3 4 5 6 
#
# 1 0.027212 0.000314 -0.015646 0.000000 0.000000 0.000000
# 2 0.000314 0.027212 -0.015646 0.000000 0.000000 0.000000
# 3 -0.015646 -0.015646 0.024573 0.000000 0.000000 0.000000
# 4 0.000000 0.000000 0.000000 0.058423 0.000000 0.000000
# 5 0.000000 0.000000 0.000000 0.000000 0.058423 0.000000
# 6 0.000000 0.000000 0.000000 0.000000 0.000000 0.033086
#
#
# Mechanical properties :
#
#
# Convention : Reuss Voigt Hill
#
# Bulk Modulus (GPa) = 58.67893 82.82022 70.74958
# Shear Modulus (GPa) = 16.85974 19.64988 18.25481
#
# Velocity S-wave (km/s) = 3.12738 3.37625 3.25419
# Velocity P-wave (km/s) = 6.86154 7.95258 7.42712
#
# Compressibility (1/GPa) = 0.01704189
#
# Stress axis : x y z
#
# Youngs Moduli (GPa) = 36.74862 36.74862 40.69455
#
# Poissons Ratio (x) = -0.01152 0.63669
# Poissons Ratio (y) = -0.01152 0.63669
# Poissons Ratio (z) = 0.57495 0.57495
#
# Static dielectric constant tensor:
#      x y z
#    x 1.594580 0.000000 0.000000 
#    y 0.000000 1.594580 0.000000 
#    z 0.000000 0.000000 1.580800 
# 
# From -- ./inp_files/7368.got.cif
#   From: 2010.05.17/outbox.cif.g08.bks.cpg/sg137_4_cif.got.tgz:7368.got - 2010.05.20 13:01:12.
