data_PCOD9570399
_publ_section_title
;
Structure prediction by ZEFSAII (Michael W. Deem and Ramdas Pophale) SiO2 
 PCOD9570399
Probable space group: P 42/N M C
;
_chemical_formula_sum "Si O2"
_cell_formula_units_Z 112
_cell_length_a 15.166256
_cell_length_b 15.166256
_cell_length_c 22.782094
_cell_angle_alpha 90.000000
_cell_angle_beta 90.000000
_cell_angle_gamma 90.000000
_cell_volume 5240.230666
_symmetry_space_group_name_H-M "P 42/N M C"
_symmetry_group_IT_number 137
_space_group.IT_coordinate_system_code '2'
_symmetry_cell_setting 'tetragonal'
loop_
_space_group_symop_operation_xyz
x,y,z
1/2-y,x,1/2+z
1/2-x,1/2-y,z
y,1/2-x,1/2+z
1/2+x,-y,-z
-x,1/2+y,-z
1/2+y,1/2+x,1/2-z
-y,-x,1/2-z
-x,-y,-z
1/2+y,-x,1/2-z
1/2+x,1/2+y,-z
-y,1/2+x,1/2-z
1/2-x,y,z
x,1/2-y,z
1/2-y,1/2-x,1/2+z
y,x,1/2+z
loop_
_atom_site_type_symbol
_atom_site_label
_atom_site_fract_x
_atom_site_fract_y
_atom_site_fract_z
Si Si1 0.498469 0.852600 0.368584
Si Si2 0.886356 0.647562 0.538373
Si Si3 0.525245 0.154364 0.889625
Si Si4 0.349112 0.919374 0.923788
Si Si5 0.851684 0.023170 0.213093
Si Si6 0.041308 0.346230 0.078018
Si Si7 0.345847 0.454783 0.262467
O O1 0.509009 0.750000 0.386640
O O2 0.581890 0.914780 0.380583
O O3 0.491587 0.853684 0.297950
O O4 0.419723 0.902607 0.401924
O O5 0.858323 0.750000 0.547872
O O6 0.862522 0.574046 0.587040
O O7 0.850447 0.603214 0.479438
O O8 0.992384 0.649017 0.537192
O O9 0.553095 0.250000 0.912031
O O10 0.516025 0.155688 0.819501
O O11 0.250000 0.879234 0.929408
O O12 0.357769 0.953056 0.856081
O O13 0.438919 0.866633 0.936381
O O14 0.907669 0.092332 0.250000
O O15 0.750000 0.027661 0.229623
O O16 0.890405 0.927409 0.227429
O O17 0.045720 0.250000 0.105102
O O18 0.250000 0.408483 0.259905
#
# Coordination Sequence:
#
# PCOD9570399 Si02
#       7
#    16  16  16  16  16  16  16
#     4  11  24  41  61  90 128 167 210 258 309 375
#     4  11  23  43  67  92 124 160 206 264 319 374
#     4  11  22  39  65  93 123 162 207 259 320 377
#     4  10  22  41  67  95 127 167 211 261 317 374
#     4  11  22  38  61  92 130 169 209 256 308 368
#     4  12  25  43  66  91 126 169 210 257 315 378
#     4  10  21  38  62  90 123 161 204 257 315 375
#
# _framework density 21.373104999999999
#
# number of rings (size 3 to 8) (size 9 to 14) (size 15 to 20)
#    0.000    1.143    2.857    3.429    0.000    5.286 
#    0.000    4.286    0.000    4.286    0.000    0.000 
#    0.000    0.000    0.000    0.000    0.000    0.000 
#
# Total GULP energy -625392.808623 kJ/mol
# GULP energy per Si atom -5583.864363 kJ/mol
# Density = 2.132446 g / cm^3
# Si number density = 21.373105 Si / 1000 Ang^3
#
#
#
# Elastic Constant Matrix: (Units=GPa)
#
#
# Indices 1 2 3 4 5 6 
#
# 1 113.6405 63.0009 -5.5601 0.0000 0.0000 0.0000
# 2 63.0009 113.6317 -5.5636 0.0000 0.0000 0.0000
# 3 -5.5601 -5.5636 34.4818 0.0000 0.0000 0.0000
# 4 0.0000 0.0000 0.0000 37.3337 0.0000 0.0000
# 5 0.0000 0.0000 0.0000 0.0000 37.3276 0.0000
# 6 0.0000 0.0000 0.0000 0.0000 0.0000 -14.6250
#
#
#
# Elastic Compliance Matrix: (Units=1/GPa)
#
#
# Indices 1 2 3 4 5 6 
#
# 1 0.012734 -0.007015 0.000921 0.000000 0.000000 0.000000
# 2 -0.007015 0.012735 0.000924 0.000000 0.000000 0.000000
# 3 0.000921 0.000924 0.029298 0.000000 0.000000 0.000000
# 4 0.000000 0.000000 0.000000 0.026785 0.000000 0.000000
# 5 0.000000 0.000000 0.000000 0.000000 0.026790 0.000000
# 6 0.000000 0.000000 0.000000 0.000000 0.000000 -0.068376
#
#
# Mechanical properties :
#
#
# Convention : Reuss Voigt Hill
#
# Bulk Modulus (GPa) = 22.50864 40.61206 31.56035
# Shear Modulus (GPa) = 76.78718 25.99903 51.39310
#
# Velocity S-wave (km/s) = 6.00042 3.49153 4.90896
# Velocity P-wave (km/s) = 7.65250 5.94114 6.85047
#
# Compressibility (1/GPa) = 0.04442739
#
# Stress axis : x y z
#
# Youngs Moduli (GPa) = 78.53172 78.52484 34.13153
#
# Poissons Ratio (x) = 0.55084 -0.03145
# Poissons Ratio (y) = 0.55089 -0.03152
# Poissons Ratio (z) = -0.07236 -0.07253
#
# Static dielectric constant tensor:
#      x y z
#    x 1.778310 0.000000 0.000000 
#    y 0.000000 1.778310 0.000000 
#    z 0.000000 0.000000 1.820810 
# 
# From -- ./inp_files/9000.got.cif
#   From: 2010.05.17/outbox.cif.g08.bks.cpg/sg137_5_cif.got.tgz:9000.got - 2010.05.20 13:01:12.
