data_PCOD9570359
_publ_section_title
;
Structure prediction by ZEFSAII (Michael W. Deem and Ramdas Pophale) SiO2 
 PCOD9570359
Probable space group: P 42/N M C
;
_chemical_formula_sum "Si O2"
_cell_formula_units_Z 96
_cell_length_a 23.463119
_cell_length_b 23.463119
_cell_length_c 9.491702
_cell_angle_alpha 90.000000
_cell_angle_beta 90.000000
_cell_angle_gamma 90.000000
_cell_volume 5225.352358
_symmetry_space_group_name_H-M "P 42/N M C"
_symmetry_group_IT_number 137
_space_group.IT_coordinate_system_code '2'
_symmetry_cell_setting 'tetragonal'
loop_
_space_group_symop_operation_xyz
x,y,z
1/2-y,x,1/2+z
1/2-x,1/2-y,z
y,1/2-x,1/2+z
1/2+x,-y,-z
-x,1/2+y,-z
1/2+y,1/2+x,1/2-z
-y,-x,1/2-z
-x,-y,-z
1/2+y,-x,1/2-z
1/2+x,1/2+y,-z
-y,1/2+x,1/2-z
1/2-x,y,z
x,1/2-y,z
1/2-y,1/2-x,1/2+z
y,x,1/2+z
loop_
_atom_site_type_symbol
_atom_site_label
_atom_site_fract_x
_atom_site_fract_y
_atom_site_fract_z
Si Si1 0.461107 0.484815 0.868972
Si Si2 0.909499 0.625043 0.271136
Si Si3 0.549752 0.185243 0.936922
Si Si4 0.620877 0.408238 0.101019
Si Si5 0.684684 0.583873 0.492974
Si Si6 0.314861 0.981393 0.114476
O O1 0.508130 0.491871 0.750000
O O2 0.430277 0.426378 0.831121
O O3 0.414782 0.534711 0.863963
O O4 0.500000 0.500000 0.000000
O O5 0.859074 0.606530 0.375425
O O6 0.962948 0.644989 0.368169
O O7 0.894467 0.672009 0.152592
O O8 0.568403 0.250000 0.972711
O O9 0.547831 0.180353 0.767935
O O10 0.586782 0.135292 0.002276
O O11 0.484887 0.178681 0.992690
O O12 0.625268 0.374733 0.250000
O O13 0.671010 0.436336 0.008305
O O14 0.750000 0.596458 0.454796
O O15 0.250000 0.001784 0.098243
#
# Coordination Sequence:
#
# PCOD9570359 Si02
#       6
#    16  16  16  16  16  16
#     4  11  20  30  49  81 115 143 174 218 278 347
#     4  11  20  36  58  82 113 152 190 238 299 353
#     4   9  19  36  56  78 110 151 188 222 269 334
#     4  11  21  32  50  81 115 144 177 223 277 335
#     4  10  21  37  57  81 110 146 191 238 287 350
#     4  10  21  37  57  79 106 146 192 235 281 341
#
# _framework density 18.371967000000001
#
# number of rings (size 3 to 8) (size 9 to 14) (size 15 to 20)
#    0.000    1.667    0.000    9.000    0.000    0.667 
#    0.000    5.833    0.000    4.500    0.000    3.500 
#    0.000    0.000    0.000    0.000    0.000    0.000 
#
# Total GULP energy -534706.905682 kJ/mol
# GULP energy per Si atom -5569.863601 kJ/mol
# Density = 1.833015 g / cm^3
# Si number density = 18.371967 Si / 1000 Ang^3
#
#
#
# Elastic Constant Matrix: (Units=GPa)
#
#
# Indices 1 2 3 4 5 6 
#
# 1 75.4386 36.0390 38.5475 0.0000 0.0000 0.0000
# 2 36.0390 75.4393 38.5476 0.0000 0.0000 0.0000
# 3 38.5475 38.5476 103.1200 0.0000 0.0000 0.0000
# 4 0.0000 0.0000 0.0000 22.1902 0.0000 0.0000
# 5 0.0000 0.0000 0.0000 0.0000 22.1901 0.0000
# 6 0.0000 0.0000 0.0000 0.0000 0.0000 9.1905
#
#
#
# Elastic Compliance Matrix: (Units=1/GPa)
#
#
# Indices 1 2 3 4 5 6 
#
# 1 0.018739 -0.006641 -0.004522 0.000000 0.000000 0.000000
# 2 -0.006641 0.018739 -0.004522 0.000000 0.000000 0.000000
# 3 -0.004522 -0.004522 0.013078 0.000000 0.000000 0.000000
# 4 0.000000 0.000000 0.000000 0.045065 0.000000 0.000000
# 5 0.000000 0.000000 0.000000 0.000000 0.045065 0.000000
# 6 0.000000 0.000000 0.000000 0.000000 0.000000 0.108807
#
#
# Mechanical properties :
#
#
# Convention : Reuss Voigt Hill
#
# Bulk Modulus (GPa) = 52.12435 53.36289 52.74362
# Shear Modulus (GPa) = 17.40573 20.10510 18.75542
#
# Velocity S-wave (km/s) = 3.08134 3.31166 3.19857
# Velocity P-wave (km/s) = 6.41037 6.61300 6.51247
#
# Compressibility (1/GPa) = 0.01918489
#
# Stress axis : x y z
#
# Youngs Moduli (GPa) = 53.36350 53.36402 76.46164
#
# Poissons Ratio (x) = 0.35441 0.34579
# Poissons Ratio (y) = 0.35441 0.34578
# Poissons Ratio (z) = 0.24133 0.24133
#
# Static dielectric constant tensor:
#      x y z
#    x 1.642050 0.000000 0.000000 
#    y 0.000000 1.642040 0.000000 
#    z 0.000000 0.000000 1.705440 
# 
# From -- ./inp_files/2169.got.cif
#   From: 2010.05.17/outbox.cif.g08.bks.cpg/sg137_2_cif.got.tgz:2169.got - 2010.05.20 13:01:12.
