data_PCOD9570742
_publ_section_title
;
Structure prediction by ZEFSAII (Michael W. Deem and Ramdas Pophale) SiO2 
 PCOD9570742
Probable space group: P 42/N C M
;
_chemical_formula_sum "Si O2"
_cell_formula_units_Z 80
_cell_length_a 23.722078
_cell_length_b 23.722078
_cell_length_c 9.539857
_cell_angle_alpha 90.000000
_cell_angle_beta 90.000000
_cell_angle_gamma 90.000000
_cell_volume 5368.430362
_symmetry_space_group_name_H-M "P 42/N C M"
_symmetry_group_IT_number 138
_space_group.IT_coordinate_system_code '2'
_symmetry_cell_setting 'tetragonal'
loop_
_space_group_symop_operation_xyz
x,y,z
1/2-y,x,1/2+z
1/2-x,1/2-y,z
y,1/2-x,1/2+z
1/2+x,-y,1/2-z
-x,1/2+y,1/2-z
1/2+y,1/2+x,-z
-y,-x,-z
-x,-y,-z
1/2+y,-x,1/2-z
1/2+x,1/2+y,-z
-y,1/2+x,1/2-z
1/2-x,y,1/2+z
x,1/2-y,1/2+z
1/2-y,1/2-x,z
y,x,z
loop_
_atom_site_type_symbol
_atom_site_label
_atom_site_fract_x
_atom_site_fract_y
_atom_site_fract_z
Si Si1 0.041029 0.458971 0.415558
Si Si2 0.630083 0.454038 0.417414
Si Si3 0.245838 0.916938 0.038691
Si Si4 0.760778 0.159249 0.711894
Si Si5 0.958955 0.958955 0.415991
Si Si6 0.045564 0.870175 0.082232
O O1 0.032519 0.467482 0.249796
O O2 0.102824 0.483729 0.445713
O O3 0.000000 0.500000 0.500000
O O4 0.592404 0.407597 0.500000
O O5 0.694944 0.448920 0.460331
O O6 0.602749 0.515727 0.446257
O O7 0.626704 0.443354 0.249489
O O8 0.254807 0.860197 0.947112
O O9 0.193346 0.948814 0.970848
O O10 0.230905 0.896092 0.194260
O O11 0.703238 0.189618 0.759734
O O12 0.000000 0.000000 0.500000
O O13 0.091634 0.908367 0.000000
#
# Coordination Sequence:
#
# PCOD9570742 Si02
#       6
#     8  16  16  16   8  16
#     4   8  16  32  50  68  86 111 148 189 237 280
#     4  10  20  33  50  68  90 119 153 194 234 276
#     4  12  22  31  46  66  90 119 158 196 228 264
#     4  11  22  34  44  58  86 126 164 195 222 252
#     4   8  16  32  50  68  86 111 148 189 237 280
#     4  10  20  33  50  68  90 119 153 194 234 276
#
# _framework density 14.901935999999999
#
# number of rings (size 3 to 8) (size 9 to 14) (size 15 to 20)
#    0.000    1.800    2.000    3.600    2.800    1.600 
#    0.000    0.000    0.000    0.000    0.000    0.000 
#    0.000    0.800    0.000    7.200    0.000    0.000 
#
# Total GULP energy -445882.307311 kJ/mol
# GULP energy per Si atom -5573.528841 kJ/mol
# Density = 1.486802 g / cm^3
# Si number density = 14.901936 Si / 1000 Ang^3
#
#
#
# Elastic Constant Matrix: (Units=GPa)
#
#
# Indices 1 2 3 4 5 6 
#
# 1 84.1894 60.3821 23.5254 0.0000 0.0000 0.0000
# 2 60.3821 84.1906 23.5247 0.0000 0.0000 0.0000
# 3 23.5254 23.5247 37.3769 0.0000 0.0000 0.0000
# 4 0.0000 0.0000 0.0000 15.1920 0.0000 0.0000
# 5 0.0000 0.0000 0.0000 0.0000 15.1916 0.0000
# 6 0.0000 0.0000 0.0000 0.0000 0.0000 27.7335
#
#
#
# Elastic Compliance Matrix: (Units=1/GPa)
#
#
# Indices 1 2 3 4 5 6 
#
# 1 0.025351 -0.016652 -0.005476 0.000000 0.000000 0.000000
# 2 -0.016652 0.025350 -0.005474 0.000000 0.000000 0.000000
# 3 -0.005476 -0.005474 0.033646 0.000000 0.000000 0.000000
# 4 0.000000 0.000000 0.000000 0.065824 0.000000 0.000000
# 5 0.000000 0.000000 0.000000 0.000000 0.065826 0.000000
# 6 0.000000 0.000000 0.000000 0.000000 0.000000 0.036057
#
#
# Mechanical properties :
#
#
# Convention : Reuss Voigt Hill
#
# Bulk Modulus (GPa) = 34.31245 46.73570 40.52408
# Shear Modulus (GPa) = 15.77414 18.17840 16.97627
#
# Velocity S-wave (km/s) = 3.25703 3.49645 3.37886
# Velocity P-wave (km/s) = 6.10081 6.90872 6.51730
#
# Compressibility (1/GPa) = 0.02914394
#
# Stress axis : x y z
#
# Youngs Moduli (GPa) = 39.44586 39.44702 29.72083
#
# Poissons Ratio (x) = 0.65687 0.16274
# Poissons Ratio (y) = 0.65685 0.16270
# Poissons Ratio (z) = 0.21599 0.21595
#
# Static dielectric constant tensor:
#      x y z
#    x 1.506540 0.000000 0.000000 
#    y 0.000000 1.506540 0.000000 
#    z 0.000000 0.000000 1.496140 
# 
# From -- ./inp_files/1644.got.cif
#   From: 2010.05.17/outbox.cif.g08.bks.cpg/sg138_1_cif.got.tgz:1644.got - 2010.05.20 13:08:53.
