data_PCOD9570064
_publ_section_title
;
Structure prediction by ZEFSAII (Michael W. Deem and Ramdas Pophale) SiO2 
 PCOD9570064
Probable space group: P 42/N M C
;
_chemical_formula_sum "Si O2"
_cell_formula_units_Z 64
_cell_length_a 14.180386
_cell_length_b 14.180386
_cell_length_c 15.614742
_cell_angle_alpha 90.000000
_cell_angle_beta 90.000000
_cell_angle_gamma 90.000000
_cell_volume 3139.864586
_symmetry_space_group_name_H-M "P 42/N M C"
_symmetry_group_IT_number 137
_space_group.IT_coordinate_system_code '2'
_symmetry_cell_setting 'tetragonal'
loop_
_space_group_symop_operation_xyz
x,y,z
1/2-y,x,1/2+z
1/2-x,1/2-y,z
y,1/2-x,1/2+z
1/2+x,-y,-z
-x,1/2+y,-z
1/2+y,1/2+x,1/2-z
-y,-x,1/2-z
-x,-y,-z
1/2+y,-x,1/2-z
1/2+x,1/2+y,-z
-y,1/2+x,1/2-z
1/2-x,y,z
x,1/2-y,z
1/2-y,1/2-x,1/2+z
y,x,1/2+z
loop_
_atom_site_type_symbol
_atom_site_label
_atom_site_fract_x
_atom_site_fract_y
_atom_site_fract_z
Si Si1 0.539767 0.637179 0.025994
Si Si2 0.635534 0.857206 0.353566
Si Si3 0.138522 0.038267 0.816975
Si Si4 0.358198 0.858008 0.921444
O O1 0.548560 0.750000 0.035242
O O2 0.604538 0.605847 0.945900
O O3 0.433401 0.617137 0.994782
O O4 0.575946 0.590061 0.111846
O O5 0.750000 0.856713 0.355273
O O6 0.603894 0.750000 0.338268
O O7 0.608367 0.926621 0.276499
O O8 0.250000 0.064707 0.827129
O O9 0.132632 0.928989 0.842517
O O10 0.250000 0.863414 0.951734
O O11 0.378473 0.750000 0.894983
#
# Coordination Sequence:
#
# PCOD9570064 Si02
#       4
#    16  16  16  16
#     4  10  19  32  52  76 102 134 168 205 256 311
#     4   9  18  31  47  73 106 131 157 200 251 305
#     4  10  19  32  52  76 102 134 168 205 256 311
#     4   9  19  35  52  72 100 134 175 219 255 295
#
# _framework density 20.383044999999999
#
# number of rings (size 3 to 8) (size 9 to 14) (size 15 to 20)
#    0.000    2.500    0.000    2.250    0.000    3.500 
#    0.000    3.750    0.000   10.500    0.000    1.750 
#    0.000   10.000    0.000    0.000    0.000    0.000 
#
# Total GULP energy -357556.791169 kJ/mol
# GULP energy per Si atom -5586.824862 kJ/mol
# Density = 2.033665 g / cm^3
# Si number density = 20.383045 Si / 1000 Ang^3
#
#
#
# Elastic Constant Matrix: (Units=GPa)
#
#
# Indices 1 2 3 4 5 6 
#
# 1 76.5960 18.6602 12.8946 0.0000 0.0000 0.0000
# 2 18.6602 76.5960 12.8946 0.0000 0.0000 0.0000
# 3 12.8946 12.8946 70.7072 0.0000 0.0000 0.0000
# 4 0.0000 0.0000 0.0000 18.2649 0.0000 0.0000
# 5 0.0000 0.0000 0.0000 0.0000 18.2649 0.0000
# 6 0.0000 0.0000 0.0000 0.0000 0.0000 16.0494
#
#
#
# Elastic Compliance Matrix: (Units=1/GPa)
#
#
# Indices 1 2 3 4 5 6 
#
# 1 0.014152 -0.003109 -0.002014 0.000000 0.000000 0.000000
# 2 -0.003109 0.014152 -0.002014 0.000000 0.000000 0.000000
# 3 -0.002014 -0.002014 0.014877 0.000000 0.000000 0.000000
# 4 0.000000 0.000000 0.000000 0.054750 0.000000 0.000000
# 5 0.000000 0.000000 0.000000 0.000000 0.054750 0.000000
# 6 0.000000 0.000000 0.000000 0.000000 0.000000 0.062308
#
#
# Mechanical properties :
#
#
# Convention : Reuss Voigt Hill
#
# Bulk Modulus (GPa) = 34.59224 34.75531 34.67378
# Shear Modulus (GPa) = 20.92951 22.47918 21.70435
#
# Velocity S-wave (km/s) = 3.20786 3.32450 3.26670
# Velocity P-wave (km/s) = 5.54332 5.64132 5.59254
#
# Compressibility (1/GPa) = 0.02890822
#
# Stress axis : x y z
#
# Youngs Moduli (GPa) = 70.66214 70.66214 67.21616
#
# Poissons Ratio (x) = 0.21966 0.13537
# Poissons Ratio (y) = 0.21966 0.13537
# Poissons Ratio (z) = 0.14231 0.14231
#
# Static dielectric constant tensor:
#      x y z
#    x 1.759290 0.000000 0.000000 
#    y 0.000000 1.759290 0.000000 
#    z 0.000000 0.000000 1.671720 
# 
# From -- ./inp_files/4692.got.cif
#   From: 2010.05.17/outbox.cif.g08.bks.cpg/sg137_3_cif.got.tgz:4692.got - 2010.05.20 13:01:12.
