data_PCOD9570975
_publ_section_title
;
Structure prediction by ZEFSAII (Michael W. Deem and Ramdas Pophale) SiO2 
 PCOD9570975
Probable space group: P 42/N C M
;
_chemical_formula_sum "Si O2"
_cell_formula_units_Z 48
_cell_length_a 10.928251
_cell_length_b 10.928251
_cell_length_c 18.448991
_cell_angle_alpha 90.000000
_cell_angle_beta 90.000000
_cell_angle_gamma 90.000000
_cell_volume 2203.301558
_symmetry_space_group_name_H-M "P 42/N C M"
_symmetry_group_IT_number 138
_space_group.IT_coordinate_system_code '2'
_symmetry_cell_setting 'tetragonal'
loop_
_space_group_symop_operation_xyz
x,y,z
1/2-y,x,1/2+z
1/2-x,1/2-y,z
y,1/2-x,1/2+z
1/2+x,-y,1/2-z
-x,1/2+y,1/2-z
1/2+y,1/2+x,-z
-y,-x,-z
-x,-y,-z
1/2+y,-x,1/2-z
1/2+x,1/2+y,-z
-y,1/2+x,1/2-z
1/2-x,y,1/2+z
x,1/2-y,1/2+z
1/2-y,1/2-x,z
y,x,z
loop_
_atom_site_type_symbol
_atom_site_label
_atom_site_fract_x
_atom_site_fract_y
_atom_site_fract_z
Si Si1 0.779890 0.507885 0.838051
Si Si2 0.680518 0.480864 0.678281
Si Si3 0.651818 0.651818 0.110415
Si Si4 0.908854 0.908854 0.957188
O O1 0.879028 0.620973 0.833879
O O2 0.704884 0.500846 0.763189
O O3 0.852355 0.379721 0.840121
O O4 0.691212 0.527759 0.905684
O O5 0.576492 0.576492 0.653686
O O6 0.805182 0.520484 0.639065
O O7 0.750000 0.750000 0.141501
O O8 0.655764 0.655764 0.024780
O O9 0.000000 0.000000 0.000000
#
# Coordination Sequence:
#
# PCOD9570975 Si02
#       4
#    16  16   8   8
#     4  11  23  43  72 105 143 194 249 307 381 454
#     4  10  22  39  72 104 136 185 257 302 366 456
#     4  10  22  44  66  96 134 185 236 302 356 450
#     4  12  28  44  68 102 150 187 241 304 390 453
#
# _framework density 21.785485999999999
#
# number of rings (size 3 to 8) (size 9 to 14) (size 15 to 20)
#    0.000    1.333    3.333    1.500    4.667    2.000 
#    0.000    6.667    0.000    0.000    0.000    0.000 
#    0.000    0.000    0.000    0.000    0.000    0.000 
#
# Total GULP energy -268083.863674 kJ/mol
# GULP energy per Si atom -5585.080493 kJ/mol
# Density = 2.173590 g / cm^3
# Si number density = 21.785486 Si / 1000 Ang^3
#
#
#
# Elastic Constant Matrix: (Units=GPa)
#
#
# Indices 1 2 3 4 5 6 
#
# 1 59.8642 103.1046 41.1840 0.0000 0.0000 0.0000
# 2 103.1046 59.8642 41.1840 0.0000 0.0000 0.0000
# 3 41.1840 41.1840 139.1408 0.0000 0.0000 0.0000
# 4 0.0000 0.0000 0.0000 15.4904 0.0000 0.0000
# 5 0.0000 0.0000 0.0000 0.0000 15.4904 0.0000
# 6 0.0000 0.0000 0.0000 0.0000 0.0000 60.6564
#
#
#
# Elastic Compliance Matrix: (Units=1/GPa)
#
#
# Indices 1 2 3 4 5 6 
#
# 1 -0.007955 0.015171 -0.002136 0.000000 0.000000 0.000000
# 2 0.015171 -0.007955 -0.002136 0.000000 0.000000 0.000000
# 3 -0.002136 -0.002136 0.008451 0.000000 0.000000 0.000000
# 4 0.000000 0.000000 0.000000 0.064556 0.000000 0.000000
# 5 0.000000 0.000000 0.000000 0.000000 0.064556 0.000000
# 6 0.000000 0.000000 0.000000 0.000000 0.000000 0.016486
#
#
# Mechanical properties :
#
#
# Convention : Reuss Voigt Hill
#
# Bulk Modulus (GPa) = 69.73729 69.97938 69.85834
# Shear Modulus (GPa) = 41.28153 23.22055 32.25104
#
# Velocity S-wave (km/s) = 4.35778 3.26831 3.85176
# Velocity P-wave (km/s) = 7.57633 6.81427 7.20538
#
# Compressibility (1/GPa) = 0.01433953
#
# Stress axis : x y z
#
# Youngs Moduli (GPa) = -125.69948 -125.69948 118.32551
#
# Poissons Ratio (x) = 1.90700 0.25271
# Poissons Ratio (y) = 1.90700 0.25271
# Poissons Ratio (z) = -0.26846 -0.26846
#
# Static dielectric constant tensor:
#      x y z
#    x 1.884240 0.000000 0.000000 
#    y 0.000000 1.884240 0.000000 
#    z 0.000000 0.000000 1.720230 
# 
# From -- ./inp_files/4738.got.cif
#   From: 2010.05.17/outbox.cif.g08.bks.cpg/sg138_3_cif.got.tgz:4738.got - 2010.05.20 13:08:53.
