data_PCOD9570086
_publ_section_title
;
Structure prediction by ZEFSAII (Michael W. Deem and Ramdas Pophale) SiO2 
 PCOD9570086
Probable space group: P 42/N M C
;
_chemical_formula_sum "Si O2"
_cell_formula_units_Z 128
_cell_length_a 25.189732
_cell_length_b 25.189732
_cell_length_c 12.073634
_cell_angle_alpha 90.000000
_cell_angle_beta 90.000000
_cell_angle_gamma 90.000000
_cell_volume 7660.993616
_symmetry_space_group_name_H-M "P 42/N M C"
_symmetry_group_IT_number 137
_space_group.IT_coordinate_system_code '2'
_symmetry_cell_setting 'tetragonal'
loop_
_space_group_symop_operation_xyz
x,y,z
1/2-y,x,1/2+z
1/2-x,1/2-y,z
y,1/2-x,1/2+z
1/2+x,-y,-z
-x,1/2+y,-z
1/2+y,1/2+x,1/2-z
-y,-x,1/2-z
-x,-y,-z
1/2+y,-x,1/2-z
1/2+x,1/2+y,-z
-y,1/2+x,1/2-z
1/2-x,y,z
x,1/2-y,z
1/2-y,1/2-x,1/2+z
y,x,1/2+z
loop_
_atom_site_type_symbol
_atom_site_label
_atom_site_fract_x
_atom_site_fract_y
_atom_site_fract_z
Si Si1 0.809627 0.945400 0.249678
Si Si2 0.439678 0.986836 0.530768
Si Si3 0.447516 0.308899 0.514479
Si Si4 0.105228 0.521073 0.291893
Si Si5 0.688450 0.063573 0.872806
Si Si6 0.623929 0.101367 0.076007
Si Si7 0.594466 0.913509 0.843566
Si Si8 0.688486 0.067900 0.291744
O O1 0.750000 0.927280 0.277444
O O2 0.856132 0.907213 0.288444
O O3 0.816832 0.004338 0.300233
O O4 0.813093 0.951337 0.117268
O O5 0.401850 0.983126 0.423061
O O6 0.437418 0.927416 0.579560
O O7 0.500000 0.000000 0.500000
O O8 0.422291 0.035895 0.605917
O O9 0.425394 0.250000 0.541739
O O10 0.506704 0.310617 0.564751
O O11 0.417521 0.358993 0.565915
O O12 0.053905 0.553905 0.250000
O O13 0.155723 0.552196 0.240059
O O14 0.104245 0.462159 0.240698
O O15 0.750000 0.080407 0.858111
O O16 0.653556 0.098973 0.957953
O O17 0.663486 0.084367 0.173783
O O18 0.598585 0.157137 0.112489
O O19 0.750000 0.081316 0.292666
#
# Coordination Sequence:
#
# PCOD9570086 Si02
#       8
#    16  16  16  16  16  16  16  16
#     4  10  19  33  52  76 109 143 179 217 263 326
#     4  12  22  31  48  80 117 141 172 218 278 336
#     4   9  18  34  54  76 105 142 183 215 253 321
#     4  11  21  33  48  76 113 138 177 223 268 324
#     4  10  19  35  55  74 100 143 186 217 258 326
#     4  11  20  32  55  76 105 143 177 216 279 325
#     4  11  21  32  52  79 110 145 173 218 277 320
#     4  10  21  34  50  78 109 138 179 223 268 332
#
# _framework density 16.708015
#
# number of rings (size 3 to 8) (size 9 to 14) (size 15 to 20)
#    0.000    1.500    5.000    1.875    1.750    0.000 
#    0.000    1.250    0.000    9.000    0.000    1.750 
#    0.000    0.000    0.000    0.000    0.000    0.000 
#
# Total GULP energy -713792.540252 kJ/mol
# GULP energy per Si atom -5576.504221 kJ/mol
# Density = 1.666999 g / cm^3
# Si number density = 16.708015 Si / 1000 Ang^3
#
#
#
# Elastic Constant Matrix: (Units=GPa)
#
#
# Indices 1 2 3 4 5 6 
#
# 1 91.3571 38.2943 17.2131 0.0000 0.0000 0.0000
# 2 38.2943 91.3571 17.2131 0.0000 0.0000 0.0000
# 3 17.2131 17.2131 40.0150 0.0000 0.0000 0.0000
# 4 0.0000 0.0000 0.0000 22.6088 0.0000 0.0000
# 5 0.0000 0.0000 0.0000 0.0000 22.6088 0.0000
# 6 0.0000 0.0000 0.0000 0.0000 0.0000 15.8862
#
#
#
# Elastic Compliance Matrix: (Units=1/GPa)
#
#
# Indices 1 2 3 4 5 6 
#
# 1 0.013777 -0.005069 -0.003746 0.000000 0.000000 0.000000
# 2 -0.005069 0.013777 -0.003746 0.000000 0.000000 0.000000
# 3 -0.003746 -0.003746 0.028213 0.000000 0.000000 0.000000
# 4 0.000000 0.000000 0.000000 0.044231 0.000000 0.000000
# 5 0.000000 0.000000 0.000000 0.000000 0.044231 0.000000
# 6 0.000000 0.000000 0.000000 0.000000 0.000000 0.062948
#
#
# Mechanical properties :
#
#
# Convention : Reuss Voigt Hill
#
# Bulk Modulus (GPa) = 32.63121 40.90782 36.76952
# Shear Modulus (GPa) = 20.61761 22.22134 21.41948
#
# Velocity S-wave (km/s) = 3.51664 3.65085 3.58437
# Velocity P-wave (km/s) = 6.00514 6.50451 6.25981
#
# Compressibility (1/GPa) = 0.03064550
#
# Stress axis : x y z
#
# Youngs Moduli (GPa) = 72.58693 72.58693 35.44444
#
# Poissons Ratio (x) = 0.36794 0.13276
# Poissons Ratio (y) = 0.36794 0.13276
# Poissons Ratio (z) = 0.27189 0.27189
#
# Static dielectric constant tensor:
#      x y z
#    x 1.568120 0.000000 0.000000 
#    y 0.000000 1.568120 0.000000 
#    z 0.000000 0.000000 1.586870 
# 
# From -- ./inp_files/4023.got.cif
#   From: 2010.05.17/outbox.cif.g08.bks.cpg/sg137_3_cif.got.tgz:4023.got - 2010.05.20 13:01:12.
