data_PCOD9570515
_publ_section_title
;
Structure prediction by ZEFSAII (Michael W. Deem and Ramdas Pophale) SiO2 
 PCOD9570515
Probable space group: P 42/N M C
;
_chemical_formula_sum "Si O2"
_cell_formula_units_Z 60
_cell_length_a 14.630031
_cell_length_b 14.630031
_cell_length_c 13.872933
_cell_angle_alpha 90.000000
_cell_angle_beta 90.000000
_cell_angle_gamma 90.000000
_cell_volume 2969.332157
_symmetry_space_group_name_H-M "P 42/N M C"
_symmetry_group_IT_number 137
_space_group.IT_coordinate_system_code '2'
_symmetry_cell_setting 'tetragonal'
loop_
_space_group_symop_operation_xyz
x,y,z
1/2-y,x,1/2+z
1/2-x,1/2-y,z
y,1/2-x,1/2+z
1/2+x,-y,-z
-x,1/2+y,-z
1/2+y,1/2+x,1/2-z
-y,-x,1/2-z
-x,-y,-z
1/2+y,-x,1/2-z
1/2+x,1/2+y,-z
-y,1/2+x,1/2-z
1/2-x,y,z
x,1/2-y,z
1/2-y,1/2-x,1/2+z
y,x,1/2+z
loop_
_atom_site_type_symbol
_atom_site_label
_atom_site_fract_x
_atom_site_fract_y
_atom_site_fract_z
Si Si1 0.977674 0.250000 1.000000
Si Si2 0.058546 0.250000 0.650313
Si Si3 0.106080 0.750000 0.790231
Si Si4 0.893920 0.250000 0.790231
Si Si5 0.410767 0.062426 1.000000
Si Si6 0.750000 0.941456 0.150312
Si Si7 0.750000 0.750000 0.249997
O O1 0.913009 0.250000 0.095300
O O2 0.045612 0.336716 0.999999
O O3 0.913008 0.250000 0.904700
O O4 0.044248 0.157589 0.589035
O O5 0.161921 0.250000 0.683786
O O6 0.992045 0.250000 0.740631
O O7 0.163649 0.663649 0.750000
O O8 0.007954 0.750000 0.740632
O O9 0.836351 0.336351 0.750000
O O10 0.342411 0.044245 0.910966
O O11 0.500000 0.000000 0.000000
O O12 0.750000 0.838079 0.183781
#
# Coordination Sequence:
#
# PCOD9570515 Si02
#       7
#     8   8   8   8  16   8   4
#     4  12  24  42  66  94 128 170 212 256 318 376
#     4  11  23  40  62  94 128 166 212 258 313 371
#     4  11  25  43  67  95 128 167 211 263 315 375
#     4  11  25  43  67  95 128 167 211 263 315 375
#     4  11  23  40  66  94 127 167 210 260 312 375
#     4  11  23  40  62  94 128 166 212 258 313 371
#     4  12  24  38  60  88 128 170 208 258 312 372
#
# _framework density 20.206564
#
# number of rings (size 3 to 8) (size 9 to 14) (size 15 to 20)
#    0.000    0.800    0.000    8.000    0.000    6.400 
#    0.000    5.333    0.000    0.000    0.000    0.000 
#    0.000    0.000    0.000    0.000    0.000    0.000 
#
# Total GULP energy -335445.582471 kJ/mol
# GULP energy per Si atom -5590.759708 kJ/mol
# Density = 2.016057 g / cm^3
# Si number density = 20.206564 Si / 1000 Ang^3
#
#
#
# Elastic Constant Matrix: (Units=GPa)
#
#
# Indices 1 2 3 4 5 6 
#
# 1 105.1338 102.8270 62.5039 0.0000 0.0000 0.0000
# 2 102.8270 105.1338 62.5039 0.0000 0.0000 0.0000
# 3 62.5039 62.5039 180.8733 0.0000 0.0000 0.0000
# 4 0.0000 0.0000 0.0000 40.6988 0.0000 0.0000
# 5 0.0000 0.0000 0.0000 0.0000 40.6988 0.0000
# 6 0.0000 0.0000 0.0000 0.0000 0.0000 43.3972
#
#
#
# Elastic Compliance Matrix: (Units=1/GPa)
#
#
# Indices 1 2 3 4 5 6 
#
# 1 0.219778 -0.213709 -0.002097 0.000000 0.000000 0.000000
# 2 -0.213709 0.219778 -0.002097 0.000000 0.000000 0.000000
# 3 -0.002097 -0.002097 0.006978 0.000000 0.000000 0.000000
# 4 0.000000 0.000000 0.000000 0.024571 0.000000 0.000000
# 5 0.000000 0.000000 0.000000 0.000000 0.024571 0.000000
# 6 0.000000 0.000000 0.000000 0.000000 0.000000 0.023043
#
#
# Mechanical properties :
#
#
# Convention : Reuss Voigt Hill
#
# Bulk Modulus (GPa) = 93.21817 94.09006 93.65412
# Shear Modulus (GPa) = 5.21866 35.84605 20.53235
#
# Velocity S-wave (km/s) = 1.60881 4.21643 3.19113
# Velocity P-wave (km/s) = 7.04867 8.38866 7.74769
#
# Compressibility (1/GPa) = 0.01072752
#
# Stress axis : x y z
#
# Youngs Moduli (GPa) = 4.55005 4.55005 143.30142
#
# Poissons Ratio (x) = 0.97238 0.30056
# Poissons Ratio (y) = 0.97238 0.30056
# Poissons Ratio (z) = 0.00954 0.00954
#
# Static dielectric constant tensor:
#      x y z
#    x 1.684140 0.000000 0.000000 
#    y 0.000000 1.684140 0.000000 
#    z 0.000000 0.000000 1.703350 
# 
# From -- ./inp_files/4807.got.cif
#   From: 2010.05.17/outbox.cif.g08.bks.cpg/sg137_3_cif.got.tgz:4807.got - 2010.05.20 13:01:12.
