data_PCOD9570968
_publ_section_title
;
Structure prediction by ZEFSAII (Michael W. Deem and Ramdas Pophale) SiO2 
 PCOD9570968
Probable space group: P 42/N C M
;
_chemical_formula_sum "Si O2"
_cell_formula_units_Z 112
_cell_length_a 14.813486
_cell_length_b 14.813486
_cell_length_c 27.282101
_cell_angle_alpha 90.000000
_cell_angle_beta 90.000000
_cell_angle_gamma 90.000000
_cell_volume 5986.766987
_symmetry_space_group_name_H-M "P 42/N C M"
_symmetry_group_IT_number 138
_space_group.IT_coordinate_system_code '2'
_symmetry_cell_setting 'tetragonal'
loop_
_space_group_symop_operation_xyz
x,y,z
1/2-y,x,1/2+z
1/2-x,1/2-y,z
y,1/2-x,1/2+z
1/2+x,-y,1/2-z
-x,1/2+y,1/2-z
1/2+y,1/2+x,-z
-y,-x,-z
-x,-y,-z
1/2+y,-x,1/2-z
1/2+x,1/2+y,-z
-y,1/2+x,1/2-z
1/2-x,y,1/2+z
x,1/2-y,1/2+z
1/2-y,1/2-x,z
y,x,z
loop_
_atom_site_type_symbol
_atom_site_label
_atom_site_fract_x
_atom_site_fract_y
_atom_site_fract_z
Si Si1 0.073986 0.933566 0.878239
Si Si2 0.817137 0.458612 0.717837
Si Si3 0.668101 0.177228 0.809464
Si Si4 0.149770 0.500388 0.014240
Si Si5 0.967720 0.268978 0.118636
Si Si6 0.104121 0.252864 0.708187
Si Si7 0.496897 0.644735 0.023855
O O1 0.104694 0.952861 0.822493
O O2 0.135814 0.984309 0.917621
O O3 0.073275 0.829230 0.892557
O O4 0.974723 0.974723 0.884961
O O5 0.831154 0.383172 0.760236
O O6 0.730504 0.424235 0.688586
O O7 0.789635 0.548167 0.746614
O O8 0.750000 0.250000 0.809703
O O9 0.677511 0.111131 0.854470
O O10 0.086855 0.413146 0.002727
O O11 0.175640 0.499965 0.071964
O O12 0.249966 0.501504 0.990217
O O13 0.088121 0.588121 0.000000
O O14 0.041404 0.247174 0.160391
O O15 0.150159 0.349842 0.718175
O O16 0.183466 0.183466 0.697707
O O17 0.587674 0.587674 0.010110
O O18 0.413997 0.586004 0.000000
#
# Coordination Sequence:
#
# PCOD9570968 Si02
#       7
#    16  16  16  16  16  16  16
#     4  11  22  36  60  92 122 155 205 256 304 369
#     4  11  19  35  56  84 123 162 196 247 303 357
#     4  11  19  33  54  87 120 153 193 241 297 362
#     4  11  26  45  64  94 131 165 210 271 334 398
#     4  11  22  37  63  88 120 158 201 256 316 370
#     4  10  22  39  58  84 119 162 211 253 299 366
#     4  10  22  43  66  94 125 160 212 269 317 386
#
# _framework density 18.707927000000002
#
# number of rings (size 3 to 8) (size 9 to 14) (size 15 to 20)
#    0.000    1.286    4.286    2.143    2.000    1.143 
#    0.000    4.286    0.000    0.857    0.000    0.000 
#    0.000    0.000    0.000    0.000    0.000    0.000 
#
# Total GULP energy -624332.612471 kJ/mol
# GULP energy per Si atom -5574.398326 kJ/mol
# Density = 1.866535 g / cm^3
# Si number density = 18.707927 Si / 1000 Ang^3
#
#
#
# Elastic Constant Matrix: (Units=GPa)
#
#
# Indices 1 2 3 4 5 6 
#
# 1 101.2593 36.5185 20.3599 0.0000 0.0000 0.0000
# 2 36.5185 101.2591 20.3599 0.0000 0.0000 0.0000
# 3 20.3599 20.3599 62.6567 0.0000 0.0000 0.0000
# 4 0.0000 0.0000 0.0000 9.7527 0.0000 0.0000
# 5 0.0000 0.0000 0.0000 0.0000 9.7525 0.0000
# 6 0.0000 0.0000 0.0000 0.0000 0.0000 29.9812
#
#
#
# Elastic Compliance Matrix: (Units=1/GPa)
#
#
# Indices 1 2 3 4 5 6 
#
# 1 0.011738 -0.003709 -0.002609 0.000000 0.000000 0.000000
# 2 -0.003709 0.011738 -0.002609 0.000000 0.000000 0.000000
# 3 -0.002609 -0.002609 0.017656 0.000000 0.000000 0.000000
# 4 0.000000 0.000000 0.000000 0.102535 0.000000 0.000000
# 5 0.000000 0.000000 0.000000 0.000000 0.102537 0.000000
# 6 0.000000 0.000000 0.000000 0.000000 0.000000 0.033354
#
#
# Mechanical properties :
#
#
# Convention : Reuss Voigt Hill
#
# Bulk Modulus (GPa) = 42.95942 46.62796 44.79369
# Shear Modulus (GPa) = 16.38429 22.42641 19.40535
#
# Velocity S-wave (km/s) = 2.96259 3.46607 3.22418
# Velocity P-wave (km/s) = 5.89200 6.40285 6.15273
#
# Compressibility (1/GPa) = 0.02327778
#
# Stress axis : x y z
#
# Youngs Moduli (GPa) = 85.19566 85.19556 56.63933
#
# Poissons Ratio (x) = 0.31595 0.14777
# Poissons Ratio (y) = 0.31595 0.14777
# Poissons Ratio (z) = 0.22228 0.22228
#
# Static dielectric constant tensor:
#      x y z
#    x 1.666680 0.000000 0.000000 
#    y 0.000000 1.666680 0.000000 
#    z 0.000000 0.000000 1.688590 
# 
# From -- ./inp_files/7569.got.cif
#   From: 2010.05.17/outbox.cif.g08.bks.cpg/sg138_4_cif.got.tgz:7569.got - 2010.05.20 13:08:53.
