data_PCOD9570861
_publ_section_title
;
Structure prediction by ZEFSAII (Michael W. Deem and Ramdas Pophale) SiO2 
 PCOD9570861
Probable space group: P 42/N C M
;
_chemical_formula_sum "Si O2"
_cell_formula_units_Z 48
_cell_length_a 8.954445
_cell_length_b 8.954445
_cell_length_c 24.479330
_cell_angle_alpha 90.000000
_cell_angle_beta 90.000000
_cell_angle_gamma 90.000000
_cell_volume 1962.803725
_symmetry_space_group_name_H-M "P 42/N C M"
_symmetry_group_IT_number 138
_space_group.IT_coordinate_system_code '2'
_symmetry_cell_setting 'tetragonal'
loop_
_space_group_symop_operation_xyz
x,y,z
1/2-y,x,1/2+z
1/2-x,1/2-y,z
y,1/2-x,1/2+z
1/2+x,-y,1/2-z
-x,1/2+y,1/2-z
1/2+y,1/2+x,-z
-y,-x,-z
-x,-y,-z
1/2+y,-x,1/2-z
1/2+x,1/2+y,-z
-y,1/2+x,1/2-z
1/2-x,y,1/2+z
x,1/2-y,1/2+z
1/2-y,1/2-x,z
y,x,z
loop_
_atom_site_type_symbol
_atom_site_label
_atom_site_fract_x
_atom_site_fract_y
_atom_site_fract_z
Si Si1 0.442953 0.057048 0.440868
Si Si2 0.199625 0.970180 0.736188
Si Si3 0.598605 0.146355 0.935330
Si Si4 0.365245 0.134756 0.640716
O O1 0.475518 0.227658 0.430192
O O2 0.500000 0.000000 0.500000
O O3 0.542501 0.957500 0.401062
O O4 0.409713 0.668392 0.726256
O O5 0.273468 0.027148 0.681006
O O6 0.104501 0.104501 0.760539
O O7 0.750000 0.250000 0.916827
O O8 0.513004 0.986997 0.916542
O O9 0.624584 0.124584 0.000000
O O10 0.250000 0.250000 0.614465
#
# Coordination Sequence:
#
# PCOD9570861 Si02
#       4
#     8  16  16   8
#     4  12  23  43  68  98 144 205 257 317 371 456
#     4  10  20  41  72 104 149 191 236 310 387 469
#     4  10  21  40  65  96 133 188 255 314 382 442
#     4  10  24  43  72 115 147 202 262 306 394 472
#
# _framework density 24.454813000000001
#
# number of rings (size 3 to 8) (size 9 to 14) (size 15 to 20)
#    0.000    1.667    5.000    0.500    0.000    2.667 
#    6.000    0.000    7.333    0.000    0.000    0.000 
#    0.000    0.000    0.000    0.000    0.000    0.000 
#
# Total GULP energy -267416.072787 kJ/mol
# GULP energy per Si atom -5571.168183 kJ/mol
# Density = 2.439915 g / cm^3
# Si number density = 24.454813 Si / 1000 Ang^3
#
#
#
# Elastic Constant Matrix: (Units=GPa)
#
#
# Indices 1 2 3 4 5 6 
#
# 1 158.7234 104.0596 47.3452 0.0000 0.0000 0.0000
# 2 104.0596 158.7234 47.3452 0.0000 0.0000 0.0000
# 3 47.3452 47.3452 26.7778 0.0000 0.0000 0.0000
# 4 0.0000 0.0000 0.0000 24.3029 0.0000 0.0000
# 5 0.0000 0.0000 0.0000 0.0000 24.3029 0.0000
# 6 0.0000 0.0000 0.0000 0.0000 0.0000 90.4457
#
#
#
# Elastic Compliance Matrix: (Units=1/GPa)
#
#
# Indices 1 2 3 4 5 6 
#
# 1 0.014390 -0.003904 -0.018540 0.000000 0.000000 0.000000
# 2 -0.003904 0.014390 -0.018540 0.000000 0.000000 0.000000
# 3 -0.018540 -0.018540 0.102906 0.000000 0.000000 0.000000
# 4 0.000000 0.000000 0.000000 0.041147 0.000000 0.000000
# 5 0.000000 0.000000 0.000000 0.000000 0.041147 0.000000
# 6 0.000000 0.000000 0.000000 0.000000 0.000000 0.011056
#
#
# Mechanical properties :
#
#
# Convention : Reuss Voigt Hill
#
# Bulk Modulus (GPa) = 20.11396 82.41385 51.26390
# Shear Modulus (GPa) = 15.45223 37.50862 26.48043
#
# Velocity S-wave (km/s) = 2.51643 3.92062 3.29421
# Velocity P-wave (km/s) = 4.08485 7.36672 5.95628
#
# Compressibility (1/GPa) = 0.04971672
#
# Stress axis : x y z
#
# Youngs Moduli (GPa) = 69.49313 69.49313 9.71762
#
# Poissons Ratio (x) = 0.27128 0.18017
# Poissons Ratio (y) = 0.27128 0.18017
# Poissons Ratio (z) = 1.28843 1.28843
#
# Static dielectric constant tensor:
#      x y z
#    x 1.884380 0.000000 0.000000 
#    y 0.000000 1.884380 0.000000 
#    z 0.000000 0.000000 1.783610 
# 
# From -- ./inp_files/7739.got.cif
#   From: 2010.05.17/outbox.cif.g08.bks.cpg/sg138_4_cif.got.tgz:7739.got - 2010.05.20 13:08:53.
