data_PCOD9570416
_publ_section_title
;
Structure prediction by ZEFSAII (Michael W. Deem and Ramdas Pophale) SiO2 
 PCOD9570416
Probable space group: P 42/N M C
;
_chemical_formula_sum "Si O2"
_cell_formula_units_Z 96
_cell_length_a 15.370822
_cell_length_b 15.370822
_cell_length_c 23.698209
_cell_angle_alpha 90.000000
_cell_angle_beta 90.000000
_cell_angle_gamma 90.000000
_cell_volume 5598.990259
_symmetry_space_group_name_H-M "P 42/N M C"
_symmetry_group_IT_number 137
_space_group.IT_coordinate_system_code '2'
_symmetry_cell_setting 'tetragonal'
loop_
_space_group_symop_operation_xyz
x,y,z
1/2-y,x,1/2+z
1/2-x,1/2-y,z
y,1/2-x,1/2+z
1/2+x,-y,-z
-x,1/2+y,-z
1/2+y,1/2+x,1/2-z
-y,-x,1/2-z
-x,-y,-z
1/2+y,-x,1/2-z
1/2+x,1/2+y,-z
-y,1/2+x,1/2-z
1/2-x,y,z
x,1/2-y,z
1/2-y,1/2-x,1/2+z
y,x,1/2+z
loop_
_atom_site_type_symbol
_atom_site_label
_atom_site_fract_x
_atom_site_fract_y
_atom_site_fract_z
Si Si1 0.961731 0.655317 0.467962
Si Si2 0.014110 0.349443 0.093942
Si Si3 0.150102 0.408222 0.430455
Si Si4 0.987984 0.352337 0.226324
Si Si5 0.098121 0.846812 0.013137
Si Si6 0.354596 0.150365 0.804084
O O1 0.936521 0.750000 0.446662
O O2 0.919875 0.581545 0.429048
O O3 0.917820 0.640332 0.529268
O O4 0.065720 0.648280 0.471880
O O5 0.048806 0.250000 0.086862
O O6 0.994451 0.363287 0.159112
O O7 0.931495 0.353912 0.052310
O O8 0.250000 0.375990 0.438692
O O9 0.149575 0.508041 0.451231
O O10 0.129534 0.397010 0.364670
O O11 0.911765 0.411765 0.250000
O O12 0.972287 0.250000 0.237564
O O13 0.078583 0.376366 0.257313
O O14 0.136492 0.750000 0.021996
O O15 0.250000 0.148510 0.811905
O O16 0.378207 0.250000 0.788597
#
# Coordination Sequence:
#
# PCOD9570416 Si02
#       6
#    16  16  16  16  16  16
#     4  11  21  30  50  78 105 135 167 210 263 318
#     4   9  19  36  53  73 101 135 174 215 259 308
#     4   9  17  31  52  75  99 129 167 212 260 310
#     4  10  22  36  55  78 106 145 181 217 260 310
#     4   9  19  34  51  70 101 139 172 209 252 303
#     4   9  18  32  51  77 104 130 168 218 267 309
#
# _framework density 17.145949000000002
#
# number of rings (size 3 to 8) (size 9 to 14) (size 15 to 20)
#    0.000    2.500    0.000    4.000    4.667    3.167 
#    0.000    1.667    0.000    3.000    0.000    0.000 
#    0.000    0.333    0.000    0.000    0.000    0.000 
#
# Total GULP energy -535102.483038 kJ/mol
# GULP energy per Si atom -5573.984198 kJ/mol
# Density = 1.710692 g / cm^3
# Si number density = 17.145949 Si / 1000 Ang^3
#
#
#
# Elastic Constant Matrix: (Units=GPa)
#
#
# Indices 1 2 3 4 5 6 
#
# 1 65.3862 31.6037 28.9777 0.0000 0.0000 0.0000
# 2 31.6037 65.3862 28.9777 0.0000 0.0000 0.0000
# 3 28.9777 28.9777 91.7417 0.0000 0.0000 0.0000
# 4 0.0000 0.0000 0.0000 4.8951 0.0000 0.0000
# 5 0.0000 0.0000 0.0000 0.0000 4.8951 0.0000
# 6 0.0000 0.0000 0.0000 0.0000 0.0000 1.3124
#
#
#
# Elastic Compliance Matrix: (Units=1/GPa)
#
#
# Indices 1 2 3 4 5 6 
#
# 1 0.021155 -0.008446 -0.004014 0.000000 0.000000 0.000000
# 2 -0.008446 0.021155 -0.004014 0.000000 0.000000 0.000000
# 3 -0.004014 -0.004014 0.013436 0.000000 0.000000 0.000000
# 4 0.000000 0.000000 0.000000 0.204286 0.000000 0.000000
# 5 0.000000 0.000000 0.000000 0.000000 0.204286 0.000000
# 6 0.000000 0.000000 0.000000 0.000000 0.000000 0.761989
#
#
# Mechanical properties :
#
#
# Convention : Reuss Voigt Hill
#
# Bulk Modulus (GPa) = 43.86543 44.62582 44.24563
# Shear Modulus (GPa) = 3.94678 11.08416 7.51547
#
# Velocity S-wave (km/s) = 1.51884 2.54532 2.09589
# Velocity P-wave (km/s) = 5.35863 5.89251 5.63190
#
# Compressibility (1/GPa) = 0.02279699
#
# Stress axis : x y z
#
# Youngs Moduli (GPa) = 47.26987 47.26987 74.42629
#
# Poissons Ratio (x) = 0.39924 0.29877
# Poissons Ratio (y) = 0.39924 0.29877
# Poissons Ratio (z) = 0.18976 0.18976
#
# Static dielectric constant tensor:
#      x y z
#    x 1.585240 0.000000 0.000000 
#    y 0.000000 1.585240 0.000000 
#    z 0.000000 0.000000 1.558890 
# 
# From -- ./inp_files/7859.got.cif
#   From: 2010.05.17/outbox.cif.g08.bks.cpg/sg137_4_cif.got.tgz:7859.got - 2010.05.20 13:01:12.
