data_PCOD9570056
_publ_section_title
;
Structure prediction by ZEFSAII (Michael W. Deem and Ramdas Pophale) SiO2 
 PCOD9570056
Probable space group: P 42/N M C
;
_chemical_formula_sum "Si O2"
_cell_formula_units_Z 112
_cell_length_a 18.028547
_cell_length_b 18.028547
_cell_length_c 21.199009
_cell_angle_alpha 90.000000
_cell_angle_beta 90.000000
_cell_angle_gamma 90.000000
_cell_volume 6890.282244
_symmetry_space_group_name_H-M "P 42/N M C"
_symmetry_group_IT_number 137
_space_group.IT_coordinate_system_code '2'
_symmetry_cell_setting 'tetragonal'
loop_
_space_group_symop_operation_xyz
x,y,z
1/2-y,x,1/2+z
1/2-x,1/2-y,z
y,1/2-x,1/2+z
1/2+x,-y,-z
-x,1/2+y,-z
1/2+y,1/2+x,1/2-z
-y,-x,1/2-z
-x,-y,-z
1/2+y,-x,1/2-z
1/2+x,1/2+y,-z
-y,1/2+x,1/2-z
1/2-x,y,z
x,1/2-y,z
1/2-y,1/2-x,1/2+z
y,x,1/2+z
loop_
_atom_site_type_symbol
_atom_site_label
_atom_site_fract_x
_atom_site_fract_y
_atom_site_fract_z
Si Si1 0.979151 0.542352 0.064251
Si Si2 0.463097 0.459314 0.689304
Si Si3 0.597740 0.335936 0.921957
Si Si4 0.169549 0.838701 0.561912
Si Si5 0.924867 0.337431 0.695138
Si Si6 0.835714 0.489438 0.111283
Si Si7 0.040043 0.663995 0.755977
O O1 0.891018 0.543180 0.074536
O O2 0.008894 0.496345 0.124657
O O3 0.020379 0.621029 0.067796
O O4 0.000000 0.500000 0.000000
O O5 0.500731 0.499270 0.750000
O O6 0.493762 0.375597 0.693063
O O7 0.378090 0.483860 0.696937
O O8 0.588809 0.250000 0.903252
O O9 0.642749 0.381606 0.869418
O O10 0.639924 0.337738 0.988722
O O11 0.250000 0.867652 0.584426
O O12 0.171509 0.750000 0.568201
O O13 0.094891 0.862480 0.596688
O O14 0.878160 0.378160 0.750000
O O15 0.928093 0.250000 0.704996
O O16 0.750000 0.496367 0.091468
O O17 0.839288 0.497223 0.186482
O O18 0.115925 0.615925 0.750000
O O19 0.054243 0.750000 0.770517
#
# Coordination Sequence:
#
# PCOD9570056 Si02
#       7
#    16  16  16  16  16  16  16
#     4  11  19  33  52  75 100 135 181 217 252 314
#     4   9  18  35  51  69 101 138 174 213 255 309
#     4  10  20  31  48  72 101 134 166 206 260 316
#     4   9  17  29  44  68 105 136 158 196 253 312
#     4  10  20  32  49  72  99 131 166 208 257 313
#     4  10  19  32  50  73 100 136 173 212 259 306
#     4  10  19  33  53  75 104 139 174 216 265 312
#
# _framework density 16.254777000000001
#
# number of rings (size 3 to 8) (size 9 to 14) (size 15 to 20)
#    0.000    2.143    4.286    0.857    0.000    2.286 
#    0.000    2.143    0.000    0.857    0.000    2.000 
#    0.000    2.571    0.000    0.000    0.000    0.000 
#
# Total GULP energy -623853.688373 kJ/mol
# GULP energy per Si atom -5570.122218 kJ/mol
# Density = 1.621778 g / cm^3
# Si number density = 16.254777 Si / 1000 Ang^3
#
#
#
# Elastic Constant Matrix: (Units=GPa)
#
#
# Indices 1 2 3 4 5 6 
#
# 1 62.1850 50.9610 2.0837 0.0000 0.0000 0.0000
# 2 50.9610 62.1850 2.0839 0.0000 0.0000 0.0000
# 3 2.0837 2.0839 63.5987 0.0000 0.0000 0.0000
# 4 0.0000 0.0000 0.0000 19.1989 0.0000 0.0000
# 5 0.0000 0.0000 0.0000 0.0000 19.1990 0.0000
# 6 0.0000 0.0000 0.0000 0.0000 0.0000 17.8378
#
#
#
# Elastic Compliance Matrix: (Units=1/GPa)
#
#
# Indices 1 2 3 4 5 6 
#
# 1 0.048972 -0.040123 -0.000290 0.000000 0.000000 0.000000
# 2 -0.040123 0.048972 -0.000290 0.000000 0.000000 0.000000
# 3 -0.000290 -0.000290 0.015743 0.000000 0.000000 0.000000
# 4 0.000000 0.000000 0.000000 0.052086 0.000000 0.000000
# 5 0.000000 0.000000 0.000000 0.000000 0.052086 0.000000
# 6 0.000000 0.000000 0.000000 0.000000 0.000000 0.056061
#
#
# Mechanical properties :
#
#
# Convention : Reuss Voigt Hill
#
# Bulk Modulus (GPa) = 30.97843 33.13619 32.05731
# Shear Modulus (GPa) = 13.65803 20.10314 16.88059
#
# Velocity S-wave (km/s) = 2.90185 3.52056 3.22607
# Velocity P-wave (km/s) = 5.50700 6.07911 5.80011
#
# Compressibility (1/GPa) = 0.03228053
#
# Stress axis : x y z
#
# Youngs Moduli (GPa) = 20.41994 20.41994 63.52194
#
# Poissons Ratio (x) = 0.81931 0.01841
# Poissons Ratio (y) = 0.81931 0.01842
# Poissons Ratio (z) = 0.00592 0.00592
#
# Static dielectric constant tensor:
#      x y z
#    x 1.568510 0.000000 0.000000 
#    y 0.000000 1.568520 0.000000 
#    z 0.000000 0.000000 1.571470 
# 
# From -- ./inp_files/8075.got.cif
#   From: 2010.05.17/outbox.cif.g08.bks.cpg/sg137_5_cif.got.tgz:8075.got - 2010.05.20 13:01:12.
