data_PCOD9570402
_publ_section_title
;
Structure prediction by ZEFSAII (Michael W. Deem and Ramdas Pophale) SiO2 
 PCOD9570402
Probable space group: P 42/N M C
;
_chemical_formula_sum "Si O2"
_cell_formula_units_Z 108
_cell_length_a 14.737314
_cell_length_b 14.737314
_cell_length_c 20.807357
_cell_angle_alpha 90.000000
_cell_angle_beta 90.000000
_cell_angle_gamma 90.000000
_cell_volume 4519.117073
_symmetry_space_group_name_H-M "P 42/N M C"
_symmetry_group_IT_number 137
_space_group.IT_coordinate_system_code '2'
_symmetry_cell_setting 'tetragonal'
loop_
_space_group_symop_operation_xyz
x,y,z
1/2-y,x,1/2+z
1/2-x,1/2-y,z
y,1/2-x,1/2+z
1/2+x,-y,-z
-x,1/2+y,-z
1/2+y,1/2+x,1/2-z
-y,-x,1/2-z
-x,-y,-z
1/2+y,-x,1/2-z
1/2+x,1/2+y,-z
-y,1/2+x,1/2-z
1/2-x,y,z
x,1/2-y,z
1/2-y,1/2-x,1/2+z
y,x,1/2+z
loop_
_atom_site_type_symbol
_atom_site_label
_atom_site_fract_x
_atom_site_fract_y
_atom_site_fract_z
Si Si1 0.117020 0.917684 0.575676
Si Si2 0.750000 0.250000 0.391751
Si Si3 0.855182 0.355182 0.250000
Si Si4 0.537625 0.358094 0.695053
Si Si5 0.569926 0.850905 0.764929
Si Si6 0.553577 0.351937 0.557228
Si Si7 0.922108 0.858903 0.612771
Si Si8 0.651237 0.608386 0.475006
O O1 0.173733 0.833263 0.602407
O O2 0.100235 0.902204 0.500180
O O3 0.018685 0.908245 0.606661
O O4 0.153707 0.018810 0.570624
O O5 0.852816 0.250000 0.278406
O O6 0.854518 0.459706 0.275478
O O7 0.590404 0.409597 0.750000
O O8 0.548533 0.250000 0.699366
O O9 0.432293 0.383085 0.698770
O O10 0.573542 0.391041 0.626492
O O11 0.599292 0.750000 0.783094
O O12 0.596880 0.864615 0.689144
O O13 0.588631 0.250000 0.555238
O O14 0.445412 0.349732 0.545138
O O15 0.931532 0.750000 0.599618
O O16 0.861780 0.897624 0.553700
O O17 0.750000 0.651554 0.466020
#
# Coordination Sequence:
#
# PCOD9570402 Si02
#       8
#    16   4   8  16  16  16  16  16
#     4  11  21  38  59  90 126 162 202 247 306 371
#     4  12  20  40  60  92 133 165 200 256 312 374
#     4   9  18  36  60  94 127 162 212 260 315 384
#     4  11  26  46  67  93 122 166 221 274 327 375
#     4  10  22  40  65  94 128 170 209 260 324 389
#     4  10  22  43  64  84 121 162 202 257 317 359
#     4  10  21  39  59  86 128 165 196 248 313 368
#     4  11  23  35  60  96 122 159 208 249 296 375
#
# _framework density 23.898472999999999
#
# number of rings (size 3 to 8) (size 9 to 14) (size 15 to 20)
#    0.000    1.556    2.963    3.111    4.148    2.815 
#    2.667    4.444    0.000    0.000    0.000    0.000 
#    0.000    0.000    0.000    0.000    0.000    0.000 
#
# Total GULP energy -601600.588862 kJ/mol
# GULP energy per Si atom -5570.375823 kJ/mol
# Density = 2.384408 g / cm^3
# Si number density = 23.898473 Si / 1000 Ang^3
#
#
#
# Elastic Constant Matrix: (Units=GPa)
#
#
# Indices 1 2 3 4 5 6 
#
# 1 52.5289 4.8371 -9.6128 0.0000 0.0000 0.0000
# 2 4.8371 52.5259 -9.6139 0.0000 0.0000 0.0000
# 3 -9.6128 -9.6139 87.5480 0.0000 0.0000 0.0000
# 4 0.0000 0.0000 0.0000 13.0715 0.0000 0.0000
# 5 0.0000 0.0000 0.0000 0.0000 13.0728 0.0000
# 6 0.0000 0.0000 0.0000 0.0000 0.0000 -7.9984
#
#
#
# Elastic Compliance Matrix: (Units=1/GPa)
#
#
# Indices 1 2 3 4 5 6 
#
# 1 0.019533 -0.001435 0.001987 0.000000 0.000000 0.000000
# 2 -0.001435 0.019534 0.001988 0.000000 0.000000 0.000000
# 3 0.001987 0.001988 0.011859 0.000000 0.000000 0.000000
# 4 0.000000 0.000000 0.000000 0.076502 0.000000 0.000000
# 5 0.000000 0.000000 0.000000 0.000000 0.076494 0.000000
# 6 0.000000 0.000000 0.000000 0.000000 0.000000 -0.125025
#
#
# Mechanical properties :
#
#
# Convention : Reuss Voigt Hill
#
# Bulk Modulus (GPa) = 17.85556 18.20264 18.02910
# Shear Modulus (GPa) = 54.06167 17.42868 35.74517
#
# Velocity S-wave (km/s) = 4.76135 2.70345 3.87164
# Velocity P-wave (km/s) = 6.14125 4.16870 5.24848
#
# Compressibility (1/GPa) = 0.05600497
#
# Stress axis : x y z
#
# Youngs Moduli (GPa) = 51.19556 51.19240 84.32595
#
# Poissons Ratio (x) = 0.07347 -0.16757
# Poissons Ratio (y) = 0.07347 -0.16760
# Poissons Ratio (z) = -0.10173 -0.10175
#
# Static dielectric constant tensor:
#      x y z
#    x 1.857710 0.000000 0.000000 
#    y 0.000000 1.857710 0.000000 
#    z 0.000000 0.000000 2.068250 
# 
# From -- ./inp_files/9016.got.cif
#   From: 2010.05.17/outbox.cif.g08.bks.cpg/sg137_5_cif.got.tgz:9016.got - 2010.05.20 13:01:12.
