data_PCOD9570743
_publ_section_title
;
Structure prediction by ZEFSAII (Michael W. Deem and Ramdas Pophale) SiO2 
 PCOD9570743
Probable space group: P 42/N C M
;
_chemical_formula_sum "Si O2"
_cell_formula_units_Z 96
_cell_length_a 19.616298
_cell_length_b 19.616298
_cell_length_c 13.497195
_cell_angle_alpha 90.000000
_cell_angle_beta 90.000000
_cell_angle_gamma 90.000000
_cell_volume 5193.709126
_symmetry_space_group_name_H-M "P 42/N C M"
_symmetry_group_IT_number 138
_space_group.IT_coordinate_system_code '2'
_symmetry_cell_setting 'tetragonal'
loop_
_space_group_symop_operation_xyz
x,y,z
1/2-y,x,1/2+z
1/2-x,1/2-y,z
y,1/2-x,1/2+z
1/2+x,-y,1/2-z
-x,1/2+y,1/2-z
1/2+y,1/2+x,-z
-y,-x,-z
-x,-y,-z
1/2+y,-x,1/2-z
1/2+x,1/2+y,-z
-y,1/2+x,1/2-z
1/2-x,y,1/2+z
x,1/2-y,1/2+z
1/2-y,1/2-x,z
y,x,z
loop_
_atom_site_type_symbol
_atom_site_label
_atom_site_fract_x
_atom_site_fract_y
_atom_site_fract_z
Si Si1 0.122822 0.009913 0.268438
Si Si2 0.418489 0.967532 0.097489
Si Si3 0.937347 0.821896 0.310473
Si Si4 0.613479 0.002047 0.468425
Si Si5 0.860430 0.754130 0.957668
Si Si6 0.473519 0.261088 0.891271
O O1 0.081885 0.081885 0.285749
O O2 0.192169 0.001713 0.333932
O O3 0.072193 0.952113 0.311730
O O4 0.128189 0.999473 0.150041
O O5 0.467475 0.032526 0.076893
O O6 0.345998 0.998779 0.124486
O O7 0.421694 0.921694 0.000000
O O8 0.880901 0.880901 0.314942
O O9 0.903663 0.755547 0.358392
O O10 0.957521 0.810707 0.199236
O O11 0.565979 0.065979 0.500000
O O12 0.564995 0.935006 0.490302
O O13 0.685736 0.005459 0.527950
O O14 0.800191 0.699810 0.953178
O O15 0.827727 0.827727 0.965668
O O16 0.906255 0.737380 0.051074
#
# Coordination Sequence:
#
# PCOD9570743 Si02
#       6
#    16  16  16  16  16  16
#     4  10  21  35  53  80 113 147 186 236 291 349
#     4   9  17  32  53  74  98 130 171 225 283 328
#     4  10  20  33  50  71  97 135 183 226 263 314
#     4  10  21  38  58  80 113 157 199 242 296 353
#     4  10  21  34  47  70 108 150 186 219 262 324
#     4  12  21  32  51  75 106 144 183 225 276 334
#
# _framework density 18.483899000000001
#
# number of rings (size 3 to 8) (size 9 to 14) (size 15 to 20)
#    0.000    1.833    0.000    5.000    0.000    8.000 
#    0.000    1.667    0.000    0.000    0.000    0.000 
#    0.000   54.000    0.000    0.000    0.000    0.000 
#
# Total GULP energy -534587.132094 kJ/mol
# GULP energy per Si atom -5568.615959 kJ/mol
# Density = 1.844183 g / cm^3
# Si number density = 18.483899 Si / 1000 Ang^3
#
#
#
# Elastic Constant Matrix: (Units=GPa)
#
#
# Indices 1 2 3 4 5 6 
#
# 1 55.2166 14.8967 6.0539 0.0000 0.0000 0.0000
# 2 14.8967 55.2166 6.0539 0.0000 0.0000 0.0000
# 3 6.0539 6.0539 69.0157 0.0000 0.0000 0.0000
# 4 0.0000 0.0000 0.0000 36.3742 0.0000 0.0000
# 5 0.0000 0.0000 0.0000 0.0000 36.3742 0.0000
# 6 0.0000 0.0000 0.0000 0.0000 0.0000 22.3275
#
#
#
# Elastic Compliance Matrix: (Units=1/GPa)
#
#
# Indices 1 2 3 4 5 6 
#
# 1 0.019642 -0.005160 -0.001270 0.000000 0.000000 0.000000
# 2 -0.005160 0.019642 -0.001270 0.000000 0.000000 0.000000
# 3 -0.001270 -0.001270 0.014712 0.000000 0.000000 0.000000
# 4 0.000000 0.000000 0.000000 0.027492 0.000000 0.000000
# 5 0.000000 0.000000 0.000000 0.000000 0.027492 0.000000
# 6 0.000000 0.000000 0.000000 0.000000 0.000000 0.044788
#
#
# Mechanical properties :
#
#
# Convention : Reuss Voigt Hill
#
# Bulk Modulus (GPa) = 25.91008 25.93976 25.92492
# Shear Modulus (GPa) = 27.46742 29.17814 28.32278
#
# Velocity S-wave (km/s) = 3.85907 3.97743 3.91870
# Velocity P-wave (km/s) = 5.82277 5.92937 5.87631
#
# Compressibility (1/GPa) = 0.03859501
#
# Stress axis : x y z
#
# Youngs Moduli (GPa) = 50.91172 50.91172 67.97029
#
# Poissons Ratio (x) = 0.26270 0.08634
# Poissons Ratio (y) = 0.26270 0.08634
# Poissons Ratio (z) = 0.06467 0.06467
#
# Static dielectric constant tensor:
#      x y z
#    x 1.672610 0.000000 0.000000 
#    y 0.000000 1.672610 0.000000 
#    z 0.000000 0.000000 1.603440 
# 
# From -- ./inp_files/3119.got.cif
#   From: 2010.05.17/outbox.cif.g08.bks.cpg/sg138_2_cif.got.tgz:3119.got - 2010.05.20 13:08:53.
