data_PCOD9570307
_publ_section_title
;
Structure prediction by ZEFSAII (Michael W. Deem and Ramdas Pophale) SiO2 
 PCOD9570307
Probable space group: P 42/N M C
;
_chemical_formula_sum "Si O2"
_cell_formula_units_Z 88
_cell_length_a 11.995523
_cell_length_b 11.995523
_cell_length_c 31.477626
_cell_angle_alpha 90.000000
_cell_angle_beta 90.000000
_cell_angle_gamma 90.000000
_cell_volume 4529.396567
_symmetry_space_group_name_H-M "P 42/N M C"
_symmetry_group_IT_number 137
_space_group.IT_coordinate_system_code '2'
_symmetry_cell_setting 'tetragonal'
loop_
_space_group_symop_operation_xyz
x,y,z
1/2-y,x,1/2+z
1/2-x,1/2-y,z
y,1/2-x,1/2+z
1/2+x,-y,-z
-x,1/2+y,-z
1/2+y,1/2+x,1/2-z
-y,-x,1/2-z
-x,-y,-z
1/2+y,-x,1/2-z
1/2+x,1/2+y,-z
-y,1/2+x,1/2-z
1/2-x,y,z
x,1/2-y,z
1/2-y,1/2-x,1/2+z
y,x,1/2+z
loop_
_atom_site_type_symbol
_atom_site_label
_atom_site_fract_x
_atom_site_fract_y
_atom_site_fract_z
Si Si1 0.530199 0.374842 0.040631
Si Si2 0.382883 0.250000 0.246661
Si Si3 0.383084 0.576820 0.052107
Si Si4 0.250000 0.616690 0.910298
Si Si5 0.997737 0.627302 0.139802
Si Si6 0.383456 0.006603 0.211535
Si Si7 0.554088 0.750000 0.657100
O O1 0.510708 0.250000 0.055532
O O2 0.421795 0.448547 0.048223
O O3 0.638012 0.422103 0.065622
O O4 0.567410 0.373758 0.991467
O O5 0.250000 0.250000 0.256137
O O6 0.407008 0.136302 0.221666
O O7 0.442693 0.250000 0.292143
O O8 0.250000 0.592780 0.054510
O O9 0.446673 0.621627 0.093469
O O10 0.250000 0.750000 0.912028
O O11 0.250000 0.568139 0.863364
O O12 0.021103 0.750000 0.158374
O O13 0.055590 0.535064 0.169183
O O14 0.864448 0.610466 0.140910
O O15 0.250000 0.992085 0.208354
O O16 0.433914 0.933914 0.250000
#
# Coordination Sequence:
#
# PCOD9570307 Si02
#       7
#    16   8  16   8  16  16   8
#     4  10  21  40  63  88 125 171 215 261 317 377
#     4  10  22  44  68  88 124 166 208 260 324 385
#     4  11  23  39  62  93 129 167 212 265 323 379
#     4  10  20  40  68  92 122 172 217 261 314 372
#     4  12  25  41  64  95 129 165 211 267 323 384
#     4  11  23  41  65  93 123 165 206 257 322 390
#     4  12  22  42  64  94 124 165 212 266 317 384
#
# _framework density 19.428636999999998
#
# number of rings (size 3 to 8) (size 9 to 14) (size 15 to 20)
#    0.000    1.091    4.545    2.455    0.000    3.455 
#    3.273    0.000    2.000    0.000    0.000    0.000 
#    0.000    0.000    0.000    0.000    0.000    0.000 
#
# Total GULP energy -491410.733640 kJ/mol
# GULP energy per Si atom -5584.212882 kJ/mol
# Density = 1.938442 g / cm^3
# Si number density = 19.428637 Si / 1000 Ang^3
#
#
#
# Elastic Constant Matrix: (Units=GPa)
#
#
# Indices 1 2 3 4 5 6 
#
# 1 94.9339 31.3087 36.3534 0.0000 0.0000 0.0000
# 2 31.3087 94.9339 36.3534 0.0000 0.0000 0.0000
# 3 36.3534 36.3534 104.3140 0.0000 0.0000 0.0000
# 4 0.0000 0.0000 0.0000 -0.2264 0.0000 0.0000
# 5 0.0000 0.0000 0.0000 0.0000 -0.2264 0.0000
# 6 0.0000 0.0000 0.0000 0.0000 0.0000 15.9554
#
#
#
# Elastic Compliance Matrix: (Units=1/GPa)
#
#
# Indices 1 2 3 4 5 6 
#
# 1 0.012814 -0.002903 -0.003454 0.000000 0.000000 0.000000
# 2 -0.002903 0.012814 -0.003454 0.000000 0.000000 0.000000
# 3 -0.003454 -0.003454 0.011994 0.000000 0.000000 0.000000
# 4 0.000000 0.000000 0.000000 -4.417406 0.000000 0.000000
# 5 0.000000 0.000000 0.000000 0.000000 -4.417406 0.000000
# 6 0.000000 0.000000 0.000000 0.000000 0.000000 0.062675
#
#
# Mechanical properties :
#
#
# Convention : Reuss Voigt Hill
#
# Bulk Modulus (GPa) = 55.55735 55.80141 55.67938
# Shear Modulus (GPa) = -0.57413 15.77828 7.60207
#
# Velocity S-wave (km/s) = -0.54419 2.85285 1.98023
# Velocity P-wave (km/s) = 5.31628 6.29565 5.82658
#
# Compressibility (1/GPa) = 0.01799942
#
# Stress axis : x y z
#
# Youngs Moduli (GPa) = 78.04139 78.04139 83.37708
#
# Poissons Ratio (x) = 0.22658 0.28796
# Poissons Ratio (y) = 0.22658 0.28796
# Poissons Ratio (z) = 0.26954 0.26954
#
# Static dielectric constant tensor:
#      x y z
#    x 1.679120 0.000000 0.000000 
#    y 0.000000 1.679120 0.000000 
#    z 0.000000 0.000000 1.668760 
# 
# From -- ./inp_files/10502.got.cif
#   From: 2010.05.17/outbox.cif.g08.bks.cpg/sg137_6_cif.got.tgz:10502.got - 2010.05.20 13:01:12.
