data_PCOD9570147
_publ_section_title
;
Structure prediction by ZEFSAII (Michael W. Deem and Ramdas Pophale) SiO2 
 PCOD9570147
Probable space group: P 42/N M C
;
_chemical_formula_sum "Si O2"
_cell_formula_units_Z 128
_cell_length_a 23.696066
_cell_length_b 23.696066
_cell_length_c 11.662930
_cell_angle_alpha 90.000000
_cell_angle_beta 90.000000
_cell_angle_gamma 90.000000
_cell_volume 6548.776527
_symmetry_space_group_name_H-M "P 42/N M C"
_symmetry_group_IT_number 137
_space_group.IT_coordinate_system_code '2'
_symmetry_cell_setting 'tetragonal'
loop_
_space_group_symop_operation_xyz
x,y,z
1/2-y,x,1/2+z
1/2-x,1/2-y,z
y,1/2-x,1/2+z
1/2+x,-y,-z
-x,1/2+y,-z
1/2+y,1/2+x,1/2-z
-y,-x,1/2-z
-x,-y,-z
1/2+y,-x,1/2-z
1/2+x,1/2+y,-z
-y,1/2+x,1/2-z
1/2-x,y,z
x,1/2-y,z
1/2-y,1/2-x,1/2+z
y,x,1/2+z
loop_
_atom_site_type_symbol
_atom_site_label
_atom_site_fract_x
_atom_site_fract_y
_atom_site_fract_z
Si Si1 0.684960 0.684508 0.017958
Si Si2 0.313110 0.876466 0.420287
Si Si3 0.010130 0.606637 0.472376
Si Si4 0.061587 0.027496 0.257036
Si Si5 0.408080 0.809831 0.347186
Si Si6 0.813238 0.935378 0.404226
Si Si7 0.346848 0.427974 0.848103
Si Si8 0.472368 0.893144 0.017356
O O1 0.750000 0.678743 0.973883
O O2 0.681282 0.750000 0.062569
O O3 0.674419 0.632496 0.105253
O O4 0.631546 0.678777 0.931720
O O5 0.250000 0.869286 0.460987
O O6 0.347852 0.819050 0.407430
O O7 0.312300 0.899450 0.288902
O O8 0.347474 0.922484 0.491199
O O9 0.054603 0.640996 0.396825
O O10 0.047464 0.555330 0.526147
O O11 0.970255 0.582327 0.373579
O O12 0.976224 0.648634 0.554720
O O13 0.072555 0.087980 0.310087
O O14 0.093270 0.986967 0.349170
O O15 0.999251 0.000750 0.250000
O O16 0.433956 0.750000 0.376372
O O17 0.750000 0.950548 0.448273
O O18 0.814755 0.943627 0.267792
O O19 0.862182 0.973829 0.460864
#
# Coordination Sequence:
#
# PCOD9570147 Si02
#       8
#    16  16  16  16  16  16  16  16
#     4  10  23  45  67  86 113 152 200 253 307 356
#     4   9  16  29  51  77 109 148 189 233 279 328
#     4  10  22  37  57  86 120 155 192 236 290 354
#     4  10  21  35  58  86 117 150 191 237 293 353
#     4   9  17  30  49  77 112 148 186 231 281 330
#     4  11  24  40  60  87 118 153 198 247 295 353
#     4  12  24  39  61  89 121 154 191 240 297 361
#     4  10  19  37  59  84 118 154 195 240 288 350
#
# _framework density 19.545635000000001
#
# number of rings (size 3 to 8) (size 9 to 14) (size 15 to 20)
#    0.000    1.875    2.500    1.500    1.750    2.750 
#    0.000    3.125    0.000    0.000    0.000    0.000 
#    0.000    0.000    0.000    6.500    0.000    0.250 
#
# Total GULP energy -712595.882430 kJ/mol
# GULP energy per Si atom -5567.155331 kJ/mol
# Density = 1.950115 g / cm^3
# Si number density = 19.545635 Si / 1000 Ang^3
#
#
#
# Elastic Constant Matrix: (Units=GPa)
#
#
# Indices 1 2 3 4 5 6 
#
# 1 64.3045 19.7535 14.4636 0.0000 0.0000 0.0000
# 2 19.7535 64.3012 14.4633 0.0000 0.0000 0.0000
# 3 14.4636 14.4633 66.0705 0.0000 0.0000 0.0000
# 4 0.0000 0.0000 0.0000 48.2718 0.0000 0.0000
# 5 0.0000 0.0000 0.0000 0.0000 48.2584 0.0000
# 6 0.0000 0.0000 0.0000 0.0000 0.0000 22.8293
#
#
#
# Elastic Compliance Matrix: (Units=1/GPa)
#
#
# Indices 1 2 3 4 5 6 
#
# 1 0.017656 -0.004790 -0.002816 0.000000 0.000000 0.000000
# 2 -0.004790 0.017657 -0.002817 0.000000 0.000000 0.000000
# 3 -0.002816 -0.002817 0.016368 0.000000 0.000000 0.000000
# 4 0.000000 0.000000 0.000000 0.020716 0.000000 0.000000
# 5 0.000000 0.000000 0.000000 0.000000 0.020722 0.000000
# 6 0.000000 0.000000 0.000000 0.000000 0.000000 0.043803
#
#
# Mechanical properties :
#
#
# Convention : Reuss Voigt Hill
#
# Bulk Modulus (GPa) = 32.43116 32.44858 32.43987
# Shear Modulus (GPa) = 29.75344 33.60496 31.67920
#
# Velocity S-wave (km/s) = 3.90584 4.15095 4.03026
# Velocity P-wave (km/s) = 6.08024 6.29375 6.18792
#
# Compressibility (1/GPa) = 0.03083454
#
# Stress axis : x y z
#
# Youngs Moduli (GPa) = 56.63775 56.63481 61.09310
#
# Poissons Ratio (x) = 0.27131 0.17207
# Poissons Ratio (y) = 0.27132 0.17207
# Poissons Ratio (z) = 0.15952 0.15952
#
# Static dielectric constant tensor:
#      x y z
#    x 1.723520 0.000000 0.000000 
#    y 0.000000 1.723520 0.000000 
#    z 0.000000 0.000000 1.691000 
# 
# From -- ./inp_files/4044.got.cif
#   From: 2010.05.17/outbox.cif.g08.bks.cpg/sg137_3_cif.got.tgz:4044.got - 2010.05.20 13:01:12.
