data_PCOD9570775
_publ_section_title
;
Structure prediction by ZEFSAII (Michael W. Deem and Ramdas Pophale) SiO2 
 PCOD9570775
Probable space group: P 42/N C M
;
_chemical_formula_sum "Si O2"
_cell_formula_units_Z 96
_cell_length_a 15.146300
_cell_length_b 15.146300
_cell_length_c 24.760249
_cell_angle_alpha 90.000000
_cell_angle_beta 90.000000
_cell_angle_gamma 90.000000
_cell_volume 5680.258719
_symmetry_space_group_name_H-M "P 42/N C M"
_symmetry_group_IT_number 138
_space_group.IT_coordinate_system_code '2'
_symmetry_cell_setting 'tetragonal'
loop_
_space_group_symop_operation_xyz
x,y,z
1/2-y,x,1/2+z
1/2-x,1/2-y,z
y,1/2-x,1/2+z
1/2+x,-y,1/2-z
-x,1/2+y,1/2-z
1/2+y,1/2+x,-z
-y,-x,-z
-x,-y,-z
1/2+y,-x,1/2-z
1/2+x,1/2+y,-z
-y,1/2+x,1/2-z
1/2-x,y,1/2+z
x,1/2-y,1/2+z
1/2-y,1/2-x,z
y,x,z
loop_
_atom_site_type_symbol
_atom_site_label
_atom_site_fract_x
_atom_site_fract_y
_atom_site_fract_z
Si Si1 0.786863 0.560967 0.978913
Si Si2 0.304799 0.456059 0.402785
Si Si3 0.946447 0.098071 0.715534
Si Si4 0.324587 0.324587 0.220134
Si Si5 0.049062 0.898919 0.406732
Si Si6 0.325980 0.174021 0.597106
Si Si7 0.261564 0.495205 0.284861
O O1 0.864893 0.635108 0.980188
O O2 0.830060 0.473128 0.953575
O O3 0.715116 0.594630 0.936804
O O4 0.755344 0.556828 0.040622
O O5 0.375744 0.375744 0.394980
O O6 0.361994 0.545136 0.411390
O O7 0.251661 0.467844 0.347639
O O8 0.957162 0.136596 0.654562
O O9 0.963470 0.174106 0.758959
O O10 0.848267 0.057504 0.718770
O O11 0.018353 0.018353 0.720728
O O12 0.250000 0.250000 0.218976
O O13 0.348066 0.348066 0.158487
O O14 0.286345 0.408440 0.251112
O O15 0.972546 0.972546 0.410644
O O16 0.250000 0.250000 0.598653
#
# Coordination Sequence:
#
# PCOD9570775 Si02
#       7
#    16  16  16   8  16   8  16
#     4   9  15  25  40  65  97 133 164 206 264 314
#     4   9  16  28  44  68 101 129 167 212 266 323
#     4  10  20  35  53  77 110 138 179 223 265 317
#     4  11  20  34  54  77 104 139 187 214 261 324
#     4   8  14  26  46  67  91 127 168 214 259 304
#     4   9  18  28  40  65  99 130 167 216 250 305
#     4  11  20  35  52  77 107 144 175 223 266 315
#
# _framework density 16.900639000000002
#
# number of rings (size 3 to 8) (size 9 to 14) (size 15 to 20)
#    0.000    2.500    1.667    3.000    0.000    5.000 
#    3.000    0.000    0.000    0.000    0.000    5.833 
#    0.000   10.667    0.000    0.000    0.000    0.000 
#
# Total GULP energy -534751.105192 kJ/mol
# GULP energy per Si atom -5570.324012 kJ/mol
# Density = 1.686217 g / cm^3
# Si number density = 16.900639 Si / 1000 Ang^3
#
#
#
# Elastic Constant Matrix: (Units=GPa)
#
#
# Indices 1 2 3 4 5 6 
#
# 1 36.9104 2.2172 26.3838 0.0000 0.0000 0.0000
# 2 2.2172 36.9104 26.3838 0.0000 0.0000 0.0000
# 3 26.3838 26.3838 145.0236 0.0000 0.0000 0.0000
# 4 0.0000 0.0000 0.0000 14.5319 0.0000 0.0000
# 5 0.0000 0.0000 0.0000 0.0000 14.5319 0.0000
# 6 0.0000 0.0000 0.0000 0.0000 0.0000 9.1017
#
#
#
# Elastic Compliance Matrix: (Units=1/GPa)
#
#
# Indices 1 2 3 4 5 6 
#
# 1 0.031345 0.002521 -0.006161 0.000000 0.000000 0.000000
# 2 0.002521 0.031345 -0.006161 0.000000 0.000000 0.000000
# 3 -0.006161 -0.006161 0.009137 0.000000 0.000000 0.000000
# 4 0.000000 0.000000 0.000000 0.068814 0.000000 0.000000
# 5 0.000000 0.000000 0.000000 0.000000 0.068814 0.000000
# 6 0.000000 0.000000 0.000000 0.000000 0.000000 0.109870
#
#
# Mechanical properties :
#
#
# Convention : Reuss Voigt Hill
#
# Bulk Modulus (GPa) = 19.14785 36.53490 27.84138
# Shear Modulus (GPa) = 14.03168 18.55708 16.29438
#
# Velocity S-wave (km/s) = 2.88452 3.31722 3.10841
# Velocity P-wave (km/s) = 4.73796 6.02796 5.42146
#
# Compressibility (1/GPa) = 0.05222518
#
# Stress axis : x y z
#
# Youngs Moduli (GPa) = 31.90271 31.90271 109.44227
#
# Poissons Ratio (x) = -0.08043 0.67430
# Poissons Ratio (y) = -0.08043 0.67430
# Poissons Ratio (z) = 0.19656 0.19656
#
# Static dielectric constant tensor:
#      x y z
#    x 1.569210 0.000000 0.000000 
#    y 0.000000 1.569210 0.000000 
#    z 0.000000 0.000000 1.603750 
# 
# From -- ./inp_files/6994.got.cif
#   From: 2010.05.17/outbox.cif.g08.bks.cpg/sg138_4_cif.got.tgz:6994.got - 2010.05.20 13:08:53.
