data_PCOD9570413
_publ_section_title
;
Structure prediction by ZEFSAII (Michael W. Deem and Ramdas Pophale) SiO2 
 PCOD9570413
Probable space group: P 42/N M C
;
_chemical_formula_sum "Si O2"
_cell_formula_units_Z 88
_cell_length_a 11.695573
_cell_length_b 11.695573
_cell_length_c 32.037148
_cell_angle_alpha 90.000000
_cell_angle_beta 90.000000
_cell_angle_gamma 90.000000
_cell_volume 4382.247032
_symmetry_space_group_name_H-M "P 42/N M C"
_symmetry_group_IT_number 137
_space_group.IT_coordinate_system_code '2'
_symmetry_cell_setting 'tetragonal'
loop_
_space_group_symop_operation_xyz
x,y,z
1/2-y,x,1/2+z
1/2-x,1/2-y,z
y,1/2-x,1/2+z
1/2+x,-y,-z
-x,1/2+y,-z
1/2+y,1/2+x,1/2-z
-y,-x,1/2-z
-x,-y,-z
1/2+y,-x,1/2-z
1/2+x,1/2+y,-z
-y,1/2+x,1/2-z
1/2-x,y,z
x,1/2-y,z
1/2-y,1/2-x,1/2+z
y,x,1/2+z
loop_
_atom_site_type_symbol
_atom_site_label
_atom_site_fract_x
_atom_site_fract_y
_atom_site_fract_z
Si Si1 0.503347 0.462225 0.133681
Si Si2 0.750000 0.616098 0.327197
Si Si3 0.997001 0.434506 0.955644
Si Si4 0.375629 0.250000 0.475111
Si Si5 0.500314 0.378807 0.788995
Si Si6 0.750000 0.127016 0.980805
Si Si7 0.750000 0.554227 0.233929
Si Si8 0.884499 0.250000 0.336042
O O1 0.421643 0.359771 0.147214
O O2 0.489402 0.489109 0.085449
O O3 0.476399 0.563477 0.166399
O O4 0.635143 0.428989 0.142159
O O5 0.750000 0.750000 0.317329
O O6 0.750000 0.548051 0.283586
O O7 0.872946 0.372221 0.957217
O O8 0.124225 0.376837 0.952739
O O9 0.000000 0.500000 0.000000
O O10 0.250000 0.250000 0.497922
O O11 0.501265 0.250000 0.497203
O O12 0.553056 0.446944 0.750000
O O13 0.542230 0.250000 0.788165
O O14 0.364220 0.383528 0.781234
O O15 0.750000 0.250000 0.005385
O O16 0.750000 0.432872 0.210906
O O17 0.750000 0.250000 0.336765
#
# Coordination Sequence:
#
# PCOD9570413 Si02
#       8
#    16   8  16   8  16   8   8   8
#     4  11  24  43  65 100 130 174 217 278 336 401
#     4  12  24  41  66  95 136 173 220 276 334 406
#     4  10  23  45  67  99 136 180 229 280 343 409
#     4  10  21  43  72 101 134 178 228 283 343 417
#     4  11  23  40  64  90 126 169 218 264 324 395
#     4  10  22  43  69 101 139 179 229 287 352 406
#     4  10  22  41  65  94 131 174 211 261 340 407
#     4  10  21  41  67 106 141 167 220 278 348 409
#
# _framework density 20.081022000000001
#
# number of rings (size 3 to 8) (size 9 to 14) (size 15 to 20)
#    0.000    1.455    2.727    1.909    1.273    1.636 
#   14.727    0.909    0.000    0.000    0.000    0.000 
#    0.000    0.000    0.000    0.000    0.000    0.000 
#
# Total GULP energy -490152.543779 kJ/mol
# GULP energy per Si atom -5569.915270 kJ/mol
# Density = 2.003532 g / cm^3
# Si number density = 20.081022 Si / 1000 Ang^3
#
#
#
# Elastic Constant Matrix: (Units=GPa)
#
#
# Indices 1 2 3 4 5 6 
#
# 1 114.7685 24.9658 34.9681 0.0000 0.0000 0.0000
# 2 24.9658 114.7661 34.9677 0.0000 0.0000 0.0000
# 3 34.9681 34.9677 147.1827 0.0000 0.0000 0.0000
# 4 0.0000 0.0000 0.0000 22.5972 0.0000 0.0000
# 5 0.0000 0.0000 0.0000 0.0000 22.5977 0.0000
# 6 0.0000 0.0000 0.0000 0.0000 0.0000 -7.9445
#
#
#
# Elastic Compliance Matrix: (Units=1/GPa)
#
#
# Indices 1 2 3 4 5 6 
#
# 1 0.009629 -0.001507 -0.001930 0.000000 0.000000 0.000000
# 2 -0.001507 0.009629 -0.001930 0.000000 0.000000 0.000000
# 3 -0.001930 -0.001930 0.007711 0.000000 0.000000 0.000000
# 4 0.000000 0.000000 0.000000 0.044253 0.000000 0.000000
# 5 0.000000 0.000000 0.000000 0.000000 0.044252 0.000000
# 6 0.000000 0.000000 0.000000 0.000000 0.000000 -0.125873
#
#
# Mechanical properties :
#
#
# Convention : Reuss Voigt Hill
#
# Bulk Modulus (GPa) = 61.58781 62.94674 62.26727
# Shear Modulus (GPa) = 870.12595 26.23778 448.18186
#
# Velocity S-wave (km/s) = 20.83862 3.61861 14.95564
# Velocity P-wave (km/s) = 24.69279 6.99096 18.14673
#
# Compressibility (1/GPa) = 0.01623698
#
# Stress axis : x y z
#
# Youngs Moduli (GPa) = 103.85407 103.85190 129.68135
#
# Poissons Ratio (x) = 0.15647 0.25025
# Poissons Ratio (y) = 0.15647 0.25025
# Poissons Ratio (z) = 0.20041 0.20041
#
# Static dielectric constant tensor:
#      x y z
#    x 1.733920 0.000000 0.000000 
#    y 0.000000 1.733920 0.000000 
#    z 0.000000 0.000000 1.659130 
# 
# From -- ./inp_files/10537.got.cif
#   From: 2010.05.17/outbox.cif.g08.bks.cpg/sg137_6_cif.got.tgz:10537.got - 2010.05.20 13:01:12.
