data_PCOD9570430
_publ_section_title
;
Structure prediction by ZEFSAII (Michael W. Deem and Ramdas Pophale) SiO2 
 PCOD9570430
Probable space group: P 42/N M C
;
_chemical_formula_sum "Si O2"
_cell_formula_units_Z 84
_cell_length_a 12.356647
_cell_length_b 12.356647
_cell_length_c 23.520992
_cell_angle_alpha 90.000000
_cell_angle_beta 90.000000
_cell_angle_gamma 90.000000
_cell_volume 3591.343239
_symmetry_space_group_name_H-M "P 42/N M C"
_symmetry_group_IT_number 137
_space_group.IT_coordinate_system_code '2'
_symmetry_cell_setting 'tetragonal'
loop_
_space_group_symop_operation_xyz
x,y,z
1/2-y,x,1/2+z
1/2-x,1/2-y,z
y,1/2-x,1/2+z
1/2+x,-y,-z
-x,1/2+y,-z
1/2+y,1/2+x,1/2-z
-y,-x,1/2-z
-x,-y,-z
1/2+y,-x,1/2-z
1/2+x,1/2+y,-z
-y,1/2+x,1/2-z
1/2-x,y,z
x,1/2-y,z
1/2-y,1/2-x,1/2+z
y,x,1/2+z
loop_
_atom_site_type_symbol
_atom_site_label
_atom_site_fract_x
_atom_site_fract_y
_atom_site_fract_z
Si Si1 0.123886 0.047611 0.681645
Si Si2 0.978053 0.250000 0.719485
Si Si3 0.373675 0.464722 0.855750
Si Si4 0.411089 0.135522 0.046704
Si Si5 0.750000 0.250000 0.850996
Si Si6 0.517514 0.250000 0.852213
Si Si7 0.137731 0.571843 0.980651
O O1 0.250000 0.039205 0.700847
O O2 0.130654 0.076518 0.614435
O O3 0.053484 0.144582 0.708599
O O4 0.052488 0.937703 0.682707
O O5 0.867315 0.250000 0.682522
O O6 0.948862 0.250000 0.785660
O O7 0.250000 0.443157 0.837078
O O8 0.445109 0.356471 0.860592
O O9 0.367297 0.515628 0.918579
O O10 0.359785 0.250000 0.031598
O O11 0.527708 0.135370 0.016507
O O12 0.361747 0.024668 0.025699
O O13 0.633920 0.250000 0.883213
O O14 0.250000 0.632400 0.984429
#
# Coordination Sequence:
#
# PCOD9570430 Si02
#       7
#    16   8  16  16   4   8  16
#     4  10  22  39  61  89 121 160 206 252 306 369
#     4  12  24  42  65  91 124 156 202 257 313 372
#     4  10  22  39  61  89 121 160 206 252 306 369
#     4   9  19  35  55  79 112 151 194 243 293 352
#     4  12  25  44  72  96 116 164 208 256 320 364
#     4  12  24  42  65  91 124 156 202 257 313 372
#     4   9  19  35  55  79 112 151 194 243 293 352
#
# _framework density 23.389576000000002
#
# number of rings (size 3 to 8) (size 9 to 14) (size 15 to 20)
#    0.000    1.905    1.905    1.429    2.667    2.667 
#    0.000    3.810    0.000    0.000    0.000    2.667 
#    0.000    0.000    0.000    0.000    0.000    0.000 
#
# Total GULP energy -469213.563006 kJ/mol
# GULP energy per Si atom -5585.875750 kJ/mol
# Density = 2.333634 g / cm^3
# Si number density = 23.389576 Si / 1000 Ang^3
#
#
#
# Elastic Constant Matrix: (Units=GPa)
#
#
# Indices 1 2 3 4 5 6 
#
# 1 192.4780 72.9462 -0.8994 0.0000 0.0000 0.0000
# 2 72.9462 192.4780 -0.8994 0.0000 0.0000 0.0000
# 3 -0.8994 -0.8994 33.8973 0.0000 0.0000 0.0000
# 4 0.0000 0.0000 0.0000 36.1989 0.0000 0.0000
# 5 0.0000 0.0000 0.0000 0.0000 36.1989 0.0000
# 6 0.0000 0.0000 0.0000 0.0000 0.0000 45.3966
#
#
#
# Elastic Compliance Matrix: (Units=1/GPa)
#
#
# Indices 1 2 3 4 5 6 
#
# 1 0.006067 -0.002299 0.000100 0.000000 0.000000 0.000000
# 2 -0.002299 0.006067 0.000100 0.000000 0.000000 0.000000
# 3 0.000100 0.000100 0.029506 0.000000 0.000000 0.000000
# 4 0.000000 0.000000 0.000000 0.027625 0.000000 0.000000
# 5 0.000000 0.000000 0.000000 0.000000 0.027625 0.000000
# 6 0.000000 0.000000 0.000000 0.000000 0.000000 0.022028
#
#
# Mechanical properties :
#
#
# Convention : Reuss Voigt Hill
#
# Bulk Modulus (GPa) = 26.70759 62.34981 44.52870
# Shear Modulus (GPa) = 36.87386 46.73927 41.80656
#
# Velocity S-wave (km/s) = 3.97483 4.47508 4.23235
# Velocity P-wave (km/s) = 5.70168 7.30868 6.55461
#
# Compressibility (1/GPa) = 0.03744254
#
# Stress axis : x y z
#
# Youngs Moduli (GPa) = 164.82330 164.82330 33.89123
#
# Poissons Ratio (x) = 0.37891 -0.00339
# Poissons Ratio (y) = 0.37891 -0.00339
# Poissons Ratio (z) = -0.01648 -0.01648
#
# Static dielectric constant tensor:
#      x y z
#    x 1.875280 0.000000 0.000000 
#    y 0.000000 1.875280 0.000000 
#    z 0.000000 0.000000 1.892720 
# 
# From -- ./inp_files/10487.got.cif
#   From: 2010.05.17/outbox.cif.g08.bks.cpg/sg137_6_cif.got.tgz:10487.got - 2010.05.20 13:01:12.
