data_PCOD9570508
_publ_section_title
;
Structure prediction by ZEFSAII (Michael W. Deem and Ramdas Pophale) SiO2 
 PCOD9570508
Probable space group: P 42/N M C
;
_chemical_formula_sum "Si O2"
_cell_formula_units_Z 42
_cell_length_a 8.041400
_cell_length_b 8.041400
_cell_length_c 31.168215
_cell_angle_alpha 90.000000
_cell_angle_beta 90.000000
_cell_angle_gamma 90.000000
_cell_volume 2015.465007
_symmetry_space_group_name_H-M "P 42/N M C"
_symmetry_group_IT_number 137
_space_group.IT_coordinate_system_code '2'
_symmetry_cell_setting 'tetragonal'
loop_
_space_group_symop_operation_xyz
x,y,z
1/2-y,x,1/2+z
1/2-x,1/2-y,z
y,1/2-x,1/2+z
1/2+x,-y,-z
-x,1/2+y,-z
1/2+y,1/2+x,1/2-z
-y,-x,1/2-z
-x,-y,-z
1/2+y,-x,1/2-z
1/2+x,1/2+y,-z
-y,1/2+x,1/2-z
1/2-x,y,z
x,1/2-y,z
1/2-y,1/2-x,1/2+z
y,x,1/2+z
loop_
_atom_site_type_symbol
_atom_site_label
_atom_site_fract_x
_atom_site_fract_y
_atom_site_fract_z
Si Si1 0.935608 0.554890 0.636579
Si Si2 0.434492 0.250000 0.187887
Si Si3 0.948335 0.556150 0.952720
Si Si4 0.250000 0.750000 0.750000
O O1 0.750000 0.500528 0.649429
O O2 0.954162 0.750000 0.647197
O O3 0.085677 0.457281 0.658769
O O4 0.955247 0.533119 0.585475
O O5 0.250000 0.250000 0.207189
O O6 0.583726 0.250000 0.221610
O O7 0.750000 0.538234 0.948398
O O8 0.992271 0.750000 0.947321
O O9 0.000000 0.500000 0.000000
#
# Coordination Sequence:
#
# PCOD9570508 Si02
#       4
#    16   8  16   2
#     4  11  23  42  70 102 139 186 236 287 354 425
#     4  12  26  48  78 108 142 186 232 292 362 432
#     4  11  23  37  56  89 133 183 239 294 345 408
#     4  12  28  52  76 112 148 180 236 300 368 428
#
# _framework density 20.838861999999999
#
# number of rings (size 3 to 8) (size 9 to 14) (size 15 to 20)
#    0.000    0.762    3.810    3.429    0.000   11.429 
#    0.000    0.000    0.000    0.000    0.000    0.000 
#    0.000    0.000    0.000    0.000    0.000    0.000 
#
# Total GULP energy -235067.040700 kJ/mol
# GULP energy per Si atom -5596.834302 kJ/mol
# Density = 2.079143 g / cm^3
# Si number density = 20.838862 Si / 1000 Ang^3
#
#
#
# Elastic Constant Matrix: (Units=GPa)
#
#
# Indices 1 2 3 4 5 6 
#
# 1 118.9064 51.0339 29.0153 0.0000 0.0000 0.0000
# 2 51.0339 118.9064 29.0153 0.0000 0.0000 0.0000
# 3 29.0153 29.0153 78.9869 0.0000 0.0000 0.0000
# 4 0.0000 0.0000 0.0000 20.9198 0.0000 0.0000
# 5 0.0000 0.0000 0.0000 0.0000 20.9198 0.0000
# 6 0.0000 0.0000 0.0000 0.0000 0.0000 14.6250
#
#
#
# Elastic Compliance Matrix: (Units=1/GPa)
#
#
# Indices 1 2 3 4 5 6 
#
# 1 0.010731 -0.004003 -0.002472 0.000000 0.000000 0.000000
# 2 -0.004003 0.010731 -0.002472 0.000000 0.000000 0.000000
# 3 -0.002472 -0.002472 0.014476 0.000000 0.000000 0.000000
# 4 0.000000 0.000000 0.000000 0.047802 0.000000 0.000000
# 5 0.000000 0.000000 0.000000 0.000000 0.047802 0.000000
# 6 0.000000 0.000000 0.000000 0.000000 0.000000 0.068376
#
#
# Mechanical properties :
#
#
# Convention : Reuss Voigt Hill
#
# Bulk Modulus (GPa) = 55.41246 59.43655 57.42451
# Shear Modulus (GPa) = 22.33892 25.14192 23.74042
#
# Velocity S-wave (km/s) = 3.27767 3.47723 3.37892
# Velocity P-wave (km/s) = 6.40100 6.68621 6.54516
#
# Compressibility (1/GPa) = 0.01804648
#
# Stress axis : x y z
#
# Youngs Moduli (GPa) = 93.18819 93.18819 69.07886
#
# Poissons Ratio (x) = 0.37299 0.17074
# Poissons Ratio (y) = 0.37299 0.17074
# Poissons Ratio (z) = 0.23033 0.23033
#
# Static dielectric constant tensor:
#      x y z
#    x 1.719350 0.000000 0.000000 
#    y 0.000000 1.719350 0.000000 
#    z 0.000000 0.000000 1.717910 
# 
# From -- ./inp_files/9963.got.cif
#   From: 2010.05.17/outbox.cif.g08.bks.cpg/sg137_5_cif.got.tgz:9963.got - 2010.05.20 13:01:12.
