data_PCOD9570938
_publ_section_title
;
Structure prediction by ZEFSAII (Michael W. Deem and Ramdas Pophale) SiO2 
 PCOD9570938
Probable space group: P 42/N C M
;
_chemical_formula_sum "Si O2"
_cell_formula_units_Z 80
_cell_length_a 11.987129
_cell_length_b 11.987129
_cell_length_c 28.071426
_cell_angle_alpha 90.000000
_cell_angle_beta 90.000000
_cell_angle_gamma 90.000000
_cell_volume 4033.618619
_symmetry_space_group_name_H-M "P 42/N C M"
_symmetry_group_IT_number 138
_space_group.IT_coordinate_system_code '2'
_symmetry_cell_setting 'tetragonal'
loop_
_space_group_symop_operation_xyz
x,y,z
1/2-y,x,1/2+z
1/2-x,1/2-y,z
y,1/2-x,1/2+z
1/2+x,-y,1/2-z
-x,1/2+y,1/2-z
1/2+y,1/2+x,-z
-y,-x,-z
-x,-y,-z
1/2+y,-x,1/2-z
1/2+x,1/2+y,-z
-y,1/2+x,1/2-z
1/2-x,y,1/2+z
x,1/2-y,1/2+z
1/2-y,1/2-x,z
y,x,z
loop_
_atom_site_type_symbol
_atom_site_label
_atom_site_fract_x
_atom_site_fract_y
_atom_site_fract_z
Si Si1 0.797720 0.377317 0.631166
Si Si2 0.175546 0.984931 0.971743
Si Si3 0.653582 0.846419 0.981709
Si Si4 0.037929 0.860903 0.706859
Si Si5 0.844056 0.655945 0.871681
Si Si6 0.765662 0.470349 0.305379
O O1 0.750000 0.250000 0.625426
O O2 0.808417 0.435509 0.580653
O O3 0.722228 0.458466 0.663021
O O4 0.908037 0.357151 0.662672
O O5 0.118284 0.881717 0.000000
O O6 0.082462 0.082462 0.970960
O O7 0.286608 0.045410 0.993675
O O8 0.750000 0.750000 0.982115
O O9 0.625978 0.874023 0.926297
O O10 0.987827 0.814621 0.755776
O O11 0.168496 0.887848 0.713155
O O12 0.971918 0.971918 0.694218
O O13 0.750000 0.750000 0.875568
O O14 0.791691 0.556869 0.840834
#
# Coordination Sequence:
#
# PCOD9570938 Si02
#       6
#    16  16   8  16   8  16
#     4  10  23  38  64  90 123 165 207 252 319 375
#     4  10  21  40  64  91 124 162 209 259 321 388
#     4   9  20  38  63  91 129 167 208 267 323 378
#     4  11  22  39  62  88 124 164 207 254 311 385
#     4  11  22  38  63  95 125 162 218 268 308 368
#     4  11  21  40  62  87 125 168 209 256 315 380
#
# _framework density 19.833307999999999
#
# number of rings (size 3 to 8) (size 9 to 14) (size 15 to 20)
#    0.000    1.600    3.000    1.800    1.400    3.600 
#    1.800    0.000    0.000    3.600    0.000    0.000 
#    0.000    0.000    0.000    0.000    0.000    0.000 
#
# Total GULP energy -445922.158691 kJ/mol
# GULP energy per Si atom -5574.026984 kJ/mol
# Density = 1.978817 g / cm^3
# Si number density = 19.833308 Si / 1000 Ang^3
#
#
#
# Elastic Constant Matrix: (Units=GPa)
#
#
# Indices 1 2 3 4 5 6 
#
# 1 56.4956 31.4482 60.8710 0.0000 0.0000 0.0000
# 2 31.4482 56.4969 60.8712 0.0000 0.0000 0.0000
# 3 60.8710 60.8712 193.4773 0.0000 0.0000 0.0000
# 4 0.0000 0.0000 0.0000 5.2444 0.0000 0.0000
# 5 0.0000 0.0000 0.0000 0.0000 5.2233 0.0000
# 6 0.0000 0.0000 0.0000 0.0000 0.0000 17.1708
#
#
#
# Elastic Compliance Matrix: (Units=1/GPa)
#
#
# Indices 1 2 3 4 5 6 
#
# 1 0.030034 -0.009890 -0.006338 0.000000 0.000000 0.000000
# 2 -0.009890 0.030033 -0.006338 0.000000 0.000000 0.000000
# 3 -0.006338 -0.006338 0.009156 0.000000 0.000000 0.000000
# 4 0.000000 0.000000 0.000000 0.190678 0.000000 0.000000
# 5 0.000000 0.000000 0.000000 0.000000 0.191448 0.000000
# 6 0.000000 0.000000 0.000000 0.000000 0.000000 0.058238
#
#
# Mechanical properties :
#
#
# Convention : Reuss Voigt Hill
#
# Bulk Modulus (GPa) = 41.50416 68.09451 54.79933
# Shear Modulus (GPa) = 8.88494 15.74634 12.31564
#
# Velocity S-wave (km/s) = 2.11885 2.82074 2.49461
# Velocity P-wave (km/s) = 5.19211 6.70945 5.99894
#
# Compressibility (1/GPa) = 0.02409397
#
# Stress axis : x y z
#
# Youngs Moduli (GPa) = 33.29545 33.29650 109.21288
#
# Poissons Ratio (x) = 0.32929 0.69217
# Poissons Ratio (y) = 0.32928 0.69214
# Poissons Ratio (z) = 0.21102 0.21102
#
# Static dielectric constant tensor:
#      x y z
#    x 1.732440 0.000000 0.000000 
#    y 0.000000 1.732430 0.000000 
#    z 0.000000 0.000000 1.681350 
# 
# From -- ./inp_files/7962.got.cif
#   From: 2010.05.17/outbox.cif.g08.bks.cpg/sg138_4_cif.got.tgz:7962.got - 2010.05.20 13:08:53.
