data_PCOD9570610
_publ_section_title
;
Structure prediction by ZEFSAII (Michael W. Deem and Ramdas Pophale) SiO2 
 PCOD9570610
Probable space group: P 42/N C M
;
_chemical_formula_sum "Si O2"
_cell_formula_units_Z 128
_cell_length_a 19.808614
_cell_length_b 19.808614
_cell_length_c 15.462568
_cell_angle_alpha 90.000000
_cell_angle_beta 90.000000
_cell_angle_gamma 90.000000
_cell_volume 6067.220811
_symmetry_space_group_name_H-M "P 42/N C M"
_symmetry_group_IT_number 138
_space_group.IT_coordinate_system_code '2'
_symmetry_cell_setting 'tetragonal'
loop_
_space_group_symop_operation_xyz
x,y,z
1/2-y,x,1/2+z
1/2-x,1/2-y,z
y,1/2-x,1/2+z
1/2+x,-y,1/2-z
-x,1/2+y,1/2-z
1/2+y,1/2+x,-z
-y,-x,-z
-x,-y,-z
1/2+y,-x,1/2-z
1/2+x,1/2+y,-z
-y,1/2+x,1/2-z
1/2-x,y,1/2+z
x,1/2-y,1/2+z
1/2-y,1/2-x,z
y,x,z
loop_
_atom_site_type_symbol
_atom_site_label
_atom_site_fract_x
_atom_site_fract_y
_atom_site_fract_z
Si Si1 0.956895 0.287172 0.342525
Si Si2 0.601732 0.002550 0.783063
Si Si3 0.705001 0.092940 0.007919
Si Si4 0.806426 0.582619 0.541497
Si Si5 0.483888 0.593357 0.935361
Si Si6 0.500914 0.324933 0.229056
Si Si7 0.097534 0.503719 0.891508
Si Si8 0.778409 0.965570 0.397655
O O1 0.955928 0.354777 0.286450
O O2 0.034896 0.287756 0.377469
O O3 0.909745 0.267178 0.423684
O O4 0.947384 0.226133 0.274874
O O5 0.550486 0.949515 0.740241
O O6 0.559109 0.051135 0.844741
O O7 0.651919 0.962599 0.847093
O O8 0.648943 0.042493 0.048359
O O9 0.664462 0.164462 0.000000
O O10 0.727788 0.045865 0.926763
O O11 0.847622 0.652378 0.557130
O O12 0.858185 0.534770 0.487641
O O13 0.740233 0.581002 0.479511
O O14 0.524192 0.524192 0.918139
O O15 0.469256 0.626228 0.843471
O O16 0.423343 0.576658 0.000000
O O17 0.470868 0.364548 0.309848
O O18 0.450972 0.278024 0.174791
O O19 0.050730 0.449271 0.937648
#
# Coordination Sequence:
#
# PCOD9570610 Si02
#       8
#    16  16  16  16  16  16  16  16
#     4   9  19  31  47  71 105 143 181 215 266 338
#     4  10  19  31  50  79 113 144 177 228 287 348
#     4  10  18  33  52  74 108 144 186 227 269 334
#     4   9  17  30  49  72 100 139 181 226 268 316
#     4   9  17  27  44  71 103 131 160 204 265 331
#     4   9  18  32  45  67 106 144 174 206 258 336
#     4  10  20  30  50  82 113 138 168 222 295 355
#     4   9  18  33  50  72 107 148 189 218 271 333
#
# _framework density 21.096973999999999
#
# number of rings (size 3 to 8) (size 9 to 14) (size 15 to 20)
#    0.000    2.625    1.250    0.750    1.750    1.250 
#    0.000    0.000    0.000    0.375    0.000    1.750 
#    0.000   42.000    0.000    0.000    0.000    0.000 
#
# Total GULP energy -712629.534725 kJ/mol
# GULP energy per Si atom -5567.418240 kJ/mol
# Density = 2.104896 g / cm^3
# Si number density = 21.096974 Si / 1000 Ang^3
#
#
#
# Elastic Constant Matrix: (Units=GPa)
#
#
# Indices 1 2 3 4 5 6 
#
# 1 56.0352 34.1813 14.9316 0.0000 0.0000 0.0000
# 2 34.1813 56.0334 14.9309 0.0000 0.0000 0.0000
# 3 14.9316 14.9309 75.2351 0.0000 0.0000 0.0000
# 4 0.0000 0.0000 0.0000 19.2903 0.0000 0.0000
# 5 0.0000 0.0000 0.0000 0.0000 19.2895 0.0000
# 6 0.0000 0.0000 0.0000 0.0000 0.0000 30.3402
#
#
#
# Elastic Compliance Matrix: (Units=1/GPa)
#
#
# Indices 1 2 3 4 5 6 
#
# 1 0.028812 -0.016948 -0.002355 0.000000 0.000000 0.000000
# 2 -0.016948 0.028813 -0.002354 0.000000 0.000000 0.000000
# 3 -0.002355 -0.002354 0.014226 0.000000 0.000000 0.000000
# 4 0.000000 0.000000 0.000000 0.051840 0.000000 0.000000
# 5 0.000000 0.000000 0.000000 0.000000 0.051842 0.000000
# 6 0.000000 0.000000 0.000000 0.000000 0.000000 0.032960
#
#
# Mechanical properties :
#
#
# Convention : Reuss Voigt Hill
#
# Bulk Modulus (GPa) = 35.04348 35.04348 35.04348
# Shear Modulus (GPa) = 19.13378 22.00132 20.56755
#
# Velocity S-wave (km/s) = 3.01482 3.23285 3.12573
# Velocity P-wave (km/s) = 5.36335 5.53008 5.44736
#
# Compressibility (1/GPa) = 0.02853598
#
# Stress axis : x y z
#
# Youngs Moduli (GPa) = 34.70807 34.70710 70.29271
#
# Poissons Ratio (x) = 0.58822 0.16552
# Poissons Ratio (y) = 0.58824 0.16550
# Poissons Ratio (z) = 0.08173 0.08171
#
# Static dielectric constant tensor:
#      x y z
#    x 1.795170 0.000000 0.000000 
#    y 0.000000 1.795170 0.000000 
#    z 0.000000 0.000000 1.834320 
# 
# From -- ./inp_files/5497.got.cif
#   From: 2010.05.17/outbox.cif.g08.bks.cpg/sg138_3_cif.got.tgz:5497.got - 2010.05.20 13:08:53.
