data_PCOD9570776
_publ_section_title
;
Structure prediction by ZEFSAII (Michael W. Deem and Ramdas Pophale) SiO2 
 PCOD9570776
Probable space group: P 42/N C M
;
_chemical_formula_sum "Si O2"
_cell_formula_units_Z 64
_cell_length_a 18.921892
_cell_length_b 18.921892
_cell_length_c 8.017994
_cell_angle_alpha 90.000000
_cell_angle_beta 90.000000
_cell_angle_gamma 90.000000
_cell_volume 2870.746511
_symmetry_space_group_name_H-M "P 42/N C M"
_symmetry_group_IT_number 138
_space_group.IT_coordinate_system_code '2'
_symmetry_cell_setting 'tetragonal'
loop_
_space_group_symop_operation_xyz
x,y,z
1/2-y,x,1/2+z
1/2-x,1/2-y,z
y,1/2-x,1/2+z
1/2+x,-y,1/2-z
-x,1/2+y,1/2-z
1/2+y,1/2+x,-z
-y,-x,-z
-x,-y,-z
1/2+y,-x,1/2-z
1/2+x,1/2+y,-z
-y,1/2+x,1/2-z
1/2-x,y,1/2+z
x,1/2-y,1/2+z
1/2-y,1/2-x,z
y,x,z
loop_
_atom_site_type_symbol
_atom_site_label
_atom_site_fract_x
_atom_site_fract_y
_atom_site_fract_z
Si Si1 0.344389 0.947522 0.065132
Si Si2 0.408906 0.299957 0.697306
Si Si3 0.545972 0.655092 0.930003
Si Si4 0.698265 0.096964 0.563588
O O1 0.327583 0.918319 0.250039
O O2 0.335291 0.031575 0.079114
O O3 0.418089 0.918089 0.000000
O O4 0.281366 0.917056 0.950814
O O5 0.332482 0.332482 0.658265
O O6 0.420213 0.216504 0.682252
O O7 0.429330 0.323176 0.883672
O O8 0.579427 0.579427 0.889839
O O9 0.461770 0.661924 0.941577
O O10 0.672476 0.172476 0.500000
#
# Coordination Sequence:
#
# PCOD9570776 Si02
#       4
#    16  16  16  16
#     4  10  20  35  54  76 103 134 169 209 253 301
#     4   9  19  35  53  75 104 136 170 209 252 299
#     4   9  19  35  53  75 104 136 170 209 252 299
#     4  10  20  35  54  76 103 134 169 209 253 301
#
# _framework density 22.293855000000001
#
# number of rings (size 3 to 8) (size 9 to 14) (size 15 to 20)
#    0.000    2.500    0.000    1.500    0.000    5.000 
#    0.000    5.000    0.000    0.000    0.000    0.000 
#    0.000    0.000    0.000    0.000    0.000    0.000 
#
# Total GULP energy -357484.827813 kJ/mol
# GULP energy per Si atom -5585.700435 kJ/mol
# Density = 2.224311 g / cm^3
# Si number density = 22.293855 Si / 1000 Ang^3
#
#
#
# Elastic Constant Matrix: (Units=GPa)
#
#
# Indices 1 2 3 4 5 6 
#
# 1 14.6719 16.4952 8.3931 0.0000 0.0000 0.0000
# 2 16.4952 14.6719 8.3931 0.0000 0.0000 0.0000
# 3 8.3931 8.3931 53.0345 0.0000 0.0000 0.0000
# 4 0.0000 0.0000 0.0000 12.8427 0.0000 0.0000
# 5 0.0000 0.0000 0.0000 0.0000 12.8427 0.0000
# 6 0.0000 0.0000 0.0000 0.0000 0.0000 36.0863
#
#
#
# Elastic Compliance Matrix: (Units=1/GPa)
#
#
# Indices 1 2 3 4 5 6 
#
# 1 -0.256687 0.291762 -0.005551 0.000000 0.000000 0.000000
# 2 0.291762 -0.256687 -0.005551 0.000000 0.000000 0.000000
# 3 -0.005551 -0.005551 0.020613 0.000000 0.000000 0.000000
# 4 0.000000 0.000000 0.000000 0.077865 0.000000 0.000000
# 5 0.000000 0.000000 0.000000 0.000000 0.077865 0.000000
# 6 0.000000 0.000000 0.000000 0.000000 0.000000 0.027711
#
#
# Mechanical properties :
#
#
# Convention : Reuss Voigt Hill
#
# Bulk Modulus (GPa) = 14.58604 16.54902 15.56753
# Shear Modulus (GPa) = -5.89770 15.62746 4.86488
#
# Velocity S-wave (km/s) = -1.62824 2.65047 1.47882
# Velocity P-wave (km/s) = 1.73837 4.09950 3.14864
#
# Compressibility (1/GPa) = 0.06855869
#
# Stress axis : x y z
#
# Youngs Moduli (GPa) = -3.89579 -3.89579 48.51399
#
# Poissons Ratio (x) = 1.13664 0.26930
# Poissons Ratio (y) = 1.13664 0.26930
# Poissons Ratio (z) = -0.02163 -0.02163
#
# Static dielectric constant tensor:
#      x y z
#    x 1.814370 0.000000 0.000000 
#    y 0.000000 1.814370 0.000000 
#    z 0.000000 0.000000 1.843740 
# 
# From -- ./inp_files/1418.got.cif
#   From: 2010.05.17/outbox.cif.g08.bks.cpg/sg138_1_cif.got.tgz:1418.got - 2010.05.20 13:08:53.
