data_PCOD9570009
_publ_section_title
;
Structure prediction by ZEFSAII (Michael W. Deem and Ramdas Pophale) SiO2 
 PCOD9570009
Probable space group: P 42/N M C
;
_chemical_formula_sum "Si O2"
_cell_formula_units_Z 80
_cell_length_a 14.318193
_cell_length_b 14.318193
_cell_length_c 19.207786
_cell_angle_alpha 90.000000
_cell_angle_beta 90.000000
_cell_angle_gamma 90.000000
_cell_volume 3937.800708
_symmetry_space_group_name_H-M "P 42/N M C"
_symmetry_group_IT_number 137
_space_group.IT_coordinate_system_code '2'
_symmetry_cell_setting 'tetragonal'
loop_
_space_group_symop_operation_xyz
x,y,z
1/2-y,x,1/2+z
1/2-x,1/2-y,z
y,1/2-x,1/2+z
1/2+x,-y,-z
-x,1/2+y,-z
1/2+y,1/2+x,1/2-z
-y,-x,1/2-z
-x,-y,-z
1/2+y,-x,1/2-z
1/2+x,1/2+y,-z
-y,1/2+x,1/2-z
1/2-x,y,z
x,1/2-y,z
1/2-y,1/2-x,1/2+z
y,x,1/2+z
loop_
_atom_site_type_symbol
_atom_site_label
_atom_site_fract_x
_atom_site_fract_y
_atom_site_fract_z
Si Si1 0.387903 0.357356 0.484253
Si Si2 0.048322 0.141505 0.135979
Si Si3 0.143645 0.601384 0.933788
Si Si4 0.846865 0.445288 0.576447
Si Si5 0.638133 0.028047 0.808416
O O1 0.353501 0.250000 0.477562
O O2 0.372945 0.394015 0.563244
O O3 0.495135 0.354340 0.460498
O O4 0.350975 0.443967 0.437976
O O5 0.052604 0.250000 0.153727
O O6 0.939785 0.114637 0.121629
O O7 0.096661 0.076201 0.193240
O O8 0.250000 0.627992 0.913997
O O9 0.106074 0.653358 0.002318
O O10 0.750000 0.423515 0.614364
O O11 0.931105 0.404059 0.619968
O O12 0.593188 0.093188 0.750000
O O13 0.750000 0.028939 0.808546
#
# Coordination Sequence:
#
# PCOD9570009 Si02
#       5
#    16  16  16  16  16
#     4  10  18  33  59  91 128 163 191 234 301 363
#     4  11  22  39  63  90 123 161 203 247 299 363
#     4  10  18  33  60  93 129 161 190 236 299 362
#     4  11  21  35  57  87 122 156 196 244 295 354
#     4  12  26  45  63  83 114 153 204 254 299 351
#
# _framework density 20.315908
#
# number of rings (size 3 to 8) (size 9 to 14) (size 15 to 20)
#    0.000    1.200    4.000    5.400    0.000    6.600 
#    0.000    2.000    0.000    2.400    0.000    0.000 
#    0.000    0.000    0.000    0.000    0.000    0.000 
#
# Total GULP energy -446203.584180 kJ/mol
# GULP energy per Si atom -5577.544802 kJ/mol
# Density = 2.026967 g / cm^3
# Si number density = 20.315908 Si / 1000 Ang^3
#
#
#
# Elastic Constant Matrix: (Units=GPa)
#
#
# Indices 1 2 3 4 5 6 
#
# 1 186.7674 57.7477 20.8292 0.0000 0.0000 0.0000
# 2 57.7477 186.7674 20.8292 0.0000 0.0000 0.0000
# 3 20.8292 20.8292 26.3367 0.0000 0.0000 0.0000
# 4 0.0000 0.0000 0.0000 19.2273 0.0000 0.0000
# 5 0.0000 0.0000 0.0000 0.0000 19.2273 0.0000
# 6 0.0000 0.0000 0.0000 0.0000 0.0000 -52.1326
#
#
#
# Elastic Compliance Matrix: (Units=1/GPa)
#
#
# Indices 1 2 3 4 5 6 
#
# 1 0.006239 -0.001512 -0.003738 0.000000 0.000000 0.000000
# 2 -0.001512 0.006239 -0.003738 0.000000 0.000000 0.000000
# 3 -0.003738 -0.003738 0.043883 0.000000 0.000000 0.000000
# 4 0.000000 0.000000 0.000000 0.052009 0.000000 0.000000
# 5 0.000000 0.000000 0.000000 0.000000 0.052009 0.000000
# 6 0.000000 0.000000 0.000000 0.000000 0.000000 -0.019182
#
#
# Mechanical properties :
#
#
# Convention : Reuss Voigt Hill
#
# Bulk Modulus (GPa) = 26.05302 66.52042 46.28672
# Shear Modulus (GPa) = 29.07510 17.29542 23.18526
#
# Velocity S-wave (km/s) = 3.78716 2.92091 3.38188
# Velocity P-wave (km/s) = 5.65466 6.64754 6.17110
#
# Compressibility (1/GPa) = 0.03838326
#
# Stress axis : x y z
#
# Youngs Moduli (GPa) = 160.29030 160.29030 22.78798
#
# Poissons Ratio (x) = 0.24237 0.08519
# Poissons Ratio (y) = 0.24237 0.08519
# Poissons Ratio (z) = 0.59919 0.59919
#
# Static dielectric constant tensor:
#      x y z
#    x 1.592430 0.000000 0.000000 
#    y 0.000000 1.592430 0.000000 
#    z 0.000000 0.000000 1.722300 
# 
# From -- ./inp_files/7610.got.cif
#   From: 2010.05.17/outbox.cif.g08.bks.cpg/sg137_4_cif.got.tgz:7610.got - 2010.05.20 13:01:12.
