data_PCOD9570571
_publ_section_title
;
Structure prediction by ZEFSAII (Michael W. Deem and Ramdas Pophale) SiO2 
 PCOD9570571
Probable space group: P 42/N C M
;
_chemical_formula_sum "Si O2"
_cell_formula_units_Z 80
_cell_length_a 24.185497
_cell_length_b 24.185497
_cell_length_c 5.772673
_cell_angle_alpha 90.000000
_cell_angle_beta 90.000000
_cell_angle_gamma 90.000000
_cell_volume 3376.657330
_symmetry_space_group_name_H-M "P 42/N C M"
_symmetry_group_IT_number 138
_space_group.IT_coordinate_system_code '2'
_symmetry_cell_setting 'tetragonal'
loop_
_space_group_symop_operation_xyz
x,y,z
1/2-y,x,1/2+z
1/2-x,1/2-y,z
y,1/2-x,1/2+z
1/2+x,-y,1/2-z
-x,1/2+y,1/2-z
1/2+y,1/2+x,-z
-y,-x,-z
-x,-y,-z
1/2+y,-x,1/2-z
1/2+x,1/2+y,-z
-y,1/2+x,1/2-z
1/2-x,y,1/2+z
x,1/2-y,1/2+z
1/2-y,1/2-x,z
y,x,z
loop_
_atom_site_type_symbol
_atom_site_label
_atom_site_fract_x
_atom_site_fract_y
_atom_site_fract_z
Si Si1 0.592094 0.728564 0.635491
Si Si2 0.881206 0.968450 0.513256
Si Si3 0.067149 0.871390 0.794835
Si Si4 0.633890 0.233303 0.815578
Si Si5 0.018631 0.702263 0.650279
O O1 0.617498 0.750407 0.385130
O O2 0.575665 0.663601 0.622495
O O3 0.532489 0.757801 0.632708
O O4 0.930623 0.930623 0.422246
O O5 0.844532 0.001670 0.329001
O O6 0.904724 0.021162 0.654809
O O7 0.114003 0.830861 0.687081
O O8 0.094978 0.905023 0.000000
O O9 0.026650 0.826858 0.908324
O O10 0.660202 0.248981 0.563821
O O11 0.577235 0.269767 0.799606
#
# Coordination Sequence:
#
# PCOD9570571 Si02
#       5
#    16  16  16  16  16
#     4  10  17  34  59  77  97 137 179 231 280 300
#     4  11  21  34  51  78 109 148 187 219 265 328
#     4  11  21  34  51  77 108 147 185 224 268 325
#     4  10  17  34  59  76  97 137 178 231 280 302
#     4  10  18  36  56  71 101 144 180 235 276 308
#
# _framework density 23.692069
#
# number of rings (size 3 to 8) (size 9 to 14) (size 15 to 20)
#    0.000    1.600    6.000    2.400    0.000    2.000 
#    0.000    1.000    0.000    0.000    0.000    0.000 
#    0.000   76.800    0.000    0.000    0.000    0.000 
#
# Total GULP energy -445526.169309 kJ/mol
# GULP energy per Si atom -5569.077116 kJ/mol
# Density = 2.363815 g / cm^3
# Si number density = 23.692069 Si / 1000 Ang^3
#
#
#
# Elastic Constant Matrix: (Units=GPa)
#
#
# Indices 1 2 3 4 5 6 
#
# 1 -32.4289 81.6369 14.3115 0.0000 0.0000 0.0000
# 2 81.6369 -32.4243 14.3168 0.0000 0.0000 0.0000
# 3 14.3115 14.3168 148.3016 0.0000 0.0000 0.0000
# 4 0.0000 0.0000 0.0000 1.3815 0.0000 0.0000
# 5 0.0000 0.0000 0.0000 0.0000 1.3812 0.0000
# 6 0.0000 0.0000 0.0000 0.0000 0.0000 33.6373
#
#
#
# Elastic Compliance Matrix: (Units=1/GPa)
#
#
# Indices 1 2 3 4 5 6 
#
# 1 0.006381 0.015148 -0.002078 0.000000 0.000000 0.000000
# 2 0.015148 0.006382 -0.002078 0.000000 0.000000 0.000000
# 3 -0.002078 -0.002078 0.007144 0.000000 0.000000 0.000000
# 4 0.000000 0.000000 0.000000 0.723871 0.000000 0.000000
# 5 0.000000 0.000000 0.000000 0.000000 0.724022 0.000000
# 6 0.000000 0.000000 0.000000 0.000000 0.000000 0.029729
#
#
# Mechanical properties :
#
#
# Convention : Reuss Voigt Hill
#
# Bulk Modulus (GPa) = 23.87112 33.77542 28.82327
# Shear Modulus (GPa) = 3.35681 5.49221 4.42451
#
# Velocity S-wave (km/s) = 1.19161 1.52420 1.36805
# Velocity P-wave (km/s) = 3.46276 4.16948 3.83244
#
# Compressibility (1/GPa) = 0.04189163
#
# Stress axis : x y z
#
# Youngs Moduli (GPa) = 156.71347 156.69663 139.97431
#
# Poissons Ratio (x) = -2.37371 0.29089
# Poissons Ratio (y) = -2.37397 0.29086
# Poissons Ratio (z) = 0.32568 0.32561
#
# Static dielectric constant tensor:
#      x y z
#    x 1.927420 0.000000 0.000000 
#    y 0.000000 1.927420 0.000000 
#    z 0.000000 0.000000 2.272840 
# 
# From -- ./inp_files/457.got.cif
#   From: 2010.05.17/outbox.cif.g08.bks.cpg/sg138_1_cif.got.tgz:457.got - 2010.05.20 13:08:53.
