data_PCOD9570485
_publ_section_title
;
Structure prediction by ZEFSAII (Michael W. Deem and Ramdas Pophale) SiO2 
 PCOD9570485
Probable space group: P 42/N M C
;
_chemical_formula_sum "Si O2"
_cell_formula_units_Z 96
_cell_length_a 15.696839
_cell_length_b 15.696839
_cell_length_c 19.749606
_cell_angle_alpha 90.000000
_cell_angle_beta 90.000000
_cell_angle_gamma 90.000000
_cell_volume 4866.120325
_symmetry_space_group_name_H-M "P 42/N M C"
_symmetry_group_IT_number 137
_space_group.IT_coordinate_system_code '2'
_symmetry_cell_setting 'tetragonal'
loop_
_space_group_symop_operation_xyz
x,y,z
1/2-y,x,1/2+z
1/2-x,1/2-y,z
y,1/2-x,1/2+z
1/2+x,-y,-z
-x,1/2+y,-z
1/2+y,1/2+x,1/2-z
-y,-x,1/2-z
-x,-y,-z
1/2+y,-x,1/2-z
1/2+x,1/2+y,-z
-y,1/2+x,1/2-z
1/2-x,y,z
x,1/2-y,z
1/2-y,1/2-x,1/2+z
y,x,1/2+z
loop_
_atom_site_type_symbol
_atom_site_label
_atom_site_fract_x
_atom_site_fract_y
_atom_site_fract_z
Si Si1 0.345484 0.412900 0.581585
Si Si2 0.888183 0.153609 0.122123
Si Si3 0.156221 0.353960 0.216102
Si Si4 0.843438 0.351607 0.965410
Si Si5 0.022979 0.149883 0.330701
Si Si6 0.076824 0.475306 0.450735
O O1 0.250000 0.380463 0.581283
O O2 0.347441 0.509923 0.609945
O O3 0.390343 0.359187 0.640476
O O4 0.369181 0.419346 0.503453
O O5 0.864150 0.250000 0.141385
O O6 0.860066 0.079080 0.172004
O O7 0.851199 0.134421 0.046847
O O8 0.250000 0.379808 0.241375
O O9 0.155984 0.250000 0.214123
O O10 0.077414 0.374738 0.264776
O O11 0.750000 0.384996 0.943497
O O12 0.843493 0.250000 0.956215
O O13 0.931797 0.384679 0.933222
O O14 0.041015 0.250000 0.345975
O O15 0.050941 0.083914 0.388978
O O16 0.000000 0.500000 0.500000
#
# Coordination Sequence:
#
# PCOD9570485 Si02
#       6
#    16  16  16  16  16  16
#     4   9  18  35  57  77 103 145 194 237 281 342
#     4   9  17  31  52  79 107 143 189 237 290 345
#     4   9  20  38  56  76 108 153 196 233 283 346
#     4   9  17  31  52  75 106 148 188 231 289 354
#     4  11  22  35  55  84 120 155 191 240 299 355
#     4  11  20  32  51  85 116 145 182 241 295 346
#
# _framework density 19.728241000000001
#
# number of rings (size 3 to 8) (size 9 to 14) (size 15 to 20)
#    0.000    2.333    3.333    2.000    0.000    3.667 
#    0.000    0.000    0.000    4.000    0.000   18.667 
#    0.000    0.000    0.000    5.667    0.000    0.000 
#
# Total GULP energy -534438.153909 kJ/mol
# GULP energy per Si atom -5567.064103 kJ/mol
# Density = 1.968334 g / cm^3
# Si number density = 19.728241 Si / 1000 Ang^3
#
#
#
# Elastic Constant Matrix: (Units=GPa)
#
#
# Indices 1 2 3 4 5 6 
#
# 1 76.5094 17.5845 31.3320 0.0000 0.0000 0.0000
# 2 17.5845 76.5094 31.3320 0.0000 0.0000 0.0000
# 3 31.3320 31.3320 62.4946 0.0000 0.0000 0.0000
# 4 0.0000 0.0000 0.0000 4.7114 0.0000 0.0000
# 5 0.0000 0.0000 0.0000 0.0000 4.7114 0.0000
# 6 0.0000 0.0000 0.0000 0.0000 0.0000 18.1293
#
#
#
# Elastic Compliance Matrix: (Units=1/GPa)
#
#
# Indices 1 2 3 4 5 6 
#
# 1 0.016463 -0.000508 -0.007999 0.000000 0.000000 0.000000
# 2 -0.000508 0.016463 -0.007999 0.000000 0.000000 0.000000
# 3 -0.007999 -0.007999 0.024022 0.000000 0.000000 0.000000
# 4 0.000000 0.000000 0.000000 0.212252 0.000000 0.000000
# 5 0.000000 0.000000 0.000000 0.000000 0.212252 0.000000
# 6 0.000000 0.000000 0.000000 0.000000 0.000000 0.055159
#
#
# Mechanical properties :
#
#
# Convention : Reuss Voigt Hill
#
# Bulk Modulus (GPa) = 41.77878 41.77895 41.77886
# Shear Modulus (GPa) = 8.65649 14.52808 11.59229
#
# Velocity S-wave (km/s) = 2.09700 2.71663 2.42667
# Velocity P-wave (km/s) = 5.20445 5.57345 5.39211
#
# Compressibility (1/GPa) = 0.02393560
#
# Stress axis : x y z
#
# Youngs Moduli (GPa) = 60.74305 60.74305 41.62835
#
# Poissons Ratio (x) = 0.03086 0.33299
# Poissons Ratio (y) = 0.03086 0.33299
# Poissons Ratio (z) = 0.48589 0.48589
#
# Static dielectric constant tensor:
#      x y z
#    x 1.849980 0.000000 0.000000 
#    y 0.000000 1.849980 0.000000 
#    z 0.000000 0.000000 1.857270 
# 
# From -- ./inp_files/7858.got.cif
#   From: 2010.05.17/outbox.cif.g08.bks.cpg/sg137_4_cif.got.tgz:7858.got - 2010.05.20 13:01:12.
