data_PCOD9570047
_publ_section_title
;
Structure prediction by ZEFSAII (Michael W. Deem and Ramdas Pophale) SiO2 
 PCOD9570047
Probable space group: P 42/N M C
;
_chemical_formula_sum "Si O2"
_cell_formula_units_Z 112
_cell_length_a 14.477303
_cell_length_b 14.477303
_cell_length_c 26.696595
_cell_angle_alpha 90.000000
_cell_angle_beta 90.000000
_cell_angle_gamma 90.000000
_cell_volume 5595.400806
_symmetry_space_group_name_H-M "P 42/N M C"
_symmetry_group_IT_number 137
_space_group.IT_coordinate_system_code '2'
_symmetry_cell_setting 'tetragonal'
loop_
_space_group_symop_operation_xyz
x,y,z
1/2-y,x,1/2+z
1/2-x,1/2-y,z
y,1/2-x,1/2+z
1/2+x,-y,-z
-x,1/2+y,-z
1/2+y,1/2+x,1/2-z
-y,-x,1/2-z
-x,-y,-z
1/2+y,-x,1/2-z
1/2+x,1/2+y,-z
-y,1/2+x,1/2-z
1/2-x,y,z
x,1/2-y,z
1/2-y,1/2-x,1/2+z
y,x,1/2+z
loop_
_atom_site_type_symbol
_atom_site_label
_atom_site_fract_x
_atom_site_fract_y
_atom_site_fract_z
Si Si1 0.448334 0.640869 0.904219
Si Si2 0.029431 0.360669 0.867964
Si Si3 0.862753 0.144896 0.693610
Si Si4 0.142153 0.151227 0.551430
Si Si5 0.967394 0.139086 0.208357
Si Si6 0.977673 0.586582 0.535472
Si Si7 0.145717 0.361433 0.266001
O O1 0.428768 0.750000 0.909354
O O2 0.557310 0.626681 0.917528
O O3 0.438371 0.609775 0.846961
O O4 0.388112 0.576268 0.940382
O O5 0.028580 0.250000 0.877283
O O6 0.059051 0.413976 0.917513
O O7 0.096528 0.376597 0.820416
O O8 0.928437 0.390667 0.848156
O O9 0.887144 0.112857 0.750000
O O10 0.750000 0.146163 0.693926
O O11 0.893988 0.250000 0.685251
O O12 0.250000 0.146864 0.536334
O O13 0.128363 0.250000 0.578393
O O14 0.078788 0.150175 0.502233
O O15 0.899590 0.100411 0.250000
O O16 0.966429 0.250000 0.208061
O O17 0.070156 0.109899 0.225207
O O18 0.000000 0.500000 0.500000
O O19 0.250000 0.391121 0.253164
O O20 0.144302 0.250000 0.269322
#
# Coordination Sequence:
#
# PCOD9570047 Si02
#       7
#    16  16  16  16  16  16  16
#     4   9  19  35  54  76 103 140 181 218 263 315
#     4  10  19  31  50  75 102 135 172 212 265 322
#     4   8  15  29  48  72 104 138 170 204 244 299
#     4   9  18  34  57  83 107 132 168 218 277 336
#     4  10  20  35  56  80 110 148 186 224 263 308
#     4  10  20  34  51  72  99 132 170 216 261 309
#     4   9  19  34  52  78 108 135 168 213 266 323
#
# _framework density 20.016438000000001
#
# number of rings (size 3 to 8) (size 9 to 14) (size 15 to 20)
#    0.000    2.714    0.000    1.714    0.000    3.571 
#    0.000    7.857    0.000    1.286    0.000    0.000 
#    0.000    0.000    0.000    0.000    0.000    0.000 
#
# Total GULP energy -624630.775141 kJ/mol
# GULP energy per Si atom -5577.060492 kJ/mol
# Density = 1.997088 g / cm^3
# Si number density = 20.016438 Si / 1000 Ang^3
#
#
#
# Elastic Constant Matrix: (Units=GPa)
#
#
# Indices 1 2 3 4 5 6 
#
# 1 34.1441 -1.7560 1.3222 0.0000 0.0000 0.0000
# 2 -1.7560 34.1394 1.3216 0.0000 0.0000 0.0000
# 3 1.3222 1.3216 61.4072 0.0000 0.0000 0.0000
# 4 0.0000 0.0000 0.0000 18.6655 0.0000 0.0000
# 5 0.0000 0.0000 0.0000 0.0000 18.6656 0.0000
# 6 0.0000 0.0000 0.0000 0.0000 0.0000 11.8430
#
#
#
# Elastic Compliance Matrix: (Units=1/GPa)
#
#
# Indices 1 2 3 4 5 6 
#
# 1 0.029393 0.001538 -0.000666 0.000000 0.000000 0.000000
# 2 0.001538 0.029397 -0.000666 0.000000 0.000000 0.000000
# 3 -0.000666 -0.000666 0.016313 0.000000 0.000000 0.000000
# 4 0.000000 0.000000 0.000000 0.053575 0.000000 0.000000
# 5 0.000000 0.000000 0.000000 0.000000 0.053574 0.000000
# 6 0.000000 0.000000 0.000000 0.000000 0.000000 0.084438
#
#
# Mechanical properties :
#
#
# Convention : Reuss Voigt Hill
#
# Bulk Modulus (GPa) = 13.24252 14.60735 13.92494
# Shear Modulus (GPa) = 17.15565 18.42168 17.78866
#
# Velocity S-wave (km/s) = 2.93077 3.03698 2.98435
# Velocity P-wave (km/s) = 4.25238 4.42845 4.34131
#
# Compressibility (1/GPa) = 0.07551432
#
# Stress axis : x y z
#
# Youngs Moduli (GPa) = 34.02223 34.01759 61.29927
#
# Poissons Ratio (x) = -0.05231 0.04082
# Poissons Ratio (y) = -0.05231 0.04081
# Poissons Ratio (z) = 0.02266 0.02265
#
# Static dielectric constant tensor:
#      x y z
#    x 1.766990 0.000000 0.000000 
#    y 0.000000 1.766980 0.000000 
#    z 0.000000 0.000000 1.672340 
# 
# From -- ./inp_files/9761.got.cif
#   From: 2010.05.17/outbox.cif.g08.bks.cpg/sg137_5_cif.got.tgz:9761.got - 2010.05.20 13:01:12.
