data_PCOD9570774
_publ_section_title
;
Structure prediction by ZEFSAII (Michael W. Deem and Ramdas Pophale) SiO2 
 PCOD9570774
Probable space group: P 42/N C M
;
_chemical_formula_sum "Si O2"
_cell_formula_units_Z 80
_cell_length_a 10.934600
_cell_length_b 10.934600
_cell_length_c 32.238899
_cell_angle_alpha 90.000000
_cell_angle_beta 90.000000
_cell_angle_gamma 90.000000
_cell_volume 3854.659342
_symmetry_space_group_name_H-M "P 42/N C M"
_symmetry_group_IT_number 138
_space_group.IT_coordinate_system_code '2'
_symmetry_cell_setting 'tetragonal'
loop_
_space_group_symop_operation_xyz
x,y,z
1/2-y,x,1/2+z
1/2-x,1/2-y,z
y,1/2-x,1/2+z
1/2+x,-y,1/2-z
-x,1/2+y,1/2-z
1/2+y,1/2+x,-z
-y,-x,-z
-x,-y,-z
1/2+y,-x,1/2-z
1/2+x,1/2+y,-z
-y,1/2+x,1/2-z
1/2-x,y,1/2+z
x,1/2-y,1/2+z
1/2-y,1/2-x,z
y,x,z
loop_
_atom_site_type_symbol
_atom_site_label
_atom_site_fract_x
_atom_site_fract_y
_atom_site_fract_z
Si Si1 0.745741 0.397080 0.932600
Si Si2 0.396996 0.910035 0.856376
Si Si3 0.371312 0.914287 0.237649
Si Si4 0.247729 0.449577 0.487038
Si Si5 0.174905 0.986486 0.898708
O O1 0.750000 0.250000 0.934350
O O2 0.835622 0.441635 0.896561
O O3 0.761844 0.449399 0.978101
O O4 0.610384 0.421822 0.915845
O O5 0.427387 0.855247 0.812051
O O6 0.457006 0.042995 0.857844
O O7 0.252458 0.925090 0.862756
O O8 0.418481 0.771460 0.245256
O O9 0.477074 0.022927 0.248899
O O10 0.116079 0.383922 0.490297
O O11 0.349037 0.349037 0.495804
O O12 0.258807 0.488072 0.439184
O O13 0.110280 0.110280 0.885904
#
# Coordination Sequence:
#
# PCOD9570774 Si02
#       5
#    16  16  16  16  16
#     4  10  21  34  54  80 112 153 194 247 297 361
#     4  10  22  40  59  86 118 152 196 249 309 377
#     4  10  24  45  73 102 137 175 217 274 338 413
#     4  10  20  35  53  76 112 159 206 252 299 347
#     4  10  21  35  55  82 115 156 204 253 299 360
#
# _framework density 20.754104999999999
#
# number of rings (size 3 to 8) (size 9 to 14) (size 15 to 20)
#    0.000    2.000    0.000    2.400    8.400    9.600 
#    0.000    8.000    0.000    2.400    0.000    0.000 
#    0.000    0.000    0.000    0.000    0.000    0.000 
#
# Total GULP energy -445410.838167 kJ/mol
# GULP energy per Si atom -5567.635477 kJ/mol
# Density = 2.070687 g / cm^3
# Si number density = 20.754105 Si / 1000 Ang^3
#
#
#
# Elastic Constant Matrix: (Units=GPa)
#
#
# Indices 1 2 3 4 5 6 
#
# 1 66.4467 31.4160 10.7170 0.0000 0.0000 0.0000
# 2 31.4160 66.4467 10.7170 0.0000 0.0000 0.0000
# 3 10.7170 10.7170 48.3444 0.0000 0.0000 0.0000
# 4 0.0000 0.0000 0.0000 20.9685 0.0000 0.0000
# 5 0.0000 0.0000 0.0000 0.0000 20.9685 0.0000
# 6 0.0000 0.0000 0.0000 0.0000 0.0000 19.8253
#
#
#
# Elastic Compliance Matrix: (Units=1/GPa)
#
#
# Indices 1 2 3 4 5 6 
#
# 1 0.019643 -0.008903 -0.002381 0.000000 0.000000 0.000000
# 2 -0.008903 0.019643 -0.002381 0.000000 0.000000 0.000000
# 3 -0.002381 -0.002381 0.021740 0.000000 0.000000 0.000000
# 4 0.000000 0.000000 0.000000 0.047691 0.000000 0.000000
# 5 0.000000 0.000000 0.000000 0.000000 0.047691 0.000000
# 6 0.000000 0.000000 0.000000 0.000000 0.000000 0.050441
#
#
# Mechanical properties :
#
#
# Convention : Reuss Voigt Hill
#
# Bulk Modulus (GPa) = 29.67633 31.88200 30.77916
# Shear Modulus (GPa) = 20.37401 20.91164 20.64283
#
# Velocity S-wave (km/s) = 3.13659 3.17770 3.15721
# Velocity P-wave (km/s) = 5.23905 5.37204 5.30596
#
# Compressibility (1/GPa) = 0.03369689
#
# Stress axis : x y z
#
# Youngs Moduli (GPa) = 50.90833 50.90833 45.99718
#
# Poissons Ratio (x) = 0.45325 0.10951
# Poissons Ratio (y) = 0.45325 0.10951
# Poissons Ratio (z) = 0.12120 0.12120
#
# Static dielectric constant tensor:
#      x y z
#    x 1.820570 0.000000 0.000000 
#    y 0.000000 1.820570 0.000000 
#    z 0.000000 0.000000 1.732990 
# 
# From -- ./inp_files/7895.got.cif
#   From: 2010.05.17/outbox.cif.g08.bks.cpg/sg138_4_cif.got.tgz:7895.got - 2010.05.20 13:08:53.
