data_PCOD9570793
_publ_section_title
;
Structure prediction by ZEFSAII (Michael W. Deem and Ramdas Pophale) SiO2 
 PCOD9570793
Probable space group: P 42/N C M
;
_chemical_formula_sum "Si O2"
_cell_formula_units_Z 112
_cell_length_a 15.132049
_cell_length_b 15.132049
_cell_length_c 24.925273
_cell_angle_alpha 90.000000
_cell_angle_beta 90.000000
_cell_angle_gamma 90.000000
_cell_volume 5707.361767
_symmetry_space_group_name_H-M "P 42/N C M"
_symmetry_group_IT_number 138
_space_group.IT_coordinate_system_code '2'
_symmetry_cell_setting 'tetragonal'
loop_
_space_group_symop_operation_xyz
x,y,z
1/2-y,x,1/2+z
1/2-x,1/2-y,z
y,1/2-x,1/2+z
1/2+x,-y,1/2-z
-x,1/2+y,1/2-z
1/2+y,1/2+x,-z
-y,-x,-z
-x,-y,-z
1/2+y,-x,1/2-z
1/2+x,1/2+y,-z
-y,1/2+x,1/2-z
1/2-x,y,1/2+z
x,1/2-y,1/2+z
1/2-y,1/2-x,z
y,x,z
loop_
_atom_site_type_symbol
_atom_site_label
_atom_site_fract_x
_atom_site_fract_y
_atom_site_fract_z
Si Si1 0.874633 0.019692 0.333512
Si Si2 0.914136 0.443384 0.636764
Si Si3 0.949408 0.406354 0.938685
Si Si4 0.426053 0.704855 0.032500
Si Si5 0.159966 0.862575 0.757045
Si Si6 0.892215 0.748090 0.972900
Si Si7 0.798536 0.566341 0.353768
O O1 0.883608 0.051429 0.394909
O O2 0.894446 0.096671 0.291838
O O3 0.780510 0.976246 0.321582
O O4 0.945481 0.945481 0.325323
O O5 0.861623 0.446264 0.581174
O O6 0.856010 0.414422 0.687813
O O7 0.965125 0.534876 0.646690
O O8 0.989594 0.368176 0.632264
O O9 0.922394 0.302317 0.939696
O O10 0.045795 0.454206 0.925442
O O11 0.932418 0.432418 0.000000
O O12 0.342847 0.657154 0.000000
O O13 0.512225 0.723398 0.995294
O O14 0.260771 0.864143 0.737803
O O15 0.847705 0.652296 0.986141
O O16 0.821668 0.821668 0.991668
O O17 0.898090 0.756445 0.908864
O O18 0.854504 0.645496 0.327960
#
# Coordination Sequence:
#
# PCOD9570793 Si02
#       7
#    16  16  16  16  16  16  16
#     4  11  22  40  64  87 116 158 203 245 305 373
#     4  11  23  40  61  90 126 159 200 258 316 367
#     4  10  23  41  61  88 126 165 204 253 307 371
#     4  12  23  37  59  91 125 168 207 254 309 372
#     4  11  23  41  63  88 119 156 202 255 306 368
#     4  10  20  35  58  88 124 167 210 253 308 372
#     4  10  20  37  61  90 121 152 196 256 309 360
#
# _framework density 19.623778999999999
#
# number of rings (size 3 to 8) (size 9 to 14) (size 15 to 20)
#    0.000    1.286    2.857    3.429    0.000    2.857 
#    0.000    0.000    0.000    0.857    0.000    0.000 
#    0.000    0.000    0.000    0.000    0.000    0.000 
#
# Total GULP energy -623803.367477 kJ/mol
# GULP energy per Si atom -5569.672924 kJ/mol
# Density = 1.957911 g / cm^3
# Si number density = 19.623779 Si / 1000 Ang^3
#
#
#
# Elastic Constant Matrix: (Units=GPa)
#
#
# Indices 1 2 3 4 5 6 
#
# 1 77.9199 45.5799 2.2502 0.0000 0.0000 0.0000
# 2 45.5799 77.9192 2.2503 0.0000 0.0000 0.0000
# 3 2.2502 2.2503 48.6214 0.0000 0.0000 0.0000
# 4 0.0000 0.0000 0.0000 23.8304 0.0000 0.0000
# 5 0.0000 0.0000 0.0000 0.0000 23.8305 0.0000
# 6 0.0000 0.0000 0.0000 0.0000 0.0000 12.8396
#
#
#
# Elastic Compliance Matrix: (Units=1/GPa)
#
#
# Indices 1 2 3 4 5 6 
#
# 1 0.019516 -0.011405 -0.000375 0.000000 0.000000 0.000000
# 2 -0.011405 0.019516 -0.000375 0.000000 0.000000 0.000000
# 3 -0.000375 -0.000375 0.020602 0.000000 0.000000 0.000000
# 4 0.000000 0.000000 0.000000 0.041963 0.000000 0.000000
# 5 0.000000 0.000000 0.000000 0.000000 0.041963 0.000000
# 6 0.000000 0.000000 0.000000 0.000000 0.000000 0.077884
#
#
# Mechanical properties :
#
#
# Convention : Reuss Voigt Hill
#
# Bulk Modulus (GPa) = 28.31094 33.84684 31.07889
# Shear Modulus (GPa) = 19.41511 22.39209 20.90360
#
# Velocity S-wave (km/s) = 3.14883 3.38164 3.26731
# Velocity P-wave (km/s) = 5.26102 5.70374 5.48685
#
# Compressibility (1/GPa) = 0.03532203
#
# Stress axis : x y z
#
# Youngs Moduli (GPa) = 51.23932 51.23886 48.53941
#
# Poissons Ratio (x) = 0.58440 0.01822
# Poissons Ratio (y) = 0.58441 0.01822
# Poissons Ratio (z) = 0.01923 0.01924
#
# Static dielectric constant tensor:
#      x y z
#    x 1.736760 0.000000 0.000000 
#    y 0.000000 1.736760 0.000000 
#    z 0.000000 0.000000 1.710150 
# 
# From -- ./inp_files/7072.got.cif
#   From: 2010.05.17/outbox.cif.g08.bks.cpg/sg138_4_cif.got.tgz:7072.got - 2010.05.20 13:08:53.
