data_PCOD9570702
_publ_section_title
;
Structure prediction by ZEFSAII (Michael W. Deem and Ramdas Pophale) SiO2 
 PCOD9570702
Probable space group: P 42/N C M
;
_chemical_formula_sum "Si O2"
_cell_formula_units_Z 112
_cell_length_a 14.047536
_cell_length_b 14.047536
_cell_length_c 28.163262
_cell_angle_alpha 90.000000
_cell_angle_beta 90.000000
_cell_angle_gamma 90.000000
_cell_volume 5557.548519
_symmetry_space_group_name_H-M "P 42/N C M"
_symmetry_group_IT_number 138
_space_group.IT_coordinate_system_code '2'
_symmetry_cell_setting 'tetragonal'
loop_
_space_group_symop_operation_xyz
x,y,z
1/2-y,x,1/2+z
1/2-x,1/2-y,z
y,1/2-x,1/2+z
1/2+x,-y,1/2-z
-x,1/2+y,1/2-z
1/2+y,1/2+x,-z
-y,-x,-z
-x,-y,-z
1/2+y,-x,1/2-z
1/2+x,1/2+y,-z
-y,1/2+x,1/2-z
1/2-x,y,1/2+z
x,1/2-y,1/2+z
1/2-y,1/2-x,z
y,x,z
loop_
_atom_site_type_symbol
_atom_site_label
_atom_site_fract_x
_atom_site_fract_y
_atom_site_fract_z
Si Si1 0.202210 0.452180 0.765196
Si Si2 0.589257 0.750186 0.536041
Si Si3 0.678712 0.367044 0.775936
Si Si4 0.780457 0.392396 0.871246
Si Si5 0.902308 0.750688 0.333175
Si Si6 0.749208 0.396513 0.979972
Si Si7 0.497189 0.334157 0.367712
O O1 0.144512 0.355489 0.771125
O O2 0.135275 0.533310 0.740204
O O3 0.272228 0.429918 0.721719
O O4 0.224766 0.479931 0.819119
O O5 0.653699 0.846302 0.538562
O O6 0.664089 0.664089 0.527186
O O7 0.506150 0.752623 0.496474
O O8 0.536223 0.724469 0.585937
O O9 0.778097 0.373052 0.746490
O O10 0.711099 0.351988 0.829876
O O11 0.767070 0.504298 0.862895
O O12 0.748254 0.374574 0.924293
O O13 0.891178 0.362339 0.867308
O O14 0.853454 0.646547 0.335541
O O15 0.823731 0.823731 0.349440
O O16 0.843673 0.343673 0.000000
O O17 0.657887 0.342114 0.000000
O O18 0.429163 0.429163 0.366025
#
# Coordination Sequence:
#
# PCOD9570702 Si02
#       7
#    16  16  16  16  16  16  16
#     4   9  18  33  52  79 118 155 191 235 291 357
#     4  10  23  43  66  94 128 166 212 267 328 385
#     4  10  20  33  54  85 115 152 187 236 291 350
#     4  11  21  37  61  90 117 159 207 256 307 377
#     4   9  19  35  56  86 124 161 199 248 310 377
#     4  11  25  43  65  94 125 165 210 267 323 383
#     4  10  19  34  60  90 122 161 209 260 308 371
#
# _framework density 20.152771999999999
#
# number of rings (size 3 to 8) (size 9 to 14) (size 15 to 20)
#    0.000    2.000    2.857    0.429    0.000    6.286 
#    0.000    4.286    0.000    3.429    0.000    0.000 
#    0.000    0.000    0.000    0.000    0.000    0.000 
#
# Total GULP energy -623878.589628 kJ/mol
# GULP energy per Si atom -5570.344550 kJ/mol
# Density = 2.010690 g / cm^3
# Si number density = 20.152772 Si / 1000 Ang^3
#
#
#
# Elastic Constant Matrix: (Units=GPa)
#
#
# Indices 1 2 3 4 5 6 
#
# 1 65.8401 26.9200 14.9438 0.0000 0.0000 0.0000
# 2 26.9200 65.8377 14.9431 0.0000 0.0000 0.0000
# 3 14.9438 14.9431 134.3011 0.0000 0.0000 0.0000
# 4 0.0000 0.0000 0.0000 -238.0847 0.0000 0.0000
# 5 0.0000 0.0000 0.0000 0.0000 -238.2034 0.0000
# 6 0.0000 0.0000 0.0000 0.0000 0.0000 15.3060
#
#
#
# Elastic Compliance Matrix: (Units=1/GPa)
#
#
# Indices 1 2 3 4 5 6 
#
# 1 0.018438 -0.007256 -0.001244 0.000000 0.000000 0.000000
# 2 -0.007256 0.018438 -0.001244 0.000000 0.000000 0.000000
# 3 -0.001244 -0.001244 0.007723 0.000000 0.000000 0.000000
# 4 0.000000 0.000000 0.000000 -0.004200 0.000000 0.000000
# 5 0.000000 0.000000 0.000000 0.000000 -0.004198 0.000000
# 6 0.000000 0.000000 0.000000 0.000000 0.000000 0.065334
#
#
# Mechanical properties :
#
#
# Convention : Reuss Voigt Hill
#
# Bulk Modulus (GPa) = 39.82597 42.17696 41.00147
# Shear Modulus (GPa) = 38.64175 -78.25161 -19.80493
#
# Velocity S-wave (km/s) = 4.38361 -6.23807 -3.13827
# Velocity P-wave (km/s) = 6.73990 5.55973 2.69404
#
# Compressibility (1/GPa) = 0.02510924
#
# Stress axis : x y z
#
# Youngs Moduli (GPa) = 54.23686 54.23497 129.48638
#
# Poissons Ratio (x) = 0.39355 0.16110
# Poissons Ratio (y) = 0.39357 0.16110
# Poissons Ratio (z) = 0.06748 0.06747
#
# Static dielectric constant tensor:
#      x y z
#    x 1.614170 0.000000 0.000000 
#    y 0.000000 1.614230 0.000000 
#    z 0.000000 0.000000 1.751100 
# 
# From -- ./inp_files/7610.got.cif
#   From: 2010.05.17/outbox.cif.g08.bks.cpg/sg138_4_cif.got.tgz:7610.got - 2010.05.20 13:08:53.
