data_PCOD9570853
_publ_section_title
;
Structure prediction by ZEFSAII (Michael W. Deem and Ramdas Pophale) SiO2 
 PCOD9570853
Probable space group: P 42/N C M
;
_chemical_formula_sum "Si O2"
_cell_formula_units_Z 56
_cell_length_a 11.048315
_cell_length_b 11.048315
_cell_length_c 22.315821
_cell_angle_alpha 90.000000
_cell_angle_beta 90.000000
_cell_angle_gamma 90.000000
_cell_volume 2723.986589
_symmetry_space_group_name_H-M "P 42/N C M"
_symmetry_group_IT_number 138
_space_group.IT_coordinate_system_code '2'
_symmetry_cell_setting 'tetragonal'
loop_
_space_group_symop_operation_xyz
x,y,z
1/2-y,x,1/2+z
1/2-x,1/2-y,z
y,1/2-x,1/2+z
1/2+x,-y,1/2-z
-x,1/2+y,1/2-z
1/2+y,1/2+x,-z
-y,-x,-z
-x,-y,-z
1/2+y,-x,1/2-z
1/2+x,1/2+y,-z
-y,1/2+x,1/2-z
1/2-x,y,1/2+z
x,1/2-y,1/2+z
1/2-y,1/2-x,z
y,x,z
loop_
_atom_site_type_symbol
_atom_site_label
_atom_site_fract_x
_atom_site_fract_y
_atom_site_fract_z
Si Si1 0.906436 0.593565 0.970070
Si Si2 0.344998 0.344998 0.661012
Si Si3 0.250000 0.750000 0.605751
Si Si4 0.079184 0.758007 0.284918
Si Si5 0.509209 0.320331 0.961247
O O1 0.905788 0.594213 0.897670
O O2 0.775685 0.556561 0.996005
O O3 0.000000 0.500000 0.000000
O O4 0.250000 0.250000 0.635424
O O5 0.278277 0.440308 0.703677
O O6 0.243448 0.635621 0.649421
O O7 0.119517 0.748965 0.572964
O O8 0.145233 0.873786 0.254344
O O9 0.404253 0.404253 0.929947
O O10 0.586963 0.413038 0.000000
#
# Coordination Sequence:
#
# PCOD9570853 Si02
#       5
#     8   8   8  16  16
#     4  12  24  40  64  94 138 175 212 262 319 402
#     4  12  24  38  68  97 121 166 219 266 320 388
#     4  10  20  40  62  86 122 180 206 254 336 376
#     4   9  22  43  63  87 122 162 215 270 328 382
#     4  11  22  36  58  90 128 164 211 263 312 388
#
# _framework density 20.558104
#
# number of rings (size 3 to 8) (size 9 to 14) (size 15 to 20)
#    0.000    1.714    0.000    6.857    2.000    3.429 
#    7.714    0.000    0.000    0.000    0.000    0.000 
#    0.000    0.000    0.000    0.000    0.000    0.000 
#
# Total GULP energy -312040.812134 kJ/mol
# GULP energy per Si atom -5572.157360 kJ/mol
# Density = 2.051131 g / cm^3
# Si number density = 20.558104 Si / 1000 Ang^3
#
#
#
# Elastic Constant Matrix: (Units=GPa)
#
#
# Indices 1 2 3 4 5 6 
#
# 1 129.5162 -16.5350 19.3251 0.0000 0.0000 0.0000
# 2 -16.5350 129.5135 19.3211 0.0000 0.0000 0.0000
# 3 19.3251 19.3211 64.0646 0.0000 0.0000 0.0000
# 4 0.0000 0.0000 0.0000 -1.2412 0.0000 0.0000
# 5 0.0000 0.0000 0.0000 0.0000 -1.2419 0.0000
# 6 0.0000 0.0000 0.0000 0.0000 0.0000 29.7816
#
#
#
# Elastic Compliance Matrix: (Units=1/GPa)
#
#
# Indices 1 2 3 4 5 6 
#
# 1 0.008358 0.001511 -0.002977 0.000000 0.000000 0.000000
# 2 0.001511 0.008358 -0.002977 0.000000 0.000000 0.000000
# 3 -0.002977 -0.002977 0.017405 0.000000 0.000000 0.000000
# 4 0.000000 0.000000 0.000000 -0.805659 0.000000 0.000000
# 5 0.000000 0.000000 0.000000 0.000000 -0.805237 0.000000
# 6 0.000000 0.000000 0.000000 0.000000 0.000000 0.033578
#
#
# Mechanical properties :
#
#
# Convention : Reuss Voigt Hill
#
# Bulk Modulus (GPa) = 39.62505 40.81296 40.21900
# Shear Modulus (GPa) = -3.27676 25.52525 11.12424
#
# Velocity S-wave (km/s) = -1.26387 3.52748 2.32871
# Velocity P-wave (km/s) = 4.14568 6.04040 5.18040
#
# Compressibility (1/GPa) = 0.02523656
#
# Stress axis : x y z
#
# Youngs Moduli (GPa) = 119.64338 119.64306 57.45486
#
# Poissons Ratio (x) = -0.18081 0.17104
# Poissons Ratio (y) = -0.18081 0.17102
# Poissons Ratio (z) = 0.35618 0.35613
#
# Static dielectric constant tensor:
#      x y z
#    x 1.814690 0.000000 0.000000 
#    y 0.000000 1.814690 0.000000 
#    z 0.000000 0.000000 1.721870 
# 
# From -- ./inp_files/5733.got.cif
#   From: 2010.05.17/outbox.cif.g08.bks.cpg/sg138_3_cif.got.tgz:5733.got - 2010.05.20 13:08:53.
