data_PCOD9570103
_publ_section_title
;
Structure prediction by ZEFSAII (Michael W. Deem and Ramdas Pophale) SiO2 
 PCOD9570103
Probable space group: P 42/N M C
;
_chemical_formula_sum "Si O2"
_cell_formula_units_Z 64
_cell_length_a 14.136930
_cell_length_b 14.136930
_cell_length_c 15.956958
_cell_angle_alpha 90.000000
_cell_angle_beta 90.000000
_cell_angle_gamma 90.000000
_cell_volume 3189.042573
_symmetry_space_group_name_H-M "P 42/N M C"
_symmetry_group_IT_number 137
_space_group.IT_coordinate_system_code '2'
_symmetry_cell_setting 'tetragonal'
loop_
_space_group_symop_operation_xyz
x,y,z
1/2-y,x,1/2+z
1/2-x,1/2-y,z
y,1/2-x,1/2+z
1/2+x,-y,-z
-x,1/2+y,-z
1/2+y,1/2+x,1/2-z
-y,-x,1/2-z
-x,-y,-z
1/2+y,-x,1/2-z
1/2+x,1/2+y,-z
-y,1/2+x,1/2-z
1/2-x,y,z
x,1/2-y,z
1/2-y,1/2-x,1/2+z
y,x,1/2+z
loop_
_atom_site_type_symbol
_atom_site_label
_atom_site_fract_x
_atom_site_fract_y
_atom_site_fract_z
Si Si1 0.636988 0.455769 0.513502
Si Si2 0.139670 0.141450 0.570177
Si Si3 0.637648 0.038304 0.827451
Si Si4 0.859160 0.365297 0.159515
O O1 0.750000 0.443599 0.522063
O O2 0.616472 0.567150 0.503181
O O3 0.588804 0.401490 0.589031
O O4 0.607183 0.414321 0.423377
O O5 0.250000 0.126576 0.591756
O O6 0.126418 0.250000 0.543322
O O7 0.072425 0.126387 0.650157
O O8 0.578921 0.078921 0.750000
O O9 0.750000 0.056995 0.815681
O O10 0.897329 0.397329 0.250000
O O11 0.750000 0.394359 0.150702
O O12 0.860273 0.250000 0.163293
#
# Coordination Sequence:
#
# PCOD9570103 Si02
#       4
#    16  16  16  16
#     4  10  19  33  56  84 114 149 188 235 291 346
#     4   9  20  40  61  80 108 150 200 250 291 329
#     4  11  23  38  58  87 123 159 193 232 284 351
#     4   8  14  25  43  72 109 143 177 223 281 340
#
# _framework density 20.068719000000002
#
# number of rings (size 3 to 8) (size 9 to 14) (size 15 to 20)
#    0.000    2.500    0.000    3.000    0.000    3.750 
#    0.000    1.250    0.000    7.500    0.000    0.000 
#    0.000    0.000    0.000    0.000    0.000    0.000 
#
# Total GULP energy -357150.176368 kJ/mol
# GULP energy per Si atom -5580.471506 kJ/mol
# Density = 2.002304 g / cm^3
# Si number density = 20.068719 Si / 1000 Ang^3
#
#
#
# Elastic Constant Matrix: (Units=GPa)
#
#
# Indices 1 2 3 4 5 6 
#
# 1 64.3596 25.1830 18.7236 0.0000 0.0000 0.0000
# 2 25.1830 64.3596 18.7236 0.0000 0.0000 0.0000
# 3 18.7236 18.7236 94.3216 0.0000 0.0000 0.0000
# 4 0.0000 0.0000 0.0000 23.8744 0.0000 0.0000
# 5 0.0000 0.0000 0.0000 0.0000 23.8744 0.0000
# 6 0.0000 0.0000 0.0000 0.0000 0.0000 19.1150
#
#
#
# Elastic Compliance Matrix: (Units=1/GPa)
#
#
# Indices 1 2 3 4 5 6 
#
# 1 0.018852 -0.006673 -0.002418 0.000000 0.000000 0.000000
# 2 -0.006673 0.018852 -0.002418 0.000000 0.000000 0.000000
# 3 -0.002418 -0.002418 0.011562 0.000000 0.000000 0.000000
# 4 0.000000 0.000000 0.000000 0.041886 0.000000 0.000000
# 5 0.000000 0.000000 0.000000 0.000000 0.041886 0.000000
# 6 0.000000 0.000000 0.000000 0.000000 0.000000 0.052315
#
#
# Mechanical properties :
#
#
# Convention : Reuss Voigt Hill
#
# Bulk Modulus (GPa) = 38.09635 38.70016 38.39825
# Shear Modulus (GPa) = 23.02876 24.06678 23.54777
#
# Velocity S-wave (km/s) = 3.39114 3.46673 3.42915
# Velocity P-wave (km/s) = 5.86151 5.94558 5.90370
#
# Compressibility (1/GPa) = 0.02624924
#
# Stress axis : x y z
#
# Youngs Moduli (GPa) = 53.04422 53.04422 86.49129
#
# Poissons Ratio (x) = 0.35398 0.20910
# Poissons Ratio (y) = 0.35398 0.20910
# Poissons Ratio (z) = 0.12824 0.12824
#
# Static dielectric constant tensor:
#      x y z
#    x 1.747660 0.000000 0.000000 
#    y 0.000000 1.747660 0.000000 
#    z 0.000000 0.000000 1.667320 
# 
# From -- ./inp_files/4746.got.cif
#   From: 2010.05.17/outbox.cif.g08.bks.cpg/sg137_3_cif.got.tgz:4746.got - 2010.05.20 13:01:12.
