data_PCOD9570500
_publ_section_title
;
Structure prediction by ZEFSAII (Michael W. Deem and Ramdas Pophale) SiO2 
 PCOD9570500
Probable space group: P 42/N M C
;
_chemical_formula_sum "Si O2"
_cell_formula_units_Z 108
_cell_length_a 16.104147
_cell_length_b 16.104147
_cell_length_c 22.184874
_cell_angle_alpha 90.000000
_cell_angle_beta 90.000000
_cell_angle_gamma 90.000000
_cell_volume 5753.503993
_symmetry_space_group_name_H-M "P 42/N M C"
_symmetry_group_IT_number 137
_space_group.IT_coordinate_system_code '2'
_symmetry_cell_setting 'tetragonal'
loop_
_space_group_symop_operation_xyz
x,y,z
1/2-y,x,1/2+z
1/2-x,1/2-y,z
y,1/2-x,1/2+z
1/2+x,-y,-z
-x,1/2+y,-z
1/2+y,1/2+x,1/2-z
-y,-x,1/2-z
-x,-y,-z
1/2+y,-x,1/2-z
1/2+x,1/2+y,-z
-y,1/2+x,1/2-z
1/2-x,y,z
x,1/2-y,z
1/2-y,1/2-x,1/2+z
y,x,1/2+z
loop_
_atom_site_type_symbol
_atom_site_label
_atom_site_fract_x
_atom_site_fract_y
_atom_site_fract_z
Si Si1 0.848008 0.655734 0.237460
Si Si2 0.154353 0.654353 0.750000
Si Si3 0.624147 0.094746 0.544764
Si Si4 0.406631 0.003578 0.679462
Si Si5 0.041529 0.420574 0.861094
Si Si6 0.158174 0.452507 0.550417
Si Si7 0.347658 0.460005 0.975781
Si Si8 0.250000 0.750000 0.444582
O O1 0.750000 0.645513 0.223474
O O2 0.859824 0.750000 0.260782
O O3 0.874541 0.582766 0.283227
O O4 0.904411 0.642853 0.178196
O O5 0.146021 0.750000 0.727486
O O6 0.138827 0.581004 0.701515
O O7 0.536047 0.122160 0.517129
O O8 0.678645 0.176043 0.553853
O O9 0.614817 0.039286 0.604997
O O10 0.658465 0.030704 0.494792
O O11 0.391817 0.022806 0.609482
O O12 0.504521 0.985585 0.682391
O O13 0.101351 0.456937 0.913487
O O14 0.250000 0.432471 0.571038
O O15 0.119848 0.376603 0.513491
O O16 0.250000 0.464023 0.964933
#
# Coordination Sequence:
#
# PCOD9570500 Si02
#       8
#    16   8  16  16  16  16  16   4
#     4  11  25  43  64  92 122 163 219 271 321 376
#     4  11  24  40  58  94 134 169 212 258 318 391
#     4  11  22  41  61  94 126 167 204 255 315 378
#     4  12  22  41  67  90 126 172 212 263 321 379
#     4  11  22  41  68  90 123 168 213 260 321 374
#     4  11  22  39  61  92 131 166 209 255 312 378
#     4  11  22  39  63  93 129 166 208 253 311 383
#     4  12  24  40  68  96 133 161 208 264 316 382
#
# _framework density 18.771170999999999
#
# number of rings (size 3 to 8) (size 9 to 14) (size 15 to 20)
#    0.000    0.815    5.926    2.667    1.037    2.074 
#    2.667    0.000    0.000    0.000    0.000    1.037 
#    0.000    0.000    0.000    0.000    0.000    0.000 
#
# Total GULP energy -601754.063141 kJ/mol
# GULP energy per Si atom -5571.796881 kJ/mol
# Density = 1.872845 g / cm^3
# Si number density = 18.771171 Si / 1000 Ang^3
#
#
#
# Elastic Constant Matrix: (Units=GPa)
#
#
# Indices 1 2 3 4 5 6 
#
# 1 97.1988 34.4298 30.9603 0.0000 0.0000 0.0000
# 2 34.4298 97.1988 30.9603 0.0000 0.0000 0.0000
# 3 30.9603 30.9603 75.9746 0.0000 0.0000 0.0000
# 4 0.0000 0.0000 0.0000 14.9430 0.0000 0.0000
# 5 0.0000 0.0000 0.0000 0.0000 14.9430 0.0000
# 6 0.0000 0.0000 0.0000 0.0000 0.0000 17.9442
#
#
#
# Elastic Compliance Matrix: (Units=1/GPa)
#
#
# Indices 1 2 3 4 5 6 
#
# 1 0.012665 -0.003266 -0.003830 0.000000 0.000000 0.000000
# 2 -0.003266 0.012665 -0.003830 0.000000 0.000000 0.000000
# 3 -0.003830 -0.003830 0.016284 0.000000 0.000000 0.000000
# 4 0.000000 0.000000 0.000000 0.066921 0.000000 0.000000
# 5 0.000000 0.000000 0.000000 0.000000 0.066921 0.000000
# 6 0.000000 0.000000 0.000000 0.000000 0.000000 0.055728
#
#
# Mechanical properties :
#
#
# Convention : Reuss Voigt Hill
#
# Bulk Modulus (GPa) = 50.60423 51.45254 51.02838
# Shear Modulus (GPa) = 19.25855 21.16749 20.21302
#
# Velocity S-wave (km/s) = 3.20654 3.36171 3.28504
# Velocity P-wave (km/s) = 6.38171 6.52212 6.45230
#
# Compressibility (1/GPa) = 0.01976119
#
# Stress axis : x y z
#
# Youngs Moduli (GPa) = 78.95680 78.95680 61.41034
#
# Poissons Ratio (x) = 0.25789 0.23521
# Poissons Ratio (y) = 0.25789 0.23521
# Poissons Ratio (z) = 0.30241 0.30241
#
# Static dielectric constant tensor:
#      x y z
#    x 1.662030 0.000000 0.000000 
#    y 0.000000 1.662030 0.000000 
#    z 0.000000 0.000000 1.643970 
# 
# From -- ./inp_files/9033.got.cif
#   From: 2010.05.17/outbox.cif.g08.bks.cpg/sg137_5_cif.got.tgz:9033.got - 2010.05.20 13:01:12.
