data_PCOD9570490
_publ_section_title
;
Structure prediction by ZEFSAII (Michael W. Deem and Ramdas Pophale) SiO2 
 PCOD9570490
Probable space group: P 42/N M C
;
_chemical_formula_sum "Si O2"
_cell_formula_units_Z 112
_cell_length_a 14.744279
_cell_length_b 14.744279
_cell_length_c 28.905752
_cell_angle_alpha 90.000000
_cell_angle_beta 90.000000
_cell_angle_gamma 90.000000
_cell_volume 6283.930206
_symmetry_space_group_name_H-M "P 42/N M C"
_symmetry_group_IT_number 137
_space_group.IT_coordinate_system_code '2'
_symmetry_cell_setting 'tetragonal'
loop_
_space_group_symop_operation_xyz
x,y,z
1/2-y,x,1/2+z
1/2-x,1/2-y,z
y,1/2-x,1/2+z
1/2+x,-y,-z
-x,1/2+y,-z
1/2+y,1/2+x,1/2-z
-y,-x,1/2-z
-x,-y,-z
1/2+y,-x,1/2-z
1/2+x,1/2+y,-z
-y,1/2+x,1/2-z
1/2-x,y,z
x,1/2-y,z
1/2-y,1/2-x,1/2+z
y,x,1/2+z
loop_
_atom_site_type_symbol
_atom_site_label
_atom_site_fract_x
_atom_site_fract_y
_atom_site_fract_z
Si Si1 0.094146 0.850701 0.880901
Si Si2 0.356127 0.991180 0.421911
Si Si3 0.100417 0.145349 0.166266
Si Si4 0.352318 0.011788 0.085009
Si Si5 0.646806 0.551493 0.136681
Si Si6 0.859830 0.646469 0.229877
Si Si7 0.472794 0.147503 0.030315
O O1 0.136274 0.750000 0.876003
O O2 0.004972 0.852310 0.848301
O O3 0.055512 0.859054 0.933249
O O4 0.145420 0.942958 0.869363
O O5 0.250000 0.982501 0.409441
O O6 0.400201 0.080656 0.399521
O O7 0.361949 0.997973 0.477556
O O8 0.420687 0.909070 0.406530
O O9 0.133879 0.250000 0.161643
O O10 0.115443 0.113962 0.218727
O O11 0.144610 0.076788 0.129953
O O12 0.250000 0.991119 0.072060
O O13 0.402465 0.070964 0.045672
O O14 0.750000 0.583992 0.130770
O O15 0.613717 0.581246 0.187797
O O16 0.750000 0.646490 0.230379
O O17 0.889970 0.750000 0.221383
O O18 0.434849 0.250000 0.036830
#
# Coordination Sequence:
#
# PCOD9570490 Si02
#       7
#    16  16  16  16  16  16  16
#     4   9  18  35  56  82 111 141 182 230 281 336
#     4  11  23  40  56  76 114 155 188 228 274 323
#     4   9  17  33  58  83 110 140 176 229 288 333
#     4  11  21  34  57  87 112 140 183 228 278 333
#     4  11  22  36  57  81 108 148 191 228 275 332
#     4   9  18  32  51  80 113 142 178 226 275 327
#     4   9  19  37  59  79 109 146 180 225 281 329
#
# _framework density 17.823240999999999
#
# number of rings (size 3 to 8) (size 9 to 14) (size 15 to 20)
#    0.000    2.143    2.857    2.571    0.000    4.286 
#    0.000    1.429    0.000    2.571    0.000    4.000 
#    0.000    3.429    0.000    0.000    0.000    0.000 
#
# Total GULP energy -624368.581023 kJ/mol
# GULP energy per Si atom -5574.719473 kJ/mol
# Density = 1.778267 g / cm^3
# Si number density = 17.823241 Si / 1000 Ang^3
#
#
#
# Elastic Constant Matrix: (Units=GPa)
#
#
# Indices 1 2 3 4 5 6 
#
# 1 89.5020 36.7708 26.8406 0.0000 0.0000 0.0000
# 2 36.7708 89.5020 26.8406 0.0000 0.0000 0.0000
# 3 26.8406 26.8406 88.5733 0.0000 0.0000 0.0000
# 4 0.0000 0.0000 0.0000 3.5322 0.0000 0.0000
# 5 0.0000 0.0000 0.0000 0.0000 3.5322 0.0000
# 6 0.0000 0.0000 0.0000 0.0000 0.0000 3.3577
#
#
#
# Elastic Compliance Matrix: (Units=1/GPa)
#
#
# Indices 1 2 3 4 5 6 
#
# 1 0.014027 -0.004937 -0.002755 0.000000 0.000000 0.000000
# 2 -0.004937 0.014027 -0.002755 0.000000 0.000000 0.000000
# 3 -0.002755 -0.002755 0.012960 0.000000 0.000000 0.000000
# 4 0.000000 0.000000 0.000000 0.283110 0.000000 0.000000
# 5 0.000000 0.000000 0.000000 0.000000 0.283110 0.000000
# 6 0.000000 0.000000 0.000000 0.000000 0.000000 0.297825
#
#
# Mechanical properties :
#
#
# Convention : Reuss Voigt Hill
#
# Bulk Modulus (GPa) = 49.69759 49.83124 49.76441
# Shear Modulus (GPa) = 5.36102 13.89276 9.62689
#
# Velocity S-wave (km/s) = 1.73621 2.79494 2.32659
# Velocity P-wave (km/s) = 5.65361 6.19958 5.93288
#
# Compressibility (1/GPa) = 0.02012170
#
# Stress axis : x y z
#
# Youngs Moduli (GPa) = 71.28964 71.28964 77.16283
#
# Poissons Ratio (x) = 0.35195 0.21256
# Poissons Ratio (y) = 0.35195 0.21256
# Poissons Ratio (z) = 0.19638 0.19638
#
# Static dielectric constant tensor:
#      x y z
#    x 1.616340 0.000000 0.000000 
#    y 0.000000 1.616340 0.000000 
#    z 0.000000 0.000000 1.606010 
# 
# From -- ./inp_files/10723.got.cif
#   From: 2010.05.17/outbox.cif.g08.bks.cpg/sg137_6_cif.got.tgz:10723.got - 2010.05.20 13:01:12.
