data_PCOD9570219
_publ_section_title
;
Structure prediction by ZEFSAII (Michael W. Deem and Ramdas Pophale) SiO2 
 PCOD9570219
Probable space group: P 42/N M C
;
_chemical_formula_sum "Si O2"
_cell_formula_units_Z 96
_cell_length_a 23.545226
_cell_length_b 23.545226
_cell_length_c 9.880442
_cell_angle_alpha 90.000000
_cell_angle_beta 90.000000
_cell_angle_gamma 90.000000
_cell_volume 5477.496389
_symmetry_space_group_name_H-M "P 42/N M C"
_symmetry_group_IT_number 137
_space_group.IT_coordinate_system_code '2'
_symmetry_cell_setting 'tetragonal'
loop_
_space_group_symop_operation_xyz
x,y,z
1/2-y,x,1/2+z
1/2-x,1/2-y,z
y,1/2-x,1/2+z
1/2+x,-y,-z
-x,1/2+y,-z
1/2+y,1/2+x,1/2-z
-y,-x,1/2-z
-x,-y,-z
1/2+y,-x,1/2-z
1/2+x,1/2+y,-z
-y,1/2+x,1/2-z
1/2-x,y,z
x,1/2-y,z
1/2-y,1/2-x,1/2+z
y,x,1/2+z
loop_
_atom_site_type_symbol
_atom_site_label
_atom_site_fract_x
_atom_site_fract_y
_atom_site_fract_z
Si Si1 0.592151 0.184073 0.780277
Si Si2 0.686813 0.474323 0.994629
Si Si3 0.898656 0.492501 0.223088
Si Si4 0.125505 0.097184 0.340301
Si Si5 0.813478 0.891545 0.942874
Si Si6 0.681498 0.495879 0.488742
O O1 0.644911 0.144911 0.750000
O O2 0.607781 0.250000 0.779110
O O3 0.549475 0.174619 0.654311
O O4 0.560904 0.172655 0.922123
O O5 0.750000 0.453732 0.036594
O O6 0.637863 0.463291 0.103109
O O7 0.689987 0.542013 0.981009
O O8 0.954408 0.454408 0.250000
O O9 0.913298 0.557578 0.179516
O O10 0.856450 0.495580 0.353005
O O11 0.135265 0.150943 0.436758
O O12 0.151879 0.110328 0.195384
O O13 0.157424 0.045541 0.414313
O O14 0.750000 0.869065 0.927567
O O15 0.750000 0.502491 0.464702
#
# Coordination Sequence:
#
# PCOD9570219 Si02
#       6
#    16  16  16  16  16  16
#     4  10  20  34  55  81 110 147 187 230 279 330
#     4   9  18  35  56  77 106 147 188 223 269 333
#     4  11  23  36  55  86 119 145 179 232 289 337
#     4  11  21  38  57  86 111 149 186 230 284 332
#     4  10  20  38  59  81 110 145 187 230 276 330
#     4  11  22  38  60  83 111 152 194 229 274 340
#
# _framework density 17.526256
#
# number of rings (size 3 to 8) (size 9 to 14) (size 15 to 20)
#    0.000    1.667    3.333    2.000    0.000    2.167 
#    0.000    0.000    0.000    4.000    0.000    0.000 
#    0.000   12.000    0.000    0.000    0.000    0.000 
#
# Total GULP energy -535317.542288 kJ/mol
# GULP energy per Si atom -5576.224399 kJ/mol
# Density = 1.748637 g / cm^3
# Si number density = 17.526256 Si / 1000 Ang^3
#
#
#
# Elastic Constant Matrix: (Units=GPa)
#
#
# Indices 1 2 3 4 5 6 
#
# 1 43.5824 40.2356 21.6218 0.0000 0.0000 0.0000
# 2 40.2356 43.5824 21.6218 0.0000 0.0000 0.0000
# 3 21.6218 21.6218 47.5220 0.0000 0.0000 0.0000
# 4 0.0000 0.0000 0.0000 26.9839 0.0000 0.0000
# 5 0.0000 0.0000 0.0000 0.0000 26.9839 0.0000
# 6 0.0000 0.0000 0.0000 0.0000 0.0000 18.4171
#
#
#
# Elastic Compliance Matrix: (Units=1/GPa)
#
#
# Indices 1 2 3 4 5 6 
#
# 1 0.157189 -0.141599 -0.007093 0.000000 0.000000 0.000000
# 2 -0.141599 0.157189 -0.007093 0.000000 0.000000 0.000000
# 3 -0.007093 -0.007093 0.027498 0.000000 0.000000 0.000000
# 4 0.000000 0.000000 0.000000 0.037059 0.000000 0.000000
# 5 0.000000 0.000000 0.000000 0.000000 0.037059 0.000000
# 6 0.000000 0.000000 0.000000 0.000000 0.000000 0.054297
#
#
# Mechanical properties :
#
#
# Convention : Reuss Voigt Hill
#
# Bulk Modulus (GPa) = 32.99811 33.51613 33.25712
# Shear Modulus (GPa) = 6.31342 17.89085 12.10214
#
# Velocity S-wave (km/s) = 1.90002 3.19847 2.63062
# Velocity P-wave (km/s) = 4.86643 5.72758 5.31447
#
# Compressibility (1/GPa) = 0.03030476
#
# Stress axis : x y z
#
# Youngs Moduli (GPa) = 6.36177 6.36177 36.36682
#
# Poissons Ratio (x) = 0.90082 0.25796
# Poissons Ratio (y) = 0.90082 0.25796
# Poissons Ratio (z) = 0.04513 0.04513
#
# Static dielectric constant tensor:
#      x y z
#    x 1.580120 0.000000 0.000000 
#    y 0.000000 1.580120 0.000000 
#    z 0.000000 0.000000 1.591380 
# 
# From -- ./inp_files/2175.got.cif
#   From: 2010.05.17/outbox.cif.g08.bks.cpg/sg137_2_cif.got.tgz:2175.got - 2010.05.20 13:01:12.
