data_PCOD9570653
_publ_section_title
;
Structure prediction by ZEFSAII (Michael W. Deem and Ramdas Pophale) SiO2 
 PCOD9570653
Probable space group: P 42/N C M
;
_chemical_formula_sum "Si O2"
_cell_formula_units_Z 128
_cell_length_a 16.388117
_cell_length_b 16.388117
_cell_length_c 25.925745
_cell_angle_alpha 90.000000
_cell_angle_beta 90.000000
_cell_angle_gamma 90.000000
_cell_volume 6962.887155
_symmetry_space_group_name_H-M "P 42/N C M"
_symmetry_group_IT_number 138
_space_group.IT_coordinate_system_code '2'
_symmetry_cell_setting 'tetragonal'
loop_
_space_group_symop_operation_xyz
x,y,z
1/2-y,x,1/2+z
1/2-x,1/2-y,z
y,1/2-x,1/2+z
1/2+x,-y,1/2-z
-x,1/2+y,1/2-z
1/2+y,1/2+x,-z
-y,-x,-z
-x,-y,-z
1/2+y,-x,1/2-z
1/2+x,1/2+y,-z
-y,1/2+x,1/2-z
1/2-x,y,1/2+z
x,1/2-y,1/2+z
1/2-y,1/2-x,z
y,x,z
loop_
_atom_site_type_symbol
_atom_site_label
_atom_site_fract_x
_atom_site_fract_y
_atom_site_fract_z
Si Si1 0.037553 0.904698 0.827696
Si Si2 0.356418 0.480602 0.985411
Si Si3 0.322660 0.636436 0.261746
Si Si4 0.154462 0.858080 0.919982
Si Si5 0.430543 0.308146 0.097042
Si Si6 0.049835 0.806564 0.439760
Si Si7 0.906838 0.175603 0.381224
Si Si8 0.454941 0.316941 0.456833
O O1 0.076347 0.873701 0.774824
O O2 0.108452 0.896016 0.870323
O O3 0.970371 0.842207 0.851005
O O4 0.991494 0.991494 0.825021
O O5 0.438385 0.438385 0.966628
O O6 0.348394 0.569961 0.962219
O O7 0.276598 0.429523 0.968189
O O8 0.353825 0.473171 0.047532
O O9 0.228716 0.642498 0.242514
O O10 0.324687 0.606170 0.320405
O O11 0.112493 0.771694 0.935030
O O12 0.249051 0.853745 0.903956
O O13 0.337285 0.337285 0.095035
O O14 0.463942 0.218679 0.086924
O O15 0.093228 0.875409 0.407448
O O16 0.024062 0.828761 0.498020
O O17 0.998678 0.184686 0.402248
O O18 0.384114 0.384114 0.460206
#
# Coordination Sequence:
#
# PCOD9570653 Si02
#       8
#    16  16  16  16  16  16  16  16
#     4  10  19  32  51  76 110 144 179 221 274 335
#     4   9  18  33  57  85 113 145 180 226 285 339
#     4  11  22  36  55  80 111 146 182 236 290 340
#     4  10  19  34  51  85 113 139 174 229 291 339
#     4   8  16  30  47  73 105 134 168 213 263 321
#     4  10  20  33  54  79 106 147 181 220 276 344
#     4  11  22  35  55  77 109 148 187 233 282 347
#     4  10  23  40  54  76 114 155 195 234 273 331
#
# _framework density 18.383179999999999
#
# number of rings (size 3 to 8) (size 9 to 14) (size 15 to 20)
#    0.000    2.125    1.250    2.625    1.750   10.250 
#    0.000   12.500    0.000    0.000    0.000    0.000 
#    0.000    4.500    0.000    0.125    0.000    0.000 
#
# Total GULP energy -712787.513741 kJ/mol
# GULP energy per Si atom -5568.652451 kJ/mol
# Density = 1.834134 g / cm^3
# Si number density = 18.383180 Si / 1000 Ang^3
#
#
#
# Elastic Constant Matrix: (Units=GPa)
#
#
# Indices 1 2 3 4 5 6 
#
# 1 46.9977 32.9924 28.6991 0.0000 0.0000 0.0000
# 2 32.9924 46.9977 28.6991 0.0000 0.0000 0.0000
# 3 28.6991 28.6991 90.3404 0.0000 0.0000 0.0000
# 4 0.0000 0.0000 0.0000 10.3939 0.0000 0.0000
# 5 0.0000 0.0000 0.0000 0.0000 10.3939 0.0000
# 6 0.0000 0.0000 0.0000 0.0000 0.0000 41.2459
#
#
#
# Elastic Compliance Matrix: (Units=1/GPa)
#
#
# Indices 1 2 3 4 5 6 
#
# 1 0.043797 -0.027604 -0.005144 0.000000 0.000000 0.000000
# 2 -0.027604 0.043797 -0.005144 0.000000 0.000000 0.000000
# 3 -0.005144 -0.005144 0.014338 0.000000 0.000000 0.000000
# 4 0.000000 0.000000 0.000000 0.096211 0.000000 0.000000
# 5 0.000000 0.000000 0.000000 0.000000 0.096211 0.000000
# 6 0.000000 0.000000 0.000000 0.000000 0.000000 0.024245
#
#
# Mechanical properties :
#
#
# Convention : Reuss Voigt Hill
#
# Bulk Modulus (GPa) = 38.24561 40.56854 39.40708
# Shear Modulus (GPa) = 12.40394 18.66975 15.53685
#
# Velocity S-wave (km/s) = 2.60040 3.19029 2.91033
# Velocity P-wave (km/s) = 5.46498 5.97384 5.72507
#
# Compressibility (1/GPa) = 0.02614679
#
# Stress axis : x y z
#
# Youngs Moduli (GPa) = 22.83265 22.83265 69.74692
#
# Poissons Ratio (x) = 0.63028 0.35878
# Poissons Ratio (y) = 0.63028 0.35878
# Poissons Ratio (z) = 0.11745 0.11745
#
# Static dielectric constant tensor:
#      x y z
#    x 1.686390 0.000000 0.000000 
#    y 0.000000 1.686390 0.000000 
#    z 0.000000 0.000000 1.638130 
# 
# From -- ./inp_files/7203.got.cif
#   From: 2010.05.17/outbox.cif.g08.bks.cpg/sg138_4_cif.got.tgz:7203.got - 2010.05.20 13:08:53.
