data_PCOD9570722
_publ_section_title
;
Structure prediction by ZEFSAII (Michael W. Deem and Ramdas Pophale) SiO2 
 PCOD9570722
Probable space group: P 42/N C M
;
_chemical_formula_sum "Si O2"
_cell_formula_units_Z 48
_cell_length_a 11.630404
_cell_length_b 11.630404
_cell_length_c 17.222591
_cell_angle_alpha 90.000000
_cell_angle_beta 90.000000
_cell_angle_gamma 90.000000
_cell_volume 2329.636113
_symmetry_space_group_name_H-M "P 42/N C M"
_symmetry_group_IT_number 138
_space_group.IT_coordinate_system_code '2'
_symmetry_cell_setting 'tetragonal'
loop_
_space_group_symop_operation_xyz
x,y,z
1/2-y,x,1/2+z
1/2-x,1/2-y,z
y,1/2-x,1/2+z
1/2+x,-y,1/2-z
-x,1/2+y,1/2-z
1/2+y,1/2+x,-z
-y,-x,-z
-x,-y,-z
1/2+y,-x,1/2-z
1/2+x,1/2+y,-z
-y,1/2+x,1/2-z
1/2-x,y,1/2+z
x,1/2-y,1/2+z
1/2-y,1/2-x,z
y,x,z
loop_
_atom_site_type_symbol
_atom_site_label
_atom_site_fract_x
_atom_site_fract_y
_atom_site_fract_z
Si Si1 0.574038 0.259839 0.967458
Si Si2 0.093609 0.406392 0.030300
Si Si3 0.071437 0.765739 0.217908
Si Si4 0.844257 0.844257 0.299784
O O1 0.575843 0.258690 0.874830
O O2 0.666834 0.166834 0.000000
O O3 0.618973 0.381028 0.000000
O O4 0.452320 0.214658 0.998347
O O5 0.100696 0.399305 0.122834
O O6 0.000000 0.500000 0.000000
O O7 0.152094 0.870593 0.246213
O O8 0.944719 0.785840 0.249907
O O9 0.750000 0.750000 0.322755
#
# Coordination Sequence:
#
# PCOD9570722 Si02
#       4
#    16   8  16   8
#     4  10  19  36  65  96 127 168 227 270 338 403
#     4  10  20  40  66  89 129 175 214 272 332 396
#     4  11  23  43  73  99 135 182 229 281 346 415
#     4  12  28  44  67 104 142 176 229 288 342 405
#
# _framework density 20.604078000000001
#
# number of rings (size 3 to 8) (size 9 to 14) (size 15 to 20)
#    0.000    1.333    0.000   10.000    4.667    0.000 
#    3.000    0.833    0.000    0.000    0.000    0.000 
#    0.000    0.000    0.000    0.000    0.000    0.000 
#
# Total GULP energy -268263.123927 kJ/mol
# GULP energy per Si atom -5588.815082 kJ/mol
# Density = 2.055718 g / cm^3
# Si number density = 20.604078 Si / 1000 Ang^3
#
#
#
# Elastic Constant Matrix: (Units=GPa)
#
#
# Indices 1 2 3 4 5 6 
#
# 1 59.8377 55.2189 28.4386 0.0000 0.0000 0.0000
# 2 55.2189 59.8366 28.4385 0.0000 0.0000 0.0000
# 3 28.4386 28.4385 206.5181 0.0000 0.0000 0.0000
# 4 0.0000 0.0000 0.0000 39.8690 0.0000 0.0000
# 5 0.0000 0.0000 0.0000 0.0000 39.9937 0.0000
# 6 0.0000 0.0000 0.0000 0.0000 0.0000 34.3433
#
#
#
# Elastic Compliance Matrix: (Units=1/GPa)
#
#
# Indices 1 2 3 4 5 6 
#
# 1 0.112929 -0.103603 -0.001284 0.000000 0.000000 0.000000
# 2 -0.103603 0.112931 -0.001284 0.000000 0.000000 0.000000
# 3 -0.001284 -0.001284 0.005196 0.000000 0.000000 0.000000
# 4 0.000000 0.000000 0.000000 0.025082 0.000000 0.000000
# 5 0.000000 0.000000 0.000000 0.000000 0.025004 0.000000
# 6 0.000000 0.000000 0.000000 0.000000 0.000000 0.029118
#
#
# Mechanical properties :
#
#
# Convention : Reuss Voigt Hill
#
# Bulk Modulus (GPa) = 53.44345 61.15383 57.29864
# Shear Modulus (GPa) = 9.45465 37.11431 23.28448
#
# Velocity S-wave (km/s) = 2.14446 4.24879 3.36533
# Velocity P-wave (km/s) = 5.66800 7.33584 6.55518
#
# Compressibility (1/GPa) = 0.01871137
#
# Stress axis : x y z
#
# Youngs Moduli (GPa) = 8.85515 8.85498 192.45971
#
# Poissons Ratio (x) = 0.91741 0.24715
# Poissons Ratio (y) = 0.91742 0.24719
# Poissons Ratio (z) = 0.01137 0.01137
#
# Static dielectric constant tensor:
#      x y z
#    x 1.757280 0.000000 0.000000 
#    y 0.000000 1.757290 0.000000 
#    z 0.000000 0.000000 1.686810 
# 
# From -- ./inp_files/4744.got.cif
#   From: 2010.05.17/outbox.cif.g08.bks.cpg/sg138_3_cif.got.tgz:4744.got - 2010.05.20 13:08:53.
