data_PCOD9570945
_publ_section_title
;
Structure prediction by ZEFSAII (Michael W. Deem and Ramdas Pophale) SiO2 
 PCOD9570945
Probable space group: P 42/N C M
;
_chemical_formula_sum "Si O2"
_cell_formula_units_Z 88
_cell_length_a 11.393472
_cell_length_b 11.393472
_cell_length_c 29.775002
_cell_angle_alpha 90.000000
_cell_angle_beta 90.000000
_cell_angle_gamma 90.000000
_cell_volume 3865.128865
_symmetry_space_group_name_H-M "P 42/N C M"
_symmetry_group_IT_number 138
_space_group.IT_coordinate_system_code '2'
_symmetry_cell_setting 'tetragonal'
loop_
_space_group_symop_operation_xyz
x,y,z
1/2-y,x,1/2+z
1/2-x,1/2-y,z
y,1/2-x,1/2+z
1/2+x,-y,1/2-z
-x,1/2+y,1/2-z
1/2+y,1/2+x,-z
-y,-x,-z
-x,-y,-z
1/2+y,-x,1/2-z
1/2+x,1/2+y,-z
-y,1/2+x,1/2-z
1/2-x,y,1/2+z
x,1/2-y,1/2+z
1/2-y,1/2-x,z
y,x,z
loop_
_atom_site_type_symbol
_atom_site_label
_atom_site_fract_x
_atom_site_fract_y
_atom_site_fract_z
Si Si1 0.375676 0.375676 0.186345
Si Si2 0.761181 0.051320 0.887017
Si Si3 0.765469 0.054684 0.742799
Si Si4 0.752848 0.558215 0.978900
Si Si5 0.341805 0.969977 0.851812
Si Si6 0.517705 0.319296 0.930157
O O1 0.454389 0.309996 0.146904
O O2 0.447625 0.299518 0.225144
O O3 0.664840 0.127578 0.861549
O O4 0.867320 0.126957 0.907316
O O5 0.706692 0.995219 0.931972
O O6 0.647996 0.126377 0.754729
O O7 0.757078 0.017910 0.690824
O O8 0.849838 0.650163 0.995377
O O9 0.634437 0.634437 0.969621
O O10 0.726186 0.469031 0.019097
O O11 0.282503 0.019958 0.896410
O O12 0.460099 0.039902 0.841321
O O13 0.419493 0.419493 0.931885
#
# Coordination Sequence:
#
# PCOD9570945 Si02
#       6
#     8  16  16  16  16  16
#     4  12  22  42  68  99 136 175 229 288 341 408
#     4  12  23  42  69 104 133 180 232 286 339 409
#     4  11  24  42  69  94 131 178 230 282 343 407
#     4  10  21  40  66  98 141 184 221 279 353 417
#     4  12  26  44  67 100 140 179 226 283 347 413
#     4  11  24  43  71 100 134 177 233 283 340 413
#
# _framework density 22.767676000000002
#
# number of rings (size 3 to 8) (size 9 to 14) (size 15 to 20)
#    0.000    0.727    4.545    3.273    2.545    3.273 
#    0.000    3.636    4.000    0.000    0.000    0.000 
#    0.000    0.000    0.000    0.000    0.000    0.000 
#
# Total GULP energy -490319.240473 kJ/mol
# GULP energy per Si atom -5571.809551 kJ/mol
# Density = 2.271586 g / cm^3
# Si number density = 22.767676 Si / 1000 Ang^3
#
#
#
# Elastic Constant Matrix: (Units=GPa)
#
#
# Indices 1 2 3 4 5 6 
#
# 1 28.7948 3.1995 -0.9736 0.0000 0.0000 0.0000
# 2 3.1995 28.7948 -0.9736 0.0000 0.0000 0.0000
# 3 -0.9736 -0.9736 145.9695 0.0000 0.0000 0.0000
# 4 0.0000 0.0000 0.0000 -4.9256 0.0000 0.0000
# 5 0.0000 0.0000 0.0000 0.0000 -4.9256 0.0000
# 6 0.0000 0.0000 0.0000 0.0000 0.0000 -7.0395
#
#
#
# Elastic Compliance Matrix: (Units=1/GPa)
#
#
# Indices 1 2 3 4 5 6 
#
# 1 0.035169 -0.003901 0.000209 0.000000 0.000000 0.000000
# 2 -0.003901 0.035169 0.000209 0.000000 0.000000 0.000000
# 3 0.000209 0.000209 0.006854 0.000000 0.000000 0.000000
# 4 0.000000 0.000000 0.000000 -0.203019 0.000000 0.000000
# 5 0.000000 0.000000 0.000000 0.000000 -0.203019 0.000000
# 6 0.000000 0.000000 0.000000 0.000000 0.000000 -0.142055
#
#
# Mechanical properties :
#
#
# Convention : Reuss Voigt Hill
#
# Bulk Modulus (GPa) = 14.24011 22.89598 18.56804
# Shear Modulus (GPa) = -11.35005 10.10895 -0.62055
#
# Velocity S-wave (km/s) = -2.23517 2.10943 -0.52264
# Velocity P-wave (km/s) = 0.62706 4.00139 2.79445
#
# Compressibility (1/GPa) = 0.07022420
#
# Stress axis : x y z
#
# Youngs Moduli (GPa) = 28.43418 28.43418 145.91021
#
# Poissons Ratio (x) = 0.11091 -0.03043
# Poissons Ratio (y) = 0.11091 -0.03043
# Poissons Ratio (z) = -0.00593 -0.00593
#
# Static dielectric constant tensor:
#      x y z
#    x 1.867340 0.000000 0.000000 
#    y 0.000000 1.867340 0.000000 
#    z 0.000000 0.000000 1.850850 
# 
# From -- ./inp_files/8033.got.cif
#   From: 2010.05.17/outbox.cif.g08.bks.cpg/sg138_5_cif.got.tgz:8033.got - 2010.05.20 13:08:53.
