data_PCOD9570267
_publ_section_title
;
Structure prediction by ZEFSAII (Michael W. Deem and Ramdas Pophale) SiO2 
 PCOD9570267
Probable space group: P 42/N M C
;
_chemical_formula_sum "Si O2"
_cell_formula_units_Z 96
_cell_length_a 14.057276
_cell_length_b 14.057276
_cell_length_c 26.934344
_cell_angle_alpha 90.000000
_cell_angle_beta 90.000000
_cell_angle_gamma 90.000000
_cell_volume 5322.415145
_symmetry_space_group_name_H-M "P 42/N M C"
_symmetry_group_IT_number 137
_space_group.IT_coordinate_system_code '2'
_symmetry_cell_setting 'tetragonal'
loop_
_space_group_symop_operation_xyz
x,y,z
1/2-y,x,1/2+z
1/2-x,1/2-y,z
y,1/2-x,1/2+z
1/2+x,-y,-z
-x,1/2+y,-z
1/2+y,1/2+x,1/2-z
-y,-x,1/2-z
-x,-y,-z
1/2+y,-x,1/2-z
1/2+x,1/2+y,-z
-y,1/2+x,1/2-z
1/2-x,y,z
x,1/2-y,z
1/2-y,1/2-x,1/2+z
y,x,1/2+z
loop_
_atom_site_type_symbol
_atom_site_label
_atom_site_fract_x
_atom_site_fract_y
_atom_site_fract_z
Si Si1 0.858462 0.363250 0.571760
Si Si2 0.021096 0.031574 0.124067
Si Si3 0.250000 0.363715 0.369302
Si Si4 0.558365 0.863926 0.689555
Si Si5 0.636318 0.640256 0.295816
Si Si6 0.105058 0.512529 0.519887
Si Si7 0.250000 0.135971 0.483527
O O1 0.750000 0.374340 0.591440
O O2 0.882049 0.250000 0.573162
O O3 0.856519 0.402583 0.514831
O O4 0.936266 0.427756 0.601205
O O5 0.100549 0.085810 0.155671
O O6 0.979710 0.094226 0.078750
O O7 0.933985 0.012372 0.161526
O O8 0.250000 0.250000 0.373554
O O9 0.343127 0.386962 0.338708
O O10 0.250000 0.396625 0.425946
O O11 0.539191 0.750000 0.684282
O O12 0.576736 0.885152 0.747300
O O13 0.750000 0.637761 0.302288
O O14 0.609494 0.750000 0.285936
O O15 0.160856 0.415404 0.508364
O O16 0.000000 0.500000 0.500000
O O17 0.250000 0.250000 0.487353
#
# Coordination Sequence:
#
# PCOD9570267 Si02
#       7
#    16  16   8  16  16  16   8
#     4  10  21  38  59  81 116 158 195 236 292 365
#     4  11  23  36  59  88 117 154 197 249 297 360
#     4   9  16  30  56  83 107 143 187 236 288 336
#     4  10  20  36  59  86 116 150 194 247 301 354
#     4  10  21  38  59  86 120 155 194 243 303 359
#     4  10  22  37  55  83 119 153 199 242 297 357
#     4  11  22  36  59  89 121 155 202 256 303 354
#
# _framework density 18.036925
#
# number of rings (size 3 to 8) (size 9 to 14) (size 15 to 20)
#    0.000    1.833    1.667    3.000    2.333    4.000 
#    0.000    0.000    0.000    0.500    0.000    4.667 
#    0.000    0.000    0.000    0.000    0.000    0.000 
#
# Total GULP energy -534887.347071 kJ/mol
# GULP energy per Si atom -5571.743199 kJ/mol
# Density = 1.799587 g / cm^3
# Si number density = 18.036925 Si / 1000 Ang^3
#
#
#
# Elastic Constant Matrix: (Units=GPa)
#
#
# Indices 1 2 3 4 5 6 
#
# 1 69.2326 20.1182 33.8604 0.0000 0.0000 0.0000
# 2 20.1182 69.2326 33.8604 0.0000 0.0000 0.0000
# 3 33.8604 33.8604 122.6130 0.0000 0.0000 0.0000
# 4 0.0000 0.0000 0.0000 33.1073 0.0000 0.0000
# 5 0.0000 0.0000 0.0000 0.0000 33.1073 0.0000
# 6 0.0000 0.0000 0.0000 0.0000 0.0000 23.1676
#
#
#
# Elastic Compliance Matrix: (Units=1/GPa)
#
#
# Indices 1 2 3 4 5 6 
#
# 1 0.017258 -0.003103 -0.003909 0.000000 0.000000 0.000000
# 2 -0.003103 0.017258 -0.003909 0.000000 0.000000 0.000000
# 3 -0.003909 -0.003909 0.010315 0.000000 0.000000 0.000000
# 4 0.000000 0.000000 0.000000 0.030205 0.000000 0.000000
# 5 0.000000 0.000000 0.000000 0.000000 0.030205 0.000000
# 6 0.000000 0.000000 0.000000 0.000000 0.000000 0.043164
#
#
# Mechanical properties :
#
#
# Convention : Reuss Voigt Hill
#
# Bulk Modulus (GPa) = 43.50068 48.52846 46.01457
# Shear Modulus (GPa) = 28.10452 29.42573 28.76513
#
# Velocity S-wave (km/s) = 3.95164 4.04346 3.99782
# Velocity P-wave (km/s) = 6.70750 6.98304 6.84666
#
# Compressibility (1/GPa) = 0.02298814
#
# Stress axis : x y z
#
# Youngs Moduli (GPa) = 57.94574 57.94574 96.94950
#
# Poissons Ratio (x) = 0.17981 0.37896
# Poissons Ratio (y) = 0.17981 0.37896
# Poissons Ratio (z) = 0.22650 0.22650
#
# Static dielectric constant tensor:
#      x y z
#    x 1.838880 0.000000 0.000000 
#    y 0.000000 1.838880 0.000000 
#    z 0.000000 0.000000 1.630850 
# 
# From -- ./inp_files/8872.got.cif
#   From: 2010.05.17/outbox.cif.g08.bks.cpg/sg137_5_cif.got.tgz:8872.got - 2010.05.20 13:01:12.
