data_PCOD9570164
_publ_section_title
;
Structure prediction by ZEFSAII (Michael W. Deem and Ramdas Pophale) SiO2 
 PCOD9570164
Probable space group: P 42/N M C
;
_chemical_formula_sum "Si O2"
_cell_formula_units_Z 112
_cell_length_a 14.143581
_cell_length_b 14.143581
_cell_length_c 27.295427
_cell_angle_alpha 90.000000
_cell_angle_beta 90.000000
_cell_angle_gamma 90.000000
_cell_volume 5460.201333
_symmetry_space_group_name_H-M "P 42/N M C"
_symmetry_group_IT_number 137
_space_group.IT_coordinate_system_code '2'
_symmetry_cell_setting 'tetragonal'
loop_
_space_group_symop_operation_xyz
x,y,z
1/2-y,x,1/2+z
1/2-x,1/2-y,z
y,1/2-x,1/2+z
1/2+x,-y,-z
-x,1/2+y,-z
1/2+y,1/2+x,1/2-z
-y,-x,1/2-z
-x,-y,-z
1/2+y,-x,1/2-z
1/2+x,1/2+y,-z
-y,1/2+x,1/2-z
1/2-x,y,z
x,1/2-y,z
1/2-y,1/2-x,1/2+z
y,x,1/2+z
loop_
_atom_site_type_symbol
_atom_site_label
_atom_site_fract_x
_atom_site_fract_y
_atom_site_fract_z
Si Si1 0.543177 0.365110 0.500015
Si Si2 0.545214 0.363836 0.798299
Si Si3 0.358589 0.864059 0.898073
Si Si4 0.544492 0.864605 0.849656
Si Si5 0.358064 0.136676 0.751513
Si Si6 0.360739 0.636176 0.101268
Si Si7 0.135861 0.142789 0.047535
O O1 0.548038 0.250000 0.499717
O O2 0.591232 0.392814 0.449316
O O3 0.596204 0.395444 0.549466
O O4 0.434132 0.393168 0.507282
O O5 0.596565 0.403436 0.750000
O O6 0.557006 0.250000 0.797192
O O7 0.434155 0.385348 0.792962
O O8 0.585902 0.397697 0.850093
O O9 0.250000 0.891988 0.888126
O O10 0.359909 0.750000 0.903336
O O11 0.435291 0.890704 0.857389
O O12 0.550010 0.750000 0.848302
O O13 0.589363 0.894313 0.798639
O O14 0.601283 0.890089 0.898868
O O15 0.250000 0.107573 0.761782
O O16 0.357702 0.250000 0.744055
O O17 0.250000 0.610922 0.106540
O O18 0.366951 0.750000 0.099212
O O19 0.250000 0.144777 0.048588
O O20 0.101926 0.250000 0.038689
#
# Coordination Sequence:
#
# PCOD9570164 Si02
#       7
#    16  16  16  16  16  16  16
#     4   9  17  28  46  71 101 136 168 202 251 305
#     4  10  20  31  48  75 105 134 165 204 254 311
#     4   9  17  30  48  72 101 131 165 204 248 305
#     4   9  17  29  47  71  97 124 158 206 257 297
#     4   9  18  33  53  77 102 129 167 215 263 308
#     4   9  17  29  45  70 105 139 167 198 244 308
#     4   9  17  28  43  66  93 120 157 205 252 293
#
# _framework density 20.512063999999999
#
# number of rings (size 3 to 8) (size 9 to 14) (size 15 to 20)
#    0.000    2.857    0.000    1.286    2.000    4.714 
#    0.000    0.000    0.000    0.857    0.000    3.000 
#    0.000   13.714    0.000    0.000    0.000    0.000 
#
# Total GULP energy -625211.371241 kJ/mol
# GULP energy per Si atom -5582.244386 kJ/mol
# Density = 2.046538 g / cm^3
# Si number density = 20.512064 Si / 1000 Ang^3
#
#
#
# Elastic Constant Matrix: (Units=GPa)
#
#
# Indices 1 2 3 4 5 6 
#
# 1 55.3065 22.8834 24.9882 0.0000 0.0000 0.0000
# 2 22.8834 55.3083 24.9882 0.0000 0.0000 0.0000
# 3 24.9882 24.9882 52.4677 0.0000 0.0000 0.0000
# 4 0.0000 0.0000 0.0000 21.5692 0.0000 0.0000
# 5 0.0000 0.0000 0.0000 0.0000 21.5692 0.0000
# 6 0.0000 0.0000 0.0000 0.0000 0.0000 11.7817
#
#
#
# Elastic Compliance Matrix: (Units=1/GPa)
#
#
# Indices 1 2 3 4 5 6 
#
# 1 0.024614 -0.006228 -0.008757 0.000000 0.000000 0.000000
# 2 -0.006228 0.024613 -0.008756 0.000000 0.000000 0.000000
# 3 -0.008757 -0.008756 0.027400 0.000000 0.000000 0.000000
# 4 0.000000 0.000000 0.000000 0.046362 0.000000 0.000000
# 5 0.000000 0.000000 0.000000 0.000000 0.046362 0.000000
# 6 0.000000 0.000000 0.000000 0.000000 0.000000 0.084877
#
#
# Mechanical properties :
#
#
# Convention : Reuss Voigt Hill
#
# Bulk Modulus (GPa) = 34.30991 34.31135 34.31063
# Shear Modulus (GPa) = 16.05517 16.99887 16.52702
#
# Velocity S-wave (km/s) = 2.80075 2.88188 2.84160
# Velocity P-wave (km/s) = 5.21746 5.27611 5.24687
#
# Compressibility (1/GPa) = 0.02914610
#
# Stress axis : x y z
#
# Youngs Moduli (GPa) = 40.62691 40.62869 36.49630
#
# Poissons Ratio (x) = 0.25302 0.31959
# Poissons Ratio (y) = 0.25301 0.31957
# Poissons Ratio (z) = 0.35576 0.35575
#
# Static dielectric constant tensor:
#      x y z
#    x 1.761740 0.000000 0.000000 
#    y 0.000000 1.761740 0.000000 
#    z 0.000000 0.000000 1.681210 
# 
# From -- ./inp_files/9846.got.cif
#   From: 2010.05.17/outbox.cif.g08.bks.cpg/sg137_5_cif.got.tgz:9846.got - 2010.05.20 13:01:12.
