data_PCOD9570209
_publ_section_title
;
Structure prediction by ZEFSAII (Michael W. Deem and Ramdas Pophale) SiO2 
 PCOD9570209
Probable space group: P 42/N M C
;
_chemical_formula_sum "Si O2"
_cell_formula_units_Z 80
_cell_length_a 23.678416
_cell_length_b 23.678416
_cell_length_c 8.808732
_cell_angle_alpha 90.000000
_cell_angle_beta 90.000000
_cell_angle_gamma 90.000000
_cell_volume 4938.768729
_symmetry_space_group_name_H-M "P 42/N M C"
_symmetry_group_IT_number 137
_space_group.IT_coordinate_system_code '2'
_symmetry_cell_setting 'tetragonal'
loop_
_space_group_symop_operation_xyz
x,y,z
1/2-y,x,1/2+z
1/2-x,1/2-y,z
y,1/2-x,1/2+z
1/2+x,-y,-z
-x,1/2+y,-z
1/2+y,1/2+x,1/2-z
-y,-x,1/2-z
-x,-y,-z
1/2+y,-x,1/2-z
1/2+x,1/2+y,-z
-y,1/2+x,1/2-z
1/2-x,y,z
x,1/2-y,z
1/2-y,1/2-x,1/2+z
y,x,1/2+z
loop_
_atom_site_type_symbol
_atom_site_label
_atom_site_fract_x
_atom_site_fract_y
_atom_site_fract_z
Si Si1 0.660220 0.750000 0.204048
Si Si2 0.628202 0.961232 0.566298
Si Si3 0.578463 0.750000 0.963629
Si Si4 0.127176 0.462851 0.067595
Si Si5 0.921900 0.750000 0.452469
Si Si6 0.844245 0.750000 0.711053
Si Si7 0.954606 0.044478 0.432620
O O1 0.643033 0.750000 0.028266
O O2 0.598960 0.750000 0.278848
O O3 0.695706 0.805542 0.240550
O O4 0.692102 0.950844 0.512822
O O5 0.588659 0.910596 0.500242
O O6 0.622633 0.961773 0.749086
O O7 0.603551 0.019348 0.496724
O O8 0.594262 0.750000 0.786786
O O9 0.191831 0.453753 0.020932
O O10 0.102449 0.521003 0.999858
O O11 0.861323 0.750000 0.535163
O O12 0.955670 0.044331 0.250000
O O13 0.000000 0.000000 0.500000
#
# Coordination Sequence:
#
# PCOD9570209 Si02
#       7
#     8  16   8  16   8   8  16
#     4  11  20  40  44  70  94 142 180 221 246 300
#     4  11  21  36  53  74 101 133 172 216 262 311
#     4  12  24  33  52  74 100 135 178 220 260 304
#     4  11  21  36  53  74 101 133 172 216 262 311
#     4  12  24  33  52  74 100 135 178 220 260 304
#     4  11  24  32  52  62 102 138 184 217 258 280
#     4  10  20  34  54  76  96 127 166 213 266 318
#
# _framework density 16.198370000000001
#
# number of rings (size 3 to 8) (size 9 to 14) (size 15 to 20)
#    0.000    1.000    2.000    9.000    5.600    1.600 
#    0.000    0.000    0.000    0.000    0.000    0.000 
#    0.000    0.800    0.000    5.800    0.000    1.600 
#
# Total GULP energy -446285.485701 kJ/mol
# GULP energy per Si atom -5578.568571 kJ/mol
# Density = 1.616150 g / cm^3
# Si number density = 16.198370 Si / 1000 Ang^3
#
#
#
# Elastic Constant Matrix: (Units=GPa)
#
#
# Indices 1 2 3 4 5 6 
#
# 1 101.9065 69.1129 35.3333 0.0000 0.0000 0.0000
# 2 69.1129 101.9070 35.3334 0.0000 0.0000 0.0000
# 3 35.3333 35.3334 90.2286 0.0000 0.0000 0.0000
# 4 0.0000 0.0000 0.0000 22.1728 0.0000 0.0000
# 5 0.0000 0.0000 0.0000 0.0000 22.1727 0.0000
# 6 0.0000 0.0000 0.0000 0.0000 0.0000 23.0174
#
#
#
# Elastic Compliance Matrix: (Units=1/GPa)
#
#
# Indices 1 2 3 4 5 6 
#
# 1 0.018735 -0.011759 -0.002732 0.000000 0.000000 0.000000
# 2 -0.011759 0.018735 -0.002732 0.000000 0.000000 0.000000
# 3 -0.002732 -0.002732 0.013223 0.000000 0.000000 0.000000
# 4 0.000000 0.000000 0.000000 0.045100 0.000000 0.000000
# 5 0.000000 0.000000 0.000000 0.000000 0.045101 0.000000
# 6 0.000000 0.000000 0.000000 0.000000 0.000000 0.043445
#
#
# Mechanical properties :
#
#
# Convention : Reuss Voigt Hill
#
# Bulk Modulus (GPa) = 61.54829 63.73346 62.64087
# Shear Modulus (GPa) = 22.30164 23.75675 23.02919
#
# Velocity S-wave (km/s) = 3.71453 3.83379 3.77463
# Velocity P-wave (km/s) = 7.51505 7.68299 7.59949
#
# Compressibility (1/GPa) = 0.01624741
#
# Stress axis : x y z
#
# Youngs Moduli (GPa) = 53.37649 53.37677 75.62865
#
# Poissons Ratio (x) = 0.62764 0.20660
# Poissons Ratio (y) = 0.62764 0.20660
# Poissons Ratio (z) = 0.14581 0.14582
#
# Static dielectric constant tensor:
#      x y z
#    x 1.547400 0.000000 0.000000 
#    y 0.000000 1.547400 0.000000 
#    z 0.000000 0.000000 1.570440 
# 
# From -- ./inp_files/2100.got.cif
#   From: 2010.05.17/outbox.cif.g08.bks.cpg/sg137_2_cif.got.tgz:2100.got - 2010.05.20 13:01:12.
