data_PCOD9570723
_publ_section_title
;
Structure prediction by ZEFSAII (Michael W. Deem and Ramdas Pophale) SiO2 
 PCOD9570723
Probable space group: P 42/N C M
;
_chemical_formula_sum "Si O2"
_cell_formula_units_Z 112
_cell_length_a 17.181533
_cell_length_b 17.181533
_cell_length_c 22.331609
_cell_angle_alpha 90.000000
_cell_angle_beta 90.000000
_cell_angle_gamma 90.000000
_cell_volume 6592.404337
_symmetry_space_group_name_H-M "P 42/N C M"
_symmetry_group_IT_number 138
_space_group.IT_coordinate_system_code '2'
_symmetry_cell_setting 'tetragonal'
loop_
_space_group_symop_operation_xyz
x,y,z
1/2-y,x,1/2+z
1/2-x,1/2-y,z
y,1/2-x,1/2+z
1/2+x,-y,1/2-z
-x,1/2+y,1/2-z
1/2+y,1/2+x,-z
-y,-x,-z
-x,-y,-z
1/2+y,-x,1/2-z
1/2+x,1/2+y,-z
-y,1/2+x,1/2-z
1/2-x,y,1/2+z
x,1/2-y,1/2+z
1/2-y,1/2-x,z
y,x,z
loop_
_atom_site_type_symbol
_atom_site_label
_atom_site_fract_x
_atom_site_fract_y
_atom_site_fract_z
Si Si1 0.938922 0.273015 0.948586
Si Si2 0.952006 0.267297 0.264811
Si Si3 0.848723 0.972569 0.651573
Si Si4 0.037556 0.590829 0.566995
Si Si5 0.123910 0.657646 0.336196
Si Si6 0.200358 0.881420 0.581656
Si Si7 0.102291 0.521992 0.172352
O O1 0.962233 0.184743 0.934260
O O2 0.858417 0.308992 0.923109
O O3 0.003085 0.327030 0.916256
O O4 0.921640 0.280923 0.018681
O O5 0.921408 0.204287 0.216324
O O6 0.882481 0.301384 0.305726
O O7 0.982184 0.343519 0.230406
O O8 0.014377 0.226361 0.307407
O O9 0.889833 0.889833 0.654762
O O10 0.911154 0.036245 0.675795
O O11 0.067537 0.567537 0.500000
O O12 0.094593 0.575360 0.624204
O O13 0.957500 0.542501 0.575461
O O14 0.145088 0.722625 0.384790
O O15 0.157992 0.947649 0.620280
O O16 0.057518 0.442483 0.160101
#
# Coordination Sequence:
#
# PCOD9570723 Si02
#       7
#    16  16  16  16  16  16  16
#     4  10  19  37  55  83 110 147 184 227 285 338
#     4  11  21  34  53  81 113 150 185 225 280 339
#     4  10  20  35  53  80 113 145 189 235 276 331
#     4  11  23  38  57  83 115 151 189 233 282 340
#     4  11  22  36  54  84 118 148 185 227 283 351
#     4   9  20  34  57  86 113 144 179 229 286 343
#     4   9  19  36  54  77 110 144 181 225 276 336
#
# _framework density 16.989249999999998
#
# number of rings (size 3 to 8) (size 9 to 14) (size 15 to 20)
#    0.000    1.857    4.286    0.000    0.000    3.714 
#    0.000    2.857    0.000    1.714    0.000    0.000 
#    0.000    0.000    0.000    0.000    0.000    0.000 
#
# Total GULP energy -623829.050923 kJ/mol
# GULP energy per Si atom -5569.902240 kJ/mol
# Density = 1.695058 g / cm^3
# Si number density = 16.989250 Si / 1000 Ang^3
#
#
#
# Elastic Constant Matrix: (Units=GPa)
#
#
# Indices 1 2 3 4 5 6 
#
# 1 83.5860 63.0098 44.9659 0.0000 0.0000 0.0000
# 2 63.0098 83.5860 44.9659 0.0000 0.0000 0.0000
# 3 44.9659 44.9659 99.2332 0.0000 0.0000 0.0000
# 4 0.0000 0.0000 0.0000 12.4531 0.0000 0.0000
# 5 0.0000 0.0000 0.0000 0.0000 12.4531 0.0000
# 6 0.0000 0.0000 0.0000 0.0000 0.0000 32.4626
#
#
#
# Elastic Compliance Matrix: (Units=1/GPa)
#
#
# Indices 1 2 3 4 5 6 
#
# 1 0.029024 -0.019576 -0.004281 0.000000 0.000000 0.000000
# 2 -0.019576 0.029024 -0.004281 0.000000 0.000000 0.000000
# 3 -0.004281 -0.004281 0.013957 0.000000 0.000000 0.000000
# 4 0.000000 0.000000 0.000000 0.080302 0.000000 0.000000
# 5 0.000000 0.000000 0.000000 0.000000 0.080302 0.000000
# 6 0.000000 0.000000 0.000000 0.000000 0.000000 0.030805
#
#
# Mechanical properties :
#
#
# Convention : Reuss Voigt Hill
#
# Bulk Modulus (GPa) = 63.57989 63.58762 63.58375
# Shear Modulus (GPa) = 15.38784 19.03798 17.21291
#
# Velocity S-wave (km/s) = 3.01282 3.35115 3.18648
# Velocity P-wave (km/s) = 7.04327 7.24452 7.14460
#
# Compressibility (1/GPa) = 0.01572824
#
# Stress axis : x y z
#
# Youngs Moduli (GPa) = 34.45443 34.45443 71.64804
#
# Poissons Ratio (x) = 0.67448 0.30673
# Poissons Ratio (y) = 0.67448 0.30673
# Poissons Ratio (z) = 0.14750 0.14750
#
# Static dielectric constant tensor:
#      x y z
#    x 1.568140 0.000000 0.000000 
#    y 0.000000 1.568140 0.000000 
#    z 0.000000 0.000000 1.628670 
# 
# From -- ./inp_files/6486.got.cif
#   From: 2010.05.17/outbox.cif.g08.bks.cpg/sg138_4_cif.got.tgz:6486.got - 2010.05.20 13:08:53.
