data_PCOD9570317
_publ_section_title
;
Structure prediction by ZEFSAII (Michael W. Deem and Ramdas Pophale) SiO2 
 PCOD9570317
Probable space group: P 42/N M C
;
_chemical_formula_sum "Si O2"
_cell_formula_units_Z 42
_cell_length_a 7.969957
_cell_length_b 7.969957
_cell_length_c 33.460254
_cell_angle_alpha 90.000000
_cell_angle_beta 90.000000
_cell_angle_gamma 90.000000
_cell_volume 2125.402514
_symmetry_space_group_name_H-M "P 42/N M C"
_symmetry_group_IT_number 137
_space_group.IT_coordinate_system_code '2'
_symmetry_cell_setting 'tetragonal'
loop_
_space_group_symop_operation_xyz
x,y,z
1/2-y,x,1/2+z
1/2-x,1/2-y,z
y,1/2-x,1/2+z
1/2+x,-y,-z
-x,1/2+y,-z
1/2+y,1/2+x,1/2-z
-y,-x,1/2-z
-x,-y,-z
1/2+y,-x,1/2-z
1/2+x,1/2+y,-z
-y,1/2+x,1/2-z
1/2-x,y,z
x,1/2-y,z
1/2-y,1/2-x,1/2+z
y,x,1/2+z
loop_
_atom_site_type_symbol
_atom_site_label
_atom_site_fract_x
_atom_site_fract_y
_atom_site_fract_z
Si Si1 0.446894 0.939997 0.870027
Si Si2 0.062531 0.451328 0.043634
Si Si3 0.750000 0.957080 0.685758
Si Si4 0.250000 0.750000 0.250000
O O1 0.250000 0.924079 0.862533
O O2 0.520868 0.750000 0.865857
O O3 0.466791 0.999065 0.916035
O O4 0.504528 0.084364 0.840041
O O5 0.250000 0.517217 0.048097
O O6 0.063454 0.250000 0.043830
O O7 0.000000 0.500000 0.000000
O O8 0.750000 0.750000 0.692228
O O9 0.750000 0.078415 0.723936
#
# Coordination Sequence:
#
# PCOD9570317 Si02
#       4
#    16  16   8   2
#     4   9  19  38  62  86 118 161 205 249 312 373
#     4  10  21  34  51  80 116 158 205 253 301 357
#     4  10  24  44  66  96 128 160 204 264 318 382
#     4  12  28  44  68 104 124 156 220 252 332 400
#
# _framework density 19.760961999999999
#
# number of rings (size 3 to 8) (size 9 to 14) (size 15 to 20)
#    0.000    2.286    0.000    1.143    5.333    3.810 
#    0.000    0.000    0.000    0.000    0.000    0.000 
#    0.000    0.000    0.000    0.000    0.000    0.000 
#
# Total GULP energy -233928.347641 kJ/mol
# GULP energy per Si atom -5569.722563 kJ/mol
# Density = 1.971599 g / cm^3
# Si number density = 19.760962 Si / 1000 Ang^3
#
#
#
# Elastic Constant Matrix: (Units=GPa)
#
#
# Indices 1 2 3 4 5 6 
#
# 1 64.4750 38.3879 58.3078 0.0000 0.0000 0.0000
# 2 38.3879 64.4750 58.3078 0.0000 0.0000 0.0000
# 3 58.3078 58.3078 147.2292 0.0000 0.0000 0.0000
# 4 0.0000 0.0000 0.0000 46.0495 0.0000 0.0000
# 5 0.0000 0.0000 0.0000 0.0000 46.0495 0.0000
# 6 0.0000 0.0000 0.0000 0.0000 0.0000 9.7254
#
#
#
# Elastic Compliance Matrix: (Units=1/GPa)
#
#
# Indices 1 2 3 4 5 6 
#
# 1 0.027988 -0.010345 -0.006987 0.000000 0.000000 0.000000
# 2 -0.010345 0.027988 -0.006987 0.000000 0.000000 0.000000
# 3 -0.006987 -0.006987 0.012327 0.000000 0.000000 0.000000
# 4 0.000000 0.000000 0.000000 0.021716 0.000000 0.000000
# 5 0.000000 0.000000 0.000000 0.000000 0.021716 0.000000
# 6 0.000000 0.000000 0.000000 0.000000 0.000000 0.102824
#
#
# Mechanical properties :
#
#
# Convention : Reuss Voigt Hill
#
# Bulk Modulus (GPa) = 50.85513 65.13179 57.99346
# Shear Modulus (GPa) = 18.53552 28.44326 23.48939
#
# Velocity S-wave (km/s) = 3.06598 3.79801 3.45146
# Velocity P-wave (km/s) = 6.19069 7.22943 6.73013
#
# Compressibility (1/GPa) = 0.01966370
#
# Stress axis : x y z
#
# Youngs Moduli (GPa) = 35.72932 35.72932 81.12567
#
# Poissons Ratio (x) = 0.36962 0.56685
# Poissons Ratio (y) = 0.36962 0.56685
# Poissons Ratio (z) = 0.24965 0.24965
#
# Static dielectric constant tensor:
#      x y z
#    x 1.726880 0.000000 0.000000 
#    y 0.000000 1.726880 0.000000 
#    z 0.000000 0.000000 1.841900 
# 
# From -- ./inp_files/9325.got.cif
#   From: 2010.05.17/outbox.cif.g08.bks.cpg/sg137_5_cif.got.tgz:9325.got - 2010.05.20 13:01:12.
