data_PCOD9570503
_publ_section_title
;
Structure prediction by ZEFSAII (Michael W. Deem and Ramdas Pophale) SiO2 
 PCOD9570503
Probable space group: P 42/N M C
;
_chemical_formula_sum "Si O2"
_cell_formula_units_Z 56
_cell_length_a 17.880402
_cell_length_b 17.880402
_cell_length_c 8.214098
_cell_angle_alpha 90.000000
_cell_angle_beta 90.000000
_cell_angle_gamma 90.000000
_cell_volume 2626.119215
_symmetry_space_group_name_H-M "P 42/N M C"
_symmetry_group_IT_number 137
_space_group.IT_coordinate_system_code '2'
_symmetry_cell_setting 'tetragonal'
loop_
_space_group_symop_operation_xyz
x,y,z
1/2-y,x,1/2+z
1/2-x,1/2-y,z
y,1/2-x,1/2+z
1/2+x,-y,-z
-x,1/2+y,-z
1/2+y,1/2+x,1/2-z
-y,-x,1/2-z
-x,-y,-z
1/2+y,-x,1/2-z
1/2+x,1/2+y,-z
-y,1/2+x,1/2-z
1/2-x,y,z
x,1/2-y,z
1/2-y,1/2-x,1/2+z
y,x,1/2+z
loop_
_atom_site_type_symbol
_atom_site_label
_atom_site_fract_x
_atom_site_fract_y
_atom_site_fract_z
Si Si1 0.580643 0.591533 0.548159
Si Si2 0.162145 0.335108 0.703808
Si Si3 0.662116 0.337885 0.250000
Si Si4 0.912567 0.413526 0.560433
O O1 0.644635 0.648901 0.486807
O O2 0.592616 0.614385 0.736712
O O3 0.498495 0.608006 0.481143
O O4 0.593800 0.503214 0.543052
O O5 0.250000 0.340508 0.729770
O O6 0.136033 0.250000 0.737464
O O7 0.750000 0.351679 0.231050
O O8 0.634909 0.377240 0.415888
O O9 0.894687 0.394687 0.750000
#
# Coordination Sequence:
#
# PCOD9570503 Si02
#       4
#    16  16   8  16
#     4  11  22  41  64  94 134 171 222 273 322 398
#     4  11  23  38  59  93 138 180 216 261 319 388
#     4  11  28  50  70  98 134 174 228 293 356 416
#     4  11  24  45  72 101 131 173 227 286 345 404
#
# _framework density 21.324241000000001
#
# number of rings (size 3 to 8) (size 9 to 14) (size 15 to 20)
#    0.000    1.000    2.857    3.429    4.000   10.286 
#    0.000    1.429    0.000    0.000    0.000    0.000 
#    0.000    0.000    0.000    0.000    0.000    0.000 
#
# Total GULP energy -312015.179424 kJ/mol
# GULP energy per Si atom -5571.699633 kJ/mol
# Density = 2.127571 g / cm^3
# Si number density = 21.324241 Si / 1000 Ang^3
#
#
#
# Elastic Constant Matrix: (Units=GPa)
#
#
# Indices 1 2 3 4 5 6 
#
# 1 67.5863 23.5580 29.6177 0.0000 0.0000 0.0000
# 2 23.5580 67.5870 29.6189 0.0000 0.0000 0.0000
# 3 29.6177 29.6189 58.0827 0.0000 0.0000 0.0000
# 4 0.0000 0.0000 0.0000 49.1490 0.0000 0.0000
# 5 0.0000 0.0000 0.0000 0.0000 49.1477 0.0000
# 6 0.0000 0.0000 0.0000 0.0000 0.0000 29.7021
#
#
#
# Elastic Compliance Matrix: (Units=1/GPa)
#
#
# Indices 1 2 3 4 5 6 
#
# 1 0.019561 -0.003151 -0.008368 0.000000 0.000000 0.000000
# 2 -0.003151 0.019561 -0.008368 0.000000 0.000000 0.000000
# 3 -0.008368 -0.008368 0.025751 0.000000 0.000000 0.000000
# 4 0.000000 0.000000 0.000000 0.020346 0.000000 0.000000
# 5 0.000000 0.000000 0.000000 0.000000 0.020347 0.000000
# 6 0.000000 0.000000 0.000000 0.000000 0.000000 0.033668
#
#
# Mechanical properties :
#
#
# Convention : Reuss Voigt Hill
#
# Bulk Modulus (GPa) = 39.84204 39.87171 39.85688
# Shear Modulus (GPa) = 26.68440 32.96387 29.82414
#
# Velocity S-wave (km/s) = 3.54130 3.93598 3.74385
# Velocity P-wave (km/s) = 5.95362 6.27649 6.11719
#
# Compressibility (1/GPa) = 0.02509911
#
# Stress axis : x y z
#
# Youngs Moduli (GPa) = 51.12160 51.12112 38.83328
#
# Poissons Ratio (x) = 0.16109 0.32495
# Poissons Ratio (y) = 0.16109 0.32497
# Poissons Ratio (z) = 0.42777 0.42780
#
# Static dielectric constant tensor:
#      x y z
#    x 1.713070 0.000000 0.000000 
#    y 0.000000 1.713070 0.000000 
#    z 0.000000 0.000000 1.841650 
# 
# From -- ./inp_files/1526.got.cif
#   From: 2010.05.17/outbox.cif.g08.bks.cpg/sg137_1_cif.got.tgz:1526.got - 2010.05.20 13:01:12.
