data_PCOD9570041
_publ_section_title
;
Structure prediction by ZEFSAII (Michael W. Deem and Ramdas Pophale) SiO2 
 PCOD9570041
Probable space group: P 42/N M C
;
_chemical_formula_sum "Si O2"
_cell_formula_units_Z 48
_cell_length_a 7.678139
_cell_length_b 7.678139
_cell_length_c 39.927095
_cell_angle_alpha 90.000000
_cell_angle_beta 90.000000
_cell_angle_gamma 90.000000
_cell_volume 2353.854712
_symmetry_space_group_name_H-M "P 42/N M C"
_symmetry_group_IT_number 137
_space_group.IT_coordinate_system_code '2'
_symmetry_cell_setting 'tetragonal'
loop_
_space_group_symop_operation_xyz
x,y,z
1/2-y,x,1/2+z
1/2-x,1/2-y,z
y,1/2-x,1/2+z
1/2+x,-y,-z
-x,1/2+y,-z
1/2+y,1/2+x,1/2-z
-y,-x,1/2-z
-x,-y,-z
1/2+y,-x,1/2-z
1/2+x,1/2+y,-z
-y,1/2+x,1/2-z
1/2-x,y,z
x,1/2-y,z
1/2-y,1/2-x,1/2+z
y,x,1/2+z
loop_
_atom_site_type_symbol
_atom_site_label
_atom_site_fract_x
_atom_site_fract_y
_atom_site_fract_z
Si Si1 0.550895 0.462579 0.787395
Si Si2 0.750000 0.536824 0.162907
Si Si3 0.036268 0.250000 0.413905
Si Si4 0.959508 0.443809 0.537866
O O1 0.489109 0.510892 0.750000
O O2 0.750000 0.520939 0.792406
O O3 0.553593 0.250000 0.787196
O O4 0.419505 0.518744 0.816192
O O5 0.750000 0.750000 0.162726
O O6 0.750000 0.479574 0.124507
O O7 0.250000 0.250000 0.413784
O O8 0.977766 0.417334 0.435060
O O9 0.750000 0.439684 0.540593
O O10 0.027527 0.250000 0.543661
O O11 0.000000 0.500000 0.500000
#
# Coordination Sequence:
#
# PCOD9570041 Si02
#       4
#    16   8   8  16
#     4   8  14  25  42  67  96 124 162 203 242 301
#     4   9  16  26  44  70 100 134 163 203 267 310
#     4   9  18  30  43  69 105 127 165 221 259 309
#     4  10  19  31  49  72  97 130 171 214 259 309
#
# _framework density 20.392084000000001
#
# number of rings (size 3 to 8) (size 9 to 14) (size 15 to 20)
#    0.000    3.000    1.667    1.000    0.000    1.333 
#    0.000    6.667    0.000    0.500    8.667    0.000 
#    0.000    0.000    0.000    0.000    0.000    0.000 
#
# Total GULP energy -267930.815314 kJ/mol
# GULP energy per Si atom -5581.891986 kJ/mol
# Density = 2.034567 g / cm^3
# Si number density = 20.392084 Si / 1000 Ang^3
#
#
#
# Elastic Constant Matrix: (Units=GPa)
#
#
# Indices 1 2 3 4 5 6 
#
# 1 93.1762 25.7974 72.7913 0.0000 0.0000 0.0000
# 2 25.7974 93.1762 72.7911 0.0000 0.0000 0.0000
# 3 72.7913 72.7911 236.7209 0.0000 0.0000 0.0000
# 4 0.0000 0.0000 0.0000 18.8451 0.0000 0.0000
# 5 0.0000 0.0000 0.0000 0.0000 18.8453 0.0000
# 6 0.0000 0.0000 0.0000 0.0000 0.0000 2.9852
#
#
#
# Elastic Compliance Matrix: (Units=1/GPa)
#
#
# Indices 1 2 3 4 5 6 
#
# 1 0.014159 -0.000683 -0.004144 0.000000 0.000000 0.000000
# 2 -0.000683 0.014159 -0.004144 0.000000 0.000000 0.000000
# 3 -0.004144 -0.004144 0.006773 0.000000 0.000000 0.000000
# 4 0.000000 0.000000 0.000000 0.053064 0.000000 0.000000
# 5 0.000000 0.000000 0.000000 0.000000 0.053064 0.000000
# 6 0.000000 0.000000 0.000000 0.000000 0.000000 0.334981
#
#
# Mechanical properties :
#
#
# Convention : Reuss Voigt Hill
#
# Bulk Modulus (GPa) = 58.31165 85.09254 71.70210
# Shear Modulus (GPa) = 10.00289 24.91471 17.45880
#
# Velocity S-wave (km/s) = 2.21719 3.49919 2.92919
# Velocity P-wave (km/s) = 5.93396 7.62526 6.83215
#
# Compressibility (1/GPa) = 0.01714923
#
# Stress axis : x y z
#
# Youngs Moduli (GPa) = 70.62839 70.62844 147.64979
#
# Poissons Ratio (x) = 0.04823 0.61183
# Poissons Ratio (y) = 0.04823 0.61183
# Poissons Ratio (z) = 0.29267 0.29267
#
# Static dielectric constant tensor:
#      x y z
#    x 1.752650 0.000000 0.000000 
#    y 0.000000 1.752650 0.000000 
#    z 0.000000 0.000000 1.668690 
# 
# From -- ./inp_files/10051.got.cif
#   From: 2010.05.17/outbox.cif.g08.bks.cpg/sg137_6_cif.got.tgz:10051.got - 2010.05.20 13:01:12.
