data_PCOD9570448
_publ_section_title
;
Structure prediction by ZEFSAII (Michael W. Deem and Ramdas Pophale) SiO2 
 PCOD9570448
Probable space group: P 42/N M C
;
_chemical_formula_sum "Si O2"
_cell_formula_units_Z 48
_cell_length_a 10.180863
_cell_length_b 10.180863
_cell_length_c 21.480147
_cell_angle_alpha 90.000000
_cell_angle_beta 90.000000
_cell_angle_gamma 90.000000
_cell_volume 2226.416623
_symmetry_space_group_name_H-M "P 42/N M C"
_symmetry_group_IT_number 137
_space_group.IT_coordinate_system_code '2'
_symmetry_cell_setting 'tetragonal'
loop_
_space_group_symop_operation_xyz
x,y,z
1/2-y,x,1/2+z
1/2-x,1/2-y,z
y,1/2-x,1/2+z
1/2+x,-y,-z
-x,1/2+y,-z
1/2+y,1/2+x,1/2-z
-y,-x,1/2-z
-x,-y,-z
1/2+y,-x,1/2-z
1/2+x,1/2+y,-z
-y,1/2+x,1/2-z
1/2-x,y,z
x,1/2-y,z
1/2-y,1/2-x,1/2+z
y,x,1/2+z
loop_
_atom_site_type_symbol
_atom_site_label
_atom_site_fract_x
_atom_site_fract_y
_atom_site_fract_z
Si Si1 0.750000 0.599229 0.976089
Si Si2 0.406659 0.250000 0.714763
Si Si3 0.024609 0.473588 0.621315
Si Si4 0.250000 0.091465 0.362725
Si Si5 0.750000 0.391325 0.086424
O O1 0.750000 0.750000 0.995324
O O2 0.879529 0.574471 0.934010
O O3 0.750000 0.501729 0.033771
O O4 0.250000 0.250000 0.703111
O O5 0.461944 0.119409 0.681550
O O6 0.429840 0.250000 0.788073
O O7 0.096230 0.614642 0.624970
O O8 0.876193 0.519040 0.610437
O O9 0.250000 0.250000 0.370101
O O10 0.750000 0.250000 0.054769
#
# Coordination Sequence:
#
# PCOD9570448 Si02
#       5
#     8   8  16   8   8
#     4  11  26  44  69  99 135 183 227 282 340 403
#     4  10  22  42  68  95 133 174 222 275 344 405
#     4  11  23  42  66  96 136 174 230 277 335 399
#     4  11  23  41  68  98 133 179 216 277 347 412
#     4  12  25  41  69 100 137 179 230 277 340 401
#
# _framework density 21.559305999999999
#
# number of rings (size 3 to 8) (size 9 to 14) (size 15 to 20)
#    0.000    1.000    1.667    6.000    4.667    2.000 
#    0.000    3.333    0.000    0.000    0.000    0.000 
#    0.000    0.000    0.000    0.000    0.000    0.000 
#
# Total GULP energy -268436.078732 kJ/mol
# GULP energy per Si atom -5592.418307 kJ/mol
# Density = 2.151024 g / cm^3
# Si number density = 21.559306 Si / 1000 Ang^3
#
#
#
# Elastic Constant Matrix: (Units=GPa)
#
#
# Indices 1 2 3 4 5 6 
#
# 1 176.9562 39.5048 26.1571 0.0000 0.0000 0.0000
# 2 39.5048 176.9562 26.1571 0.0000 0.0000 0.0000
# 3 26.1571 26.1571 75.0666 0.0000 0.0000 0.0000
# 4 0.0000 0.0000 0.0000 11.0911 0.0000 0.0000
# 5 0.0000 0.0000 0.0000 0.0000 11.0911 0.0000
# 6 0.0000 0.0000 0.0000 0.0000 0.0000 31.2231
#
#
#
# Elastic Compliance Matrix: (Units=1/GPa)
#
#
# Indices 1 2 3 4 5 6 
#
# 1 0.006160 -0.001115 -0.001758 0.000000 0.000000 0.000000
# 2 -0.001115 0.006160 -0.001758 0.000000 0.000000 0.000000
# 3 -0.001758 -0.001758 0.014547 0.000000 0.000000 0.000000
# 4 0.000000 0.000000 0.000000 0.090162 0.000000 0.000000
# 5 0.000000 0.000000 0.000000 0.000000 0.090162 0.000000
# 6 0.000000 0.000000 0.000000 0.000000 0.000000 0.032028
#
#
# Mechanical properties :
#
#
# Convention : Reuss Voigt Hill
#
# Bulk Modulus (GPa) = 56.80358 68.06853 62.43606
# Shear Modulus (GPa) = 19.65805 33.15841 26.40823
#
# Velocity S-wave (km/s) = 3.02290 3.92600 3.50367
# Velocity P-wave (km/s) = 6.21198 7.22444 6.73726
#
# Compressibility (1/GPa) = 0.01760452
#
# Stress axis : x y z
#
# Youngs Moduli (GPa) = 162.33910 162.33910 68.74497
#
# Poissons Ratio (x) = 0.18107 0.12084
# Poissons Ratio (y) = 0.18107 0.12084
# Poissons Ratio (z) = 0.28536 0.28536
#
# Static dielectric constant tensor:
#      x y z
#    x 1.804080 0.000000 0.000000 
#    y 0.000000 1.804080 0.000000 
#    z 0.000000 0.000000 1.772350 
# 
# From -- ./inp_files/10073.got.cif
#   From: 2010.05.17/outbox.cif.g08.bks.cpg/sg137_6_cif.got.tgz:10073.got - 2010.05.20 13:01:12.
