data_PCOD9570380
_publ_section_title
;
Structure prediction by ZEFSAII (Michael W. Deem and Ramdas Pophale) SiO2 
 PCOD9570380
Probable space group: P 42/N M C
;
_chemical_formula_sum "Si O2"
_cell_formula_units_Z 96
_cell_length_a 22.616002
_cell_length_b 22.616002
_cell_length_c 9.526186
_cell_angle_alpha 90.000000
_cell_angle_beta 90.000000
_cell_angle_gamma 90.000000
_cell_volume 4872.487400
_symmetry_space_group_name_H-M "P 42/N M C"
_symmetry_group_IT_number 137
_space_group.IT_coordinate_system_code '2'
_symmetry_cell_setting 'tetragonal'
loop_
_space_group_symop_operation_xyz
x,y,z
1/2-y,x,1/2+z
1/2-x,1/2-y,z
y,1/2-x,1/2+z
1/2+x,-y,-z
-x,1/2+y,-z
1/2+y,1/2+x,1/2-z
-y,-x,1/2-z
-x,-y,-z
1/2+y,-x,1/2-z
1/2+x,1/2+y,-z
-y,1/2+x,1/2-z
1/2-x,y,z
x,1/2-y,z
1/2-y,1/2-x,1/2+z
y,x,1/2+z
loop_
_atom_site_type_symbol
_atom_site_label
_atom_site_fract_x
_atom_site_fract_y
_atom_site_fract_z
Si Si1 0.972901 0.878837 0.610650
Si Si2 0.321295 0.583299 0.719239
Si Si3 0.184880 0.397819 0.569822
Si Si4 0.145929 0.317663 0.345945
Si Si5 0.987736 0.914892 0.284674
Si Si6 0.984629 0.179205 0.941934
O O1 0.921403 0.829132 0.603671
O O2 0.982372 0.903045 0.451958
O O3 0.943507 0.929778 0.709373
O O4 0.031510 0.851825 0.684888
O O5 0.356086 0.643915 0.750000
O O6 0.250000 0.584350 0.743443
O O7 0.330219 0.567903 0.553113
O O8 0.250000 0.413038 0.625377
O O9 0.186945 0.360193 0.431758
O O10 0.159525 0.355506 0.686813
O O11 0.156026 0.458995 0.531917
O O12 0.164056 0.250000 0.358039
O O13 0.009078 0.855852 0.202387
O O14 0.037976 0.962025 0.250000
O O15 0.990604 0.250000 0.919595
#
# Coordination Sequence:
#
# PCOD9570380 Si02
#       6
#    16  16  16  16  16  16
#     4  12  22  38  59  90 124 160 203 248 308 361
#     4  11  23  42  67  92 123 160 201 254 317 383
#     4  10  21  38  56  78 113 154 199 246 293 344
#     4  11  22  37  57  82 113 153 200 247 291 344
#     4  12  24  38  60  90 125 162 205 252 302 366
#     4  10  21  40  61  86 122 161 199 248 309 361
#
# _framework density 19.702462000000001
#
# number of rings (size 3 to 8) (size 9 to 14) (size 15 to 20)
#    0.000    1.000    3.333    4.500    0.000    2.500 
#    0.000    1.667    0.000    0.000    0.000    0.000 
#    0.000    4.000    0.000    0.000    0.000    0.000 
#
# Total GULP energy -535077.776833 kJ/mol
# GULP energy per Si atom -5573.726842 kJ/mol
# Density = 1.965762 g / cm^3
# Si number density = 19.702462 Si / 1000 Ang^3
#
#
#
# Elastic Constant Matrix: (Units=GPa)
#
#
# Indices 1 2 3 4 5 6 
#
# 1 78.4779 38.2244 26.7093 0.0000 0.0000 0.0000
# 2 38.2244 78.4698 26.7060 0.0000 0.0000 0.0000
# 3 26.7093 26.7060 105.6176 0.0000 0.0000 0.0000
# 4 0.0000 0.0000 0.0000 26.1218 0.0000 0.0000
# 5 0.0000 0.0000 0.0000 0.0000 26.1239 0.0000
# 6 0.0000 0.0000 0.0000 0.0000 0.0000 113.2741
#
#
#
# Elastic Compliance Matrix: (Units=1/GPa)
#
#
# Indices 1 2 3 4 5 6 
#
# 1 0.017267 -0.007577 -0.002451 0.000000 0.000000 0.000000
# 2 -0.007577 0.017269 -0.002450 0.000000 0.000000 0.000000
# 3 -0.002451 -0.002450 0.010707 0.000000 0.000000 0.000000
# 4 0.000000 0.000000 0.000000 0.038282 0.000000 0.000000
# 5 0.000000 0.000000 0.000000 0.000000 0.038279 0.000000
# 6 0.000000 0.000000 0.000000 0.000000 0.000000 0.008828
#
#
# Mechanical properties :
#
#
# Convention : Reuss Voigt Hill
#
# Bulk Modulus (GPa) = 49.29286 49.53831 49.41559
# Shear Modulus (GPa) = 30.79738 44.49899 37.64819
#
# Velocity S-wave (km/s) = 3.95792 4.75758 4.37605
# Velocity P-wave (km/s) = 6.77937 7.44158 7.11818
#
# Compressibility (1/GPa) = 0.02028691
#
# Stress axis : x y z
#
# Youngs Moduli (GPa) = 57.91343 57.90828 93.39298
#
# Poissons Ratio (x) = 0.43878 0.22888
# Poissons Ratio (y) = 0.43882 0.22884
# Poissons Ratio (z) = 0.14193 0.14189
#
# Static dielectric constant tensor:
#      x y z
#    x 1.731570 0.000000 0.000000 
#    y 0.000000 1.731570 0.000000 
#    z 0.000000 0.000000 1.756000 
# 
# From -- ./inp_files/2141.got.cif
#   From: 2010.05.17/outbox.cif.g08.bks.cpg/sg137_2_cif.got.tgz:2141.got - 2010.05.20 13:01:12.
