data_PCOD9570789
_publ_section_title
;
Structure prediction by ZEFSAII (Michael W. Deem and Ramdas Pophale) SiO2 
 PCOD9570789
Probable space group: P 42/N C M
;
_chemical_formula_sum "Si O2"
_cell_formula_units_Z 60
_cell_length_a 13.594760
_cell_length_b 13.594760
_cell_length_c 15.573589
_cell_angle_alpha 90.000000
_cell_angle_beta 90.000000
_cell_angle_gamma 90.000000
_cell_volume 2878.271777
_symmetry_space_group_name_H-M "P 42/N C M"
_symmetry_group_IT_number 138
_space_group.IT_coordinate_system_code '2'
_symmetry_cell_setting 'tetragonal'
loop_
_space_group_symop_operation_xyz
x,y,z
1/2-y,x,1/2+z
1/2-x,1/2-y,z
y,1/2-x,1/2+z
1/2+x,-y,1/2-z
-x,1/2+y,1/2-z
1/2+y,1/2+x,-z
-y,-x,-z
-x,-y,-z
1/2+y,-x,1/2-z
1/2+x,1/2+y,-z
-y,1/2+x,1/2-z
1/2-x,y,1/2+z
x,1/2-y,1/2+z
1/2-y,1/2-x,z
y,x,z
loop_
_atom_site_type_symbol
_atom_site_label
_atom_site_fract_x
_atom_site_fract_y
_atom_site_fract_z
Si Si1 0.379777 0.620224 0.500000
Si Si2 0.030937 0.469064 0.680920
Si Si3 0.250000 0.250000 0.797255
Si Si4 0.891316 0.608684 0.597393
Si Si5 0.855556 0.855556 0.365352
Si Si6 0.794552 0.496879 0.446116
Si Si7 0.478253 0.021748 0.872118
O O1 0.275736 0.597269 0.543058
O O2 0.397103 0.533134 0.429848
O O3 0.991317 0.375092 0.628712
O O4 0.948091 0.551910 0.672492
O O5 0.057412 0.442589 0.779185
O O6 0.312785 0.312785 0.869870
O O7 0.310409 0.310409 0.720435
O O8 0.843462 0.525906 0.535843
O O9 0.771826 0.910330 0.418902
O O10 0.939096 0.939096 0.355430
#
# Coordination Sequence:
#
# PCOD9570789 Si02
#       7
#     8   8   4   8   8  16   8
#     4   9  20  38  63  92 118 173 217 256 316 395
#     4  11  22  40  58  89 130 171 205 266 331 371
#     4  12  20  32  62  90 126 148 214 268 296 394
#     4  11  23  37  56  92 122 165 206 253 332 374
#     4  10  20  35  57  97 116 156 211 265 311 369
#     4  10  21  38  60  85 128 164 210 259 316 382
#     4   9  19  40  60  87 136 158 209 262 332 378
#
# _framework density 20.845842999999999
#
# number of rings (size 3 to 8) (size 9 to 14) (size 15 to 20)
#    0.000    1.867    1.333    4.800    0.000    4.267 
#    0.000    2.667    0.000    0.000    0.000    0.000 
#    0.000    0.000    0.000    0.000    0.000    0.000 
#
# Total GULP energy -334061.778055 kJ/mol
# GULP energy per Si atom -5567.696301 kJ/mol
# Density = 2.079840 g / cm^3
# Si number density = 20.845843 Si / 1000 Ang^3
#
#
#
# Elastic Constant Matrix: (Units=GPa)
#
#
# Indices 1 2 3 4 5 6 
#
# 1 76.1594 18.4779 14.6300 0.0000 0.0000 0.0000
# 2 18.4779 76.1597 14.6301 0.0000 0.0000 0.0000
# 3 14.6300 14.6301 126.0243 0.0000 0.0000 0.0000
# 4 0.0000 0.0000 0.0000 43.3277 0.0000 0.0000
# 5 0.0000 0.0000 0.0000 0.0000 43.3288 0.0000
# 6 0.0000 0.0000 0.0000 0.0000 0.0000 32.8296
#
#
#
# Elastic Compliance Matrix: (Units=1/GPa)
#
#
# Indices 1 2 3 4 5 6 
#
# 1 0.014148 -0.003188 -0.001272 0.000000 0.000000 0.000000
# 2 -0.003188 0.014148 -0.001272 0.000000 0.000000 0.000000
# 3 -0.001272 -0.001272 0.008230 0.000000 0.000000 0.000000
# 4 0.000000 0.000000 0.000000 0.023080 0.000000 0.000000
# 5 0.000000 0.000000 0.000000 0.000000 0.023079 0.000000
# 6 0.000000 0.000000 0.000000 0.000000 0.000000 0.030460
#
#
# Mechanical properties :
#
#
# Convention : Reuss Voigt Hill
#
# Bulk Modulus (GPa) = 39.90250 41.53547 40.71899
# Shear Modulus (GPa) = 37.60358 39.27092 38.43725
#
# Velocity S-wave (km/s) = 4.25183 4.34507 4.29870
# Velocity P-wave (km/s) = 6.57931 6.71872 6.64938
#
# Compressibility (1/GPa) = 0.02506108
#
# Stress axis : x y z
#
# Youngs Moduli (GPa) = 70.67982 70.68009 121.50095
#
# Poissons Ratio (x) = 0.22535 0.15459
# Poissons Ratio (y) = 0.22535 0.15459
# Poissons Ratio (z) = 0.08993 0.08993
#
# Static dielectric constant tensor:
#      x y z
#    x 1.778260 0.000000 0.000000 
#    y 0.000000 1.778260 0.000000 
#    z 0.000000 0.000000 1.732430 
# 
# From -- ./inp_files/3986.got.cif
#   From: 2010.05.17/outbox.cif.g08.bks.cpg/sg138_2_cif.got.tgz:3986.got - 2010.05.20 13:08:53.
