data_PCOD9570187
_publ_section_title
;
Structure prediction by ZEFSAII (Michael W. Deem and Ramdas Pophale) SiO2 
 PCOD9570187
Probable space group: P 42/N M C
;
_chemical_formula_sum "Si O2"
_cell_formula_units_Z 64
_cell_length_a 19.893782
_cell_length_b 19.893782
_cell_length_c 9.973111
_cell_angle_alpha 90.000000
_cell_angle_beta 90.000000
_cell_angle_gamma 90.000000
_cell_volume 3946.983963
_symmetry_space_group_name_H-M "P 42/N M C"
_symmetry_group_IT_number 137
_space_group.IT_coordinate_system_code '2'
_symmetry_cell_setting 'tetragonal'
loop_
_space_group_symop_operation_xyz
x,y,z
1/2-y,x,1/2+z
1/2-x,1/2-y,z
y,1/2-x,1/2+z
1/2+x,-y,-z
-x,1/2+y,-z
1/2+y,1/2+x,1/2-z
-y,-x,1/2-z
-x,-y,-z
1/2+y,-x,1/2-z
1/2+x,1/2+y,-z
-y,1/2+x,1/2-z
1/2-x,y,z
x,1/2-y,z
1/2-y,1/2-x,1/2+z
y,x,1/2+z
loop_
_atom_site_type_symbol
_atom_site_label
_atom_site_fract_x
_atom_site_fract_y
_atom_site_fract_z
Si Si1 0.173859 0.489872 0.807658
Si Si2 0.025865 0.044448 0.875866
Si Si3 0.467262 0.825316 0.003610
Si Si4 0.176748 0.642930 0.901409
O O1 0.250000 0.462128 0.828936
O O2 0.106764 0.453425 0.859301
O O3 0.166026 0.503428 0.647915
O O4 0.172126 0.562769 0.878974
O O5 0.993130 0.006871 0.750000
O O6 0.996998 0.118400 0.900528
O O7 0.000000 0.000000 0.000000
O O8 0.482786 0.750000 0.048285
O O9 0.387143 0.833486 0.984671
O O10 0.171362 0.671362 0.750000
O O11 0.250000 0.660130 0.957103
#
# Coordination Sequence:
#
# PCOD9570187 Si02
#       4
#    16  16  16  16
#     4   9  17  31  53  80 106 136 182 230 273 318
#     4  12  20  35  58  82 108 143 183 224 271 320
#     4  10  20  33  50  77 111 146 181 223 271 323
#     4   9  15  25  44  73 105 140 181 221 258 308
#
# _framework density 16.214912000000002
#
# number of rings (size 3 to 8) (size 9 to 14) (size 15 to 20)
#    0.000    2.000    5.000    3.000    0.000    1.750 
#    0.000    2.500    0.000    0.750    0.000    3.500 
#    0.000    0.000    0.000    0.000    0.000    0.000 
#
# Total GULP energy -356660.825691 kJ/mol
# GULP energy per Si atom -5572.825401 kJ/mol
# Density = 1.617801 g / cm^3
# Si number density = 16.214912 Si / 1000 Ang^3
#
#
#
# Elastic Constant Matrix: (Units=GPa)
#
#
# Indices 1 2 3 4 5 6 
#
# 1 118.2963 52.8135 27.3825 0.0000 0.0000 0.0000
# 2 52.8135 118.2975 27.3831 0.0000 0.0000 0.0000
# 3 27.3825 27.3831 50.0847 0.0000 0.0000 0.0000
# 4 0.0000 0.0000 0.0000 16.1838 0.0000 0.0000
# 5 0.0000 0.0000 0.0000 0.0000 16.1836 0.0000
# 6 0.0000 0.0000 0.0000 0.0000 0.0000 16.6842
#
#
#
# Elastic Compliance Matrix: (Units=1/GPa)
#
#
# Indices 1 2 3 4 5 6 
#
# 1 0.011177 -0.004094 -0.003873 0.000000 0.000000 0.000000
# 2 -0.004094 0.011177 -0.003873 0.000000 0.000000 0.000000
# 3 -0.003873 -0.003873 0.024201 0.000000 0.000000 0.000000
# 4 0.000000 0.000000 0.000000 0.061790 0.000000 0.000000
# 5 0.000000 0.000000 0.000000 0.000000 0.061791 0.000000
# 6 0.000000 0.000000 0.000000 0.000000 0.000000 0.059937
#
#
# Mechanical properties :
#
#
# Convention : Reuss Voigt Hill
#
# Bulk Modulus (GPa) = 43.71215 55.75962 49.73589
# Shear Modulus (GPa) = 19.12939 21.75030 20.43984
#
# Velocity S-wave (km/s) = 3.43846 3.66645 3.55429
# Velocity P-wave (km/s) = 6.54068 7.23784 6.89808
#
# Compressibility (1/GPa) = 0.02287693
#
# Stress axis : x y z
#
# Youngs Moduli (GPa) = 89.46603 89.46653 41.32062
#
# Poissons Ratio (x) = 0.36625 0.16003
# Poissons Ratio (y) = 0.36624 0.16003
# Poissons Ratio (z) = 0.34648 0.34650
#
# Static dielectric constant tensor:
#      x y z
#    x 1.559150 0.000000 0.000000 
#    y 0.000000 1.559150 0.000000 
#    z 0.000000 0.000000 1.531450 
# 
# From -- ./inp_files/1805.got.cif
#   From: 2010.05.17/outbox.cif.g08.bks.cpg/sg137_1_cif.got.tgz:1805.got - 2010.05.20 13:01:12.
