data_PCOD9570737
_publ_section_title
;
Structure prediction by ZEFSAII (Michael W. Deem and Ramdas Pophale) SiO2 
 PCOD9570737
Probable space group: P 42/N C M
;
_chemical_formula_sum "Si O2"
_cell_formula_units_Z 80
_cell_length_a 13.394721
_cell_length_b 13.394721
_cell_length_c 23.527364
_cell_angle_alpha 90.000000
_cell_angle_beta 90.000000
_cell_angle_gamma 90.000000
_cell_volume 4221.245550
_symmetry_space_group_name_H-M "P 42/N C M"
_symmetry_group_IT_number 138
_space_group.IT_coordinate_system_code '2'
_symmetry_cell_setting 'tetragonal'
loop_
_space_group_symop_operation_xyz
x,y,z
1/2-y,x,1/2+z
1/2-x,1/2-y,z
y,1/2-x,1/2+z
1/2+x,-y,1/2-z
-x,1/2+y,1/2-z
1/2+y,1/2+x,-z
-y,-x,-z
-x,-y,-z
1/2+y,-x,1/2-z
1/2+x,1/2+y,-z
-y,1/2+x,1/2-z
1/2-x,y,1/2+z
x,1/2-y,1/2+z
1/2-y,1/2-x,z
y,x,z
loop_
_atom_site_type_symbol
_atom_site_label
_atom_site_fract_x
_atom_site_fract_y
_atom_site_fract_z
Si Si1 0.350080 0.988624 0.146205
Si Si2 0.011949 0.843996 0.218413
Si Si3 0.179370 0.488320 0.877850
Si Si4 0.526980 0.369942 0.147171
Si Si5 0.137430 0.523032 0.455184
O O1 0.330854 0.988160 0.214202
O O2 0.418468 0.896063 0.127752
O O3 0.239477 0.984310 0.122366
O O4 0.412388 0.087613 0.132136
O O5 0.114946 0.899316 0.200672
O O6 0.991392 0.748667 0.178799
O O7 0.924501 0.924501 0.205961
O O8 0.111040 0.388961 0.879603
O O9 0.251371 0.499640 0.932963
O O10 0.420918 0.420918 0.160441
O O11 0.583260 0.436234 0.100916
O O12 0.110121 0.610121 0.500000
O O13 0.077085 0.422915 0.473916
#
# Coordination Sequence:
#
# PCOD9570737 Si02
#       5
#    16  16  16  16  16
#     4  10  20  32  47  73 108 141 174 214 262 319
#     4   9  18  31  49  74 104 140 177 214 262 322
#     4  10  20  34  53  80 113 143 178 228 279 330
#     4   9  18  34  52  70  97 133 174 217 261 317
#     4   9  19  37  59  80 102 132 175 226 276 325
#
# _framework density 18.951751999999999
#
# number of rings (size 3 to 8) (size 9 to 14) (size 15 to 20)
#    0.000    2.600    0.000    3.000    0.000    7.600 
#    0.000    9.000    0.000    6.000    0.000    0.000 
#    0.000    0.000    0.000    0.000    0.000    0.000 
#
# Total GULP energy -445396.845466 kJ/mol
# GULP energy per Si atom -5567.460568 kJ/mol
# Density = 1.890862 g / cm^3
# Si number density = 18.951752 Si / 1000 Ang^3
#
#
#
# Elastic Constant Matrix: (Units=GPa)
#
#
# Indices 1 2 3 4 5 6 
#
# 1 122.0204 55.0033 4.8821 0.0000 0.0000 0.0000
# 2 55.0033 122.0204 4.8821 0.0000 0.0000 0.0000
# 3 4.8821 4.8821 30.4671 0.0000 0.0000 0.0000
# 4 0.0000 0.0000 0.0000 21.0748 0.0000 0.0000
# 5 0.0000 0.0000 0.0000 0.0000 21.0748 0.0000
# 6 0.0000 0.0000 0.0000 0.0000 0.0000 12.5713
#
#
#
# Elastic Compliance Matrix: (Units=1/GPa)
#
#
# Indices 1 2 3 4 5 6 
#
# 1 0.010310 -0.004611 -0.000913 0.000000 0.000000 0.000000
# 2 -0.004611 0.010310 -0.000913 0.000000 0.000000 0.000000
# 3 -0.000913 -0.000913 0.033115 0.000000 0.000000 0.000000
# 4 0.000000 0.000000 0.000000 0.047450 0.000000 0.000000
# 5 0.000000 0.000000 0.000000 0.000000 0.047450 0.000000
# 6 0.000000 0.000000 0.000000 0.000000 0.000000 0.079546
#
#
# Mechanical properties :
#
#
# Convention : Reuss Voigt Hill
#
# Bulk Modulus (GPa) = 24.47347 44.89366 34.68356
# Shear Modulus (GPa) = 19.63265 24.92687 22.27976
#
# Velocity S-wave (km/s) = 3.22207 3.63061 3.43243
# Velocity P-wave (km/s) = 5.17532 6.42767 5.83519
#
# Compressibility (1/GPa) = 0.04086058
#
# Stress axis : x y z
#
# Youngs Moduli (GPa) = 96.98904 96.98904 30.19779
#
# Poissons Ratio (x) = 0.44723 0.02758
# Poissons Ratio (y) = 0.44723 0.02758
# Poissons Ratio (z) = 0.08858 0.08858
#
# Static dielectric constant tensor:
#      x y z
#    x 1.692140 0.000000 0.000000 
#    y 0.000000 1.692140 0.000000 
#    z 0.000000 0.000000 1.742130 
# 
# From -- ./inp_files/7880.got.cif
#   From: 2010.05.17/outbox.cif.g08.bks.cpg/sg138_4_cif.got.tgz:7880.got - 2010.05.20 13:08:53.
