data_PCOD9570390
_publ_section_title
;
Structure prediction by ZEFSAII (Michael W. Deem and Ramdas Pophale) SiO2 
 PCOD9570390
Probable space group: P 42/N M C
;
_chemical_formula_sum "Si O2"
_cell_formula_units_Z 96
_cell_length_a 22.647094
_cell_length_b 22.647094
_cell_length_c 9.974267
_cell_angle_alpha 90.000000
_cell_angle_beta 90.000000
_cell_angle_gamma 90.000000
_cell_volume 5115.710446
_symmetry_space_group_name_H-M "P 42/N M C"
_symmetry_group_IT_number 137
_space_group.IT_coordinate_system_code '2'
_symmetry_cell_setting 'tetragonal'
loop_
_space_group_symop_operation_xyz
x,y,z
1/2-y,x,1/2+z
1/2-x,1/2-y,z
y,1/2-x,1/2+z
1/2+x,-y,-z
-x,1/2+y,-z
1/2+y,1/2+x,1/2-z
-y,-x,1/2-z
-x,-y,-z
1/2+y,-x,1/2-z
1/2+x,1/2+y,-z
-y,1/2+x,1/2-z
1/2-x,y,z
x,1/2-y,z
1/2-y,1/2-x,1/2+z
y,x,1/2+z
loop_
_atom_site_type_symbol
_atom_site_label
_atom_site_fract_x
_atom_site_fract_y
_atom_site_fract_z
Si Si1 0.103027 0.680870 0.330154
Si Si2 0.890932 0.393989 0.102688
Si Si3 0.682157 0.026984 0.580093
Si Si4 0.102497 0.140274 0.905516
Si Si5 0.820699 0.820247 0.346889
Si Si6 0.458452 0.487015 0.874569
O O1 0.161573 0.661573 0.250000
O O2 0.096895 0.750000 0.343195
O O3 0.104597 0.653741 0.477939
O O4 0.052191 0.660063 0.224636
O O5 0.871229 0.371229 0.250000
O O6 0.910401 0.461074 0.128874
O O7 0.945556 0.356908 0.039462
O O8 0.750000 0.046627 0.563410
O O9 0.678750 0.956819 0.582510
O O10 0.145207 0.162156 0.787856
O O11 0.075579 0.074878 0.881485
O O12 0.140950 0.148567 0.038548
O O13 0.750000 0.832404 0.340465
O O14 0.827159 0.750000 0.371407
O O15 0.502050 0.497951 0.750000
O O16 0.500000 0.500000 0.000000
#
# Coordination Sequence:
#
# PCOD9570390 Si02
#       6
#    16  16  16  16  16  16
#     4   9  20  38  62  88 119 160 202 250 302 361
#     4  10  22  38  58  89 127 163 198 251 320 371
#     4  10  21  38  60  87 121 160 209 258 304 369
#     4  12  24  40  66  92 121 166 215 259 316 383
#     4  11  25  45  65  90 127 168 214 269 322 372
#     4  11  23  38  59  89 125 163 201 253 315 377
#
# _framework density 18.765722
#
# number of rings (size 3 to 8) (size 9 to 14) (size 15 to 20)
#    0.000    1.500    1.667    3.000    7.000    2.167 
#    0.000    0.833    0.000    0.000    0.000    2.333 
#    0.000    0.000    0.000    0.000    0.000    0.000 
#
# Total GULP energy -535443.393123 kJ/mol
# GULP energy per Si atom -5577.535345 kJ/mol
# Density = 1.872301 g / cm^3
# Si number density = 18.765722 Si / 1000 Ang^3
#
#
#
# Elastic Constant Matrix: (Units=GPa)
#
#
# Indices 1 2 3 4 5 6 
#
# 1 42.9547 66.2463 26.1526 0.0000 0.0000 0.0000
# 2 66.2463 42.9539 26.1536 0.0000 0.0000 0.0000
# 3 26.1526 26.1536 141.9883 0.0000 0.0000 0.0000
# 4 0.0000 0.0000 0.0000 17.6910 0.0000 0.0000
# 5 0.0000 0.0000 0.0000 0.0000 17.6910 0.0000
# 6 0.0000 0.0000 0.0000 0.0000 0.0000 18.3525
#
#
#
# Elastic Compliance Matrix: (Units=1/GPa)
#
#
# Indices 1 2 3 4 5 6 
#
# 1 -0.016445 0.026488 -0.001850 0.000000 0.000000 0.000000
# 2 0.026488 -0.016445 -0.001850 0.000000 0.000000 0.000000
# 3 -0.001850 -0.001850 0.007724 0.000000 0.000000 0.000000
# 4 0.000000 0.000000 0.000000 0.056526 0.000000 0.000000
# 5 0.000000 0.000000 0.000000 0.000000 0.056526 0.000000
# 6 0.000000 0.000000 0.000000 0.000000 0.000000 0.054488
#
#
# Mechanical properties :
#
#
# Convention : Reuss Voigt Hill
#
# Bulk Modulus (GPa) = 48.99157 51.66689 50.32923
# Shear Modulus (GPa) = 48.26147 18.03651 33.14899
#
# Velocity S-wave (km/s) = 5.07678 3.10359 4.20749
# Velocity P-wave (km/s) = 7.78001 6.35888 7.10507
#
# Compressibility (1/GPa) = 0.02041168
#
# Stress axis : x y z
#
# Youngs Moduli (GPa) = -60.81059 -60.80864 129.46123
#
# Poissons Ratio (x) = 1.61072 0.23952
# Poissons Ratio (y) = 1.61077 0.23947
# Poissons Ratio (z) = -0.11251 -0.11248
#
# Static dielectric constant tensor:
#      x y z
#    x 1.641740 0.000000 0.000000 
#    y 0.000000 1.641560 0.000000 
#    z 0.000000 0.000000 1.716410 
# 
# From -- ./inp_files/2133.got.cif
#   From: 2010.05.17/outbox.cif.g08.bks.cpg/sg137_2_cif.got.tgz:2133.got - 2010.05.20 13:01:12.
