data_PCOD9570424
_publ_section_title
;
Structure prediction by ZEFSAII (Michael W. Deem and Ramdas Pophale) SiO2 
 PCOD9570424
Probable space group: P 42/N M C
;
_chemical_formula_sum "Si O2"
_cell_formula_units_Z 56
_cell_length_a 18.815452
_cell_length_b 18.815452
_cell_length_c 7.517519
_cell_angle_alpha 90.000000
_cell_angle_beta 90.000000
_cell_angle_gamma 90.000000
_cell_volume 2661.361353
_symmetry_space_group_name_H-M "P 42/N M C"
_symmetry_group_IT_number 137
_space_group.IT_coordinate_system_code '2'
_symmetry_cell_setting 'tetragonal'
loop_
_space_group_symop_operation_xyz
x,y,z
1/2-y,x,1/2+z
1/2-x,1/2-y,z
y,1/2-x,1/2+z
1/2+x,-y,-z
-x,1/2+y,-z
1/2+y,1/2+x,1/2-z
-y,-x,1/2-z
-x,-y,-z
1/2+y,-x,1/2-z
1/2+x,1/2+y,-z
-y,1/2+x,1/2-z
1/2-x,y,z
x,1/2-y,z
1/2-y,1/2-x,1/2+z
y,x,1/2+z
loop_
_atom_site_type_symbol
_atom_site_label
_atom_site_fract_x
_atom_site_fract_y
_atom_site_fract_z
Si Si1 0.574102 0.167191 0.381647
Si Si2 0.584281 0.828715 0.544240
Si Si3 0.098243 0.598243 0.250000
Si Si4 0.671003 0.961810 0.636294
O O1 0.619616 0.119616 0.250000
O O2 0.583275 0.250000 0.341755
O O3 0.489823 0.150623 0.359991
O O4 0.597375 0.154171 0.587669
O O5 0.607932 0.750000 0.606438
O O6 0.641526 0.890816 0.547454
O O7 0.560474 0.821937 0.341191
O O8 0.113522 0.525061 0.356433
O O9 0.750000 0.983655 0.571689
#
# Coordination Sequence:
#
# PCOD9570424 Si02
#       4
#    16  16   8  16
#     4  10  23  41  62  91 124 160 204 251 305 363
#     4   9  21  39  57  86 124 156 198 255 303 358
#     4  10  22  40  64  89 126 158 203 256 300 356
#     4  10  22  38  60  90 120 160 206 246 305 367
#
# _framework density 21.041862999999999
#
# number of rings (size 3 to 8) (size 9 to 14) (size 15 to 20)
#    0.000    2.286    0.000    2.571    6.000    6.571 
#    0.000    2.857    0.000    3.857    0.000    0.000 
#    0.000    0.000    0.000    0.000    0.000    0.000 
#
# Total GULP energy -312204.019054 kJ/mol
# GULP energy per Si atom -5575.071769 kJ/mol
# Density = 2.099397 g / cm^3
# Si number density = 21.041863 Si / 1000 Ang^3
#
#
#
# Elastic Constant Matrix: (Units=GPa)
#
#
# Indices 1 2 3 4 5 6 
#
# 1 78.2365 51.5952 -1.1746 0.0000 0.0000 0.0000
# 2 51.5952 78.2365 -1.1746 0.0000 0.0000 0.0000
# 3 -1.1746 -1.1746 36.4365 0.0000 0.0000 0.0000
# 4 0.0000 0.0000 0.0000 46.6674 0.0000 0.0000
# 5 0.0000 0.0000 0.0000 0.0000 46.6674 0.0000
# 6 0.0000 0.0000 0.0000 0.0000 0.0000 12.1019
#
#
#
# Elastic Compliance Matrix: (Units=1/GPa)
#
#
# Indices 1 2 3 4 5 6 
#
# 1 0.022621 -0.014914 0.000248 0.000000 0.000000 0.000000
# 2 -0.014914 0.022621 0.000248 0.000000 0.000000 0.000000
# 3 0.000248 0.000248 0.027461 0.000000 0.000000 0.000000
# 4 0.000000 0.000000 0.000000 0.021428 0.000000 0.000000
# 5 0.000000 0.000000 0.000000 0.000000 0.021428 0.000000
# 6 0.000000 0.000000 0.000000 0.000000 0.000000 0.082631
#
#
# Mechanical properties :
#
#
# Convention : Reuss Voigt Hill
#
# Bulk Modulus (GPa) = 22.79547 32.37795 27.58671
# Shear Modulus (GPa) = 20.69113 30.66492 25.67803
#
# Velocity S-wave (km/s) = 3.13921 3.82164 3.49711
# Velocity P-wave (km/s) = 4.89862 5.90712 5.42635
#
# Compressibility (1/GPa) = 0.04386836
#
# Stress axis : x y z
#
# Youngs Moduli (GPa) = 44.20620 44.20620 36.41522
#
# Poissons Ratio (x) = 0.65931 -0.00905
# Poissons Ratio (y) = 0.65931 -0.00905
# Poissons Ratio (z) = -0.01098 -0.01098
#
# Static dielectric constant tensor:
#      x y z
#    x 1.811320 0.000000 0.000000 
#    y 0.000000 1.811320 0.000000 
#    z 0.000000 0.000000 1.805420 
# 
# From -- ./inp_files/1543.got.cif
#   From: 2010.05.17/outbox.cif.g08.bks.cpg/sg137_1_cif.got.tgz:1543.got - 2010.05.20 13:01:12.
