data_PCOD9570603
_publ_section_title
;
Structure prediction by ZEFSAII (Michael W. Deem and Ramdas Pophale) SiO2 
 PCOD9570603
Probable space group: P 42/N C M
;
_chemical_formula_sum "Si O2"
_cell_formula_units_Z 88
_cell_length_a 30.009428
_cell_length_b 30.009428
_cell_length_c 5.340640
_cell_angle_alpha 90.000000
_cell_angle_beta 90.000000
_cell_angle_gamma 90.000000
_cell_volume 4809.597568
_symmetry_space_group_name_H-M "P 42/N C M"
_symmetry_group_IT_number 138
_space_group.IT_coordinate_system_code '2'
_symmetry_cell_setting 'tetragonal'
loop_
_space_group_symop_operation_xyz
x,y,z
1/2-y,x,1/2+z
1/2-x,1/2-y,z
y,1/2-x,1/2+z
1/2+x,-y,1/2-z
-x,1/2+y,1/2-z
1/2+y,1/2+x,-z
-y,-x,-z
-x,-y,-z
1/2+y,-x,1/2-z
1/2+x,1/2+y,-z
-y,1/2+x,1/2-z
1/2-x,y,1/2+z
x,1/2-y,1/2+z
1/2-y,1/2-x,z
y,x,z
loop_
_atom_site_type_symbol
_atom_site_label
_atom_site_fract_x
_atom_site_fract_y
_atom_site_fract_z
Si Si1 0.521129 0.521129 0.255033
Si Si2 0.035752 0.603599 0.859525
Si Si3 0.228953 0.390114 0.068469
Si Si4 0.864876 0.494471 0.359377
Si Si5 0.126321 0.126321 0.683200
Si Si6 0.509476 0.765321 0.456496
Si Si7 0.915136 0.915136 0.815363
O O1 0.500000 0.500000 0.500000
O O2 0.571748 0.506496 0.297473
O O3 0.500000 0.500000 0.000000
O O4 0.041281 0.623155 0.578385
O O5 0.072712 0.572712 0.000000
O O6 0.024183 0.638542 0.077106
O O7 0.259965 0.371886 0.292708
O O8 0.178632 0.383139 0.152142
O O9 0.239741 0.442941 0.043699
O O10 0.818141 0.516251 0.438408
O O11 0.902211 0.533022 0.333179
O O12 0.102868 0.102868 0.447347
O O13 0.108616 0.108616 0.948411
O O14 0.485461 0.751909 0.709692
#
# Coordination Sequence:
#
# PCOD9570603 Si02
#       7
#     8  16  16  16   8  16   8
#     4  10  18  32  50  66  94 133 162 196 246 291
#     4  11  22  36  50  70  99 134 172 206 243 296
#     4  10  20  35  54  73  95 124 152 192 254 315
#     4  12  22  34  53  75 100 132 166 207 260 304
#     4  12  22  37  58  77 101 129 158 204 264 318
#     4  10  19  34  50  71  99 125 155 202 260 310
#     4  12  22  33  49  80 104 121 166 205 234 308
#
# _framework density 18.296748999999998
#
# number of rings (size 3 to 8) (size 9 to 14) (size 15 to 20)
#    0.000    1.091    0.000   11.455    0.000    0.000 
#    0.000    0.000    0.000    1.636    0.000    0.000 
#    0.000    0.000    0.000    0.000    0.000    0.000 
#
# Total GULP energy -490656.065769 kJ/mol
# GULP energy per Si atom -5575.637111 kJ/mol
# Density = 1.825510 g / cm^3
# Si number density = 18.296749 Si / 1000 Ang^3
#
#
#
# Elastic Constant Matrix: (Units=GPa)
#
#
# Indices 1 2 3 4 5 6 
#
# 1 26.7751 17.7729 6.9557 0.0000 0.0000 0.0000
# 2 17.7729 26.7751 6.9557 0.0000 0.0000 0.0000
# 3 6.9557 6.9557 153.3667 0.0000 0.0000 0.0000
# 4 0.0000 0.0000 0.0000 14.3728 0.0000 0.0000
# 5 0.0000 0.0000 0.0000 0.0000 14.3728 0.0000
# 6 0.0000 0.0000 0.0000 0.0000 0.0000 16.8127
#
#
#
# Elastic Compliance Matrix: (Units=1/GPa)
#
#
# Indices 1 2 3 4 5 6 
#
# 1 0.066927 -0.044157 -0.001033 0.000000 0.000000 0.000000
# 2 -0.044157 0.066927 -0.001033 0.000000 0.000000 0.000000
# 3 -0.001033 -0.001033 0.006614 0.000000 0.000000 0.000000
# 4 0.000000 0.000000 0.000000 0.069576 0.000000 0.000000
# 5 0.000000 0.000000 0.000000 0.000000 0.069576 0.000000
# 6 0.000000 0.000000 0.000000 0.000000 0.000000 0.059479
#
#
# Mechanical properties :
#
#
# Convention : Reuss Voigt Hill
#
# Bulk Modulus (GPa) = 20.82313 30.03172 25.42743
# Shear Modulus (GPa) = 11.17192 20.79385 15.98288
#
# Velocity S-wave (km/s) = 2.47370 3.37483 2.95877
# Velocity P-wave (km/s) = 4.42317 5.62452 5.05963
#
# Compressibility (1/GPa) = 0.04802351
#
# Stress axis : x y z
#
# Youngs Moduli (GPa) = 14.94164 14.94164 151.19456
#
# Poissons Ratio (x) = 0.65978 0.15614
# Poissons Ratio (y) = 0.65978 0.15614
# Poissons Ratio (z) = 0.01543 0.01543
#
# Static dielectric constant tensor:
#      x y z
#    x 1.580540 0.000000 0.000000 
#    y 0.000000 1.580540 0.000000 
#    z 0.000000 0.000000 1.596080 
# 
# From -- ./inp_files/528.got.cif
#   From: 2010.05.17/outbox.cif.g08.bks.cpg/sg138_1_cif.got.tgz:528.got - 2010.05.20 13:08:53.
