data_PCOD9570991
_publ_section_title
;
Structure prediction by ZEFSAII (Michael W. Deem and Ramdas Pophale) SiO2 
 PCOD9570991
Probable space group: P 42/N C M
;
_chemical_formula_sum "Si O2"
_cell_formula_units_Z 60
_cell_length_a 15.171586
_cell_length_b 15.171586
_cell_length_c 10.983086
_cell_angle_alpha 90.000000
_cell_angle_beta 90.000000
_cell_angle_gamma 90.000000
_cell_volume 2528.054025
_symmetry_space_group_name_H-M "P 42/N C M"
_symmetry_group_IT_number 138
_space_group.IT_coordinate_system_code '2'
_symmetry_cell_setting 'tetragonal'
loop_
_space_group_symop_operation_xyz
x,y,z
1/2-y,x,1/2+z
1/2-x,1/2-y,z
y,1/2-x,1/2+z
1/2+x,-y,1/2-z
-x,1/2+y,1/2-z
1/2+y,1/2+x,-z
-y,-x,-z
-x,-y,-z
1/2+y,-x,1/2-z
1/2+x,1/2+y,-z
-y,1/2+x,1/2-z
1/2-x,y,1/2+z
x,1/2-y,1/2+z
1/2-y,1/2-x,z
y,x,z
loop_
_atom_site_type_symbol
_atom_site_label
_atom_site_fract_x
_atom_site_fract_y
_atom_site_fract_z
Si Si1 0.685248 0.418685 0.399267
Si Si2 0.250000 0.250000 0.664656
Si Si3 0.586660 0.123659 0.666648
Si Si4 0.389237 0.389237 0.191604
Si Si5 0.383796 0.116204 0.137890
Si Si6 0.921978 0.921978 0.091949
O O1 0.635771 0.364230 0.500000
O O2 0.789662 0.411920 0.414853
O O3 0.661082 0.377985 0.268556
O O4 0.646624 0.518449 0.398521
O O5 0.182420 0.317581 0.730522
O O6 0.313845 0.313845 0.589398
O O7 0.489350 0.130612 0.729967
O O8 0.590763 0.026713 0.608761
O O9 0.391958 0.391958 0.041871
O O10 0.379819 0.120182 0.286685
#
# Coordination Sequence:
#
# PCOD9570991 Si02
#       6
#    16   4  16   8   8   8
#     4  11  24  43  68  94 134 176 214 269 328 384
#     4  12  22  42  72 100 130 160 222 282 306 390
#     4  10  22  42  65  96 129 171 221 264 315 393
#     4  11  22  43  68 100 131 169 215 275 337 374
#     4  10  22  44  64  99 134 164 218 274 336 379
#     4   9  22  42  69  90 136 178 207 268 336 380
#
# _framework density 23.733668000000002
#
# number of rings (size 3 to 8) (size 9 to 14) (size 15 to 20)
#    0.000    1.600    2.667    2.800    0.000    7.467 
#    0.000    4.000    0.000    0.000    0.000    0.000 
#    0.000    0.000    0.000    0.000    0.000    0.000 
#
# Total GULP energy -335542.814959 kJ/mol
# GULP energy per Si atom -5592.380249 kJ/mol
# Density = 2.367965 g / cm^3
# Si number density = 23.733668 Si / 1000 Ang^3
#
#
#
# Elastic Constant Matrix: (Units=GPa)
#
#
# Indices 1 2 3 4 5 6 
#
# 1 150.5745 58.4602 22.2121 0.0000 0.0000 0.0000
# 2 58.4602 150.5716 22.2164 0.0000 0.0000 0.0000
# 3 22.2121 22.2164 64.5199 0.0000 0.0000 0.0000
# 4 0.0000 0.0000 0.0000 441.6342 0.0000 0.0000
# 5 0.0000 0.0000 0.0000 0.0000 443.4789 0.0000
# 6 0.0000 0.0000 0.0000 0.0000 0.0000 41.5716
#
#
#
# Elastic Compliance Matrix: (Units=1/GPa)
#
#
# Indices 1 2 3 4 5 6 
#
# 1 0.008009 -0.002847 -0.001777 0.000000 0.000000 0.000000
# 2 -0.002847 0.008009 -0.001778 0.000000 0.000000 0.000000
# 3 -0.001777 -0.001778 0.016723 0.000000 0.000000 0.000000
# 4 0.000000 0.000000 0.000000 0.002264 0.000000 0.000000
# 5 0.000000 0.000000 0.000000 0.000000 0.002255 0.000000
# 6 0.000000 0.000000 0.000000 0.000000 0.000000 0.024055
#
#
# Mechanical properties :
#
#
# Convention : Reuss Voigt Hill
#
# Bulk Modulus (GPa) = 50.15673 63.49372 56.82522
# Shear Modulus (GPa) = 61.90881 202.85542 132.38212
#
# Velocity S-wave (km/s) = 5.11287 9.25511 7.47658
# Velocity P-wave (km/s) = 7.48560 11.87519 9.92609
#
# Compressibility (1/GPa) = 0.01993750
#
# Stress axis : x y z
#
# Youngs Moduli (GPa) = 124.86280 124.85773 59.79842
#
# Poissons Ratio (x) = 0.35551 0.10625
# Poissons Ratio (y) = 0.35552 0.10630
# Poissons Ratio (z) = 0.22185 0.22194
#
# Static dielectric constant tensor:
#      x y z
#    x 1.924610 0.000000 0.000000 
#    y 0.000000 1.924600 0.000000 
#    z 0.000000 0.000000 1.941010 
# 
# From -- ./inp_files/3959.got.cif
#   From: 2010.05.17/outbox.cif.g08.bks.cpg/sg138_2_cif.got.tgz:3959.got - 2010.05.20 13:08:53.
