data_PCOD9570152
_publ_section_title
;
Structure prediction by ZEFSAII (Michael W. Deem and Ramdas Pophale) SiO2 
 PCOD9570152
Probable space group: P 42/N M C
;
_chemical_formula_sum "Si O2"
_cell_formula_units_Z 96
_cell_length_a 22.447333
_cell_length_b 22.447333
_cell_length_c 10.408002
_cell_angle_alpha 90.000000
_cell_angle_beta 90.000000
_cell_angle_gamma 90.000000
_cell_volume 5244.412761
_symmetry_space_group_name_H-M "P 42/N M C"
_symmetry_group_IT_number 137
_space_group.IT_coordinate_system_code '2'
_symmetry_cell_setting 'tetragonal'
loop_
_space_group_symop_operation_xyz
x,y,z
1/2-y,x,1/2+z
1/2-x,1/2-y,z
y,1/2-x,1/2+z
1/2+x,-y,-z
-x,1/2+y,-z
1/2+y,1/2+x,1/2-z
-y,-x,1/2-z
-x,-y,-z
1/2+y,-x,1/2-z
1/2+x,1/2+y,-z
-y,1/2+x,1/2-z
1/2-x,y,z
x,1/2-y,z
1/2-y,1/2-x,1/2+z
y,x,1/2+z
loop_
_atom_site_type_symbol
_atom_site_label
_atom_site_fract_x
_atom_site_fract_y
_atom_site_fract_z
Si Si1 0.493304 0.320741 0.823935
Si Si2 0.937831 0.678600 0.897438
Si Si3 0.887246 0.387246 0.750000
Si Si4 0.820125 0.179876 0.250000
Si Si5 0.016666 0.178982 0.373468
Si Si6 0.318457 0.106948 0.101860
Si Si7 0.106515 0.678140 0.507347
O O1 0.513097 0.250000 0.823157
O O2 0.545555 0.366618 0.785473
O O3 0.441139 0.324104 0.717200
O O4 0.468231 0.335672 0.965781
O O5 0.936367 0.750000 0.890620
O O6 0.972650 0.655711 0.770342
O O7 0.870697 0.654540 0.888217
O O8 0.872737 0.348606 0.625497
O O9 0.750000 0.169141 0.259764
O O10 0.841878 0.148876 0.122096
O O11 0.006544 0.250000 0.360150
O O12 0.072903 0.171985 0.466610
O O13 0.959146 0.156726 0.450698
O O14 0.250000 0.129415 0.105083
O O15 0.106492 0.750000 0.497948
#
# Coordination Sequence:
#
# PCOD9570152 Si02
#       7
#    16  16   8   8  16  16  16
#     4  10  22  39  58  85 119 155 195 247 300 345
#     4  10  21  36  60  90 117 152 196 240 293 358
#     4  12  22  36  60  84 112 157 210 245 288 350
#     4   9  20  36  54  83 118 143 174 239 312 355
#     4   9  18  35  56  79 110 153 192 224 278 347
#     4  10  19  37  62  85 120 156 186 238 300 356
#     4  10  21  37  58  83 113 149 193 241 291 351
#
# _framework density 18.305195000000001
#
# number of rings (size 3 to 8) (size 9 to 14) (size 15 to 20)
#    0.000    2.083    1.667    1.500    2.333    1.667 
#    0.000    0.833    0.000    8.250    0.000    0.000 
#    0.000    0.000    0.000    0.000    0.000    0.000 
#
# Total GULP energy -535123.488897 kJ/mol
# GULP energy per Si atom -5574.203009 kJ/mol
# Density = 1.826353 g / cm^3
# Si number density = 18.305195 Si / 1000 Ang^3
#
#
#
# Elastic Constant Matrix: (Units=GPa)
#
#
# Indices 1 2 3 4 5 6 
#
# 1 36.1792 25.2989 34.7940 0.0000 0.0000 0.0000
# 2 25.2989 36.1794 34.7941 0.0000 0.0000 0.0000
# 3 34.7940 34.7941 161.6242 0.0000 0.0000 0.0000
# 4 0.0000 0.0000 0.0000 24.0482 0.0000 0.0000
# 5 0.0000 0.0000 0.0000 0.0000 24.0500 0.0000
# 6 0.0000 0.0000 0.0000 0.0000 0.0000 30.4252
#
#
#
# Elastic Compliance Matrix: (Units=1/GPa)
#
#
# Indices 1 2 3 4 5 6 
#
# 1 0.056708 -0.035201 -0.004630 0.000000 0.000000 0.000000
# 2 -0.035201 0.056707 -0.004630 0.000000 0.000000 0.000000
# 3 -0.004630 -0.004630 0.008181 0.000000 0.000000 0.000000
# 4 0.000000 0.000000 0.000000 0.041583 0.000000 0.000000
# 5 0.000000 0.000000 0.000000 0.000000 0.041580 0.000000
# 6 0.000000 0.000000 0.000000 0.000000 0.000000 0.032867
#
#
# Mechanical properties :
#
#
# Convention : Reuss Voigt Hill
#
# Bulk Modulus (GPa) = 30.60517 47.08408 38.84463
# Shear Modulus (GPa) = 14.81749 24.97772 19.89761
#
# Velocity S-wave (km/s) = 2.84820 3.69794 3.30053
# Velocity P-wave (km/s) = 5.25091 6.63405 5.98258
#
# Compressibility (1/GPa) = 0.03267422
#
# Stress axis : x y z
#
# Youngs Moduli (GPa) = 17.63430 17.63442 122.24025
#
# Poissons Ratio (x) = 0.62075 0.56596
# Poissons Ratio (y) = 0.62074 0.56596
# Poissons Ratio (z) = 0.08164 0.08164
#
# Static dielectric constant tensor:
#      x y z
#    x 1.625690 0.000000 0.000000 
#    y 0.000000 1.625690 0.000000 
#    z 0.000000 0.000000 1.643600 
# 
# From -- ./inp_files/2214.got.cif
#   From: 2010.05.17/outbox.cif.g08.bks.cpg/sg137_2_cif.got.tgz:2214.got - 2010.05.20 13:01:12.
