data_PCOD9570931
_publ_section_title
;
Structure prediction by ZEFSAII (Michael W. Deem and Ramdas Pophale) SiO2 
 PCOD9570931
Probable space group: P 42/N C M
;
_chemical_formula_sum "Si O2"
_cell_formula_units_Z 72
_cell_length_a 17.785780
_cell_length_b 17.785780
_cell_length_c 9.392028
_cell_angle_alpha 90.000000
_cell_angle_beta 90.000000
_cell_angle_gamma 90.000000
_cell_volume 2971.017506
_symmetry_space_group_name_H-M "P 42/N C M"
_symmetry_group_IT_number 138
_space_group.IT_coordinate_system_code '2'
_symmetry_cell_setting 'tetragonal'
loop_
_space_group_symop_operation_xyz
x,y,z
1/2-y,x,1/2+z
1/2-x,1/2-y,z
y,1/2-x,1/2+z
1/2+x,-y,1/2-z
-x,1/2+y,1/2-z
1/2+y,1/2+x,-z
-y,-x,-z
-x,-y,-z
1/2+y,-x,1/2-z
1/2+x,1/2+y,-z
-y,1/2+x,1/2-z
1/2-x,y,1/2+z
x,1/2-y,1/2+z
1/2-y,1/2-x,z
y,x,z
loop_
_atom_site_type_symbol
_atom_site_label
_atom_site_fract_x
_atom_site_fract_y
_atom_site_fract_z
Si Si1 0.607585 0.488798 0.267438
Si Si2 0.111465 0.888536 0.000000
Si Si3 0.790395 0.095493 0.499697
Si Si4 0.105980 0.279085 0.160789
Si Si5 0.453080 0.163606 0.856758
O O1 0.535732 0.535732 0.321985
O O2 0.656186 0.439693 0.377323
O O3 0.667930 0.554535 0.237605
O O4 0.587272 0.437855 0.134674
O O5 0.200935 0.904272 0.018446
O O6 0.819321 0.180680 0.500000
O O7 0.815819 0.041125 0.630552
O O8 0.190040 0.309961 0.176688
O O9 0.083062 0.198566 0.216059
O O10 0.081604 0.296121 0.998552
O O11 0.421230 0.078771 0.867053
#
# Coordination Sequence:
#
# PCOD9570931 Si02
#       5
#    16   8  16  16  16
#     4  10  23  44  70  97 133 176 231 293 348 415
#     4  12  24  42  72 100 136 180 234 286 352 420
#     4  11  25  43  64  98 137 180 222 281 347 425
#     4   9  19  38  61  89 127 167 217 282 341 408
#     4  10  21  39  63  90 127 174 222 278 337 406
#
# _framework density 24.234121999999999
#
# number of rings (size 3 to 8) (size 9 to 14) (size 15 to 20)
#    0.000    1.778    2.222    2.667    3.111    3.111 
#    0.000    2.222    0.000    0.000    0.000    0.000 
#    0.000    0.000    0.000    0.000    0.000    0.000 
#
# Total GULP energy -401628.567285 kJ/mol
# GULP energy per Si atom -5578.174546 kJ/mol
# Density = 2.417896 g / cm^3
# Si number density = 24.234122 Si / 1000 Ang^3
#
#
#
# Elastic Constant Matrix: (Units=GPa)
#
#
# Indices 1 2 3 4 5 6 
#
# 1 535.1108 -384.3501 5.2643 0.0000 0.0000 0.0000
# 2 -384.3501 535.0830 5.2492 0.0000 0.0000 0.0000
# 3 5.2643 5.2492 33.4364 0.0000 0.0000 0.0000
# 4 0.0000 0.0000 0.0000 16.3604 0.0000 0.0000
# 5 0.0000 0.0000 0.0000 0.0000 16.3610 0.0000
# 6 0.0000 0.0000 0.0000 0.0000 0.0000 50.6028
#
#
#
# Elastic Compliance Matrix: (Units=1/GPa)
#
#
# Indices 1 2 3 4 5 6 
#
# 1 0.003897 0.002810 -0.001055 0.000000 0.000000 0.000000
# 2 0.002810 0.003897 -0.001054 0.000000 0.000000 0.000000
# 3 -0.001055 -0.001054 0.030239 0.000000 0.000000 0.000000
# 4 0.000000 0.000000 0.000000 0.061123 0.000000 0.000000
# 5 0.000000 0.000000 0.000000 0.000000 0.061121 0.000000
# 6 0.000000 0.000000 0.000000 0.000000 0.000000 0.019762
#
#
# Mechanical properties :
#
#
# Convention : Reuss Voigt Hill
#
# Bulk Modulus (GPa) = 25.35782 39.55077 32.45430
# Shear Modulus (GPa) = 26.07104 115.16260 70.61682
#
# Velocity S-wave (km/s) = 3.28350 6.90102 5.40395
# Velocity P-wave (km/s) = 4.98613 8.93613 7.23588
#
# Compressibility (1/GPa) = 0.03943556
#
# Stress axis : x y z
#
# Youngs Moduli (GPa) = 256.58699 256.57592 33.06973
#
# Poissons Ratio (x) = -0.72092 0.03488
# Poissons Ratio (y) = -0.72095 0.03486
# Poissons Ratio (z) = 0.27063 0.27050
#
# Static dielectric constant tensor:
#      x y z
#    x 1.994760 0.000000 0.000000 
#    y 0.000000 1.994770 0.000000 
#    z 0.000000 0.000000 1.948200 
# 
# From -- ./inp_files/2807.got.cif
#   From: 2010.05.17/outbox.cif.g08.bks.cpg/sg138_2_cif.got.tgz:2807.got - 2010.05.20 13:08:53.
