data_PCOD9570134
_publ_section_title
;
Structure prediction by ZEFSAII (Michael W. Deem and Ramdas Pophale) SiO2 
 PCOD9570134
Probable space group: P 42/N M C
;
_chemical_formula_sum "Si O2"
_cell_formula_units_Z 112
_cell_length_a 18.509339
_cell_length_b 18.509339
_cell_length_c 19.049850
_cell_angle_alpha 90.000000
_cell_angle_beta 90.000000
_cell_angle_gamma 90.000000
_cell_volume 6526.395366
_symmetry_space_group_name_H-M "P 42/N M C"
_symmetry_group_IT_number 137
_space_group.IT_coordinate_system_code '2'
_symmetry_cell_setting 'tetragonal'
loop_
_space_group_symop_operation_xyz
x,y,z
1/2-y,x,1/2+z
1/2-x,1/2-y,z
y,1/2-x,1/2+z
1/2+x,-y,-z
-x,1/2+y,-z
1/2+y,1/2+x,1/2-z
-y,-x,1/2-z
-x,-y,-z
1/2+y,-x,1/2-z
1/2+x,1/2+y,-z
-y,1/2+x,1/2-z
1/2-x,y,z
x,1/2-y,z
1/2-y,1/2-x,1/2+z
y,x,1/2+z
loop_
_atom_site_type_symbol
_atom_site_label
_atom_site_fract_x
_atom_site_fract_y
_atom_site_fract_z
Si Si1 0.836681 0.332943 0.059793
Si Si2 0.052529 0.898098 0.463856
Si Si3 0.932872 0.548321 0.230084
Si Si4 0.565826 0.924025 0.066142
Si Si5 0.914389 0.333803 0.302574
Si Si6 0.835021 0.945372 0.850851
Si Si7 0.168493 0.165819 0.022555
O O1 0.750000 0.330220 0.066277
O O2 0.863335 0.250000 0.062280
O O3 0.864172 0.382994 0.124104
O O4 0.857151 0.376427 0.989968
O O5 0.992339 0.897354 0.526126
O O6 0.014478 0.864665 0.394998
O O7 0.072498 0.981619 0.452935
O O8 0.930304 0.573540 0.149706
O O9 0.872884 0.484391 0.230146
O O10 0.927362 0.613702 0.285030
O O11 0.006679 0.506679 0.250000
O O12 0.608421 0.857160 0.033202
O O13 0.848443 0.348443 0.250000
O O14 0.930754 0.250000 0.311311
O O15 0.750000 0.954411 0.833191
O O16 0.841398 0.880356 0.906937
O O17 0.250000 0.149351 0.995930
O O18 0.164249 0.250000 0.038131
#
# Coordination Sequence:
#
# PCOD9570134 Si02
#       7
#    16  16  16  16  16  16  16
#     4  10  20  34  54  80 110 144 183 226 277 342
#     4  10  19  36  55  83 108 142 185 236 284 334
#     4  11  21  37  55  82 115 147 188 236 286 337
#     4  10  20  33  58  81 110 144 186 233 284 338
#     4  10  21  34  52  78 114 153 183 223 276 337
#     4  10  21  37  61  81 108 154 196 233 283 344
#     4   9  20  38  57  82 115 149 187 234 284 335
#
# _framework density 17.161082
#
# number of rings (size 3 to 8) (size 9 to 14) (size 15 to 20)
#    0.000    2.000    2.857    0.857    0.000    3.571 
#    0.000    0.000    0.000    1.714    0.000    0.000 
#    0.000    0.000    0.000    0.000    0.000    0.000 
#
# Total GULP energy -623939.241871 kJ/mol
# GULP energy per Si atom -5570.886088 kJ/mol
# Density = 1.712202 g / cm^3
# Si number density = 17.161082 Si / 1000 Ang^3
#
#
#
# Elastic Constant Matrix: (Units=GPa)
#
#
# Indices 1 2 3 4 5 6 
#
# 1 74.4032 49.0077 38.8561 0.0000 0.0000 0.0000
# 2 49.0077 74.4032 38.8561 0.0000 0.0000 0.0000
# 3 38.8561 38.8561 99.0769 0.0000 0.0000 0.0000
# 4 0.0000 0.0000 0.0000 18.3033 0.0000 0.0000
# 5 0.0000 0.0000 0.0000 0.0000 18.3033 0.0000
# 6 0.0000 0.0000 0.0000 0.0000 0.0000 25.8658
#
#
#
# Elastic Compliance Matrix: (Units=1/GPa)
#
#
# Indices 1 2 3 4 5 6 
#
# 1 0.025069 -0.014308 -0.004220 0.000000 0.000000 0.000000
# 2 -0.014308 0.025069 -0.004220 0.000000 0.000000 0.000000
# 3 -0.004220 -0.004220 0.013403 0.000000 0.000000 0.000000
# 4 0.000000 0.000000 0.000000 0.054635 0.000000 0.000000
# 5 0.000000 0.000000 0.000000 0.000000 0.054635 0.000000
# 6 0.000000 0.000000 0.000000 0.000000 0.000000 0.038661
#
#
# Mechanical properties :
#
#
# Convention : Reuss Voigt Hill
#
# Bulk Modulus (GPa) = 55.42051 55.70259 55.56155
# Shear Modulus (GPa) = 19.01265 20.57204 19.79234
#
# Velocity S-wave (km/s) = 3.33211 3.46607 3.39975
# Velocity P-wave (km/s) = 6.86792 6.96759 6.91794
#
# Compressibility (1/GPa) = 0.01804386
#
# Stress axis : x y z
#
# Youngs Moduli (GPa) = 39.89040 39.89040 74.60907
#
# Poissons Ratio (x) = 0.57076 0.31485
# Poissons Ratio (y) = 0.57076 0.31485
# Poissons Ratio (z) = 0.16834 0.16834
#
# Static dielectric constant tensor:
#      x y z
#    x 1.586690 0.000000 0.000000 
#    y 0.000000 1.586690 0.000000 
#    z 0.000000 0.000000 1.582380 
# 
# From -- ./inp_files/8090.got.cif
#   From: 2010.05.17/outbox.cif.g08.bks.cpg/sg137_5_cif.got.tgz:8090.got - 2010.05.20 13:01:12.
