data_PCOD9570113
_publ_section_title
;
Structure prediction by ZEFSAII (Michael W. Deem and Ramdas Pophale) SiO2 
 PCOD9570113
Probable space group: P 42/N M C
;
_chemical_formula_sum "Si O2"
_cell_formula_units_Z 128
_cell_length_a 23.627065
_cell_length_b 23.627065
_cell_length_c 12.698411
_cell_angle_alpha 90.000000
_cell_angle_beta 90.000000
_cell_angle_gamma 90.000000
_cell_volume 7088.738106
_symmetry_space_group_name_H-M "P 42/N M C"
_symmetry_group_IT_number 137
_space_group.IT_coordinate_system_code '2'
_symmetry_cell_setting 'tetragonal'
loop_
_space_group_symop_operation_xyz
x,y,z
1/2-y,x,1/2+z
1/2-x,1/2-y,z
y,1/2-x,1/2+z
1/2+x,-y,-z
-x,1/2+y,-z
1/2+y,1/2+x,1/2-z
-y,-x,1/2-z
-x,-y,-z
1/2+y,-x,1/2-z
1/2+x,1/2+y,-z
-y,1/2+x,1/2-z
1/2-x,y,z
x,1/2-y,z
1/2-y,1/2-x,1/2+z
y,x,1/2+z
loop_
_atom_site_type_symbol
_atom_site_label
_atom_site_fract_x
_atom_site_fract_y
_atom_site_fract_z
Si Si1 0.817502 0.506847 0.923951
Si Si2 0.561297 0.081567 0.502365
Si Si3 0.155763 0.457988 0.310814
Si Si4 0.313626 0.352077 0.445693
Si Si5 0.925769 0.686884 0.632686
Si Si6 0.184055 0.539295 0.492098
Si Si7 0.317420 0.427892 0.633479
Si Si8 0.526006 0.526299 0.145965
O O1 0.750000 0.495196 0.925598
O O2 0.831960 0.535461 0.812185
O O3 0.859679 0.454258 0.941164
O O4 0.833332 0.545308 0.025221
O O5 0.629054 0.078000 0.485851
O O6 0.520389 0.068647 0.402475
O O7 0.541167 0.028599 0.574040
O O8 0.186847 0.406038 0.367280
O O9 0.176230 0.513722 0.374518
O O10 0.089035 0.449895 0.333806
O O11 0.250000 0.330029 0.457165
O O12 0.359556 0.311974 0.394502
O O13 0.336089 0.376812 0.557506
O O14 0.949462 0.750000 0.645925
O O15 0.932079 0.659854 0.748400
O O16 0.250000 0.558343 0.504941
O O17 0.174424 0.485821 0.569984
O O18 0.250000 0.418818 0.640547
O O19 0.500860 0.499141 0.250000
#
# Coordination Sequence:
#
# PCOD9570113 Si02
#       8
#    16  16  16  16  16  16  16  16
#     4  11  22  36  52  76 111 147 180 218 275 342
#     4  10  21  33  52  84 110 141 179 223 280 328
#     4  10  19  34  55  77 106 139 180 220 270 331
#     4  10  20  34  53  72  94 131 181 228 266 314
#     4  10  22  36  51  72 101 137 176 221 275 326
#     4   9  18  34  58  80 103 138 180 221 263 325
#     4   8  17  36  53  70  96 131 173 215 259 313
#     4  10  19  35  54  78 114 141 175 228 280 327
#
# _framework density 18.056811
#
# number of rings (size 3 to 8) (size 9 to 14) (size 15 to 20)
#    0.000    2.250    1.250    2.625    1.750    3.250 
#    0.000    0.000    0.000    2.625    0.000    0.000 
#    0.000    2.250    0.000    7.375    0.000    0.000 
#
# Total GULP energy -712581.384139 kJ/mol
# GULP energy per Si atom -5567.042064 kJ/mol
# Density = 1.801571 g / cm^3
# Si number density = 18.056811 Si / 1000 Ang^3
#
#
#
# Elastic Constant Matrix: (Units=GPa)
#
#
# Indices 1 2 3 4 5 6 
#
# 1 80.8291 23.0804 24.9795 0.0000 0.0000 0.0000
# 2 23.0804 80.8300 24.9779 0.0000 0.0000 0.0000
# 3 24.9795 24.9779 129.6232 0.0000 0.0000 0.0000
# 4 0.0000 0.0000 0.0000 31.4539 0.0000 0.0000
# 5 0.0000 0.0000 0.0000 0.0000 31.4519 0.0000
# 6 0.0000 0.0000 0.0000 0.0000 0.0000 17.6988
#
#
#
# Elastic Compliance Matrix: (Units=1/GPa)
#
#
# Indices 1 2 3 4 5 6 
#
# 1 0.013961 -0.003355 -0.002044 0.000000 0.000000 0.000000
# 2 -0.003355 0.013961 -0.002044 0.000000 0.000000 0.000000
# 3 -0.002044 -0.002044 0.008502 0.000000 0.000000 0.000000
# 4 0.000000 0.000000 0.000000 0.031793 0.000000 0.000000
# 5 0.000000 0.000000 0.000000 0.000000 0.031795 0.000000
# 6 0.000000 0.000000 0.000000 0.000000 0.000000 0.056501
#
#
# Mechanical properties :
#
#
# Convention : Reuss Voigt Hill
#
# Bulk Modulus (GPa) = 46.42608 48.59534 47.51071
# Shear Modulus (GPa) = 27.99891 30.67056 29.33474
#
# Velocity S-wave (km/s) = 3.94204 4.12583 4.03498
# Velocity P-wave (km/s) = 6.81810 7.04752 6.93376
#
# Compressibility (1/GPa) = 0.02153962
#
# Stress axis : x y z
#
# Youngs Moduli (GPa) = 71.62572 71.62714 117.61404
#
# Poissons Ratio (x) = 0.24031 0.24040
# Poissons Ratio (y) = 0.24030 0.24037
# Poissons Ratio (z) = 0.14640 0.14639
#
# Static dielectric constant tensor:
#      x y z
#    x 1.790820 0.000000 0.000000 
#    y 0.000000 1.790560 0.000000 
#    z 0.000000 0.000000 1.665110 
# 
# From -- ./inp_files/4001.got.cif
#   From: 2010.05.17/outbox.cif.g08.bks.cpg/sg137_3_cif.got.tgz:4001.got - 2010.05.20 13:01:12.
