data_PCOD9570140
_publ_section_title
;
Structure prediction by ZEFSAII (Michael W. Deem and Ramdas Pophale) SiO2 
 PCOD9570140
Probable space group: P 42/N M C
;
_chemical_formula_sum "Si O2"
_cell_formula_units_Z 40
_cell_length_a 10.002205
_cell_length_b 10.002205
_cell_length_c 23.501556
_cell_angle_alpha 90.000000
_cell_angle_beta 90.000000
_cell_angle_gamma 90.000000
_cell_volume 2351.192133
_symmetry_space_group_name_H-M "P 42/N M C"
_symmetry_group_IT_number 137
_space_group.IT_coordinate_system_code '2'
_symmetry_cell_setting 'tetragonal'
loop_
_space_group_symop_operation_xyz
x,y,z
1/2-y,x,1/2+z
1/2-x,1/2-y,z
y,1/2-x,1/2+z
1/2+x,-y,-z
-x,1/2+y,-z
1/2+y,1/2+x,1/2-z
-y,-x,1/2-z
-x,-y,-z
1/2+y,-x,1/2-z
1/2+x,1/2+y,-z
-y,1/2+x,1/2-z
1/2-x,y,z
x,1/2-y,z
1/2-y,1/2-x,1/2+z
y,x,1/2+z
loop_
_atom_site_type_symbol
_atom_site_label
_atom_site_fract_x
_atom_site_fract_y
_atom_site_fract_z
Si Si1 0.250000 0.586924 0.425696
Si Si2 0.089996 0.750000 0.941539
Si Si3 0.094044 0.594044 0.750000
Si Si4 0.517063 0.910955 0.626934
O O1 0.250000 0.750000 0.420391
O O2 0.250000 0.548968 0.492736
O O3 0.374185 0.512643 0.396584
O O4 0.250000 0.750000 0.942554
O O5 0.053482 0.618036 0.906955
O O6 0.077803 0.750000 0.766437
O O7 0.007035 0.569321 0.694177
O O8 0.545412 0.750000 0.618342
#
# Coordination Sequence:
#
# PCOD9570140 Si02
#       4
#     8   8   8  16
#     4  11  23  37  51  81 123 155 176 215 281 344
#     4   9  18  35  61  85 109 139 190 241 273 316
#     4   9  16  32  61  86 104 128 187 246 275 308
#     4  10  19  36  60  85 105 144 191 232 276 321
#
# _framework density 17.012646
#
# number of rings (size 3 to 8) (size 9 to 14) (size 15 to 20)
#    0.000    2.200    2.000    1.800    0.000    0.000 
#    3.600    3.000    0.000    0.000    0.000    0.000 
#    0.000    0.000    0.000    0.000    0.000    0.000 
#
# Total GULP energy -222834.446105 kJ/mol
# GULP energy per Si atom -5570.861153 kJ/mol
# Density = 1.697392 g / cm^3
# Si number density = 17.012646 Si / 1000 Ang^3
#
#
#
# Elastic Constant Matrix: (Units=GPa)
#
#
# Indices 1 2 3 4 5 6 
#
# 1 97.0744 62.1624 64.3471 0.0000 0.0000 0.0000
# 2 62.1624 97.0744 64.3471 0.0000 0.0000 0.0000
# 3 64.3471 64.3471 128.4833 0.0000 0.0000 0.0000
# 4 0.0000 0.0000 0.0000 25.7441 0.0000 0.0000
# 5 0.0000 0.0000 0.0000 0.0000 25.7441 0.0000
# 6 0.0000 0.0000 0.0000 0.0000 0.0000 21.0951
#
#
#
# Elastic Compliance Matrix: (Units=1/GPa)
#
#
# Indices 1 2 3 4 5 6 
#
# 1 0.019597 -0.009047 -0.005284 0.000000 0.000000 0.000000
# 2 -0.009047 0.019597 -0.005284 0.000000 0.000000 0.000000
# 3 -0.005284 -0.005284 0.013076 0.000000 0.000000 0.000000
# 4 0.000000 0.000000 0.000000 0.038844 0.000000 0.000000
# 5 0.000000 0.000000 0.000000 0.000000 0.038844 0.000000
# 6 0.000000 0.000000 0.000000 0.000000 0.000000 0.047404
#
#
# Mechanical properties :
#
#
# Convention : Reuss Voigt Hill
#
# Bulk Modulus (GPa) = 76.68149 78.26059 77.47104
# Shear Modulus (GPa) = 22.63091 23.30170 22.96631
#
# Velocity S-wave (km/s) = 3.65120 3.70492 3.67816
# Velocity P-wave (km/s) = 7.93386 8.02516 7.97964
#
# Compressibility (1/GPa) = 0.01304096
#
# Stress axis : x y z
#
# Youngs Moduli (GPa) = 51.02861 51.02861 76.47838
#
# Poissons Ratio (x) = 0.46163 0.40410
# Poissons Ratio (y) = 0.46163 0.40410
# Poissons Ratio (z) = 0.26963 0.26963
#
# Static dielectric constant tensor:
#      x y z
#    x 1.164300 0.000000 0.000000 
#    y 0.000000 1.164300 0.000000 
#    z 0.000000 0.000000 1.585540 
# 
# From -- ./inp_files/8325.got.cif
#   From: 2010.05.17/outbox.cif.g08.bks.cpg/sg137_5_cif.got.tgz:8325.got - 2010.05.20 13:01:12.
