data_PCOD9570160
_publ_section_title
;
Structure prediction by ZEFSAII (Michael W. Deem and Ramdas Pophale) SiO2 
 PCOD9570160
Probable space group: P 42/N M C
;
_chemical_formula_sum "Si O2"
_cell_formula_units_Z 54
_cell_length_a 10.475818
_cell_length_b 10.475818
_cell_length_c 19.751239
_cell_angle_alpha 90.000000
_cell_angle_beta 90.000000
_cell_angle_gamma 90.000000
_cell_volume 2167.555536
_symmetry_space_group_name_H-M "P 42/N M C"
_symmetry_group_IT_number 137
_space_group.IT_coordinate_system_code '2'
_symmetry_cell_setting 'tetragonal'
loop_
_space_group_symop_operation_xyz
x,y,z
1/2-y,x,1/2+z
1/2-x,1/2-y,z
y,1/2-x,1/2+z
1/2+x,-y,-z
-x,1/2+y,-z
1/2+y,1/2+x,1/2-z
-y,-x,1/2-z
-x,-y,-z
1/2+y,-x,1/2-z
1/2+x,1/2+y,-z
-y,1/2+x,1/2-z
1/2-x,y,z
x,1/2-y,z
1/2-y,1/2-x,1/2+z
y,x,1/2+z
loop_
_atom_site_type_symbol
_atom_site_label
_atom_site_fract_x
_atom_site_fract_y
_atom_site_fract_z
Si Si1 0.521731 0.950692 0.628823
Si Si2 0.250000 0.750000 0.472848
Si Si3 0.750000 0.250000 0.750000
Si Si4 0.600808 0.750000 0.740703
Si Si5 0.471694 0.750000 0.887279
Si Si6 0.250000 0.042426 0.477910
Si Si7 0.750000 0.462547 0.860555
O O1 0.384407 0.897895 0.609205
O O2 0.626814 0.932585 0.569040
O O3 0.491060 0.102229 0.639407
O O4 0.572701 0.874263 0.693857
O O5 0.250000 0.893412 0.498365
O O6 0.124502 0.750000 0.426700
O O7 0.750000 0.373101 0.795488
O O8 0.750000 0.750000 0.758996
O O9 0.519595 0.750000 0.808638
O O10 0.587906 0.750000 0.944299
#
# Coordination Sequence:
#
# PCOD9570160 Si02
#       7
#    16   4   2   8   8   8   8
#     4  11  25  49  74 105 155 198 249 306 383 450
#     4   7  16  37  68  98 129 174 251 298 350 421
#     4  10  20  28  68 100 128 172 250 296 350 410
#     4  12  28  50  71 109 154 200 249 312 382 452
#     4  12  28  43  73 118 149 192 256 319 367 451
#     4  10  21  49  75 108 145 205 252 310 371 447
#     4   9  21  37  68 105 132 187 244 299 352 429
#
# _framework density 24.912853999999999
#
# number of rings (size 3 to 8) (size 9 to 14) (size 15 to 20)
#    0.000    1.481    1.481    2.667    6.222    1.778 
#    2.667    5.926    0.000    0.000    0.000    0.000 
#    0.000    0.000    0.000    0.000    0.000    0.000 
#
# Total GULP energy -301069.410125 kJ/mol
# GULP energy per Si atom -5575.359447 kJ/mol
# Density = 2.485615 g / cm^3
# Si number density = 24.912854 Si / 1000 Ang^3
#
#
#
# Elastic Constant Matrix: (Units=GPa)
#
#
# Indices 1 2 3 4 5 6 
#
# 1 142.9728 7.7651 28.5984 0.0000 0.0000 0.0000
# 2 7.7651 142.9728 28.5984 0.0000 0.0000 0.0000
# 3 28.5984 28.5984 146.4721 0.0000 0.0000 0.0000
# 4 0.0000 0.0000 0.0000 -79.7498 0.0000 0.0000
# 5 0.0000 0.0000 0.0000 0.0000 -79.7498 0.0000
# 6 0.0000 0.0000 0.0000 0.0000 0.0000 -16.2388
#
#
#
# Elastic Compliance Matrix: (Units=1/GPa)
#
#
# Indices 1 2 3 4 5 6 
#
# 1 0.007280 -0.000116 -0.001399 0.000000 0.000000 0.000000
# 2 -0.000116 0.007280 -0.001399 0.000000 0.000000 0.000000
# 3 -0.001399 -0.001399 0.007374 0.000000 0.000000 0.000000
# 4 0.000000 0.000000 0.000000 -0.012539 0.000000 0.000000
# 5 0.000000 0.000000 0.000000 0.000000 -0.012539 0.000000
# 6 0.000000 0.000000 0.000000 0.000000 0.000000 -0.061581
#
#
# Mechanical properties :
#
#
# Convention : Reuss Voigt Hill
#
# Bulk Modulus (GPa) = 62.08281 62.48237 62.28259
# Shear Modulus (GPa) = -93.40754 -10.65062 -52.02908
#
# Velocity S-wave (km/s) = -6.12985 -2.06989 -4.57491
# Velocity P-wave (km/s) = 5.01259 4.40707 1.68876
#
# Compressibility (1/GPa) = 0.01610752
#
# Stress axis : x y z
#
# Youngs Moduli (GPa) = 137.35441 137.35441 135.62059
#
# Poissons Ratio (x) = 0.01588 0.18972
# Poissons Ratio (y) = 0.01588 0.18972
# Poissons Ratio (z) = 0.19215 0.19215
#
# Static dielectric constant tensor:
#      x y z
#    x 2.257420 0.000000 0.000000 
#    y 0.000000 2.257420 0.000000 
#    z 0.000000 0.000000 2.074810 
# 
# From -- ./inp_files/7316.got.cif
#   From: 2010.05.17/outbox.cif.g08.bks.cpg/sg137_4_cif.got.tgz:7316.got - 2010.05.20 13:01:12.
