data_PCOD9570412
_publ_section_title
;
Structure prediction by ZEFSAII (Michael W. Deem and Ramdas Pophale) SiO2 
 PCOD9570412
Probable space group: P 42/N M C
;
_chemical_formula_sum "Si O2"
_cell_formula_units_Z 116
_cell_length_a 17.179666
_cell_length_b 17.179666
_cell_length_c 18.430099
_cell_angle_alpha 90.000000
_cell_angle_beta 90.000000
_cell_angle_gamma 90.000000
_cell_volume 5439.476446
_symmetry_space_group_name_H-M "P 42/N M C"
_symmetry_group_IT_number 137
_space_group.IT_coordinate_system_code '2'
_symmetry_cell_setting 'tetragonal'
loop_
_space_group_symop_operation_xyz
x,y,z
1/2-y,x,1/2+z
1/2-x,1/2-y,z
y,1/2-x,1/2+z
1/2+x,-y,-z
-x,1/2+y,-z
1/2+y,1/2+x,1/2-z
-y,-x,1/2-z
-x,-y,-z
1/2+y,-x,1/2-z
1/2+x,1/2+y,-z
-y,1/2+x,1/2-z
1/2-x,y,z
x,1/2-y,z
1/2-y,1/2-x,1/2+z
y,x,1/2+z
loop_
_atom_site_type_symbol
_atom_site_label
_atom_site_fract_x
_atom_site_fract_y
_atom_site_fract_z
Si Si1 0.662500 0.343387 0.550738
Si Si2 0.911723 0.912699 0.476359
Si Si3 0.062622 0.590607 0.567305
Si Si4 0.985436 0.841407 0.703050
Si Si5 0.341306 0.566080 0.189774
Si Si6 0.614650 0.874393 0.317475
Si Si7 0.339696 0.336301 0.897969
Si Si8 0.750000 0.750000 0.786916
O O1 0.750000 0.369980 0.569202
O O2 0.662120 0.250000 0.550852
O O3 0.636384 0.371317 0.471609
O O4 0.599940 0.368964 0.611735
O O5 0.884360 0.869361 0.404736
O O6 0.846913 0.901482 0.537923
O O7 0.988191 0.881517 0.518611
O O8 0.930211 0.999020 0.448162
O O9 0.045854 0.614320 0.650291
O O10 0.005123 0.750000 0.704954
O O11 0.960068 0.870217 0.782636
O O12 0.903914 0.852009 0.659601
O O13 0.389230 0.610770 0.250000
O O14 0.250000 0.584327 0.196344
O O15 0.352421 0.474274 0.199743
O O16 0.681867 0.817783 0.290430
O O17 0.250000 0.344812 0.925545
O O18 0.344453 0.250000 0.866016
#
# Coordination Sequence:
#
# PCOD9570412 Si02
#       8
#    16  16  16  16  16  16  16   4
#     4  10  21  40  67  95 127 166 216 277 339 404
#     4  10  23  37  59  90 120 166 215 271 331 401
#     4  10  21  42  62  87 125 165 219 280 334 396
#     4  10  22  38  60  88 121 169 221 277 330 407
#     4  11  24  40  64  97 134 180 222 277 341 410
#     4  12  25  41  64  92 135 176 226 279 340 414
#     4   9  20  34  55  81 119 161 210 265 329 395
#     4  12  28  44  64  98 142 180 230 278 348 408
#
# _framework density 21.325579999999999
#
# number of rings (size 3 to 8) (size 9 to 14) (size 15 to 20)
#    0.000    1.655    2.759    0.828    4.828    2.897 
#    0.000    0.000    0.000    0.000    0.000    0.000 
#    0.000    2.207    0.000    0.000    0.000    0.000 
#
# Total GULP energy -646402.137746 kJ/mol
# GULP energy per Si atom -5572.432222 kJ/mol
# Density = 2.127704 g / cm^3
# Si number density = 21.325580 Si / 1000 Ang^3
#
#
#
# Elastic Constant Matrix: (Units=GPa)
#
#
# Indices 1 2 3 4 5 6 
#
# 1 61.4390 33.5125 11.0481 0.0000 0.0000 0.0000
# 2 33.5125 61.4390 11.0481 0.0000 0.0000 0.0000
# 3 11.0481 11.0481 58.5308 0.0000 0.0000 0.0000
# 4 0.0000 0.0000 0.0000 45.8539 0.0000 0.0000
# 5 0.0000 0.0000 0.0000 0.0000 45.8539 0.0000
# 6 0.0000 0.0000 0.0000 0.0000 0.0000 32.0449
#
#
#
# Elastic Compliance Matrix: (Units=1/GPa)
#
#
# Indices 1 2 3 4 5 6 
#
# 1 0.023412 -0.012396 -0.002079 0.000000 0.000000 0.000000
# 2 -0.012396 0.023412 -0.002079 0.000000 0.000000 0.000000
# 3 -0.002079 -0.002079 0.017870 0.000000 0.000000 0.000000
# 4 0.000000 0.000000 0.000000 0.021808 0.000000 0.000000
# 5 0.000000 0.000000 0.000000 0.000000 0.021808 0.000000
# 6 0.000000 0.000000 0.000000 0.000000 0.000000 0.031206
#
#
# Mechanical properties :
#
#
# Convention : Reuss Voigt Hill
#
# Bulk Modulus (GPa) = 31.66158 32.51403 32.08780
# Shear Modulus (GPa) = 27.29933 33.13721 30.21827
#
# Velocity S-wave (km/s) = 3.58176 3.94619 3.76838
# Velocity P-wave (km/s) = 5.65547 6.00357 5.83212
#
# Compressibility (1/GPa) = 0.03158403
#
# Stress axis : x y z
#
# Youngs Moduli (GPa) = 42.71325 42.71325 55.95977
#
# Poissons Ratio (x) = 0.52949 0.11636
# Poissons Ratio (y) = 0.52949 0.11636
# Poissons Ratio (z) = 0.08881 0.08881
#
# Static dielectric constant tensor:
#      x y z
#    x 1.785590 0.000000 0.000000 
#    y 0.000000 1.785590 0.000000 
#    z 0.000000 0.000000 1.821390 
# 
# From -- ./inp_files/6677.got.cif
#   From: 2010.05.17/outbox.cif.g08.bks.cpg/sg137_4_cif.got.tgz:6677.got - 2010.05.20 13:01:12.
