data_PCOD9570954
_publ_section_title
;
Structure prediction by ZEFSAII (Michael W. Deem and Ramdas Pophale) SiO2 
 PCOD9570954
Probable space group: P 42/N C M
;
_chemical_formula_sum "Si O2"
_cell_formula_units_Z 84
_cell_length_a 13.791913
_cell_length_b 13.791913
_cell_length_c 24.307278
_cell_angle_alpha 90.000000
_cell_angle_beta 90.000000
_cell_angle_gamma 90.000000
_cell_volume 4623.654198
_symmetry_space_group_name_H-M "P 42/N C M"
_symmetry_group_IT_number 138
_space_group.IT_coordinate_system_code '2'
_symmetry_cell_setting 'tetragonal'
loop_
_space_group_symop_operation_xyz
x,y,z
1/2-y,x,1/2+z
1/2-x,1/2-y,z
y,1/2-x,1/2+z
1/2+x,-y,1/2-z
-x,1/2+y,1/2-z
1/2+y,1/2+x,-z
-y,-x,-z
-x,-y,-z
1/2+y,-x,1/2-z
1/2+x,1/2+y,-z
-y,1/2+x,1/2-z
1/2-x,y,1/2+z
x,1/2-y,1/2+z
1/2-y,1/2-x,z
y,x,z
loop_
_atom_site_type_symbol
_atom_site_label
_atom_site_fract_x
_atom_site_fract_y
_atom_site_fract_z
Si Si1 0.750000 0.750000 0.126151
Si Si2 0.672259 0.827742 0.298425
Si Si3 0.489385 0.707270 0.866788
Si Si4 0.397604 0.397604 0.862239
Si Si5 0.969454 0.530547 0.439249
Si Si6 0.372877 0.625987 0.325393
Si Si7 0.399208 0.100793 0.816791
Si Si8 0.661746 0.418813 0.200302
O O1 0.827511 0.827511 0.103044
O O2 0.676160 0.823841 0.156602
O O3 0.750000 0.750000 0.277776
O O4 0.591679 0.776849 0.336663
O O5 0.618605 0.881396 0.248177
O O6 0.507604 0.641664 0.920964
O O7 0.426921 0.805614 0.869163
O O8 0.428714 0.637209 0.825841
O O9 0.463114 0.463114 0.901187
O O10 0.472139 0.339856 0.822969
O O11 0.000000 0.500000 0.500000
O O12 0.257495 0.637098 0.319387
O O13 0.417298 0.654509 0.265900
O O14 0.511098 0.116612 0.832545
#
# Coordination Sequence:
#
# PCOD9570954 Si02
#       8
#     4   8  16   8   8  16   8  16
#     4  12  22  38  48  84 114 164 208 236 268 358
#     4  11  21  36  49  75 120 173 211 245 272 358
#     4  10  22  35  55  87 116 145 208 257 304 364
#     4  10  22  37  57  81 114 153 207 250 281 350
#     4   9  21  46  73  86 104 146 206 269 319 367
#     4  12  21  31  50  81 121 169 191 240 295 367
#     4  12  22  31  50  77 126 172 214 221 283 353
#     4  11  19  32  51  77 118 163 198 231 289 358
#
# _framework density 18.167449000000001
#
# number of rings (size 3 to 8) (size 9 to 14) (size 15 to 20)
#    0.000    1.143    6.190    1.714    1.333    0.000 
#    0.000    0.000    4.190    9.143    0.000    1.333 
#    0.000    0.000    0.000    0.000    0.000    0.000 
#
# Total GULP energy -468265.712954 kJ/mol
# GULP energy per Si atom -5574.591821 kJ/mol
# Density = 1.812610 g / cm^3
# Si number density = 18.167449 Si / 1000 Ang^3
#
#
#
# Elastic Constant Matrix: (Units=GPa)
#
#
# Indices 1 2 3 4 5 6 
#
# 1 95.2500 59.0497 19.2720 0.0000 0.0000 0.0000
# 2 59.0497 95.2500 19.2720 0.0000 0.0000 0.0000
# 3 19.2720 19.2720 54.6417 0.0000 0.0000 0.0000
# 4 0.0000 0.0000 0.0000 11.5720 0.0000 0.0000
# 5 0.0000 0.0000 0.0000 0.0000 11.5720 0.0000
# 6 0.0000 0.0000 0.0000 0.0000 0.0000 35.7094
#
#
#
# Elastic Compliance Matrix: (Units=1/GPa)
#
#
# Indices 1 2 3 4 5 6 
#
# 1 0.017366 -0.010259 -0.002507 0.000000 0.000000 0.000000
# 2 -0.010259 0.017366 -0.002507 0.000000 0.000000 0.000000
# 3 -0.002507 -0.002507 0.020069 0.000000 0.000000 0.000000
# 4 0.000000 0.000000 0.000000 0.086415 0.000000 0.000000
# 5 0.000000 0.000000 0.000000 0.000000 0.086415 0.000000
# 6 0.000000 0.000000 0.000000 0.000000 0.000000 0.028004
#
#
# Mechanical properties :
#
#
# Convention : Reuss Voigt Hill
#
# Bulk Modulus (GPa) = 41.22565 48.92546 45.07555
# Shear Modulus (GPa) = 16.99154 21.60722 19.29938
#
# Velocity S-wave (km/s) = 3.06154 3.45242 3.26284
# Velocity P-wave (km/s) = 5.93622 6.54836 6.24979
#
# Compressibility (1/GPa) = 0.02425675
#
# Stress axis : x y z
#
# Youngs Moduli (GPa) = 57.58514 57.58514 49.82759
#
# Poissons Ratio (x) = 0.59074 0.12490
# Poissons Ratio (y) = 0.59074 0.12490
# Poissons Ratio (z) = 0.14435 0.14435
#
# Static dielectric constant tensor:
#      x y z
#    x 1.672070 0.000000 0.000000 
#    y 0.000000 1.672070 0.000000 
#    z 0.000000 0.000000 1.578900 
# 
# From -- ./inp_files/6977.got.cif
#   From: 2010.05.17/outbox.cif.g08.bks.cpg/sg138_4_cif.got.tgz:6977.got - 2010.05.20 13:08:53.
