data_PCOD9570745
_publ_section_title
;
Structure prediction by ZEFSAII (Michael W. Deem and Ramdas Pophale) SiO2 
 PCOD9570745
Probable space group: P 42/N C M
;
_chemical_formula_sum "Si O2"
_cell_formula_units_Z 64
_cell_length_a 11.419461
_cell_length_b 11.419461
_cell_length_c 23.367088
_cell_angle_alpha 90.000000
_cell_angle_beta 90.000000
_cell_angle_gamma 90.000000
_cell_volume 3047.163836
_symmetry_space_group_name_H-M "P 42/N C M"
_symmetry_group_IT_number 138
_space_group.IT_coordinate_system_code '2'
_symmetry_cell_setting 'tetragonal'
loop_
_space_group_symop_operation_xyz
x,y,z
1/2-y,x,1/2+z
1/2-x,1/2-y,z
y,1/2-x,1/2+z
1/2+x,-y,1/2-z
-x,1/2+y,1/2-z
1/2+y,1/2+x,-z
-y,-x,-z
-x,-y,-z
1/2+y,-x,1/2-z
1/2+x,1/2+y,-z
-y,1/2+x,1/2-z
1/2-x,y,1/2+z
x,1/2-y,1/2+z
1/2-y,1/2-x,z
y,x,z
loop_
_atom_site_type_symbol
_atom_site_label
_atom_site_fract_x
_atom_site_fract_y
_atom_site_fract_z
Si Si1 0.686037 0.006102 0.724233
Si Si2 0.351802 0.351802 0.341791
Si Si3 0.148833 0.148833 0.474217
Si Si4 0.021319 0.680500 0.331794
Si Si5 0.520195 0.317963 0.035154
O O1 0.587387 0.912614 0.708139
O O2 0.801851 0.963233 0.691613
O O3 0.709661 0.996522 0.791463
O O4 0.634230 0.124401 0.699246
O O5 0.250000 0.250000 0.339687
O O6 0.375667 0.375667 0.407899
O O7 0.250000 0.250000 0.475439
O O8 0.037741 0.205411 0.505555
O O9 0.045250 0.703223 0.398157
O O10 0.911003 0.588998 0.328659
O O11 0.419997 0.419997 0.033676
O O12 0.628890 0.371111 0.000000
#
# Coordination Sequence:
#
# PCOD9570745 Si02
#       5
#    16   8   8  16  16
#     4  10  20  33  52  78 108 148 179 232 282 331
#     4   9  16  30  50  75 108 145 185 222 274 341
#     4   9  16  26  46  75 105 148 189 226 290 333
#     4  10  20  33  51  78 112 143 190 228 284 333
#     4   9  17  29  46  75 113 147 181 237 283 340
#
# _framework density 21.003136999999999
#
# number of rings (size 3 to 8) (size 9 to 14) (size 15 to 20)
#    0.000    2.500    1.250    1.500    1.750    6.500 
#    0.000    0.000    0.000    0.000    0.000   14.000 
#    0.000    0.000    0.000    0.000    0.000    0.000 
#
# Total GULP energy -357126.731370 kJ/mol
# GULP energy per Si atom -5580.105178 kJ/mol
# Density = 2.095533 g / cm^3
# Si number density = 21.003137 Si / 1000 Ang^3
#
#
#
# Elastic Constant Matrix: (Units=GPa)
#
#
# Indices 1 2 3 4 5 6 
#
# 1 26.1757 21.0758 15.0803 0.0000 0.0000 0.0000
# 2 21.0758 26.1762 15.0801 0.0000 0.0000 0.0000
# 3 15.0803 15.0801 150.9690 0.0000 0.0000 0.0000
# 4 0.0000 0.0000 0.0000 7.3847 0.0000 0.0000
# 5 0.0000 0.0000 0.0000 0.0000 7.3849 0.0000
# 6 0.0000 0.0000 0.0000 0.0000 0.0000 23.8200
#
#
#
# Elastic Compliance Matrix: (Units=1/GPa)
#
#
# Indices 1 2 3 4 5 6 
#
# 1 0.109341 -0.086735 -0.002258 0.000000 0.000000 0.000000
# 2 -0.086735 0.109339 -0.002258 0.000000 0.000000 0.000000
# 3 -0.002258 -0.002258 0.007075 0.000000 0.000000 0.000000
# 4 0.000000 0.000000 0.000000 0.135415 0.000000 0.000000
# 5 0.000000 0.000000 0.000000 0.000000 0.135412 0.000000
# 6 0.000000 0.000000 0.000000 0.000000 0.000000 0.041981
#
#
# Mechanical properties :
#
#
# Convention : Reuss Voigt Hill
#
# Bulk Modulus (GPa) = 23.12026 33.97703 28.54865
# Shear Modulus (GPa) = 6.79825 17.85689 12.32757
#
# Velocity S-wave (km/s) = 1.80106 2.91898 2.42531
# Velocity P-wave (km/s) = 3.91880 5.25099 4.63303
#
# Compressibility (1/GPa) = 0.04325210
#
# Stress axis : x y z
#
# Youngs Moduli (GPa) = 9.14570 9.14590 141.34340
#
# Poissons Ratio (x) = 0.79327 0.31918
# Poissons Ratio (y) = 0.79326 0.31911
# Poissons Ratio (z) = 0.02065 0.02065
#
# Static dielectric constant tensor:
#      x y z
#    x 1.813170 0.000000 0.000000 
#    y 0.000000 1.813170 0.000000 
#    z 0.000000 0.000000 1.706950 
# 
# From -- ./inp_files/4928.got.cif
#   From: 2010.05.17/outbox.cif.g08.bks.cpg/sg138_3_cif.got.tgz:4928.got - 2010.05.20 13:08:53.
