data_PCOD9570085
_publ_section_title
;
Structure prediction by ZEFSAII (Michael W. Deem and Ramdas Pophale) SiO2 
 PCOD9570085
Probable space group: P 42/N M C
;
_chemical_formula_sum "Si O2"
_cell_formula_units_Z 64
_cell_length_a 15.113262
_cell_length_b 15.113262
_cell_length_c 14.706612
_cell_angle_alpha 90.000000
_cell_angle_beta 90.000000
_cell_angle_gamma 90.000000
_cell_volume 3359.147369
_symmetry_space_group_name_H-M "P 42/N M C"
_symmetry_group_IT_number 137
_space_group.IT_coordinate_system_code '2'
_symmetry_cell_setting 'tetragonal'
loop_
_space_group_symop_operation_xyz
x,y,z
1/2-y,x,1/2+z
1/2-x,1/2-y,z
y,1/2-x,1/2+z
1/2+x,-y,-z
-x,1/2+y,-z
1/2+y,1/2+x,1/2-z
-y,-x,1/2-z
-x,-y,-z
1/2+y,-x,1/2-z
1/2+x,1/2+y,-z
-y,1/2+x,1/2-z
1/2-x,y,z
x,1/2-y,z
1/2-y,1/2-x,1/2+z
y,x,1/2+z
loop_
_atom_site_type_symbol
_atom_site_label
_atom_site_fract_x
_atom_site_fract_y
_atom_site_fract_z
Si Si1 0.888127 0.648839 0.386215
Si Si2 0.601230 0.350796 0.645588
Si Si3 0.097355 0.483598 0.461162
Si Si4 0.144830 0.347421 0.319745
O O1 0.864206 0.750000 0.411322
O O2 0.859364 0.577946 0.461503
O O3 0.849685 0.628399 0.287419
O O4 0.994787 0.647459 0.370220
O O5 0.623222 0.376779 0.750000
O O6 0.631301 0.250000 0.630201
O O7 0.637204 0.424242 0.575020
O O8 0.092617 0.422237 0.372259
O O9 0.000000 0.500000 0.500000
O O10 0.250000 0.364335 0.331850
O O11 0.124093 0.250000 0.356009
#
# Coordination Sequence:
#
# PCOD9570085 Si02
#       4
#    16  16  16  16
#     4   9  18  33  53  79 111 147 187 230 284 348
#     4  10  19  33  52  75 106 145 189 239 285 327
#     4  10  20  33  55  79 112 149 186 229 279 329
#     4  10  20  34  54  82 116 149 182 227 285 346
#
# _framework density 19.052454000000001
#
# number of rings (size 3 to 8) (size 9 to 14) (size 15 to 20)
#    0.000    2.250    2.500    0.750    0.000    2.250 
#    0.000    2.500    0.000    0.000    0.000    0.000 
#    0.000    2.000    0.000    0.000    0.000    0.000 
#
# Total GULP energy -356900.224329 kJ/mol
# GULP energy per Si atom -5576.566005 kJ/mol
# Density = 1.900909 g / cm^3
# Si number density = 19.052454 Si / 1000 Ang^3
#
#
#
# Elastic Constant Matrix: (Units=GPa)
#
#
# Indices 1 2 3 4 5 6 
#
# 1 92.8301 36.7680 55.1396 0.0000 0.0000 0.0000
# 2 36.7680 92.8292 55.1396 0.0000 0.0000 0.0000
# 3 55.1396 55.1396 115.5840 0.0000 0.0000 0.0000
# 4 0.0000 0.0000 0.0000 10.5490 0.0000 0.0000
# 5 0.0000 0.0000 0.0000 0.0000 10.5488 0.0000
# 6 0.0000 0.0000 0.0000 0.0000 0.0000 -8.7701
#
#
#
# Elastic Compliance Matrix: (Units=1/GPa)
#
#
# Indices 1 2 3 4 5 6 
#
# 1 0.015413 -0.002424 -0.006196 0.000000 0.000000 0.000000
# 2 -0.002424 0.015413 -0.006196 0.000000 0.000000 0.000000
# 3 -0.006196 -0.006196 0.014564 0.000000 0.000000 0.000000
# 4 0.000000 0.000000 0.000000 0.094796 0.000000 0.000000
# 5 0.000000 0.000000 0.000000 0.000000 0.094798 0.000000
# 6 0.000000 0.000000 0.000000 0.000000 0.000000 -0.114024
#
#
# Mechanical properties :
#
#
# Convention : Reuss Voigt Hill
#
# Bulk Modulus (GPa) = 63.46794 66.14864 64.80829
# Shear Modulus (GPa) = 32.08292 12.74528 22.41410
#
# Velocity S-wave (km/s) = 4.10802 2.58923 3.43365
# Velocity P-wave (km/s) = 7.47567 6.61312 7.05758
#
# Compressibility (1/GPa) = 0.01575599
#
# Stress axis : x y z
#
# Youngs Moduli (GPa) = 64.87993 64.87898 68.66377
#
# Poissons Ratio (x) = 0.15729 0.42546
# Poissons Ratio (y) = 0.15729 0.42547
# Poissons Ratio (z) = 0.40202 0.40202
#
# Static dielectric constant tensor:
#      x y z
#    x 1.683170 0.000000 0.000000 
#    y 0.000000 1.683170 0.000000 
#    z 0.000000 0.000000 1.650960 
# 
# From -- ./inp_files/3339.got.cif
#   From: 2010.05.17/outbox.cif.g08.bks.cpg/sg137_2_cif.got.tgz:3339.got - 2010.05.20 13:01:12.
