data_PCOD9570362
_publ_section_title
;
Structure prediction by ZEFSAII (Michael W. Deem and Ramdas Pophale) SiO2 
 PCOD9570362
Probable space group: P 42/N M C
;
_chemical_formula_sum "Si O2"
_cell_formula_units_Z 72
_cell_length_a 19.052446
_cell_length_b 19.052446
_cell_length_c 9.913177
_cell_angle_alpha 90.000000
_cell_angle_beta 90.000000
_cell_angle_gamma 90.000000
_cell_volume 3598.440610
_symmetry_space_group_name_H-M "P 42/N M C"
_symmetry_group_IT_number 137
_space_group.IT_coordinate_system_code '2'
_symmetry_cell_setting 'tetragonal'
loop_
_space_group_symop_operation_xyz
x,y,z
1/2-y,x,1/2+z
1/2-x,1/2-y,z
y,1/2-x,1/2+z
1/2+x,-y,-z
-x,1/2+y,-z
1/2+y,1/2+x,1/2-z
-y,-x,1/2-z
-x,-y,-z
1/2+y,-x,1/2-z
1/2+x,1/2+y,-z
-y,1/2+x,1/2-z
1/2-x,y,z
x,1/2-y,z
1/2-y,1/2-x,1/2+z
y,x,1/2+z
loop_
_atom_site_type_symbol
_atom_site_label
_atom_site_fract_x
_atom_site_fract_y
_atom_site_fract_z
Si Si1 0.082969 0.015292 0.030672
Si Si2 0.831448 0.444043 0.212280
Si Si3 0.941151 0.828059 0.950481
Si Si4 0.525790 0.172879 0.776991
Si Si5 0.824665 0.324665 0.750000
O O1 0.098841 0.098104 0.053660
O O2 0.111972 0.982393 0.168768
O O3 0.127191 0.982605 0.908562
O O4 0.000000 0.000000 0.000000
O O5 0.874265 0.374265 0.250000
O O6 0.750000 0.431095 0.178396
O O7 0.833115 0.497210 0.339671
O O8 0.907944 0.750000 0.932942
O O9 0.973897 0.830959 0.099428
O O10 0.516284 0.250000 0.710769
O O11 0.605002 0.172991 0.835801
O O12 0.826608 0.250000 0.675387
#
# Coordination Sequence:
#
# PCOD9570362 Si02
#       5
#    16  16  16  16   8
#     4  12  22  38  64  92 122 162 215 262 318 380
#     4  11  24  42  60  92 132 175 215 265 326 398
#     4  10  22  39  61  89 125 158 210 269 321 377
#     4  10  21  37  57  87 118 153 201 259 306 363
#     4   9  18  32  50  76 112 150 188 236 293 346
#
# _framework density 20.008668
#
# number of rings (size 3 to 8) (size 9 to 14) (size 15 to 20)
#    0.000    1.444    2.222    3.333    0.000    0.222 
#    0.000    0.000    0.000    2.667    0.000   12.444 
#    0.000    0.000    0.000    0.000    0.000    0.000 
#
# Total GULP energy -401204.385500 kJ/mol
# GULP energy per Si atom -5572.283132 kJ/mol
# Density = 1.996313 g / cm^3
# Si number density = 20.008668 Si / 1000 Ang^3
#
#
#
# Elastic Constant Matrix: (Units=GPa)
#
#
# Indices 1 2 3 4 5 6 
#
# 1 123.8142 62.3472 39.9664 0.0000 0.0000 0.0000
# 2 62.3472 123.8142 39.9664 0.0000 0.0000 0.0000
# 3 39.9664 39.9664 95.0363 0.0000 0.0000 0.0000
# 4 0.0000 0.0000 0.0000 22.5005 0.0000 0.0000
# 5 0.0000 0.0000 0.0000 0.0000 22.5005 0.0000
# 6 0.0000 0.0000 0.0000 0.0000 0.0000 23.1416
#
#
#
# Elastic Compliance Matrix: (Units=1/GPa)
#
#
# Indices 1 2 3 4 5 6 
#
# 1 0.011412 -0.004857 -0.002757 0.000000 0.000000 0.000000
# 2 -0.004857 0.011412 -0.002757 0.000000 0.000000 0.000000
# 3 -0.002757 -0.002757 0.012841 0.000000 0.000000 0.000000
# 4 0.000000 0.000000 0.000000 0.044443 0.000000 0.000000
# 5 0.000000 0.000000 0.000000 0.000000 0.044443 0.000000
# 6 0.000000 0.000000 0.000000 0.000000 0.000000 0.043212
#
#
# Mechanical properties :
#
#
# Convention : Reuss Voigt Hill
#
# Bulk Modulus (GPa) = 67.00359 69.69161 68.34760
# Shear Modulus (GPa) = 25.84249 26.98751 26.41500
#
# Velocity S-wave (km/s) = 3.59773 3.67657 3.63737
# Velocity P-wave (km/s) = 7.12869 7.27525 7.20234
#
# Compressibility (1/GPa) = 0.01492457
#
# Stress axis : x y z
#
# Youngs Moduli (GPa) = 87.62601 87.62601 77.87575
#
# Poissons Ratio (x) = 0.42558 0.21469
# Poissons Ratio (y) = 0.42558 0.21469
# Poissons Ratio (z) = 0.24157 0.24157
#
# Static dielectric constant tensor:
#      x y z
#    x 1.795780 0.000000 0.000000 
#    y 0.000000 1.795780 0.000000 
#    z 0.000000 0.000000 1.670360 
# 
# From -- ./inp_files/1935.got.cif
#   From: 2010.05.17/outbox.cif.g08.bks.cpg/sg137_1_cif.got.tgz:1935.got - 2010.05.20 13:01:12.
