data_PCOD9570732
_publ_section_title
;
Structure prediction by ZEFSAII (Michael W. Deem and Ramdas Pophale) SiO2 
 PCOD9570732
Probable space group: P 42/N C M
;
_chemical_formula_sum "Si O2"
_cell_formula_units_Z 56
_cell_length_a 18.985926
_cell_length_b 18.985926
_cell_length_c 9.487882
_cell_angle_alpha 90.000000
_cell_angle_beta 90.000000
_cell_angle_gamma 90.000000
_cell_volume 3420.053048
_symmetry_space_group_name_H-M "P 42/N C M"
_symmetry_group_IT_number 138
_space_group.IT_coordinate_system_code '2'
_symmetry_cell_setting 'tetragonal'
loop_
_space_group_symop_operation_xyz
x,y,z
1/2-y,x,1/2+z
1/2-x,1/2-y,z
y,1/2-x,1/2+z
1/2+x,-y,1/2-z
-x,1/2+y,1/2-z
1/2+y,1/2+x,-z
-y,-x,-z
-x,-y,-z
1/2+y,-x,1/2-z
1/2+x,1/2+y,-z
-y,1/2+x,1/2-z
1/2-x,y,1/2+z
x,1/2-y,1/2+z
1/2-y,1/2-x,z
y,x,z
loop_
_atom_site_type_symbol
_atom_site_label
_atom_site_fract_x
_atom_site_fract_y
_atom_site_fract_z
Si Si1 0.844159 0.540333 0.741702
Si Si2 0.104153 0.395848 0.795208
Si Si3 0.803196 0.696805 0.415805
Si Si4 0.006707 0.493294 0.170960
Si Si5 0.062871 0.266158 0.977426
O O1 0.881834 0.618166 0.737145
O O2 0.799795 0.527003 0.600662
O O3 0.912360 0.493780 0.780328
O O4 0.788233 0.537615 0.868243
O O5 0.147198 0.352803 0.678798
O O6 0.046514 0.453487 0.753932
O O7 0.063467 0.337398 0.887176
O O8 0.750000 0.750000 0.337950
O O9 0.856167 0.743011 0.506971
O O10 0.000000 0.500000 0.000000
#
# Coordination Sequence:
#
# PCOD9570732 Si02
#       5
#    16   8   8   8  16
#     4  10  21  34  51  73 104 146 191 225 265 330
#     4  12  22  31  53  73 110 150 181 222 270 323
#     4  12  23  28  46  83 118 139 181 219 272 315
#     4  10  19  39  52  69  98 165 199 213 269 346
#     4  12  20  32  48  79 105 143 180 230 259 324
#
# _framework density 16.374015
#
# number of rings (size 3 to 8) (size 9 to 14) (size 15 to 20)
#    0.857    0.000   10.000    0.000    2.000    0.000 
#    0.000    2.857    0.000    0.000    0.000    0.000 
#    0.000    1.143   11.429    0.286    0.000    0.000 
#
# Total GULP energy -311749.793006 kJ/mol
# GULP energy per Si atom -5566.960589 kJ/mol
# Density = 1.633675 g / cm^3
# Si number density = 16.374015 Si / 1000 Ang^3
#
#
#
# Elastic Constant Matrix: (Units=GPa)
#
#
# Indices 1 2 3 4 5 6 
#
# 1 54.8824 43.3060 19.7548 0.0000 0.0000 0.0000
# 2 43.3060 54.8824 19.7548 0.0000 0.0000 0.0000
# 3 19.7548 19.7548 31.7139 0.0000 0.0000 0.0000
# 4 0.0000 0.0000 0.0000 19.9586 0.0000 0.0000
# 5 0.0000 0.0000 0.0000 0.0000 19.9586 0.0000
# 6 0.0000 0.0000 0.0000 0.0000 0.0000 45.9242
#
#
#
# Elastic Compliance Matrix: (Units=1/GPa)
#
#
# Indices 1 2 3 4 5 6 
#
# 1 0.049987 -0.036396 -0.008466 0.000000 0.000000 0.000000
# 2 -0.036396 0.049987 -0.008466 0.000000 0.000000 0.000000
# 3 -0.008466 -0.008466 0.042079 0.000000 0.000000 0.000000
# 4 0.000000 0.000000 0.000000 0.050104 0.000000 0.000000
# 5 0.000000 0.000000 0.000000 0.000000 0.050104 0.000000
# 6 0.000000 0.000000 0.000000 0.000000 0.000000 0.021775
#
#
# Mechanical properties :
#
#
# Convention : Reuss Voigt Hill
#
# Bulk Modulus (GPa) = 28.25083 34.12331 31.18707
# Shear Modulus (GPa) = 13.07228 21.07917 17.07572
#
# Velocity S-wave (km/s) = 2.82858 3.59187 3.23283
# Velocity P-wave (km/s) = 5.28760 6.17148 5.74656
#
# Compressibility (1/GPa) = 0.03539719
#
# Stress axis : x y z
#
# Youngs Moduli (GPa) = 20.00532 20.00532 23.76491
#
# Poissons Ratio (x) = 0.72811 0.20119
# Poissons Ratio (y) = 0.72811 0.20119
# Poissons Ratio (z) = 0.16936 0.16936
#
# Static dielectric constant tensor:
#      x y z
#    x 1.564110 0.000000 0.000000 
#    y 0.000000 1.564110 0.000000 
#    z 0.000000 0.000000 1.619870 
# 
# From -- ./inp_files/1345.got.cif
#   From: 2010.05.17/outbox.cif.g08.bks.cpg/sg138_1_cif.got.tgz:1345.got - 2010.05.20 13:08:53.
