data_PCOD9570822
_publ_section_title
;
Structure prediction by ZEFSAII (Michael W. Deem and Ramdas Pophale) SiO2 
 PCOD9570822
Probable space group: P 42/N C M
;
_chemical_formula_sum "Si O2"
_cell_formula_units_Z 128
_cell_length_a 19.602253
_cell_length_b 19.602253
_cell_length_c 19.813265
_cell_angle_alpha 90.000000
_cell_angle_beta 90.000000
_cell_angle_gamma 90.000000
_cell_volume 7613.213843
_symmetry_space_group_name_H-M "P 42/N C M"
_symmetry_group_IT_number 138
_space_group.IT_coordinate_system_code '2'
_symmetry_cell_setting 'tetragonal'
loop_
_space_group_symop_operation_xyz
x,y,z
1/2-y,x,1/2+z
1/2-x,1/2-y,z
y,1/2-x,1/2+z
1/2+x,-y,1/2-z
-x,1/2+y,1/2-z
1/2+y,1/2+x,-z
-y,-x,-z
-x,-y,-z
1/2+y,-x,1/2-z
1/2+x,1/2+y,-z
-y,1/2+x,1/2-z
1/2-x,y,1/2+z
x,1/2-y,1/2+z
1/2-y,1/2-x,z
y,x,z
loop_
_atom_site_type_symbol
_atom_site_label
_atom_site_fract_x
_atom_site_fract_y
_atom_site_fract_z
Si Si1 0.745926 0.045856 0.242565
Si Si2 0.431864 0.955612 0.574051
Si Si3 0.477983 0.588296 0.710666
Si Si4 0.287596 0.600015 0.479701
Si Si5 0.223521 0.827902 0.848510
Si Si6 0.490412 0.904087 0.054254
Si Si7 0.291906 0.927991 0.617020
Si Si8 0.115562 0.004251 0.805091
O O1 0.755162 0.122377 0.212387
O O2 0.755755 0.045326 0.323332
O O3 0.804143 0.000108 0.207935
O O4 0.668233 0.023541 0.228020
O O5 0.423889 0.923889 0.500000
O O6 0.358685 0.972800 0.604661
O O7 0.473232 0.904323 0.622226
O O8 0.477124 0.022877 0.568591
O O9 0.548929 0.548929 0.726357
O O10 0.466088 0.581113 0.630495
O O11 0.420786 0.547409 0.752176
O O12 0.345240 0.654761 0.500000
O O13 0.249569 0.634384 0.416514
O O14 0.326170 0.530213 0.459348
O O15 0.243461 0.587029 0.546114
O O16 0.250000 0.750000 0.843972
O O17 0.142771 0.821800 0.854492
O O18 0.567858 0.932143 0.049869
O O19 0.448196 0.948196 0.000000
O O20 0.076605 0.076605 0.798305
#
# Coordination Sequence:
#
# PCOD9570822 Si02
#       8
#    16  16  16  16  16  16  16  16
#     4  12  24  37  54  82 105 146 189 230 273 331
#     4  10  20  37  58  77 103 145 191 236 278 322
#     4  10  20  38  59  80 108 143 182 229 279 325
#     4  11  22  35  49  70 108 147 179 213 269 318
#     4  12  24  34  47  72 112 149 181 215 263 322
#     4   9  19  34  55  77 101 139 185 227 265 318
#     4  12  25  34  52  76 112 146 186 224 269 325
#     4  10  22  39  56  79 111 145 184 232 280 332
#
# _framework density 16.812873
#
# number of rings (size 3 to 8) (size 9 to 14) (size 15 to 20)
#    0.000    1.250    5.000    1.125    7.000    0.000 
#    0.000    0.000    0.000    0.375    0.000    0.000 
#    0.000    1.500    0.000    0.000    0.000    0.000 
#
# Total GULP energy -714159.537689 kJ/mol
# GULP energy per Si atom -5579.371388 kJ/mol
# Density = 1.677461 g / cm^3
# Si number density = 16.812873 Si / 1000 Ang^3
#
#
#
# Elastic Constant Matrix: (Units=GPa)
#
#
# Indices 1 2 3 4 5 6 
#
# 1 55.8616 26.4637 17.4517 0.0000 0.0000 0.0000
# 2 26.4637 55.8624 17.4526 0.0000 0.0000 0.0000
# 3 17.4517 17.4526 99.3661 0.0000 0.0000 0.0000
# 4 0.0000 0.0000 0.0000 18.1269 0.0000 0.0000
# 5 0.0000 0.0000 0.0000 0.0000 18.1261 0.0000
# 6 0.0000 0.0000 0.0000 0.0000 0.0000 26.9726
#
#
#
# Elastic Compliance Matrix: (Units=1/GPa)
#
#
# Indices 1 2 3 4 5 6 
#
# 1 0.023570 -0.010446 -0.002305 0.000000 0.000000 0.000000
# 2 -0.010446 0.023570 -0.002305 0.000000 0.000000 0.000000
# 3 -0.002305 -0.002305 0.010873 0.000000 0.000000 0.000000
# 4 0.000000 0.000000 0.000000 0.055167 0.000000 0.000000
# 5 0.000000 0.000000 0.000000 0.000000 0.055169 0.000000
# 6 0.000000 0.000000 0.000000 0.000000 0.000000 0.037075
#
#
# Mechanical properties :
#
#
# Convention : Reuss Voigt Hill
#
# Bulk Modulus (GPa) = 35.84027 37.09180 36.46603
# Shear Modulus (GPa) = 20.42185 22.62659 21.52422
#
# Velocity S-wave (km/s) = 3.48897 3.67248 3.58190
# Velocity P-wave (km/s) = 6.13139 6.33184 6.23243
#
# Compressibility (1/GPa) = 0.02790158
#
# Stress axis : x y z
#
# Youngs Moduli (GPa) = 42.42686 42.42721 91.96677
#
# Poissons Ratio (x) = 0.44318 0.21197
# Poissons Ratio (y) = 0.44318 0.21200
# Poissons Ratio (z) = 0.09779 0.09780
#
# Static dielectric constant tensor:
#      x y z
#    x 1.583040 0.000000 0.000000 
#    y 0.000000 1.583040 0.000000 
#    z 0.000000 0.000000 1.636760 
# 
# From -- ./inp_files/5498.got.cif
#   From: 2010.05.17/outbox.cif.g08.bks.cpg/sg138_3_cif.got.tgz:5498.got - 2010.05.20 13:08:53.
