data_PCOD9570727
_publ_section_title
;
Structure prediction by ZEFSAII (Michael W. Deem and Ramdas Pophale) SiO2 
 PCOD9570727
Probable space group: P 42/N C M
;
_chemical_formula_sum "Si O2"
_cell_formula_units_Z 68
_cell_length_a 10.593400
_cell_length_b 10.593400
_cell_length_c 31.586022
_cell_angle_alpha 90.000000
_cell_angle_beta 90.000000
_cell_angle_gamma 90.000000
_cell_volume 3544.587292
_symmetry_space_group_name_H-M "P 42/N C M"
_symmetry_group_IT_number 138
_space_group.IT_coordinate_system_code '2'
_symmetry_cell_setting 'tetragonal'
loop_
_space_group_symop_operation_xyz
x,y,z
1/2-y,x,1/2+z
1/2-x,1/2-y,z
y,1/2-x,1/2+z
1/2+x,-y,1/2-z
-x,1/2+y,1/2-z
1/2+y,1/2+x,-z
-y,-x,-z
-x,-y,-z
1/2+y,-x,1/2-z
1/2+x,1/2+y,-z
-y,1/2+x,1/2-z
1/2-x,y,1/2+z
x,1/2-y,1/2+z
1/2-y,1/2-x,z
y,x,z
loop_
_atom_site_type_symbol
_atom_site_label
_atom_site_fract_x
_atom_site_fract_y
_atom_site_fract_z
Si Si1 0.141863 0.141863 0.053941
Si Si2 0.403078 0.756964 0.093734
Si Si3 0.892995 0.395547 0.679534
Si Si4 0.199985 0.496493 0.118453
Si Si5 0.250000 0.750000 0.750000
Si Si6 0.359157 0.140844 0.456258
O O1 0.250000 0.250000 0.051827
O O2 0.197247 0.027512 0.081501
O O3 0.113307 0.113307 0.005596
O O4 0.250000 0.750000 0.083212
O O5 0.428794 0.695378 0.139616
O O6 0.510740 0.696757 0.063955
O O7 0.403624 0.906328 0.101387
O O8 0.812974 0.355328 0.720011
O O9 0.996070 0.503931 0.686901
O O10 0.957831 0.269589 0.660445
O O11 0.135328 0.364673 0.127228
O O12 0.250000 0.250000 0.452476
#
# Coordination Sequence:
#
# PCOD9570727 Si02
#       6
#     8  16  16  16   4   8
#     4   9  20  35  59  95 131 171 217 269 311 369
#     4  10  21  39  62  87 125 171 209 259 324 383
#     4  11  22  41  64  88 121 159 201 252 333 388
#     4  10  19  37  64  90 121 168 216 256 308 387
#     4  12  24  44  64  96 126 156 200 284 336 396
#     4  11  22  39  63  95 134 177 223 273 318 377
#
# _framework density 19.184179
#
# number of rings (size 3 to 8) (size 9 to 14) (size 15 to 20)
#    0.000    1.647    5.882    0.706    0.000    1.882 
#    0.000   16.471    0.000    0.000    0.000    0.000 
#    0.000    0.000    0.000    0.000    0.000    0.000 
#
# Total GULP energy -378596.409634 kJ/mol
# GULP energy per Si atom -5567.594259 kJ/mol
# Density = 1.914052 g / cm^3
# Si number density = 19.184179 Si / 1000 Ang^3
#
#
#
# Elastic Constant Matrix: (Units=GPa)
#
#
# Indices 1 2 3 4 5 6 
#
# 1 53.6908 40.0972 2.0635 0.0000 0.0000 0.0000
# 2 40.0972 53.6908 2.0635 0.0000 0.0000 0.0000
# 3 2.0635 2.0635 62.6719 0.0000 0.0000 0.0000
# 4 0.0000 0.0000 0.0000 11.1763 0.0000 0.0000
# 5 0.0000 0.0000 0.0000 0.0000 11.1763 0.0000
# 6 0.0000 0.0000 0.0000 0.0000 0.0000 49.9325
#
#
#
# Elastic Compliance Matrix: (Units=1/GPa)
#
#
# Indices 1 2 3 4 5 6 
#
# 1 0.042121 -0.031443 -0.000352 0.000000 0.000000 0.000000
# 2 -0.031443 0.042121 -0.000352 0.000000 0.000000 0.000000
# 3 -0.000352 -0.000352 0.015979 0.000000 0.000000 0.000000
# 4 0.000000 0.000000 0.000000 0.089475 0.000000 0.000000
# 5 0.000000 0.000000 0.000000 0.000000 0.089475 0.000000
# 6 0.000000 0.000000 0.000000 0.000000 0.000000 0.020027
#
#
# Mechanical properties :
#
#
# Convention : Reuss Voigt Hill
#
# Bulk Modulus (GPa) = 27.83296 28.72243 28.27770
# Shear Modulus (GPa) = 13.31677 22.84563 18.08120
#
# Velocity S-wave (km/s) = 2.63754 3.45462 3.07336
# Velocity P-wave (km/s) = 4.88009 5.56031 5.23127
#
# Compressibility (1/GPa) = 0.03592862
#
# Stress axis : x y z
#
# Youngs Moduli (GPa) = 23.74123 23.74123 62.58106
#
# Poissons Ratio (x) = 0.74650 0.02200
# Poissons Ratio (y) = 0.74650 0.02200
# Poissons Ratio (z) = 0.00835 0.00835
#
# Static dielectric constant tensor:
#      x y z
#    x 1.739250 0.000000 0.000000 
#    y 0.000000 1.739250 0.000000 
#    z 0.000000 0.000000 1.629000 
# 
# From -- ./inp_files/7811.got.cif
#   From: 2010.05.17/outbox.cif.g08.bks.cpg/sg138_4_cif.got.tgz:7811.got - 2010.05.20 13:08:53.
