data_PCOD9570679
_publ_section_title
;
Structure prediction by ZEFSAII (Michael W. Deem and Ramdas Pophale) SiO2 
 PCOD9570679
Probable space group: P 42/N C M
;
_chemical_formula_sum "Si O2"
_cell_formula_units_Z 88
_cell_length_a 14.144927
_cell_length_b 14.144927
_cell_length_c 26.185761
_cell_angle_alpha 90.000000
_cell_angle_beta 90.000000
_cell_angle_gamma 90.000000
_cell_volume 5239.219823
_symmetry_space_group_name_H-M "P 42/N C M"
_symmetry_group_IT_number 138
_space_group.IT_coordinate_system_code '2'
_symmetry_cell_setting 'tetragonal'
loop_
_space_group_symop_operation_xyz
x,y,z
1/2-y,x,1/2+z
1/2-x,1/2-y,z
y,1/2-x,1/2+z
1/2+x,-y,1/2-z
-x,1/2+y,1/2-z
1/2+y,1/2+x,-z
-y,-x,-z
-x,-y,-z
1/2+y,-x,1/2-z
1/2+x,1/2+y,-z
-y,1/2+x,1/2-z
1/2-x,y,1/2+z
x,1/2-y,1/2+z
1/2-y,1/2-x,z
y,x,z
loop_
_atom_site_type_symbol
_atom_site_label
_atom_site_fract_x
_atom_site_fract_y
_atom_site_fract_z
Si Si1 0.639946 0.139946 0.000000
Si Si2 0.610640 0.325020 0.758224
Si Si3 0.365532 0.524251 0.869621
Si Si4 0.535947 0.387903 0.654074
Si Si5 0.482894 0.167513 0.913893
Si Si6 0.858422 0.230374 0.095180
O O1 0.548191 0.148290 0.963690
O O2 0.727412 0.140478 0.961367
O O3 0.714739 0.372307 0.755309
O O4 0.561820 0.338330 0.812960
O O5 0.548900 0.372647 0.713945
O O6 0.453695 0.453695 0.867805
O O7 0.275458 0.476870 0.897027
O O8 0.381269 0.620964 0.900880
O O9 0.435129 0.435129 0.641758
O O10 0.613373 0.460729 0.631447
O O11 0.565734 0.290645 0.627051
O O12 0.383554 0.116447 0.920909
O O13 0.750000 0.250000 0.115064
#
# Coordination Sequence:
#
# PCOD9570679 Si02
#       6
#     8  16  16  16  16  16
#     4  10  20  34  66  84 111 143 196 244 282 332
#     4  11  19  33  58  85 112 148 190 239 282 329
#     4  12  24  36  56  88 121 155 188 232 290 346
#     4  10  19  33  57  82 111 143 188 234 281 336
#     4  10  21  37  57  87 115 148 190 236 286 338
#     4  11  19  37  58  87 114 146 185 242 290 330
#
# _framework density 16.796392999999998
#
# number of rings (size 3 to 8) (size 9 to 14) (size 15 to 20)
#    0.000    1.273    7.273    1.091    0.000    1.091 
#    0.000    1.818    0.000    0.545    0.000    0.000 
#    0.000    0.000    0.000    0.000    0.000    0.000 
#
# Total GULP energy -490798.724407 kJ/mol
# GULP energy per Si atom -5577.258232 kJ/mol
# Density = 1.675816 g / cm^3
# Si number density = 16.796393 Si / 1000 Ang^3
#
#
#
# Elastic Constant Matrix: (Units=GPa)
#
#
# Indices 1 2 3 4 5 6 
#
# 1 104.2220 83.0021 41.5187 0.0000 0.0000 0.0000
# 2 83.0021 104.2220 41.5187 0.0000 0.0000 0.0000
# 3 41.5187 41.5187 104.6346 0.0000 0.0000 0.0000
# 4 0.0000 0.0000 0.0000 11.2291 0.0000 0.0000
# 5 0.0000 0.0000 0.0000 0.0000 11.2291 0.0000
# 6 0.0000 0.0000 0.0000 0.0000 0.0000 34.2636
#
#
#
# Elastic Compliance Matrix: (Units=1/GPa)
#
#
# Indices 1 2 3 4 5 6 
#
# 1 0.026804 -0.020322 -0.002572 0.000000 0.000000 0.000000
# 2 -0.020322 0.026804 -0.002572 0.000000 0.000000 0.000000
# 3 -0.002572 -0.002572 0.011598 0.000000 0.000000 0.000000
# 4 0.000000 0.000000 0.000000 0.089055 0.000000 0.000000
# 5 0.000000 0.000000 0.000000 0.000000 0.089055 0.000000
# 6 0.000000 0.000000 0.000000 0.000000 0.000000 0.029186
#
#
# Mechanical properties :
#
#
# Convention : Reuss Voigt Hill
#
# Bulk Modulus (GPa) = 70.05736 71.68417 70.87076
# Shear Modulus (GPa) = 15.23508 21.14695 18.19102
#
# Velocity S-wave (km/s) = 3.01499 3.55211 3.29451
# Velocity P-wave (km/s) = 7.34306 7.71973 7.53375
#
# Compressibility (1/GPa) = 0.01427402
#
# Stress axis : x y z
#
# Youngs Moduli (GPa) = 37.30832 37.30832 86.22031
#
# Poissons Ratio (x) = 0.75817 0.22176
# Poissons Ratio (y) = 0.75817 0.22176
# Poissons Ratio (z) = 0.09596 0.09596
#
# Static dielectric constant tensor:
#      x y z
#    x 1.569580 0.000000 0.000000 
#    y 0.000000 1.569580 0.000000 
#    z 0.000000 0.000000 1.585200 
# 
# From -- ./inp_files/7493.got.cif
#   From: 2010.05.17/outbox.cif.g08.bks.cpg/sg138_4_cif.got.tgz:7493.got - 2010.05.20 13:08:53.
