data_PCOD9570757
_publ_section_title
;
Structure prediction by ZEFSAII (Michael W. Deem and Ramdas Pophale) SiO2 
 PCOD9570757
Probable space group: P 42/N C M
;
_chemical_formula_sum "Si O2"
_cell_formula_units_Z 112
_cell_length_a 14.043767
_cell_length_b 14.043767
_cell_length_c 27.456968
_cell_angle_alpha 90.000000
_cell_angle_beta 90.000000
_cell_angle_gamma 90.000000
_cell_volume 5415.266179
_symmetry_space_group_name_H-M "P 42/N C M"
_symmetry_group_IT_number 138
_space_group.IT_coordinate_system_code '2'
_symmetry_cell_setting 'tetragonal'
loop_
_space_group_symop_operation_xyz
x,y,z
1/2-y,x,1/2+z
1/2-x,1/2-y,z
y,1/2-x,1/2+z
1/2+x,-y,1/2-z
-x,1/2+y,1/2-z
1/2+y,1/2+x,-z
-y,-x,-z
-x,-y,-z
1/2+y,-x,1/2-z
1/2+x,1/2+y,-z
-y,1/2+x,1/2-z
1/2-x,y,1/2+z
x,1/2-y,1/2+z
1/2-y,1/2-x,z
y,x,z
loop_
_atom_site_type_symbol
_atom_site_label
_atom_site_fract_x
_atom_site_fract_y
_atom_site_fract_z
Si Si1 0.109132 0.804564 0.741144
Si Si2 0.029067 0.182796 0.169820
Si Si3 0.458610 0.888326 0.052265
Si Si4 0.642591 0.294329 0.363300
Si Si5 0.893863 0.457295 0.608863
Si Si6 0.257160 0.093744 0.079182
Si Si7 0.535646 0.692141 0.019697
O O1 0.196183 0.857826 0.767116
O O2 0.023878 0.803617 0.779217
O O3 0.111317 0.845514 0.686661
O O4 0.964993 0.118135 0.133163
O O5 0.052731 0.269000 0.133448
O O6 0.123979 0.123979 0.180884
O O7 0.376237 0.860740 0.090295
O O8 0.524910 0.794904 0.044881
O O9 0.524213 0.975788 0.068695
O O10 0.414674 0.914674 0.000000
O O11 0.750000 0.250000 0.361991
O O12 0.569342 0.207242 0.369433
O O13 0.875165 0.463249 0.550417
O O14 0.940879 0.559122 0.621484
O O15 0.352653 0.147348 0.062187
O O16 0.175415 0.175415 0.083715
O O17 0.216635 0.024623 0.037361
O O18 0.636918 0.636918 0.023592
#
# Coordination Sequence:
#
# PCOD9570757 Si02
#       7
#    16  16  16  16  16  16  16
#     4  11  20  37  59  80 104 140 192 243 283 335
#     4  10  20  34  54  81 114 145 179 236 298 340
#     4  10  23  40  57  85 126 159 189 238 291 347
#     4  11  21  38  63  85 111 155 199 239 292 356
#     4   9  18  34  56  86 116 142 184 242 290 334
#     4   9  18  33  53  80 115 153 190 227 275 340
#     4   9  18  34  60  87 114 154 197 231 277 346
#
# _framework density 20.682269999999999
#
# number of rings (size 3 to 8) (size 9 to 14) (size 15 to 20)
#    0.000    2.143    2.857    0.429    0.000    4.571 
#    0.000    7.143    0.000    0.000    0.000    2.000 
#    0.000    0.000    0.000    0.000    0.000    0.000 
#
# Total GULP energy -623515.722219 kJ/mol
# GULP energy per Si atom -5567.104663 kJ/mol
# Density = 2.063520 g / cm^3
# Si number density = 20.682270 Si / 1000 Ang^3
#
#
#
# Elastic Constant Matrix: (Units=GPa)
#
#
# Indices 1 2 3 4 5 6 
#
# 1 52.4111 30.2263 34.9788 0.0000 0.0000 0.0000
# 2 30.2263 52.4111 34.9788 0.0000 0.0000 0.0000
# 3 34.9788 34.9788 142.6183 0.0000 0.0000 0.0000
# 4 0.0000 0.0000 0.0000 28.8547 0.0000 0.0000
# 5 0.0000 0.0000 0.0000 0.0000 28.8547 0.0000
# 6 0.0000 0.0000 0.0000 0.0000 0.0000 26.5827
#
#
#
# Elastic Compliance Matrix: (Units=1/GPa)
#
#
# Indices 1 2 3 4 5 6 
#
# 1 0.030174 -0.014902 -0.003746 0.000000 0.000000 0.000000
# 2 -0.014902 0.030174 -0.003746 0.000000 0.000000 0.000000
# 3 -0.003746 -0.003746 0.008849 0.000000 0.000000 0.000000
# 4 0.000000 0.000000 0.000000 0.034656 0.000000 0.000000
# 5 0.000000 0.000000 0.000000 0.000000 0.034656 0.000000
# 6 0.000000 0.000000 0.000000 0.000000 0.000000 0.037618
#
#
# Mechanical properties :
#
#
# Convention : Reuss Voigt Hill
#
# Bulk Modulus (GPa) = 40.96606 49.75648 45.36127
# Shear Modulus (GPa) = 21.82918 26.67553 24.25235
#
# Velocity S-wave (km/s) = 3.25230 3.59524 3.42806
# Velocity P-wave (km/s) = 5.82697 6.42994 6.13587
#
# Compressibility (1/GPa) = 0.02441045
#
# Stress axis : x y z
#
# Youngs Moduli (GPa) = 33.14127 33.14127 113.00670
#
# Poissons Ratio (x) = 0.49387 0.42328
# Poissons Ratio (y) = 0.49387 0.42328
# Poissons Ratio (z) = 0.12413 0.12413
#
# Static dielectric constant tensor:
#      x y z
#    x 1.770310 0.000000 0.000000 
#    y 0.000000 1.770310 0.000000 
#    z 0.000000 0.000000 1.812230 
# 
# From -- ./inp_files/7064.got.cif
#   From: 2010.05.17/outbox.cif.g08.bks.cpg/sg138_4_cif.got.tgz:7064.got - 2010.05.20 13:08:53.
