data_PCOD9570535
_publ_section_title
;
Structure prediction by ZEFSAII (Michael W. Deem and Ramdas Pophale) SiO2 
 PCOD9570535
Probable space group: P 42/N M C
;
_chemical_formula_sum "Si O2"
_cell_formula_units_Z 58
_cell_length_a 17.488170
_cell_length_b 17.488170
_cell_length_c 8.284346
_cell_angle_alpha 90.000000
_cell_angle_beta 90.000000
_cell_angle_gamma 90.000000
_cell_volume 2533.651988
_symmetry_space_group_name_H-M "P 42/N M C"
_symmetry_group_IT_number 137
_space_group.IT_coordinate_system_code '2'
_symmetry_cell_setting 'tetragonal'
loop_
_space_group_symop_operation_xyz
x,y,z
1/2-y,x,1/2+z
1/2-x,1/2-y,z
y,1/2-x,1/2+z
1/2+x,-y,-z
-x,1/2+y,-z
1/2+y,1/2+x,1/2-z
-y,-x,1/2-z
-x,-y,-z
1/2+y,-x,1/2-z
1/2+x,1/2+y,-z
-y,1/2+x,1/2-z
1/2-x,y,z
x,1/2-y,z
1/2-y,1/2-x,1/2+z
y,x,1/2+z
loop_
_atom_site_type_symbol
_atom_site_label
_atom_site_fract_x
_atom_site_fract_y
_atom_site_fract_z
Si Si1 0.250000 0.333290 0.130419
Si Si2 0.613857 0.487936 0.130143
Si Si3 0.750000 0.094222 0.948592
Si Si4 0.980965 0.750000 0.150883
Si Si5 0.250000 0.750000 0.250000
Si Si6 0.581382 0.627403 0.933611
O O1 0.250000 0.250000 0.206786
O O2 0.250000 0.401869 0.254383
O O3 0.168346 0.343470 0.042544
O O4 0.558652 0.441349 0.250000
O O5 0.643296 0.554572 0.251425
O O6 0.677042 0.431665 0.055212
O O7 0.580486 0.538334 0.982853
O O8 0.750000 0.178569 0.874185
O O9 0.750000 0.044151 0.786025
O O10 0.978022 0.825395 0.042210
#
# Coordination Sequence:
#
# PCOD9570535 Si02
#       6
#     8  16   8   8   2  16
#     4  12  24  38  68 110 168 205 244 263 351 448
#     4  12  26  46  76 108 150 192 254 314 388 452
#     4  12  29  56  78 108 137 195 262 342 400 464
#     4  12  25  42  74 107 164 196 250 295 369 447
#     4  12  36  60  86  96 136 188 278 364 452 428
#     4  12  24  44  70 117 159 208 239 298 358 469
#
# _framework density 22.891856000000001
#
# number of rings (size 3 to 8) (size 9 to 14) (size 15 to 20)
#    0.000    0.000    6.897    1.655    5.793    1.103 
#    2.483    0.000    0.000    0.000    0.000    0.000 
#    0.000    0.000    0.000    0.000    0.000    0.000 
#
# Total GULP energy -324197.673842 kJ/mol
# GULP energy per Si atom -5589.615066 kJ/mol
# Density = 2.283975 g / cm^3
# Si number density = 22.891856 Si / 1000 Ang^3
#
#
#
# Elastic Constant Matrix: (Units=GPa)
#
#
# Indices 1 2 3 4 5 6 
#
# 1 131.1028 58.7418 50.1542 0.0000 0.0000 0.0000
# 2 58.7418 131.1025 50.1526 0.0000 0.0000 0.0000
# 3 50.1542 50.1526 116.5040 0.0000 0.0000 0.0000
# 4 0.0000 0.0000 0.0000 42.3108 0.0000 0.0000
# 5 0.0000 0.0000 0.0000 0.0000 42.3116 0.0000
# 6 0.0000 0.0000 0.0000 0.0000 0.0000 21.2490
#
#
#
# Elastic Compliance Matrix: (Units=1/GPa)
#
#
# Indices 1 2 3 4 5 6 
#
# 1 0.010319 -0.003501 -0.002935 0.000000 0.000000 0.000000
# 2 -0.003501 0.010319 -0.002935 0.000000 0.000000 0.000000
# 3 -0.002935 -0.002935 0.011111 0.000000 0.000000 0.000000
# 4 0.000000 0.000000 0.000000 0.023635 0.000000 0.000000
# 5 0.000000 0.000000 0.000000 0.000000 0.023634 0.000000
# 6 0.000000 0.000000 0.000000 0.000000 0.000000 0.047061
#
#
# Mechanical properties :
#
#
# Convention : Reuss Voigt Hill
#
# Bulk Modulus (GPa) = 76.88532 77.42292 77.15412
# Shear Modulus (GPa) = 33.52196 35.81831 34.67014
#
# Velocity S-wave (km/s) = 3.83085 3.95989 3.89590
# Velocity P-wave (km/s) = 7.29565 7.40285 7.34944
#
# Compressibility (1/GPa) = 0.01300638
#
# Stress axis : x y z
#
# Youngs Moduli (GPa) = 96.90833 96.90932 90.00478
#
# Poissons Ratio (x) = 0.33925 0.26419
# Poissons Ratio (y) = 0.33924 0.26417
# Poissons Ratio (z) = 0.28446 0.28444
#
# Static dielectric constant tensor:
#      x y z
#    x 1.933560 0.000000 0.000000 
#    y 0.000000 1.933570 0.000000 
#    z 0.000000 0.000000 1.879800 
# 
# From -- ./inp_files/1614.got.cif
#   From: 2010.05.17/outbox.cif.g08.bks.cpg/sg137_1_cif.got.tgz:1614.got - 2010.05.20 13:01:12.
