data_PCOD9570524
_publ_section_title
;
Structure prediction by ZEFSAII (Michael W. Deem and Ramdas Pophale) SiO2 
 PCOD9570524
Probable space group: P 42/N M C
;
_chemical_formula_sum "Si O2"
_cell_formula_units_Z 40
_cell_length_a 18.468449
_cell_length_b 18.468449
_cell_length_c 5.074032
_cell_angle_alpha 90.000000
_cell_angle_beta 90.000000
_cell_angle_gamma 90.000000
_cell_volume 1730.669144
_symmetry_space_group_name_H-M "P 42/N M C"
_symmetry_group_IT_number 137
_space_group.IT_coordinate_system_code '2'
_symmetry_cell_setting 'tetragonal'
loop_
_space_group_symop_operation_xyz
x,y,z
1/2-y,x,1/2+z
1/2-x,1/2-y,z
y,1/2-x,1/2+z
1/2+x,-y,-z
-x,1/2+y,-z
1/2+y,1/2+x,1/2-z
-y,-x,1/2-z
-x,-y,-z
1/2+y,-x,1/2-z
1/2+x,1/2+y,-z
-y,1/2+x,1/2-z
1/2-x,y,z
x,1/2-y,z
1/2-y,1/2-x,1/2+z
y,x,1/2+z
loop_
_atom_site_type_symbol
_atom_site_label
_atom_site_fract_x
_atom_site_fract_y
_atom_site_fract_z
Si Si1 0.666080 0.057461 0.609331
Si Si2 0.961284 0.461284 0.250000
Si Si3 0.097679 0.333256 0.632552
O O1 0.622203 0.122203 0.750000
O O2 0.750000 0.074467 0.558986
O O3 0.622104 0.035880 0.346634
O O4 0.662387 0.986677 0.794558
O O5 0.000000 0.500000 0.500000
O O6 0.120199 0.250000 0.663986
O O7 0.118195 0.360621 0.345128
#
# Coordination Sequence:
#
# PCOD9570524 Si02
#       3
#    16   8  16
#     4  11  27  48  76 111 151 200 259 321 387 467
#     4  12  24  46  78 113 147 202 260 322 396 466
#     4  11  25  43  69 104 143 187 241 301 370 450
#
# _framework density 23.112445999999998
#
# number of rings (size 3 to 8) (size 9 to 14) (size 15 to 20)
#    0.000    0.800    2.000    3.600    5.600    4.400 
#    0.000    0.000    0.000    0.000    0.000    0.000 
#    0.000    0.000    0.000    0.000    0.000    0.000 
#
# Total GULP energy -223907.844480 kJ/mol
# GULP energy per Si atom -5597.696112 kJ/mol
# Density = 2.305984 g / cm^3
# Si number density = 23.112446 Si / 1000 Ang^3
#
#
#
# Elastic Constant Matrix: (Units=GPa)
#
#
# Indices 1 2 3 4 5 6 
#
# 1 183.5233 64.8490 51.3869 0.0000 0.0000 0.0000
# 2 64.8490 183.5233 51.3869 0.0000 0.0000 0.0000
# 3 51.3869 51.3869 149.9523 0.0000 0.0000 0.0000
# 4 0.0000 0.0000 0.0000 24.4159 0.0000 0.0000
# 5 0.0000 0.0000 0.0000 0.0000 24.4159 0.0000
# 6 0.0000 0.0000 0.0000 0.0000 0.0000 27.3223
#
#
#
# Elastic Compliance Matrix: (Units=1/GPa)
#
#
# Indices 1 2 3 4 5 6 
#
# 1 0.006559 -0.001867 -0.001608 0.000000 0.000000 0.000000
# 2 -0.001867 0.006559 -0.001608 0.000000 0.000000 0.000000
# 3 -0.001608 -0.001608 0.007771 0.000000 0.000000 0.000000
# 4 0.000000 0.000000 0.000000 0.040957 0.000000 0.000000
# 5 0.000000 0.000000 0.000000 0.000000 0.040957 0.000000
# 6 0.000000 0.000000 0.000000 0.000000 0.000000 0.036600
#
#
# Mechanical properties :
#
#
# Convention : Reuss Voigt Hill
#
# Bulk Modulus (GPa) = 93.25952 94.69383 93.97668
# Shear Modulus (GPa) = 32.64929 38.52256 35.58592
#
# Velocity S-wave (km/s) = 3.76257 4.08701 3.92814
# Velocity P-wave (km/s) = 7.70155 7.95810 7.83088
#
# Compressibility (1/GPa) = 0.01072277
#
# Stress axis : x y z
#
# Youngs Moduli (GPa) = 152.46359 152.46359 128.68898
#
# Poissons Ratio (x) = 0.28472 0.20689
# Poissons Ratio (y) = 0.28472 0.20689
# Poissons Ratio (z) = 0.24512 0.24512
#
# Static dielectric constant tensor:
#      x y z
#    x 1.899110 0.000000 0.000000 
#    y 0.000000 1.899110 0.000000 
#    z 0.000000 0.000000 1.877100 
# 
# From -- ./inp_files/185.got.cif
#   From: 2010.05.17/outbox.cif.g08.bks.cpg/sg137_1_cif.got.tgz:185.got - 2010.05.20 13:01:12.
