data_PCOD9570876
_publ_section_title
;
Structure prediction by ZEFSAII (Michael W. Deem and Ramdas Pophale) SiO2 
 PCOD9570876
Probable space group: P 42/N C M
;
_chemical_formula_sum "Si O2"
_cell_formula_units_Z 80
_cell_length_a 12.460788
_cell_length_b 12.460788
_cell_length_c 28.587734
_cell_angle_alpha 90.000000
_cell_angle_beta 90.000000
_cell_angle_gamma 90.000000
_cell_volume 4438.852838
_symmetry_space_group_name_H-M "P 42/N C M"
_symmetry_group_IT_number 138
_space_group.IT_coordinate_system_code '2'
_symmetry_cell_setting 'tetragonal'
loop_
_space_group_symop_operation_xyz
x,y,z
1/2-y,x,1/2+z
1/2-x,1/2-y,z
y,1/2-x,1/2+z
1/2+x,-y,1/2-z
-x,1/2+y,1/2-z
1/2+y,1/2+x,-z
-y,-x,-z
-x,-y,-z
1/2+y,-x,1/2-z
1/2+x,1/2+y,-z
-y,1/2+x,1/2-z
1/2-x,y,1/2+z
x,1/2-y,1/2+z
1/2-y,1/2-x,z
y,x,z
loop_
_atom_site_type_symbol
_atom_site_label
_atom_site_fract_x
_atom_site_fract_y
_atom_site_fract_z
Si Si1 0.867256 0.305854 0.348429
Si Si2 0.573891 0.746182 0.408867
Si Si3 0.296534 0.022210 0.693584
Si Si4 0.679577 0.141561 0.448991
Si Si5 0.746602 0.571173 0.203637
O O1 0.750000 0.250000 0.348254
O O2 0.852896 0.408704 0.315087
O O3 0.890224 0.343148 0.401784
O O4 0.966716 0.239713 0.328457
O O5 0.643534 0.856467 0.412522
O O6 0.651237 0.651237 0.424230
O O7 0.544514 0.731514 0.354063
O O8 0.464769 0.753021 0.437559
O O9 0.386215 0.113786 0.695220
O O10 0.236117 0.031828 0.742563
O O11 0.750000 0.250000 0.451079
O O12 0.627840 0.127840 0.500000
O O13 0.847417 0.652584 0.200642
O O14 0.641568 0.641568 0.191087
#
# Coordination Sequence:
#
# PCOD9570876 Si02
#       5
#    16  16  16  16  16
#     4  10  21  35  53  79 107 138 180 225 265 312
#     4   9  17  32  55  82 107 132 175 230 272 310
#     4   9  18  32  52  76 104 142 180 217 261 309
#     4   9  19  38  57  76 105 142 181 220 271 325
#     4  10  21  36  53  76 110 149 179 208 259 324
#
# _framework density 18.022676000000001
#
# number of rings (size 3 to 8) (size 9 to 14) (size 15 to 20)
#    0.000    2.600    0.000    1.200    2.800    3.600 
#    0.000   12.000    0.000    2.400    0.000    0.000 
#    0.000    0.000    0.000    0.000    0.000    0.000 
#
# Total GULP energy -445543.575909 kJ/mol
# GULP energy per Si atom -5569.294699 kJ/mol
# Density = 1.798166 g / cm^3
# Si number density = 18.022676 Si / 1000 Ang^3
#
#
#
# Elastic Constant Matrix: (Units=GPa)
#
#
# Indices 1 2 3 4 5 6 
#
# 1 77.4610 16.7179 43.3565 0.0000 0.0000 0.0000
# 2 16.7179 77.4610 43.3565 0.0000 0.0000 0.0000
# 3 43.3565 43.3565 97.1090 0.0000 0.0000 0.0000
# 4 0.0000 0.0000 0.0000 56.3086 0.0000 0.0000
# 5 0.0000 0.0000 0.0000 0.0000 56.3086 0.0000
# 6 0.0000 0.0000 0.0000 0.0000 0.0000 10.5867
#
#
#
# Elastic Compliance Matrix: (Units=1/GPa)
#
#
# Indices 1 2 3 4 5 6 
#
# 1 0.017246 0.000783 -0.008050 0.000000 0.000000 0.000000
# 2 0.000783 0.017246 -0.008050 0.000000 0.000000 0.000000
# 3 -0.008050 -0.008050 0.017486 0.000000 0.000000 0.000000
# 4 0.000000 0.000000 0.000000 0.017759 0.000000 0.000000
# 5 0.000000 0.000000 0.000000 0.000000 0.017759 0.000000
# 6 0.000000 0.000000 0.000000 0.000000 0.000000 0.094459
#
#
# Mechanical properties :
#
#
# Convention : Reuss Voigt Hill
#
# Bulk Modulus (GPa) = 46.84705 50.98811 48.91758
# Shear Modulus (GPa) = 22.75801 34.54743 28.65272
#
# Velocity S-wave (km/s) = 3.55736 4.38298 3.99157
# Velocity P-wave (km/s) = 6.55156 7.34619 6.96022
#
# Compressibility (1/GPa) = 0.02134606
#
# Stress axis : x y z
#
# Youngs Moduli (GPa) = 57.98358 57.98358 57.18952
#
# Poissons Ratio (x) = -0.04543 0.46036
# Poissons Ratio (y) = -0.04543 0.46036
# Poissons Ratio (z) = 0.46676 0.46676
#
# Static dielectric constant tensor:
#      x y z
#    x 1.600420 0.000000 0.000000 
#    y 0.000000 1.600420 0.000000 
#    z 0.000000 0.000000 1.636160 
# 
# From -- ./inp_files/7844.got.cif
#   From: 2010.05.17/outbox.cif.g08.bks.cpg/sg138_4_cif.got.tgz:7844.got - 2010.05.20 13:08:53.
