data_PCOD9570192
_publ_section_title
;
Structure prediction by ZEFSAII (Michael W. Deem and Ramdas Pophale) SiO2 
 PCOD9570192
Probable space group: P 42/N M C
;
_chemical_formula_sum "Si O2"
_cell_formula_units_Z 112
_cell_length_a 14.108110
_cell_length_b 14.108110
_cell_length_c 32.160318
_cell_angle_alpha 90.000000
_cell_angle_beta 90.000000
_cell_angle_gamma 90.000000
_cell_volume 6401.150066
_symmetry_space_group_name_H-M "P 42/N M C"
_symmetry_group_IT_number 137
_space_group.IT_coordinate_system_code '2'
_symmetry_cell_setting 'tetragonal'
loop_
_space_group_symop_operation_xyz
x,y,z
1/2-y,x,1/2+z
1/2-x,1/2-y,z
y,1/2-x,1/2+z
1/2+x,-y,-z
-x,1/2+y,-z
1/2+y,1/2+x,1/2-z
-y,-x,1/2-z
-x,-y,-z
1/2+y,-x,1/2-z
1/2+x,1/2+y,-z
-y,1/2+x,1/2-z
1/2-x,y,z
x,1/2-y,z
1/2-y,1/2-x,1/2+z
y,x,1/2+z
loop_
_atom_site_type_symbol
_atom_site_label
_atom_site_fract_x
_atom_site_fract_y
_atom_site_fract_z
Si Si1 0.502894 0.137990 0.726010
Si Si2 0.358116 0.986865 0.584151
Si Si3 0.139112 0.137297 0.800733
Si Si4 0.145046 0.363450 0.516456
Si Si5 0.863281 0.360886 0.580340
Si Si6 0.475464 0.511250 0.354202
Si Si7 0.056023 0.637360 0.511855
O O1 0.593019 0.093019 0.750000
O O2 0.513977 0.250000 0.719609
O O3 0.412884 0.121926 0.756349
O O4 0.495683 0.081504 0.683146
O O5 0.250000 0.972025 0.597032
O O6 0.386434 0.916363 0.546961
O O7 0.365820 0.089425 0.561646
O O8 0.432202 0.978563 0.620925
O O9 0.250000 0.111191 0.800166
O O10 0.132506 0.250000 0.809395
O O11 0.077085 0.080375 0.834237
O O12 0.250000 0.391277 0.500641
O O13 0.141809 0.250000 0.519789
O O14 0.054722 0.392598 0.489151
O O15 0.750000 0.371056 0.580523
O O16 0.885734 0.250000 0.589700
O O17 0.910470 0.430170 0.613626
O O18 0.902350 0.380300 0.534043
O O19 0.060583 0.750000 0.519086
#
# Coordination Sequence:
#
# PCOD9570192 Si02
#       7
#    16  16  16  16  16  16  16
#     4   9  19  35  57  85 113 143 174 211 262 329
#     4  11  23  36  53  77 108 145 186 231 274 317
#     4   9  19  38  60  80 106 141 178 215 262 325
#     4   9  18  33  53  76 101 134 179 227 273 319
#     4  10  20  33  52  79 111 146 181 218 263 321
#     4  11  21  34  55  83 114 139 176 223 277 321
#     4  10  20  37  56  73 102 148 193 230 271 321
#
# _framework density 17.496856000000001
#
# number of rings (size 3 to 8) (size 9 to 14) (size 15 to 20)
#    0.000    2.143    1.429    1.714    0.000    3.286 
#    0.000    0.714    0.000    1.714    0.000    0.000 
#    0.000    0.000    0.000    0.000    0.000    0.000 
#
# Total GULP energy -625106.522009 kJ/mol
# GULP energy per Si atom -5581.308232 kJ/mol
# Density = 1.745703 g / cm^3
# Si number density = 17.496856 Si / 1000 Ang^3
#
#
#
# Elastic Constant Matrix: (Units=GPa)
#
#
# Indices 1 2 3 4 5 6 
#
# 1 111.7472 61.2653 58.3788 0.0000 0.0000 0.0000
# 2 61.2653 111.7472 58.3788 0.0000 0.0000 0.0000
# 3 58.3788 58.3788 93.4212 0.0000 0.0000 0.0000
# 4 0.0000 0.0000 0.0000 20.2837 0.0000 0.0000
# 5 0.0000 0.0000 0.0000 0.0000 20.2837 0.0000
# 6 0.0000 0.0000 0.0000 0.0000 0.0000 21.5403
#
#
#
# Elastic Compliance Matrix: (Units=1/GPa)
#
#
# Indices 1 2 3 4 5 6 
#
# 1 0.014902 -0.004907 -0.006246 0.000000 0.000000 0.000000
# 2 -0.004907 0.014902 -0.006246 0.000000 0.000000 0.000000
# 3 -0.006246 -0.006246 0.018510 0.000000 0.000000 0.000000
# 4 0.000000 0.000000 0.000000 0.049301 0.000000 0.000000
# 5 0.000000 0.000000 0.000000 0.000000 0.049301 0.000000
# 6 0.000000 0.000000 0.000000 0.000000 0.000000 0.046425
#
#
# Mechanical properties :
#
#
# Convention : Reuss Voigt Hill
#
# Bulk Modulus (GPa) = 73.98200 74.77346 74.37773
# Shear Modulus (GPa) = 21.49213 21.68104 21.58659
#
# Velocity S-wave (km/s) = 3.50857 3.52396 3.51628
# Velocity P-wave (km/s) = 7.66735 7.70622 7.68681
#
# Compressibility (1/GPa) = 0.01351680
#
# Stress axis : x y z
#
# Youngs Moduli (GPa) = 67.10507 67.10507 54.02428
#
# Poissons Ratio (x) = 0.32929 0.33743
# Poissons Ratio (y) = 0.32929 0.33743
# Poissons Ratio (z) = 0.41913 0.41913
#
# Static dielectric constant tensor:
#      x y z
#    x 1.606400 0.000000 0.000000 
#    y 0.000000 1.606400 0.000000 
#    z 0.000000 0.000000 1.563730 
# 
# From -- ./inp_files/9841.got.cif
#   From: 2010.05.17/outbox.cif.g08.bks.cpg/sg137_5_cif.got.tgz:9841.got - 2010.05.20 13:01:12.
