data_PCOD9570873
_publ_section_title
;
Structure prediction by ZEFSAII (Michael W. Deem and Ramdas Pophale) SiO2 
 PCOD9570873
Probable space group: P 42/N C M
;
_chemical_formula_sum "Si O2"
_cell_formula_units_Z 112
_cell_length_a 29.129346
_cell_length_b 29.129346
_cell_length_c 5.508583
_cell_angle_alpha 90.000000
_cell_angle_beta 90.000000
_cell_angle_gamma 90.000000
_cell_volume 4674.136228
_symmetry_space_group_name_H-M "P 42/N C M"
_symmetry_group_IT_number 138
_space_group.IT_coordinate_system_code '2'
_symmetry_cell_setting 'tetragonal'
loop_
_space_group_symop_operation_xyz
x,y,z
1/2-y,x,1/2+z
1/2-x,1/2-y,z
y,1/2-x,1/2+z
1/2+x,-y,1/2-z
-x,1/2+y,1/2-z
1/2+y,1/2+x,-z
-y,-x,-z
-x,-y,-z
1/2+y,-x,1/2-z
1/2+x,1/2+y,-z
-y,1/2+x,1/2-z
1/2-x,y,1/2+z
x,1/2-y,1/2+z
1/2-y,1/2-x,z
y,x,z
loop_
_atom_site_type_symbol
_atom_site_label
_atom_site_fract_x
_atom_site_fract_y
_atom_site_fract_z
Si Si1 0.759494 0.132742 0.178195
Si Si2 0.944337 0.693960 0.245550
Si Si3 0.151239 0.902577 0.679974
Si Si4 0.559702 0.636250 0.243693
Si Si5 0.533051 0.097873 0.452896
Si Si6 0.807065 0.043840 0.720653
Si Si7 0.226246 0.154310 0.303855
O O1 0.757326 0.157090 0.437681
O O2 0.812048 0.118081 0.140400
O O3 0.729026 0.086430 0.235902
O O4 0.936364 0.669191 0.506080
O O5 0.900671 0.725515 0.200380
O O6 0.994793 0.716571 0.253951
O O7 0.945905 0.660768 0.006351
O O8 0.137433 0.862568 0.500000
O O9 0.105175 0.923084 0.778689
O O10 0.174746 0.945440 0.548069
O O11 0.604556 0.604556 0.255108
O O12 0.515120 0.605605 0.178633
O O13 0.544088 0.044088 0.500000
O O14 0.538607 0.145109 0.621613
O O15 0.249752 0.169743 0.554354
O O16 0.175108 0.175108 0.302955
#
# Coordination Sequence:
#
# PCOD9570873 Si02
#       7
#    16  16  16  16  16  16  16
#     4  10  21  34  55  84 120 155 196 250 309 371
#     4  11  24  43  69  95 128 168 215 270 330 395
#     4  11  20  35  57  85 124 167 205 258 314 380
#     4  11  23  41  64  90 127 175 220 269 325 384
#     4  11  21  36  57  86 124 165 220 267 325 381
#     4  10  21  37  59  87 125 164 208 265 324 383
#     4  12  27  47  73 103 134 172 218 272 333 406
#
# _framework density 23.961649000000001
#
# number of rings (size 3 to 8) (size 9 to 14) (size 15 to 20)
#    0.000    1.143    4.286    2.571    0.000    3.429 
#    0.000    0.000    0.000    3.000    0.000    0.000 
#    0.000   37.143    0.000    0.000    0.000    0.000 
#
# Total GULP energy -624013.965369 kJ/mol
# GULP energy per Si atom -5571.553262 kJ/mol
# Density = 2.390711 g / cm^3
# Si number density = 23.961649 Si / 1000 Ang^3
#
#
#
# Elastic Constant Matrix: (Units=GPa)
#
#
# Indices 1 2 3 4 5 6 
#
# 1 30.5128 24.1550 16.9529 0.0000 0.0000 0.0000
# 2 24.1550 30.5097 16.9552 0.0000 0.0000 0.0000
# 3 16.9529 16.9552 129.1269 0.0000 0.0000 0.0000
# 4 0.0000 0.0000 0.0000 23.5583 0.0000 0.0000
# 5 0.0000 0.0000 0.0000 0.0000 23.5583 0.0000
# 6 0.0000 0.0000 0.0000 0.0000 0.0000 33.8184
#
#
#
# Elastic Compliance Matrix: (Units=1/GPa)
#
#
# Indices 1 2 3 4 5 6 
#
# 1 0.088614 -0.068705 -0.002613 0.000000 0.000000 0.000000
# 2 -0.068705 0.088626 -0.002617 0.000000 0.000000 0.000000
# 3 -0.002613 -0.002617 0.008431 0.000000 0.000000 0.000000
# 4 0.000000 0.000000 0.000000 0.042448 0.000000 0.000000
# 5 0.000000 0.000000 0.000000 0.000000 0.042448 0.000000
# 6 0.000000 0.000000 0.000000 0.000000 0.000000 0.029570
#
#
# Mechanical properties :
#
#
# Convention : Reuss Voigt Hill
#
# Bulk Modulus (GPa) = 26.45412 34.03064 30.24238
# Shear Modulus (GPa) = 10.85527 24.99276 17.92401
#
# Velocity S-wave (km/s) = 2.13075 3.23310 2.73798
# Velocity P-wave (km/s) = 4.13735 5.30756 4.75856
#
# Compressibility (1/GPa) = 0.03780129
#
# Stress axis : x y z
#
# Youngs Moduli (GPa) = 11.28488 11.28342 118.61068
#
# Poissons Ratio (x) = 0.77523 0.30988
# Poissons Ratio (y) = 0.77533 0.31039
# Poissons Ratio (z) = 0.02948 0.02953
#
# Static dielectric constant tensor:
#      x y z
#    x 1.996670 0.000000 0.000000 
#    y 0.000000 1.996680 0.000000 
#    z 0.000000 0.000000 2.118040 
# 
# From -- ./inp_files/552.got.cif
#   From: 2010.05.17/outbox.cif.g08.bks.cpg/sg138_1_cif.got.tgz:552.got - 2010.05.20 13:08:53.
