data_PCOD9570666
_publ_section_title
;
Structure prediction by ZEFSAII (Michael W. Deem and Ramdas Pophale) SiO2 
 PCOD9570666
Probable space group: P 42/N C M
;
_chemical_formula_sum "Si O2"
_cell_formula_units_Z 48
_cell_length_a 14.622996
_cell_length_b 14.622996
_cell_length_c 9.318418
_cell_angle_alpha 90.000000
_cell_angle_beta 90.000000
_cell_angle_gamma 90.000000
_cell_volume 1992.576070
_symmetry_space_group_name_H-M "P 42/N C M"
_symmetry_group_IT_number 138
_space_group.IT_coordinate_system_code '2'
_symmetry_cell_setting 'tetragonal'
loop_
_space_group_symop_operation_xyz
x,y,z
1/2-y,x,1/2+z
1/2-x,1/2-y,z
y,1/2-x,1/2+z
1/2+x,-y,1/2-z
-x,1/2+y,1/2-z
1/2+y,1/2+x,-z
-y,-x,-z
-x,-y,-z
1/2+y,-x,1/2-z
1/2+x,1/2+y,-z
-y,1/2+x,1/2-z
1/2-x,y,1/2+z
x,1/2-y,1/2+z
1/2-y,1/2-x,z
y,x,z
loop_
_atom_site_type_symbol
_atom_site_label
_atom_site_fract_x
_atom_site_fract_y
_atom_site_fract_z
Si Si1 0.250000 0.250000 0.283032
Si Si2 0.855970 0.644030 0.465815
Si Si3 0.250000 0.750000 0.750000
Si Si4 0.328363 0.951496 0.413701
Si Si5 0.628509 0.094355 0.151418
O O1 0.189287 0.310714 0.391619
O O2 0.311585 0.311585 0.175490
O O3 0.841097 0.536121 0.481188
O O4 0.303947 0.673270 0.662677
O O5 0.359984 0.859984 0.500000
O O6 0.224185 0.960682 0.355500
O O7 0.398456 0.943802 0.279735
O O8 0.580997 0.080997 0.000000
#
# Coordination Sequence:
#
# PCOD9570666 Si02
#       5
#     4   8   4  16  16
#     4  10  28  54  78  92 124 188 242 318 348 398
#     4  11  27  50  76  98 128 182 253 297 354 395
#     4   8  14  28  48  82 134 168 208 226 330 400
#     4  11  23  40  67 105 144 182 222 282 348 423
#     4  10  19  32  59  98 136 177 206 264 339 420
#
# _framework density 24.089418999999999
#
# number of rings (size 3 to 8) (size 9 to 14) (size 15 to 20)
#    0.000    1.667    0.000    7.000    9.333    0.000 
#    0.000    0.833    0.000    0.000    0.000    0.000 
#    0.000    0.000    0.000    0.000    0.000    0.000 
#
# Total GULP energy -267365.302682 kJ/mol
# GULP energy per Si atom -5570.110473 kJ/mol
# Density = 2.403459 g / cm^3
# Si number density = 24.089419 Si / 1000 Ang^3
#
#
#
# Elastic Constant Matrix: (Units=GPa)
#
#
# Indices 1 2 3 4 5 6 
#
# 1 5.1198 100.8880 2.3037 0.0000 0.0000 0.0000
# 2 100.8880 5.1198 2.3037 0.0000 0.0000 0.0000
# 3 2.3037 2.3037 115.2606 0.0000 0.0000 0.0000
# 4 0.0000 0.0000 0.0000 21.4913 0.0000 0.0000
# 5 0.0000 0.0000 0.0000 0.0000 21.4913 0.0000
# 6 0.0000 0.0000 0.0000 0.0000 0.0000 30.2976
#
#
#
# Elastic Compliance Matrix: (Units=1/GPa)
#
#
# Indices 1 2 3 4 5 6 
#
# 1 -0.000500 0.009942 -0.000189 0.000000 0.000000 0.000000
# 2 0.009942 -0.000500 -0.000189 0.000000 0.000000 0.000000
# 3 -0.000189 -0.000189 0.008684 0.000000 0.000000 0.000000
# 4 0.000000 0.000000 0.000000 0.046531 0.000000 0.000000
# 5 0.000000 0.000000 0.000000 0.000000 0.046531 0.000000
# 6 0.000000 0.000000 0.000000 0.000000 0.000000 0.033006
#
#
# Mechanical properties :
#
#
# Convention : Reuss Voigt Hill
#
# Bulk Modulus (GPa) = 37.29720 37.38787 37.34254
# Shear Modulus (GPa) = 40.46657 15.98968 28.22813
#
# Velocity S-wave (km/s) = 4.10304 2.57916 3.42688
# Velocity P-wave (km/s) = 6.16141 4.94202 5.58509
#
# Compressibility (1/GPa) = 0.02681166
#
# Stress axis : x y z
#
# Youngs Moduli (GPa) = -1999.18014 -1999.18014 115.16046
#
# Poissons Ratio (x) = 19.87521 0.02173
# Poissons Ratio (y) = 19.87521 0.02173
# Poissons Ratio (z) = -0.37726 -0.37726
#
# Static dielectric constant tensor:
#      x y z
#    x 1.944550 0.000000 0.000000 
#    y 0.000000 1.944550 0.000000 
#    z 0.000000 0.000000 2.084220 
# 
# From -- ./inp_files/1054.got.cif
#   From: 2010.05.17/outbox.cif.g08.bks.cpg/sg138_1_cif.got.tgz:1054.got - 2010.05.20 13:08:53.
