data_PCOD9570073
_publ_section_title
;
Structure prediction by ZEFSAII (Michael W. Deem and Ramdas Pophale) SiO2 
 PCOD9570073
Probable space group: P 42/N M C
;
_chemical_formula_sum "Si O2"
_cell_formula_units_Z 112
_cell_length_a 15.296729
_cell_length_b 15.296729
_cell_length_c 24.943334
_cell_angle_alpha 90.000000
_cell_angle_beta 90.000000
_cell_angle_gamma 90.000000
_cell_volume 5836.488680
_symmetry_space_group_name_H-M "P 42/N M C"
_symmetry_group_IT_number 137
_space_group.IT_coordinate_system_code '2'
_symmetry_cell_setting 'tetragonal'
loop_
_space_group_symop_operation_xyz
x,y,z
1/2-y,x,1/2+z
1/2-x,1/2-y,z
y,1/2-x,1/2+z
1/2+x,-y,-z
-x,1/2+y,-z
1/2+y,1/2+x,1/2-z
-y,-x,1/2-z
-x,-y,-z
1/2+y,-x,1/2-z
1/2+x,1/2+y,-z
-y,1/2+x,1/2-z
1/2-x,y,z
x,1/2-y,z
1/2-y,1/2-x,1/2+z
y,x,1/2+z
loop_
_atom_site_type_symbol
_atom_site_label
_atom_site_fract_x
_atom_site_fract_y
_atom_site_fract_z
Si Si1 0.956697 0.152010 0.708540
Si Si2 0.595052 0.512382 0.525637
Si Si3 0.848060 0.894636 0.319439
Si Si4 0.651953 0.353914 0.902401
Si Si5 0.013544 0.354258 0.399453
Si Si6 0.532349 0.345586 0.084109
Si Si7 0.846932 0.022145 0.221113
O O1 0.922768 0.077233 0.750000
O O2 0.938125 0.250000 0.730747
O O3 0.901276 0.140454 0.654332
O O4 0.058333 0.151155 0.689748
O O5 0.500000 0.500000 0.500000
O O6 0.619064 0.425465 0.558169
O O7 0.585836 0.593533 0.566215
O O8 0.653265 0.518160 0.472561
O O9 0.750000 0.853991 0.328718
O O10 0.861360 0.963631 0.367987
O O11 0.839945 0.945355 0.263616
O O12 0.750000 0.376555 0.922767
O O13 0.648568 0.250000 0.895044
O O14 0.019839 0.250000 0.406416
O O15 0.919436 0.393467 0.416606
O O16 0.015246 0.376649 0.336088
O O17 0.571681 0.250000 0.093094
O O18 0.908497 0.091503 0.250000
O O19 0.750000 0.060499 0.212003
#
# Coordination Sequence:
#
# PCOD9570073 Si02
#       7
#    16  16  16  16  16  16  16
#     4  11  23  38  61  90 121 158 201 254 315 374
#     4  10  21  36  56  83 117 158 200 247 299 362
#     4  10  21  37  60  88 121 160 204 248 302 373
#     4  10  22  40  62  89 119 154 203 261 317 372
#     4  10  21  35  55  86 120 158 202 244 294 362
#     4  10  20  36  57  84 116 155 199 252 306 359
#     4  10  19  32  53  82 118 157 195 238 292 360
#
# _framework density 19.189620000000001
#
# number of rings (size 3 to 8) (size 9 to 14) (size 15 to 20)
#    0.000    1.857    1.429    3.000    2.000    3.714 
#    0.000    2.143    0.000    2.571    0.000    0.000 
#    0.000    0.000    0.000    0.000    0.000    0.000 
#
# Total GULP energy -623797.219191 kJ/mol
# GULP energy per Si atom -5569.618028 kJ/mol
# Density = 1.914594 g / cm^3
# Si number density = 19.189620 Si / 1000 Ang^3
#
#
#
# Elastic Constant Matrix: (Units=GPa)
#
#
# Indices 1 2 3 4 5 6 
#
# 1 85.9336 43.9101 45.1617 0.0000 0.0000 0.0000
# 2 43.9101 85.9332 45.1621 0.0000 0.0000 0.0000
# 3 45.1617 45.1621 125.2148 0.0000 0.0000 0.0000
# 4 0.0000 0.0000 0.0000 34.6715 0.0000 0.0000
# 5 0.0000 0.0000 0.0000 0.0000 34.6738 0.0000
# 6 0.0000 0.0000 0.0000 0.0000 0.0000 27.8135
#
#
#
# Elastic Compliance Matrix: (Units=1/GPa)
#
#
# Indices 1 2 3 4 5 6 
#
# 1 0.017039 -0.006758 -0.003708 0.000000 0.000000 0.000000
# 2 -0.006758 0.017039 -0.003708 0.000000 0.000000 0.000000
# 3 -0.003708 -0.003708 0.010661 0.000000 0.000000 0.000000
# 4 0.000000 0.000000 0.000000 0.028842 0.000000 0.000000
# 5 0.000000 0.000000 0.000000 0.000000 0.028840 0.000000
# 6 0.000000 0.000000 0.000000 0.000000 0.000000 0.035954
#
#
# Mechanical properties :
#
#
# Convention : Reuss Voigt Hill
#
# Bulk Modulus (GPa) = 61.00989 62.83881 61.92435
# Shear Modulus (GPa) = 29.03836 30.28827 29.66331
#
# Velocity S-wave (km/s) = 3.89425 3.97718 3.93593
# Velocity P-wave (km/s) = 7.21682 7.34220 7.27978
#
# Compressibility (1/GPa) = 0.01639078
#
# Stress axis : x y z
#
# Youngs Moduli (GPa) = 58.69019 58.68967 93.79858
#
# Poissons Ratio (x) = 0.39660 0.34781
# Poissons Ratio (y) = 0.39660 0.34782
# Poissons Ratio (z) = 0.21763 0.21763
#
# Static dielectric constant tensor:
#      x y z
#    x 1.704940 0.000000 0.000000 
#    y 0.000000 1.704930 0.000000 
#    z 0.000000 0.000000 1.672320 
# 
# From -- ./inp_files/9002.got.cif
#   From: 2010.05.17/outbox.cif.g08.bks.cpg/sg137_5_cif.got.tgz:9002.got - 2010.05.20 13:01:12.
