data_PCOD9570420
_publ_section_title
;
Structure prediction by ZEFSAII (Michael W. Deem and Ramdas Pophale) SiO2 
 PCOD9570420
Probable space group: P 42/N M C
;
_chemical_formula_sum "Si O2"
_cell_formula_units_Z 56
_cell_length_a 16.161915
_cell_length_b 16.161915
_cell_length_c 10.237598
_cell_angle_alpha 90.000000
_cell_angle_beta 90.000000
_cell_angle_gamma 90.000000
_cell_volume 2674.137343
_symmetry_space_group_name_H-M "P 42/N M C"
_symmetry_group_IT_number 137
_space_group.IT_coordinate_system_code '2'
_symmetry_cell_setting 'tetragonal'
loop_
_space_group_symop_operation_xyz
x,y,z
1/2-y,x,1/2+z
1/2-x,1/2-y,z
y,1/2-x,1/2+z
1/2+x,-y,-z
-x,1/2+y,-z
1/2+y,1/2+x,1/2-z
-y,-x,1/2-z
-x,-y,-z
1/2+y,-x,1/2-z
1/2+x,1/2+y,-z
-y,1/2+x,1/2-z
1/2-x,y,z
x,1/2-y,z
1/2-y,1/2-x,1/2+z
y,x,1/2+z
loop_
_atom_site_type_symbol
_atom_site_label
_atom_site_fract_x
_atom_site_fract_y
_atom_site_fract_z
Si Si1 0.045143 0.155693 0.140697
Si Si2 0.156000 0.399458 0.906856
Si Si3 0.150030 0.650030 0.250000
Si Si4 0.559401 0.081815 0.492652
O O1 0.038262 0.250000 0.179512
O O2 0.096243 0.116913 0.261348
O O3 0.098599 0.147988 0.009122
O O4 0.953803 0.121885 0.114540
O O5 0.250000 0.367382 0.909522
O O6 0.152199 0.495534 0.951194
O O7 0.136549 0.750000 0.249518
O O8 0.107481 0.608349 0.377268
O O9 0.500000 0.000000 0.500000
#
# Coordination Sequence:
#
# PCOD9570420 Si02
#       4
#    16  16   8  16
#     4  10  22  38  59  87 120 162 209 261 319 381
#     4  10  22  38  59  87 120 162 209 261 319 381
#     4  11  24  42  66 100 140 177 220 278 342 401
#     4  10  22  37  62  90 121 165 209 268 316 387
#
# _framework density 20.941331000000002
#
# number of rings (size 3 to 8) (size 9 to 14) (size 15 to 20)
#    0.000    1.857    0.000    2.571   16.000    1.714 
#    0.000    2.857    0.000    0.000    0.000   12.000 
#    0.000    0.000    0.000    0.000    0.000    0.000 
#
# Total GULP energy -311964.796273 kJ/mol
# GULP energy per Si atom -5570.799933 kJ/mol
# Density = 2.089367 g / cm^3
# Si number density = 20.941331 Si / 1000 Ang^3
#
#
#
# Elastic Constant Matrix: (Units=GPa)
#
#
# Indices 1 2 3 4 5 6 
#
# 1 64.4296 19.7712 21.2527 0.0000 0.0000 0.0000
# 2 19.7712 64.4296 21.2527 0.0000 0.0000 0.0000
# 3 21.2527 21.2527 123.0597 0.0000 0.0000 0.0000
# 4 0.0000 0.0000 0.0000 31.8444 0.0000 0.0000
# 5 0.0000 0.0000 0.0000 0.0000 31.8444 0.0000
# 6 0.0000 0.0000 0.0000 0.0000 0.0000 19.9032
#
#
#
# Elastic Compliance Matrix: (Units=1/GPa)
#
#
# Indices 1 2 3 4 5 6 
#
# 1 0.017701 -0.004691 -0.002247 0.000000 0.000000 0.000000
# 2 -0.004691 0.017701 -0.002247 0.000000 0.000000 0.000000
# 3 -0.002247 -0.002247 0.008902 0.000000 0.000000 0.000000
# 4 0.000000 0.000000 0.000000 0.031403 0.000000 0.000000
# 5 0.000000 0.000000 0.000000 0.000000 0.031403 0.000000
# 6 0.000000 0.000000 0.000000 0.000000 0.000000 0.050243
#
#
# Mechanical properties :
#
#
# Convention : Reuss Voigt Hill
#
# Bulk Modulus (GPa) = 38.55690 41.83024 40.19357
# Shear Modulus (GPa) = 27.11960 29.36121 28.24041
#
# Velocity S-wave (km/s) = 3.60255 3.74848 3.67624
# Velocity P-wave (km/s) = 5.97966 6.22521 6.10367
#
# Compressibility (1/GPa) = 0.02593569
#
# Stress axis : x y z
#
# Youngs Moduli (GPa) = 56.49256 56.49256 112.33106
#
# Poissons Ratio (x) = 0.26499 0.25241
# Poissons Ratio (y) = 0.26499 0.25241
# Poissons Ratio (z) = 0.12694 0.12694
#
# Static dielectric constant tensor:
#      x y z
#    x 1.833720 0.000000 0.000000 
#    y 0.000000 1.833720 0.000000 
#    z 0.000000 0.000000 1.891730 
# 
# From -- ./inp_files/1486.got.cif
#   From: 2010.05.17/outbox.cif.g08.bks.cpg/sg137_1_cif.got.tgz:1486.got - 2010.05.20 13:01:12.
