data_PCOD9570964
_publ_section_title
;
Structure prediction by ZEFSAII (Michael W. Deem and Ramdas Pophale) SiO2 
 PCOD9570964
Probable space group: P 42/N C M
;
_chemical_formula_sum "Si O2"
_cell_formula_units_Z 64
_cell_length_a 12.776400
_cell_length_b 12.776400
_cell_length_c 18.434692
_cell_angle_alpha 90.000000
_cell_angle_beta 90.000000
_cell_angle_gamma 90.000000
_cell_volume 3009.212701
_symmetry_space_group_name_H-M "P 42/N C M"
_symmetry_group_IT_number 138
_space_group.IT_coordinate_system_code '2'
_symmetry_cell_setting 'tetragonal'
loop_
_space_group_symop_operation_xyz
x,y,z
1/2-y,x,1/2+z
1/2-x,1/2-y,z
y,1/2-x,1/2+z
1/2+x,-y,1/2-z
-x,1/2+y,1/2-z
1/2+y,1/2+x,-z
-y,-x,-z
-x,-y,-z
1/2+y,-x,1/2-z
1/2+x,1/2+y,-z
-y,1/2+x,1/2-z
1/2-x,y,1/2+z
x,1/2-y,1/2+z
1/2-y,1/2-x,z
y,x,z
loop_
_atom_site_type_symbol
_atom_site_label
_atom_site_fract_x
_atom_site_fract_y
_atom_site_fract_z
Si Si1 0.939600 0.113790 0.742305
Si Si2 0.246514 0.421024 0.646482
Si Si3 0.372052 0.749377 0.630051
Si Si4 0.827038 0.504222 0.505052
O O1 0.893194 0.149095 0.819282
O O2 0.848721 0.109182 0.682705
O O3 0.013908 0.206939 0.712562
O O4 0.011027 0.011027 0.746773
O O5 0.140436 0.359565 0.665038
O O6 0.333836 0.333836 0.629222
O O7 0.226859 0.484236 0.572810
O O8 0.250000 0.750000 0.606512
O O9 0.455849 0.751849 0.565640
O O10 0.918545 0.418545 0.500000
O O11 0.885548 0.614453 0.522624
#
# Coordination Sequence:
#
# PCOD9570964 Si02
#       4
#    16  16  16  16
#     4  11  23  39  62  88 119 162 205 247 304 364
#     4   9  20  40  62  87 121 157 197 246 299 357
#     4  12  23  41  58  89 125 158 197 254 306 351
#     4  10  22  38  62  90 118 159 201 243 296 360
#
# _framework density 21.268021000000001
#
# number of rings (size 3 to 8) (size 9 to 14) (size 15 to 20)
#    0.000    1.500    2.500    2.250    0.000    5.500 
#    0.000    2.500    0.000    7.500    0.000    0.000 
#    0.000    0.000    0.000    0.000    0.000    0.000 
#
# Total GULP energy -357957.460243 kJ/mol
# GULP energy per Si atom -5593.085316 kJ/mol
# Density = 2.121961 g / cm^3
# Si number density = 21.268021 Si / 1000 Ang^3
#
#
#
# Elastic Constant Matrix: (Units=GPa)
#
#
# Indices 1 2 3 4 5 6 
#
# 1 75.4671 20.6705 33.3954 0.0000 0.0000 0.0000
# 2 20.6705 75.4671 33.3954 0.0000 0.0000 0.0000
# 3 33.3954 33.3954 81.2149 0.0000 0.0000 0.0000
# 4 0.0000 0.0000 0.0000 34.8463 0.0000 0.0000
# 5 0.0000 0.0000 0.0000 0.0000 34.8463 0.0000
# 6 0.0000 0.0000 0.0000 0.0000 0.0000 42.3574
#
#
#
# Elastic Compliance Matrix: (Units=1/GPa)
#
#
# Indices 1 2 3 4 5 6 
#
# 1 0.016405 -0.001844 -0.005988 0.000000 0.000000 0.000000
# 2 -0.001844 0.016405 -0.005988 0.000000 0.000000 0.000000
# 3 -0.005988 -0.005988 0.017237 0.000000 0.000000 0.000000
# 4 0.000000 0.000000 0.000000 0.028697 0.000000 0.000000
# 5 0.000000 0.000000 0.000000 0.000000 0.028697 0.000000
# 6 0.000000 0.000000 0.000000 0.000000 0.000000 0.023609
#
#
# Mechanical properties :
#
#
# Convention : Reuss Voigt Hill
#
# Bulk Modulus (GPa) = 44.62348 45.23019 44.92683
# Shear Modulus (GPa) = 30.09142 32.05584 31.07363
#
# Velocity S-wave (km/s) = 3.76555 3.88652 3.82651
# Velocity P-wave (km/s) = 6.31925 6.43840 6.37910
#
# Compressibility (1/GPa) = 0.02240973
#
# Stress axis : x y z
#
# Youngs Moduli (GPa) = 60.95521 60.95521 58.01379
#
# Poissons Ratio (x) = 0.11239 0.34737
# Poissons Ratio (y) = 0.11239 0.34737
# Poissons Ratio (z) = 0.36498 0.36498
#
# Static dielectric constant tensor:
#      x y z
#    x 1.789880 0.000000 0.000000 
#    y 0.000000 1.789880 0.000000 
#    z 0.000000 0.000000 1.735430 
# 
# From -- ./inp_files/5828.got.cif
#   From: 2010.05.17/outbox.cif.g08.bks.cpg/sg138_3_cif.got.tgz:5828.got - 2010.05.20 13:08:53.
