data_PCOD9570182
_publ_section_title
;
Structure prediction by ZEFSAII (Michael W. Deem and Ramdas Pophale) SiO2 
 PCOD9570182
Probable space group: P 42/N M C
;
_chemical_formula_sum "Si O2"
_cell_formula_units_Z 88
_cell_length_a 15.494311
_cell_length_b 15.494311
_cell_length_c 17.345262
_cell_angle_alpha 90.000000
_cell_angle_beta 90.000000
_cell_angle_gamma 90.000000
_cell_volume 4164.140764
_symmetry_space_group_name_H-M "P 42/N M C"
_symmetry_group_IT_number 137
_space_group.IT_coordinate_system_code '2'
_symmetry_cell_setting 'tetragonal'
loop_
_space_group_symop_operation_xyz
x,y,z
1/2-y,x,1/2+z
1/2-x,1/2-y,z
y,1/2-x,1/2+z
1/2+x,-y,-z
-x,1/2+y,-z
1/2+y,1/2+x,1/2-z
-y,-x,1/2-z
-x,-y,-z
1/2+y,-x,1/2-z
1/2+x,1/2+y,-z
-y,1/2+x,1/2-z
1/2-x,y,z
x,1/2-y,z
1/2-y,1/2-x,1/2+z
y,x,1/2+z
loop_
_atom_site_type_symbol
_atom_site_label
_atom_site_fract_x
_atom_site_fract_y
_atom_site_fract_z
Si Si1 0.506610 0.151237 0.241773
Si Si2 0.654119 0.154806 0.991184
Si Si3 0.962384 0.653533 0.278122
Si Si4 0.152045 0.652045 0.250000
Si Si5 0.520095 0.656588 0.577243
Si Si6 0.155727 0.476653 0.407993
O O1 0.592438 0.092438 0.250000
O O2 0.518108 0.250000 0.212271
O O3 0.429469 0.096021 0.200465
O O4 0.477028 0.160009 0.330536
O O5 0.750000 0.147161 0.955449
O O6 0.650386 0.250000 0.027963
O O7 0.574963 0.149676 0.933588
O O8 0.644486 0.077842 0.051269
O O9 0.930833 0.750000 0.300737
O O10 0.968412 0.652058 0.184495
O O11 0.063635 0.646831 0.299848
O O12 0.147933 0.750000 0.215554
O O13 0.549244 0.750000 0.546679
O O14 0.581198 0.579130 0.553419
O O15 0.250000 0.443606 0.431945
#
# Coordination Sequence:
#
# PCOD9570182 Si02
#       6
#    16  16  16   8  16  16
#     4  10  20  33  48  67  90 118 156 198 236 272
#     4   9  17  29  45  66  92 120 149 181 220 266
#     4   9  17  30  47  68  94 119 148 184 224 275
#     4   9  16  26  44  68  93 120 144 174 221 272
#     4   9  18  31  47  66  90 118 149 188 228 267
#     4   9  17  28  45  68  91 117 147 181 219 264
#
# _framework density 21.132812000000001
#
# number of rings (size 3 to 8) (size 9 to 14) (size 15 to 20)
#    0.000    2.818    0.909    0.545    0.000    2.364 
#    0.000    9.091    0.000    0.000    0.000    0.000 
#    0.000    2.909    0.000    0.000    0.000    0.000 
#
# Total GULP energy -490049.320831 kJ/mol
# GULP energy per Si atom -5568.742282 kJ/mol
# Density = 2.108471 g / cm^3
# Si number density = 21.132812 Si / 1000 Ang^3
#
#
#
# Elastic Constant Matrix: (Units=GPa)
#
#
# Indices 1 2 3 4 5 6 
#
# 1 148.5959 114.9485 7.1139 0.0000 0.0000 0.0000
# 2 114.9485 148.5959 7.1139 0.0000 0.0000 0.0000
# 3 7.1139 7.1139 7.0252 0.0000 0.0000 0.0000
# 4 0.0000 0.0000 0.0000 14.1833 0.0000 0.0000
# 5 0.0000 0.0000 0.0000 0.0000 14.1833 0.0000
# 6 0.0000 0.0000 0.0000 0.0000 0.0000 34.1218
#
#
#
# Elastic Compliance Matrix: (Units=1/GPa)
#
#
# Indices 1 2 3 4 5 6 
#
# 1 0.016867 -0.012853 -0.004064 0.000000 0.000000 0.000000
# 2 -0.012853 0.016867 -0.004064 0.000000 0.000000 0.000000
# 3 -0.004064 -0.004064 0.150575 0.000000 0.000000 0.000000
# 4 0.000000 0.000000 0.000000 0.070505 0.000000 0.000000
# 5 0.000000 0.000000 0.000000 0.000000 0.070505 0.000000
# 6 0.000000 0.000000 0.000000 0.000000 0.000000 0.029307
#
#
# Mechanical properties :
#
#
# Convention : Reuss Voigt Hill
#
# Bulk Modulus (GPa) = 7.02518 62.50772 34.76645
# Shear Modulus (GPa) = 11.26028 24.16709 17.71368
#
# Velocity S-wave (km/s) = 2.31082 3.38536 2.89832
# Velocity P-wave (km/s) = 3.23286 6.70251 5.26189
#
# Compressibility (1/GPa) = 0.14234512
#
# Stress axis : x y z
#
# Youngs Moduli (GPa) = 59.28768 59.28768 6.64119
#
# Poissons Ratio (x) = 0.76203 0.02699
# Poissons Ratio (y) = 0.76203 0.02699
# Poissons Ratio (z) = 0.24097 0.24097
#
# Static dielectric constant tensor:
#      x y z
#    x 1.803220 0.000000 0.000000 
#    y 0.000000 1.803220 0.000000 
#    z 0.000000 0.000000 1.778920 
# 
# From -- ./inp_files/8811.got.cif
#   From: 2010.05.17/outbox.cif.g08.bks.cpg/sg137_5_cif.got.tgz:8811.got - 2010.05.20 13:01:12.
