data_PCOD9570527
_publ_section_title
;
Structure prediction by ZEFSAII (Michael W. Deem and Ramdas Pophale) SiO2 
 PCOD9570527
Probable space group: P 42/N M C
;
_chemical_formula_sum "Si O2"
_cell_formula_units_Z 48
_cell_length_a 14.650482
_cell_length_b 14.650482
_cell_length_c 8.936252
_cell_angle_alpha 90.000000
_cell_angle_beta 90.000000
_cell_angle_gamma 90.000000
_cell_volume 1918.046950
_symmetry_space_group_name_H-M "P 42/N M C"
_symmetry_group_IT_number 137
_space_group.IT_coordinate_system_code '2'
_symmetry_cell_setting 'tetragonal'
loop_
_space_group_symop_operation_xyz
x,y,z
1/2-y,x,1/2+z
1/2-x,1/2-y,z
y,1/2-x,1/2+z
1/2+x,-y,-z
-x,1/2+y,-z
1/2+y,1/2+x,1/2-z
-y,-x,1/2-z
-x,-y,-z
1/2+y,-x,1/2-z
1/2+x,1/2+y,-z
-y,1/2+x,1/2-z
1/2-x,y,z
x,1/2-y,z
1/2-y,1/2-x,1/2+z
y,x,1/2+z
loop_
_atom_site_type_symbol
_atom_site_label
_atom_site_fract_x
_atom_site_fract_y
_atom_site_fract_z
Si Si1 0.094270 0.483481 0.138174
Si Si2 0.648827 0.857321 0.605709
Si Si3 0.147526 0.641300 0.580220
O O1 0.153275 0.415688 0.242595
O O2 0.017187 0.517187 0.250000
O O3 0.082519 0.415436 0.000180
O O4 0.126285 0.575762 0.053590
O O5 0.750000 0.851959 0.540639
O O6 0.616848 0.750000 0.623119
O O7 0.116314 0.616314 0.750000
O O8 0.250000 0.602941 0.550749
O O9 0.156087 0.750000 0.590583
#
# Coordination Sequence:
#
# PCOD9570527 Si02
#       3
#    16  16  16
#     4  12  26  45  69 106 145 184 237 297 363 431
#     4  11  25  48  77 106 142 191 245 303 364 429
#     4   9  20  41  68  98 136 185 236 287 351 426
#
# _framework density 25.025455999999998
#
# number of rings (size 3 to 8) (size 9 to 14) (size 15 to 20)
#    0.000    1.333    0.000    6.000    0.000   10.667 
#    0.000    5.000    0.000    0.000    0.000    0.000 
#    0.000    2.667    0.000    0.000    0.000    0.000 
#
# Total GULP energy -267593.255442 kJ/mol
# GULP energy per Si atom -5574.859488 kJ/mol
# Density = 2.496850 g / cm^3
# Si number density = 25.025456 Si / 1000 Ang^3
#
#
#
# Elastic Constant Matrix: (Units=GPa)
#
#
# Indices 1 2 3 4 5 6 
#
# 1 108.4586 72.4487 69.9224 0.0000 0.0000 0.0000
# 2 72.4487 108.4586 69.9224 0.0000 0.0000 0.0000
# 3 69.9224 69.9224 165.3900 0.0000 0.0000 0.0000
# 4 0.0000 0.0000 0.0000 22.5839 0.0000 0.0000
# 5 0.0000 0.0000 0.0000 0.0000 22.5839 0.0000
# 6 0.0000 0.0000 0.0000 0.0000 0.0000 25.2025
#
#
#
# Elastic Compliance Matrix: (Units=1/GPa)
#
#
# Indices 1 2 3 4 5 6 
#
# 1 0.017991 -0.009779 -0.003471 0.000000 0.000000 0.000000
# 2 -0.009779 0.017991 -0.003471 0.000000 0.000000 0.000000
# 3 -0.003471 -0.003471 0.008982 0.000000 0.000000 0.000000
# 4 0.000000 0.000000 0.000000 0.044279 0.000000 0.000000
# 5 0.000000 0.000000 0.000000 0.000000 0.044279 0.000000
# 6 0.000000 0.000000 0.000000 0.000000 0.000000 0.039679
#
#
# Mechanical properties :
#
#
# Convention : Reuss Voigt Hill
#
# Bulk Modulus (GPa) = 86.81968 89.65488 88.23728
# Shear Modulus (GPa) = 23.75471 25.40830 24.58150
#
# Velocity S-wave (km/s) = 3.08429 3.18983 3.13750
# Velocity P-wave (km/s) = 6.88851 7.03349 6.96138
#
# Compressibility (1/GPa) = 0.01151813
#
# Stress axis : x y z
#
# Youngs Moduli (GPa) = 55.58433 55.58433 111.33869
#
# Poissons Ratio (x) = 0.54359 0.38651
# Poissons Ratio (y) = 0.54359 0.38651
# Poissons Ratio (z) = 0.19296 0.19296
#
# Static dielectric constant tensor:
#      x y z
#    x 2.042170 0.000000 0.000000 
#    y 0.000000 2.042170 0.000000 
#    z 0.000000 0.000000 1.966620 
# 
# From -- ./inp_files/1304.got.cif
#   From: 2010.05.17/outbox.cif.g08.bks.cpg/sg137_1_cif.got.tgz:1304.got - 2010.05.20 13:01:12.
