data_PCOD9570548
_publ_section_title
;
Structure prediction by ZEFSAII (Michael W. Deem and Ramdas Pophale) SiO2 
 PCOD9570548
Probable space group: P 42/N M C
;
_chemical_formula_sum "Si O2"
_cell_formula_units_Z 96
_cell_length_a 21.000000
_cell_length_b 21.000000
_cell_length_c 12.000000
_cell_angle_alpha 90.000000
_cell_angle_beta 90.000000
_cell_angle_gamma 90.000000
_cell_volume 5292.000000
_symmetry_space_group_name_H-M "P 42/N M C"
_symmetry_group_IT_number 137
_space_group.IT_coordinate_system_code '2'
_symmetry_cell_setting 'tetragonal'
loop_
_space_group_symop_operation_xyz
x,y,z
1/2-y,x,1/2+z
1/2-x,1/2-y,z
y,1/2-x,1/2+z
1/2+x,-y,-z
-x,1/2+y,-z
1/2+y,1/2+x,1/2-z
-y,-x,1/2-z
-x,-y,-z
1/2+y,-x,1/2-z
1/2+x,1/2+y,-z
-y,1/2+x,1/2-z
1/2-x,y,z
x,1/2-y,z
1/2-y,1/2-x,1/2+z
y,x,1/2+z
loop_
_atom_site_type_symbol
_atom_site_label
_atom_site_fract_x
_atom_site_fract_y
_atom_site_fract_z
Si Si1 0.825249 0.414251 0.202788
Si Si2 0.175370 0.974129 0.022026
Si Si3 0.180300 0.393377 0.890026
Si Si4 0.821745 0.553152 0.580271
Si Si5 0.407638 0.007633 0.221447
Si Si6 0.038671 0.357464 0.171141
O O1 0.847382 0.347382 0.250000
O O2 0.750000 0.425524 0.211951
O O3 0.859369 0.468896 0.274760
O O4 0.842694 0.424305 0.073888
O O5 0.250000 0.967497 0.047406
O O6 0.134165 0.970447 0.131833
O O7 0.167150 0.043496 0.963814
O O8 0.250000 0.369487 0.918750
O O9 0.126826 0.341713 0.910418
O O10 0.178846 0.418352 0.762696
O O11 0.750000 0.542756 0.617805
O O12 0.869166 0.518793 0.665077
O O13 0.829152 0.534713 0.451496
O O14 0.428399 0.074051 0.167240
O O15 0.470665 0.970665 0.250000
#
# Coordination Sequence:
#
# PCOD9570548 Si02
#       6
#    16  16  16  16  16  16
#     4  10  21  36  59  83 107 142 179 225 279 334
#     4   9  18  37  57  76 108 146 181 219 273 326
#     4   9  18  35  56  76 107 146 182 220 262 319
#     4  11  22  35  54  80 112 147 185 230 271 318
#     4  11  23  35  55  83 111 146 186 230 274 331
#     4  10  20  37  54  81 112 141 178 226 284 318
#
# _framework density 18.14059
#
# number of rings (size 3 to 8) (size 9 to 14) (size 15 to 20)
#    0.000    2.000    1.667    3.500    2.333    1.167 
#    0.000    0.000    0.000    2.000    0.000    0.000 
#    0.000    3.000    0.000    0.000    0.000    0.000 
#
# Total GULP energy -535180.984000 kJ/mol
# GULP energy per Si atom -5574.801917 kJ/mol
# Density = 1.809930 g / cm^3
# Si number density = 18.140590 Si / 1000 Ang^3
#
#
#
# Elastic Constant Matrix: (Units=GPa)
#
#
# Indices 1 2 3 4 5 6 
#
# 1 -36.0348 44.8880 -0.3464 0.0000 0.0000 0.0000
# 2 44.8880 -36.0348 -0.3464 0.0000 0.0000 0.0000
# 3 -0.3464 -0.3464 58.2556 0.0000 0.0000 0.0000
# 4 0.0000 0.0000 0.0000 2.0572 0.0000 0.0000
# 5 0.0000 0.0000 0.0000 0.0000 2.0572 0.0000
# 6 0.0000 0.0000 0.0000 0.0000 0.0000 18.9467
#
#
#
# Elastic Compliance Matrix: (Units=1/GPa)
#
#
# Indices 1 2 3 4 5 6 
#
# 1 0.050324 0.062682 0.000672 0.000000 0.000000 0.000000
# 2 0.062682 0.050324 0.000672 0.000000 0.000000 0.000000
# 3 0.000672 0.000672 0.017174 0.000000 0.000000 0.000000
# 4 0.000000 0.000000 0.000000 0.486093 0.000000 0.000000
# 5 0.000000 0.000000 0.000000 0.000000 0.486093 0.000000
# 6 0.000000 0.000000 0.000000 0.000000 0.000000 0.052780
#
#
# Mechanical properties :
#
#
# Convention : Reuss Voigt Hill
#
# Bulk Modulus (GPa) = 4.06713 8.28629 6.17671
# Shear Modulus (GPa) = 4.55915 0.74494 2.65205
#
# Velocity S-wave (km/s) = 1.58704 0.64151 1.21042
# Velocity P-wave (km/s) = 2.36751 2.26417 2.31642
#
# Compressibility (1/GPa) = 0.24587379
#
# Stress axis : x y z
#
# Youngs Moduli (GPa) = 19.87107 19.87107 58.22852
#
# Poissons Ratio (x) = -1.24556 -0.03912
# Poissons Ratio (y) = -1.24556 -0.03912
# Poissons Ratio (z) = -0.01335 -0.01335
#
# Static dielectric constant tensor:
#      x y z
#    x 1.614310 0.000000 0.000000 
#    y 0.000000 1.614310 0.000000 
#    z 0.000000 0.000000 1.608480 
# 
# From -- ./inp_files/3733.got.cif
#   From: 2010.05.17/outbox.ucp.g08.bks.cvg/sg137_2_cif.got.tgz:3733.got - 2010.06.11 11:41:14.
