data_PCOD9570696
_publ_section_title
;
Structure prediction by ZEFSAII (Michael W. Deem and Ramdas Pophale) SiO2 
 PCOD9570696
Probable space group: P 42/N C M
;
_chemical_formula_sum "Si O2"
_cell_formula_units_Z 104
_cell_length_a 18.271689
_cell_length_b 18.271689
_cell_length_c 18.015875
_cell_angle_alpha 90.000000
_cell_angle_beta 90.000000
_cell_angle_gamma 90.000000
_cell_volume 6014.683083
_symmetry_space_group_name_H-M "P 42/N C M"
_symmetry_group_IT_number 138
_space_group.IT_coordinate_system_code '2'
_symmetry_cell_setting 'tetragonal'
loop_
_space_group_symop_operation_xyz
x,y,z
1/2-y,x,1/2+z
1/2-x,1/2-y,z
y,1/2-x,1/2+z
1/2+x,-y,1/2-z
-x,1/2+y,1/2-z
1/2+y,1/2+x,-z
-y,-x,-z
-x,-y,-z
1/2+y,-x,1/2-z
1/2+x,1/2+y,-z
-y,1/2+x,1/2-z
1/2-x,y,1/2+z
x,1/2-y,1/2+z
1/2-y,1/2-x,z
y,x,z
loop_
_atom_site_type_symbol
_atom_site_label
_atom_site_fract_x
_atom_site_fract_y
_atom_site_fract_z
Si Si1 0.310307 0.070133 0.306913
Si Si2 0.663360 0.541877 0.611266
Si Si3 0.924256 0.301505 0.013235
Si Si4 0.868214 0.070675 0.741094
Si Si5 0.450990 0.788411 0.813021
Si Si6 0.857509 0.142492 0.000000
Si Si7 0.039110 0.925559 0.120750
O O1 0.355782 0.144219 0.299498
O O2 0.233009 0.078300 0.347797
O O3 0.302318 0.028637 0.227986
O O4 0.358990 0.014423 0.356818
O O5 0.601535 0.601535 0.592766
O O6 0.689662 0.493428 0.541458
O O7 0.633620 0.483898 0.671912
O O8 0.951088 0.293688 0.098238
O O9 0.877629 0.227910 0.996626
O O10 0.870912 0.370912 0.000000
O O11 0.894787 0.149789 0.714500
O O12 0.789468 0.073677 0.780330
O O13 0.925359 0.045996 0.803336
O O14 0.896289 0.103840 0.069838
O O15 0.989235 0.989235 0.086987
#
# Coordination Sequence:
#
# PCOD9570696 Si02
#       7
#    16  16  16  16  16   8  16
#     4   9  20  39  62  85 109 146 199 247 294 348
#     4  11  23  39  60  86 120 156 195 242 296 359
#     4  12  24  40  56  87 127 162 196 240 299 365
#     4  10  20  37  56  84 114 149 199 239 288 350
#     4  10  21  37  59  82 118 156 192 245 291 349
#     4  12  22  38  56  84 122 160 196 236 294 364
#     4  10  19  34  59  84 109 143 191 248 293 337
#
# _framework density 17.29102
#
# number of rings (size 3 to 8) (size 9 to 14) (size 15 to 20)
#    0.000    1.538    4.615    0.923    0.000    2.154 
#    2.769    0.000    0.000    0.000    0.000    2.154 
#    0.000    0.000    0.000    0.000    0.000    0.000 
#
# Total GULP energy -580153.411865 kJ/mol
# GULP energy per Si atom -5578.398191 kJ/mol
# Density = 1.725166 g / cm^3
# Si number density = 17.291020 Si / 1000 Ang^3
#
#
#
# Elastic Constant Matrix: (Units=GPa)
#
#
# Indices 1 2 3 4 5 6 
#
# 1 82.5652 69.9014 40.7449 0.0000 0.0000 0.0000
# 2 69.9014 82.5656 40.7447 0.0000 0.0000 0.0000
# 3 40.7449 40.7447 118.5408 0.0000 0.0000 0.0000
# 4 0.0000 0.0000 0.0000 14.8466 0.0000 0.0000
# 5 0.0000 0.0000 0.0000 0.0000 14.8462 0.0000
# 6 0.0000 0.0000 0.0000 0.0000 0.0000 33.1713
#
#
#
# Elastic Compliance Matrix: (Units=1/GPa)
#
#
# Indices 1 2 3 4 5 6 
#
# 1 0.043500 -0.035464 -0.002762 0.000000 0.000000 0.000000
# 2 -0.035464 0.043499 -0.002762 0.000000 0.000000 0.000000
# 3 -0.002762 -0.002762 0.010334 0.000000 0.000000 0.000000
# 4 0.000000 0.000000 0.000000 0.067356 0.000000 0.000000
# 5 0.000000 0.000000 0.000000 0.000000 0.067357 0.000000
# 6 0.000000 0.000000 0.000000 0.000000 0.000000 0.030147
#
#
# Mechanical properties :
#
#
# Convention : Reuss Voigt Hill
#
# Bulk Modulus (GPa) = 65.11590 65.16151 65.13871
# Shear Modulus (GPa) = 14.31485 21.39153 17.85319
#
# Velocity S-wave (km/s) = 2.88041 3.52113 3.21676
# Velocity P-wave (km/s) = 6.98591 7.36872 7.17987
#
# Compressibility (1/GPa) = 0.01535723
#
# Stress axis : x y z
#
# Youngs Moduli (GPa) = 22.98873 22.98892 96.76374
#
# Poissons Ratio (x) = 0.81529 0.26725
# Poissons Ratio (y) = 0.81528 0.26723
# Poissons Ratio (z) = 0.06349 0.06349
#
# Static dielectric constant tensor:
#      x y z
#    x 1.572740 0.000000 0.000000 
#    y 0.000000 1.572740 0.000000 
#    z 0.000000 0.000000 1.593270 
# 
# From -- ./inp_files/5305.got.cif
#   From: 2010.05.17/outbox.cif.g08.bks.cpg/sg138_3_cif.got.tgz:5305.got - 2010.05.20 13:08:53.
