data_PCOD9570097
_publ_section_title
;
Structure prediction by ZEFSAII (Michael W. Deem and Ramdas Pophale) SiO2 
 PCOD9570097
Probable space group: P 42/N M C
;
_chemical_formula_sum "Si O2"
_cell_formula_units_Z 112
_cell_length_a 14.672971
_cell_length_b 14.672971
_cell_length_c 26.734995
_cell_angle_alpha 90.000000
_cell_angle_beta 90.000000
_cell_angle_gamma 90.000000
_cell_volume 5755.939568
_symmetry_space_group_name_H-M "P 42/N M C"
_symmetry_group_IT_number 137
_space_group.IT_coordinate_system_code '2'
_symmetry_cell_setting 'tetragonal'
loop_
_space_group_symop_operation_xyz
x,y,z
1/2-y,x,1/2+z
1/2-x,1/2-y,z
y,1/2-x,1/2+z
1/2+x,-y,-z
-x,1/2+y,-z
1/2+y,1/2+x,1/2-z
-y,-x,1/2-z
-x,-y,-z
1/2+y,-x,1/2-z
1/2+x,1/2+y,-z
-y,1/2+x,1/2-z
1/2-x,y,z
x,1/2-y,z
1/2-y,1/2-x,1/2+z
y,x,1/2+z
loop_
_atom_site_type_symbol
_atom_site_label
_atom_site_fract_x
_atom_site_fract_y
_atom_site_fract_z
Si Si1 0.152191 0.406809 0.693538
Si Si2 0.648580 0.645872 0.099352
Si Si3 0.008973 0.651676 0.372013
Si Si4 0.611825 0.538254 0.194230
Si Si5 0.406731 0.645570 0.865933
Si Si6 0.522315 0.010933 0.057896
Si Si7 0.356013 0.922917 0.302337
O O1 0.250000 0.358123 0.690647
O O2 0.142416 0.447536 0.749190
O O3 0.156305 0.493079 0.657013
O O4 0.064346 0.353334 0.673785
O O5 0.750000 0.638960 0.077477
O O6 0.618395 0.750000 0.097134
O O7 0.653517 0.611431 0.156405
O O8 0.579895 0.577345 0.073564
O O9 0.999846 0.750000 0.396295
O O10 0.108353 0.638705 0.347671
O O11 0.990226 0.571143 0.410656
O O12 0.630314 0.437631 0.170244
O O13 0.506326 0.571039 0.195004
O O14 0.367369 0.750000 0.866341
O O15 0.420252 0.597817 0.920322
O O16 0.500000 0.000000 0.000000
O O17 0.372218 0.872218 0.250000
O O18 0.250000 0.950662 0.306527
#
# Coordination Sequence:
#
# PCOD9570097 Si02
#       7
#    16  16  16  16  16  16  16
#     4  10  19  33  55  83 119 160 197 238 288 345
#     4  10  21  37  59  88 119 151 193 248 306 361
#     4  11  23  39  57  83 119 155 200 248 298 362
#     4  11  18  34  57  87 121 160 200 242 292 348
#     4   9  18  34  57  83 115 155 200 243 300 360
#     4  10  22  40  62  85 113 154 197 256 319 367
#     4  12  22  35  55  81 119 162 198 236 286 349
#
# _framework density 19.458159999999999
#
# number of rings (size 3 to 8) (size 9 to 14) (size 15 to 20)
#    0.000    1.571    5.714    1.714    0.000    3.000 
#    0.000    0.000    0.000   10.714    0.000   18.000 
#    0.000    0.000    0.000    0.000    0.000    0.000 
#
# Total GULP energy -623710.982058 kJ/mol
# GULP energy per Si atom -5568.848054 kJ/mol
# Density = 1.941387 g / cm^3
# Si number density = 19.458160 Si / 1000 Ang^3
#
#
#
# Elastic Constant Matrix: (Units=GPa)
#
#
# Indices 1 2 3 4 5 6 
#
# 1 116.8903 32.0734 31.8251 0.0000 0.0000 0.0000
# 2 32.0734 116.8903 31.8251 0.0000 0.0000 0.0000
# 3 31.8251 31.8251 124.5918 0.0000 0.0000 0.0000
# 4 0.0000 0.0000 0.0000 -13.0159 0.0000 0.0000
# 5 0.0000 0.0000 0.0000 0.0000 -13.0159 0.0000
# 6 0.0000 0.0000 0.0000 0.0000 0.0000 -44.6862
#
#
#
# Elastic Compliance Matrix: (Units=1/GPa)
#
#
# Indices 1 2 3 4 5 6 
#
# 1 0.009663 -0.002127 -0.001925 0.000000 0.000000 0.000000
# 2 -0.002127 0.009663 -0.001925 0.000000 0.000000 0.000000
# 3 -0.001925 -0.001925 0.009010 0.000000 0.000000 0.000000
# 4 0.000000 0.000000 0.000000 -0.076829 0.000000 0.000000
# 5 0.000000 0.000000 0.000000 0.000000 -0.076829 0.000000
# 6 0.000000 0.000000 0.000000 0.000000 0.000000 -0.022378
#
#
# Mechanical properties :
#
#
# Convention : Reuss Voigt Hill
#
# Bulk Modulus (GPa) = 61.04551 61.09109 61.06830
# Shear Modulus (GPa) = -38.37670 3.36634 -17.50518
#
# Velocity S-wave (km/s) = -4.44584 1.31674 -3.00264
# Velocity P-wave (km/s) = 2.25540 5.81171 4.40811
#
# Compressibility (1/GPa) = 0.01638122
#
# Stress axis : x y z
#
# Youngs Moduli (GPa) = 103.48965 103.48965 110.99330
#
# Poissons Ratio (x) = 0.22015 0.21364
# Poissons Ratio (y) = 0.22015 0.21364
# Poissons Ratio (z) = 0.19920 0.19920
#
# Static dielectric constant tensor:
#      x y z
#    x 1.740370 0.000000 0.000000 
#    y 0.000000 1.740370 0.000000 
#    z 0.000000 0.000000 1.680910 
# 
# From -- ./inp_files/9803.got.cif
#   From: 2010.05.17/outbox.cif.g08.bks.cpg/sg137_5_cif.got.tgz:9803.got - 2010.05.20 13:01:12.
