data_PCOD9570002
_publ_section_title
;
Structure prediction by ZEFSAII (Michael W. Deem and Ramdas Pophale) SiO2 
 PCOD9570002
Probable space group: P 42/N M C
;
_chemical_formula_sum "Si O2"
_cell_formula_units_Z 96
_cell_length_a 21.045297
_cell_length_b 21.045297
_cell_length_c 13.260683
_cell_angle_alpha 90.000000
_cell_angle_beta 90.000000
_cell_angle_gamma 90.000000
_cell_volume 5873.216516
_symmetry_space_group_name_H-M "P 42/N M C"
_symmetry_group_IT_number 137
_space_group.IT_coordinate_system_code '2'
_symmetry_cell_setting 'tetragonal'
loop_
_space_group_symop_operation_xyz
x,y,z
1/2-y,x,1/2+z
1/2-x,1/2-y,z
y,1/2-x,1/2+z
1/2+x,-y,-z
-x,1/2+y,-z
1/2+y,1/2+x,1/2-z
-y,-x,1/2-z
-x,-y,-z
1/2+y,-x,1/2-z
1/2+x,1/2+y,-z
-y,1/2+x,1/2-z
1/2-x,y,z
x,1/2-y,z
1/2-y,1/2-x,1/2+z
y,x,1/2+z
loop_
_atom_site_type_symbol
_atom_site_label
_atom_site_fract_x
_atom_site_fract_y
_atom_site_fract_z
Si Si1 0.173463 0.250000 0.058846
Si Si2 0.048293 0.014583 0.150713
Si Si3 0.639380 0.873045 0.298782
Si Si4 0.321714 0.609656 0.664389
Si Si5 0.494401 0.320499 0.320549
Si Si6 0.079355 0.942346 0.957872
Si Si7 0.750000 0.827190 0.679572
O O1 0.250000 0.250000 0.076342
O O2 0.142972 0.313065 0.108854
O O3 0.163203 0.250000 0.939745
O O4 0.099726 0.069794 0.173483
O O5 0.990090 0.048563 0.091536
O O6 0.017912 0.982089 0.250000
O O7 0.074758 0.961060 0.074483
O O8 0.671506 0.926820 0.230150
O O9 0.640740 0.810343 0.231419
O O10 0.338335 0.661666 0.750000
O O11 0.250000 0.616317 0.627852
O O12 0.327883 0.545165 0.730080
O O13 0.373842 0.606013 0.576347
O O14 0.502439 0.250000 0.363923
O O15 0.507965 0.374268 0.402031
O O16 0.750000 0.750000 0.696673
#
# Coordination Sequence:
#
# PCOD9570002 Si02
#       7
#     8  16  16  16  16  16   8
#     4  11  24  40  56  80 118 156 194 237 281 339
#     4  11  22  36  58  77 110 150 191 235 285 332
#     4  12  20  38  55  80 109 154 193 240 280 328
#     4   9  17  32  54  82 110 135 170 221 283 344
#     4  10  18  32  55  80 108 141 186 231 280 333
#     4  10  20  36  54  80 110 145 186 232 286 341
#     4  11  24  40  56  80 118 154 196 243 283 331
#
# _framework density 16.345388
#
# number of rings (size 3 to 8) (size 9 to 14) (size 15 to 20)
#    0.000    1.500    5.833    0.500    2.333    0.167 
#    1.500    0.000    0.000    0.000    0.000    0.000 
#    0.000    0.000    0.000    4.667    0.000    0.000 
#
# Total GULP energy -535247.551221 kJ/mol
# GULP energy per Si atom -5575.495325 kJ/mol
# Density = 1.630819 g / cm^3
# Si number density = 16.345388 Si / 1000 Ang^3
#
#
#
# Elastic Constant Matrix: (Units=GPa)
#
#
# Indices 1 2 3 4 5 6 
#
# 1 97.4690 27.6056 48.0148 0.0000 0.0000 0.0000
# 2 27.6056 97.4649 48.0150 0.0000 0.0000 0.0000
# 3 48.0148 48.0150 107.7794 0.0000 0.0000 0.0000
# 4 0.0000 0.0000 0.0000 13.1580 0.0000 0.0000
# 5 0.0000 0.0000 0.0000 0.0000 13.1588 0.0000
# 6 0.0000 0.0000 0.0000 0.0000 0.0000 10.0835
#
#
#
# Elastic Compliance Matrix: (Units=1/GPa)
#
#
# Indices 1 2 3 4 5 6 
#
# 1 0.013233 -0.001081 -0.005413 0.000000 0.000000 0.000000
# 2 -0.001081 0.013233 -0.005414 0.000000 0.000000 0.000000
# 3 -0.005413 -0.005414 0.014102 0.000000 0.000000 0.000000
# 4 0.000000 0.000000 0.000000 0.076000 0.000000 0.000000
# 5 0.000000 0.000000 0.000000 0.000000 0.075995 0.000000
# 6 0.000000 0.000000 0.000000 0.000000 0.000000 0.099172
#
#
# Mechanical properties :
#
#
# Convention : Reuss Voigt Hill
#
# Bulk Modulus (GPa) = 59.69762 61.10931 60.40347
# Shear Modulus (GPa) = 15.56983 19.21859 17.39421
#
# Velocity S-wave (km/s) = 3.08969 3.43269 3.26570
# Velocity P-wave (km/s) = 7.02354 7.29236 7.15921
#
# Compressibility (1/GPa) = 0.01675109
#
# Stress axis : x y z
#
# Youngs Moduli (GPa) = 75.57109 75.56680 70.91393
#
# Poissons Ratio (x) = 0.08170 0.38388
# Poissons Ratio (y) = 0.08170 0.38391
# Poissons Ratio (z) = 0.40909 0.40910
#
# Static dielectric constant tensor:
#      x y z
#    x 1.526290 0.000000 0.000000 
#    y 0.000000 1.526320 0.000000 
#    z 0.000000 0.000000 1.537800 
# 
# From -- ./inp_files/3803.got.cif
#   From: 2010.05.17/outbox.cif.g08.bks.cpg/sg137_2_cif.got.tgz:3803.got - 2010.05.20 13:01:12.
