data_PCOD9570173
_publ_section_title
;
Structure prediction by ZEFSAII (Michael W. Deem and Ramdas Pophale) SiO2 
 PCOD9570173
Probable space group: P 42/N M C
;
_chemical_formula_sum "Si O2"
_cell_formula_units_Z 56
_cell_length_a 13.419812
_cell_length_b 13.419812
_cell_length_c 15.551747
_cell_angle_alpha 90.000000
_cell_angle_beta 90.000000
_cell_angle_gamma 90.000000
_cell_volume 2800.735176
_symmetry_space_group_name_H-M "P 42/N M C"
_symmetry_group_IT_number 137
_space_group.IT_coordinate_system_code '2'
_symmetry_cell_setting 'tetragonal'
loop_
_space_group_symop_operation_xyz
x,y,z
1/2-y,x,1/2+z
1/2-x,1/2-y,z
y,1/2-x,1/2+z
1/2+x,-y,-z
-x,1/2+y,-z
1/2+y,1/2+x,1/2-z
-y,-x,1/2-z
-x,-y,-z
1/2+y,-x,1/2-z
1/2+x,1/2+y,-z
-y,1/2+x,1/2-z
1/2-x,y,z
x,1/2-y,z
1/2-y,1/2-x,1/2+z
y,x,1/2+z
loop_
_atom_site_type_symbol
_atom_site_label
_atom_site_fract_x
_atom_site_fract_y
_atom_site_fract_z
Si Si1 0.066808 0.933193 0.750000
Si Si2 0.640635 0.866633 0.811441
Si Si3 0.572149 0.363233 0.435419
Si Si4 0.431172 0.138085 0.991515
O O1 0.104216 0.880636 0.663240
O O2 0.950011 0.916553 0.763281
O O3 0.750000 0.908402 0.794300
O O4 0.639796 0.750000 0.788489
O O5 0.617310 0.871160 0.913403
O O6 0.591964 0.250000 0.462187
O O7 0.453418 0.386003 0.438888
O O8 0.620507 0.450418 0.493239
O O9 0.412359 0.250000 0.959133
#
# Coordination Sequence:
#
# PCOD9570173 Si02
#       4
#     8  16  16  16
#     4  10  20  32  48  76 110 136 168 212 258 308
#     4   9  17  31  51  73 100 136 174 213 259 307
#     4  10  20  34  53  78 108 139 170 209 257 306
#     4   9  19  35  54  77 103 133 174 218 255 298
#
# _framework density 19.994748999999999
#
# number of rings (size 3 to 8) (size 9 to 14) (size 15 to 20)
#    0.000    2.571    0.000    1.714    0.000    4.571 
#    0.000    0.000    0.000    6.000    0.000    0.000 
#    0.000    0.000    0.000    0.000    0.000    0.000 
#
# Total GULP energy -312580.372922 kJ/mol
# GULP energy per Si atom -5581.792374 kJ/mol
# Density = 1.994924 g / cm^3
# Si number density = 19.994749 Si / 1000 Ang^3
#
#
#
# Elastic Constant Matrix: (Units=GPa)
#
#
# Indices 1 2 3 4 5 6 
#
# 1 76.3494 -0.9405 -5.5823 0.0000 0.0000 0.0000
# 2 -0.9405 76.3514 -5.5821 0.0000 0.0000 0.0000
# 3 -5.5823 -5.5821 26.1642 0.0000 0.0000 0.0000
# 4 0.0000 0.0000 0.0000 9.3592 0.0000 0.0000
# 5 0.0000 0.0000 0.0000 0.0000 9.3585 0.0000
# 6 0.0000 0.0000 0.0000 0.0000 0.0000 20.1510
#
#
#
# Elastic Compliance Matrix: (Units=1/GPa)
#
#
# Indices 1 2 3 4 5 6 
#
# 1 0.013316 0.000378 0.002922 0.000000 0.000000 0.000000
# 2 0.000378 0.013316 0.002921 0.000000 0.000000 0.000000
# 3 0.002922 0.002921 0.039467 0.000000 0.000000 0.000000
# 4 0.000000 0.000000 0.000000 0.106846 0.000000 0.000000
# 5 0.000000 0.000000 0.000000 0.000000 0.106854 0.000000
# 6 0.000000 0.000000 0.000000 0.000000 0.000000 0.049625
#
#
# Mechanical properties :
#
#
# Convention : Reuss Voigt Hill
#
# Bulk Modulus (GPa) = 12.73242 17.18391 14.95816
# Shear Modulus (GPa) = 14.57034 20.50508 17.53771
#
# Velocity S-wave (km/s) = 2.70239 3.20585 2.96483
# Velocity P-wave (km/s) = 4.01484 4.72400 4.38378
#
# Compressibility (1/GPa) = 0.07853968
#
# Stress axis : x y z
#
# Youngs Moduli (GPa) = 75.09795 75.10000 25.33776
#
# Poissons Ratio (x) = -0.02836 -0.07403
# Poissons Ratio (y) = -0.02836 -0.07402
# Poissons Ratio (z) = -0.21941 -0.21940
#
# Static dielectric constant tensor:
#      x y z
#    x 1.709800 0.000000 0.000000 
#    y 0.000000 1.709790 0.000000 
#    z 0.000000 0.000000 1.727230 
# 
# From -- ./inp_files/4598.got.cif
#   From: 2010.05.17/outbox.cif.g08.bks.cpg/sg137_3_cif.got.tgz:4598.got - 2010.05.20 13:01:12.
