data_PCOD9570114
_publ_section_title
;
Structure prediction by ZEFSAII (Michael W. Deem and Ramdas Pophale) SiO2 
 PCOD9570114
Probable space group: P 42/N M C
;
_chemical_formula_sum "Si O2"
_cell_formula_units_Z 96
_cell_length_a 17.485352
_cell_length_b 17.485352
_cell_length_c 16.639817
_cell_angle_alpha 90.000000
_cell_angle_beta 90.000000
_cell_angle_gamma 90.000000
_cell_volume 5087.416625
_symmetry_space_group_name_H-M "P 42/N M C"
_symmetry_group_IT_number 137
_space_group.IT_coordinate_system_code '2'
_symmetry_cell_setting 'tetragonal'
loop_
_space_group_symop_operation_xyz
x,y,z
1/2-y,x,1/2+z
1/2-x,1/2-y,z
y,1/2-x,1/2+z
1/2+x,-y,-z
-x,1/2+y,-z
1/2+y,1/2+x,1/2-z
-y,-x,1/2-z
-x,-y,-z
1/2+y,-x,1/2-z
1/2+x,1/2+y,-z
-y,1/2+x,1/2-z
1/2-x,y,z
x,1/2-y,z
1/2-y,1/2-x,1/2+z
y,x,1/2+z
loop_
_atom_site_type_symbol
_atom_site_label
_atom_site_fract_x
_atom_site_fract_y
_atom_site_fract_z
Si Si1 0.659910 0.457569 0.794437
Si Si2 0.992482 0.659442 0.967212
Si Si3 0.955662 0.159343 0.208118
Si Si4 0.910208 0.911033 0.693524
Si Si5 0.335260 0.342085 0.963959
Si Si6 0.036216 0.541314 0.078518
O O1 0.610001 0.390000 0.750000
O O2 0.750000 0.440131 0.800839
O O3 0.647295 0.535574 0.743507
O O4 0.617111 0.472886 0.879715
O O5 0.992247 0.750000 0.968531
O O6 0.032099 0.636227 0.884697
O O7 0.035389 0.627847 0.045108
O O8 0.903529 0.634573 0.975770
O O9 0.889322 0.110678 0.250000
O O10 0.940650 0.250000 0.212573
O O11 0.035822 0.140065 0.251312
O O12 0.870888 0.861689 0.623655
O O13 0.963677 0.973364 0.648481
O O14 0.250000 0.369953 0.983715
O O15 0.333482 0.250000 0.963023
O O16 0.000000 0.500000 0.000000
#
# Coordination Sequence:
#
# PCOD9570114 Si02
#       6
#    16  16  16  16  16  16
#     4  10  21  36  57  84 116 154 195 239 286 336
#     4   9  19  35  54  75 105 147 186 224 277 335
#     4  11  22  38  59  80 105 139 181 230 283 340
#     4  10  19  34  55  80 109 143 182 225 276 332
#     4   9  17  31  52  79 111 145 181 222 270 325
#     4  10  19  34  55  77 107 143 186 231 275 331
#
# _framework density 18.870089
#
# number of rings (size 3 to 8) (size 9 to 14) (size 15 to 20)
#    0.000    2.167    0.000    4.500    0.000    4.333 
#    0.000   11.667    0.000    5.000    0.000    0.000 
#    0.000    0.000    0.000    0.000    0.000    0.000 
#
# Total GULP energy -535014.582583 kJ/mol
# GULP energy per Si atom -5573.068569 kJ/mol
# Density = 1.882714 g / cm^3
# Si number density = 18.870089 Si / 1000 Ang^3
#
#
#
# Elastic Constant Matrix: (Units=GPa)
#
#
# Indices 1 2 3 4 5 6 
#
# 1 93.0366 32.3580 32.2096 0.0000 0.0000 0.0000
# 2 32.3580 93.0372 32.2100 0.0000 0.0000 0.0000
# 3 32.2096 32.2100 77.0202 0.0000 0.0000 0.0000
# 4 0.0000 0.0000 0.0000 29.7301 0.0000 0.0000
# 5 0.0000 0.0000 0.0000 0.0000 29.7300 0.0000
# 6 0.0000 0.0000 0.0000 0.0000 0.0000 25.6800
#
#
#
# Elastic Compliance Matrix: (Units=1/GPa)
#
#
# Indices 1 2 3 4 5 6 
#
# 1 0.013319 -0.003162 -0.004248 0.000000 0.000000 0.000000
# 2 -0.003162 0.013319 -0.004248 0.000000 0.000000 0.000000
# 3 -0.004248 -0.004248 0.016536 0.000000 0.000000 0.000000
# 4 0.000000 0.000000 0.000000 0.033636 0.000000 0.000000
# 5 0.000000 0.000000 0.000000 0.000000 0.033636 0.000000
# 6 0.000000 0.000000 0.000000 0.000000 0.000000 0.038941
#
#
# Mechanical properties :
#
#
# Convention : Reuss Voigt Hill
#
# Bulk Modulus (GPa) = 50.35322 50.73881 50.54602
# Shear Modulus (GPa) = 27.88313 28.11579 27.99946
#
# Velocity S-wave (km/s) = 3.84817 3.86420 3.85619
# Velocity P-wave (km/s) = 6.81811 6.84516 6.83165
#
# Compressibility (1/GPa) = 0.01985970
#
# Stress axis : x y z
#
# Youngs Moduli (GPa) = 75.08303 75.08325 60.47295
#
# Poissons Ratio (x) = 0.23738 0.25687
# Poissons Ratio (y) = 0.23738 0.25687
# Poissons Ratio (z) = 0.31892 0.31893
#
# Static dielectric constant tensor:
#      x y z
#    x 1.694520 0.000000 0.000000 
#    y 0.000000 1.694520 0.000000 
#    z 0.000000 0.000000 1.677790 
# 
# From -- ./inp_files/6470.got.cif
#   From: 2010.05.17/outbox.cif.g08.bks.cpg/sg137_4_cif.got.tgz:6470.got - 2010.05.20 13:01:12.
