data_PCOD9570352
_publ_section_title
;
Structure prediction by ZEFSAII (Michael W. Deem and Ramdas Pophale) SiO2 
 PCOD9570352
Probable space group: P 42/N M C
;
_chemical_formula_sum "Si O2"
_cell_formula_units_Z 112
_cell_length_a 15.727433
_cell_length_b 15.727433
_cell_length_c 26.915216
_cell_angle_alpha 90.000000
_cell_angle_beta 90.000000
_cell_angle_gamma 90.000000
_cell_volume 6657.536512
_symmetry_space_group_name_H-M "P 42/N M C"
_symmetry_group_IT_number 137
_space_group.IT_coordinate_system_code '2'
_symmetry_cell_setting 'tetragonal'
loop_
_space_group_symop_operation_xyz
x,y,z
1/2-y,x,1/2+z
1/2-x,1/2-y,z
y,1/2-x,1/2+z
1/2+x,-y,-z
-x,1/2+y,-z
1/2+y,1/2+x,1/2-z
-y,-x,1/2-z
-x,-y,-z
1/2+y,-x,1/2-z
1/2+x,1/2+y,-z
-y,1/2+x,1/2-z
1/2-x,y,z
x,1/2-y,z
1/2-y,1/2-x,1/2+z
y,x,1/2+z
loop_
_atom_site_type_symbol
_atom_site_label
_atom_site_fract_x
_atom_site_fract_y
_atom_site_fract_z
Si Si1 0.149587 0.150941 0.200099
Si Si2 0.155823 0.851100 0.398106
Si Si3 0.069821 0.152740 0.805779
Si Si4 0.951341 0.003235 0.052207
Si Si5 0.656694 0.648964 0.584800
Si Si6 0.147989 0.653443 0.987944
Si Si7 0.012130 0.946628 0.345238
O O1 0.250000 0.141251 0.186318
O O2 0.125752 0.250000 0.189561
O O3 0.143393 0.132127 0.259042
O O4 0.093825 0.074835 0.175728
O O5 0.250000 0.884735 0.384399
O O6 0.161203 0.750000 0.399713
O O7 0.137938 0.879748 0.454695
O O8 0.081338 0.876654 0.361645
O O9 0.032375 0.250000 0.801021
O O10 0.119467 0.151687 0.857965
O O11 0.006678 0.071216 0.809788
O O12 0.892306 0.085666 0.048199
O O13 0.005201 0.007456 0.102879
O O14 0.895831 0.918298 0.055860
O O15 0.000000 0.000000 0.000000
O O16 0.750000 0.623217 0.565906
O O17 0.649370 0.750000 0.582087
O O18 0.250000 0.647205 0.987077
O O19 0.124283 0.750000 0.975628
#
# Coordination Sequence:
#
# PCOD9570352 Si02
#       7
#    16  16  16  16  16  16  16
#     4  10  21  37  54  73 103 143 179 210 254 317
#     4   9  17  30  49  71  97 131 168 207 251 304
#     4   9  18  33  56  81 103 128 164 217 274 323
#     4  11  21  32  47  73 103 135 165 210 257 301
#     4   9  18  33  53  76 100 129 168 214 261 308
#     4   9  18  33  51  67  89 129 175 210 247 299
#     4  11  20  32  52  77 107 131 173 214 261 309
#
# _framework density 16.823039999999999
#
# number of rings (size 3 to 8) (size 9 to 14) (size 15 to 20)
#    0.000    2.286    1.429    3.000    0.000    3.429 
#    0.000    0.000    0.000    1.714    0.000    6.000 
#    0.000    5.714    0.000    0.000    0.000    0.000 
#
# Total GULP energy -623701.269179 kJ/mol
# GULP energy per Si atom -5568.761332 kJ/mol
# Density = 1.678475 g / cm^3
# Si number density = 16.823040 Si / 1000 Ang^3
#
#
#
# Elastic Constant Matrix: (Units=GPa)
#
#
# Indices 1 2 3 4 5 6 
#
# 1 103.3712 65.1363 37.3642 0.0000 0.0000 0.0000
# 2 65.1363 103.3712 37.3642 0.0000 0.0000 0.0000
# 3 37.3642 37.3642 43.4521 0.0000 0.0000 0.0000
# 4 0.0000 0.0000 0.0000 24.2619 0.0000 0.0000
# 5 0.0000 0.0000 0.0000 0.0000 24.2619 0.0000
# 6 0.0000 0.0000 0.0000 0.0000 0.0000 -20.2070
#
#
#
# Elastic Compliance Matrix: (Units=1/GPa)
#
#
# Indices 1 2 3 4 5 6 
#
# 1 0.017873 -0.008281 -0.008248 0.000000 0.000000 0.000000
# 2 -0.008281 0.017873 -0.008248 0.000000 0.000000 0.000000
# 3 -0.008248 -0.008248 0.037199 0.000000 0.000000 0.000000
# 4 0.000000 0.000000 0.000000 0.041217 0.000000 0.000000
# 5 0.000000 0.000000 0.000000 0.000000 0.041217 0.000000
# 6 0.000000 0.000000 0.000000 0.000000 0.000000 -0.049488
#
#
# Mechanical properties :
#
#
# Convention : Reuss Voigt Hill
#
# Bulk Modulus (GPa) = 42.75248 58.88044 50.81646
# Shear Modulus (GPa) = 30.62890 13.01866 21.82378
#
# Velocity S-wave (km/s) = 4.27154 2.78485 3.60565
# Velocity P-wave (km/s) = 7.05665 6.73917 6.89973
#
# Compressibility (1/GPa) = 0.02339045
#
# Stress axis : x y z
#
# Youngs Moduli (GPa) = 55.94949 55.94949 26.88210
#
# Poissons Ratio (x) = 0.46331 0.22174
# Poissons Ratio (y) = 0.46331 0.22174
# Poissons Ratio (z) = 0.46150 0.46150
#
# Static dielectric constant tensor:
#      x y z
#    x 1.516480 0.000000 0.000000 
#    y 0.000000 1.516480 0.000000 
#    z 0.000000 0.000000 1.553140 
# 
# From -- ./inp_files/9767.got.cif
#   From: 2010.05.17/outbox.cif.g08.bks.cpg/sg137_5_cif.got.tgz:9767.got - 2010.05.20 13:01:12.
