data_PCOD9570092
_publ_section_title
;
Structure prediction by ZEFSAII (Michael W. Deem and Ramdas Pophale) SiO2 
 PCOD9570092
Probable space group: P 42/N M C
;
_chemical_formula_sum "Si O2"
_cell_formula_units_Z 40
_cell_length_a 7.794803
_cell_length_b 7.794803
_cell_length_c 33.678981
_cell_angle_alpha 90.000000
_cell_angle_beta 90.000000
_cell_angle_gamma 90.000000
_cell_volume 2046.299651
_symmetry_space_group_name_H-M "P 42/N M C"
_symmetry_group_IT_number 137
_space_group.IT_coordinate_system_code '2'
_symmetry_cell_setting 'tetragonal'
loop_
_space_group_symop_operation_xyz
x,y,z
1/2-y,x,1/2+z
1/2-x,1/2-y,z
y,1/2-x,1/2+z
1/2+x,-y,-z
-x,1/2+y,-z
1/2+y,1/2+x,1/2-z
-y,-x,1/2-z
-x,-y,-z
1/2+y,-x,1/2-z
1/2+x,1/2+y,-z
-y,1/2+x,1/2-z
1/2-x,y,z
x,1/2-y,z
1/2-y,1/2-x,1/2+z
y,x,1/2+z
loop_
_atom_site_type_symbol
_atom_site_label
_atom_site_fract_x
_atom_site_fract_y
_atom_site_fract_z
Si Si1 0.945897 0.445897 0.250000
Si Si2 0.539822 0.250000 0.600455
Si Si3 0.750000 0.042958 0.808146
Si Si4 0.442430 0.043312 0.955404
O O1 0.967178 0.250000 0.264113
O O2 0.980077 0.582816 0.284564
O O3 0.750000 0.250000 0.600180
O O4 0.486621 0.250000 0.646174
O O5 0.481818 0.417253 0.576133
O O6 0.750000 0.250000 0.806759
O O7 0.250000 0.978069 0.948447
O O8 0.438441 0.250000 0.952527
O O9 0.500000 0.000000 0.000000
#
# Coordination Sequence:
#
# PCOD9570092 Si02
#       4
#     8   8   8  16
#     4  11  23  40  64  92 125 163 200 254 314 381
#     4   9  20  35  55  85 118 149 201 254 289 365
#     4  11  21  39  65  92 119 161 210 257 323 380
#     4  10  19  33  54  80 112 155 200 243 298 355
#
# _framework density 19.547481000000001
#
# number of rings (size 3 to 8) (size 9 to 14) (size 15 to 20)
#    0.000    1.800    4.000    0.600    0.000    1.600 
#    0.000    8.000    0.000    0.000    0.000    0.000 
#    0.000    0.000    0.000    0.000    0.000    0.000 
#
# Total GULP energy -223464.838040 kJ/mol
# GULP energy per Si atom -5586.620951 kJ/mol
# Density = 1.950299 g / cm^3
# Si number density = 19.547481 Si / 1000 Ang^3
#
#
#
# Elastic Constant Matrix: (Units=GPa)
#
#
# Indices 1 2 3 4 5 6 
#
# 1 130.3000 47.1589 75.6615 0.0000 0.0000 0.0000
# 2 47.1589 130.3000 75.6615 0.0000 0.0000 0.0000
# 3 75.6615 75.6615 194.4424 0.0000 0.0000 0.0000
# 4 0.0000 0.0000 0.0000 16.6840 0.0000 0.0000
# 5 0.0000 0.0000 0.0000 0.0000 16.6840 0.0000
# 6 0.0000 0.0000 0.0000 0.0000 0.0000 20.9774
#
#
#
# Elastic Compliance Matrix: (Units=1/GPa)
#
#
# Indices 1 2 3 4 5 6 
#
# 1 0.010231 -0.001797 -0.003282 0.000000 0.000000 0.000000
# 2 -0.001797 0.010231 -0.003282 0.000000 0.000000 0.000000
# 3 -0.003282 -0.003282 0.007697 0.000000 0.000000 0.000000
# 4 0.000000 0.000000 0.000000 0.059938 0.000000 0.000000
# 5 0.000000 0.000000 0.000000 0.000000 0.059938 0.000000
# 6 0.000000 0.000000 0.000000 0.000000 0.000000 0.047670
#
#
# Mechanical properties :
#
#
# Convention : Reuss Voigt Hill
#
# Bulk Modulus (GPa) = 87.43423 94.66735 91.05079
# Shear Modulus (GPa) = 23.12278 27.97310 25.54794
#
# Velocity S-wave (km/s) = 3.44307 3.78700 3.61912
# Velocity P-wave (km/s) = 7.78669 8.22535 8.00903
#
# Compressibility (1/GPa) = 0.01143717
#
# Stress axis : x y z
#
# Youngs Moduli (GPa) = 97.74618 97.74618 129.92419
#
# Poissons Ratio (x) = 0.17567 0.42636
# Poissons Ratio (y) = 0.17567 0.42636
# Poissons Ratio (z) = 0.32077 0.32077
#
# Static dielectric constant tensor:
#      x y z
#    x 1.703730 0.000000 0.000000 
#    y 0.000000 1.703730 0.000000 
#    z 0.000000 0.000000 1.629010 
# 
# From -- ./inp_files/9343.got.cif
#   From: 2010.05.17/outbox.cif.g08.bks.cpg/sg137_5_cif.got.tgz:9343.got - 2010.05.20 13:01:12.
