data_PCOD9570011
_publ_section_title
;
Structure prediction by ZEFSAII (Michael W. Deem and Ramdas Pophale) SiO2 
 PCOD9570011
Probable space group: P 42/N M C
;
_chemical_formula_sum "Si O2"
_cell_formula_units_Z 128
_cell_length_a 19.995620
_cell_length_b 19.995620
_cell_length_c 18.251327
_cell_angle_alpha 90.000000
_cell_angle_beta 90.000000
_cell_angle_gamma 90.000000
_cell_volume 7297.333518
_symmetry_space_group_name_H-M "P 42/N M C"
_symmetry_group_IT_number 137
_space_group.IT_coordinate_system_code '2'
_symmetry_cell_setting 'tetragonal'
loop_
_space_group_symop_operation_xyz
x,y,z
1/2-y,x,1/2+z
1/2-x,1/2-y,z
y,1/2-x,1/2+z
1/2+x,-y,-z
-x,1/2+y,-z
1/2+y,1/2+x,1/2-z
-y,-x,1/2-z
-x,-y,-z
1/2+y,-x,1/2-z
1/2+x,1/2+y,-z
-y,1/2+x,1/2-z
1/2-x,y,z
x,1/2-y,z
1/2-y,1/2-x,1/2+z
y,x,1/2+z
loop_
_atom_site_type_symbol
_atom_site_label
_atom_site_fract_x
_atom_site_fract_y
_atom_site_fract_z
Si Si1 0.931705 0.670691 0.621387
Si Si2 0.909459 0.671480 0.019992
Si Si3 0.017345 0.035314 0.611000
Si Si4 0.623546 0.047511 0.689512
Si Si5 0.897381 0.038995 0.028285
Si Si6 0.068319 0.825527 0.036852
Si Si7 0.671207 0.676752 0.379128
Si Si8 0.910940 0.610431 0.260341
O O1 0.919909 0.750000 0.627080
O O2 0.874869 0.631947 0.574750
O O3 0.926848 0.633653 0.699759
O O4 0.001099 0.656349 0.578225
O O5 0.898776 0.750000 0.037136
O O6 0.989084 0.659726 0.022889
O O7 0.879850 0.658566 0.939513
O O8 0.063608 0.059758 0.676777
O O9 0.944976 0.027510 0.648091
O O10 0.005022 0.087818 0.544877
O O11 0.037813 0.965896 0.574929
O O12 0.601854 0.101854 0.750000
O O13 0.669738 0.074653 0.625002
O O14 0.644271 0.977656 0.726527
O O15 0.889404 0.115283 0.000948
O O16 0.082529 0.750000 0.011818
O O17 0.750000 0.675640 0.364349
O O18 0.653552 0.750000 0.409959
O O19 0.632632 0.663505 0.304564
#
# Coordination Sequence:
#
# PCOD9570011 Si02
#       8
#    16  16  16  16  16  16  16  16
#     4  12  23  33  49  76 109 145 182 223 266 322
#     4  10  20  36  54  76 105 143 187 229 267 313
#     4   9  17  31  55  74  98 130 173 219 275 316
#     4   9  17  30  50  77 103 134 164 210 276 330
#     4  10  18  34  54  78 103 134 177 232 277 321
#     4  10  19  33  56  83 106 131 173 230 283 335
#     4  10  21  34  45  61  95 144 189 218 246 297
#     4  11  19  31  48  72  99 137 176 219 264 317
#
# _framework density 17.540655000000001
#
# number of rings (size 3 to 8) (size 9 to 14) (size 15 to 20)
#    0.000    1.875    2.500    3.750    0.000    1.750 
#    0.000    0.625    0.000    4.875    0.000    0.000 
#    0.000    0.000    0.000    0.000    0.000    0.000 
#
# Total GULP energy -713791.516078 kJ/mol
# GULP energy per Si atom -5576.496219 kJ/mol
# Density = 1.750073 g / cm^3
# Si number density = 17.540655 Si / 1000 Ang^3
#
#
#
# Elastic Constant Matrix: (Units=GPa)
#
#
# Indices 1 2 3 4 5 6 
#
# 1 56.1031 24.5134 19.6914 0.0000 0.0000 0.0000
# 2 24.5134 56.1031 19.6914 0.0000 0.0000 0.0000
# 3 19.6914 19.6914 74.4259 0.0000 0.0000 0.0000
# 4 0.0000 0.0000 0.0000 20.0019 0.0000 0.0000
# 5 0.0000 0.0000 0.0000 0.0000 20.0019 0.0000
# 6 0.0000 0.0000 0.0000 0.0000 0.0000 18.9182
#
#
#
# Elastic Compliance Matrix: (Units=1/GPa)
#
#
# Indices 1 2 3 4 5 6 
#
# 1 0.022951 -0.008705 -0.003769 0.000000 0.000000 0.000000
# 2 -0.008705 0.022951 -0.003769 0.000000 0.000000 0.000000
# 3 -0.003769 -0.003769 0.015431 0.000000 0.000000 0.000000
# 4 0.000000 0.000000 0.000000 0.049995 0.000000 0.000000
# 5 0.000000 0.000000 0.000000 0.000000 0.049995 0.000000
# 6 0.000000 0.000000 0.000000 0.000000 0.000000 0.052859
#
#
# Mechanical properties :
#
#
# Convention : Reuss Voigt Hill
#
# Bulk Modulus (GPa) = 34.66729 34.93606 34.80167
# Shear Modulus (GPa) = 19.50963 19.96679 19.73821
#
# Velocity S-wave (km/s) = 3.33866 3.37755 3.35816
# Velocity P-wave (km/s) = 5.88805 5.93051 5.90931
#
# Compressibility (1/GPa) = 0.02884564
#
# Stress axis : x y z
#
# Youngs Moduli (GPa) = 43.57151 43.57151 64.80620
#
# Poissons Ratio (x) = 0.37929 0.24426
# Poissons Ratio (y) = 0.37929 0.24426
# Poissons Ratio (z) = 0.16422 0.16422
#
# Static dielectric constant tensor:
#      x y z
#    x 1.613970 0.000000 0.000000 
#    y 0.000000 1.613970 0.000000 
#    z 0.000000 0.000000 1.621760 
# 
# From -- ./inp_files/6838.got.cif
#   From: 2010.05.17/outbox.cif.g08.bks.cpg/sg137_4_cif.got.tgz:6838.got - 2010.05.20 13:01:12.
