data_PCOD9570518
_publ_section_title
;
Structure prediction by ZEFSAII (Michael W. Deem and Ramdas Pophale) SiO2 
 PCOD9570518
Probable space group: P 42/N M C
;
_chemical_formula_sum "Si O2"
_cell_formula_units_Z 20
_cell_length_a 9.976714
_cell_length_b 9.976714
_cell_length_c 8.242659
_cell_angle_alpha 90.000000
_cell_angle_beta 90.000000
_cell_angle_gamma 90.000000
_cell_volume 820.431598
_symmetry_space_group_name_H-M "P 42/N M C"
_symmetry_group_IT_number 137
_space_group.IT_coordinate_system_code '2'
_symmetry_cell_setting 'tetragonal'
loop_
_space_group_symop_operation_xyz
x,y,z
1/2-y,x,1/2+z
1/2-x,1/2-y,z
y,1/2-x,1/2+z
1/2+x,-y,-z
-x,1/2+y,-z
1/2+y,1/2+x,1/2-z
-y,-x,1/2-z
-x,-y,-z
1/2+y,-x,1/2-z
1/2+x,1/2+y,-z
-y,1/2+x,1/2-z
1/2-x,y,z
x,1/2-y,z
1/2-y,1/2-x,1/2+z
y,x,1/2+z
loop_
_atom_site_type_symbol
_atom_site_label
_atom_site_fract_x
_atom_site_fract_y
_atom_site_fract_z
Si Si1 0.750000 0.968076 0.837769
Si Si2 0.250000 0.750000 0.974786
Si Si3 0.250000 0.459403 0.550560
O O1 0.750000 0.971009 0.643929
O O2 0.750000 0.113782 0.917460
O O3 0.877181 0.880393 0.894614
O O4 0.391154 0.750000 0.883513
#
# Coordination Sequence:
#
# PCOD9570518 Si02
#       3
#     8   4   8
#     4  11  23  43  64  90 124 163 203 251 304 362
#     4  12  25  40  65  94 125 160 205 254 305 360
#     4  11  23  43  64  90 124 163 203 251 304 362
#
# _framework density 24.377413000000001
#
# number of rings (size 3 to 8) (size 9 to 14) (size 15 to 20)
#    0.000    0.800    0.000   10.800    0.000    0.000 
#    0.000   20.000    0.000    0.000    0.000    0.000 
#    0.000    0.000    0.000    0.000    0.000    0.000 
#
# Total GULP energy -112289.557507 kJ/mol
# GULP energy per Si atom -5614.477875 kJ/mol
# Density = 2.432193 g / cm^3
# Si number density = 24.377413 Si / 1000 Ang^3
#
#
#
# Elastic Constant Matrix: (Units=GPa)
#
#
# Indices 1 2 3 4 5 6 
#
# 1 241.4466 103.6883 46.2896 0.0000 0.0000 0.0000
# 2 103.6883 241.4466 46.2896 0.0000 0.0000 0.0000
# 3 46.2896 46.2896 63.1753 0.0000 0.0000 0.0000
# 4 0.0000 0.0000 0.0000 42.0133 0.0000 0.0000
# 5 0.0000 0.0000 0.0000 0.0000 42.0133 0.0000
# 6 0.0000 0.0000 0.0000 0.0000 0.0000 12.1640
#
#
#
# Elastic Compliance Matrix: (Units=1/GPa)
#
#
# Indices 1 2 3 4 5 6 
#
# 1 0.005433 -0.001826 -0.002642 0.000000 0.000000 0.000000
# 2 -0.001826 0.005433 -0.002642 0.000000 0.000000 0.000000
# 3 -0.002642 -0.002642 0.019701 0.000000 0.000000 0.000000
# 4 0.000000 0.000000 0.000000 0.023802 0.000000 0.000000
# 5 0.000000 0.000000 0.000000 0.000000 0.023802 0.000000
# 6 0.000000 0.000000 0.000000 0.000000 0.000000 0.082210
#
#
# Mechanical properties :
#
#
# Convention : Reuss Voigt Hill
#
# Bulk Modulus (GPa) = 61.18368 104.28927 82.73647
# Shear Modulus (GPa) = 27.77001 42.55819 35.16410
#
# Velocity S-wave (km/s) = 3.37882 4.18282 3.80213
# Velocity P-wave (km/s) = 6.35412 8.13646 7.29989
#
# Compressibility (1/GPa) = 0.01634423
#
# Stress axis : x y z
#
# Youngs Moduli (GPa) = 184.07253 184.07253 50.75855
#
# Poissons Ratio (x) = 0.33620 0.13412
# Poissons Ratio (y) = 0.33620 0.13412
# Poissons Ratio (z) = 0.48638 0.48638
#
# Static dielectric constant tensor:
#      x y z
#    x 1.912570 0.000000 0.000000 
#    y 0.000000 1.912570 0.000000 
#    z 0.000000 0.000000 1.904010 
# 
# From -- ./inp_files/729.got.cif
#   From: 2010.05.17/outbox.cif.g08.bks.cpg/sg137_1_cif.got.tgz:729.got - 2010.05.20 13:01:12.
