data_PCOD9570074
_publ_section_title
;
Structure prediction by ZEFSAII (Michael W. Deem and Ramdas Pophale) SiO2 
 PCOD9570074
Probable space group: P 42/N M C
;
_chemical_formula_sum "Si O2"
_cell_formula_units_Z 84
_cell_length_a 14.588794
_cell_length_b 14.588794
_cell_length_c 23.015708
_cell_angle_alpha 90.000000
_cell_angle_beta 90.000000
_cell_angle_gamma 90.000000
_cell_volume 4898.500118
_symmetry_space_group_name_H-M "P 42/N M C"
_symmetry_group_IT_number 137
_space_group.IT_coordinate_system_code '2'
_symmetry_cell_setting 'tetragonal'
loop_
_space_group_symop_operation_xyz
x,y,z
1/2-y,x,1/2+z
1/2-x,1/2-y,z
y,1/2-x,1/2+z
1/2+x,-y,-z
-x,1/2+y,-z
1/2+y,1/2+x,1/2-z
-y,-x,1/2-z
-x,-y,-z
1/2+y,-x,1/2-z
1/2+x,1/2+y,-z
-y,1/2+x,1/2-z
1/2-x,y,z
x,1/2-y,z
1/2-y,1/2-x,1/2+z
y,x,1/2+z
loop_
_atom_site_type_symbol
_atom_site_label
_atom_site_fract_x
_atom_site_fract_y
_atom_site_fract_z
Si Si1 0.750000 0.750000 0.633799
Si Si2 0.750000 0.483632 0.829435
Si Si3 0.914215 0.750000 0.453569
Si Si4 0.059666 0.250000 0.797993
Si Si5 0.450078 0.567656 0.185135
Si Si6 0.984349 0.056522 0.413758
Si Si7 0.448477 0.145377 0.009379
Si Si8 0.250000 0.043001 0.915952
O O1 0.750000 0.660266 0.674436
O O2 0.653795 0.750000 0.596877
O O3 0.750000 0.533112 0.892172
O O4 0.750000 0.551694 0.772845
O O5 0.841381 0.423662 0.822774
O O6 0.862228 0.652532 0.460722
O O7 0.972744 0.750000 0.513927
O O8 0.005426 0.338676 0.820326
O O9 0.467160 0.532841 0.250000
O O10 0.485715 0.497542 0.137771
O O11 0.072939 0.048830 0.456510
O O12 0.994760 0.159689 0.391778
O O13 0.893897 0.026895 0.448186
O O14 0.462838 0.250000 0.991317
#
# Coordination Sequence:
#
# PCOD9570074 Si02
#       8
#     4   8   8   8  16  16  16   8
#     4  12  20  36  56  86 106 134 194 230 276 320
#     4  10  20  38  52  78 117 146 183 225 269 339
#     4  10  19  32  53  83 109 139 178 221 279 324
#     4  10  22  35  55  80 110 150 186 229 270 321
#     4  10  20  35  55  77 111 150 183 222 272 327
#     4  10  20  36  55  80 111 144 182 230 272 326
#     4  10  21  34  55  82 112 146 181 222 280 330
#     4  10  22  32  56  82 106 141 182 233 272 325
#
# _framework density 17.148105000000001
#
# number of rings (size 3 to 8) (size 9 to 14) (size 15 to 20)
#    0.000    1.905    3.810    0.286    6.667    0.381 
#    1.714    2.381    2.095    0.000    0.000    0.000 
#    0.000    0.000    0.000    0.000    0.000    0.000 
#
# Total GULP energy -467853.499311 kJ/mol
# GULP energy per Si atom -5569.684516 kJ/mol
# Density = 1.710908 g / cm^3
# Si number density = 17.148105 Si / 1000 Ang^3
#
#
#
# Elastic Constant Matrix: (Units=GPa)
#
#
# Indices 1 2 3 4 5 6 
#
# 1 82.3027 18.0104 12.5591 0.0000 0.0000 0.0000
# 2 18.0104 82.3032 12.5590 0.0000 0.0000 0.0000
# 3 12.5591 12.5590 61.1073 0.0000 0.0000 0.0000
# 4 0.0000 0.0000 0.0000 14.4158 0.0000 0.0000
# 5 0.0000 0.0000 0.0000 0.0000 14.4156 0.0000
# 6 0.0000 0.0000 0.0000 0.0000 0.0000 18.2515
#
#
#
# Elastic Compliance Matrix: (Units=1/GPa)
#
#
# Indices 1 2 3 4 5 6 
#
# 1 0.013032 -0.002522 -0.002160 0.000000 0.000000 0.000000
# 2 -0.002522 0.013032 -0.002160 0.000000 0.000000 0.000000
# 3 -0.002160 -0.002160 0.017253 0.000000 0.000000 0.000000
# 4 0.000000 0.000000 0.000000 0.069369 0.000000 0.000000
# 5 0.000000 0.000000 0.000000 0.000000 0.069369 0.000000
# 6 0.000000 0.000000 0.000000 0.000000 0.000000 0.054790
#
#
# Mechanical properties :
#
#
# Convention : Reuss Voigt Hill
#
# Bulk Modulus (GPa) = 33.74751 34.66335 34.20543
# Shear Modulus (GPa) = 19.20085 21.58890 20.39487
#
# Velocity S-wave (km/s) = 3.34983 3.55204 3.45242
# Velocity P-wave (km/s) = 5.88936 6.08939 5.99021
#
# Compressibility (1/GPa) = 0.02963181
#
# Stress axis : x y z
#
# Youngs Moduli (GPa) = 76.73540 76.73589 57.96256
#
# Poissons Ratio (x) = 0.19354 0.12520
# Poissons Ratio (y) = 0.19354 0.12520
# Poissons Ratio (z) = 0.16575 0.16575
#
# Static dielectric constant tensor:
#      x y z
#    x 1.595450 0.000000 0.000000 
#    y 0.000000 1.595450 0.000000 
#    z 0.000000 0.000000 1.597560 
# 
# From -- ./inp_files/8846.got.cif
#   From: 2010.05.17/outbox.cif.g08.bks.cpg/sg137_5_cif.got.tgz:8846.got - 2010.05.20 13:01:12.
