data_PCOD9570202
_publ_section_title
;
Structure prediction by ZEFSAII (Michael W. Deem and Ramdas Pophale) SiO2 
 PCOD9570202
Probable space group: P 42/N M C
;
_chemical_formula_sum "Si O2"
_cell_formula_units_Z 42
_cell_length_a 8.287305
_cell_length_b 8.287305
_cell_length_c 32.758210
_cell_angle_alpha 90.000000
_cell_angle_beta 90.000000
_cell_angle_gamma 90.000000
_cell_volume 2249.814999
_symmetry_space_group_name_H-M "P 42/N M C"
_symmetry_group_IT_number 137
_space_group.IT_coordinate_system_code '2'
_symmetry_cell_setting 'tetragonal'
loop_
_space_group_symop_operation_xyz
x,y,z
1/2-y,x,1/2+z
1/2-x,1/2-y,z
y,1/2-x,1/2+z
1/2+x,-y,-z
-x,1/2+y,-z
1/2+y,1/2+x,1/2-z
-y,-x,1/2-z
-x,-y,-z
1/2+y,-x,1/2-z
1/2+x,1/2+y,-z
-y,1/2+x,1/2-z
1/2-x,y,z
x,1/2-y,z
1/2-y,1/2-x,1/2+z
y,x,1/2+z
loop_
_atom_site_type_symbol
_atom_site_label
_atom_site_fract_x
_atom_site_fract_y
_atom_site_fract_z
Si Si1 0.444257 0.572167 0.371005
Si Si2 0.430959 0.750000 0.670310
Si Si3 0.564907 0.944639 0.043511
Si Si4 0.750000 0.250000 0.250000
O O1 0.250000 0.577284 0.371632
O O2 0.502384 0.750000 0.357376
O O3 0.489717 0.415731 0.344567
O O4 0.499968 0.537957 0.417498
O O5 0.250000 0.750000 0.652405
O O6 0.400766 0.750000 0.719065
O O7 0.750000 0.997769 0.048987
O O8 0.563005 0.750000 0.043865
O O9 0.500000 0.000000 0.000000
#
# Coordination Sequence:
#
# PCOD9570202 Si02
#       4
#    16   8  16   2
#     4  10  20  37  62  89 121 165 210 255 315 383
#     4  10  21  41  64  88 123 157 200 258 321 378
#     4  10  20  34  52  78 118 164 209 259 306 358
#     4   8  24  44  64  92 120 160 196 256 320 384
#
# _framework density 18.668202000000001
#
# number of rings (size 3 to 8) (size 9 to 14) (size 15 to 20)
#    0.571    1.524    1.905    1.714    0.000    4.571 
#    0.000    3.810    0.000    2.286    0.000    0.000 
#    0.000    0.000    0.000    0.000    0.000    0.000 
#
# Total GULP energy -234022.267297 kJ/mol
# GULP energy per Si atom -5571.958745 kJ/mol
# Density = 1.862571 g / cm^3
# Si number density = 18.668202 Si / 1000 Ang^3
#
#
#
# Elastic Constant Matrix: (Units=GPa)
#
#
# Indices 1 2 3 4 5 6 
#
# 1 95.9524 37.6353 41.7648 0.0000 0.0000 0.0000
# 2 37.6353 95.9524 41.7648 0.0000 0.0000 0.0000
# 3 41.7648 41.7648 124.1794 0.0000 0.0000 0.0000
# 4 0.0000 0.0000 0.0000 26.1154 0.0000 0.0000
# 5 0.0000 0.0000 0.0000 0.0000 26.1154 0.0000
# 6 0.0000 0.0000 0.0000 0.0000 0.0000 22.7766
#
#
#
# Elastic Compliance Matrix: (Units=1/GPa)
#
#
# Indices 1 2 3 4 5 6 
#
# 1 0.013313 -0.003834 -0.003188 0.000000 0.000000 0.000000
# 2 -0.003834 0.013313 -0.003188 0.000000 0.000000 0.000000
# 3 -0.003188 -0.003188 0.010197 0.000000 0.000000 0.000000
# 4 0.000000 0.000000 0.000000 0.038292 0.000000 0.000000
# 5 0.000000 0.000000 0.000000 0.000000 0.038292 0.000000
# 6 0.000000 0.000000 0.000000 0.000000 0.000000 0.043905
#
#
# Mechanical properties :
#
#
# Convention : Reuss Voigt Hill
#
# Bulk Modulus (GPa) = 60.96330 62.04598 61.50464
# Shear Modulus (GPa) = 27.29246 27.99608 27.64427
#
# Velocity S-wave (km/s) = 3.82773 3.87675 3.85232
# Velocity P-wave (km/s) = 7.22928 7.30392 7.26670
#
# Compressibility (1/GPa) = 0.01640331
#
# Stress axis : x y z
#
# Youngs Moduli (GPa) = 75.11226 75.11226 98.06479
#
# Poissons Ratio (x) = 0.28800 0.31264
# Poissons Ratio (y) = 0.28800 0.31264
# Poissons Ratio (z) = 0.23946 0.23946
#
# Static dielectric constant tensor:
#      x y z
#    x 1.672660 0.000000 0.000000 
#    y 0.000000 1.672660 0.000000 
#    z 0.000000 0.000000 1.629100 
# 
# From -- ./inp_files/9962.got.cif
#   From: 2010.05.17/outbox.cif.g08.bks.cpg/sg137_5_cif.got.tgz:9962.got - 2010.05.20 13:01:12.
