data_PCOD9570256
_publ_section_title
;
Structure prediction by ZEFSAII (Michael W. Deem and Ramdas Pophale) SiO2 
 PCOD9570256
Probable space group: P 42/N M C
;
_chemical_formula_sum "Si O2"
_cell_formula_units_Z 96
_cell_length_a 21.058889
_cell_length_b 21.058889
_cell_length_c 11.947495
_cell_angle_alpha 90.000000
_cell_angle_beta 90.000000
_cell_angle_gamma 90.000000
_cell_volume 5298.436921
_symmetry_space_group_name_H-M "P 42/N M C"
_symmetry_group_IT_number 137
_space_group.IT_coordinate_system_code '2'
_symmetry_cell_setting 'tetragonal'
loop_
_space_group_symop_operation_xyz
x,y,z
1/2-y,x,1/2+z
1/2-x,1/2-y,z
y,1/2-x,1/2+z
1/2+x,-y,-z
-x,1/2+y,-z
1/2+y,1/2+x,1/2-z
-y,-x,1/2-z
-x,-y,-z
1/2+y,-x,1/2-z
1/2+x,1/2+y,-z
-y,1/2+x,1/2-z
1/2-x,y,z
x,1/2-y,z
1/2-y,1/2-x,1/2+z
y,x,1/2+z
loop_
_atom_site_type_symbol
_atom_site_label
_atom_site_fract_x
_atom_site_fract_y
_atom_site_fract_z
Si Si1 0.822419 0.951023 0.884912
Si Si2 0.505421 0.613321 0.023260
Si Si3 0.899451 0.821292 0.858281
Si Si4 0.950014 0.007117 0.140949
Si Si5 0.826990 0.068433 0.726934
Si Si6 0.817555 0.513984 0.146891
O O1 0.750000 0.942724 0.848083
O O2 0.856502 0.884154 0.864645
O O3 0.845824 0.013062 0.817151
O O4 0.822882 0.966581 0.017018
O O5 0.549757 0.564438 0.093525
O O6 0.459870 0.650558 0.107592
O O7 0.544836 0.661753 0.946711
O O8 0.471654 0.560714 0.945116
O O9 0.873511 0.750000 0.882981
O O10 0.927722 0.818500 0.733248
O O11 0.993360 0.006641 0.250000
O O12 0.879381 0.024965 0.177230
O O13 0.868135 0.131866 0.750000
O O14 0.750000 0.077478 0.731781
O O15 0.750000 0.480794 0.161820
#
# Coordination Sequence:
#
# PCOD9570256 Si02
#       6
#    16  16  16  16  16  16
#     4  10  22  40  59  81 115 159 199 239 289 353
#     4  11  22  34  57  88 119 144 192 243 296 346
#     4  11  22  36  56  83 119 152 189 243 288 340
#     4  11  20  33  57  86 114 154 189 237 292 352
#     4  11  24  41  63  89 121 155 197 250 305 357
#     4  10  20  36  54  77 111 148 189 232 282 344
#
# _framework density 18.118551
#
# number of rings (size 3 to 8) (size 9 to 14) (size 15 to 20)
#    0.000    1.333    3.333    3.000    2.333    0.500 
#    0.000    0.000    0.000    3.000    0.000    0.000 
#    0.000    1.667    0.000    0.000    0.000    0.000 
#
# Total GULP energy -534807.668753 kJ/mol
# GULP energy per Si atom -5570.913216 kJ/mol
# Density = 1.807731 g / cm^3
# Si number density = 18.118551 Si / 1000 Ang^3
#
#
#
# Elastic Constant Matrix: (Units=GPa)
#
#
# Indices 1 2 3 4 5 6 
#
# 1 88.1417 53.1444 21.2814 0.0000 0.0000 0.0000
# 2 53.1444 88.1425 21.2855 0.0000 0.0000 0.0000
# 3 21.2814 21.2855 80.0934 0.0000 0.0000 0.0000
# 4 0.0000 0.0000 0.0000 10.8207 0.0000 0.0000
# 5 0.0000 0.0000 0.0000 0.0000 10.8195 0.0000
# 6 0.0000 0.0000 0.0000 0.0000 0.0000 22.8530
#
#
#
# Elastic Compliance Matrix: (Units=1/GPa)
#
#
# Indices 1 2 3 4 5 6 
#
# 1 0.018133 -0.010440 -0.002044 0.000000 0.000000 0.000000
# 2 -0.010440 0.018134 -0.002045 0.000000 0.000000 0.000000
# 3 -0.002044 -0.002045 0.013572 0.000000 0.000000 0.000000
# 4 0.000000 0.000000 0.000000 0.092416 0.000000 0.000000
# 5 0.000000 0.000000 0.000000 0.000000 0.092426 0.000000
# 6 0.000000 0.000000 0.000000 0.000000 0.000000 0.043758
#
#
# Mechanical properties :
#
#
# Convention : Reuss Voigt Hill
#
# Bulk Modulus (GPa) = 48.11948 49.75557 48.93752
# Shear Modulus (GPa) = 15.90214 19.60972 17.75593
#
# Velocity S-wave (km/s) = 2.96577 3.29340 3.13387
# Velocity P-wave (km/s) = 6.19221 6.47941 6.33744
#
# Compressibility (1/GPa) = 0.02078161
#
# Stress axis : x y z
#
# Youngs Moduli (GPa) = 55.14683 55.14593 73.68113
#
# Poissons Ratio (x) = 0.57571 0.15058
# Poissons Ratio (y) = 0.57572 0.15070
# Poissons Ratio (z) = 0.11270 0.11279
#
# Static dielectric constant tensor:
#      x y z
#    x 1.663200 0.000000 0.000000 
#    y 0.000000 1.663200 0.000000 
#    z 0.000000 0.000000 1.728500 
# 
# From -- ./inp_files/3796.got.cif
#   From: 2010.05.17/outbox.cif.g08.bks.cpg/sg137_2_cif.got.tgz:3796.got - 2010.05.20 13:01:12.
