data_PCOD9570787
_publ_section_title
;
Structure prediction by ZEFSAII (Michael W. Deem and Ramdas Pophale) SiO2 
 PCOD9570787
Probable space group: P 42/N C M
;
_chemical_formula_sum "Si O2"
_cell_formula_units_Z 36
_cell_length_a 9.945728
_cell_length_b 9.945728
_cell_length_c 20.343596
_cell_angle_alpha 90.000000
_cell_angle_beta 90.000000
_cell_angle_gamma 90.000000
_cell_volume 2012.337768
_symmetry_space_group_name_H-M "P 42/N C M"
_symmetry_group_IT_number 138
_space_group.IT_coordinate_system_code '2'
_symmetry_cell_setting 'tetragonal'
loop_
_space_group_symop_operation_xyz
x,y,z
1/2-y,x,1/2+z
1/2-x,1/2-y,z
y,1/2-x,1/2+z
1/2+x,-y,1/2-z
-x,1/2+y,1/2-z
1/2+y,1/2+x,-z
-y,-x,-z
-x,-y,-z
1/2+y,-x,1/2-z
1/2+x,1/2+y,-z
-y,1/2+x,1/2-z
1/2-x,y,1/2+z
x,1/2-y,1/2+z
1/2-y,1/2-x,z
y,x,z
loop_
_atom_site_type_symbol
_atom_site_label
_atom_site_fract_x
_atom_site_fract_y
_atom_site_fract_z
Si Si1 0.614801 0.885200 0.747639
Si Si2 0.091245 0.091245 0.046555
Si Si3 0.887094 0.887094 0.504483
Si Si4 0.907717 0.907717 0.800525
Si Si5 0.750000 0.750000 0.125516
O O1 0.751221 0.932017 0.783413
O O2 0.660460 0.839541 0.674445
O O3 0.502397 0.997604 0.742613
O O4 0.066766 0.066766 0.123008
O O5 0.248413 0.067393 0.030055
O O6 0.000000 0.000000 0.000000
O O7 0.841459 0.841459 0.577762
O O8 0.000000 0.000000 0.500000
#
# Coordination Sequence:
#
# PCOD9570787 Si02
#       5
#     8   8   8   8   4
#     4  10  21  36  58  78 111 146 184 232 270 331
#     4  10  21  38  57  80 115 145 177 229 278 329
#     4  10  20  35  57  82 108 146 186 227 273 329
#     4  10  21  39  56  82 108 146 186 224 279 323
#     4   8  18  36  54  80 110 142 182 230 280 320
#
# _framework density 17.889643
#
# number of rings (size 3 to 8) (size 9 to 14) (size 15 to 20)
#    0.000    2.667    0.000    5.333    0.000    8.889 
#    0.000    4.444    0.000    0.000    0.000    0.000 
#    0.000    0.000    0.000    0.000    0.000    0.000 
#
# Total GULP energy -200839.245487 kJ/mol
# GULP energy per Si atom -5578.867930 kJ/mol
# Density = 1.784893 g / cm^3
# Si number density = 17.889643 Si / 1000 Ang^3
#
#
#
# Elastic Constant Matrix: (Units=GPa)
#
#
# Indices 1 2 3 4 5 6 
#
# 1 104.1617 104.4375 32.5983 0.0000 0.0000 0.0000
# 2 104.4375 104.1617 32.5983 0.0000 0.0000 0.0000
# 3 32.5983 32.5983 112.0689 0.0000 0.0000 0.0000
# 4 0.0000 0.0000 0.0000 13.3626 0.0000 0.0000
# 5 0.0000 0.0000 0.0000 0.0000 13.3626 0.0000
# 6 0.0000 0.0000 0.0000 0.0000 0.0000 55.4494
#
#
#
# Elastic Compliance Matrix: (Units=1/GPa)
#
#
# Indices 1 2 3 4 5 6 
#
# 1 -1.809832 1.815105 -0.001534 0.000000 0.000000 0.000000
# 2 1.815105 -1.809832 -0.001534 0.000000 0.000000 0.000000
# 3 -0.001534 -0.001534 0.009815 0.000000 0.000000 0.000000
# 4 0.000000 0.000000 0.000000 0.074836 0.000000 0.000000
# 5 0.000000 0.000000 0.000000 0.000000 0.074836 0.000000
# 6 0.000000 0.000000 0.000000 0.000000 0.000000 0.018034
#
#
# Mechanical properties :
#
#
# Convention : Reuss Voigt Hill
#
# Bulk Modulus (GPa) = 70.29142 73.29558 71.79350
# Shear Modulus (GPa) = -0.70807 26.48546 12.88869
#
# Velocity S-wave (km/s) = -0.62981 3.85189 2.68704
# Velocity P-wave (km/s) = 6.23282 7.80017 7.06013
#
# Compressibility (1/GPa) = 0.01422649
#
# Stress axis : x y z
#
# Youngs Moduli (GPa) = -0.55254 -0.55254 101.88048
#
# Poissons Ratio (x) = 1.00291 0.15627
# Poissons Ratio (y) = 1.00291 0.15627
# Poissons Ratio (z) = -0.00085 -0.00085
#
# Static dielectric constant tensor:
#      x y z
#    x 1.595430 0.000000 0.000000 
#    y 0.000000 1.595430 0.000000 
#    z 0.000000 0.000000 1.627100 
# 
# From -- ./inp_files/5574.got.cif
#   From: 2010.05.17/outbox.cif.g08.bks.cpg/sg138_3_cif.got.tgz:5574.got - 2010.05.20 13:08:53.
