data_PCOD9570844
_publ_section_title
;
Structure prediction by ZEFSAII (Michael W. Deem and Ramdas Pophale) SiO2 
 PCOD9570844
Probable space group: P 42/N C M
;
_chemical_formula_sum "Si O2"
_cell_formula_units_Z 56
_cell_length_a 11.431146
_cell_length_b 11.431146
_cell_length_c 23.838242
_cell_angle_alpha 90.000000
_cell_angle_beta 90.000000
_cell_angle_gamma 90.000000
_cell_volume 3114.969277
_symmetry_space_group_name_H-M "P 42/N C M"
_symmetry_group_IT_number 138
_space_group.IT_coordinate_system_code '2'
_symmetry_cell_setting 'tetragonal'
loop_
_space_group_symop_operation_xyz
x,y,z
1/2-y,x,1/2+z
1/2-x,1/2-y,z
y,1/2-x,1/2+z
1/2+x,-y,1/2-z
-x,1/2+y,1/2-z
1/2+y,1/2+x,-z
-y,-x,-z
-x,-y,-z
1/2+y,-x,1/2-z
1/2+x,1/2+y,-z
-y,1/2+x,1/2-z
1/2-x,y,1/2+z
x,1/2-y,1/2+z
1/2-y,1/2-x,z
y,x,z
loop_
_atom_site_type_symbol
_atom_site_label
_atom_site_fract_x
_atom_site_fract_y
_atom_site_fract_z
Si Si1 0.183878 0.987074 0.471436
Si Si2 0.349047 0.349047 0.271817
Si Si3 0.951609 0.951609 0.839553
Si Si4 0.910078 0.589923 0.470015
Si Si5 0.511444 0.798913 0.643928
O O1 0.125762 0.874239 0.500000
O O2 0.282832 0.049099 0.509135
O O3 0.240836 0.960334 0.411325
O O4 0.080617 0.080617 0.461807
O O5 0.250000 0.250000 0.266617
O O6 0.387928 0.387928 0.210614
O O7 0.292491 0.453273 0.308474
O O8 0.917917 0.917917 0.902816
O O9 0.935446 0.092267 0.834625
O O10 0.000000 0.500000 0.500000
O O11 0.633318 0.866683 0.626734
#
# Coordination Sequence:
#
# PCOD9570844 Si02
#       5
#    16   8   8   8  16
#     4  11  22  37  63  97 121 159 214 256 306 375
#     4  10  20  38  67  84 111 165 208 249 307 367
#     4  10  22  38  60  91 117 158 206 253 312 374
#     4  12  21  39  62  86 130 165 198 253 318 379
#     4   9  18  38  65  81 118 166 200 246 309 378
#
# _framework density 17.977703999999999
#
# number of rings (size 3 to 8) (size 9 to 14) (size 15 to 20)
#    0.857    0.857    5.714    0.429    0.000    1.714 
#    5.143    0.000    0.000    0.000    0.000    0.000 
#    0.000    0.000    0.000    0.000    0.000    0.000 
#
# Total GULP energy -312118.940590 kJ/mol
# GULP energy per Si atom -5573.552511 kJ/mol
# Density = 1.793679 g / cm^3
# Si number density = 17.977704 Si / 1000 Ang^3
#
#
#
# Elastic Constant Matrix: (Units=GPa)
#
#
# Indices 1 2 3 4 5 6 
#
# 1 33.1527 36.7784 35.6372 0.0000 0.0000 0.0000
# 2 36.7784 33.1585 35.6350 0.0000 0.0000 0.0000
# 3 35.6372 35.6350 145.6397 0.0000 0.0000 0.0000
# 4 0.0000 0.0000 0.0000 30.9329 0.0000 0.0000
# 5 0.0000 0.0000 0.0000 0.0000 30.9331 0.0000
# 6 0.0000 0.0000 0.0000 0.0000 0.0000 25.4260
#
#
#
# Elastic Compliance Matrix: (Units=1/GPa)
#
#
# Indices 1 2 3 4 5 6 
#
# 1 -0.128508 0.147539 -0.004655 0.000000 0.000000 0.000000
# 2 0.147539 -0.128472 -0.004668 0.000000 0.000000 0.000000
# 3 -0.004655 -0.004668 0.009147 0.000000 0.000000 0.000000
# 4 0.000000 0.000000 0.000000 0.032328 0.000000 0.000000
# 5 0.000000 0.000000 0.000000 0.000000 0.032328 0.000000
# 6 0.000000 0.000000 0.000000 0.000000 0.000000 0.039330
#
#
# Mechanical properties :
#
#
# Convention : Reuss Voigt Hill
#
# Bulk Modulus (GPa) = 34.96289 47.56133 41.26211
# Shear Modulus (GPa) = -12.17296 24.38509 6.10606
#
# Velocity S-wave (km/s) = -2.60496 3.68694 1.84495
# Velocity P-wave (km/s) = 3.23146 6.68116 5.24787
#
# Compressibility (1/GPa) = 0.02860175
#
# Stress axis : x y z
#
# Youngs Moduli (GPa) = -7.78163 -7.78382 109.32172
#
# Poissons Ratio (x) = 1.14842 0.50886
# Poissons Ratio (y) = 1.14810 0.51027
# Poissons Ratio (z) = -0.03622 -0.03633
#
# Static dielectric constant tensor:
#      x y z
#    x 1.638360 0.000000 0.000000 
#    y 0.000000 1.638360 0.000000 
#    z 0.000000 0.000000 1.584830 
# 
# From -- ./inp_files/5773.got.cif
#   From: 2010.05.17/outbox.cif.g08.bks.cpg/sg138_3_cif.got.tgz:5773.got - 2010.05.20 13:08:53.
