data_PCOD9570580
_publ_section_title
;
Structure prediction by ZEFSAII (Michael W. Deem and Ramdas Pophale) SiO2 
 PCOD9570580
Probable space group: P 42/N C M
;
_chemical_formula_sum "Si O2"
_cell_formula_units_Z 64
_cell_length_a 22.381911
_cell_length_b 22.381911
_cell_length_c 5.454092
_cell_angle_alpha 90.000000
_cell_angle_beta 90.000000
_cell_angle_gamma 90.000000
_cell_volume 2732.227060
_symmetry_space_group_name_H-M "P 42/N C M"
_symmetry_group_IT_number 138
_space_group.IT_coordinate_system_code '2'
_symmetry_cell_setting 'tetragonal'
loop_
_space_group_symop_operation_xyz
x,y,z
1/2-y,x,1/2+z
1/2-x,1/2-y,z
y,1/2-x,1/2+z
1/2+x,-y,1/2-z
-x,1/2+y,1/2-z
1/2+y,1/2+x,-z
-y,-x,-z
-x,-y,-z
1/2+y,-x,1/2-z
1/2+x,1/2+y,-z
-y,1/2+x,1/2-z
1/2-x,y,1/2+z
x,1/2-y,1/2+z
1/2-y,1/2-x,z
y,x,z
loop_
_atom_site_type_symbol
_atom_site_label
_atom_site_fract_x
_atom_site_fract_y
_atom_site_fract_z
Si Si1 0.217721 0.123642 0.978983
Si Si2 0.504742 0.174909 0.397960
Si Si3 0.536711 0.124901 0.897801
Si Si4 0.237209 0.878631 0.380689
O O1 0.250686 0.142862 0.730104
O O2 0.152189 0.152189 0.976151
O O3 0.213565 0.052216 0.970599
O O4 0.511415 0.127472 0.621837
O O5 0.564121 0.216401 0.387743
O O6 0.496765 0.148762 0.124239
O O7 0.591454 0.172249 0.876307
O O8 0.563716 0.063716 0.000000
O O9 0.248069 0.845724 0.632403
#
# Coordination Sequence:
#
# PCOD9570580 Si02
#       4
#    16  16  16  16
#     4  12  25  42  65  90 117 152 192 239 297 357
#     4  10  19  35  55  78 111 151 193 233 281 347
#     4  10  18  29  51  82 113 144 187 244 286 320
#     4   8  14  25  43  66  97 132 172 220 268 314
#
# _framework density 23.424116000000001
#
# number of rings (size 3 to 8) (size 9 to 14) (size 15 to 20)
#    0.000    2.000    0.000    7.500    0.000    1.500 
#    0.000    0.000    0.000    4.500    0.000    0.000 
#    0.000  243.000    0.000    0.000    0.000    0.000 
#
# Total GULP energy -357385.807078 kJ/mol
# GULP energy per Si atom -5584.153236 kJ/mol
# Density = 2.337080 g / cm^3
# Si number density = 23.424116 Si / 1000 Ang^3
#
#
#
# Elastic Constant Matrix: (Units=GPa)
#
#
# Indices 1 2 3 4 5 6 
#
# 1 -7.5688 46.2618 12.8684 0.0000 0.0000 0.0000
# 2 46.2618 -7.5688 12.8684 0.0000 0.0000 0.0000
# 3 12.8684 12.8684 172.8617 0.0000 0.0000 0.0000
# 4 0.0000 0.0000 0.0000 2.8490 0.0000 0.0000
# 5 0.0000 0.0000 0.0000 0.0000 2.8490 0.0000
# 6 0.0000 0.0000 0.0000 0.0000 0.0000 24.0163
#
#
#
# Elastic Compliance Matrix: (Units=1/GPa)
#
#
# Indices 1 2 3 4 5 6 
#
# 1 0.004307 0.022884 -0.002024 0.000000 0.000000 0.000000
# 2 0.022884 0.004307 -0.002024 0.000000 0.000000 0.000000
# 3 -0.002024 -0.002024 0.006086 0.000000 0.000000 0.000000
# 4 0.000000 0.000000 0.000000 0.350995 0.000000 0.000000
# 5 0.000000 0.000000 0.000000 0.000000 0.350995 0.000000
# 6 0.000000 0.000000 0.000000 0.000000 0.000000 0.041638
#
#
# Mechanical properties :
#
#
# Convention : Reuss Voigt Hill
#
# Bulk Modulus (GPa) = 19.09438 33.52457 26.30948
# Shear Modulus (GPa) = 6.77400 11.65791 9.21596
#
# Velocity S-wave (km/s) = 1.70240 2.23331 1.98568
# Velocity P-wave (km/s) = 3.46894 4.58185 4.06367
#
# Compressibility (1/GPa) = 0.05237142
#
# Stress axis : x y z
#
# Youngs Moduli (GPa) = 232.17769 232.17769 164.30229
#
# Poissons Ratio (x) = -5.31312 0.33258
# Poissons Ratio (y) = -5.31312 0.33258
# Poissons Ratio (z) = 0.46997 0.46997
#
# Static dielectric constant tensor:
#      x y z
#    x 1.879600 0.000000 0.000000 
#    y 0.000000 1.879600 0.000000 
#    z 0.000000 0.000000 1.962690 
# 
# From -- ./inp_files/361.got.cif
#   From: 2010.05.17/outbox.cif.g08.bks.cpg/sg138_1_cif.got.tgz:361.got - 2010.05.20 13:08:53.
