data_PCOD9570112
_publ_section_title
;
Structure prediction by ZEFSAII (Michael W. Deem and Ramdas Pophale) SiO2 
 PCOD9570112
Probable space group: P 42/N M C
;
_chemical_formula_sum "Si O2"
_cell_formula_units_Z 96
_cell_length_a 15.371982
_cell_length_b 15.371982
_cell_length_c 21.596525
_cell_angle_alpha 90.000000
_cell_angle_beta 90.000000
_cell_angle_gamma 90.000000
_cell_volume 5103.212006
_symmetry_space_group_name_H-M "P 42/N M C"
_symmetry_group_IT_number 137
_space_group.IT_coordinate_system_code '2'
_symmetry_cell_setting 'tetragonal'
loop_
_space_group_symop_operation_xyz
x,y,z
1/2-y,x,1/2+z
1/2-x,1/2-y,z
y,1/2-x,1/2+z
1/2+x,-y,-z
-x,1/2+y,-z
1/2+y,1/2+x,1/2-z
-y,-x,1/2-z
-x,-y,-z
1/2+y,-x,1/2-z
1/2+x,1/2+y,-z
-y,1/2+x,1/2-z
1/2-x,y,z
x,1/2-y,z
1/2-y,1/2-x,1/2+z
y,x,1/2+z
loop_
_atom_site_type_symbol
_atom_site_label
_atom_site_fract_x
_atom_site_fract_y
_atom_site_fract_z
Si Si1 0.527044 0.343033 0.465525
Si Si2 0.473383 0.483112 0.859209
Si Si3 0.068739 0.347280 0.166428
Si Si4 0.649923 0.068579 0.557514
Si Si5 0.610453 0.845626 0.978558
Si Si6 0.649403 0.653785 0.207016
O O1 0.540553 0.250000 0.434406
O O2 0.523584 0.421176 0.417084
O O3 0.601694 0.360050 0.515804
O O4 0.432304 0.343968 0.497605
O O5 0.511061 0.566609 0.824177
O O6 0.544956 0.416131 0.886759
O O7 0.407227 0.422397 0.821989
O O8 0.027642 0.250000 0.173757
O O9 0.100288 0.351636 0.095478
O O10 0.142541 0.351544 0.218799
O O11 0.750000 0.088551 0.574803
O O12 0.652923 0.982475 0.513815
O O13 0.648741 0.750000 0.992914
O O14 0.750000 0.645833 0.186877
O O15 0.617845 0.750000 0.188719
#
# Coordination Sequence:
#
# PCOD9570112 Si02
#       6
#    16  16  16  16  16  16
#     4  11  21  32  50  78 110 140 174 219 273 329
#     4  11  19  37  56  80 103 145 184 226 268 332
#     4  10  19  34  58  80 106 143 182 228 275 325
#     4  10  19  34  54  75 105 142 180 219 264 319
#     4   9  17  33  54  76 102 137 179 221 268 325
#     4  10  22  37  54  81 111 139 177 226 281 335
#
# _framework density 18.811682000000001
#
# number of rings (size 3 to 8) (size 9 to 14) (size 15 to 20)
#    0.000    1.833    3.333    2.500    0.000    2.000 
#    0.000    1.667    0.000    1.500    0.000    4.667 
#    0.000    1.333    0.000    0.000    0.000    0.000 
#
# Total GULP energy -535023.146681 kJ/mol
# GULP energy per Si atom -5573.157778 kJ/mol
# Density = 1.876887 g / cm^3
# Si number density = 18.811682 Si / 1000 Ang^3
#
#
#
# Elastic Constant Matrix: (Units=GPa)
#
#
# Indices 1 2 3 4 5 6 
#
# 1 93.2025 48.2642 5.0395 0.0000 0.0000 0.0000
# 2 48.2642 93.2025 5.0395 0.0000 0.0000 0.0000
# 3 5.0395 5.0395 30.3601 0.0000 0.0000 0.0000
# 4 0.0000 0.0000 0.0000 8.0433 0.0000 0.0000
# 5 0.0000 0.0000 0.0000 0.0000 8.0433 0.0000
# 6 0.0000 0.0000 0.0000 0.0000 0.0000 -4.5967
#
#
#
# Elastic Compliance Matrix: (Units=1/GPa)
#
#
# Indices 1 2 3 4 5 6 
#
# 1 0.014703 -0.007550 -0.001187 0.000000 0.000000 0.000000
# 2 -0.007550 0.014703 -0.001187 0.000000 0.000000 0.000000
# 3 -0.001187 -0.001187 0.033332 0.000000 0.000000 0.000000
# 4 0.000000 0.000000 0.000000 0.124327 0.000000 0.000000
# 5 0.000000 0.000000 0.000000 0.000000 0.124327 0.000000
# 6 0.000000 0.000000 0.000000 0.000000 0.000000 -0.217545
#
#
# Mechanical properties :
#
#
# Convention : Reuss Voigt Hill
#
# Bulk Modulus (GPa) = 23.31578 37.05016 30.18297
# Shear Modulus (GPa) = 39.06484 12.85944 25.96214
#
# Velocity S-wave (km/s) = 4.56195 2.61739 3.71901
# Velocity P-wave (km/s) = 6.33796 5.37330 5.87546
#
# Compressibility (1/GPa) = 0.04288940
#
# Stress axis : x y z
#
# Youngs Moduli (GPa) = 68.01308 68.01308 30.00102
#
# Poissons Ratio (x) = 0.51348 0.03562
# Poissons Ratio (y) = 0.51348 0.03562
# Poissons Ratio (z) = 0.08076 0.08076
#
# Static dielectric constant tensor:
#      x y z
#    x 1.662440 0.000000 0.000000 
#    y 0.000000 1.662440 0.000000 
#    z 0.000000 0.000000 1.652680 
# 
# From -- ./inp_files/7864.got.cif
#   From: 2010.05.17/outbox.cif.g08.bks.cpg/sg137_4_cif.got.tgz:7864.got - 2010.05.20 13:01:12.
