data_PCOD9570564
_publ_section_title
;
Structure prediction by ZEFSAII (Michael W. Deem and Ramdas Pophale) SiO2 
 PCOD9570564
Probable space group: P 42/N C M
;
_chemical_formula_sum "Si O2"
_cell_formula_units_Z 96
_cell_length_a 13.441498
_cell_length_b 13.441498
_cell_length_c 31.294543
_cell_angle_alpha 90.000000
_cell_angle_beta 90.000000
_cell_angle_gamma 90.000000
_cell_volume 5654.106146
_symmetry_space_group_name_H-M "P 42/N C M"
_symmetry_group_IT_number 138
_space_group.IT_coordinate_system_code '2'
_symmetry_cell_setting 'tetragonal'
loop_
_space_group_symop_operation_xyz
x,y,z
1/2-y,x,1/2+z
1/2-x,1/2-y,z
y,1/2-x,1/2+z
1/2+x,-y,1/2-z
-x,1/2+y,1/2-z
1/2+y,1/2+x,-z
-y,-x,-z
-x,-y,-z
1/2+y,-x,1/2-z
1/2+x,1/2+y,-z
-y,1/2+x,1/2-z
1/2-x,y,1/2+z
x,1/2-y,1/2+z
1/2-y,1/2-x,z
y,x,z
loop_
_atom_site_type_symbol
_atom_site_label
_atom_site_fract_x
_atom_site_fract_y
_atom_site_fract_z
Si Si1 0.752234 0.088272 0.735371
Si Si2 0.905172 0.254395 0.365465
Si Si3 0.671216 0.506871 0.958451
Si Si4 0.575553 0.264266 0.622721
Si Si5 0.748876 0.583379 0.801782
Si Si6 0.000117 0.162273 0.946838
O O1 0.657861 0.152975 0.752445
O O2 0.744845 0.069522 0.684713
O O3 0.758115 0.984800 0.759964
O O4 0.859312 0.146401 0.375081
O O5 0.823909 0.343371 0.370200
O O6 0.981351 0.277578 0.403660
O O7 0.610102 0.610102 0.952954
O O8 0.749082 0.481629 0.921748
O O9 0.587183 0.420791 0.952348
O O10 0.713439 0.501244 0.006558
O O11 0.494235 0.260520 0.659677
O O12 0.842015 0.657986 0.799830
O O13 0.651036 0.651036 0.807377
O O14 0.101425 0.101425 0.942906
#
# Coordination Sequence:
#
# PCOD9570564 Si02
#       6
#    16  16  16  16  16  16
#     4  11  19  37  56  76 106 137 174 219 264 317
#     4  10  18  29  51  75 101 136 173 215 265 318
#     4   8  14  25  43  66 102 142 167 204 265 320
#     4  10  17  32  49  73 103 134 172 214 265 314
#     4  11  24  38  52  76 106 136 178 223 259 311
#     4   8  15  26  40  70 106 133 170 213 256 319
#
# _framework density 16.978811
#
# number of rings (size 3 to 8) (size 9 to 14) (size 15 to 20)
#    0.000    2.333    3.333    2.500    0.000    2.667 
#    0.000    3.333    0.000    0.000    0.000    3.500 
#    0.000    5.333    0.000    0.000    0.000    0.000 
#
# Total GULP energy -534524.227928 kJ/mol
# GULP energy per Si atom -5567.960708 kJ/mol
# Density = 1.694017 g / cm^3
# Si number density = 16.978811 Si / 1000 Ang^3
#
#
#
# Elastic Constant Matrix: (Units=GPa)
#
#
# Indices 1 2 3 4 5 6 
#
# 1 66.3253 30.7418 50.5229 0.0000 0.0000 0.0000
# 2 30.7418 66.3253 50.5229 0.0000 0.0000 0.0000
# 3 50.5229 50.5229 201.0187 0.0000 0.0000 0.0000
# 4 0.0000 0.0000 0.0000 7.5160 0.0000 0.0000
# 5 0.0000 0.0000 0.0000 0.0000 7.5160 0.0000
# 6 0.0000 0.0000 0.0000 0.0000 0.0000 5.1675
#
#
#
# Elastic Compliance Matrix: (Units=1/GPa)
#
#
# Indices 1 2 3 4 5 6 
#
# 1 0.021028 -0.007075 -0.003507 0.000000 0.000000 0.000000
# 2 -0.007075 0.021028 -0.003507 0.000000 0.000000 0.000000
# 3 -0.003507 -0.003507 0.006737 0.000000 0.000000 0.000000
# 4 0.000000 0.000000 0.000000 0.133049 0.000000 0.000000
# 5 0.000000 0.000000 0.000000 0.000000 0.133049 0.000000
# 6 0.000000 0.000000 0.000000 0.000000 0.000000 0.193519
#
#
# Mechanical properties :
#
#
# Convention : Reuss Voigt Hill
#
# Bulk Modulus (GPa) = 48.50692 66.36049 57.43370
# Shear Modulus (GPa) = 9.20032 17.49869 13.34950
#
# Velocity S-wave (km/s) = 2.33034 3.21381 2.80705
# Velocity P-wave (km/s) = 5.98930 7.27603 6.66379
#
# Compressibility (1/GPa) = 0.02061561
#
# Stress axis : x y z
#
# Youngs Moduli (GPa) = 47.55612 47.55612 148.42499
#
# Poissons Ratio (x) = 0.33647 0.52049
# Poissons Ratio (y) = 0.33647 0.52049
# Poissons Ratio (z) = 0.16677 0.16677
#
# Static dielectric constant tensor:
#      x y z
#    x 1.562680 0.000000 0.000000 
#    y 0.000000 1.562680 0.000000 
#    z 0.000000 0.000000 1.596150 
# 
# From -- ./inp_files/8214.got.cif
#   From: 2010.05.17/outbox.cif.g08.bks.cpg/sg138_5_cif.got.tgz:8214.got - 2010.05.20 13:08:53.
