data_PCOD9570206
_publ_section_title
;
Structure prediction by ZEFSAII (Michael W. Deem and Ramdas Pophale) SiO2 
 PCOD9570206
Probable space group: P 42/N M C
;
_chemical_formula_sum "Si O2"
_cell_formula_units_Z 64
_cell_length_a 17.564473
_cell_length_b 17.564473
_cell_length_c 10.965368
_cell_angle_alpha 90.000000
_cell_angle_beta 90.000000
_cell_angle_gamma 90.000000
_cell_volume 3382.933486
_symmetry_space_group_name_H-M "P 42/N M C"
_symmetry_group_IT_number 137
_space_group.IT_coordinate_system_code '2'
_symmetry_cell_setting 'tetragonal'
loop_
_space_group_symop_operation_xyz
x,y,z
1/2-y,x,1/2+z
1/2-x,1/2-y,z
y,1/2-x,1/2+z
1/2+x,-y,-z
-x,1/2+y,-z
1/2+y,1/2+x,1/2-z
-y,-x,1/2-z
-x,-y,-z
1/2+y,-x,1/2-z
1/2+x,1/2+y,-z
-y,1/2+x,1/2-z
1/2-x,y,z
x,1/2-y,z
1/2-y,1/2-x,1/2+z
y,x,1/2+z
loop_
_atom_site_type_symbol
_atom_site_label
_atom_site_fract_x
_atom_site_fract_y
_atom_site_fract_z
Si Si1 0.659204 0.582643 0.604203
Si Si2 0.658989 0.927071 0.874554
Si Si3 0.837051 0.335782 0.104040
Si Si4 0.561391 0.441368 0.551664
O O1 0.750000 0.583664 0.586513
O O2 0.618905 0.627363 0.492419
O O3 0.642606 0.611694 0.742506
O O4 0.626365 0.496555 0.603929
O O5 0.750000 0.935506 0.884976
O O6 0.617241 0.009318 0.873143
O O7 0.837725 0.337725 0.250000
O O8 0.750000 0.348900 0.063936
O O9 0.859040 0.250000 0.065960
O O10 0.892311 0.398304 0.051868
O O11 0.500000 0.500000 0.500000
#
# Coordination Sequence:
#
# PCOD9570206 Si02
#       4
#    16  16  16  16
#     4  10  22  39  59  84 113 147 188 232 279 333
#     4  10  22  39  59  84 113 147 188 232 279 333
#     4   9  18  33  55  84 115 147 186 232 282 336
#     4  10  20  34  53  79 111 148 184 224 272 327
#
# _framework density 18.918489999999998
#
# number of rings (size 3 to 8) (size 9 to 14) (size 15 to 20)
#    0.000    2.250    0.000    3.000    0.000    9.500 
#    0.000    2.500    0.000    0.000    0.000   10.500 
#    0.000    0.000    0.000    0.000    0.000    0.000 
#
# Total GULP energy -356395.896033 kJ/mol
# GULP energy per Si atom -5568.685876 kJ/mol
# Density = 1.887543 g / cm^3
# Si number density = 18.918490 Si / 1000 Ang^3
#
#
#
# Elastic Constant Matrix: (Units=GPa)
#
#
# Indices 1 2 3 4 5 6 
#
# 1 39.2837 18.1685 8.1277 0.0000 0.0000 0.0000
# 2 18.1685 39.2837 8.1277 0.0000 0.0000 0.0000
# 3 8.1277 8.1277 72.0471 0.0000 0.0000 0.0000
# 4 0.0000 0.0000 0.0000 27.9767 0.0000 0.0000
# 5 0.0000 0.0000 0.0000 0.0000 27.9767 0.0000
# 6 0.0000 0.0000 0.0000 0.0000 0.0000 31.2402
#
#
#
# Elastic Compliance Matrix: (Units=1/GPa)
#
#
# Indices 1 2 3 4 5 6 
#
# 1 0.032670 -0.014690 -0.002028 0.000000 0.000000 0.000000
# 2 -0.014690 0.032670 -0.002028 0.000000 0.000000 0.000000
# 3 -0.002028 -0.002028 0.014337 0.000000 0.000000 0.000000
# 4 0.000000 0.000000 0.000000 0.035744 0.000000 0.000000
# 5 0.000000 0.000000 0.000000 0.000000 0.035744 0.000000
# 6 0.000000 0.000000 0.000000 0.000000 0.000000 0.032010
#
#
# Mechanical properties :
#
#
# Convention : Reuss Voigt Hill
#
# Bulk Modulus (GPa) = 23.70593 24.38471 24.04532
# Shear Modulus (GPa) = 21.30119 25.18477 23.24298
#
# Velocity S-wave (km/s) = 3.35915 3.65255 3.50892
# Velocity P-wave (km/s) = 5.25385 5.54126 5.39947
#
# Compressibility (1/GPa) = 0.04218353
#
# Stress axis : x y z
#
# Youngs Moduli (GPa) = 30.60956 30.60956 69.74741
#
# Poissons Ratio (x) = 0.44965 0.14147
# Poissons Ratio (y) = 0.44965 0.14147
# Poissons Ratio (z) = 0.06209 0.06209
#
# Static dielectric constant tensor:
#      x y z
#    x 1.646620 0.000000 0.000000 
#    y 0.000000 1.646620 0.000000 
#    z 0.000000 0.000000 1.690950 
# 
# From -- ./inp_files/3353.got.cif
#   From: 2010.05.17/outbox.cif.g08.bks.cpg/sg137_2_cif.got.tgz:3353.got - 2010.05.20 13:01:12.
