data_PCOD9570295
_publ_section_title
;
Structure prediction by ZEFSAII (Michael W. Deem and Ramdas Pophale) SiO2 
 PCOD9570295
Probable space group: P 42/N M C
;
_chemical_formula_sum "Si O2"
_cell_formula_units_Z 52
_cell_length_a 15.873063
_cell_length_b 15.873063
_cell_length_c 10.824934
_cell_angle_alpha 90.000000
_cell_angle_beta 90.000000
_cell_angle_gamma 90.000000
_cell_volume 2727.386817
_symmetry_space_group_name_H-M "P 42/N M C"
_symmetry_group_IT_number 137
_space_group.IT_coordinate_system_code '2'
_symmetry_cell_setting 'tetragonal'
loop_
_space_group_symop_operation_xyz
x,y,z
1/2-y,x,1/2+z
1/2-x,1/2-y,z
y,1/2-x,1/2+z
1/2+x,-y,-z
-x,1/2+y,-z
1/2+y,1/2+x,1/2-z
-y,-x,1/2-z
-x,-y,-z
1/2+y,-x,1/2-z
1/2+x,1/2+y,-z
-y,1/2+x,1/2-z
1/2-x,y,z
x,1/2-y,z
1/2-y,1/2-x,1/2+z
y,x,1/2+z
loop_
_atom_site_type_symbol
_atom_site_label
_atom_site_fract_x
_atom_site_fract_y
_atom_site_fract_z
Si Si1 0.750000 0.750000 0.866604
Si Si2 0.048614 0.908149 0.381621
Si Si3 0.100864 0.962253 0.632037
Si Si4 0.250000 0.431004 0.736922
Si Si5 0.438965 0.250000 0.530750
O O1 0.831881 0.750000 0.781531
O O2 0.750000 0.838498 0.941957
O O3 0.095216 0.904785 0.250000
O O4 0.109862 0.919051 0.499225
O O5 0.985792 0.830990 0.410679
O O6 0.989775 0.991513 0.374708
O O7 0.099039 0.900962 0.750000
O O8 0.170027 0.030671 0.666490
O O9 0.250000 0.451972 0.882418
#
# Coordination Sequence:
#
# PCOD9570295 Si02
#       5
#     4  16  16   8   8
#     4  12  26  36  56 106 132 166 192 248 346 374
#     4  10  22  38  62  89 121 166 215 251 304 374
#     4  10  20  38  61  88 119 168 214 247 301 374
#     4  12  23  40  64  89 135 164 206 262 311 387
#     4  12  23  42  62  91 137 162 200 268 313 377
#
# _framework density 19.065868999999999
#
# number of rings (size 3 to 8) (size 9 to 14) (size 15 to 20)
#    0.000    1.231    6.154    0.462    0.000    1.231 
#    5.538    0.000    0.000    5.538    0.000    0.000 
#    0.000    0.000    0.000    0.000    0.000    0.000 
#
# Total GULP energy -289837.915084 kJ/mol
# GULP energy per Si atom -5573.806059 kJ/mol
# Density = 1.902247 g / cm^3
# Si number density = 19.065869 Si / 1000 Ang^3
#
#
#
# Elastic Constant Matrix: (Units=GPa)
#
#
# Indices 1 2 3 4 5 6 
#
# 1 51.8347 18.0765 52.2141 0.0000 0.0000 0.0000
# 2 18.0765 51.8369 52.2150 0.0000 0.0000 0.0000
# 3 52.2141 52.2150 213.8558 0.0000 0.0000 0.0000
# 4 0.0000 0.0000 0.0000 17.1499 0.0000 0.0000
# 5 0.0000 0.0000 0.0000 0.0000 17.1503 0.0000
# 6 0.0000 0.0000 0.0000 0.0000 0.0000 40.2194
#
#
#
# Elastic Compliance Matrix: (Units=1/GPa)
#
#
# Indices 1 2 3 4 5 6 
#
# 1 0.026069 -0.003553 -0.005497 0.000000 0.000000 0.000000
# 2 -0.003553 0.026068 -0.005497 0.000000 0.000000 0.000000
# 3 -0.005497 -0.005497 0.007360 0.000000 0.000000 0.000000
# 4 0.000000 0.000000 0.000000 0.058309 0.000000 0.000000
# 5 0.000000 0.000000 0.000000 0.000000 0.058308 0.000000
# 6 0.000000 0.000000 0.000000 0.000000 0.000000 0.024864
#
#
# Mechanical properties :
#
#
# Convention : Reuss Voigt Hill
#
# Bulk Modulus (GPa) = 32.89321 62.50426 47.69874
# Shear Modulus (GPa) = 20.81538 27.90537 24.36038
#
# Velocity S-wave (km/s) = 3.30777 3.82989 3.57836
# Velocity P-wave (km/s) = 5.64609 7.23961 6.49193
#
# Compressibility (1/GPa) = 0.03040141
#
# Stress axis : x y z
#
# Youngs Moduli (GPa) = 38.36009 38.36191 135.86221
#
# Poissons Ratio (x) = 0.13631 0.74687
# Poissons Ratio (y) = 0.13630 0.74685
# Poissons Ratio (z) = 0.21088 0.21088
#
# Static dielectric constant tensor:
#      x y z
#    x 1.669480 0.000000 0.000000 
#    y 0.000000 1.669480 0.000000 
#    z 0.000000 0.000000 1.718430 
# 
# From -- ./inp_files/1422.got.cif
#   From: 2010.05.17/outbox.cif.g08.bks.cpg/sg137_1_cif.got.tgz:1422.got - 2010.05.20 13:01:12.
