data_PCOD9570006
_publ_section_title
;
Structure prediction by ZEFSAII (Michael W. Deem and Ramdas Pophale) SiO2 
 PCOD9570006
Probable space group: P 42/N M C
;
_chemical_formula_sum "Si O2"
_cell_formula_units_Z 128
_cell_length_a 20.348642
_cell_length_b 20.348642
_cell_length_c 18.649654
_cell_angle_alpha 90.000000
_cell_angle_beta 90.000000
_cell_angle_gamma 90.000000
_cell_volume 7722.210595
_symmetry_space_group_name_H-M "P 42/N M C"
_symmetry_group_IT_number 137
_space_group.IT_coordinate_system_code '2'
_symmetry_cell_setting 'tetragonal'
loop_
_space_group_symop_operation_xyz
x,y,z
1/2-y,x,1/2+z
1/2-x,1/2-y,z
y,1/2-x,1/2+z
1/2+x,-y,-z
-x,1/2+y,-z
1/2+y,1/2+x,1/2-z
-y,-x,1/2-z
-x,-y,-z
1/2+y,-x,1/2-z
1/2+x,1/2+y,-z
-y,1/2+x,1/2-z
1/2-x,y,z
x,1/2-y,z
1/2-y,1/2-x,1/2+z
y,x,1/2+z
loop_
_atom_site_type_symbol
_atom_site_label
_atom_site_fract_x
_atom_site_fract_y
_atom_site_fract_z
Si Si1 0.951341 0.822995 0.714720
Si Si2 0.045792 0.466150 0.691503
Si Si3 0.178540 0.050176 0.169460
Si Si4 0.114795 0.322987 0.825579
Si Si5 0.127418 0.177623 0.525845
Si Si6 0.675983 0.488972 0.059741
Si Si7 0.175241 0.456194 0.467485
Si Si8 0.439604 0.964881 0.540175
O O1 0.960289 0.750000 0.745666
O O2 0.959480 0.882715 0.770134
O O3 0.877958 0.830314 0.682351
O O4 0.997498 0.830174 0.644953
O O5 0.019185 0.394215 0.666864
O O6 0.054561 0.511588 0.622308
O O7 0.998158 0.498158 0.750000
O O8 0.250000 0.015744 0.156972
O O9 0.181235 0.079847 0.248891
O O10 0.175820 0.106552 0.108975
O O11 0.138575 0.250000 0.845437
O O12 0.062069 0.343937 0.885707
O O13 0.155546 0.250000 0.509772
O O14 0.169613 0.114545 0.506546
O O15 0.059035 0.171355 0.481437
O O16 0.750000 0.463556 0.045692
O O17 0.613611 0.446828 0.035637
O O18 0.250000 0.479553 0.468563
O O19 0.125779 0.506058 0.504621
O O20 0.500000 0.000000 0.500000
#
# Coordination Sequence:
#
# PCOD9570006 Si02
#       8
#    16  16  16  16  16  16  16  16
#     4  10  19  32  50  74 105 138 171 219 270 320
#     4  11  21  33  52  79 103 134 177 224 266 319
#     4   9  18  33  50  69 100 138 171 210 259 314
#     4   9  18  32  48  70 102 140 177 209 252 318
#     4  10  18  33  52  75 105 139 174 212 261 322
#     4  10  19  33  54  77 102 135 181 224 269 326
#     4  11  22  34  50  78 110 141 178 226 273 320
#     4  12  21  36  57  79 105 144 182 227 278 324
#
# _framework density 16.575564
#
# number of rings (size 3 to 8) (size 9 to 14) (size 15 to 20)
#    0.000    1.750    5.000    0.000    1.750    1.000 
#    0.000    1.250    0.000    2.625    0.000    0.000 
#    0.000    0.500    0.000    0.000    0.000   13.375 
#
# Total GULP energy -713077.625315 kJ/mol
# GULP energy per Si atom -5570.918948 kJ/mol
# Density = 1.653784 g / cm^3
# Si number density = 16.575564 Si / 1000 Ang^3
#
#
#
# Elastic Constant Matrix: (Units=GPa)
#
#
# Indices 1 2 3 4 5 6 
#
# 1 82.7034 30.3295 11.2667 0.0000 0.0000 0.0000
# 2 30.3295 82.7034 11.2667 0.0000 0.0000 0.0000
# 3 11.2667 11.2667 75.9568 0.0000 0.0000 0.0000
# 4 0.0000 0.0000 0.0000 -1.8241 0.0000 0.0000
# 5 0.0000 0.0000 0.0000 0.0000 -1.8241 0.0000
# 6 0.0000 0.0000 0.0000 0.0000 0.0000 18.8295
#
#
#
# Elastic Compliance Matrix: (Units=1/GPa)
#
#
# Indices 1 2 3 4 5 6 
#
# 1 0.014105 -0.004988 -0.001352 0.000000 0.000000 0.000000
# 2 -0.004988 0.014105 -0.001352 0.000000 0.000000 0.000000
# 3 -0.001352 -0.001352 0.013567 0.000000 0.000000 0.000000
# 4 0.000000 0.000000 0.000000 -0.548225 0.000000 0.000000
# 5 0.000000 0.000000 0.000000 0.000000 -0.548225 0.000000
# 6 0.000000 0.000000 0.000000 0.000000 0.000000 0.053108
#
#
# Mechanical properties :
#
#
# Convention : Reuss Voigt Hill
#
# Bulk Modulus (GPa) = 37.89225 38.56548 38.22887
# Shear Modulus (GPa) = -5.11571 15.60299 5.24364
#
# Velocity S-wave (km/s) = -1.75869 3.07143 1.78055
# Velocity P-wave (km/s) = 4.33428 5.99126 5.22882
#
# Compressibility (1/GPa) = 0.02639062
#
# Stress axis : x y z
#
# Youngs Moduli (GPa) = 70.89668 70.89668 73.71079
#
# Poissons Ratio (x) = 0.35367 0.09968
# Poissons Ratio (y) = 0.35367 0.09968
# Poissons Ratio (z) = 0.09587 0.09587
#
# Static dielectric constant tensor:
#      x y z
#    x 1.571120 0.000000 0.000000 
#    y 0.000000 1.571120 0.000000 
#    z 0.000000 0.000000 1.585490 
# 
# From -- ./inp_files/6845.got.cif
#   From: 2010.05.17/outbox.cif.g08.bks.cpg/sg137_4_cif.got.tgz:6845.got - 2010.05.20 13:01:12.
