data_PCOD9570396
_publ_section_title
;
Structure prediction by ZEFSAII (Michael W. Deem and Ramdas Pophale) SiO2 
 PCOD9570396
Probable space group: P 42/N M C
;
_chemical_formula_sum "Si O2"
_cell_formula_units_Z 64
_cell_length_a 15.820083
_cell_length_b 15.820083
_cell_length_c 13.758551
_cell_angle_alpha 90.000000
_cell_angle_beta 90.000000
_cell_angle_gamma 90.000000
_cell_volume 3443.421711
_symmetry_space_group_name_H-M "P 42/N M C"
_symmetry_group_IT_number 137
_space_group.IT_coordinate_system_code '2'
_symmetry_cell_setting 'tetragonal'
loop_
_space_group_symop_operation_xyz
x,y,z
1/2-y,x,1/2+z
1/2-x,1/2-y,z
y,1/2-x,1/2+z
1/2+x,-y,-z
-x,1/2+y,-z
1/2+y,1/2+x,1/2-z
-y,-x,1/2-z
-x,-y,-z
1/2+y,-x,1/2-z
1/2+x,1/2+y,-z
-y,1/2+x,1/2-z
1/2-x,y,z
x,1/2-y,z
1/2-y,1/2-x,1/2+z
y,x,1/2+z
loop_
_atom_site_type_symbol
_atom_site_label
_atom_site_fract_x
_atom_site_fract_y
_atom_site_fract_z
Si Si1 0.054077 0.436229 0.816140
Si Si2 0.998113 0.651046 0.990130
Si Si3 0.850457 0.844835 0.344428
Si Si4 0.599809 0.346281 0.356529
O O1 0.095637 0.363012 0.751690
O O2 0.128694 0.501719 0.842914
O O3 0.988992 0.488992 0.750000
O O4 0.009415 0.403011 0.912583
O O5 0.991264 0.750000 0.013674
O O6 0.918828 0.628670 0.920623
O O7 0.083824 0.635735 0.930100
O O8 0.750000 0.851928 0.323644
O O9 0.866266 0.750000 0.381562
O O10 0.641015 0.358985 0.250000
O O11 0.611142 0.250000 0.388296
#
# Coordination Sequence:
#
# PCOD9570396 Si02
#       4
#    16  16  16  16
#     4  11  22  39  60  87 124 160 204 251 304 366
#     4  11  23  41  60  89 124 159 206 254 306 370
#     4  10  21  38  61  90 123 160 203 252 307 365
#     4  11  22  38  64  92 123 160 204 255 308 363
#
# _framework density 18.586164
#
# number of rings (size 3 to 8) (size 9 to 14) (size 15 to 20)
#    0.000    1.250    5.000    3.000    0.000    3.750 
#    0.000    3.750    0.000    0.000    0.000    0.000 
#    0.000    0.000    0.000    0.000    0.000    0.000 
#
# Total GULP energy -357569.029554 kJ/mol
# GULP energy per Si atom -5587.016087 kJ/mol
# Density = 1.854386 g / cm^3
# Si number density = 18.586164 Si / 1000 Ang^3
#
#
#
# Elastic Constant Matrix: (Units=GPa)
#
#
# Indices 1 2 3 4 5 6 
#
# 1 114.5916 27.9555 49.6846 0.0000 0.0000 0.0000
# 2 27.9555 114.5916 49.6846 0.0000 0.0000 0.0000
# 3 49.6846 49.6846 104.4063 0.0000 0.0000 0.0000
# 4 0.0000 0.0000 0.0000 6.5327 0.0000 0.0000
# 5 0.0000 0.0000 0.0000 0.0000 6.5327 0.0000
# 6 0.0000 0.0000 0.0000 0.0000 0.0000 15.4996
#
#
#
# Elastic Compliance Matrix: (Units=1/GPa)
#
#
# Indices 1 2 3 4 5 6 
#
# 1 0.011020 -0.000522 -0.004996 0.000000 0.000000 0.000000
# 2 -0.000522 0.011020 -0.004996 0.000000 0.000000 0.000000
# 3 -0.004996 -0.004996 0.014333 0.000000 0.000000 0.000000
# 4 0.000000 0.000000 0.000000 0.153076 0.000000 0.000000
# 5 0.000000 0.000000 0.000000 0.000000 0.153076 0.000000
# 6 0.000000 0.000000 0.000000 0.000000 0.000000 0.064518
#
#
# Mechanical properties :
#
#
# Convention : Reuss Voigt Hill
#
# Bulk Modulus (GPa) = 65.16585 65.35988 65.26287
# Shear Modulus (GPa) = 11.54241 19.46399 15.50320
#
# Velocity S-wave (km/s) = 2.49473 3.23960 2.89126
# Velocity P-wave (km/s) = 6.59059 7.01681 6.80704
#
# Compressibility (1/GPa) = 0.01534546
#
# Stress axis : x y z
#
# Youngs Moduli (GPa) = 90.74346 90.74346 69.77132
#
# Poissons Ratio (x) = 0.04741 0.34855
# Poissons Ratio (y) = 0.04741 0.34855
# Poissons Ratio (z) = 0.45332 0.45332
#
# Static dielectric constant tensor:
#      x y z
#    x 1.645040 0.000000 0.000000 
#    y 0.000000 1.645040 0.000000 
#    z 0.000000 0.000000 1.622170 
# 
# From -- ./inp_files/4707.got.cif
#   From: 2010.05.17/outbox.cif.g08.bks.cpg/sg137_3_cif.got.tgz:4707.got - 2010.05.20 13:01:12.
