data_PCOD9570904
_publ_section_title
;
Structure prediction by ZEFSAII (Michael W. Deem and Ramdas Pophale) SiO2 
 PCOD9570904
Probable space group: P 42/N C M
;
_chemical_formula_sum "Si O2"
_cell_formula_units_Z 80
_cell_length_a 12.122008
_cell_length_b 12.122008
_cell_length_c 28.941105
_cell_angle_alpha 90.000000
_cell_angle_beta 90.000000
_cell_angle_gamma 90.000000
_cell_volume 4252.695048
_symmetry_space_group_name_H-M "P 42/N C M"
_symmetry_group_IT_number 138
_space_group.IT_coordinate_system_code '2'
_symmetry_cell_setting 'tetragonal'
loop_
_space_group_symop_operation_xyz
x,y,z
1/2-y,x,1/2+z
1/2-x,1/2-y,z
y,1/2-x,1/2+z
1/2+x,-y,1/2-z
-x,1/2+y,1/2-z
1/2+y,1/2+x,-z
-y,-x,-z
-x,-y,-z
1/2+y,-x,1/2-z
1/2+x,1/2+y,-z
-y,1/2+x,1/2-z
1/2-x,y,1/2+z
x,1/2-y,1/2+z
1/2-y,1/2-x,z
y,x,z
loop_
_atom_site_type_symbol
_atom_site_label
_atom_site_fract_x
_atom_site_fract_y
_atom_site_fract_z
Si Si1 0.064284 0.733795 0.179992
Si Si2 0.970516 0.529485 0.052735
Si Si3 0.157968 0.342033 0.870797
Si Si4 0.640998 0.308629 0.593162
Si Si5 0.746881 0.567539 0.360853
Si Si6 0.642287 0.458555 0.780346
O O1 0.146349 0.683265 0.142515
O O2 0.079728 0.680515 0.230241
O O3 0.092526 0.861033 0.188671
O O4 0.943789 0.707817 0.159029
O O5 0.886186 0.613815 0.079424
O O6 0.914441 0.413979 0.068835
O O7 0.000000 0.500000 0.000000
O O8 0.250000 0.250000 0.877259
O O9 0.750000 0.250000 0.571943
O O10 0.534135 0.234721 0.604423
O O11 0.840559 0.659442 0.367125
O O12 0.629275 0.629275 0.366687
O O13 0.761379 0.519015 0.309351
O O14 0.548290 0.548290 0.772984
#
# Coordination Sequence:
#
# PCOD9570904 Si02
#       6
#    16   8   8  16  16  16
#     4  11  22  34  55  82 121 172 215 256 306 364
#     4  10  24  44  68  96 122 154 204 274 342 421
#     4  10  22  42  62  88 124 166 212 264 333 396
#     4  11  21  39  64  89 120 163 205 256 327 397
#     4  10  21  37  57  85 121 164 213 263 310 362
#     4  11  22  34  51  84 122 167 219 267 298 355
#
# _framework density 18.811602000000001
#
# number of rings (size 3 to 8) (size 9 to 14) (size 15 to 20)
#    0.000    1.400    4.000    1.800    0.000    3.600 
#    0.000    1.000    0.000    0.000    0.000    4.200 
#    0.000    0.000    0.000    0.000    0.000    0.000 
#
# Total GULP energy -445708.752005 kJ/mol
# GULP energy per Si atom -5571.359400 kJ/mol
# Density = 1.876879 g / cm^3
# Si number density = 18.811602 Si / 1000 Ang^3
#
#
#
# Elastic Constant Matrix: (Units=GPa)
#
#
# Indices 1 2 3 4 5 6 
#
# 1 104.0324 41.1041 38.5725 0.0000 0.0000 0.0000
# 2 41.1041 104.0324 38.5725 0.0000 0.0000 0.0000
# 3 38.5725 38.5725 69.2933 0.0000 0.0000 0.0000
# 4 0.0000 0.0000 0.0000 10.6436 0.0000 0.0000
# 5 0.0000 0.0000 0.0000 0.0000 10.6436 0.0000
# 6 0.0000 0.0000 0.0000 0.0000 0.0000 35.9067
#
#
#
# Elastic Compliance Matrix: (Units=1/GPa)
#
#
# Indices 1 2 3 4 5 6 
#
# 1 0.012838 -0.003053 -0.005447 0.000000 0.000000 0.000000
# 2 -0.003053 0.012838 -0.005447 0.000000 0.000000 0.000000
# 3 -0.005447 -0.005447 0.020496 0.000000 0.000000 0.000000
# 4 0.000000 0.000000 0.000000 0.093953 0.000000 0.000000
# 5 0.000000 0.000000 0.000000 0.000000 0.093953 0.000000
# 6 0.000000 0.000000 0.000000 0.000000 0.000000 0.027850
#
#
# Mechanical properties :
#
#
# Convention : Reuss Voigt Hill
#
# Bulk Modulus (GPa) = 54.71017 57.09511 55.90264
# Shear Modulus (GPa) = 16.89675 22.04604 19.47140
#
# Velocity S-wave (km/s) = 3.00026 3.42707 3.22075
# Velocity P-wave (km/s) = 6.41471 6.78798 6.60398
#
# Compressibility (1/GPa) = 0.01827814
#
# Stress axis : x y z
#
# Youngs Moduli (GPa) = 77.89227 77.89227 48.79070
#
# Poissons Ratio (x) = 0.23780 0.26577
# Poissons Ratio (y) = 0.23780 0.26577
# Poissons Ratio (z) = 0.42429 0.42429
#
# Static dielectric constant tensor:
#      x y z
#    x 1.691160 0.000000 0.000000 
#    y 0.000000 1.691160 0.000000 
#    z 0.000000 0.000000 1.684150 
# 
# From -- ./inp_files/7938.got.cif
#   From: 2010.05.17/outbox.cif.g08.bks.cpg/sg138_4_cif.got.tgz:7938.got - 2010.05.20 13:08:53.
