data_PCOD9570170
_publ_section_title
;
Structure prediction by ZEFSAII (Michael W. Deem and Ramdas Pophale) SiO2 
 PCOD9570170
Probable space group: P 42/N M C
;
_chemical_formula_sum "Si O2"
_cell_formula_units_Z 112
_cell_length_a 14.592560
_cell_length_b 14.592560
_cell_length_c 27.557291
_cell_angle_alpha 90.000000
_cell_angle_beta 90.000000
_cell_angle_gamma 90.000000
_cell_volume 5868.126909
_symmetry_space_group_name_H-M "P 42/N M C"
_symmetry_group_IT_number 137
_space_group.IT_coordinate_system_code '2'
_symmetry_cell_setting 'tetragonal'
loop_
_space_group_symop_operation_xyz
x,y,z
1/2-y,x,1/2+z
1/2-x,1/2-y,z
y,1/2-x,1/2+z
1/2+x,-y,-z
-x,1/2+y,-z
1/2+y,1/2+x,1/2-z
-y,-x,1/2-z
-x,-y,-z
1/2+y,-x,1/2-z
1/2+x,1/2+y,-z
-y,1/2+x,1/2-z
1/2-x,y,z
x,1/2-y,z
1/2-y,1/2-x,1/2+z
y,x,1/2+z
loop_
_atom_site_type_symbol
_atom_site_label
_atom_site_fract_x
_atom_site_fract_y
_atom_site_fract_z
Si Si1 0.142188 0.649575 0.008552
Si Si2 0.147533 0.142404 0.553788
Si Si3 0.463311 0.862135 0.397791
Si Si4 0.972009 0.914031 0.533808
Si Si5 0.647057 0.860990 0.235518
Si Si6 0.142072 0.139613 0.377610
Si Si7 0.466752 0.860181 0.289314
O O1 0.250000 0.660057 0.014896
O O2 0.101165 0.750000 0.998960
O O3 0.109617 0.607590 0.060198
O O4 0.132716 0.571846 0.967560
O O5 0.250000 0.103187 0.557666
O O6 0.154539 0.250000 0.565049
O O7 0.105067 0.134159 0.499964
O O8 0.065921 0.105561 0.587890
O O9 0.465160 0.750000 0.399087
O O10 0.441575 0.890906 0.343453
O O11 0.926375 0.913035 0.586367
O O12 0.000000 0.000000 0.500000
O O13 0.750000 0.894312 0.246523
O O14 0.649938 0.750000 0.238547
O O15 0.624456 0.880629 0.179164
O O16 0.567405 0.892062 0.271686
O O17 0.250000 0.115957 0.385398
O O18 0.133731 0.250000 0.386183
O O19 0.396130 0.896130 0.250000
O O20 0.467490 0.750000 0.289511
#
# Coordination Sequence:
#
# PCOD9570170 Si02
#       7
#    16  16  16  16  16  16  16
#     4   9  18  33  49  62  84 123 166 200 226 265
#     4   9  17  31  50  68  87 114 150 192 235 279
#     4   8  16  30  46  66  88 115 154 192 231 277
#     4  11  21  29  42  68  99 126 153 188 233 285
#     4   8  16  31  50  72  95 121 159 208 260 306
#     4   9  17  32  54  74  92 120 160 206 255 301
#     4  10  20  32  47  69  99 132 164 199 238 291
#
# _framework density 19.086158000000001
#
# number of rings (size 3 to 8) (size 9 to 14) (size 15 to 20)
#    0.000    2.857    0.000    3.429    0.000    5.857 
#    0.000    5.714    0.000    0.000    0.000    0.000 
#    0.000    1.429    0.000    0.000    0.000    0.000 
#
# Total GULP energy -623492.522620 kJ/mol
# GULP energy per Si atom -5566.897523 kJ/mol
# Density = 1.904272 g / cm^3
# Si number density = 19.086158 Si / 1000 Ang^3
#
#
#
# Elastic Constant Matrix: (Units=GPa)
#
#
# Indices 1 2 3 4 5 6 
#
# 1 58.7927 1.5875 2.4825 0.0000 0.0000 0.0000
# 2 1.5875 58.7927 2.4825 0.0000 0.0000 0.0000
# 3 2.4825 2.4825 49.7518 0.0000 0.0000 0.0000
# 4 0.0000 0.0000 0.0000 0.3213 0.0000 0.0000
# 5 0.0000 0.0000 0.0000 0.0000 0.3213 0.0000
# 6 0.0000 0.0000 0.0000 0.0000 0.0000 7.4294
#
#
#
# Elastic Compliance Matrix: (Units=1/GPa)
#
#
# Indices 1 2 3 4 5 6 
#
# 1 0.017055 -0.000425 -0.000830 0.000000 0.000000 0.000000
# 2 -0.000425 0.017055 -0.000830 0.000000 0.000000 0.000000
# 3 -0.000830 -0.000830 0.020183 0.000000 0.000000 0.000000
# 4 0.000000 0.000000 0.000000 3.112162 0.000000 0.000000
# 5 0.000000 0.000000 0.000000 0.000000 3.112162 0.000000
# 6 0.000000 0.000000 0.000000 0.000000 0.000000 0.134600
#
#
# Mechanical properties :
#
#
# Convention : Reuss Voigt Hill
#
# Bulk Modulus (GPa) = 19.95079 20.04913 19.99996
# Shear Modulus (GPa) = 0.77711 12.33339 6.55525
#
# Velocity S-wave (km/s) = 0.63878 2.54480 1.85527
# Velocity P-wave (km/s) = 3.31960 4.37744 3.88470
#
# Compressibility (1/GPa) = 0.05012332
#
# Stress axis : x y z
#
# Youngs Moduli (GPa) = 58.63231 58.63231 49.54761
#
# Poissons Ratio (x) = 0.02495 0.04111
# Poissons Ratio (y) = 0.02495 0.04111
# Poissons Ratio (z) = 0.04865 0.04865
#
# Static dielectric constant tensor:
#      x y z
#    x 1.683380 0.000000 0.000000 
#    y 0.000000 1.683380 0.000000 
#    z 0.000000 0.000000 1.659280 
# 
# From -- ./inp_files/9850.got.cif
#   From: 2010.05.17/outbox.cif.g08.bks.cpg/sg137_5_cif.got.tgz:9850.got - 2010.05.20 13:01:12.
