data_PCOD9570482
_publ_section_title
;
Structure prediction by ZEFSAII (Michael W. Deem and Ramdas Pophale) SiO2 
 PCOD9570482
Probable space group: P 42/N M C
;
_chemical_formula_sum "Si O2"
_cell_formula_units_Z 42
_cell_length_a 9.287174
_cell_length_b 9.287174
_cell_length_c 20.717717
_cell_angle_alpha 90.000000
_cell_angle_beta 90.000000
_cell_angle_gamma 90.000000
_cell_volume 1786.936258
_symmetry_space_group_name_H-M "P 42/N M C"
_symmetry_group_IT_number 137
_space_group.IT_coordinate_system_code '2'
_symmetry_cell_setting 'tetragonal'
loop_
_space_group_symop_operation_xyz
x,y,z
1/2-y,x,1/2+z
1/2-x,1/2-y,z
y,1/2-x,1/2+z
1/2+x,-y,-z
-x,1/2+y,-z
1/2+y,1/2+x,1/2-z
-y,-x,1/2-z
-x,-y,-z
1/2+y,-x,1/2-z
1/2+x,1/2+y,-z
-y,1/2+x,1/2-z
1/2-x,y,z
x,1/2-y,z
1/2-y,1/2-x,1/2+z
y,x,1/2+z
loop_
_atom_site_type_symbol
_atom_site_label
_atom_site_fract_x
_atom_site_fract_y
_atom_site_fract_z
Si Si1 0.575321 0.750000 0.962818
Si Si2 0.080933 0.250000 0.254185
Si Si3 0.482210 0.415969 0.641525
Si Si4 0.750000 0.250000 0.250000
Si Si5 0.418190 0.250000 0.891598
O O1 0.750000 0.750000 0.961991
O O2 0.535620 0.611844 0.920212
O O3 0.517221 0.750000 0.035255
O O4 0.250000 0.250000 0.280595
O O5 0.081389 0.384223 0.204426
O O6 0.913387 0.250000 0.283010
O O7 0.530308 0.250000 0.631807
O O8 0.612383 0.524884 0.645779
O O9 0.250000 0.250000 0.904294
#
# Coordination Sequence:
#
# PCOD9570482 Si02
#       5
#     8   8  16   2   8
#     4   8  16  31  49  73 111 155 203 243 283 341
#     4   9  22  44  65  91 114 151 197 244 307 380
#     4   9  18  36  56  73 113 157 192 242 299 351
#     4  12  24  44  80  92 124 160 200 252 340 372
#     4  11  20  27  47  87 117 153 201 243 278 349
#
# _framework density 23.503917999999999
#
# number of rings (size 3 to 8) (size 9 to 14) (size 15 to 20)
#    0.000    2.667    0.000    4.000    2.667    0.000 
#    3.429    1.905    0.000    0.000    0.000    0.000 
#    0.000    0.000    0.000    0.000    0.000    0.000 
#
# Total GULP energy -234390.835968 kJ/mol
# GULP energy per Si atom -5580.734190 kJ/mol
# Density = 2.345042 g / cm^3
# Si number density = 23.503918 Si / 1000 Ang^3
#
#
#
# Elastic Constant Matrix: (Units=GPa)
#
#
# Indices 1 2 3 4 5 6 
#
# 1 153.4181 58.3065 11.6341 0.0000 0.0000 0.0000
# 2 58.3065 153.4181 11.6341 0.0000 0.0000 0.0000
# 3 11.6341 11.6341 90.9514 0.0000 0.0000 0.0000
# 4 0.0000 0.0000 0.0000 18.7849 0.0000 0.0000
# 5 0.0000 0.0000 0.0000 0.0000 18.7849 0.0000
# 6 0.0000 0.0000 0.0000 0.0000 0.0000 45.9727
#
#
#
# Elastic Compliance Matrix: (Units=1/GPa)
#
#
# Indices 1 2 3 4 5 6 
#
# 1 0.007652 -0.002862 -0.000613 0.000000 0.000000 0.000000
# 2 -0.002862 0.007652 -0.000613 0.000000 0.000000 0.000000
# 3 -0.000613 -0.000613 0.011152 0.000000 0.000000 0.000000
# 4 0.000000 0.000000 0.000000 0.053234 0.000000 0.000000
# 5 0.000000 0.000000 0.000000 0.000000 0.053234 0.000000
# 6 0.000000 0.000000 0.000000 0.000000 0.000000 0.021752
#
#
# Mechanical properties :
#
#
# Convention : Reuss Voigt Hill
#
# Bulk Modulus (GPa) = 54.70020 62.32635 58.51327
# Shear Modulus (GPa) = 29.59538 37.78934 33.69236
#
# Velocity S-wave (km/s) = 3.55233 4.01407 3.79024
# Velocity P-wave (km/s) = 6.33630 6.93244 6.64106
#
# Compressibility (1/GPa) = 0.01828147
#
# Stress axis : x y z
#
# Youngs Moduli (GPa) = 130.68120 130.68120 89.67282
#
# Poissons Ratio (x) = 0.37398 0.05495
# Poissons Ratio (y) = 0.37398 0.05495
# Poissons Ratio (z) = 0.08008 0.08008
#
# Static dielectric constant tensor:
#      x y z
#    x 1.966320 0.000000 0.000000 
#    y 0.000000 1.966320 0.000000 
#    z 0.000000 0.000000 1.903350 
# 
# From -- ./inp_files/9345.got.cif
#   From: 2010.05.17/outbox.cif.g08.bks.cpg/sg137_5_cif.got.tgz:9345.got - 2010.05.20 13:01:12.
