data_PCOD9570916
_publ_section_title
;
Structure prediction by ZEFSAII (Michael W. Deem and Ramdas Pophale) SiO2 
 PCOD9570916
Probable space group: P 42/N C M
;
_chemical_formula_sum "Si O2"
_cell_formula_units_Z 88
_cell_length_a 14.748814
_cell_length_b 14.748814
_cell_length_c 18.839971
_cell_angle_alpha 90.000000
_cell_angle_beta 90.000000
_cell_angle_gamma 90.000000
_cell_volume 4098.212063
_symmetry_space_group_name_H-M "P 42/N C M"
_symmetry_group_IT_number 138
_space_group.IT_coordinate_system_code '2'
_symmetry_cell_setting 'tetragonal'
loop_
_space_group_symop_operation_xyz
x,y,z
1/2-y,x,1/2+z
1/2-x,1/2-y,z
y,1/2-x,1/2+z
1/2+x,-y,1/2-z
-x,1/2+y,1/2-z
1/2+y,1/2+x,-z
-y,-x,-z
-x,-y,-z
1/2+y,-x,1/2-z
1/2+x,1/2+y,-z
-y,1/2+x,1/2-z
1/2-x,y,1/2+z
x,1/2-y,1/2+z
1/2-y,1/2-x,z
y,x,z
loop_
_atom_site_type_symbol
_atom_site_label
_atom_site_fract_x
_atom_site_fract_y
_atom_site_fract_z
Si Si1 0.139031 0.609147 0.173202
Si Si2 0.465027 0.319412 0.960820
Si Si3 0.475883 0.714003 0.185751
Si Si4 0.322514 0.322514 0.484540
Si Si5 0.622988 0.258009 0.540708
Si Si6 0.826131 0.673870 0.747135
Si Si7 0.088150 0.411851 0.117689
O O1 0.062383 0.685384 0.174638
O O2 0.168631 0.584216 0.252690
O O3 0.222416 0.640825 0.122977
O O4 0.106936 0.516608 0.135378
O O5 0.408773 0.408773 0.978852
O O6 0.525879 0.333700 0.891158
O O7 0.392311 0.240579 0.942390
O O8 0.523724 0.279822 0.024852
O O9 0.579397 0.705937 0.212162
O O10 0.250000 0.250000 0.517397
O O11 0.379716 0.379716 0.540981
O O12 0.686642 0.186642 0.500000
O O13 0.647955 0.352046 0.500000
O O14 0.750000 0.750000 0.742077
O O15 0.852392 0.647609 0.827432
#
# Coordination Sequence:
#
# PCOD9570916 Si02
#       7
#    16  16  16   8  16   8   8
#     4  11  25  43  68 102 135 183 227 283 346 402
#     4  11  23  42  67  98 136 173 220 280 338 406
#     4  11  25  42  66 100 138 176 226 281 342 413
#     4  10  21  37  71 100 135 181 225 273 345 404
#     4  11  24  43  67  97 131 176 229 280 337 403
#     4  10  23  42  65  93 136 180 224 280 350 409
#     4  10  21  43  64  98 136 168 233 288 333 405
#
# _framework density 21.472778000000002
#
# number of rings (size 3 to 8) (size 9 to 14) (size 15 to 20)
#    0.000    1.273    4.545    0.273    5.091    0.727 
#    0.000    1.818    0.000    0.000    0.000    0.000 
#    0.000    0.000    0.000    0.000    0.000    0.000 
#
# Total GULP energy -491503.192404 kJ/mol
# GULP energy per Si atom -5585.263550 kJ/mol
# Density = 2.142390 g / cm^3
# Si number density = 21.472778 Si / 1000 Ang^3
#
#
#
# Elastic Constant Matrix: (Units=GPa)
#
#
# Indices 1 2 3 4 5 6 
#
# 1 95.2982 60.0048 32.5841 0.0000 0.0000 0.0000
# 2 60.0048 95.2973 32.5841 0.0000 0.0000 0.0000
# 3 32.5841 32.5841 90.1683 0.0000 0.0000 0.0000
# 4 0.0000 0.0000 0.0000 26.9975 0.0000 0.0000
# 5 0.0000 0.0000 0.0000 0.0000 26.9975 0.0000
# 6 0.0000 0.0000 0.0000 0.0000 0.0000 50.1290
#
#
#
# Elastic Compliance Matrix: (Units=1/GPa)
#
#
# Indices 1 2 3 4 5 6 
#
# 1 0.017962 -0.010372 -0.002743 0.000000 0.000000 0.000000
# 2 -0.010372 0.017962 -0.002743 0.000000 0.000000 0.000000
# 3 -0.002743 -0.002743 0.013073 0.000000 0.000000 0.000000
# 4 0.000000 0.000000 0.000000 0.037040 0.000000 0.000000
# 5 0.000000 0.000000 0.000000 0.000000 0.037041 0.000000
# 6 0.000000 0.000000 0.000000 0.000000 0.000000 0.019949
#
#
# Mechanical properties :
#
#
# Convention : Reuss Voigt Hill
#
# Bulk Modulus (GPa) = 57.86537 59.01220 58.43879
# Shear Modulus (GPa) = 27.70046 31.19751 29.44899
#
# Velocity S-wave (km/s) = 3.59559 3.81581 3.70734
# Velocity P-wave (km/s) = 6.65165 6.85244 6.75279
#
# Compressibility (1/GPa) = 0.01728149
#
# Stress axis : x y z
#
# Youngs Moduli (GPa) = 55.67302 55.67242 76.49538
#
# Poissons Ratio (x) = 0.57744 0.20981
# Poissons Ratio (y) = 0.57745 0.20981
# Poissons Ratio (z) = 0.15270 0.15270
#
# Static dielectric constant tensor:
#      x y z
#    x 1.807070 0.000000 0.000000 
#    y 0.000000 1.807070 0.000000 
#    z 0.000000 0.000000 1.794350 
# 
# From -- ./inp_files/6186.got.cif
#   From: 2010.05.17/outbox.cif.g08.bks.cpg/sg138_4_cif.got.tgz:6186.got - 2010.05.20 13:08:53.
