data_PCOD9570969
_publ_section_title
;
Structure prediction by ZEFSAII (Michael W. Deem and Ramdas Pophale) SiO2 
 PCOD9570969
Probable space group: P 42/N C M
;
_chemical_formula_sum "Si O2"
_cell_formula_units_Z 116
_cell_length_a 17.801458
_cell_length_b 17.801458
_cell_length_c 19.386303
_cell_angle_alpha 90.000000
_cell_angle_beta 90.000000
_cell_angle_gamma 90.000000
_cell_volume 6143.362526
_symmetry_space_group_name_H-M "P 42/N C M"
_symmetry_group_IT_number 138
_space_group.IT_coordinate_system_code '2'
_symmetry_cell_setting 'tetragonal'
loop_
_space_group_symop_operation_xyz
x,y,z
1/2-y,x,1/2+z
1/2-x,1/2-y,z
y,1/2-x,1/2+z
1/2+x,-y,1/2-z
-x,1/2+y,1/2-z
1/2+y,1/2+x,-z
-y,-x,-z
-x,-y,-z
1/2+y,-x,1/2-z
1/2+x,1/2+y,-z
-y,1/2+x,1/2-z
1/2-x,y,1/2+z
x,1/2-y,1/2+z
1/2-y,1/2-x,z
y,x,z
loop_
_atom_site_type_symbol
_atom_site_label
_atom_site_fract_x
_atom_site_fract_y
_atom_site_fract_z
Si Si1 0.526169 0.158326 0.074446
Si Si2 0.907878 0.035584 0.069214
Si Si3 0.696879 0.315917 0.583018
Si Si4 0.544443 0.670846 0.706886
Si Si5 0.761374 0.484503 0.071899
Si Si6 0.000000 0.500000 0.000000
Si Si7 0.435049 0.563834 0.218599
Si Si8 0.450176 0.174569 0.215471
O O1 0.608967 0.181053 0.101827
O O2 0.523309 0.070802 0.052154
O O3 0.467162 0.175866 0.134191
O O4 0.509545 0.203376 0.004004
O O5 0.826545 0.997778 0.071845
O O6 0.920989 0.083138 0.138664
O O7 0.915744 0.084257 0.000000
O O8 0.971527 0.971527 0.067581
O O9 0.750000 0.250000 0.611453
O O10 0.693985 0.306016 0.500000
O O11 0.731665 0.397647 0.595212
O O12 0.610688 0.610688 0.713013
O O13 0.532621 0.693604 0.627563
O O14 0.468756 0.632607 0.736780
O O15 0.560994 0.744597 0.751307
O O16 0.498403 0.498403 0.219712
O O17 0.476713 0.635703 0.249918
O O18 0.379982 0.120019 0.229403
#
# Coordination Sequence:
#
# PCOD9570969 Si02
#       8
#    16  16  16  16  16   4  16  16
#     4  11  23  36  63  95 127 165 211 266 323 393
#     4  10  22  39  60  87 118 163 211 257 309 377
#     4   9  19  34  54  90 129 160 193 243 322 388
#     4  11  25  41  64  92 126 167 222 275 326 393
#     4  11  22  37  62  93 122 161 208 261 321 379
#     4  12  20  40  62  96 126 164 222 266 316 388
#     4   9  20  39  62  86 119 162 209 258 310 383
#     4  11  23  42  64  90 126 169 213 268 329 395
#
# _framework density 18.882168
#
# number of rings (size 3 to 8) (size 9 to 14) (size 15 to 20)
#    0.000    1.655    4.138    0.828    6.759    0.276 
#    0.000    0.000    0.000    0.000    0.000    0.000 
#    0.000    0.000    0.000    0.000    0.000    0.000 
#
# Total GULP energy -646569.825090 kJ/mol
# GULP energy per Si atom -5573.877803 kJ/mol
# Density = 1.883919 g / cm^3
# Si number density = 18.882168 Si / 1000 Ang^3
#
#
#
# Elastic Constant Matrix: (Units=GPa)
#
#
# Indices 1 2 3 4 5 6 
#
# 1 81.1207 33.9025 31.7461 0.0000 0.0000 0.0000
# 2 33.9025 81.1200 31.7453 0.0000 0.0000 0.0000
# 3 31.7461 31.7453 110.1400 0.0000 0.0000 0.0000
# 4 0.0000 0.0000 0.0000 16.1382 0.0000 0.0000
# 5 0.0000 0.0000 0.0000 0.0000 16.1376 0.0000
# 6 0.0000 0.0000 0.0000 0.0000 0.0000 27.4003
#
#
#
# Elastic Compliance Matrix: (Units=1/GPa)
#
#
# Indices 1 2 3 4 5 6 
#
# 1 0.015759 -0.005420 -0.002980 0.000000 0.000000 0.000000
# 2 -0.005420 0.015759 -0.002980 0.000000 0.000000 0.000000
# 3 -0.002980 -0.002980 0.010797 0.000000 0.000000 0.000000
# 4 0.000000 0.000000 0.000000 0.061965 0.000000 0.000000
# 5 0.000000 0.000000 0.000000 0.000000 0.061967 0.000000
# 6 0.000000 0.000000 0.000000 0.000000 0.000000 0.036496
#
#
# Mechanical properties :
#
#
# Convention : Reuss Voigt Hill
#
# Bulk Modulus (GPa) = 51.13785 51.90762 51.52273
# Shear Modulus (GPa) = 21.54985 23.60100 22.57543
#
# Velocity S-wave (km/s) = 3.38195 3.53924 3.46149
# Velocity P-wave (km/s) = 6.51088 6.65219 6.58191
#
# Compressibility (1/GPa) = 0.01955499
#
# Stress axis : x y z
#
# Youngs Moduli (GPa) = 63.45738 63.45721 92.61668
#
# Poissons Ratio (x) = 0.34393 0.27600
# Poissons Ratio (y) = 0.34393 0.27599
# Poissons Ratio (z) = 0.18911 0.18910
#
# Static dielectric constant tensor:
#      x y z
#    x 1.656450 0.000000 0.000000 
#    y 0.000000 1.656450 0.000000 
#    z 0.000000 0.000000 1.675040 
# 
# From -- ./inp_files/5371.got.cif
#   From: 2010.05.17/outbox.cif.g08.bks.cpg/sg138_3_cif.got.tgz:5371.got - 2010.05.20 13:08:53.
