data_PCOD9570899
_publ_section_title
;
Structure prediction by ZEFSAII (Michael W. Deem and Ramdas Pophale) SiO2 
 PCOD9570899
Probable space group: P 42/N C M
;
_chemical_formula_sum "Si O2"
_cell_formula_units_Z 120
_cell_length_a 20.793685
_cell_length_b 20.793685
_cell_length_c 14.581704
_cell_angle_alpha 90.000000
_cell_angle_beta 90.000000
_cell_angle_gamma 90.000000
_cell_volume 6304.798328
_symmetry_space_group_name_H-M "P 42/N C M"
_symmetry_group_IT_number 138
_space_group.IT_coordinate_system_code '2'
_symmetry_cell_setting 'tetragonal'
loop_
_space_group_symop_operation_xyz
x,y,z
1/2-y,x,1/2+z
1/2-x,1/2-y,z
y,1/2-x,1/2+z
1/2+x,-y,1/2-z
-x,1/2+y,1/2-z
1/2+y,1/2+x,-z
-y,-x,-z
-x,-y,-z
1/2+y,-x,1/2-z
1/2+x,1/2+y,-z
-y,1/2+x,1/2-z
1/2-x,y,1/2+z
x,1/2-y,1/2+z
1/2-y,1/2-x,z
y,x,z
loop_
_atom_site_type_symbol
_atom_site_label
_atom_site_fract_x
_atom_site_fract_y
_atom_site_fract_z
Si Si1 0.612079 0.460606 0.341482
Si Si2 0.556564 0.255714 0.106929
Si Si3 0.771931 0.443554 0.602614
Si Si4 0.302283 0.803493 0.612033
Si Si5 0.491451 0.858295 0.153475
Si Si6 0.880223 0.980695 0.861752
Si Si7 0.062208 0.062208 0.504437
Si Si8 0.014710 0.913564 0.129932
O O1 0.688604 0.457474 0.345587
O O2 0.578726 0.391456 0.356678
O O3 0.585661 0.507228 0.420358
O O4 0.591879 0.483989 0.240569
O O5 0.624076 0.285284 0.141563
O O6 0.499644 0.307789 0.113725
O O7 0.565612 0.242966 0.998810
O O8 0.784336 0.373226 0.644330
O O9 0.718319 0.483931 0.654851
O O10 0.841816 0.475841 0.594104
O O11 0.250000 0.750000 0.638155
O O12 0.304803 0.804803 0.500000
O O13 0.517189 0.881265 0.251355
O O14 0.534311 0.885853 0.071544
O O15 0.925962 0.039415 0.895109
O O16 0.914494 0.914494 0.891391
O O17 0.950166 0.950166 0.101302
#
# Coordination Sequence:
#
# PCOD9570899 Si02
#       8
#    16  16  16  16  16  16   8  16
#     4  11  21  35  58  84 113 143 183 237 288 336
#     4  11  21  34  54  81 113 152 191 224 270 337
#     4  11  21  34  54  81 113 152 191 224 270 337
#     4   9  18  32  49  75 113 153 189 219 256 316
#     4  11  21  35  58  84 113 143 183 237 288 336
#     4  10  21  37  55  77 111 150 186 236 282 321
#     4  12  21  36  60  90 109 138 189 236 296 340
#     4  10  21  37  55  77 111 150 186 236 282 321
#
# _framework density 19.033121999999999
#
# number of rings (size 3 to 8) (size 9 to 14) (size 15 to 20)
#    0.000    1.467    4.000    2.800    0.000    1.600 
#    0.000    1.333    0.000    0.000    0.000    1.867 
#    0.000    0.000    0.000    0.000    0.000    0.000 
#
# Total GULP energy -668461.821132 kJ/mol
# GULP energy per Si atom -5570.515176 kJ/mol
# Density = 1.898980 g / cm^3
# Si number density = 19.033122 Si / 1000 Ang^3
#
#
#
# Elastic Constant Matrix: (Units=GPa)
#
#
# Indices 1 2 3 4 5 6 
#
# 1 72.3722 74.3452 -15.6982 0.0000 0.0000 0.0000
# 2 74.3452 72.3722 -15.6982 0.0000 0.0000 0.0000
# 3 -15.6982 -15.6982 41.5123 0.0000 0.0000 0.0000
# 4 0.0000 0.0000 0.0000 17.3878 0.0000 0.0000
# 5 0.0000 0.0000 0.0000 0.0000 17.3878 0.0000
# 6 0.0000 0.0000 0.0000 0.0000 0.0000 22.9805
#
#
#
# Elastic Compliance Matrix: (Units=1/GPa)
#
#
# Indices 1 2 3 4 5 6 
#
# 1 -0.249718 0.257134 0.002804 0.000000 0.000000 0.000000
# 2 0.257134 -0.249718 0.002804 0.000000 0.000000 0.000000
# 3 0.002804 0.002804 0.026210 0.000000 0.000000 0.000000
# 4 0.000000 0.000000 0.000000 0.057512 0.000000 0.000000
# 5 0.000000 0.000000 0.000000 0.000000 0.057512 0.000000
# 6 0.000000 0.000000 0.000000 0.000000 0.000000 0.043515
#
#
# Mechanical properties :
#
#
# Convention : Reuss Voigt Hill
#
# Bulk Modulus (GPa) = 19.13520 30.23937 24.68728
# Shear Modulus (GPa) = -6.07716 21.10508 7.51396
#
# Velocity S-wave (km/s) = -1.78882 3.33357 1.98907
# Velocity P-wave (km/s) = 2.41018 5.54429 4.27482
#
# Compressibility (1/GPa) = 0.05225970
#
# Stress axis : x y z
#
# Youngs Moduli (GPa) = -4.00452 -4.00452 38.15304
#
# Poissons Ratio (x) = 1.02970 -0.10700
# Poissons Ratio (y) = 1.02970 -0.10700
# Poissons Ratio (z) = 0.01123 0.01123
#
# Static dielectric constant tensor:
#      x y z
#    x 1.650930 0.000000 0.000000 
#    y 0.000000 1.650930 0.000000 
#    z 0.000000 0.000000 1.729760 
# 
# From -- ./inp_files/4445.got.cif
#   From: 2010.05.17/outbox.cif.g08.bks.cpg/sg138_3_cif.got.tgz:4445.got - 2010.05.20 13:08:53.
