data_PCOD9570037
_publ_section_title
;
Structure prediction by ZEFSAII (Michael W. Deem and Ramdas Pophale) SiO2 
 PCOD9570037
Probable space group: P 42/N M C
;
_chemical_formula_sum "Si O2"
_cell_formula_units_Z 112
_cell_length_a 15.183126
_cell_length_b 15.183126
_cell_length_c 24.485067
_cell_angle_alpha 90.000000
_cell_angle_beta 90.000000
_cell_angle_gamma 90.000000
_cell_volume 5644.476756
_symmetry_space_group_name_H-M "P 42/N M C"
_symmetry_group_IT_number 137
_space_group.IT_coordinate_system_code '2'
_symmetry_cell_setting 'tetragonal'
loop_
_space_group_symop_operation_xyz
x,y,z
1/2-y,x,1/2+z
1/2-x,1/2-y,z
y,1/2-x,1/2+z
1/2+x,-y,-z
-x,1/2+y,-z
1/2+y,1/2+x,1/2-z
-y,-x,1/2-z
-x,-y,-z
1/2+y,-x,1/2-z
1/2+x,1/2+y,-z
-y,1/2+x,1/2-z
1/2-x,y,z
x,1/2-y,z
1/2-y,1/2-x,1/2+z
y,x,1/2+z
loop_
_atom_site_type_symbol
_atom_site_label
_atom_site_fract_x
_atom_site_fract_y
_atom_site_fract_z
Si Si1 0.844117 0.035384 0.782933
Si Si2 0.596605 0.153563 0.191400
Si Si3 0.349514 0.543857 0.089852
Si Si4 0.851558 0.524988 0.136401
Si Si5 0.653620 0.853483 0.450806
Si Si6 0.478844 0.416900 0.961198
Si Si7 0.151701 0.401981 0.741188
O O1 0.924500 0.075501 0.750000
O O2 0.750000 0.068358 0.761432
O O3 0.852332 0.060314 0.845883
O O4 0.846195 0.930340 0.777903
O O5 0.644501 0.144501 0.250000
O O6 0.612887 0.250000 0.167987
O O7 0.626426 0.075504 0.152446
O O8 0.494208 0.145614 0.208288
O O9 0.250000 0.559307 0.069452
O O10 0.367565 0.438064 0.081884
O O11 0.423688 0.602882 0.061167
O O12 0.750000 0.532382 0.118052
O O13 0.918710 0.557334 0.090590
O O14 0.859107 0.576152 0.194277
O O15 0.750000 0.866807 0.423273
O O16 0.651054 0.750000 0.467612
O O17 0.647330 0.920731 0.501511
O O18 0.500000 0.500000 0.000000
O O19 0.250000 0.365895 0.733027
#
# Coordination Sequence:
#
# PCOD9570037 Si02
#       7
#    16  16  16  16  16  16  16
#     4  11  22  37  58  81 111 150 189 229 270 316
#     4   9  16  27  47  75 109 147 180 209 247 309
#     4   9  19  35  56  80 105 141 183 223 273 325
#     4  10  19  31  48  71 104 144 181 220 270 326
#     4   9  18  34  57  85 111 133 167 219 278 338
#     4  10  19  33  53  74  99 135 175 217 263 318
#     4   9  18  32  52  79 110 143 177 218 272 332
#
# _framework density 19.842404999999999
#
# number of rings (size 3 to 8) (size 9 to 14) (size 15 to 20)
#    0.000    2.429    0.000    4.714    0.000    2.571 
#    0.000    8.571    0.000    2.143    0.000    0.000 
#    0.000    0.000    0.000    0.000    0.000    0.000 
#
# Total GULP energy -624375.544304 kJ/mol
# GULP energy per Si atom -5574.781646 kJ/mol
# Density = 1.979724 g / cm^3
# Si number density = 19.842405 Si / 1000 Ang^3
#
#
#
# Elastic Constant Matrix: (Units=GPa)
#
#
# Indices 1 2 3 4 5 6 
#
# 1 53.7579 8.6776 4.3747 0.0000 0.0000 0.0000
# 2 8.6776 53.7603 4.3756 0.0000 0.0000 0.0000
# 3 4.3747 4.3756 27.2352 0.0000 0.0000 0.0000
# 4 0.0000 0.0000 0.0000 12.1561 0.0000 0.0000
# 5 0.0000 0.0000 0.0000 0.0000 12.1559 0.0000
# 6 0.0000 0.0000 0.0000 0.0000 0.0000 14.1524
#
#
#
# Elastic Compliance Matrix: (Units=1/GPa)
#
#
# Indices 1 2 3 4 5 6 
#
# 1 0.019284 -0.002898 -0.002632 0.000000 0.000000 0.000000
# 2 -0.002898 0.019283 -0.002632 0.000000 0.000000 0.000000
# 3 -0.002632 -0.002632 0.037563 0.000000 0.000000 0.000000
# 4 0.000000 0.000000 0.000000 0.082263 0.000000 0.000000
# 5 0.000000 0.000000 0.000000 0.000000 0.082265 0.000000
# 6 0.000000 0.000000 0.000000 0.000000 0.000000 0.070660
#
#
# Mechanical properties :
#
#
# Convention : Reuss Voigt Hill
#
# Bulk Modulus (GPa) = 16.72118 18.84548 17.78333
# Shear Modulus (GPa) = 14.38526 15.51456 14.94991
#
# Velocity S-wave (km/s) = 2.69546 2.79926 2.74785
# Velocity P-wave (km/s) = 4.25824 4.46834 4.36455
#
# Compressibility (1/GPa) = 0.05980440
#
# Stress axis : x y z
#
# Youngs Moduli (GPa) = 51.85656 51.85860 26.62205
#
# Poissons Ratio (x) = 0.15031 0.07007
# Poissons Ratio (y) = 0.15031 0.07008
# Poissons Ratio (z) = 0.13648 0.13652
#
# Static dielectric constant tensor:
#      x y z
#    x 1.742880 0.000000 0.000000 
#    y 0.000000 1.742870 0.000000 
#    z 0.000000 0.000000 1.679020 
# 
# From -- ./inp_files/9799.got.cif
#   From: 2010.05.17/outbox.cif.g08.bks.cpg/sg137_5_cif.got.tgz:9799.got - 2010.05.20 13:01:12.
