data_PCOD9570874
_publ_section_title
;
Structure prediction by ZEFSAII (Michael W. Deem and Ramdas Pophale) SiO2 
 PCOD9570874
Probable space group: P 42/N C M
;
_chemical_formula_sum "Si O2"
_cell_formula_units_Z 88
_cell_length_a 11.925770
_cell_length_b 11.925770
_cell_length_c 33.948465
_cell_angle_alpha 90.000000
_cell_angle_beta 90.000000
_cell_angle_gamma 90.000000
_cell_volume 4828.286150
_symmetry_space_group_name_H-M "P 42/N C M"
_symmetry_group_IT_number 138
_space_group.IT_coordinate_system_code '2'
_symmetry_cell_setting 'tetragonal'
loop_
_space_group_symop_operation_xyz
x,y,z
1/2-y,x,1/2+z
1/2-x,1/2-y,z
y,1/2-x,1/2+z
1/2+x,-y,1/2-z
-x,1/2+y,1/2-z
1/2+y,1/2+x,-z
-y,-x,-z
-x,-y,-z
1/2+y,-x,1/2-z
1/2+x,1/2+y,-z
-y,1/2+x,1/2-z
1/2-x,y,1/2+z
x,1/2-y,1/2+z
1/2-y,1/2-x,z
y,x,z
loop_
_atom_site_type_symbol
_atom_site_label
_atom_site_fract_x
_atom_site_fract_y
_atom_site_fract_z
Si Si1 0.947642 0.373330 0.207654
Si Si2 0.415069 0.743589 0.979315
Si Si3 0.345494 0.154507 0.996948
Si Si4 0.458361 0.734990 0.648174
Si Si5 0.157781 0.157781 0.406832
Si Si6 0.888633 0.067425 0.796999
Si Si7 0.750000 0.250000 0.409011
O O1 0.863047 0.442564 0.180177
O O2 0.939707 0.243706 0.195824
O O3 0.909282 0.385699 0.252972
O O4 0.069583 0.430418 0.204290
O O5 0.542362 0.788210 0.983912
O O6 0.360907 0.736067 0.935997
O O7 0.339352 0.839352 0.000000
O O8 0.373973 0.626028 0.000000
O O9 0.250000 0.250000 0.997997
O O10 0.377594 0.122407 0.951301
O O11 0.563043 0.712931 0.620241
O O12 0.449836 0.849925 0.672537
O O13 0.354990 0.733210 0.618631
O O14 0.250000 0.250000 0.414453
O O15 0.946948 0.946948 0.798908
#
# Coordination Sequence:
#
# PCOD9570874 Si02
#       7
#    16  16   8  16   8  16   8
#     4  11  22  39  62  87 119 165 212 255 305 368
#     4   9  19  38  60  90 116 154 205 251 296 367
#     4  11  23  41  65  91 129 167 199 251 323 393
#     4  12  21  38  61  91 120 159 207 258 308 365
#     4  11  24  39  59  93 128 159 199 261 324 367
#     4  11  23  39  60  87 123 164 203 256 309 367
#     4  10  21  34  65  88 116 154 210 258 305 352
#
# _framework density 18.225928
#
# number of rings (size 3 to 8) (size 9 to 14) (size 15 to 20)
#    0.000    1.455    4.545    3.000    0.000    1.455 
#    0.000    1.818    0.000    0.000    0.000    0.000 
#    0.000    0.000    0.000    0.000    0.000    0.000 
#
# Total GULP energy -490591.767650 kJ/mol
# GULP energy per Si atom -5574.906451 kJ/mol
# Density = 1.818445 g / cm^3
# Si number density = 18.225928 Si / 1000 Ang^3
#
#
#
# Elastic Constant Matrix: (Units=GPa)
#
#
# Indices 1 2 3 4 5 6 
#
# 1 93.7162 28.9567 16.7566 0.0000 0.0000 0.0000
# 2 28.9567 93.7171 16.7568 0.0000 0.0000 0.0000
# 3 16.7566 16.7568 99.1337 0.0000 0.0000 0.0000
# 4 0.0000 0.0000 0.0000 22.0621 0.0000 0.0000
# 5 0.0000 0.0000 0.0000 0.0000 22.0614 0.0000
# 6 0.0000 0.0000 0.0000 0.0000 0.0000 26.5561
#
#
#
# Elastic Compliance Matrix: (Units=1/GPa)
#
#
# Indices 1 2 3 4 5 6 
#
# 1 0.011994 -0.003448 -0.001445 0.000000 0.000000 0.000000
# 2 -0.003448 0.011994 -0.001445 0.000000 0.000000 0.000000
# 3 -0.001445 -0.001445 0.010576 0.000000 0.000000 0.000000
# 4 0.000000 0.000000 0.000000 0.045327 0.000000 0.000000
# 5 0.000000 0.000000 0.000000 0.000000 0.045328 0.000000
# 6 0.000000 0.000000 0.000000 0.000000 0.000000 0.037656
#
#
# Mechanical properties :
#
#
# Convention : Reuss Voigt Hill
#
# Bulk Modulus (GPa) = 45.68275 45.72302 45.70288
# Shear Modulus (GPa) = 27.34558 29.07572 28.21065
#
# Velocity S-wave (km/s) = 3.87766 3.99845 3.93852
# Velocity P-wave (km/s) = 6.72067 6.81601 6.76851
#
# Compressibility (1/GPa) = 0.02189010
#
# Stress axis : x y z
#
# Youngs Moduli (GPa) = 83.37458 83.37535 94.55592
#
# Poissons Ratio (x) = 0.28745 0.13659
# Poissons Ratio (y) = 0.28744 0.13660
# Poissons Ratio (z) = 0.12044 0.12045
#
# Static dielectric constant tensor:
#      x y z
#    x 1.613660 0.000000 0.000000 
#    y 0.000000 1.613660 0.000000 
#    z 0.000000 0.000000 1.630060 
# 
# From -- ./inp_files/8111.got.cif
#   From: 2010.05.17/outbox.cif.g08.bks.cpg/sg138_5_cif.got.tgz:8111.got - 2010.05.20 13:08:53.
