data_PCOD9570035
_publ_section_title
;
Structure prediction by ZEFSAII (Michael W. Deem and Ramdas Pophale) SiO2 
 PCOD9570035
Probable space group: P 42/N M C
;
_chemical_formula_sum "Si O2"
_cell_formula_units_Z 88
_cell_length_a 19.001376
_cell_length_b 19.001376
_cell_length_c 13.963501
_cell_angle_alpha 90.000000
_cell_angle_beta 90.000000
_cell_angle_gamma 90.000000
_cell_volume 5041.554011
_symmetry_space_group_name_H-M "P 42/N M C"
_symmetry_group_IT_number 137
_space_group.IT_coordinate_system_code '2'
_symmetry_cell_setting 'tetragonal'
loop_
_space_group_symop_operation_xyz
x,y,z
1/2-y,x,1/2+z
1/2-x,1/2-y,z
y,1/2-x,1/2+z
1/2+x,-y,-z
-x,1/2+y,-z
1/2+y,1/2+x,1/2-z
-y,-x,1/2-z
-x,-y,-z
1/2+y,-x,1/2-z
1/2+x,1/2+y,-z
-y,1/2+x,1/2-z
1/2-x,y,z
x,1/2-y,z
1/2-y,1/2-x,1/2+z
y,x,1/2+z
loop_
_atom_site_type_symbol
_atom_site_label
_atom_site_fract_x
_atom_site_fract_y
_atom_site_fract_z
Si Si1 0.832683 0.167318 0.250000
Si Si2 0.538061 0.670393 0.488796
Si Si3 0.425082 0.038279 0.631576
Si Si4 0.874520 0.330114 0.461166
Si Si5 0.438913 0.442734 0.854653
Si Si6 0.477196 0.669276 0.032559
O O1 0.750000 0.156429 0.271465
O O2 0.849219 0.126913 0.152309
O O3 0.563640 0.750000 0.475917
O O4 0.555294 0.615950 0.405043
O O5 0.454220 0.672582 0.503211
O O6 0.566692 0.631125 0.583028
O O7 0.418084 0.044484 0.745230
O O8 0.488570 0.983241 0.612599
O O9 0.361301 0.010785 0.566098
O O10 0.844751 0.250000 0.468314
O O11 0.837800 0.392974 0.518487
O O12 0.491055 0.378636 0.882228
O O13 0.496010 0.750000 0.046328
#
# Coordination Sequence:
#
# PCOD9570035 Si02
#       6
#     8  16  16  16  16  16
#     4   9  18  28  38  62 106 152 178 200 248 307
#     4  10  19  33  55  80 106 140 182 217 268 329
#     4  10  20  37  56  76 109 144 181 230 276 310
#     4  10  19  31  47  75 116 150 177 212 258 318
#     4  10  20  37  56  77 108 143 183 230 273 311
#     4  11  21  34  55  84 110 142 187 225 267 327
#
# _framework density 17.454936
#
# number of rings (size 3 to 8) (size 9 to 14) (size 15 to 20)
#    0.000    1.909    3.636    1.636    2.545    2.545 
#    0.000    0.000    0.000    8.727    0.000   10.182 
#    0.000    0.000    0.000    0.000    0.000    0.000 
#
# Total GULP energy -490631.299740 kJ/mol
# GULP energy per Si atom -5575.355679 kJ/mol
# Density = 1.741521 g / cm^3
# Si number density = 17.454936 Si / 1000 Ang^3
#
#
#
# Elastic Constant Matrix: (Units=GPa)
#
#
# Indices 1 2 3 4 5 6 
#
# 1 68.0420 8.7462 -10.6702 0.0000 0.0000 0.0000
# 2 8.7462 68.0424 -10.6702 0.0000 0.0000 0.0000
# 3 -10.6702 -10.6702 30.3162 0.0000 0.0000 0.0000
# 4 0.0000 0.0000 0.0000 4.5316 0.0000 0.0000
# 5 0.0000 0.0000 0.0000 0.0000 4.5320 0.0000
# 6 0.0000 0.0000 0.0000 0.0000 0.0000 14.5820
#
#
#
# Elastic Compliance Matrix: (Units=1/GPa)
#
#
# Indices 1 2 3 4 5 6 
#
# 1 0.015650 -0.001215 0.005081 0.000000 0.000000 0.000000
# 2 -0.001215 0.015650 0.005080 0.000000 0.000000 0.000000
# 3 0.005081 0.005080 0.036562 0.000000 0.000000 0.000000
# 4 0.000000 0.000000 0.000000 0.220674 0.000000 0.000000
# 5 0.000000 0.000000 0.000000 0.000000 0.220654 0.000000
# 6 0.000000 0.000000 0.000000 0.000000 0.000000 0.068578
#
#
# Mechanical properties :
#
#
# Convention : Reuss Voigt Hill
#
# Bulk Modulus (GPa) = 11.66134 15.69024 13.67579
# Shear Modulus (GPa) = 8.49676 16.66211 12.57944
#
# Velocity S-wave (km/s) = 2.20871 3.09298 2.68746
# Velocity P-wave (km/s) = 3.63316 4.66517 4.18113
#
# Compressibility (1/GPa) = 0.08575343
#
# Stress axis : x y z
#
# Youngs Moduli (GPa) = 63.89910 63.89944 27.35085
#
# Poissons Ratio (x) = 0.07763 -0.13896
# Poissons Ratio (y) = 0.07763 -0.13896
# Poissons Ratio (z) = -0.32464 -0.32464
#
# Static dielectric constant tensor:
#      x y z
#    x 1.608310 0.000000 0.000000 
#    y 0.000000 1.608310 0.000000 
#    z 0.000000 0.000000 1.598730 
# 
# From -- ./inp_files/5072.got.cif
#   From: 2010.05.17/outbox.cif.g08.bks.cpg/sg137_3_cif.got.tgz:5072.got - 2010.05.20 13:01:12.
