data_PCOD9570289
_publ_section_title
;
Structure prediction by ZEFSAII (Michael W. Deem and Ramdas Pophale) SiO2 
 PCOD9570289
Probable space group: P 42/N M C
;
_chemical_formula_sum "Si O2"
_cell_formula_units_Z 96
_cell_length_a 14.432076
_cell_length_b 14.432076
_cell_length_c 24.536189
_cell_angle_alpha 90.000000
_cell_angle_beta 90.000000
_cell_angle_gamma 90.000000
_cell_volume 5110.515652
_symmetry_space_group_name_H-M "P 42/N M C"
_symmetry_group_IT_number 137
_space_group.IT_coordinate_system_code '2'
_symmetry_cell_setting 'tetragonal'
loop_
_space_group_symop_operation_xyz
x,y,z
1/2-y,x,1/2+z
1/2-x,1/2-y,z
y,1/2-x,1/2+z
1/2+x,-y,-z
-x,1/2+y,-z
1/2+y,1/2+x,1/2-z
-y,-x,1/2-z
-x,-y,-z
1/2+y,-x,1/2-z
1/2+x,1/2+y,-z
-y,1/2+x,1/2-z
1/2-x,y,z
x,1/2-y,z
1/2-y,1/2-x,1/2+z
y,x,1/2+z
loop_
_atom_site_type_symbol
_atom_site_label
_atom_site_fract_x
_atom_site_fract_y
_atom_site_fract_z
Si Si1 0.860328 0.542115 0.825735
Si Si2 0.641286 0.859589 0.714692
Si Si3 0.517453 0.859109 0.608482
Si Si4 0.857401 0.977580 0.532387
Si Si5 0.144596 0.641085 0.383237
Si Si6 0.641452 0.002317 0.403481
O O1 0.750000 0.557272 0.831220
O O2 0.886402 0.577768 0.765925
O O3 0.878860 0.434251 0.838762
O O4 0.915641 0.600954 0.870369
O O5 0.750000 0.876214 0.702135
O O6 0.632409 0.750000 0.729014
O O7 0.579176 0.877540 0.662086
O O8 0.507372 0.750000 0.601528
O O9 0.573316 0.904267 0.558561
O O10 0.419689 0.909937 0.613581
O O11 0.750000 0.949688 0.541319
O O12 0.871015 0.073907 0.565288
O O13 0.871606 0.988797 0.468226
O O14 0.250000 0.625303 0.363551
O O15 0.136933 0.750000 0.398217
O O16 0.750000 0.013834 0.392695
#
# Coordination Sequence:
#
# PCOD9570289 Si02
#       6
#    16  16  16  16  16  16
#     4  10  20  37  63  88 115 153 196 243 300 358
#     4   9  19  37  61  89 117 149 196 251 300 346
#     4  11  23  39  61  86 116 156 202 246 290 345
#     4  10  21  39  60  86 121 154 190 240 293 348
#     4   9  18  34  59  90 121 153 189 232 289 358
#     4  11  24  40  58  86 123 157 195 244 296 349
#
# _framework density 18.784797000000001
#
# number of rings (size 3 to 8) (size 9 to 14) (size 15 to 20)
#    0.000    2.000    1.667    1.500    0.000    4.333 
#    0.000    3.333    0.000    1.000    0.000    7.000 
#    0.000    0.000    0.000    0.000    0.000    0.000 
#
# Total GULP energy -536316.753487 kJ/mol
# GULP energy per Si atom -5586.632849 kJ/mol
# Density = 1.874204 g / cm^3
# Si number density = 18.784797 Si / 1000 Ang^3
#
#
#
# Elastic Constant Matrix: (Units=GPa)
#
#
# Indices 1 2 3 4 5 6 
#
# 1 97.6411 64.0899 52.7608 0.0000 0.0000 0.0000
# 2 64.0899 97.6411 52.7608 0.0000 0.0000 0.0000
# 3 52.7608 52.7608 60.9721 0.0000 0.0000 0.0000
# 4 0.0000 0.0000 0.0000 27.2897 0.0000 0.0000
# 5 0.0000 0.0000 0.0000 0.0000 27.2897 0.0000
# 6 0.0000 0.0000 0.0000 0.0000 0.0000 18.2778
#
#
#
# Elastic Compliance Matrix: (Units=1/GPa)
#
#
# Indices 1 2 3 4 5 6 
#
# 1 0.022003 -0.007802 -0.012288 0.000000 0.000000 0.000000
# 2 -0.007802 0.022003 -0.012288 0.000000 0.000000 0.000000
# 3 -0.012288 -0.012288 0.037667 0.000000 0.000000 0.000000
# 4 0.000000 0.000000 0.000000 0.036644 0.000000 0.000000
# 5 0.000000 0.000000 0.000000 0.000000 0.036644 0.000000
# 6 0.000000 0.000000 0.000000 0.000000 0.000000 0.054711
#
#
# Mechanical properties :
#
#
# Convention : Reuss Voigt Hill
#
# Bulk Modulus (GPa) = 59.11545 66.16413 62.63979
# Shear Modulus (GPa) = 17.85285 20.34762 19.10024
#
# Velocity S-wave (km/s) = 3.08618 3.29477 3.19218
# Velocity P-wave (km/s) = 6.65113 7.05497 6.85602
#
# Compressibility (1/GPa) = 0.01691605
#
# Stress axis : x y z
#
# Youngs Moduli (GPa) = 45.44870 45.44870 26.54825
#
# Poissons Ratio (x) = 0.35461 0.32623
# Poissons Ratio (y) = 0.35461 0.32623
# Poissons Ratio (z) = 0.55847 0.55847
#
# Static dielectric constant tensor:
#      x y z
#    x 1.654210 0.000000 0.000000 
#    y 0.000000 1.654210 0.000000 
#    z 0.000000 0.000000 1.618520 
# 
# From -- ./inp_files/7798.got.cif
#   From: 2010.05.17/outbox.cif.g08.bks.cpg/sg137_4_cif.got.tgz:7798.got - 2010.05.20 13:01:12.
