data_PCOD9570566
_publ_section_title
;
Structure prediction by ZEFSAII (Michael W. Deem and Ramdas Pophale) SiO2 
 PCOD9570566
Probable space group: P 42/N C M
;
_chemical_formula_sum "Si O2"
_cell_formula_units_Z 52
_cell_length_a 10.555304
_cell_length_b 10.555304
_cell_length_c 19.219548
_cell_angle_alpha 90.000000
_cell_angle_beta 90.000000
_cell_angle_gamma 90.000000
_cell_volume 2141.335226
_symmetry_space_group_name_H-M "P 42/N C M"
_symmetry_group_IT_number 138
_space_group.IT_coordinate_system_code '2'
_symmetry_cell_setting 'tetragonal'
loop_
_space_group_symop_operation_xyz
x,y,z
1/2-y,x,1/2+z
1/2-x,1/2-y,z
y,1/2-x,1/2+z
1/2+x,-y,1/2-z
-x,1/2+y,1/2-z
1/2+y,1/2+x,-z
-y,-x,-z
-x,-y,-z
1/2+y,-x,1/2-z
1/2+x,1/2+y,-z
-y,1/2+x,1/2-z
1/2-x,y,1/2+z
x,1/2-y,1/2+z
1/2-y,1/2-x,z
y,x,z
loop_
_atom_site_type_symbol
_atom_site_label
_atom_site_fract_x
_atom_site_fract_y
_atom_site_fract_z
Si Si1 0.750000 0.750000 0.543600
Si Si2 0.080836 0.867989 0.355614
Si Si3 0.256324 0.038793 0.281893
Si Si4 0.805359 0.504879 0.473835
O O1 0.750232 0.593773 0.534610
O O2 0.067235 0.792900 0.426384
O O3 0.025711 0.784033 0.292096
O O4 0.214268 0.926736 0.333013
O O5 0.983941 0.983941 0.361372
O O6 0.379768 0.120233 0.303319
O O7 0.142712 0.142712 0.276968
O O8 0.905250 0.405250 0.500000
O O9 0.883477 0.616524 0.432044
#
# Coordination Sequence:
#
# PCOD9570566 Si02
#       4
#     4  16  16  16
#     4   8  14  28  48  86 132 176 228 272 320 388
#     4  10  17  32  53  86 132 170 208 273 335 379
#     4   9  19  31  53  88 122 165 218 265 324 397
#     4   9  16  27  52  91 125 175 228 268 322 395
#
# _framework density 24.283916000000001
#
# number of rings (size 3 to 8) (size 9 to 14) (size 15 to 20)
#    0.923    1.846    1.538    0.923    0.000    1.846 
#    0.000    0.000    0.000    0.923   12.000    6.462 
#    0.000   27.077    0.000   62.769    0.000    0.000 
#
# Total GULP energy -289536.908345 kJ/mol
# GULP energy per Si atom -5568.017468 kJ/mol
# Density = 2.422864 g / cm^3
# Si number density = 24.283916 Si / 1000 Ang^3
#
#
#
# Elastic Constant Matrix: (Units=GPa)
#
#
# Indices 1 2 3 4 5 6 
#
# 1 41.5359 1.2775 7.8102 0.0000 0.0000 0.0000
# 2 1.2775 41.5359 7.8102 0.0000 0.0000 0.0000
# 3 7.8102 7.8102 43.2330 0.0000 0.0000 0.0000
# 4 0.0000 0.0000 0.0000 18.2170 0.0000 0.0000
# 5 0.0000 0.0000 0.0000 0.0000 18.2170 0.0000
# 6 0.0000 0.0000 0.0000 0.0000 0.0000 35.0664
#
#
#
# Elastic Compliance Matrix: (Units=1/GPa)
#
#
# Indices 1 2 3 4 5 6 
#
# 1 0.024922 0.000083 -0.004517 0.000000 0.000000 0.000000
# 2 0.000083 0.024922 -0.004517 0.000000 0.000000 0.000000
# 3 -0.004517 -0.004517 0.024763 0.000000 0.000000 0.000000
# 4 0.000000 0.000000 0.000000 0.054894 0.000000 0.000000
# 5 0.000000 0.000000 0.000000 0.000000 0.054894 0.000000
# 6 0.000000 0.000000 0.000000 0.000000 0.000000 0.028517
#
#
# Mechanical properties :
#
#
# Convention : Reuss Voigt Hill
#
# Bulk Modulus (GPa) = 17.63545 17.78898 17.71222
# Shear Modulus (GPa) = 20.02267 21.59389 20.80828
#
# Velocity S-wave (km/s) = 2.87457 2.98522 2.93042
# Velocity P-wave (km/s) = 4.27732 4.38445 4.33122
#
# Compressibility (1/GPa) = 0.05670396
#
# Stress axis : x y z
#
# Youngs Moduli (GPa) = 40.12451 40.12451 40.38347
#
# Poissons Ratio (x) = -0.00333 0.18243
# Poissons Ratio (y) = -0.00333 0.18243
# Poissons Ratio (z) = 0.18126 0.18126
#
# Static dielectric constant tensor:
#      x y z
#    x 1.936880 0.000000 0.000000 
#    y 0.000000 1.936880 0.000000 
#    z 0.000000 0.000000 1.976150 
# 
# From -- ./inp_files/5671.got.cif
#   From: 2010.05.17/outbox.cif.g08.bks.cpg/sg138_3_cif.got.tgz:5671.got - 2010.05.20 13:08:53.
