data_PCOD9570818
_publ_section_title
;
Structure prediction by ZEFSAII (Michael W. Deem and Ramdas Pophale) SiO2 
 PCOD9570818
Probable space group: P 42/N C M
;
_chemical_formula_sum "Si O2"
_cell_formula_units_Z 96
_cell_length_a 15.086889
_cell_length_b 15.086889
_cell_length_c 20.217526
_cell_angle_alpha 90.000000
_cell_angle_beta 90.000000
_cell_angle_gamma 90.000000
_cell_volume 4601.796405
_symmetry_space_group_name_H-M "P 42/N C M"
_symmetry_group_IT_number 138
_space_group.IT_coordinate_system_code '2'
_symmetry_cell_setting 'tetragonal'
loop_
_space_group_symop_operation_xyz
x,y,z
1/2-y,x,1/2+z
1/2-x,1/2-y,z
y,1/2-x,1/2+z
1/2+x,-y,1/2-z
-x,1/2+y,1/2-z
1/2+y,1/2+x,-z
-y,-x,-z
-x,-y,-z
1/2+y,-x,1/2-z
1/2+x,1/2+y,-z
-y,1/2+x,1/2-z
1/2-x,y,1/2+z
x,1/2-y,1/2+z
1/2-y,1/2-x,z
y,x,z
loop_
_atom_site_type_symbol
_atom_site_label
_atom_site_fract_x
_atom_site_fract_y
_atom_site_fract_z
Si Si1 0.803368 0.950324 0.599351
Si Si2 0.895654 0.754440 0.243345
Si Si3 0.500362 0.357700 0.995550
Si Si4 0.909459 0.448549 0.860305
Si Si5 0.351126 0.647695 0.234585
Si Si6 0.712871 0.477724 0.866716
O O1 0.858880 0.858880 0.584139
O O2 0.758084 0.938599 0.671375
O O3 0.728644 0.980990 0.548224
O O4 0.877222 0.026259 0.606633
O O5 0.818305 0.681696 0.245292
O O6 0.849889 0.849889 0.249642
O O7 0.958493 0.731701 0.304583
O O8 0.434787 0.434787 0.970942
O O9 0.598538 0.401462 0.000000
O O10 0.478574 0.332677 0.071153
O O11 0.898515 0.420891 0.783113
O O12 0.810357 0.444892 0.888004
O O13 0.956967 0.543034 0.867321
O O14 0.252896 0.634906 0.266226
O O15 0.344968 0.602307 0.163563
#
# Coordination Sequence:
#
# PCOD9570818 Si02
#       6
#    16  16  16  16  16  16
#     4  10  22  43  66  89 127 176 223 264 321 395
#     4  10  20  36  62  94 126 165 215 264 312 374
#     4  11  27  46  65  94 130 169 215 268 331 397
#     4  10  21  37  62  94 126 165 213 264 315 373
#     4   9  19  35  59  90 125 164 208 254 311 377
#     4  11  22  38  62  95 130 165 208 264 324 374
#
# _framework density 20.861418
#
# number of rings (size 3 to 8) (size 9 to 14) (size 15 to 20)
#    0.000    1.833    1.667    1.500    2.333    3.667 
#    0.000    4.167    0.000    0.000    0.000    0.000 
#    0.000    0.000    0.000    0.000    0.000    0.000 
#
# Total GULP energy -536079.398930 kJ/mol
# GULP energy per Si atom -5584.160406 kJ/mol
# Density = 2.081394 g / cm^3
# Si number density = 20.861418 Si / 1000 Ang^3
#
#
#
# Elastic Constant Matrix: (Units=GPa)
#
#
# Indices 1 2 3 4 5 6 
#
# 1 65.8733 20.3837 32.7589 0.0000 0.0000 0.0000
# 2 20.3837 65.8752 32.7594 0.0000 0.0000 0.0000
# 3 32.7589 32.7594 89.5835 0.0000 0.0000 0.0000
# 4 0.0000 0.0000 0.0000 27.9361 0.0000 0.0000
# 5 0.0000 0.0000 0.0000 0.0000 27.9357 0.0000
# 6 0.0000 0.0000 0.0000 0.0000 0.0000 29.4998
#
#
#
# Elastic Compliance Matrix: (Units=1/GPa)
#
#
# Indices 1 2 3 4 5 6 
#
# 1 0.019017 -0.002965 -0.005870 0.000000 0.000000 0.000000
# 2 -0.002965 0.019017 -0.005870 0.000000 0.000000 0.000000
# 3 -0.005870 -0.005870 0.015456 0.000000 0.000000 0.000000
# 4 0.000000 0.000000 0.000000 0.035796 0.000000 0.000000
# 5 0.000000 0.000000 0.000000 0.000000 0.035796 0.000000
# 6 0.000000 0.000000 0.000000 0.000000 0.000000 0.033899
#
#
# Mechanical properties :
#
#
# Convention : Reuss Voigt Hill
#
# Bulk Modulus (GPa) = 41.52865 43.68179 42.60522
# Shear Modulus (GPa) = 25.45596 26.10300 25.77948
#
# Velocity S-wave (km/s) = 3.49698 3.54115 3.51914
# Velocity P-wave (km/s) = 6.02124 6.14037 6.08110
#
# Compressibility (1/GPa) = 0.02407976
#
# Stress axis : x y z
#
# Youngs Moduli (GPa) = 52.58346 52.58501 64.70082
#
# Poissons Ratio (x) = 0.15594 0.37978
# Poissons Ratio (y) = 0.15594 0.37978
# Poissons Ratio (z) = 0.30866 0.30866
#
# Static dielectric constant tensor:
#      x y z
#    x 1.770170 0.000000 0.000000 
#    y 0.000000 1.770170 0.000000 
#    z 0.000000 0.000000 1.719210 
# 
# From -- ./inp_files/6226.got.cif
#   From: 2010.05.17/outbox.cif.g08.bks.cpg/sg138_4_cif.got.tgz:6226.got - 2010.05.20 13:08:53.
