data_PCOD9570172
_publ_section_title
;
Structure prediction by ZEFSAII (Michael W. Deem and Ramdas Pophale) SiO2 
 PCOD9570172
Probable space group: P 42/N M C
;
_chemical_formula_sum "Si O2"
_cell_formula_units_Z 112
_cell_length_a 14.505466
_cell_length_b 14.505466
_cell_length_c 31.079766
_cell_angle_alpha 90.000000
_cell_angle_beta 90.000000
_cell_angle_gamma 90.000000
_cell_volume 6539.448308
_symmetry_space_group_name_H-M "P 42/N M C"
_symmetry_group_IT_number 137
_space_group.IT_coordinate_system_code '2'
_symmetry_cell_setting 'tetragonal'
loop_
_space_group_symop_operation_xyz
x,y,z
1/2-y,x,1/2+z
1/2-x,1/2-y,z
y,1/2-x,1/2+z
1/2+x,-y,-z
-x,1/2+y,-z
1/2+y,1/2+x,1/2-z
-y,-x,1/2-z
-x,-y,-z
1/2+y,-x,1/2-z
1/2+x,1/2+y,-z
-y,1/2+x,1/2-z
1/2-x,y,z
x,1/2-y,z
1/2-y,1/2-x,1/2+z
y,x,1/2+z
loop_
_atom_site_type_symbol
_atom_site_label
_atom_site_fract_x
_atom_site_fract_y
_atom_site_fract_z
Si Si1 0.484309 0.140864 0.088446
Si Si2 0.859458 0.143517 0.801640
Si Si3 0.141748 0.006343 0.927982
Si Si4 0.144948 0.455649 0.832598
Si Si5 0.140257 0.355674 0.004443
Si Si6 0.459475 0.459781 0.175430
Si Si7 0.351443 0.359412 0.248605
O O1 0.502260 0.250000 0.094440
O O2 0.415203 0.129921 0.048361
O O3 0.441365 0.096890 0.131825
O O4 0.575981 0.081896 0.077420
O O5 0.870042 0.129959 0.750000
O O6 0.750000 0.134616 0.810925
O O7 0.886263 0.250000 0.811344
O O8 0.916345 0.062889 0.824935
O O9 0.250000 0.981244 0.932440
O O10 0.133500 0.063384 0.883185
O O11 0.114759 0.070527 0.967950
O O12 0.250000 0.486818 0.826160
O O13 0.128142 0.374323 0.798768
O O14 0.069298 0.531206 0.821370
O O15 0.250000 0.363890 0.011997
O O16 0.122711 0.250000 0.989949
O O17 0.420781 0.410004 0.217281
O O18 0.250000 0.395823 0.238954
O O19 0.354040 0.250000 0.240299
#
# Coordination Sequence:
#
# PCOD9570172 Si02
#       7
#    16  16  16  16  16  16  16
#     4  10  21  35  51  75 105 136 172 210 247 293
#     4   9  18  32  50  73 100 131 170 213 255 303
#     4   9  18  34  56  78  99 128 167 210 259 307
#     4   9  19  33  48  70  98 128 166 211 254 293
#     4   9  18  33  54  79 105 131 160 200 251 306
#     4  11  20  32  51  72  99 139 176 206 245 299
#     4  10  20  32  48  73 103 132 164 206 254 303
#
# _framework density 17.126826000000001
#
# number of rings (size 3 to 8) (size 9 to 14) (size 15 to 20)
#    0.000    2.429    0.000    3.000    0.000    3.714 
#    0.000    6.429    0.000    2.143    0.000   10.000 
#    0.000    0.000    0.000    0.000    0.000    0.000 
#
# Total GULP energy -624152.748029 kJ/mol
# GULP energy per Si atom -5572.792393 kJ/mol
# Density = 1.708784 g / cm^3
# Si number density = 17.126826 Si / 1000 Ang^3
#
#
#
# Elastic Constant Matrix: (Units=GPa)
#
#
# Indices 1 2 3 4 5 6 
#
# 1 70.3976 36.9377 47.2667 0.0000 0.0000 0.0000
# 2 36.9377 70.3977 47.2667 0.0000 0.0000 0.0000
# 3 47.2667 47.2667 83.8778 0.0000 0.0000 0.0000
# 4 0.0000 0.0000 0.0000 26.1512 0.0000 0.0000
# 5 0.0000 0.0000 0.0000 0.0000 26.1512 0.0000
# 6 0.0000 0.0000 0.0000 0.0000 0.0000 19.1096
#
#
#
# Elastic Compliance Matrix: (Units=1/GPa)
#
#
# Indices 1 2 3 4 5 6 
#
# 1 0.024192 -0.005695 -0.010423 0.000000 0.000000 0.000000
# 2 -0.005695 0.024192 -0.010423 0.000000 0.000000 0.000000
# 3 -0.010423 -0.010423 0.023669 0.000000 0.000000 0.000000
# 4 0.000000 0.000000 0.000000 0.038239 0.000000 0.000000
# 5 0.000000 0.000000 0.000000 0.000000 0.038239 0.000000
# 6 0.000000 0.000000 0.000000 0.000000 0.000000 0.052330
#
#
# Mechanical properties :
#
#
# Convention : Reuss Voigt Hill
#
# Bulk Modulus (GPa) = 52.71507 54.17946 53.44727
# Shear Modulus (GPa) = 19.21108 20.49587 19.85348
#
# Velocity S-wave (km/s) = 3.35281 3.46311 3.40840
# Velocity P-wave (km/s) = 6.77012 6.90607 6.83843
#
# Compressibility (1/GPa) = 0.01896991
#
# Stress axis : x y z
#
# Youngs Moduli (GPa) = 41.33671 41.33677 42.24859
#
# Poissons Ratio (x) = 0.23541 0.44037
# Poissons Ratio (y) = 0.23541 0.44036
# Poissons Ratio (z) = 0.43086 0.43086
#
# Static dielectric constant tensor:
#      x y z
#    x 1.587870 0.000000 0.000000 
#    y 0.000000 1.587870 0.000000 
#    z 0.000000 0.000000 1.571840 
# 
# From -- ./inp_files/10719.got.cif
#   From: 2010.05.17/outbox.cif.g08.bks.cpg/sg137_6_cif.got.tgz:10719.got - 2010.05.20 13:01:12.
