data_PCOD9570321
_publ_section_title
;
Structure prediction by ZEFSAII (Michael W. Deem and Ramdas Pophale) SiO2 
 PCOD9570321
Probable space group: P 42/N M C
;
_chemical_formula_sum "Si O2"
_cell_formula_units_Z 42
_cell_length_a 8.008918
_cell_length_b 8.008918
_cell_length_c 32.135289
_cell_angle_alpha 90.000000
_cell_angle_beta 90.000000
_cell_angle_gamma 90.000000
_cell_volume 2061.246372
_symmetry_space_group_name_H-M "P 42/N M C"
_symmetry_group_IT_number 137
_space_group.IT_coordinate_system_code '2'
_symmetry_cell_setting 'tetragonal'
loop_
_space_group_symop_operation_xyz
x,y,z
1/2-y,x,1/2+z
1/2-x,1/2-y,z
y,1/2-x,1/2+z
1/2+x,-y,-z
-x,1/2+y,-z
1/2+y,1/2+x,1/2-z
-y,-x,1/2-z
-x,-y,-z
1/2+y,-x,1/2-z
1/2+x,1/2+y,-z
-y,1/2+x,1/2-z
1/2-x,y,z
x,1/2-y,z
1/2-y,1/2-x,1/2+z
y,x,1/2+z
loop_
_atom_site_type_symbol
_atom_site_label
_atom_site_fract_x
_atom_site_fract_y
_atom_site_fract_z
Si Si1 0.750000 0.935261 0.310968
Si Si2 0.936715 0.050032 0.954772
Si Si3 0.554747 0.944099 0.634915
Si Si4 0.250000 0.750000 0.750000
O O1 0.750000 0.750000 0.292279
O O2 0.583044 0.958031 0.338826
O O3 0.750000 0.084117 0.277943
O O4 0.750000 0.983090 0.948812
O O5 0.931080 0.250000 0.955101
O O6 0.041426 0.006394 0.913894
O O7 0.000000 0.000000 0.000000
O O8 0.750000 0.000027 0.639368
O O9 0.547865 0.750000 0.647202
#
# Coordination Sequence:
#
# PCOD9570321 Si02
#       4
#     8  16  16   2
#     4  12  26  46  76 104 136 180 220 280 352 418
#     4  10  21  35  53  84 126 174 228 280 328 393
#     4  10  21  41  68  97 134 178 227 282 341 407
#     4  12  28  52  68 112 140 164 236 284 344 428
#
# _framework density 20.376024000000001
#
# number of rings (size 3 to 8) (size 9 to 14) (size 15 to 20)
#    0.000    1.524    1.905    2.286    2.667    6.095 
#    0.000    0.000    0.000    0.000    0.000    0.000 
#    0.000    0.000    0.000    0.000    0.000    0.000 
#
# Total GULP energy -234503.151071 kJ/mol
# GULP energy per Si atom -5583.408359 kJ/mol
# Density = 2.032965 g / cm^3
# Si number density = 20.376024 Si / 1000 Ang^3
#
#
#
# Elastic Constant Matrix: (Units=GPa)
#
#
# Indices 1 2 3 4 5 6 
#
# 1 100.7666 36.6050 41.9644 0.0000 0.0000 0.0000
# 2 36.6050 100.7666 41.9644 0.0000 0.0000 0.0000
# 3 41.9644 41.9644 94.4804 0.0000 0.0000 0.0000
# 4 0.0000 0.0000 0.0000 25.0141 0.0000 0.0000
# 5 0.0000 0.0000 0.0000 0.0000 25.0141 0.0000
# 6 0.0000 0.0000 0.0000 0.0000 0.0000 15.5465
#
#
#
# Elastic Compliance Matrix: (Units=1/GPa)
#
#
# Indices 1 2 3 4 5 6 
#
# 1 0.012788 -0.002798 -0.004437 0.000000 0.000000 0.000000
# 2 -0.002798 0.012788 -0.004437 0.000000 0.000000 0.000000
# 3 -0.004437 -0.004437 0.014526 0.000000 0.000000 0.000000
# 4 0.000000 0.000000 0.000000 0.039977 0.000000 0.000000
# 5 0.000000 0.000000 0.000000 0.000000 0.039977 0.000000
# 6 0.000000 0.000000 0.000000 0.000000 0.000000 0.064323
#
#
# Mechanical properties :
#
#
# Convention : Reuss Voigt Hill
#
# Bulk Modulus (GPa) = 59.67448 59.67568 59.67508
# Shear Modulus (GPa) = 23.43996 24.81360 24.12678
#
# Velocity S-wave (km/s) = 3.39539 3.49346 3.44477
# Velocity P-wave (km/s) = 6.68743 6.75449 6.72105
#
# Compressibility (1/GPa) = 0.01675758
#
# Stress axis : x y z
#
# Youngs Moduli (GPa) = 78.19749 78.19749 68.84176
#
# Poissons Ratio (x) = 0.21876 0.30548
# Poissons Ratio (y) = 0.21876 0.30548
# Poissons Ratio (z) = 0.34700 0.34700
#
# Static dielectric constant tensor:
#      x y z
#    x 1.729180 0.000000 0.000000 
#    y 0.000000 1.729180 0.000000 
#    z 0.000000 0.000000 1.717700 
# 
# From -- ./inp_files/9324.got.cif
#   From: 2010.05.17/outbox.cif.g08.bks.cpg/sg137_5_cif.got.tgz:9324.got - 2010.05.20 13:01:12.
