data_PCOD9570015
_publ_section_title
;
Structure prediction by ZEFSAII (Michael W. Deem and Ramdas Pophale) SiO2 
 PCOD9570015
Probable space group: P 42/N M C
;
_chemical_formula_sum "Si O2"
_cell_formula_units_Z 80
_cell_length_a 15.745067
_cell_length_b 15.745067
_cell_length_c 14.735644
_cell_angle_alpha 90.000000
_cell_angle_beta 90.000000
_cell_angle_gamma 90.000000
_cell_volume 3653.071284
_symmetry_space_group_name_H-M "P 42/N M C"
_symmetry_group_IT_number 137
_space_group.IT_coordinate_system_code '2'
_symmetry_cell_setting 'tetragonal'
loop_
_space_group_symop_operation_xyz
x,y,z
1/2-y,x,1/2+z
1/2-x,1/2-y,z
y,1/2-x,1/2+z
1/2+x,-y,-z
-x,1/2+y,-z
1/2+y,1/2+x,1/2-z
-y,-x,1/2-z
-x,-y,-z
1/2+y,-x,1/2-z
1/2+x,1/2+y,-z
-y,1/2+x,1/2-z
1/2-x,y,z
x,1/2-y,z
1/2-y,1/2-x,1/2+z
y,x,1/2+z
loop_
_atom_site_type_symbol
_atom_site_label
_atom_site_fract_x
_atom_site_fract_y
_atom_site_fract_z
Si Si1 0.649823 0.843552 0.794019
Si Si2 0.654190 0.480324 0.520694
Si Si3 0.423289 0.977164 0.158783
Si Si4 0.658068 0.583463 0.086287
Si Si5 0.082278 0.594783 0.648239
O O1 0.750000 0.837811 0.794058
O O2 0.617245 0.750000 0.829331
O O3 0.618279 0.849229 0.689655
O O4 0.629229 0.935493 0.837985
O O5 0.750000 0.479142 0.556504
O O6 0.588201 0.421414 0.576234
O O7 0.618289 0.576795 0.530910
O O8 0.651352 0.443093 0.419409
O O9 0.421060 0.921060 0.250000
O O10 0.517591 0.015555 0.156733
O O11 0.750000 0.611760 0.048951
O O12 0.659582 0.481423 0.099815
O O13 0.113978 0.613978 0.750000
#
# Coordination Sequence:
#
# PCOD9570015 Si02
#       5
#    16  16  16  16  16
#     4  10  19  32  58  97 134 170 214 267 333 408
#     4  11  23  38  63  98 131 173 231 280 329 405
#     4  10  18  35  58  87 134 178 218 261 328 408
#     4  10  19  35  62  95 131 167 205 268 347 409
#     4  10  20  39  62  84 121 174 230 277 328 397
#
# _framework density 21.899381999999999
#
# number of rings (size 3 to 8) (size 9 to 14) (size 15 to 20)
#    0.000    1.800    6.000    3.000    0.000    2.800 
#    0.000    4.000    0.000    2.400    0.000    2.800 
#    0.000    0.400    0.000    0.000    0.000    0.000 
#
# Total GULP energy -445472.546300 kJ/mol
# GULP energy per Si atom -5568.406829 kJ/mol
# Density = 2.184954 g / cm^3
# Si number density = 21.899382 Si / 1000 Ang^3
#
#
#
# Elastic Constant Matrix: (Units=GPa)
#
#
# Indices 1 2 3 4 5 6 
#
# 1 96.8942 81.8899 42.7703 0.0000 0.0000 0.0000
# 2 81.8899 96.8942 42.7703 0.0000 0.0000 0.0000
# 3 42.7703 42.7703 98.0408 0.0000 0.0000 0.0000
# 4 0.0000 0.0000 0.0000 -23.2904 0.0000 0.0000
# 5 0.0000 0.0000 0.0000 0.0000 -23.2904 0.0000
# 6 0.0000 0.0000 0.0000 0.0000 0.0000 17.5791
#
#
#
# Elastic Compliance Matrix: (Units=1/GPa)
#
#
# Indices 1 2 3 4 5 6 
#
# 1 0.036858 -0.029789 -0.003084 0.000000 0.000000 0.000000
# 2 -0.029789 0.036858 -0.003084 0.000000 0.000000 0.000000
# 3 -0.003084 -0.003084 0.012890 0.000000 0.000000 0.000000
# 4 0.000000 0.000000 0.000000 -0.042936 0.000000 0.000000
# 5 0.000000 0.000000 0.000000 0.000000 -0.042936 0.000000
# 6 0.000000 0.000000 0.000000 0.000000 0.000000 0.056886
#
#
# Mechanical properties :
#
#
# Convention : Reuss Voigt Hill
#
# Bulk Modulus (GPa) = 68.05984 69.63225 68.84605
# Shear Modulus (GPa) = 37.19353 2.49290 19.84321
#
# Velocity S-wave (km/s) = 4.12561 1.06809 3.01343
# Velocity P-wave (km/s) = 7.33759 5.77811 6.60404
#
# Compressibility (1/GPa) = 0.01469295
#
# Stress axis : x y z
#
# Youngs Moduli (GPa) = 27.13096 27.13096 77.57695
#
# Poissons Ratio (x) = 0.80822 0.23923
# Poissons Ratio (y) = 0.80822 0.23923
# Poissons Ratio (z) = 0.08367 0.08367
#
# Static dielectric constant tensor:
#      x y z
#    x 1.851960 0.000000 0.000000 
#    y 0.000000 1.851960 0.000000 
#    z 0.000000 0.000000 1.943560 
# 
# From -- ./inp_files/4954.got.cif
#   From: 2010.05.17/outbox.cif.g08.bks.cpg/sg137_3_cif.got.tgz:4954.got - 2010.05.20 13:01:12.
