data_PCOD9570942
_publ_section_title
;
Structure prediction by ZEFSAII (Michael W. Deem and Ramdas Pophale) SiO2 
 PCOD9570942
Probable space group: P 42/N C M
;
_chemical_formula_sum "Si O2"
_cell_formula_units_Z 64
_cell_length_a 12.992410
_cell_length_b 12.992410
_cell_length_c 19.768500
_cell_angle_alpha 90.000000
_cell_angle_beta 90.000000
_cell_angle_gamma 90.000000
_cell_volume 3336.976523
_symmetry_space_group_name_H-M "P 42/N C M"
_symmetry_group_IT_number 138
_space_group.IT_coordinate_system_code '2'
_symmetry_cell_setting 'tetragonal'
loop_
_space_group_symop_operation_xyz
x,y,z
1/2-y,x,1/2+z
1/2-x,1/2-y,z
y,1/2-x,1/2+z
1/2+x,-y,1/2-z
-x,1/2+y,1/2-z
1/2+y,1/2+x,-z
-y,-x,-z
-x,-y,-z
1/2+y,-x,1/2-z
1/2+x,1/2+y,-z
-y,1/2+x,1/2-z
1/2-x,y,1/2+z
x,1/2-y,1/2+z
1/2-y,1/2-x,z
y,x,z
loop_
_atom_site_type_symbol
_atom_site_label
_atom_site_fract_x
_atom_site_fract_y
_atom_site_fract_z
Si Si1 0.184280 0.487829 0.710875
Si Si2 0.408992 0.756909 0.529422
Si Si3 0.019053 0.654862 0.671286
Si Si4 0.247309 0.418617 0.572059
O O1 0.114453 0.385548 0.713671
O O2 0.106640 0.583589 0.705628
O O3 0.261858 0.487145 0.772964
O O4 0.243773 0.486595 0.639428
O O5 0.363011 0.863011 0.500000
O O6 0.329226 0.670775 0.500000
O O7 0.432114 0.782913 0.607646
O O8 0.515441 0.731192 0.493596
O O9 0.924010 0.575991 0.653200
O O10 0.137602 0.362399 0.564603
O O11 0.332026 0.332026 0.581587
#
# Coordination Sequence:
#
# PCOD9570942 Si02
#       4
#    16  16  16  16
#     4  10  23  41  64  94 126 164 208 257 312 380
#     4  11  24  40  62  94 126 164 209 259 314 375
#     4  11  24  41  66  93 127 169 208 259 321 380
#     4  10  21  40  65  89 120 165 211 255 309 376
#
# _framework density 19.179037000000001
#
# number of rings (size 3 to 8) (size 9 to 14) (size 15 to 20)
#    0.000    1.500    2.500    1.500    3.500    4.500 
#    0.000    0.000    0.000    0.000    0.000    0.000 
#    0.000    0.000    0.000    0.000    0.000    0.000 
#
# Total GULP energy -356814.495164 kJ/mol
# GULP energy per Si atom -5575.226487 kJ/mol
# Density = 1.913538 g / cm^3
# Si number density = 19.179037 Si / 1000 Ang^3
#
#
#
# Elastic Constant Matrix: (Units=GPa)
#
#
# Indices 1 2 3 4 5 6 
#
# 1 56.1521 26.3659 22.6596 0.0000 0.0000 0.0000
# 2 26.3659 56.1527 22.6602 0.0000 0.0000 0.0000
# 3 22.6596 22.6602 65.4010 0.0000 0.0000 0.0000
# 4 0.0000 0.0000 0.0000 31.2612 0.0000 0.0000
# 5 0.0000 0.0000 0.0000 0.0000 31.2613 0.0000
# 6 0.0000 0.0000 0.0000 0.0000 0.0000 19.7275
#
#
#
# Elastic Compliance Matrix: (Units=1/GPa)
#
#
# Indices 1 2 3 4 5 6 
#
# 1 0.024269 -0.009303 -0.005185 0.000000 0.000000 0.000000
# 2 -0.009303 0.024269 -0.005186 0.000000 0.000000 0.000000
# 3 -0.005185 -0.005186 0.018884 0.000000 0.000000 0.000000
# 4 0.000000 0.000000 0.000000 0.031989 0.000000 0.000000
# 5 0.000000 0.000000 0.000000 0.000000 0.031988 0.000000
# 6 0.000000 0.000000 0.000000 0.000000 0.000000 0.050691
#
#
# Mechanical properties :
#
#
# Convention : Reuss Voigt Hill
#
# Bulk Modulus (GPa) = 35.61959 35.67524 35.64741
# Shear Modulus (GPa) = 21.66415 23.51800 22.59108
#
# Velocity S-wave (km/s) = 3.36456 3.50556 3.43579
# Velocity P-wave (km/s) = 5.80570 5.91835 5.86229
#
# Compressibility (1/GPa) = 0.02807444
#
# Stress axis : x y z
#
# Youngs Moduli (GPa) = 41.20417 41.20434 52.95602
#
# Poissons Ratio (x) = 0.38332 0.27460
# Poissons Ratio (y) = 0.38332 0.27461
# Poissons Ratio (z) = 0.21366 0.21367
#
# Static dielectric constant tensor:
#      x y z
#    x 1.690230 0.000000 0.000000 
#    y 0.000000 1.690230 0.000000 
#    z 0.000000 0.000000 1.670730 
# 
# From -- ./inp_files/3870.got.cif
#   From: 2010.05.17/outbox.cif.g08.bks.cpg/sg138_2_cif.got.tgz:3870.got - 2010.05.20 13:08:53.
