data_PCOD9570994
_publ_section_title
;
Structure prediction by ZEFSAII (Michael W. Deem and Ramdas Pophale) SiO2 
 PCOD9570994
Probable space group: P 42/N C M
;
_chemical_formula_sum "Si O2"
_cell_formula_units_Z 64
_cell_length_a 11.858862
_cell_length_b 11.858862
_cell_length_c 21.741703
_cell_angle_alpha 90.000000
_cell_angle_beta 90.000000
_cell_angle_gamma 90.000000
_cell_volume 3057.592394
_symmetry_space_group_name_H-M "P 42/N C M"
_symmetry_group_IT_number 138
_space_group.IT_coordinate_system_code '2'
_symmetry_cell_setting 'tetragonal'
loop_
_space_group_symop_operation_xyz
x,y,z
1/2-y,x,1/2+z
1/2-x,1/2-y,z
y,1/2-x,1/2+z
1/2+x,-y,1/2-z
-x,1/2+y,1/2-z
1/2+y,1/2+x,-z
-y,-x,-z
-x,-y,-z
1/2+y,-x,1/2-z
1/2+x,1/2+y,-z
-y,1/2+x,1/2-z
1/2-x,y,1/2+z
x,1/2-y,1/2+z
1/2-y,1/2-x,z
y,x,z
loop_
_atom_site_type_symbol
_atom_site_label
_atom_site_fract_x
_atom_site_fract_y
_atom_site_fract_z
Si Si1 0.965343 0.534658 0.929040
Si Si2 0.236890 0.561055 0.250520
Si Si3 0.303196 0.859844 0.930245
Si Si4 0.934572 0.751351 0.622312
Si Si5 0.153977 0.153977 0.669720
O O1 0.910254 0.419111 0.904151
O O2 0.875258 0.624743 0.902046
O O3 0.000000 0.500000 0.000000
O O4 0.136227 0.651539 0.263787
O O5 0.266579 0.495227 0.312879
O O6 0.197950 0.461528 0.203506
O O7 0.250000 0.750000 0.899092
O O8 0.223815 0.967622 0.926115
O O9 0.328589 0.828589 0.000000
O O10 0.850382 0.649619 0.628934
O O11 0.858617 0.858617 0.604092
O O12 0.250000 0.250000 0.675081
#
# Coordination Sequence:
#
# PCOD9570994 Si02
#       5
#     8  16  16  16   8
#     4  10  22  44  68  94 136 183 230 290 363 422
#     4  11  26  43  67  99 138 187 230 280 362 438
#     4  10  22  42  68  95 127 176 235 285 346 421
#     4  11  23  40  64  96 132 174 225 284 350 420
#     4  12  26  44  70 105 147 181 239 310 353 437
#
# _framework density 20.931501000000001
#
# number of rings (size 3 to 8) (size 9 to 14) (size 15 to 20)
#    0.000    1.250    2.500    2.250   10.500    0.000 
#    0.000    7.500    0.000    0.000    0.000    0.000 
#    0.000    0.000    0.000    0.000    0.000    0.000 
#
# Total GULP energy -356363.714584 kJ/mol
# GULP energy per Si atom -5568.183040 kJ/mol
# Density = 2.088386 g / cm^3
# Si number density = 20.931501 Si / 1000 Ang^3
#
#
#
# Elastic Constant Matrix: (Units=GPa)
#
#
# Indices 1 2 3 4 5 6 
#
# 1 77.0065 133.7640 26.0533 0.0000 0.0000 0.0000
# 2 133.7640 77.0065 26.0533 0.0000 0.0000 0.0000
# 3 26.0533 26.0533 87.4952 0.0000 0.0000 0.0000
# 4 0.0000 0.0000 0.0000 27.0922 0.0000 0.0000
# 5 0.0000 0.0000 0.0000 0.0000 27.0922 0.0000
# 6 0.0000 0.0000 0.0000 0.0000 0.0000 36.4675
#
#
#
# Elastic Compliance Matrix: (Units=1/GPa)
#
#
# Indices 1 2 3 4 5 6 
#
# 1 -0.006249 0.011370 -0.001525 0.000000 0.000000 0.000000
# 2 0.011370 -0.006249 -0.001525 0.000000 0.000000 0.000000
# 3 -0.001525 -0.001525 0.012337 0.000000 0.000000 0.000000
# 4 0.000000 0.000000 0.000000 0.036911 0.000000 0.000000
# 5 0.000000 0.000000 0.000000 0.000000 0.036911 0.000000
# 6 0.000000 0.000000 0.000000 0.000000 0.000000 0.027422
#
#
# Mechanical properties :
#
#
# Convention : Reuss Voigt Hill
#
# Bulk Modulus (GPa) = 60.67838 68.13882 64.40860
# Shear Modulus (GPa) = 55.59448 21.83955 38.71701
#
# Velocity S-wave (km/s) = 5.15925 3.23365 4.30548
# Velocity P-wave (km/s) = 8.03383 6.82392 7.45347
#
# Compressibility (1/GPa) = 0.01648034
#
# Stress axis : x y z
#
# Youngs Moduli (GPa) = -160.03466 -160.03466 81.05432
#
# Poissons Ratio (x) = 1.81962 0.12361
# Poissons Ratio (y) = 1.81962 0.12361
# Poissons Ratio (z) = -0.24406 -0.24406
#
# Static dielectric constant tensor:
#      x y z
#    x 1.808260 0.000000 0.000000 
#    y 0.000000 1.808260 0.000000 
#    z 0.000000 0.000000 1.777720 
# 
# From -- ./inp_files/6776.got.cif
#   From: 2010.05.17/outbox.cif.g08.bks.cpg/sg138_4_cif.got.tgz:6776.got - 2010.05.20 13:08:53.
