data_PCOD9570306
_publ_section_title
;
Structure prediction by ZEFSAII (Michael W. Deem and Ramdas Pophale) SiO2 
 PCOD9570306
Probable space group: P 42/N M C
;
_chemical_formula_sum "Si O2"
_cell_formula_units_Z 48
_cell_length_a 11.146728
_cell_length_b 11.146728
_cell_length_c 17.741663
_cell_angle_alpha 90.000000
_cell_angle_beta 90.000000
_cell_angle_gamma 90.000000
_cell_volume 2204.393557
_symmetry_space_group_name_H-M "P 42/N M C"
_symmetry_group_IT_number 137
_space_group.IT_coordinate_system_code '2'
_symmetry_cell_setting 'tetragonal'
loop_
_space_group_symop_operation_xyz
x,y,z
1/2-y,x,1/2+z
1/2-x,1/2-y,z
y,1/2-x,1/2+z
1/2+x,-y,-z
-x,1/2+y,-z
1/2+y,1/2+x,1/2-z
-y,-x,1/2-z
-x,-y,-z
1/2+y,-x,1/2-z
1/2+x,1/2+y,-z
-y,1/2+x,1/2-z
1/2-x,y,z
x,1/2-y,z
1/2-y,1/2-x,1/2+z
y,x,1/2+z
loop_
_atom_site_type_symbol
_atom_site_label
_atom_site_fract_x
_atom_site_fract_y
_atom_site_fract_z
Si Si1 0.613860 0.883217 0.297757
Si Si2 0.250000 0.383864 0.962712
Si Si3 0.250000 0.621417 0.063200
Si Si4 0.990352 0.921345 0.135315
O O1 0.750000 0.907554 0.277842
O O2 0.605519 0.750000 0.331765
O O3 0.562741 0.983639 0.353177
O O4 0.541979 0.879286 0.219399
O O5 0.250000 0.250000 0.998417
O O6 0.375056 0.391481 0.915092
O O7 0.250000 0.502717 0.012888
O O8 0.250000 0.750000 0.021267
O O9 0.377358 0.620741 0.108660
#
# Coordination Sequence:
#
# PCOD9570306 Si02
#       4
#    16   8   8  16
#     4  10  20  39  68 100 137 174 217 283 347 411
#     4  12  26  46  70  94 140 190 229 276 341 413
#     4  12  26  44  66 100 136 178 237 290 329 393
#     4  11  23  41  67 100 132 176 232 280 338 397
#
# _framework density 21.774695000000001
#
# number of rings (size 3 to 8) (size 9 to 14) (size 15 to 20)
#    0.000    1.000    3.333    4.000    0.000    2.667 
#    0.000    0.000    0.000    0.000    0.000    0.000 
#    0.000    0.000    0.000    0.000    0.000    0.000 
#
# Total GULP energy -267422.077815 kJ/mol
# GULP energy per Si atom -5571.293288 kJ/mol
# Density = 2.172513 g / cm^3
# Si number density = 21.774695 Si / 1000 Ang^3
#
#
#
# Elastic Constant Matrix: (Units=GPa)
#
#
# Indices 1 2 3 4 5 6 
#
# 1 171.9571 65.9120 45.7256 0.0000 0.0000 0.0000
# 2 65.9120 171.9571 45.7256 0.0000 0.0000 0.0000
# 3 45.7256 45.7256 45.6394 0.0000 0.0000 0.0000
# 4 0.0000 0.0000 0.0000 34.1198 0.0000 0.0000
# 5 0.0000 0.0000 0.0000 0.0000 34.1198 0.0000
# 6 0.0000 0.0000 0.0000 0.0000 0.0000 -23.2097
#
#
#
# Elastic Compliance Matrix: (Units=1/GPa)
#
#
# Indices 1 2 3 4 5 6 
#
# 1 0.008134 -0.001296 -0.006851 0.000000 0.000000 0.000000
# 2 -0.001296 0.008134 -0.006851 0.000000 0.000000 0.000000
# 3 -0.006851 -0.006851 0.035638 0.000000 0.000000 0.000000
# 4 0.000000 0.000000 0.000000 0.029308 0.000000 0.000000
# 5 0.000000 0.000000 0.000000 0.000000 0.029308 0.000000
# 6 0.000000 0.000000 0.000000 0.000000 0.000000 -0.043085
#
#
# Mechanical properties :
#
#
# Convention : Reuss Voigt Hill
#
# Bulk Modulus (GPa) = 45.63930 78.25333 61.94631
# Shear Modulus (GPa) = 47.73893 24.48535 36.11214
#
# Velocity S-wave (km/s) = 4.68739 3.35697 4.07682
# Velocity P-wave (km/s) = 7.09231 7.14433 7.11837
#
# Compressibility (1/GPa) = 0.02191094
#
# Stress axis : x y z
#
# Youngs Moduli (GPa) = 122.94244 122.94244 28.05974
#
# Poissons Ratio (x) = 0.15934 0.19223
# Poissons Ratio (y) = 0.15934 0.19223
# Poissons Ratio (z) = 0.84225 0.84225
#
# Static dielectric constant tensor:
#      x y z
#    x 1.847760 0.000000 0.000000 
#    y 0.000000 1.847760 0.000000 
#    z 0.000000 0.000000 1.815160 
# 
# From -- ./inp_files/5817.got.cif
#   From: 2010.05.17/outbox.cif.g08.bks.cpg/sg137_3_cif.got.tgz:5817.got - 2010.05.20 13:01:12.
