data_PCOD9570734
_publ_section_title
;
Structure prediction by ZEFSAII (Michael W. Deem and Ramdas Pophale) SiO2 
 PCOD9570734
Probable space group: P 42/N C M
;
_chemical_formula_sum "Si O2"
_cell_formula_units_Z 60
_cell_length_a 14.136244
_cell_length_b 14.136244
_cell_length_c 15.502968
_cell_angle_alpha 90.000000
_cell_angle_beta 90.000000
_cell_angle_gamma 90.000000
_cell_volume 3098.010719
_symmetry_space_group_name_H-M "P 42/N C M"
_symmetry_group_IT_number 138
_space_group.IT_coordinate_system_code '2'
_symmetry_cell_setting 'tetragonal'
loop_
_space_group_symop_operation_xyz
x,y,z
1/2-y,x,1/2+z
1/2-x,1/2-y,z
y,1/2-x,1/2+z
1/2+x,-y,1/2-z
-x,1/2+y,1/2-z
1/2+y,1/2+x,-z
-y,-x,-z
-x,-y,-z
1/2+y,-x,1/2-z
1/2+x,1/2+y,-z
-y,1/2+x,1/2-z
1/2-x,y,1/2+z
x,1/2-y,1/2+z
1/2-y,1/2-x,z
y,x,z
loop_
_atom_site_type_symbol
_atom_site_label
_atom_site_fract_x
_atom_site_fract_y
_atom_site_fract_z
Si Si1 0.670883 0.829118 0.617385
Si Si2 0.265422 0.507026 0.995356
Si Si3 0.053666 0.053666 0.765199
Si Si4 0.750000 0.250000 0.750000
Si Si5 0.937707 0.937707 0.437413
Si Si6 0.127427 0.628497 0.367931
O O1 0.750000 0.750000 0.627151
O O2 0.706710 0.916945 0.561279
O O3 0.631865 0.868136 0.707896
O O4 0.167924 0.473805 0.038851
O O5 0.335901 0.543175 0.070144
O O6 0.282523 0.592044 0.925543
O O7 0.044874 0.044874 0.663330
O O8 0.956993 0.088360 0.810013
O O9 0.787207 0.164866 0.808883
O O10 0.000000 0.000000 0.500000
#
# Coordination Sequence:
#
# PCOD9570734 Si02
#       6
#     8  16   8   4   8  16
#     4  10  19  43  68  94 125 164 215 260 313 392
#     4  10  22  41  65  93 127 166 211 259 323 379
#     4  10  23  44  63  93 129 169 213 261 325 377
#     4  12  24  38  64  96 128 162 224 260 314 376
#     4  12  26  40  62  95 133 162 207 269 323 368
#     4  10  23  40  66  92 126 173 212 261 313 391
#
# _framework density 19.367267999999999
#
# number of rings (size 3 to 8) (size 9 to 14) (size 15 to 20)
#    0.000    1.600    1.333    2.400    7.467    4.267 
#    2.400    0.000    0.000    0.000    0.000    0.000 
#    0.000    0.000    0.000    0.000    0.000    0.000 
#
# Total GULP energy -334357.653081 kJ/mol
# GULP energy per Si atom -5572.627551 kJ/mol
# Density = 1.932319 g / cm^3
# Si number density = 19.367268 Si / 1000 Ang^3
#
#
#
# Elastic Constant Matrix: (Units=GPa)
#
#
# Indices 1 2 3 4 5 6 
#
# 1 81.6403 25.1578 41.1651 0.0000 0.0000 0.0000
# 2 25.1578 81.6403 41.1651 0.0000 0.0000 0.0000
# 3 41.1651 41.1651 144.5472 0.0000 0.0000 0.0000
# 4 0.0000 0.0000 0.0000 32.5817 0.0000 0.0000
# 5 0.0000 0.0000 0.0000 0.0000 32.5817 0.0000
# 6 0.0000 0.0000 0.0000 0.0000 0.0000 38.4681
#
#
#
# Elastic Compliance Matrix: (Units=1/GPa)
#
#
# Indices 1 2 3 4 5 6 
#
# 1 0.014851 -0.002854 -0.003417 0.000000 0.000000 0.000000
# 2 -0.002854 0.014851 -0.003417 0.000000 0.000000 0.000000
# 3 -0.003417 -0.003417 0.008864 0.000000 0.000000 0.000000
# 4 0.000000 0.000000 0.000000 0.030692 0.000000 0.000000
# 5 0.000000 0.000000 0.000000 0.000000 0.030692 0.000000
# 6 0.000000 0.000000 0.000000 0.000000 0.000000 0.025996
#
#
# Mechanical properties :
#
#
# Convention : Reuss Voigt Hill
#
# Bulk Modulus (GPa) = 52.10452 58.08930 55.09691
# Shear Modulus (GPa) = 32.95603 34.08228 33.51915
#
# Velocity S-wave (km/s) = 4.12956 4.19953 4.16470
# Velocity P-wave (km/s) = 7.04979 7.31939 7.18585
#
# Compressibility (1/GPa) = 0.01919219
#
# Stress axis : x y z
#
# Youngs Moduli (GPa) = 67.33564 67.33564 112.81328
#
# Poissons Ratio (x) = 0.19215 0.38545
# Poissons Ratio (y) = 0.19215 0.38545
# Poissons Ratio (z) = 0.23006 0.23006
#
# Static dielectric constant tensor:
#      x y z
#    x 1.658260 0.000000 0.000000 
#    y 0.000000 1.658260 0.000000 
#    z 0.000000 0.000000 1.638510 
# 
# From -- ./inp_files/3965.got.cif
#   From: 2010.05.17/outbox.cif.g08.bks.cpg/sg138_2_cif.got.tgz:3965.got - 2010.05.20 13:08:53.
