data_PCOD9570613
_publ_section_title
;
Structure prediction by ZEFSAII (Michael W. Deem and Ramdas Pophale) SiO2 
 PCOD9570613
Probable space group: P 42/N C M
;
_chemical_formula_sum "Si O2"
_cell_formula_units_Z 76
_cell_length_a 17.594484
_cell_length_b 17.594484
_cell_length_c 14.533391
_cell_angle_alpha 90.000000
_cell_angle_beta 90.000000
_cell_angle_gamma 90.000000
_cell_volume 4499.041789
_symmetry_space_group_name_H-M "P 42/N C M"
_symmetry_group_IT_number 138
_space_group.IT_coordinate_system_code '2'
_symmetry_cell_setting 'tetragonal'
loop_
_space_group_symop_operation_xyz
x,y,z
1/2-y,x,1/2+z
1/2-x,1/2-y,z
y,1/2-x,1/2+z
1/2+x,-y,1/2-z
-x,1/2+y,1/2-z
1/2+y,1/2+x,-z
-y,-x,-z
-x,-y,-z
1/2+y,-x,1/2-z
1/2+x,1/2+y,-z
-y,1/2+x,1/2-z
1/2-x,y,1/2+z
x,1/2-y,1/2+z
1/2-y,1/2-x,z
y,x,z
loop_
_atom_site_type_symbol
_atom_site_label
_atom_site_fract_x
_atom_site_fract_y
_atom_site_fract_z
Si Si1 0.250000 0.250000 0.335349
Si Si2 0.063792 0.674122 0.948973
Si Si3 0.131407 0.131407 0.804172
Si Si4 0.864390 0.864390 0.586445
Si Si5 0.012271 0.248583 0.380494
Si Si6 0.259605 0.875241 0.238075
Si Si7 0.577594 0.922407 0.896266
O O1 0.305077 0.194924 0.279143
O O2 0.301093 0.301093 0.400557
O O3 0.090837 0.718942 0.860153
O O4 0.008172 0.605210 0.916299
O O5 0.134435 0.634435 0.000000
O O6 0.020747 0.732158 0.017776
O O7 0.098987 0.098987 0.708294
O O8 0.067146 0.178506 0.861460
O O9 0.878546 0.878546 0.478829
O O10 0.938013 0.828243 0.634128
O O11 0.942703 0.252905 0.310922
O O12 0.326450 0.817187 0.265763
#
# Coordination Sequence:
#
# PCOD9570613 Si02
#       7
#     4  16   8   8  16  16   8
#     4   8  16  30  48  80 116 152 184 230 290 334
#     4  11  21  38  60  86 117 152 193 247 289 350
#     4  10  18  34  58  81 120 153 187 241 281 354
#     4   8  18  32  54  81 115 150 184 241 281 342
#     4  10  20  38  57  86 119 150 192 236 292 342
#     4  11  23  39  59  85 113 154 196 240 294 342
#     4  10  19  31  58  87 110 149 200 233 295 335
#
# _framework density 16.892486999999999
#
# number of rings (size 3 to 8) (size 9 to 14) (size 15 to 20)
#    0.000    1.895    4.211    0.316    0.000    1.263 
#    0.000    3.158    0.000    1.263    0.000    0.000 
#    0.000    0.000    0.000    0.000    0.000    0.000 
#
# Total GULP energy -423195.804196 kJ/mol
# GULP energy per Si atom -5568.365845 kJ/mol
# Density = 1.685404 g / cm^3
# Si number density = 16.892487 Si / 1000 Ang^3
#
#
#
# Elastic Constant Matrix: (Units=GPa)
#
#
# Indices 1 2 3 4 5 6 
#
# 1 99.7999 53.9503 61.5170 0.0000 0.0000 0.0000
# 2 53.9503 99.7999 61.5170 0.0000 0.0000 0.0000
# 3 61.5170 61.5170 105.9297 0.0000 0.0000 0.0000
# 4 0.0000 0.0000 0.0000 26.5474 0.0000 0.0000
# 5 0.0000 0.0000 0.0000 0.0000 26.5474 0.0000
# 6 0.0000 0.0000 0.0000 0.0000 0.0000 16.0527
#
#
#
# Elastic Compliance Matrix: (Units=1/GPa)
#
#
# Indices 1 2 3 4 5 6 
#
# 1 0.016981 -0.004830 -0.007056 0.000000 0.000000 0.000000
# 2 -0.004830 0.016981 -0.007056 0.000000 0.000000 0.000000
# 3 -0.007056 -0.007056 0.017636 0.000000 0.000000 0.000000
# 4 0.000000 0.000000 0.000000 0.037669 0.000000 0.000000
# 5 0.000000 0.000000 0.000000 0.000000 0.037669 0.000000
# 6 0.000000 0.000000 0.000000 0.000000 0.000000 0.062295
#
#
# Mechanical properties :
#
#
# Convention : Reuss Voigt Hill
#
# Bulk Modulus (GPa) = 72.92883 73.27756 73.10320
# Shear Modulus (GPa) = 21.58105 22.39915 21.99010
#
# Velocity S-wave (km/s) = 3.57817 3.64536 3.61192
# Velocity P-wave (km/s) = 7.76770 7.82247 7.79513
#
# Compressibility (1/GPa) = 0.01371200
#
# Stress axis : x y z
#
# Youngs Moduli (GPa) = 58.89090 58.89090 56.70254
#
# Poissons Ratio (x) = 0.28444 0.40011
# Poissons Ratio (y) = 0.28444 0.40011
# Poissons Ratio (z) = 0.41555 0.41555
#
# Static dielectric constant tensor:
#      x y z
#    x 1.587470 0.000000 0.000000 
#    y 0.000000 1.587470 0.000000 
#    z 0.000000 0.000000 1.531680 
# 
# From -- ./inp_files/4173.got.cif
#   From: 2010.05.17/outbox.cif.g08.bks.cpg/sg138_3_cif.got.tgz:4173.got - 2010.05.20 13:08:53.
