data_PCOD9570827
_publ_section_title
;
Structure prediction by ZEFSAII (Michael W. Deem and Ramdas Pophale) SiO2 
 PCOD9570827
Probable space group: P 42/N C M
;
_chemical_formula_sum "Si O2"
_cell_formula_units_Z 80
_cell_length_a 12.165669
_cell_length_b 12.165669
_cell_length_c 28.983314
_cell_angle_alpha 90.000000
_cell_angle_beta 90.000000
_cell_angle_gamma 90.000000
_cell_volume 4289.631978
_symmetry_space_group_name_H-M "P 42/N C M"
_symmetry_group_IT_number 138
_space_group.IT_coordinate_system_code '2'
_symmetry_cell_setting 'tetragonal'
loop_
_space_group_symop_operation_xyz
x,y,z
1/2-y,x,1/2+z
1/2-x,1/2-y,z
y,1/2-x,1/2+z
1/2+x,-y,1/2-z
-x,1/2+y,1/2-z
1/2+y,1/2+x,-z
-y,-x,-z
-x,-y,-z
1/2+y,-x,1/2-z
1/2+x,1/2+y,-z
-y,1/2+x,1/2-z
1/2-x,y,1/2+z
x,1/2-y,1/2+z
1/2-y,1/2-x,z
y,x,z
loop_
_atom_site_type_symbol
_atom_site_label
_atom_site_fract_x
_atom_site_fract_y
_atom_site_fract_z
Si Si1 0.026274 0.204984 0.295090
Si Si2 0.840459 0.016488 0.295292
Si Si3 0.515180 0.807986 0.603750
Si Si4 0.221869 0.876852 0.124892
Si Si5 0.918040 0.399946 0.946092
O O1 0.136028 0.136028 0.284458
O O2 0.036517 0.259940 0.345086
O O3 0.926727 0.117218 0.296462
O O4 0.000887 0.292309 0.255468
O O5 0.745571 0.047293 0.331262
O O6 0.909066 0.909066 0.309370
O O7 0.616434 0.883567 0.589175
O O8 0.402806 0.877844 0.607978
O O9 0.487345 0.705477 0.570986
O O10 0.250000 0.750000 0.138102
O O11 0.309006 0.904782 0.084945
O O12 0.992944 0.507057 0.938709
O O13 0.890808 0.390808 0.000000
#
# Coordination Sequence:
#
# PCOD9570827 Si02
#       5
#    16  16  16  16  16
#     4  11  23  37  56  85 119 160 209 254 301 360
#     4  11  22  35  55  82 118 161 205 249 299 355
#     4  11  23  39  62  92 123 156 198 255 308 358
#     4  10  20  37  59  84 118 156 201 243 297 359
#     4  10  21  40  66  93 120 158 204 249 301 363
#
# _framework density 18.649619999999999
#
# number of rings (size 3 to 8) (size 9 to 14) (size 15 to 20)
#    0.000    1.400    4.000    3.000    0.000    8.800 
#    0.000    2.000    0.000    3.000    0.000    0.000 
#    0.000    0.000    0.000    0.000    0.000    0.000 
#
# Total GULP energy -447097.869301 kJ/mol
# GULP energy per Si atom -5588.723366 kJ/mol
# Density = 1.860717 g / cm^3
# Si number density = 18.649620 Si / 1000 Ang^3
#
#
#
# Elastic Constant Matrix: (Units=GPa)
#
#
# Indices 1 2 3 4 5 6 
#
# 1 58.9596 -3.3380 24.8487 0.0000 0.0000 0.0000
# 2 -3.3380 58.9596 24.8487 0.0000 0.0000 0.0000
# 3 24.8487 24.8487 97.9779 0.0000 0.0000 0.0000
# 4 0.0000 0.0000 0.0000 14.5956 0.0000 0.0000
# 5 0.0000 0.0000 0.0000 0.0000 14.5956 0.0000
# 6 0.0000 0.0000 0.0000 0.0000 0.0000 30.0964
#
#
#
# Elastic Compliance Matrix: (Units=1/GPa)
#
#
# Indices 1 2 3 4 5 6 
#
# 1 0.019649 0.003597 -0.005896 0.000000 0.000000 0.000000
# 2 0.003597 0.019649 -0.005896 0.000000 0.000000 0.000000
# 3 -0.005896 -0.005896 0.013197 0.000000 0.000000 0.000000
# 4 0.000000 0.000000 0.000000 0.068514 0.000000 0.000000
# 5 0.000000 0.000000 0.000000 0.000000 0.068514 0.000000
# 6 0.000000 0.000000 0.000000 0.000000 0.000000 0.033227
#
#
# Mechanical properties :
#
#
# Convention : Reuss Voigt Hill
#
# Bulk Modulus (GPa) = 27.69551 34.29067 30.99309
# Shear Modulus (GPa) = 19.90661 23.16005 21.53333
#
# Velocity S-wave (km/s) = 3.27065 3.52781 3.40166
# Velocity P-wave (km/s) = 5.39866 5.91783 5.66420
#
# Compressibility (1/GPa) = 0.03610694
#
# Stress axis : x y z
#
# Youngs Moduli (GPa) = 50.89279 50.89279 75.77571
#
# Poissons Ratio (x) = -0.18307 0.44675
# Poissons Ratio (y) = -0.18307 0.44675
# Poissons Ratio (z) = 0.30005 0.30005
#
# Static dielectric constant tensor:
#      x y z
#    x 1.647660 0.000000 0.000000 
#    y 0.000000 1.647660 0.000000 
#    z 0.000000 0.000000 1.619000 
# 
# From -- ./inp_files/7893.got.cif
#   From: 2010.05.17/outbox.cif.g08.bks.cpg/sg138_4_cif.got.tgz:7893.got - 2010.05.20 13:08:53.
