data_PCOD9570598
_publ_section_title
;
Structure prediction by ZEFSAII (Michael W. Deem and Ramdas Pophale) SiO2 
 PCOD9570598
Probable space group: P 42/N C M
;
_chemical_formula_sum "Si O2"
_cell_formula_units_Z 68
_cell_length_a 10.382114
_cell_length_b 10.382114
_cell_length_c 24.681546
_cell_angle_alpha 90.000000
_cell_angle_beta 90.000000
_cell_angle_gamma 90.000000
_cell_volume 2660.381665
_symmetry_space_group_name_H-M "P 42/N C M"
_symmetry_group_IT_number 138
_space_group.IT_coordinate_system_code '2'
_symmetry_cell_setting 'tetragonal'
loop_
_space_group_symop_operation_xyz
x,y,z
1/2-y,x,1/2+z
1/2-x,1/2-y,z
y,1/2-x,1/2+z
1/2+x,-y,1/2-z
-x,1/2+y,1/2-z
1/2+y,1/2+x,-z
-y,-x,-z
-x,-y,-z
1/2+y,-x,1/2-z
1/2+x,1/2+y,-z
-y,1/2+x,1/2-z
1/2-x,y,1/2+z
x,1/2-y,1/2+z
1/2-y,1/2-x,z
y,x,z
loop_
_atom_site_type_symbol
_atom_site_label
_atom_site_fract_x
_atom_site_fract_y
_atom_site_fract_z
Si Si1 0.750000 0.750000 0.772072
Si Si2 0.843559 0.064638 0.124471
Si Si3 0.239218 0.462662 0.106695
Si Si4 0.741286 0.962552 0.019674
Si Si5 0.743348 0.041068 0.236758
O O1 0.592541 0.748095 0.767141
O O2 0.749170 0.021568 0.171845
O O3 0.912451 0.201566 0.134907
O O4 0.778845 0.063023 0.065492
O O5 0.957785 0.957785 0.123338
O O6 0.106514 0.393487 0.122646
O O7 0.347306 0.347306 0.110980
O O8 0.229993 0.499235 0.042997
O O9 0.611390 0.888611 0.035526
O O10 0.855432 0.855432 0.020115
O O11 0.622061 0.128445 0.250617
#
# Coordination Sequence:
#
# PCOD9570598 Si02
#       5
#     4  16  16  16  16
#     4  12  24  48  80 100 130 186 234 304 366 438
#     4  10  18  31  54  89 127 184 233 282 340 418
#     4   8  14  26  43  78 132 186 236 277 324 404
#     4   8  14  23  43  78 126 179 232 283 327 395
#     4  11  26  47  69 103 143 179 236 300 363 433
#
# _framework density 25.560243
#
# number of rings (size 3 to 8) (size 9 to 14) (size 15 to 20)
#    0.000    2.588    1.176    2.824    1.647    2.824 
#    2.118    0.000    0.000    0.000    0.000   13.176 
#    0.000   15.059    0.000    2.824    2.824    0.000 
#
# Total GULP energy -379871.337589 kJ/mol
# GULP energy per Si atom -5586.343200 kJ/mol
# Density = 2.550207 g / cm^3
# Si number density = 25.560243 Si / 1000 Ang^3
#
#
#
# Elastic Constant Matrix: (Units=GPa)
#
#
# Indices 1 2 3 4 5 6 
#
# 1 107.0046 52.0304 19.0471 0.0000 0.0000 0.0000
# 2 52.0304 107.0046 19.0471 0.0000 0.0000 0.0000
# 3 19.0471 19.0471 93.8886 0.0000 0.0000 0.0000
# 4 0.0000 0.0000 0.0000 19.0114 0.0000 0.0000
# 5 0.0000 0.0000 0.0000 0.0000 19.0114 0.0000
# 6 0.0000 0.0000 0.0000 0.0000 0.0000 25.0221
#
#
#
# Elastic Compliance Matrix: (Units=1/GPa)
#
#
# Indices 1 2 3 4 5 6 
#
# 1 0.012400 -0.005791 -0.001341 0.000000 0.000000 0.000000
# 2 -0.005791 0.012400 -0.001341 0.000000 0.000000 0.000000
# 3 -0.001341 -0.001341 0.011195 0.000000 0.000000 0.000000
# 4 0.000000 0.000000 0.000000 0.052600 0.000000 0.000000
# 5 0.000000 0.000000 0.000000 0.000000 0.052600 0.000000
# 6 0.000000 0.000000 0.000000 0.000000 0.000000 0.039965
#
#
# Mechanical properties :
#
#
# Convention : Reuss Voigt Hill
#
# Bulk Modulus (GPa) = 52.49350 54.23856 53.36603
# Shear Modulus (GPa) = 24.45545 27.12718 25.79132
#
# Velocity S-wave (km/s) = 3.09654 3.26130 3.17999
# Velocity P-wave (km/s) = 5.77637 5.95377 5.86574
#
# Compressibility (1/GPa) = 0.01904998
#
# Stress axis : x y z
#
# Youngs Moduli (GPa) = 80.64689 80.64689 89.32612
#
# Poissons Ratio (x) = 0.46700 0.11977
# Poissons Ratio (y) = 0.46700 0.11977
# Poissons Ratio (z) = 0.10813 0.10813
#
# Static dielectric constant tensor:
#      x y z
#    x 1.963420 0.000000 0.000000 
#    y 0.000000 1.963420 0.000000 
#    z 0.000000 0.000000 2.042330 
# 
# From -- ./inp_files/7429.got.cif
#   From: 2010.05.17/outbox.cif.g08.bks.cpg/sg138_4_cif.got.tgz:7429.got - 2010.05.20 13:08:53.
