data_PCOD9570059
_publ_section_title
;
Structure prediction by ZEFSAII (Michael W. Deem and Ramdas Pophale) SiO2 
 PCOD9570059
Probable space group: P 42/N M C
;
_chemical_formula_sum "Si O2"
_cell_formula_units_Z 96
_cell_length_a 18.685971
_cell_length_b 18.685971
_cell_length_c 16.455236
_cell_angle_alpha 90.000000
_cell_angle_beta 90.000000
_cell_angle_gamma 90.000000
_cell_volume 5745.600907
_symmetry_space_group_name_H-M "P 42/N M C"
_symmetry_group_IT_number 137
_space_group.IT_coordinate_system_code '2'
_symmetry_cell_setting 'tetragonal'
loop_
_space_group_symop_operation_xyz
x,y,z
1/2-y,x,1/2+z
1/2-x,1/2-y,z
y,1/2-x,1/2+z
1/2+x,-y,-z
-x,1/2+y,-z
1/2+y,1/2+x,1/2-z
-y,-x,1/2-z
-x,-y,-z
1/2+y,-x,1/2-z
1/2+x,1/2+y,-z
-y,1/2+x,1/2-z
1/2-x,y,z
x,1/2-y,z
1/2-y,1/2-x,1/2+z
y,x,1/2+z
loop_
_atom_site_type_symbol
_atom_site_label
_atom_site_fract_x
_atom_site_fract_y
_atom_site_fract_z
Si Si1 0.448041 0.166733 0.407381
Si Si2 0.664077 0.109631 0.662746
Si Si3 0.832666 0.048281 0.248837
Si Si4 0.665423 0.956498 0.587871
Si Si5 0.914989 0.166359 0.503271
Si Si6 0.165810 0.539459 0.573543
O O1 0.425742 0.250000 0.410424
O O2 0.497220 0.156504 0.327565
O O3 0.383200 0.112153 0.399050
O O4 0.500911 0.153305 0.484514
O O5 0.637486 0.137486 0.750000
O O6 0.750000 0.123715 0.652753
O O7 0.617434 0.147214 0.591558
O O8 0.654006 0.024156 0.648373
O O9 0.885002 0.114999 0.250000
O O10 0.750000 0.071516 0.247363
O O11 0.845693 0.010680 0.336069
O O12 0.750000 0.939926 0.589050
O O13 0.644916 0.986836 0.498812
O O14 0.902429 0.250000 0.486224
O O15 0.873793 0.114002 0.441945
O O16 0.250000 0.552883 0.562559
#
# Coordination Sequence:
#
# PCOD9570059 Si02
#       6
#    16  16  16  16  16  16
#     4  10  21  36  54  78 107 135 172 223 270 318
#     4  10  21  36  54  80 112 146 181 216 256 308
#     4  10  19  33  50  76 110 140 171 205 250 310
#     4   9  20  39  57  76 100 132 180 226 268 316
#     4  10  19  32  50  77 109 139 175 214 253 306
#     4   9  18  32  52  75 104 139 171 207 250 306
#
# _framework density 16.708434
#
# number of rings (size 3 to 8) (size 9 to 14) (size 15 to 20)
#    0.000    2.333    1.667    2.000    0.000    6.000 
#    3.000    1.667    0.000    0.000    0.000    4.667 
#    0.000    0.000    0.000    0.000    0.000    0.000 
#
# Total GULP energy -534699.072988 kJ/mol
# GULP energy per Si atom -5569.782010 kJ/mol
# Density = 1.667041 g / cm^3
# Si number density = 16.708434 Si / 1000 Ang^3
#
#
#
# Elastic Constant Matrix: (Units=GPa)
#
#
# Indices 1 2 3 4 5 6 
#
# 1 81.2808 70.0300 39.8402 0.0000 0.0000 0.0000
# 2 70.0300 81.2808 39.8459 0.0000 0.0000 0.0000
# 3 39.8402 39.8459 90.4947 0.0000 0.0000 0.0000
# 4 0.0000 0.0000 0.0000 13.3265 0.0000 0.0000
# 5 0.0000 0.0000 0.0000 0.0000 13.3257 0.0000
# 6 0.0000 0.0000 0.0000 0.0000 0.0000 46.6931
#
#
#
# Elastic Compliance Matrix: (Units=1/GPa)
#
#
# Indices 1 2 3 4 5 6 
#
# 1 0.048741 -0.040139 -0.003784 0.000000 0.000000 0.000000
# 2 -0.040139 0.048745 -0.003792 0.000000 0.000000 0.000000
# 3 -0.003784 -0.003792 0.014386 0.000000 0.000000 0.000000
# 4 0.000000 0.000000 0.000000 0.075039 0.000000 0.000000
# 5 0.000000 0.000000 0.000000 0.000000 0.075043 0.000000
# 6 0.000000 0.000000 0.000000 0.000000 0.000000 0.021416
#
#
# Mechanical properties :
#
#
# Convention : Reuss Voigt Hill
#
# Bulk Modulus (GPa) = 60.82236 61.38762 61.10499
# Shear Modulus (GPa) = 13.01126 21.55839 17.28483
#
# Velocity S-wave (km/s) = 2.79359 3.59593 3.21985
# Velocity P-wave (km/s) = 6.84739 7.35263 7.10450
#
# Compressibility (1/GPa) = 0.01644132
#
# Stress axis : x y z
#
# Youngs Moduli (GPa) = 20.51647 20.51484 69.51183
#
# Poissons Ratio (x) = 0.82345 0.26307
# Poissons Ratio (y) = 0.82352 0.26357
# Poissons Ratio (z) = 0.07764 0.07779
#
# Static dielectric constant tensor:
#      x y z
#    x 1.548030 0.000000 0.000000 
#    y 0.000000 1.548040 0.000000 
#    z 0.000000 0.000000 1.604640 
# 
# From -- ./inp_files/6502.got.cif
#   From: 2010.05.17/outbox.cif.g08.bks.cpg/sg137_4_cif.got.tgz:6502.got - 2010.05.20 13:01:12.
