data_PCOD9570635
_publ_section_title
;
Structure prediction by ZEFSAII (Michael W. Deem and Ramdas Pophale) SiO2 
 PCOD9570635
Probable space group: P 42/N C M
;
_chemical_formula_sum "Si O2"
_cell_formula_units_Z 112
_cell_length_a 16.873784
_cell_length_b 16.873784
_cell_length_c 21.163821
_cell_angle_alpha 90.000000
_cell_angle_beta 90.000000
_cell_angle_gamma 90.000000
_cell_volume 6025.860183
_symmetry_space_group_name_H-M "P 42/N C M"
_symmetry_group_IT_number 138
_space_group.IT_coordinate_system_code '2'
_symmetry_cell_setting 'tetragonal'
loop_
_space_group_symop_operation_xyz
x,y,z
1/2-y,x,1/2+z
1/2-x,1/2-y,z
y,1/2-x,1/2+z
1/2+x,-y,1/2-z
-x,1/2+y,1/2-z
1/2+y,1/2+x,-z
-y,-x,-z
-x,-y,-z
1/2+y,-x,1/2-z
1/2+x,1/2+y,-z
-y,1/2+x,1/2-z
1/2-x,y,1/2+z
x,1/2-y,1/2+z
1/2-y,1/2-x,z
y,x,z
loop_
_atom_site_type_symbol
_atom_site_label
_atom_site_fract_x
_atom_site_fract_y
_atom_site_fract_z
Si Si1 0.284163 0.417622 0.023346
Si Si2 0.684460 0.179200 0.101175
Si Si3 0.121521 0.257246 0.886595
Si Si4 0.746865 0.619540 0.834070
Si Si5 0.360037 0.819767 0.762484
Si Si6 0.407173 0.774852 0.501671
Si Si7 0.169937 0.033693 0.778775
O O1 0.356583 0.356583 0.021621
O O2 0.233003 0.399387 0.960530
O O3 0.308140 0.507468 0.012361
O O4 0.247988 0.409214 0.093278
O O5 0.750000 0.250000 0.112019
O O6 0.641930 0.154910 0.164816
O O7 0.730013 0.107241 0.067588
O O8 0.621034 0.214294 0.052433
O O9 0.162336 0.337665 0.862148
O O10 0.190197 0.190197 0.884583
O O11 0.054997 0.220768 0.841243
O O12 0.809841 0.690160 0.827301
O O13 0.660657 0.660657 0.823997
O O14 0.774887 0.557241 0.781532
O O15 0.352573 0.723604 0.763553
O O16 0.439816 0.845817 0.727142
O O17 0.344393 0.844393 0.500000
O O18 0.091746 0.091746 0.778060
#
# Coordination Sequence:
#
# PCOD9570635 Si02
#       7
#    16  16  16  16  16  16  16
#     4  10  19  30  49  80 110 140 178 223 271 322
#     4   9  17  35  53  77  94 131 189 226 262 309
#     4   9  18  33  52  76 108 146 185 221 267 334
#     4   9  17  32  54  77 104 143 187 223 261 319
#     4  11  22  36  59  81 105 143 185 227 268 332
#     4   9  19  31  53  72 103 137 175 228 266 319
#     4  10  21  36  56  82 112 143 179 230 286 330
#
# _framework density 18.586558
#
# number of rings (size 3 to 8) (size 9 to 14) (size 15 to 20)
#    0.000    2.429    1.429    2.571    2.000    3.714 
#    0.000    1.429    0.000    4.286    0.000    5.000 
#    0.000    0.000    0.000    0.000    0.000    0.000 
#
# Total GULP energy -623783.121523 kJ/mol
# GULP energy per Si atom -5569.492156 kJ/mol
# Density = 1.854425 g / cm^3
# Si number density = 18.586558 Si / 1000 Ang^3
#
#
#
# Elastic Constant Matrix: (Units=GPa)
#
#
# Indices 1 2 3 4 5 6 
#
# 1 48.7467 2.7363 12.3655 0.0000 0.0000 0.0000
# 2 2.7363 48.7467 12.3655 0.0000 0.0000 0.0000
# 3 12.3655 12.3655 73.2106 0.0000 0.0000 0.0000
# 4 0.0000 0.0000 0.0000 6.3813 0.0000 0.0000
# 5 0.0000 0.0000 0.0000 0.0000 6.3813 0.0000
# 6 0.0000 0.0000 0.0000 0.0000 0.0000 1.7448
#
#
#
# Elastic Compliance Matrix: (Units=1/GPa)
#
#
# Indices 1 2 3 4 5 6 
#
# 1 0.021437 -0.000298 -0.003570 0.000000 0.000000 0.000000
# 2 -0.000298 0.021437 -0.003570 0.000000 0.000000 0.000000
# 3 -0.003570 -0.003570 0.014865 0.000000 0.000000 0.000000
# 4 0.000000 0.000000 0.000000 0.156708 0.000000 0.000000
# 5 0.000000 0.000000 0.000000 0.000000 0.156708 0.000000
# 6 0.000000 0.000000 0.000000 0.000000 0.000000 0.573125
#
#
# Mechanical properties :
#
#
# Convention : Reuss Voigt Hill
#
# Bulk Modulus (GPa) = 23.33087 25.07093 24.20090
# Shear Modulus (GPa) = 5.13641 12.45060 8.79350
#
# Velocity S-wave (km/s) = 1.66418 2.59100 2.17747
# Velocity P-wave (km/s) = 4.03392 4.74015 4.40122
#
# Compressibility (1/GPa) = 0.04286167
#
# Stress axis : x y z
#
# Youngs Moduli (GPa) = 46.64912 46.64912 67.27058
#
# Poissons Ratio (x) = 0.01388 0.24019
# Poissons Ratio (y) = 0.01388 0.24019
# Poissons Ratio (z) = 0.16656 0.16656
#
# Static dielectric constant tensor:
#      x y z
#    x 1.654130 0.000000 0.000000 
#    y 0.000000 1.654130 0.000000 
#    z 0.000000 0.000000 1.700760 
# 
# From -- ./inp_files/6433.got.cif
#   From: 2010.05.17/outbox.cif.g08.bks.cpg/sg138_4_cif.got.tgz:6433.got - 2010.05.20 13:08:53.
