data_PCOD9570124
_publ_section_title
;
Structure prediction by ZEFSAII (Michael W. Deem and Ramdas Pophale) SiO2 
 PCOD9570124
Probable space group: P 42/N M C
;
_chemical_formula_sum "Si O2"
_cell_formula_units_Z 96
_cell_length_a 14.610747
_cell_length_b 14.610747
_cell_length_c 23.279460
_cell_angle_alpha 90.000000
_cell_angle_beta 90.000000
_cell_angle_gamma 90.000000
_cell_volume 4969.557766
_symmetry_space_group_name_H-M "P 42/N M C"
_symmetry_group_IT_number 137
_space_group.IT_coordinate_system_code '2'
_symmetry_cell_setting 'tetragonal'
loop_
_space_group_symop_operation_xyz
x,y,z
1/2-y,x,1/2+z
1/2-x,1/2-y,z
y,1/2-x,1/2+z
1/2+x,-y,-z
-x,1/2+y,-z
1/2+y,1/2+x,1/2-z
-y,-x,1/2-z
-x,-y,-z
1/2+y,-x,1/2-z
1/2+x,1/2+y,-z
-y,1/2+x,1/2-z
1/2-x,y,z
x,1/2-y,z
1/2-y,1/2-x,1/2+z
y,x,1/2+z
loop_
_atom_site_type_symbol
_atom_site_label
_atom_site_fract_x
_atom_site_fract_y
_atom_site_fract_z
Si Si1 0.489092 0.491468 0.315811
Si Si2 0.884934 0.351543 0.990868
Si Si3 0.639544 0.641589 0.116246
Si Si4 0.144831 0.470767 0.594247
Si Si5 0.849322 0.937680 0.996788
Si Si6 0.853834 0.140421 0.642605
O O1 0.517173 0.482828 0.250000
O O2 0.419348 0.412773 0.337033
O O3 0.579155 0.491927 0.356060
O O4 0.431570 0.585667 0.323944
O O5 0.841822 0.250000 0.998894
O O6 0.844834 0.452788 0.001767
O O7 0.963210 0.350528 0.038807
O O8 0.899507 0.354166 0.922301
O O9 0.750000 0.629337 0.121044
O O10 0.620022 0.750000 0.120502
O O11 0.605292 0.603277 0.054212
O O12 0.250000 0.452140 0.611996
O O13 0.091308 0.387752 0.564467
O O14 0.750000 0.895077 0.999287
O O15 0.750000 0.127209 0.665720
O O16 0.869789 0.250000 0.639048
#
# Coordination Sequence:
#
# PCOD9570124 Si02
#       6
#    16  16  16  16  16  16
#     4  12  25  41  62  84 115 164 215 258 304 355
#     4  10  19  34  60  90 122 157 193 240 305 374
#     4  10  22  41  65  93 122 157 203 255 311 372
#     4  11  23  39  59  86 121 159 202 253 308 366
#     4  11  20  35  61  93 129 160 193 244 313 381
#     4  10  21  37  59  91 127 157 190 239 301 372
#
# _framework density 19.317613999999999
#
# number of rings (size 3 to 8) (size 9 to 14) (size 15 to 20)
#    0.000    1.333    3.333    3.000    0.000    5.333 
#    0.000    0.833    0.000    0.500    0.000    1.167 
#    0.000    0.000    0.000    0.000    0.000    0.000 
#
# Total GULP energy -534619.837988 kJ/mol
# GULP energy per Si atom -5568.956646 kJ/mol
# Density = 1.927365 g / cm^3
# Si number density = 19.317614 Si / 1000 Ang^3
#
#
#
# Elastic Constant Matrix: (Units=GPa)
#
#
# Indices 1 2 3 4 5 6 
#
# 1 93.7235 47.3314 32.4309 0.0000 0.0000 0.0000
# 2 47.3314 93.7243 32.4315 0.0000 0.0000 0.0000
# 3 32.4309 32.4315 100.5326 0.0000 0.0000 0.0000
# 4 0.0000 0.0000 0.0000 271.9314 0.0000 0.0000
# 5 0.0000 0.0000 0.0000 0.0000 271.9243 0.0000
# 6 0.0000 0.0000 0.0000 0.0000 0.0000 91.1757
#
#
#
# Elastic Compliance Matrix: (Units=1/GPa)
#
#
# Indices 1 2 3 4 5 6 
#
# 1 0.014940 -0.006615 -0.002685 0.000000 0.000000 0.000000
# 2 -0.006615 0.014940 -0.002685 0.000000 0.000000 0.000000
# 3 -0.002685 -0.002685 0.011680 0.000000 0.000000 0.000000
# 4 0.000000 0.000000 0.000000 0.003677 0.000000 0.000000
# 5 0.000000 0.000000 0.000000 0.000000 0.003677 0.000000
# 6 0.000000 0.000000 0.000000 0.000000 0.000000 0.010968
#
#
# Mechanical properties :
#
#
# Convention : Reuss Voigt Hill
#
# Bulk Modulus (GPa) = 56.86128 56.92979 56.89553
# Shear Modulus (GPa) = 55.73121 138.72540 97.22830
#
# Velocity S-wave (km/s) = 5.37704 8.48344 7.10216
# Velocity P-wave (km/s) = 8.24918 11.20236 9.83722
#
# Compressibility (1/GPa) = 0.01758666
#
# Stress axis : x y z
#
# Youngs Moduli (GPa) = 66.93547 66.93579 85.61954
#
# Poissons Ratio (x) = 0.44281 0.22991
# Poissons Ratio (y) = 0.44281 0.22992
# Poissons Ratio (z) = 0.17974 0.17975
#
# Static dielectric constant tensor:
#      x y z
#    x 1.702570 0.000000 0.000000 
#    y 0.000000 1.702570 0.000000 
#    z 0.000000 0.000000 1.644300 
# 
# From -- ./inp_files/7846.got.cif
#   From: 2010.05.17/outbox.cif.g08.bks.cpg/sg137_4_cif.got.tgz:7846.got - 2010.05.20 13:01:12.
