data_PCOD9570957
_publ_section_title
;
Structure prediction by ZEFSAII (Michael W. Deem and Ramdas Pophale) SiO2 
 PCOD9570957
Probable space group: P 42/N C M
;
_chemical_formula_sum "Si O2"
_cell_formula_units_Z 96
_cell_length_a 21.231396
_cell_length_b 21.231396
_cell_length_c 10.220259
_cell_angle_alpha 90.000000
_cell_angle_beta 90.000000
_cell_angle_gamma 90.000000
_cell_volume 4607.008390
_symmetry_space_group_name_H-M "P 42/N C M"
_symmetry_group_IT_number 138
_space_group.IT_coordinate_system_code '2'
_symmetry_cell_setting 'tetragonal'
loop_
_space_group_symop_operation_xyz
x,y,z
1/2-y,x,1/2+z
1/2-x,1/2-y,z
y,1/2-x,1/2+z
1/2+x,-y,1/2-z
-x,1/2+y,1/2-z
1/2+y,1/2+x,-z
-y,-x,-z
-x,-y,-z
1/2+y,-x,1/2-z
1/2+x,1/2+y,-z
-y,1/2+x,1/2-z
1/2-x,y,1/2+z
x,1/2-y,1/2+z
1/2-y,1/2-x,z
y,x,z
loop_
_atom_site_type_symbol
_atom_site_label
_atom_site_fract_x
_atom_site_fract_y
_atom_site_fract_z
Si Si1 0.500730 0.896006 0.263311
Si Si2 0.376002 0.514958 0.750685
Si Si3 0.625947 0.256289 0.438521
Si Si4 0.660124 0.559907 0.502956
Si Si5 0.855810 0.317461 0.201352
Si Si6 0.299407 0.490417 0.999865
O O1 0.440391 0.944011 0.268118
O O2 0.516716 0.866931 0.121071
O O3 0.501895 0.839247 0.367461
O O4 0.559425 0.940575 0.297746
O O5 0.370501 0.468250 0.629296
O O6 0.328224 0.570525 0.710677
O O7 0.349830 0.481219 0.881347
O O8 0.662178 0.209859 0.340889
O O9 0.621322 0.318080 0.345304
O O10 0.654989 0.273530 0.577111
O O11 0.558841 0.228623 0.469762
O O12 0.629409 0.629409 0.521795
O O13 0.736768 0.553905 0.496858
#
# Coordination Sequence:
#
# PCOD9570957 Si02
#       6
#    16  16  16  16  16  16
#     4  11  25  42  65 100 134 164 211 276 340 395
#     4  11  22  37  64  94 130 173 213 271 329 392
#     4  10  22  37  55  81 113 163 218 265 312 369
#     4  11  23  40  65  96 131 172 219 267 321 390
#     4  10  22  36  56  81 116 167 219 267 309 371
#     4  11  23  41  64  91 130 173 214 260 331 399
#
# _framework density 20.837817999999999
#
# number of rings (size 3 to 8) (size 9 to 14) (size 15 to 20)
#    0.000    1.333    1.667    3.500    7.000    4.333 
#    0.000    1.667    0.000    0.500    0.000    2.333 
#    0.000    0.000    0.000    0.000    0.000    0.000 
#
# Total GULP energy -535093.742553 kJ/mol
# GULP energy per Si atom -5573.893152 kJ/mol
# Density = 2.079039 g / cm^3
# Si number density = 20.837818 Si / 1000 Ang^3
#
#
#
# Elastic Constant Matrix: (Units=GPa)
#
#
# Indices 1 2 3 4 5 6 
#
# 1 76.5413 48.1803 54.4698 0.0000 0.0000 0.0000
# 2 48.1803 76.5413 54.4698 0.0000 0.0000 0.0000
# 3 54.4698 54.4698 138.1864 0.0000 0.0000 0.0000
# 4 0.0000 0.0000 0.0000 26.1473 0.0000 0.0000
# 5 0.0000 0.0000 0.0000 0.0000 26.1473 0.0000
# 6 0.0000 0.0000 0.0000 0.0000 0.0000 32.2204
#
#
#
# Elastic Compliance Matrix: (Units=1/GPa)
#
#
# Indices 1 2 3 4 5 6 
#
# 1 0.023744 -0.011516 -0.004820 0.000000 0.000000 0.000000
# 2 -0.011516 0.023744 -0.004820 0.000000 0.000000 0.000000
# 3 -0.004820 -0.004820 0.011036 0.000000 0.000000 0.000000
# 4 0.000000 0.000000 0.000000 0.038245 0.000000 0.000000
# 5 0.000000 0.000000 0.000000 0.000000 0.038245 0.000000
# 6 0.000000 0.000000 0.000000 0.000000 0.000000 0.031036
#
#
# Mechanical properties :
#
#
# Convention : Reuss Voigt Hill
#
# Bulk Modulus (GPa) = 61.68108 67.27875 64.47991
# Shear Modulus (GPa) = 23.39011 25.84629 24.61820
#
# Velocity S-wave (km/s) = 3.35398 3.52569 3.44091
# Velocity P-wave (km/s) = 6.68309 6.99506 6.84086
#
# Compressibility (1/GPa) = 0.01621243
#
# Stress axis : x y z
#
# Youngs Moduli (GPa) = 42.11628 42.11628 90.60912
#
# Poissons Ratio (x) = 0.48501 0.43673
# Poissons Ratio (y) = 0.48501 0.43673
# Poissons Ratio (z) = 0.20300 0.20300
#
# Static dielectric constant tensor:
#      x y z
#    x 1.788130 0.000000 0.000000 
#    y 0.000000 1.788130 0.000000 
#    z 0.000000 0.000000 1.771540 
# 
# From -- ./inp_files/3241.got.cif
#   From: 2010.05.17/outbox.cif.g08.bks.cpg/sg138_2_cif.got.tgz:3241.got - 2010.05.20 13:08:53.
