data_PCOD9570228
_publ_section_title
;
Structure prediction by ZEFSAII (Michael W. Deem and Ramdas Pophale) SiO2 
 PCOD9570228
Probable space group: P 42/N M C
;
_chemical_formula_sum "Si O2"
_cell_formula_units_Z 58
_cell_length_a 17.325812
_cell_length_b 17.325812
_cell_length_c 8.328884
_cell_angle_alpha 90.000000
_cell_angle_beta 90.000000
_cell_angle_gamma 90.000000
_cell_volume 2500.195728
_symmetry_space_group_name_H-M "P 42/N M C"
_symmetry_group_IT_number 137
_space_group.IT_coordinate_system_code '2'
_symmetry_cell_setting 'tetragonal'
loop_
_space_group_symop_operation_xyz
x,y,z
1/2-y,x,1/2+z
1/2-x,1/2-y,z
y,1/2-x,1/2+z
1/2+x,-y,-z
-x,1/2+y,-z
1/2+y,1/2+x,1/2-z
-y,-x,1/2-z
-x,-y,-z
1/2+y,-x,1/2-z
1/2+x,1/2+y,-z
-y,1/2+x,1/2-z
1/2-x,y,z
x,1/2-y,z
1/2-y,1/2-x,1/2+z
y,x,1/2+z
loop_
_atom_site_type_symbol
_atom_site_label
_atom_site_fract_x
_atom_site_fract_y
_atom_site_fract_z
Si Si1 0.750000 0.250000 0.250000
Si Si2 0.160413 0.750000 0.044350
Si Si3 0.337226 0.405597 0.322613
Si Si4 0.977225 0.665608 0.536772
Si Si5 0.558898 0.100846 0.922768
O O1 0.750000 0.172493 0.353352
O O2 0.250000 0.750000 0.093577
O O3 0.115050 0.825841 0.092552
O O4 0.250000 0.379364 0.359674
O O5 0.405573 0.344940 0.344213
O O6 0.364088 0.474330 0.443448
O O7 0.335206 0.441251 0.143573
O O8 0.014674 0.750000 0.557390
O O9 0.040012 0.597110 0.544162
O O10 0.559050 0.059050 0.750000
#
# Coordination Sequence:
#
# PCOD9570228 Si02
#       5
#     2   8  16  16  16
#     4   8  24  36  42  84 136 156 184 242 268 368
#     4  10  20  35  52  81 121 159 186 230 287 345
#     4  10  21  40  59  86 119 151 199 244 295 353
#     4  10  22  39  59  89 118 150 200 246 292 355
#     4  10  20  36  62  87 112 148 194 248 290 352
#
# _framework density 23.198183
#
# number of rings (size 3 to 8) (size 9 to 14) (size 15 to 20)
#    0.414    1.655    1.379    1.655    3.862    1.655 
#    4.966    2.759    0.000    0.000    0.000    0.000 
#    0.000    0.000    0.000    0.000    0.000    0.000 
#
# Total GULP energy -323674.014508 kJ/mol
# GULP energy per Si atom -5580.586457 kJ/mol
# Density = 2.314538 g / cm^3
# Si number density = 23.198183 Si / 1000 Ang^3
#
#
#
# Elastic Constant Matrix: (Units=GPa)
#
#
# Indices 1 2 3 4 5 6 
#
# 1 63.0980 -7.5942 8.1563 0.0000 0.0000 0.0000
# 2 -7.5942 63.0980 8.1563 0.0000 0.0000 0.0000
# 3 8.1563 8.1563 29.8427 0.0000 0.0000 0.0000
# 4 0.0000 0.0000 0.0000 9.8384 0.0000 0.0000
# 5 0.0000 0.0000 0.0000 0.0000 9.8384 0.0000
# 6 0.0000 0.0000 0.0000 0.0000 0.0000 24.9710
#
#
#
# Elastic Compliance Matrix: (Units=1/GPa)
#
#
# Indices 1 2 3 4 5 6 
#
# 1 0.016868 0.002722 -0.005354 0.000000 0.000000 0.000000
# 2 0.002722 0.016868 -0.005354 0.000000 0.000000 0.000000
# 3 -0.005354 -0.005354 0.036436 0.000000 0.000000 0.000000
# 4 0.000000 0.000000 0.000000 0.101643 0.000000 0.000000
# 5 0.000000 0.000000 0.000000 0.000000 0.101643 0.000000
# 6 0.000000 0.000000 0.000000 0.000000 0.000000 0.040046
#
#
# Mechanical properties :
#
#
# Convention : Reuss Voigt Hill
#
# Bulk Modulus (GPa) = 18.45032 19.27505 18.86269
# Shear Modulus (GPa) = 14.38669 18.75089 16.56879
#
# Velocity S-wave (km/s) = 2.49301 2.84613 2.67540
# Velocity P-wave (km/s) = 4.03205 4.37350 4.20624
#
# Compressibility (1/GPa) = 0.05419960
#
# Stress axis : x y z
#
# Youngs Moduli (GPa) = 59.28338 59.28338 27.44550
#
# Poissons Ratio (x) = -0.16139 0.14695
# Poissons Ratio (y) = -0.16139 0.14695
# Poissons Ratio (z) = 0.31742 0.31742
#
# Static dielectric constant tensor:
#      x y z
#    x 2.003290 0.000000 0.000000 
#    y 0.000000 2.003290 0.000000 
#    z 0.000000 0.000000 1.950110 
# 
# From -- ./inp_files/1571.got.cif
#   From: 2010.05.17/outbox.cif.g08.bks.cpg/sg137_1_cif.got.tgz:1571.got - 2010.05.20 13:01:12.
