data_PCOD9570655
_publ_section_title
;
Structure prediction by ZEFSAII (Michael W. Deem and Ramdas Pophale) SiO2 
 PCOD9570655
Probable space group: P 42/N C M
;
_chemical_formula_sum "Si O2"
_cell_formula_units_Z 64
_cell_length_a 14.664187
_cell_length_b 14.664187
_cell_length_c 13.085774
_cell_angle_alpha 90.000000
_cell_angle_beta 90.000000
_cell_angle_gamma 90.000000
_cell_volume 2813.943647
_symmetry_space_group_name_H-M "P 42/N C M"
_symmetry_group_IT_number 138
_space_group.IT_coordinate_system_code '2'
_symmetry_cell_setting 'tetragonal'
loop_
_space_group_symop_operation_xyz
x,y,z
1/2-y,x,1/2+z
1/2-x,1/2-y,z
y,1/2-x,1/2+z
1/2+x,-y,1/2-z
-x,1/2+y,1/2-z
1/2+y,1/2+x,-z
-y,-x,-z
-x,-y,-z
1/2+y,-x,1/2-z
1/2+x,1/2+y,-z
-y,1/2+x,1/2-z
1/2-x,y,1/2+z
x,1/2-y,1/2+z
1/2-y,1/2-x,z
y,x,z
loop_
_atom_site_type_symbol
_atom_site_label
_atom_site_fract_x
_atom_site_fract_y
_atom_site_fract_z
Si Si1 0.470431 0.323814 0.090593
Si Si2 0.278975 0.425922 0.772159
Si Si3 0.575924 0.078968 0.234436
Si Si4 0.490176 0.156788 0.946750
O O1 0.409802 0.409802 0.049629
O O2 0.405043 0.264048 0.163128
O O3 0.546340 0.362348 0.169951
O O4 0.507904 0.246769 0.014391
O O5 0.352631 0.352631 0.803312
O O6 0.329013 0.523476 0.760319
O O7 0.201049 0.433080 0.854331
O O8 0.499012 0.000989 0.228667
O O9 0.617766 0.075565 0.119486
O O10 0.425159 0.074842 0.990719
#
# Coordination Sequence:
#
# PCOD9570655 Si02
#       4
#    16  16  16  16
#     4  10  20  33  51  77 108 137 168 213 265 314
#     4  10  19  32  52  74 103 142 178 216 254 302
#     4   8  18  35  50  72 104 139 179 212 250 306
#     4  10  20  33  51  77 108 137 168 213 265 314
#
# _framework density 22.743880000000001
#
# number of rings (size 3 to 8) (size 9 to 14) (size 15 to 20)
#    0.000    2.500    0.000    3.750    0.000    6.500 
#    0.000    7.500    0.000   12.000    0.000   14.000 
#    0.000    0.000    0.000    0.000    0.000    0.000 
#
# Total GULP energy -356623.726797 kJ/mol
# GULP energy per Si atom -5572.245731 kJ/mol
# Density = 2.269211 g / cm^3
# Si number density = 22.743880 Si / 1000 Ang^3
#
#
#
# Elastic Constant Matrix: (Units=GPa)
#
#
# Indices 1 2 3 4 5 6 
#
# 1 -7.7773 146.8423 22.2511 0.0000 0.0000 0.0000
# 2 146.8423 -7.7773 22.2511 0.0000 0.0000 0.0000
# 3 22.2511 22.2511 72.5515 0.0000 0.0000 0.0000
# 4 0.0000 0.0000 0.0000 16.5515 0.0000 0.0000
# 5 0.0000 0.0000 0.0000 0.0000 16.5515 0.0000
# 6 0.0000 0.0000 0.0000 0.0000 0.0000 38.8692
#
#
#
# Elastic Compliance Matrix: (Units=1/GPa)
#
#
# Indices 1 2 3 4 5 6 
#
# 1 0.000753 0.007220 -0.002445 0.000000 0.000000 0.000000
# 2 0.007220 0.000753 -0.002445 0.000000 0.000000 0.000000
# 3 -0.002445 -0.002445 0.015283 0.000000 0.000000 0.000000
# 4 0.000000 0.000000 0.000000 0.060417 0.000000 0.000000
# 5 0.000000 0.000000 0.000000 0.000000 0.060417 0.000000
# 6 0.000000 0.000000 0.000000 0.000000 0.000000 0.025727
#
#
# Mechanical properties :
#
#
# Convention : Reuss Voigt Hill
#
# Bulk Modulus (GPa) = 46.62321 48.85399 47.73860
# Shear Modulus (GPa) = 30.14926 5.43795 17.79360
#
# Velocity S-wave (km/s) = 3.64483 1.54795 2.80008
# Velocity P-wave (km/s) = 6.18520 4.97208 5.61152
#
# Compressibility (1/GPa) = 0.02144855
#
# Stress axis : x y z
#
# Youngs Moduli (GPa) = 1328.06608 1328.06608 65.43097
#
# Poissons Ratio (x) = -9.58925 0.16000
# Poissons Ratio (y) = -9.58925 0.16000
# Poissons Ratio (z) = 3.24765 3.24765
#
# Static dielectric constant tensor:
#      x y z
#    x 1.858780 0.000000 0.000000 
#    y 0.000000 1.858780 0.000000 
#    z 0.000000 0.000000 1.917790 
# 
# From -- ./inp_files/3900.got.cif
#   From: 2010.05.17/outbox.cif.g08.bks.cpg/sg138_2_cif.got.tgz:3900.got - 2010.05.20 13:08:53.
