data_PCOD9570444
_publ_section_title
;
Structure prediction by ZEFSAII (Michael W. Deem and Ramdas Pophale) SiO2 
 PCOD9570444
Probable space group: P 42/N M C
;
_chemical_formula_sum "Si O2"
_cell_formula_units_Z 64
_cell_length_a 11.955258
_cell_length_b 11.955258
_cell_length_c 22.573715
_cell_angle_alpha 90.000000
_cell_angle_beta 90.000000
_cell_angle_gamma 90.000000
_cell_volume 3226.420313
_symmetry_space_group_name_H-M "P 42/N M C"
_symmetry_group_IT_number 137
_space_group.IT_coordinate_system_code '2'
_symmetry_cell_setting 'tetragonal'
loop_
_space_group_symop_operation_xyz
x,y,z
1/2-y,x,1/2+z
1/2-x,1/2-y,z
y,1/2-x,1/2+z
1/2+x,-y,-z
-x,1/2+y,-z
1/2+y,1/2+x,1/2-z
-y,-x,1/2-z
-x,-y,-z
1/2+y,-x,1/2-z
1/2+x,1/2+y,-z
-y,1/2+x,1/2-z
1/2-x,y,z
x,1/2-y,z
1/2-y,1/2-x,1/2+z
y,x,1/2+z
loop_
_atom_site_type_symbol
_atom_site_label
_atom_site_fract_x
_atom_site_fract_y
_atom_site_fract_z
Si Si1 0.878177 0.967505 0.213231
Si Si2 0.621275 0.750000 0.296802
Si Si3 0.250000 0.626957 0.139761
Si Si4 0.622716 0.877322 0.979740
Si Si5 0.983812 0.434622 0.906278
O O1 0.750000 0.988165 0.196111
O O2 0.881913 0.859604 0.255780
O O3 0.952527 0.943562 0.155574
O O4 0.931035 0.068966 0.250000
O O5 0.750000 0.750000 0.324845
O O6 0.499363 0.750000 0.330371
O O7 0.250000 0.750000 0.172682
O O8 0.365537 0.626093 0.103405
O O9 0.750000 0.921335 0.983241
O O10 0.627196 0.750000 0.961008
O O11 0.550971 0.945725 0.932811
O O12 0.563776 0.883871 0.043620
#
# Coordination Sequence:
#
# PCOD9570444 Si02
#       5
#    16   8   8  16  16
#     4  11  24  42  65  92 126 167 214 261 321 392
#     4  10  24  44  66  96 132 178 214 257 322 407
#     4  12  24  40  66 102 136 166 210 275 334 387
#     4  10  22  41  66  89 120 170 221 262 312 389
#     4  11  23  41  61  95 131 164 209 267 330 377
#
# _framework density 19.836224000000001
#
# number of rings (size 3 to 8) (size 9 to 14) (size 15 to 20)
#    0.000    1.250    3.750    1.500    3.500    2.250 
#    2.250    0.000    0.000    0.000    0.000    0.000 
#    0.000    0.000    0.000    0.000    0.000    0.000 
#
# Total GULP energy -357023.514816 kJ/mol
# GULP energy per Si atom -5578.492419 kJ/mol
# Density = 1.979108 g / cm^3
# Si number density = 19.836224 Si / 1000 Ang^3
#
#
#
# Elastic Constant Matrix: (Units=GPa)
#
#
# Indices 1 2 3 4 5 6 
#
# 1 125.1629 17.2309 21.1972 0.0000 0.0000 0.0000
# 2 17.2309 125.1619 21.1989 0.0000 0.0000 0.0000
# 3 21.1972 21.1989 45.6308 0.0000 0.0000 0.0000
# 4 0.0000 0.0000 0.0000-1358.6576 0.0000 0.0000
# 5 0.0000 0.0000 0.0000 0.0000-1356.8277 0.0000
# 6 0.0000 0.0000 0.0000 0.0000 0.0000 35.1405
#
#
#
# Elastic Compliance Matrix: (Units=1/GPa)
#
#
# Indices 1 2 3 4 5 6 
#
# 1 0.008708 -0.000558 -0.003786 0.000000 0.000000 0.000000
# 2 -0.000558 0.008708 -0.003786 0.000000 0.000000 0.000000
# 3 -0.003786 -0.003786 0.025433 0.000000 0.000000 0.000000
# 4 0.000000 0.000000 0.000000 -0.000736 0.000000 0.000000
# 5 0.000000 0.000000 0.000000 0.000000 -0.000737 0.000000
# 6 0.000000 0.000000 0.000000 0.000000 0.000000 0.028457
#
#
# Mechanical properties :
#
#
# Convention : Reuss Voigt Hill
#
# Bulk Modulus (GPa) = 37.61052 46.13439 41.87245
# Shear Modulus (GPa) = 52.65667 -520.31374 -233.82853
#
# Velocity S-wave (km/s) = 5.15784 -16.21340 -10.86901
# Velocity P-wave (km/s) = 7.38057 18.08842 11.67729
#
# Compressibility (1/GPa) = 0.02658831
#
# Stress axis : x y z
#
# Youngs Moduli (GPa) = 114.84327 114.84068 39.31928
#
# Poissons Ratio (x) = 0.06403 0.14886
# Poissons Ratio (y) = 0.06403 0.14888
# Poissons Ratio (z) = 0.43479 0.43483
#
# Static dielectric constant tensor:
#      x y z
#    x 1.716790 0.000000 0.000000 
#    y 0.000000 1.716790 0.000000 
#    z 0.000000 0.000000 1.688560 
# 
# From -- ./inp_files/8585.got.cif
#   From: 2010.05.17/outbox.cif.g08.bks.cpg/sg137_5_cif.got.tgz:8585.got - 2010.05.20 13:01:12.
