data_PCOD9570579
_publ_section_title
;
Structure prediction by ZEFSAII (Michael W. Deem and Ramdas Pophale) SiO2 
 PCOD9570579
Probable space group: P 42/N C M
;
_chemical_formula_sum "Si O2"
_cell_formula_units_Z 128
_cell_length_a 17.101719
_cell_length_b 17.101719
_cell_length_c 24.708701
_cell_angle_alpha 90.000000
_cell_angle_beta 90.000000
_cell_angle_gamma 90.000000
_cell_volume 7226.523952
_symmetry_space_group_name_H-M "P 42/N C M"
_symmetry_group_IT_number 138
_space_group.IT_coordinate_system_code '2'
_symmetry_cell_setting 'tetragonal'
loop_
_space_group_symop_operation_xyz
x,y,z
1/2-y,x,1/2+z
1/2-x,1/2-y,z
y,1/2-x,1/2+z
1/2+x,-y,1/2-z
-x,1/2+y,1/2-z
1/2+y,1/2+x,-z
-y,-x,-z
-x,-y,-z
1/2+y,-x,1/2-z
1/2+x,1/2+y,-z
-y,1/2+x,1/2-z
1/2-x,y,1/2+z
x,1/2-y,1/2+z
1/2-y,1/2-x,z
y,x,z
loop_
_atom_site_type_symbol
_atom_site_label
_atom_site_fract_x
_atom_site_fract_y
_atom_site_fract_z
Si Si1 0.160347 0.034222 0.214625
Si Si2 0.363340 0.902004 0.317474
Si Si3 0.539214 0.666541 0.333766
Si Si4 0.493553 0.777285 0.170798
Si Si5 0.658394 0.130258 0.799579
Si Si6 0.503320 0.371277 0.435964
Si Si7 0.337242 0.725762 0.896073
Si Si8 0.331281 0.539774 0.554991
O O1 0.106316 0.106316 0.200220
O O2 0.244496 0.039432 0.186397
O O3 0.113790 0.954734 0.197093
O O4 0.181403 0.035988 0.278666
O O5 0.316399 0.984473 0.321465
O O6 0.325229 0.862417 0.263644
O O7 0.345921 0.862326 0.375544
O O8 0.613704 0.613704 0.320326
O O9 0.459526 0.630573 0.308232
O O10 0.524272 0.668877 0.397962
O O11 0.406411 0.811015 0.179697
O O12 0.515110 0.810253 0.111933
O O13 0.729851 0.142836 0.839712
O O14 0.442799 0.442799 0.432351
O O15 0.590994 0.407865 0.433237
O O16 0.502676 0.335441 0.495995
O O17 0.250000 0.750000 0.912796
O O18 0.401470 0.758270 0.937357
#
# Coordination Sequence:
#
# PCOD9570579 Si02
#       8
#    16  16  16  16  16  16  16  16
#     4  11  24  39  56  84 117 148 192 243 291 348
#     4  11  19  33  51  76 110 149 180 224 282 345
#     4  11  20  36  58  82 114 152 194 234 285 338
#     4  11  20  34  52  83 112 146 191 226 280 346
#     4  10  18  29  49  77 109 146 185 218 271 341
#     4  11  20  33  53  76 111 155 190 233 282 336
#     4  11  18  28  48  73 111 149 184 223 268 336
#     4  10  20  34  48  80 112 149 194 230 275 336
#
# _framework density 17.712527000000001
#
# number of rings (size 3 to 8) (size 9 to 14) (size 15 to 20)
#    0.000    1.250    7.500    2.625    0.000    2.250 
#    0.000    4.375    0.000    0.000    0.000    2.625 
#    0.000    4.000    0.000    0.000    0.000    0.000 
#
# Total GULP energy -712989.113771 kJ/mol
# GULP energy per Si atom -5570.227451 kJ/mol
# Density = 1.767221 g / cm^3
# Si number density = 17.712527 Si / 1000 Ang^3
#
#
#
# Elastic Constant Matrix: (Units=GPa)
#
#
# Indices 1 2 3 4 5 6 
#
# 1 45.0280 29.3720 16.0484 0.0000 0.0000 0.0000
# 2 29.3720 45.0280 16.0484 0.0000 0.0000 0.0000
# 3 16.0484 16.0484 95.2687 0.0000 0.0000 0.0000
# 4 0.0000 0.0000 0.0000 8.9655 0.0000 0.0000
# 5 0.0000 0.0000 0.0000 0.0000 8.9655 0.0000
# 6 0.0000 0.0000 0.0000 0.0000 0.0000 21.9502
#
#
#
# Elastic Compliance Matrix: (Units=1/GPa)
#
#
# Indices 1 2 3 4 5 6 
#
# 1 0.039184 -0.024690 -0.002442 0.000000 0.000000 0.000000
# 2 -0.024690 0.039184 -0.002442 0.000000 0.000000 0.000000
# 3 -0.002442 -0.002442 0.011319 0.000000 0.000000 0.000000
# 4 0.000000 0.000000 0.000000 0.111538 0.000000 0.000000
# 5 0.000000 0.000000 0.000000 0.000000 0.111538 0.000000
# 6 0.000000 0.000000 0.000000 0.000000 0.000000 0.045558
#
#
# Mechanical properties :
#
#
# Convention : Reuss Voigt Hill
#
# Bulk Modulus (GPa) = 32.74267 34.25136 33.49702
# Shear Modulus (GPa) = 11.69189 16.23331 13.96260
#
# Velocity S-wave (km/s) = 2.57201 3.03064 2.81070
# Velocity P-wave (km/s) = 5.22935 5.62367 5.43009
#
# Compressibility (1/GPa) = 0.03054119
#
# Stress axis : x y z
#
# Youngs Moduli (GPa) = 25.52082 25.52082 88.34533
#
# Poissons Ratio (x) = 0.63010 0.21570
# Poissons Ratio (y) = 0.63010 0.21570
# Poissons Ratio (z) = 0.06231 0.06231
#
# Static dielectric constant tensor:
#      x y z
#    x 1.636150 0.000000 0.000000 
#    y 0.000000 1.636150 0.000000 
#    z 0.000000 0.000000 1.637770 
# 
# From -- ./inp_files/7195.got.cif
#   From: 2010.05.17/outbox.cif.g08.bks.cpg/sg138_4_cif.got.tgz:7195.got - 2010.05.20 13:08:53.
