data_PCOD9570671
_publ_section_title
;
Structure prediction by ZEFSAII (Michael W. Deem and Ramdas Pophale) SiO2 
 PCOD9570671
Probable space group: P 42/N C M
;
_chemical_formula_sum "Si O2"
_cell_formula_units_Z 112
_cell_length_a 14.646116
_cell_length_b 14.646116
_cell_length_c 29.025385
_cell_angle_alpha 90.000000
_cell_angle_beta 90.000000
_cell_angle_gamma 90.000000
_cell_volume 6226.198006
_symmetry_space_group_name_H-M "P 42/N C M"
_symmetry_group_IT_number 138
_space_group.IT_coordinate_system_code '2'
_symmetry_cell_setting 'tetragonal'
loop_
_space_group_symop_operation_xyz
x,y,z
1/2-y,x,1/2+z
1/2-x,1/2-y,z
y,1/2-x,1/2+z
1/2+x,-y,1/2-z
-x,1/2+y,1/2-z
1/2+y,1/2+x,-z
-y,-x,-z
-x,-y,-z
1/2+y,-x,1/2-z
1/2+x,1/2+y,-z
-y,1/2+x,1/2-z
1/2-x,y,1/2+z
x,1/2-y,1/2+z
1/2-y,1/2-x,z
y,x,z
loop_
_atom_site_type_symbol
_atom_site_label
_atom_site_fract_x
_atom_site_fract_y
_atom_site_fract_z
Si Si1 0.292625 0.571599 0.058706
Si Si2 0.446641 0.714029 0.043588
Si Si3 0.627800 0.481947 0.844312
Si Si4 0.514096 0.133228 0.829613
Si Si5 0.924135 0.421705 0.928535
Si Si6 0.472639 0.165889 0.362738
Si Si7 0.382953 0.814752 0.256946
O O1 0.346275 0.670179 0.056426
O O2 0.327596 0.522651 0.104981
O O3 0.182931 0.569658 0.060522
O O4 0.315202 0.530756 0.008392
O O5 0.450092 0.823924 0.048668
O O6 0.512984 0.674659 0.082380
O O7 0.578947 0.578947 0.835564
O O8 0.547077 0.407017 0.846120
O O9 0.690385 0.444251 0.802867
O O10 0.420774 0.079227 0.826531
O O11 0.567678 0.092977 0.873456
O O12 0.493624 0.237597 0.841036
O O13 0.566673 0.127101 0.781900
O O14 0.994933 0.505068 0.940589
O O15 0.374127 0.125874 0.351749
O O16 0.360573 0.715602 0.235738
#
# Coordination Sequence:
#
# PCOD9570671 Si02
#       7
#    16  16  16  16  16  16  16
#     4  10  19  33  52  77 108 142 180 219 271 323
#     4   9  19  32  51  79 108 141 178 222 271 320
#     4  10  20  35  54  77 106 138 176 221 267 320
#     4  10  20  35  52  75 106 138 173 214 263 315
#     4  10  20  33  52  78 109 143 179 222 269 324
#     4   9  18  34  53  75 103 135 175 219 261 309
#     4  11  21  34  55  82 107 135 171 217 271 322
#
# _framework density 17.988506000000001
#
# number of rings (size 3 to 8) (size 9 to 14) (size 15 to 20)
#    0.000    2.143    1.429    2.143    0.000    3.143 
#    0.000    2.857    0.000    0.429    0.000    2.000 
#    0.000    0.000    0.000    0.000    0.000    0.000 
#
# Total GULP energy -623586.325161 kJ/mol
# GULP energy per Si atom -5567.735046 kJ/mol
# Density = 1.794756 g / cm^3
# Si number density = 17.988506 Si / 1000 Ang^3
#
#
#
# Elastic Constant Matrix: (Units=GPa)
#
#
# Indices 1 2 3 4 5 6 
#
# 1 35.2253 19.3666 5.7062 0.0000 0.0000 0.0000
# 2 19.3666 35.2253 5.7062 0.0000 0.0000 0.0000
# 3 5.7062 5.7062 83.6047 0.0000 0.0000 0.0000
# 4 0.0000 0.0000 0.0000 1.5663 0.0000 0.0000
# 5 0.0000 0.0000 0.0000 0.0000 1.5663 0.0000
# 6 0.0000 0.0000 0.0000 0.0000 0.0000 20.7900
#
#
#
# Elastic Compliance Matrix: (Units=1/GPa)
#
#
# Indices 1 2 3 4 5 6 
#
# 1 0.040820 -0.022237 -0.001268 0.000000 0.000000 0.000000
# 2 -0.022237 0.040820 -0.001268 0.000000 0.000000 0.000000
# 3 -0.001268 -0.001268 0.012134 0.000000 0.000000 0.000000
# 4 0.000000 0.000000 0.000000 0.638451 0.000000 0.000000
# 5 0.000000 0.000000 0.000000 0.000000 0.638451 0.000000
# 6 0.000000 0.000000 0.000000 0.000000 0.000000 0.048100
#
#
# Mechanical properties :
#
#
# Convention : Reuss Voigt Hill
#
# Bulk Modulus (GPa) = 22.61081 23.95705 23.28393
# Shear Modulus (GPa) = 3.37140 13.00295 8.18717
#
# Velocity S-wave (km/s) = 1.37050 2.69150 2.13570
# Velocity P-wave (km/s) = 3.88603 4.79643 4.36503
#
# Compressibility (1/GPa) = 0.04422663
#
# Stress axis : x y z
#
# Youngs Moduli (GPa) = 24.49791 24.49791 82.41186
#
# Poissons Ratio (x) = 0.54476 0.10452
# Poissons Ratio (y) = 0.54476 0.10452
# Poissons Ratio (z) = 0.03107 0.03107
#
# Static dielectric constant tensor:
#      x y z
#    x 1.621990 0.000000 0.000000 
#    y 0.000000 1.621990 0.000000 
#    z 0.000000 0.000000 1.649920 
# 
# From -- ./inp_files/7601.got.cif
#   From: 2010.05.17/outbox.cif.g08.bks.cpg/sg138_4_cif.got.tgz:7601.got - 2010.05.20 13:08:53.
