data_PCOD9570980
_publ_section_title
;
Structure prediction by ZEFSAII (Michael W. Deem and Ramdas Pophale) SiO2 
 PCOD9570980
Probable space group: P 42/N C M
;
_chemical_formula_sum "Si O2"
_cell_formula_units_Z 112
_cell_length_a 14.963777
_cell_length_b 14.963777
_cell_length_c 25.470725
_cell_angle_alpha 90.000000
_cell_angle_beta 90.000000
_cell_angle_gamma 90.000000
_cell_volume 5703.267763
_symmetry_space_group_name_H-M "P 42/N C M"
_symmetry_group_IT_number 138
_space_group.IT_coordinate_system_code '2'
_symmetry_cell_setting 'tetragonal'
loop_
_space_group_symop_operation_xyz
x,y,z
1/2-y,x,1/2+z
1/2-x,1/2-y,z
y,1/2-x,1/2+z
1/2+x,-y,1/2-z
-x,1/2+y,1/2-z
1/2+y,1/2+x,-z
-y,-x,-z
-x,-y,-z
1/2+y,-x,1/2-z
1/2+x,1/2+y,-z
-y,1/2+x,1/2-z
1/2-x,y,1/2+z
x,1/2-y,1/2+z
1/2-y,1/2-x,z
y,x,z
loop_
_atom_site_type_symbol
_atom_site_label
_atom_site_fract_x
_atom_site_fract_y
_atom_site_fract_z
Si Si1 0.373876 0.972919 0.545169
Si Si2 0.562729 0.177912 0.257634
Si Si3 0.251620 0.108443 0.212603
Si Si4 0.595876 0.043838 0.083435
Si Si5 0.463804 0.175989 0.022102
Si Si6 0.808986 0.163419 0.665558
Si Si7 0.881647 0.472307 0.338491
O O1 0.403039 0.903039 0.500000
O O2 0.365857 0.930255 0.603838
O O3 0.450302 0.049699 0.545603
O O4 0.279445 0.019269 0.532476
O O5 0.457758 0.198268 0.252827
O O6 0.609164 0.253068 0.291947
O O7 0.602452 0.186025 0.198962
O O8 0.595321 0.090255 0.288930
O O9 0.327270 0.172731 0.188004
O O10 0.176134 0.176134 0.235419
O O11 0.196493 0.043460 0.174166
O O12 0.528153 0.117044 0.059413
O O13 0.663039 0.097640 0.119730
O O14 0.532701 0.967299 0.109239
O O15 0.648805 0.996821 0.036116
O O16 0.364360 0.135641 0.028936
O O17 0.750000 0.250000 0.651138
O O18 0.970534 0.529467 0.345018
#
# Coordination Sequence:
#
# PCOD9570980 Si02
#       7
#    16  16  16  16  16  16  16
#     4  10  23  40  61  89 119 155 200 246 299 363
#     4  12  22  40  58  87 127 161 200 249 302 360
#     4  10  22  40  62  89 119 156 207 255 299 361
#     4   9  22  40  61  88 120 156 198 246 300 364
#     4   9  20  41  62  88 120 151 195 250 303 357
#     4  12  23  37  57  89 125 160 200 249 299 361
#     4  10  22  40  61  88 122 160 199 246 304 360
#
# _framework density 19.637862999999999
#
# number of rings (size 3 to 8) (size 9 to 14) (size 15 to 20)
#    0.000    1.714    2.857    1.286    6.000    2.571 
#    0.000    2.857    0.000    0.000    0.000    0.000 
#    0.000    0.000    0.000    0.000    0.000    0.000 
#
# Total GULP energy -624262.567861 kJ/mol
# GULP energy per Si atom -5573.772927 kJ/mol
# Density = 1.959317 g / cm^3
# Si number density = 19.637863 Si / 1000 Ang^3
#
#
#
# Elastic Constant Matrix: (Units=GPa)
#
#
# Indices 1 2 3 4 5 6 
#
# 1 -200.1238 -245.9904 -473.5592 0.0000 0.0000 0.0000
# 2 -245.9904 -200.1238 -473.5592 0.0000 0.0000 0.0000
# 3 -473.5592 -473.5592 -837.6182 0.0000 0.0000 0.0000
# 4 0.0000 0.0000 0.0000 9.8577 0.0000 0.0000
# 5 0.0000 0.0000 0.0000 0.0000 9.8577 0.0000
# 6 0.0000 0.0000 0.0000 0.0000 0.0000 31.4868
#
#
#
# Elastic Compliance Matrix: (Units=1/GPa)
#
#
# Indices 1 2 3 4 5 6 
#
# 1 0.016497 -0.005305 -0.006327 0.000000 0.000000 0.000000
# 2 -0.005305 0.016497 -0.006327 0.000000 0.000000 0.000000
# 3 -0.006327 -0.006327 0.005961 0.000000 0.000000 0.000000
# 4 0.000000 0.000000 0.000000 0.101443 0.000000 0.000000
# 5 0.000000 0.000000 0.000000 0.000000 0.101443 0.000000
# 6 0.000000 0.000000 0.000000 0.000000 0.000000 0.031759
#
#
# Mechanical properties :
#
#
# Convention : Reuss Voigt Hill
#
# Bulk Modulus (GPa) = 329.54101 -402.67596 -36.56748
# Shear Modulus (GPa) = 16.10140 7.25666 11.67903
#
# Velocity S-wave (km/s) = 2.86652 1.92439 2.44133
# Velocity P-wave (km/s) = 13.38392 14.16186 3.27330
#
# Compressibility (1/GPa) = 0.00303452
#
# Stress axis : x y z
#
# Youngs Moduli (GPa) = 60.61710 60.61710 167.76703
#
# Poissons Ratio (x) = 0.32160 1.06152
# Poissons Ratio (y) = 0.32160 1.06152
# Poissons Ratio (z) = 0.38355 0.38355
#
# Static dielectric constant tensor:
#      x y z
#    x 1.712260 0.000000 0.000000 
#    y 0.000000 1.712260 0.000000 
#    z 0.000000 0.000000 1.713530 
# 
# From -- ./inp_files/7083.got.cif
#   From: 2010.05.17/outbox.cif.g08.bks.cpg/sg138_4_cif.got.tgz:7083.got - 2010.05.20 13:08:53.
