data_PCOD9570406
_publ_section_title
;
Structure prediction by ZEFSAII (Michael W. Deem and Ramdas Pophale) SiO2 
 PCOD9570406
Probable space group: P 42/N M C
;
_chemical_formula_sum "Si O2"
_cell_formula_units_Z 96
_cell_length_a 13.510313
_cell_length_b 13.510313
_cell_length_c 20.748002
_cell_angle_alpha 90.000000
_cell_angle_beta 90.000000
_cell_angle_gamma 90.000000
_cell_volume 3787.102873
_symmetry_space_group_name_H-M "P 42/N M C"
_symmetry_group_IT_number 137
_space_group.IT_coordinate_system_code '2'
_symmetry_cell_setting 'tetragonal'
loop_
_space_group_symop_operation_xyz
x,y,z
1/2-y,x,1/2+z
1/2-x,1/2-y,z
y,1/2-x,1/2+z
1/2+x,-y,-z
-x,1/2+y,-z
1/2+y,1/2+x,1/2-z
-y,-x,1/2-z
-x,-y,-z
1/2+y,-x,1/2-z
1/2+x,1/2+y,-z
-y,1/2+x,1/2-z
1/2-x,y,z
x,1/2-y,z
1/2-y,1/2-x,1/2+z
y,x,1/2+z
loop_
_atom_site_type_symbol
_atom_site_label
_atom_site_fract_x
_atom_site_fract_y
_atom_site_fract_z
Si Si1 0.630367 0.913861 0.018823
Si Si2 0.934005 0.142072 0.313828
Si Si3 0.868272 0.928505 0.878029
Si Si4 0.141953 0.534070 0.375727
Si Si5 0.638089 0.609822 0.731556
Si Si6 0.129849 0.639279 0.948921
O O1 0.750000 0.898842 0.030265
O O2 0.558210 0.868572 0.073233
O O3 0.611477 0.033482 0.017497
O O4 0.602862 0.878530 0.946383
O O5 0.916839 0.083162 0.250000
O O6 0.888565 0.250000 0.306240
O O7 0.885630 0.095207 0.376189
O O8 0.051957 0.152709 0.313799
O O9 0.750000 0.929594 0.880655
O O10 0.904579 0.041743 0.880023
O O11 0.889872 0.884637 0.806953
O O12 0.250000 0.581334 0.388060
O O13 0.143200 0.497649 0.301421
O O14 0.750000 0.647872 0.724544
O O15 0.250000 0.643112 0.947363
O O16 0.097998 0.750000 0.968372
#
# Coordination Sequence:
#
# PCOD9570406 Si02
#       6
#    16  16  16  16  16  16
#     4  10  21  39  62  90 127 168 210 261 320 383
#     4  11  21  35  57  87 125 164 205 253 311 379
#     4  10  22  41  63  87 121 167 217 271 325 375
#     4  11  22  38  63  94 125 161 213 266 319 387
#     4  10  22  40  63  89 120 165 218 271 319 370
#     4   9  18  33  55  87 124 161 204 250 301 372
#
# _framework density 25.349191999999999
#
# number of rings (size 3 to 8) (size 9 to 14) (size 15 to 20)
#    0.000    1.833    1.667    2.500    0.000    2.500 
#    0.000    4.167    0.000    6.000    0.000    0.000 
#    0.000    0.000    0.000    0.000    0.000    0.000 
#
# Total GULP energy -535500.155645 kJ/mol
# GULP energy per Si atom -5578.126621 kJ/mol
# Density = 2.529150 g / cm^3
# Si number density = 25.349192 Si / 1000 Ang^3
#
#
#
# Elastic Constant Matrix: (Units=GPa)
#
#
# Indices 1 2 3 4 5 6 
#
# 1 66.6737 -7.3503 5.1719 0.0000 0.0000 0.0000
# 2 -7.3503 66.6719 5.1732 0.0000 0.0000 0.0000
# 3 5.1719 5.1732 125.9312 0.0000 0.0000 0.0000
# 4 0.0000 0.0000 0.0000 -3.9042 0.0000 0.0000
# 5 0.0000 0.0000 0.0000 0.0000 -3.9044 0.0000
# 6 0.0000 0.0000 0.0000 0.0000 0.0000 -80.0082
#
#
#
# Elastic Compliance Matrix: (Units=1/GPa)
#
#
# Indices 1 2 3 4 5 6 
#
# 1 0.015244 0.001735 -0.000697 0.000000 0.000000 0.000000
# 2 0.001735 0.015244 -0.000697 0.000000 0.000000 0.000000
# 3 -0.000697 -0.000697 0.007998 0.000000 0.000000 0.000000
# 4 0.000000 0.000000 0.000000 -0.256132 0.000000 0.000000
# 5 0.000000 0.000000 0.000000 0.000000 -0.256119 0.000000
# 6 0.000000 0.000000 0.000000 0.000000 0.000000 -0.012499
#
#
# Mechanical properties :
#
#
# Convention : Reuss Voigt Hill
#
# Bulk Modulus (GPa) = 25.53244 29.47404 27.50324
# Shear Modulus (GPa) = -10.55102 -0.47790 -5.51446
#
# Velocity S-wave (km/s) = -2.04238 -0.43467 -1.47652
# Velocity P-wave (km/s) = 2.12895 3.37647 2.82249
#
# Compressibility (1/GPa) = 0.03916586
#
# Stress axis : x y z
#
# Youngs Moduli (GPa) = 65.60068 65.59879 125.02920
#
# Poissons Ratio (x) = -0.11379 0.08718
# Poissons Ratio (y) = -0.11380 0.08720
# Poissons Ratio (z) = 0.04574 0.04575
#
# Static dielectric constant tensor:
#      x y z
#    x 1.904460 0.000000 0.000000 
#    y 0.000000 1.904470 0.000000 
#    z 0.000000 0.000000 2.028420 
# 
# From -- ./inp_files/7885.got.cif
#   From: 2010.05.17/outbox.cif.g08.bks.cpg/sg137_4_cif.got.tgz:7885.got - 2010.05.20 13:01:12.
