data_PCOD9570058
_publ_section_title
;
Structure prediction by ZEFSAII (Michael W. Deem and Ramdas Pophale) SiO2 
 PCOD9570058
Probable space group: P 42/N M C
;
_chemical_formula_sum "Si O2"
_cell_formula_units_Z 80
_cell_length_a 19.028889
_cell_length_b 19.028889
_cell_length_c 12.117877
_cell_angle_alpha 90.000000
_cell_angle_beta 90.000000
_cell_angle_gamma 90.000000
_cell_volume 4387.866498
_symmetry_space_group_name_H-M "P 42/N M C"
_symmetry_group_IT_number 137
_space_group.IT_coordinate_system_code '2'
_symmetry_cell_setting 'tetragonal'
loop_
_space_group_symop_operation_xyz
x,y,z
1/2-y,x,1/2+z
1/2-x,1/2-y,z
y,1/2-x,1/2+z
1/2+x,-y,-z
-x,1/2+y,-z
1/2+y,1/2+x,1/2-z
-y,-x,1/2-z
-x,-y,-z
1/2+y,-x,1/2-z
1/2+x,1/2+y,-z
-y,1/2+x,1/2-z
1/2-x,y,z
x,1/2-y,z
1/2-y,1/2-x,1/2+z
y,x,1/2+z
loop_
_atom_site_type_symbol
_atom_site_label
_atom_site_fract_x
_atom_site_fract_y
_atom_site_fract_z
Si Si1 0.951125 0.671756 0.159138
Si Si2 0.027115 0.829395 0.927834
Si Si3 0.909280 0.332985 0.418712
Si Si4 0.073965 0.672114 0.322248
Si Si5 0.476097 0.089031 0.268402
O O1 0.917580 0.750000 0.146964
O O2 0.909255 0.599375 0.173204
O O3 0.997128 0.672961 0.269958
O O4 0.004113 0.663941 0.055195
O O5 0.014509 0.750000 0.893612
O O6 0.978433 0.878788 0.853678
O O7 0.108920 0.847799 0.906812
O O8 0.894826 0.250000 0.397166
O O9 0.929165 0.340525 0.547686
O O10 0.970197 0.363887 0.340648
O O11 0.118453 0.618453 0.250000
O O12 0.105335 0.750000 0.306279
O O13 0.511811 0.011811 0.250000
#
# Coordination Sequence:
#
# PCOD9570058 Si02
#       5
#    16  16  16  16  16
#     4  10  21  36  55  79 108 142 183 232 286 335
#     4  10  21  37  57  83 116 150 187 230 274 332
#     4  10  21  35  55  84 117 152 187 226 274 331
#     4  10  19  32  50  75 111 147 183 225 272 330
#     4  10  22  35  58  83 112 147 192 233 279 330
#
# _framework density 18.232095000000001
#
# number of rings (size 3 to 8) (size 9 to 14) (size 15 to 20)
#    0.000    2.000    2.000    1.200    2.800    2.200 
#    0.000    2.000    0.000    6.000    0.000    5.600 
#    0.000    0.000    0.000    0.000    0.000    0.000 
#
# Total GULP energy -445472.724750 kJ/mol
# GULP energy per Si atom -5568.409059 kJ/mol
# Density = 1.819060 g / cm^3
# Si number density = 18.232095 Si / 1000 Ang^3
#
#
#
# Elastic Constant Matrix: (Units=GPa)
#
#
# Indices 1 2 3 4 5 6 
#
# 1 61.0343 27.8978 13.5574 0.0000 0.0000 0.0000
# 2 27.8978 61.0343 13.5574 0.0000 0.0000 0.0000
# 3 13.5574 13.5574 47.6144 0.0000 0.0000 0.0000
# 4 0.0000 0.0000 0.0000 20.7447 0.0000 0.0000
# 5 0.0000 0.0000 0.0000 0.0000 20.7447 0.0000
# 6 0.0000 0.0000 0.0000 0.0000 0.0000 14.3035
#
#
#
# Elastic Compliance Matrix: (Units=1/GPa)
#
#
# Indices 1 2 3 4 5 6 
#
# 1 0.021246 -0.008932 -0.003506 0.000000 0.000000 0.000000
# 2 -0.008932 0.021246 -0.003506 0.000000 0.000000 0.000000
# 3 -0.003506 -0.003506 0.022999 0.000000 0.000000 0.000000
# 4 0.000000 0.000000 0.000000 0.048205 0.000000 0.000000
# 5 0.000000 0.000000 0.000000 0.000000 0.048205 0.000000
# 6 0.000000 0.000000 0.000000 0.000000 0.000000 0.069913
#
#
# Mechanical properties :
#
#
# Convention : Reuss Voigt Hill
#
# Bulk Modulus (GPa) = 29.76068 31.07869 30.41969
# Shear Modulus (GPa) = 18.18822 18.80325 18.49574
#
# Velocity S-wave (km/s) = 3.16190 3.21491 3.18851
# Velocity P-wave (km/s) = 5.44874 5.55554 5.50240
#
# Compressibility (1/GPa) = 0.03360138
#
# Stress axis : x y z
#
# Youngs Moduli (GPa) = 47.06797 47.06797 43.48087
#
# Poissons Ratio (x) = 0.42043 0.15245
# Poissons Ratio (y) = 0.42043 0.15245
# Poissons Ratio (z) = 0.16502 0.16502
#
# Static dielectric constant tensor:
#      x y z
#    x 1.655210 0.000000 0.000000 
#    y 0.000000 1.655210 0.000000 
#    z 0.000000 0.000000 1.642040 
# 
# From -- ./inp_files/4924.got.cif
#   From: 2010.05.17/outbox.cif.g08.bks.cpg/sg137_3_cif.got.tgz:4924.got - 2010.05.20 13:01:12.
