data_PCOD9570897
_publ_section_title
;
Structure prediction by ZEFSAII (Michael W. Deem and Ramdas Pophale) SiO2 
 PCOD9570897
Probable space group: P 42/N C M
;
_chemical_formula_sum "Si O2"
_cell_formula_units_Z 92
_cell_length_a 15.610908
_cell_length_b 15.610908
_cell_length_c 18.506016
_cell_angle_alpha 90.000000
_cell_angle_beta 90.000000
_cell_angle_gamma 90.000000
_cell_volume 4509.924401
_symmetry_space_group_name_H-M "P 42/N C M"
_symmetry_group_IT_number 138
_space_group.IT_coordinate_system_code '2'
_symmetry_cell_setting 'tetragonal'
loop_
_space_group_symop_operation_xyz
x,y,z
1/2-y,x,1/2+z
1/2-x,1/2-y,z
y,1/2-x,1/2+z
1/2+x,-y,1/2-z
-x,1/2+y,1/2-z
1/2+y,1/2+x,-z
-y,-x,-z
-x,-y,-z
1/2+y,-x,1/2-z
1/2+x,1/2+y,-z
-y,1/2+x,1/2-z
1/2-x,y,1/2+z
x,1/2-y,1/2+z
1/2-y,1/2-x,z
y,x,z
loop_
_atom_site_type_symbol
_atom_site_label
_atom_site_fract_x
_atom_site_fract_y
_atom_site_fract_z
Si Si1 0.798146 0.134686 0.920428
Si Si2 0.750000 0.750000 0.309456
Si Si3 0.544118 0.955883 0.867894
Si Si4 0.874895 0.625106 0.725705
Si Si5 0.162390 0.337611 0.048702
Si Si6 0.320028 0.050253 0.526453
Si Si7 0.813764 0.475299 0.622056
Si Si8 0.636445 0.105079 0.084980
O O1 0.703450 0.162655 0.896345
O O2 0.878903 0.150459 0.868364
O O3 0.789874 0.031954 0.929531
O O4 0.824250 0.175751 0.000000
O O5 0.804876 0.804876 0.249081
O O6 0.698188 0.698188 0.375222
O O7 0.582213 0.917788 0.795225
O O8 0.591524 0.908477 0.934216
O O9 0.445347 0.931311 0.874245
O O10 0.831857 0.546609 0.681367
O O11 0.115085 0.258153 0.011531
O O12 0.394103 0.105897 0.563661
O O13 0.353944 0.011709 0.451865
O O14 0.715033 0.457260 0.601845
O O15 0.613236 0.113236 0.000000
#
# Coordination Sequence:
#
# PCOD9570897 Si02
#       8
#    16   4   8   8   8  16  16  16
#     4  10  21  36  65 101 136 162 197 261 344 407
#     4  10  24  42  72  74 128 176 224 270 324 360
#     4  11  25  44  64  91 132 168 232 271 316 390
#     4  11  27  50  58  92 132 187 233 263 303 410
#     4  11  19  40  62 101 119 160 211 288 336 386
#     4  11  20  33  63 102 130 156 202 264 342 391
#     4  11  24  40  65  92 137 175 204 262 327 401
#     4  12  21  41  71 104 129 164 210 285 346 390
#
# _framework density 20.399455
#
# number of rings (size 3 to 8) (size 9 to 14) (size 15 to 20)
#    0.000    1.043    6.957    0.783    1.217    3.130 
#    3.130    1.739    0.000    0.000    0.000    0.000 
#    0.000    0.000    0.000    0.000    0.000    0.000 
#
# Total GULP energy -512281.214984 kJ/mol
# GULP energy per Si atom -5568.274076 kJ/mol
# Density = 2.035302 g / cm^3
# Si number density = 20.399455 Si / 1000 Ang^3
#
#
#
# Elastic Constant Matrix: (Units=GPa)
#
#
# Indices 1 2 3 4 5 6 
#
# 1 107.1868 83.1613 26.6507 0.0000 0.0000 0.0000
# 2 83.1613 107.1870 26.6507 0.0000 0.0000 0.0000
# 3 26.6507 26.6507 40.5690 0.0000 0.0000 0.0000
# 4 0.0000 0.0000 0.0000 18.2993 0.0000 0.0000
# 5 0.0000 0.0000 0.0000 0.0000 18.2992 0.0000
# 6 0.0000 0.0000 0.0000 0.0000 0.0000 45.0848
#
#
#
# Elastic Compliance Matrix: (Units=1/GPa)
#
#
# Indices 1 2 3 4 5 6 
#
# 1 0.024030 -0.017592 -0.004229 0.000000 0.000000 0.000000
# 2 -0.017592 0.024030 -0.004229 0.000000 0.000000 0.000000
# 3 -0.004229 -0.004229 0.030206 0.000000 0.000000 0.000000
# 4 0.000000 0.000000 0.000000 0.054647 0.000000 0.000000
# 5 0.000000 0.000000 0.000000 0.000000 0.054647 0.000000
# 6 0.000000 0.000000 0.000000 0.000000 0.000000 0.022180
#
#
# Mechanical properties :
#
#
# Convention : Reuss Voigt Hill
#
# Bulk Modulus (GPa) = 38.21925 58.65204 48.43565
# Shear Modulus (GPa) = 18.47999 24.23533 21.35766
#
# Velocity S-wave (km/s) = 3.01309 3.45053 3.23920
# Velocity P-wave (km/s) = 5.55707 6.68499 6.14696
#
# Compressibility (1/GPa) = 0.02616483
#
# Stress axis : x y z
#
# Youngs Moduli (GPa) = 41.61454 41.61464 33.10627
#
# Poissons Ratio (x) = 0.73210 0.14001
# Poissons Ratio (y) = 0.73209 0.14001
# Poissons Ratio (z) = 0.17599 0.17599
#
# Static dielectric constant tensor:
#      x y z
#    x 1.773380 0.000000 0.000000 
#    y 0.000000 1.773380 0.000000 
#    z 0.000000 0.000000 1.721710 
# 
# From -- ./inp_files/6322.got.cif
#   From: 2010.05.17/outbox.cif.g08.bks.cpg/sg138_4_cif.got.tgz:6322.got - 2010.05.20 13:08:53.
