data_PCOD9570387
_publ_section_title
;
Structure prediction by ZEFSAII (Michael W. Deem and Ramdas Pophale) SiO2 
 PCOD9570387
Probable space group: P 42/N M C
;
_chemical_formula_sum "Si O2"
_cell_formula_units_Z 112
_cell_length_a 15.327875
_cell_length_b 15.327875
_cell_length_c 23.404853
_cell_angle_alpha 90.000000
_cell_angle_beta 90.000000
_cell_angle_gamma 90.000000
_cell_volume 5498.823979
_symmetry_space_group_name_H-M "P 42/N M C"
_symmetry_group_IT_number 137
_space_group.IT_coordinate_system_code '2'
_symmetry_cell_setting 'tetragonal'
loop_
_space_group_symop_operation_xyz
x,y,z
1/2-y,x,1/2+z
1/2-x,1/2-y,z
y,1/2-x,1/2+z
1/2+x,-y,-z
-x,1/2+y,-z
1/2+y,1/2+x,1/2-z
-y,-x,1/2-z
-x,-y,-z
1/2+y,-x,1/2-z
1/2+x,1/2+y,-z
-y,1/2+x,1/2-z
1/2-x,y,z
x,1/2-y,z
1/2-y,1/2-x,1/2+z
y,x,1/2+z
loop_
_atom_site_type_symbol
_atom_site_label
_atom_site_fract_x
_atom_site_fract_y
_atom_site_fract_z
Si Si1 0.003147 0.102728 0.509524
Si Si2 0.424145 0.036354 0.323078
Si Si3 0.339415 0.646725 0.567107
Si Si4 0.004750 0.645810 0.357405
Si Si5 0.351060 0.904222 0.811194
Si Si6 0.353248 0.150667 0.220174
Si Si7 0.352826 0.348750 0.425373
O O1 0.990225 0.130864 0.574693
O O2 0.091855 0.140222 0.482861
O O3 0.924019 0.130937 0.469477
O O4 0.000000 0.000000 0.500000
O O5 0.517989 0.080190 0.313635
O O6 0.372642 0.081856 0.271071
O O7 0.385329 0.078461 0.380818
O O8 0.435592 0.931391 0.328675
O O9 0.250000 0.606857 0.543064
O O10 0.332116 0.750000 0.566778
O O11 0.348602 0.623623 0.633506
O O12 0.022871 0.750000 0.344896
O O13 0.905954 0.625079 0.336034
O O14 0.358786 0.858786 0.750000
O O15 0.250000 0.932959 0.818761
O O16 0.250000 0.162031 0.220194
O O17 0.391546 0.250000 0.225018
O O18 0.250000 0.357580 0.434603
O O19 0.368977 0.250000 0.402332
#
# Coordination Sequence:
#
# PCOD9570387 Si02
#       7
#    16  16  16  16  16  16  16
#     4  12  23  43  65  93 133 178 224 282 340 400
#     4  12  22  40  64  93 132 175 223 273 339 404
#     4  10  21  38  60  86 124 175 224 270 324 393
#     4  11  24  42  66  94 133 180 228 279 336 401
#     4  11  21  34  57  91 134 177 219 273 337 407
#     4  10  22  41  68 102 136 171 216 277 345 409
#     4  11  23  40  67  99 129 169 222 282 345 407
#
# _framework density 20.367992999999998
#
# number of rings (size 3 to 8) (size 9 to 14) (size 15 to 20)
#    0.000    1.000    2.857    4.714    0.000    3.000 
#    0.000    5.000    0.000    3.429    0.000    6.000 
#    0.000    0.000    0.000    0.000    0.000    0.000 
#
# Total GULP energy -624494.130743 kJ/mol
# GULP energy per Si atom -5575.840453 kJ/mol
# Density = 2.032163 g / cm^3
# Si number density = 20.367993 Si / 1000 Ang^3
#
#
#
# Elastic Constant Matrix: (Units=GPa)
#
#
# Indices 1 2 3 4 5 6 
#
# 1 74.8756 37.8291 28.9030 0.0000 0.0000 0.0000
# 2 37.8291 74.8756 28.9030 0.0000 0.0000 0.0000
# 3 28.9030 28.9030 107.5262 0.0000 0.0000 0.0000
# 4 0.0000 0.0000 0.0000 102.9662 0.0000 0.0000
# 5 0.0000 0.0000 0.0000 0.0000 102.9662 0.0000
# 6 0.0000 0.0000 0.0000 0.0000 0.0000 5.6255
#
#
#
# Elastic Compliance Matrix: (Units=1/GPa)
#
#
# Indices 1 2 3 4 5 6 
#
# 1 0.018642 -0.008351 -0.002766 0.000000 0.000000 0.000000
# 2 -0.008351 0.018642 -0.002766 0.000000 0.000000 0.000000
# 3 -0.002766 -0.002766 0.010787 0.000000 0.000000 0.000000
# 4 0.000000 0.000000 0.000000 0.009712 0.000000 0.000000
# 5 0.000000 0.000000 0.000000 0.000000 0.009712 0.000000
# 6 0.000000 0.000000 0.000000 0.000000 0.000000 0.177763
#
#
# Mechanical properties :
#
#
# Convention : Reuss Voigt Hill
#
# Bulk Modulus (GPa) = 49.24904 49.83863 49.54384
# Shear Modulus (GPa) = 17.87028 53.08773 35.47900
#
# Velocity S-wave (km/s) = 2.96526 5.11086 4.17814
# Velocity P-wave (km/s) = 5.99631 7.70390 6.90311
#
# Compressibility (1/GPa) = 0.02030496
#
# Stress axis : x y z
#
# Youngs Moduli (GPa) = 53.64137 53.64137 92.70191
#
# Poissons Ratio (x) = 0.44794 0.25645
# Poissons Ratio (y) = 0.44794 0.25645
# Poissons Ratio (z) = 0.14839 0.14839
#
# Static dielectric constant tensor:
#      x y z
#    x 1.784450 0.000000 0.000000 
#    y 0.000000 1.784450 0.000000 
#    z 0.000000 0.000000 1.517470 
# 
# From -- ./inp_files/8954.got.cif
#   From: 2010.05.17/outbox.cif.g08.bks.cpg/sg137_5_cif.got.tgz:8954.got - 2010.05.20 13:01:12.
