data_PCOD9570677
_publ_section_title
;
Structure prediction by ZEFSAII (Michael W. Deem and Ramdas Pophale) SiO2 
 PCOD9570677
Probable space group: P 42/N C M
;
_chemical_formula_sum "Si O2"
_cell_formula_units_Z 64
_cell_length_a 13.770897
_cell_length_b 13.770897
_cell_length_c 20.397494
_cell_angle_alpha 90.000000
_cell_angle_beta 90.000000
_cell_angle_gamma 90.000000
_cell_volume 3868.131894
_symmetry_space_group_name_H-M "P 42/N C M"
_symmetry_group_IT_number 138
_space_group.IT_coordinate_system_code '2'
_symmetry_cell_setting 'tetragonal'
loop_
_space_group_symop_operation_xyz
x,y,z
1/2-y,x,1/2+z
1/2-x,1/2-y,z
y,1/2-x,1/2+z
1/2+x,-y,1/2-z
-x,1/2+y,1/2-z
1/2+y,1/2+x,-z
-y,-x,-z
-x,-y,-z
1/2+y,-x,1/2-z
1/2+x,1/2+y,-z
-y,1/2+x,1/2-z
1/2-x,y,1/2+z
x,1/2-y,1/2+z
1/2-y,1/2-x,z
y,x,z
loop_
_atom_site_type_symbol
_atom_site_label
_atom_site_fract_x
_atom_site_fract_y
_atom_site_fract_z
Si Si1 0.769551 0.095038 0.671520
Si Si2 0.247838 0.088984 0.581197
Si Si3 0.915488 0.279029 0.681817
Si Si4 0.849922 0.012207 0.538520
O O1 0.843607 0.186467 0.675502
O O2 0.658605 0.132670 0.667572
O O3 0.782250 0.047397 0.743120
O O4 0.799824 0.038199 0.606778
O O5 0.337225 0.162776 0.576720
O O6 0.153128 0.153128 0.600426
O O7 0.269169 0.003704 0.632226
O O8 0.222069 0.041136 0.511509
O O9 0.894740 0.105261 0.500000
O O10 0.940381 0.940381 0.551339
#
# Coordination Sequence:
#
# PCOD9570677 Si02
#       4
#    16  16  16  16
#     4   9  18  33  54  80 109 137 178 228 265 309
#     4  10  21  37  54  76 110 145 179 222 271 324
#     4   9  18  34  53  78 109 141 177 220 270 319
#     4  10  19  33  55  79 102 140 188 222 259 318
#
# _framework density 16.545456000000001
#
# number of rings (size 3 to 8) (size 9 to 14) (size 15 to 20)
#    0.000    2.500    2.500    1.500    0.000    2.000 
#    0.000    7.500    0.000    3.000    0.000    0.000 
#    0.000    0.000    0.000    0.000    0.000    0.000 
#
# Total GULP energy -356586.038696 kJ/mol
# GULP energy per Si atom -5571.656855 kJ/mol
# Density = 1.650780 g / cm^3
# Si number density = 16.545456 Si / 1000 Ang^3
#
#
#
# Elastic Constant Matrix: (Units=GPa)
#
#
# Indices 1 2 3 4 5 6 
#
# 1 74.6813 27.7731 69.1047 0.0000 0.0000 0.0000
# 2 27.7731 74.6803 69.1042 0.0000 0.0000 0.0000
# 3 69.1047 69.1042 165.8703 0.0000 0.0000 0.0000
# 4 0.0000 0.0000 0.0000 17.8819 0.0000 0.0000
# 5 0.0000 0.0000 0.0000 0.0000 17.8825 0.0000
# 6 0.0000 0.0000 0.0000 0.0000 0.0000 9.4868
#
#
#
# Elastic Compliance Matrix: (Units=1/GPa)
#
#
# Indices 1 2 3 4 5 6 
#
# 1 0.021802 0.000483 -0.009284 0.000000 0.000000 0.000000
# 2 0.000483 0.021802 -0.009284 0.000000 0.000000 0.000000
# 3 -0.009284 -0.009284 0.013765 0.000000 0.000000 0.000000
# 4 0.000000 0.000000 0.000000 0.055922 0.000000 0.000000
# 5 0.000000 0.000000 0.000000 0.000000 0.055921 0.000000
# 6 0.000000 0.000000 0.000000 0.000000 0.000000 0.105409
#
#
# Mechanical properties :
#
#
# Convention : Reuss Voigt Hill
#
# Bulk Modulus (GPa) = 47.17559 71.91067 59.54313
# Shear Modulus (GPa) = 15.73037 19.00024 17.36530
#
# Velocity S-wave (km/s) = 3.08675 3.39243 3.24319
# Velocity P-wave (km/s) = 6.42484 7.67474 7.07744
#
# Compressibility (1/GPa) = 0.02119740
#
# Stress axis : x y z
#
# Youngs Moduli (GPa) = 45.86839 45.86783 72.64929
#
# Poissons Ratio (x) = -0.02216 0.67449
# Poissons Ratio (y) = -0.02216 0.67450
# Poissons Ratio (z) = 0.42585 0.42585
#
# Static dielectric constant tensor:
#      x y z
#    x 1.552370 0.000000 0.000000 
#    y 0.000000 1.552370 0.000000 
#    z 0.000000 0.000000 1.544870 
# 
# From -- ./inp_files/3894.got.cif
#   From: 2010.05.17/outbox.cif.g08.bks.cpg/sg138_2_cif.got.tgz:3894.got - 2010.05.20 13:08:53.
