data_PCOD9570150
_publ_section_title
;
Structure prediction by ZEFSAII (Michael W. Deem and Ramdas Pophale) SiO2 
 PCOD9570150
Probable space group: P 42/N M C
;
_chemical_formula_sum "Si O2"
_cell_formula_units_Z 128
_cell_length_a 23.859749
_cell_length_b 23.859749
_cell_length_c 11.473824
_cell_angle_alpha 90.000000
_cell_angle_beta 90.000000
_cell_angle_gamma 90.000000
_cell_volume 6531.905984
_symmetry_space_group_name_H-M "P 42/N M C"
_symmetry_group_IT_number 137
_space_group.IT_coordinate_system_code '2'
_symmetry_cell_setting 'tetragonal'
loop_
_space_group_symop_operation_xyz
x,y,z
1/2-y,x,1/2+z
1/2-x,1/2-y,z
y,1/2-x,1/2+z
1/2+x,-y,-z
-x,1/2+y,-z
1/2+y,1/2+x,1/2-z
-y,-x,1/2-z
-x,-y,-z
1/2+y,-x,1/2-z
1/2+x,1/2+y,-z
-y,1/2+x,1/2-z
1/2-x,y,z
x,1/2-y,z
1/2-y,1/2-x,1/2+z
y,x,1/2+z
loop_
_atom_site_type_symbol
_atom_site_label
_atom_site_fract_x
_atom_site_fract_y
_atom_site_fract_z
Si Si1 0.317681 0.686000 0.614861
Si Si2 0.364256 0.182875 0.524967
Si Si3 0.686121 0.683002 0.228206
Si Si4 0.607960 0.555478 0.096039
Si Si5 0.118071 0.500570 0.335690
Si Si6 0.068867 0.683430 0.989356
Si Si7 0.599368 0.484927 0.307522
Si Si8 0.063035 0.502735 0.107334
O O1 0.330214 0.669787 0.750000
O O2 0.250000 0.689536 0.610181
O O3 0.338790 0.750000 0.592289
O O4 0.333262 0.634713 0.528729
O O5 0.365258 0.250000 0.530660
O O6 0.345085 0.162371 0.653698
O O7 0.329420 0.168353 0.405759
O O8 0.422455 0.155627 0.488578
O O9 0.750000 0.662021 0.237902
O O10 0.686507 0.750000 0.238027
O O11 0.562486 0.604911 0.120040
O O12 0.627304 0.527008 0.214229
O O13 0.578136 0.506048 0.025303
O O14 0.167563 0.536788 0.391066
O O15 0.115081 0.500214 0.196255
O O16 0.061115 0.532657 0.372632
O O17 0.065165 0.750000 0.968173
O O18 0.035289 0.645523 0.897403
O O19 0.568259 0.431742 0.250000
O O20 0.549042 0.522969 0.358708
#
# Coordination Sequence:
#
# PCOD9570150 Si02
#       8
#    16  16  16  16  16  16  16  16
#     4   8  15  30  51  77 113 156 192 220 267 344
#     4  10  22  35  54  83 113 149 190 239 299 358
#     4   9  18  36  57  76 103 145 200 247 279 330
#     4  11  21  34  58  80 113 145 187 239 285 343
#     4  10  20  36  59  84 108 144 196 236 281 330
#     4  11  22  34  54  88 127 152 181 240 300 345
#     4  11  20  35  58  86 111 146 191 239 278 338
#     4  10  19  37  61  84 103 144 204 240 267 326
#
# _framework density 19.596118000000001
#
# number of rings (size 3 to 8) (size 9 to 14) (size 15 to 20)
#    0.000    2.000    3.750    2.250    3.500    2.000 
#    0.000    3.125    0.000    5.250    0.000    0.000 
#    0.000    0.000    0.000    6.250    0.000    0.000 
#
# Total GULP energy -712742.230784 kJ/mol
# GULP energy per Si atom -5568.298678 kJ/mol
# Density = 1.955152 g / cm^3
# Si number density = 19.596118 Si / 1000 Ang^3
#
#
#
# Elastic Constant Matrix: (Units=GPa)
#
#
# Indices 1 2 3 4 5 6 
#
# 1 44.7236 27.2206 13.6380 0.0000 0.0000 0.0000
# 2 27.2206 44.7245 13.6376 0.0000 0.0000 0.0000
# 3 13.6380 13.6376 55.3487 0.0000 0.0000 0.0000
# 4 0.0000 0.0000 0.0000 20.0818 0.0000 0.0000
# 5 0.0000 0.0000 0.0000 0.0000 20.0819 0.0000
# 6 0.0000 0.0000 0.0000 0.0000 0.0000 27.9390
#
#
#
# Elastic Compliance Matrix: (Units=1/GPa)
#
#
# Indices 1 2 3 4 5 6 
#
# 1 0.036232 -0.020900 -0.003778 0.000000 0.000000 0.000000
# 2 -0.020900 0.036231 -0.003777 0.000000 0.000000 0.000000
# 3 -0.003778 -0.003777 0.019929 0.000000 0.000000 0.000000
# 4 0.000000 0.000000 0.000000 0.049796 0.000000 0.000000
# 5 0.000000 0.000000 0.000000 0.000000 0.049796 0.000000
# 6 0.000000 0.000000 0.000000 0.000000 0.000000 0.035792
#
#
# Mechanical properties :
#
#
# Convention : Reuss Voigt Hill
#
# Bulk Modulus (GPa) = 28.18361 28.19879 28.19120
# Shear Modulus (GPa) = 16.86256 19.64058 18.25157
#
# Velocity S-wave (km/s) = 2.93662 3.16930 3.05517
# Velocity P-wave (km/s) = 5.09036 5.27388 5.18293
#
# Compressibility (1/GPa) = 0.03548162
#
# Stress axis : x y z
#
# Youngs Moduli (GPa) = 27.59979 27.60050 50.17842
#
# Poissons Ratio (x) = 0.57685 0.18958
# Poissons Ratio (y) = 0.57683 0.18954
# Poissons Ratio (z) = 0.10427 0.10426
#
# Static dielectric constant tensor:
#      x y z
#    x 1.722220 0.000000 0.000000 
#    y 0.000000 1.722220 0.000000 
#    z 0.000000 0.000000 1.751250 
# 
# From -- ./inp_files/4030.got.cif
#   From: 2010.05.17/outbox.cif.g08.bks.cpg/sg137_3_cif.got.tgz:4030.got - 2010.05.20 13:01:12.
