data_PCOD9570920
_publ_section_title
;
Structure prediction by ZEFSAII (Michael W. Deem and Ramdas Pophale) SiO2 
 PCOD9570920
Probable space group: P 42/N C M
;
_chemical_formula_sum "Si O2"
_cell_formula_units_Z 56
_cell_length_a 21.975542
_cell_length_b 21.975542
_cell_length_c 5.439300
_cell_angle_alpha 90.000000
_cell_angle_beta 90.000000
_cell_angle_gamma 90.000000
_cell_volume 2626.770940
_symmetry_space_group_name_H-M "P 42/N C M"
_symmetry_group_IT_number 138
_space_group.IT_coordinate_system_code '2'
_symmetry_cell_setting 'tetragonal'
loop_
_space_group_symop_operation_xyz
x,y,z
1/2-y,x,1/2+z
1/2-x,1/2-y,z
y,1/2-x,1/2+z
1/2+x,-y,1/2-z
-x,1/2+y,1/2-z
1/2+y,1/2+x,-z
-y,-x,-z
-x,-y,-z
1/2+y,-x,1/2-z
1/2+x,1/2+y,-z
-y,1/2+x,1/2-z
1/2-x,y,1/2+z
x,1/2-y,1/2+z
1/2-y,1/2-x,z
y,x,z
loop_
_atom_site_type_symbol
_atom_site_label
_atom_site_fract_x
_atom_site_fract_y
_atom_site_fract_z
Si Si1 0.590538 0.590538 0.751062
Si Si2 0.078673 0.921328 0.000000
Si Si3 0.536799 0.963202 0.755679
Si Si4 0.728820 0.925582 0.358609
Si Si5 0.067576 0.722638 0.411038
O O1 0.561445 0.561445 0.509977
O O2 0.578120 0.661725 0.750403
O O3 0.566839 0.566839 0.013564
O O4 0.068957 0.850348 0.939912
O O5 0.056100 0.966402 0.782601
O O6 0.731232 0.898851 0.634799
O O7 0.743884 0.996828 0.399193
O O8 0.095009 0.754025 0.654148
#
# Coordination Sequence:
#
# PCOD9570920 Si02
#       5
#     8   8   8  16  16
#     4  12  22  41  60  95 126 161 209 250 322 383
#     4  11  24  44  62  95 138 158 206 261 318 384
#     4  11  26  36  64 100 130 164 183 261 344 376
#     4  10  21  38  59  85 123 164 207 253 299 373
#     4  10  23  39  62  88 120 168 208 246 305 373
#
# _framework density 21.318951999999999
#
# number of rings (size 3 to 8) (size 9 to 14) (size 15 to 20)
#    0.000    1.429    2.857    1.714    8.000    5.714 
#    0.000    0.000    0.000    5.143    0.000    0.000 
#    0.000    0.000    0.000    0.000    0.000    0.000 
#
# Total GULP energy -312424.166722 kJ/mol
# GULP energy per Si atom -5579.002977 kJ/mol
# Density = 2.127043 g / cm^3
# Si number density = 21.318952 Si / 1000 Ang^3
#
#
#
# Elastic Constant Matrix: (Units=GPa)
#
#
# Indices 1 2 3 4 5 6 
#
# 1 96.4644 1.2253 58.8046 0.0000 0.0000 0.0000
# 2 1.2253 96.4629 58.8047 0.0000 0.0000 0.0000
# 3 58.8046 58.8047 204.3982 0.0000 0.0000 0.0000
# 4 0.0000 0.0000 0.0000 21.4094 0.0000 0.0000
# 5 0.0000 0.0000 0.0000 0.0000 21.4086 0.0000
# 6 0.0000 0.0000 0.0000 0.0000 0.0000 14.2502
#
#
#
# Elastic Compliance Matrix: (Units=1/GPa)
#
#
# Indices 1 2 3 4 5 6 
#
# 1 0.013080 0.002580 -0.004506 0.000000 0.000000 0.000000
# 2 0.002580 0.013081 -0.004506 0.000000 0.000000 0.000000
# 3 -0.004506 -0.004506 0.007485 0.000000 0.000000 0.000000
# 4 0.000000 0.000000 0.000000 0.046709 0.000000 0.000000
# 5 0.000000 0.000000 0.000000 0.000000 0.046710 0.000000
# 6 0.000000 0.000000 0.000000 0.000000 0.000000 0.070174
#
#
# Mechanical properties :
#
#
# Convention : Reuss Voigt Hill
#
# Bulk Modulus (GPa) = 48.11309 70.55498 59.33403
# Shear Modulus (GPa) = 23.03846 29.97970 26.50908
#
# Velocity S-wave (km/s) = 3.29090 3.75406 3.53009
# Velocity P-wave (km/s) = 6.08747 7.20815 6.67138
#
# Compressibility (1/GPa) = 0.02078437
#
# Stress axis : x y z
#
# Youngs Moduli (GPa) = 76.45078 76.44920 133.60239
#
# Poissons Ratio (x) = -0.19727 0.60195
# Poissons Ratio (y) = -0.19728 0.60196
# Poissons Ratio (z) = 0.34445 0.34445
#
# Static dielectric constant tensor:
#      x y z
#    x 1.773980 0.000000 0.000000 
#    y 0.000000 1.773990 0.000000 
#    z 0.000000 0.000000 1.865170 
# 
# From -- ./inp_files/355.got.cif
#   From: 2010.05.17/outbox.cif.g08.bks.cpg/sg138_1_cif.got.tgz:355.got - 2010.05.20 13:08:53.
