data_PCOD9570747
_publ_section_title
;
Structure prediction by ZEFSAII (Michael W. Deem and Ramdas Pophale) SiO2 
 PCOD9570747
Probable space group: P 42/N C M
;
_chemical_formula_sum "Si O2"
_cell_formula_units_Z 112
_cell_length_a 15.482666
_cell_length_b 15.482666
_cell_length_c 24.259017
_cell_angle_alpha 90.000000
_cell_angle_beta 90.000000
_cell_angle_gamma 90.000000
_cell_volume 5815.200443
_symmetry_space_group_name_H-M "P 42/N C M"
_symmetry_group_IT_number 138
_space_group.IT_coordinate_system_code '2'
_symmetry_cell_setting 'tetragonal'
loop_
_space_group_symop_operation_xyz
x,y,z
1/2-y,x,1/2+z
1/2-x,1/2-y,z
y,1/2-x,1/2+z
1/2+x,-y,1/2-z
-x,1/2+y,1/2-z
1/2+y,1/2+x,-z
-y,-x,-z
-x,-y,-z
1/2+y,-x,1/2-z
1/2+x,1/2+y,-z
-y,1/2+x,1/2-z
1/2-x,y,1/2+z
x,1/2-y,1/2+z
1/2-y,1/2-x,z
y,x,z
loop_
_atom_site_type_symbol
_atom_site_label
_atom_site_fract_x
_atom_site_fract_y
_atom_site_fract_z
Si Si1 0.418885 0.283807 0.587295
Si Si2 0.701898 0.334139 0.854218
Si Si3 0.107236 0.251713 0.291163
Si Si4 0.262838 0.532164 0.387562
Si Si5 0.335361 0.023345 0.685066
Si Si6 0.750784 0.614671 0.035749
Si Si7 0.850045 0.104480 0.436472
O O1 0.345264 0.345264 0.611945
O O2 0.444146 0.208931 0.628851
O O3 0.385734 0.247246 0.529707
O O4 0.502102 0.340946 0.570236
O O5 0.750000 0.250000 0.827367
O O6 0.611802 0.299262 0.876679
O O7 0.678850 0.419217 0.818046
O O8 0.763760 0.359690 0.905880
O O9 0.156354 0.343647 0.287658
O O10 0.181163 0.181163 0.303090
O O11 0.062018 0.221752 0.234658
O O12 0.035704 0.245300 0.338440
O O13 0.238476 0.479962 0.441962
O O14 0.356739 0.572356 0.399698
O O15 0.430553 0.069448 0.689394
O O16 0.842957 0.657044 0.051457
O O17 0.678095 0.678095 0.058822
O O18 0.865029 0.134972 0.500000
#
# Coordination Sequence:
#
# PCOD9570747 Si02
#       7
#    16  16  16  16  16  16  16
#     4  10  20  35  58  88 120 156 199 251 310 366
#     4   9  22  41  61  88 119 160 205 255 306 364
#     4  10  22  41  65  90 119 158 201 250 311 374
#     4  11  21  37  58  86 118 156 199 247 304 368
#     4  10  21  41  63  88 120 158 209 261 307 367
#     4  10  20  33  53  84 120 154 189 240 305 369
#     4  10  20  39  60  87 119 159 205 249 298 363
#
# _framework density 19.259868000000001
#
# number of rings (size 3 to 8) (size 9 to 14) (size 15 to 20)
#    0.000    2.000    1.429    1.714    0.000    7.714 
#    7.714    0.000    0.000    2.571    0.000    0.000 
#    0.000    0.000    0.000    0.000    0.000    0.000 
#
# Total GULP energy -624206.289139 kJ/mol
# GULP energy per Si atom -5573.270439 kJ/mol
# Density = 1.921603 g / cm^3
# Si number density = 19.259868 Si / 1000 Ang^3
#
#
#
# Elastic Constant Matrix: (Units=GPa)
#
#
# Indices 1 2 3 4 5 6 
#
# 1 102.6387 55.7633 21.8571 0.0000 0.0000 0.0000
# 2 55.7633 102.6388 21.8574 0.0000 0.0000 0.0000
# 3 21.8571 21.8574 60.6081 0.0000 0.0000 0.0000
# 4 0.0000 0.0000 0.0000 16.6471 0.0000 0.0000
# 5 0.0000 0.0000 0.0000 0.0000 16.6470 0.0000
# 6 0.0000 0.0000 0.0000 0.0000 0.0000 18.0674
#
#
#
# Elastic Compliance Matrix: (Units=1/GPa)
#
#
# Indices 1 2 3 4 5 6 
#
# 1 0.014172 -0.007161 -0.002528 0.000000 0.000000 0.000000
# 2 -0.007161 0.014172 -0.002528 0.000000 0.000000 0.000000
# 3 -0.002528 -0.002528 0.018323 0.000000 0.000000 0.000000
# 4 0.000000 0.000000 0.000000 0.060071 0.000000 0.000000
# 5 0.000000 0.000000 0.000000 0.000000 0.060071 0.000000
# 6 0.000000 0.000000 0.000000 0.000000 0.000000 0.055348
#
#
# Mechanical properties :
#
#
# Convention : Reuss Voigt Hill
#
# Bulk Modulus (GPa) = 44.98152 51.64901 48.31526
# Shear Modulus (GPa) = 19.68483 21.36615 20.52549
#
# Velocity S-wave (km/s) = 3.20044 3.33432 3.26807
# Velocity P-wave (km/s) = 6.08793 6.45745 6.27541
#
# Compressibility (1/GPa) = 0.02223135
#
# Stress axis : x y z
#
# Youngs Moduli (GPa) = 70.56185 70.56182 54.57607
#
# Poissons Ratio (x) = 0.50531 0.13798
# Poissons Ratio (y) = 0.50531 0.13799
# Poissons Ratio (z) = 0.17840 0.17841
#
# Static dielectric constant tensor:
#      x y z
#    x 1.666920 0.000000 0.000000 
#    y 0.000000 1.666920 0.000000 
#    z 0.000000 0.000000 1.673190 
# 
# From -- ./inp_files/7073.got.cif
#   From: 2010.05.17/outbox.cif.g08.bks.cpg/sg138_4_cif.got.tgz:7073.got - 2010.05.20 13:08:53.
