data_PCOD9570466
_publ_section_title
;
Structure prediction by ZEFSAII (Michael W. Deem and Ramdas Pophale) SiO2 
 PCOD9570466
Probable space group: P 42/N M C
;
_chemical_formula_sum "Si O2"
_cell_formula_units_Z 120
_cell_length_a 26.693568
_cell_length_b 26.693568
_cell_length_c 7.631081
_cell_angle_alpha 90.000000
_cell_angle_beta 90.000000
_cell_angle_gamma 90.000000
_cell_volume 5437.500612
_symmetry_space_group_name_H-M "P 42/N M C"
_symmetry_group_IT_number 137
_space_group.IT_coordinate_system_code '2'
_symmetry_cell_setting 'tetragonal'
loop_
_space_group_symop_operation_xyz
x,y,z
1/2-y,x,1/2+z
1/2-x,1/2-y,z
y,1/2-x,1/2+z
1/2+x,-y,-z
-x,1/2+y,-z
1/2+y,1/2+x,1/2-z
-y,-x,1/2-z
-x,-y,-z
1/2+y,-x,1/2-z
1/2+x,1/2+y,-z
-y,1/2+x,1/2-z
1/2-x,y,z
x,1/2-y,z
1/2-y,1/2-x,1/2+z
y,x,1/2+z
loop_
_atom_site_type_symbol
_atom_site_label
_atom_site_fract_x
_atom_site_fract_y
_atom_site_fract_z
Si Si1 0.006777 0.691251 0.974509
Si Si2 0.807028 0.194066 0.463569
Si Si3 0.123015 0.603888 0.540030
Si Si4 0.402188 0.193933 0.892029
Si Si5 0.695711 0.637024 0.210685
Si Si6 0.910466 0.013264 0.949607
Si Si7 0.529208 0.694143 0.568988
Si Si8 0.994474 0.494474 0.250000
O O1 0.016916 0.750000 0.015793
O O2 0.054329 0.655761 0.990363
O O3 0.958886 0.673806 0.089686
O O4 0.991337 0.690367 0.768846
O O5 0.806363 0.193638 0.250000
O O6 0.750000 0.184503 0.520493
O O7 0.821645 0.250000 0.518406
O O8 0.844922 0.151584 0.517730
O O9 0.110838 0.610838 0.750000
O O10 0.071659 0.601248 0.435846
O O11 0.406130 0.250000 0.819570
O O12 0.356115 0.166258 0.802946
O O13 0.384624 0.197635 0.093830
O O14 0.750000 0.663338 0.179131
O O15 0.693586 0.589226 0.083406
O O16 0.856988 0.987441 0.977007
O O17 0.949759 0.011812 0.112446
O O18 0.947108 0.990318 0.804807
O O19 0.513483 0.750000 0.503661
#
# Coordination Sequence:
#
# PCOD9570466 Si02
#       8
#    16  16  16  16  16  16  16   8
#     4   9  17  31  49  75 109 142 177 219 264 319
#     4   8  15  26  41  71 114 150 181 225 282 332
#     4  11  18  28  50  79 107 140 182 223 273 324
#     4   9  19  34  52  73  99 132 167 206 258 312
#     4   9  19  34  51  74  99 127 165 208 255 310
#     4  11  21  38  55  82 108 144 188 231 278 332
#     4   9  18  33  54  77 104 135 174 221 267 319
#     4  10  24  38  56  78 114 148 188 234 282 330
#
# _framework density 22.068963
#
# number of rings (size 3 to 8) (size 9 to 14) (size 15 to 20)
#    0.000    2.533    2.000    2.400    0.000    6.133 
#    0.000    1.333    0.000    3.200    0.000    2.800 
#    0.000    1.067    0.000    0.000    0.000    0.000 
#
# Total GULP energy -669685.484179 kJ/mol
# GULP energy per Si atom -5580.712368 kJ/mol
# Density = 2.201873 g / cm^3
# Si number density = 22.068963 Si / 1000 Ang^3
#
#
#
# Elastic Constant Matrix: (Units=GPa)
#
#
# Indices 1 2 3 4 5 6 
#
# 1 90.6964 79.3462 21.9850 0.0000 0.0000 0.0000
# 2 79.3462 90.6968 21.9851 0.0000 0.0000 0.0000
# 3 21.9850 21.9851 33.1477 0.0000 0.0000 0.0000
# 4 0.0000 0.0000 0.0000 4.8595 0.0000 0.0000
# 5 0.0000 0.0000 0.0000 0.0000 4.8596 0.0000
# 6 0.0000 0.0000 0.0000 0.0000 0.0000 24.8008
#
#
#
# Elastic Compliance Matrix: (Units=1/GPa)
#
#
# Indices 1 2 3 4 5 6 
#
# 1 0.047601 -0.040502 -0.004708 0.000000 0.000000 0.000000
# 2 -0.040502 0.047600 -0.004708 0.000000 0.000000 0.000000
# 3 -0.004708 -0.004708 0.036413 0.000000 0.000000 0.000000
# 4 0.000000 0.000000 0.000000 0.205784 0.000000 0.000000
# 5 0.000000 0.000000 0.000000 0.000000 0.205778 0.000000
# 6 0.000000 0.000000 0.000000 0.000000 0.000000 0.040321
#
#
# Mechanical properties :
#
#
# Convention : Reuss Voigt Hill
#
# Bulk Modulus (GPa) = 31.46837 51.24151 41.35494
# Shear Modulus (GPa) = 7.20539 12.98562 10.09551
#
# Velocity S-wave (km/s) = 1.80888 2.42835 2.14113
# Velocity P-wave (km/s) = 4.31888 5.57958 4.98921
#
# Compressibility (1/GPa) = 0.03177794
#
# Stress axis : x y z
#
# Youngs Moduli (GPa) = 21.00817 21.00825 27.46276
#
# Poissons Ratio (x) = 0.85088 0.12929
# Poissons Ratio (y) = 0.85088 0.12929
# Poissons Ratio (z) = 0.09890 0.09891
#
# Static dielectric constant tensor:
#      x y z
#    x 1.789400 0.000000 0.000000 
#    y 0.000000 1.789400 0.000000 
#    z 0.000000 0.000000 1.871280 
# 
# From -- ./inp_files/2357.got.cif
#   From: 2010.05.17/outbox.cif.g08.bks.cpg/sg137_2_cif.got.tgz:2357.got - 2010.05.20 13:01:12.
