data_PCOD9570210
_publ_section_title
;
Structure prediction by ZEFSAII (Michael W. Deem and Ramdas Pophale) SiO2 
 PCOD9570210
Probable space group: P 42/N M C
;
_chemical_formula_sum "Si O2"
_cell_formula_units_Z 96
_cell_length_a 16.578708
_cell_length_b 16.578708
_cell_length_c 18.724446
_cell_angle_alpha 90.000000
_cell_angle_beta 90.000000
_cell_angle_gamma 90.000000
_cell_volume 5146.480622
_symmetry_space_group_name_H-M "P 42/N M C"
_symmetry_group_IT_number 137
_space_group.IT_coordinate_system_code '2'
_symmetry_cell_setting 'tetragonal'
loop_
_space_group_symop_operation_xyz
x,y,z
1/2-y,x,1/2+z
1/2-x,1/2-y,z
y,1/2-x,1/2+z
1/2+x,-y,-z
-x,1/2+y,-z
1/2+y,1/2+x,1/2-z
-y,-x,1/2-z
-x,-y,-z
1/2+y,-x,1/2-z
1/2+x,1/2+y,-z
-y,1/2+x,1/2-z
1/2-x,y,z
x,1/2-y,z
1/2-y,1/2-x,1/2+z
y,x,1/2+z
loop_
_atom_site_type_symbol
_atom_site_label
_atom_site_fract_x
_atom_site_fract_y
_atom_site_fract_z
Si Si1 0.162636 0.585294 0.645130
Si Si2 0.153414 0.662181 0.017072
Si Si3 0.605052 0.841898 0.884383
Si Si4 0.492694 0.404509 0.513450
Si Si5 0.345328 0.005214 0.851828
Si Si6 0.847174 0.663123 0.227774
O O1 0.250000 0.607699 0.677662
O O2 0.163465 0.619255 0.563784
O O3 0.158667 0.488895 0.639116
O O4 0.078919 0.618125 0.675024
O O5 0.250000 0.658574 0.013930
O O6 0.130554 0.750000 0.049243
O O7 0.122339 0.577760 0.048782
O O8 0.623637 0.750000 0.909600
O O9 0.615143 0.913222 0.941084
O O10 0.654077 0.858970 0.812397
O O11 0.500000 0.500000 0.500000
O O12 0.486952 0.362753 0.436087
O O13 0.250000 0.000997 0.840263
O O14 0.378838 0.084146 0.812236
O O15 0.750000 0.662870 0.216996
O O16 0.878319 0.750000 0.202517
#
# Coordination Sequence:
#
# PCOD9570210 Si02
#       6
#    16  16  16  16  16  16
#     4   9  16  29  49  76 105 137 172 213 272 332
#     4   9  17  30  49  73 106 144 176 214 270 333
#     4  10  20  34  54  77 107 144 181 222 276 337
#     4  11  19  31  51  83 110 140 177 229 279 328
#     4  10  20  34  54  79 107 142 184 228 273 326
#     4   9  20  38  54  71 102 146 187 223 270 325
#
# _framework density 18.653524999999998
#
# number of rings (size 3 to 8) (size 9 to 14) (size 15 to 20)
#    0.000    2.333    3.333    2.000    0.000    3.667 
#    0.000    0.000    0.000    1.000    0.000    9.333 
#    0.000    0.000    0.000    4.333    0.000    0.000 
#
# Total GULP energy -534999.673418 kJ/mol
# GULP energy per Si atom -5572.913265 kJ/mol
# Density = 1.861107 g / cm^3
# Si number density = 18.653525 Si / 1000 Ang^3
#
#
#
# Elastic Constant Matrix: (Units=GPa)
#
#
# Indices 1 2 3 4 5 6 
#
# 1 120.5907 42.5344 26.6275 0.0000 0.0000 0.0000
# 2 42.5344 120.5907 26.6275 0.0000 0.0000 0.0000
# 3 26.6275 26.6275 33.2666 0.0000 0.0000 0.0000
# 4 0.0000 0.0000 0.0000 15.1239 0.0000 0.0000
# 5 0.0000 0.0000 0.0000 0.0000 15.1239 0.0000
# 6 0.0000 0.0000 0.0000 0.0000 0.0000 27.5345
#
#
#
# Elastic Compliance Matrix: (Units=1/GPa)
#
#
# Indices 1 2 3 4 5 6 
#
# 1 0.010555 -0.002256 -0.006643 0.000000 0.000000 0.000000
# 2 -0.002256 0.010555 -0.006643 0.000000 0.000000 0.000000
# 3 -0.006643 -0.006643 0.040694 0.000000 0.000000 0.000000
# 4 0.000000 0.000000 0.000000 0.066121 0.000000 0.000000
# 5 0.000000 0.000000 0.000000 0.000000 0.066121 0.000000
# 6 0.000000 0.000000 0.000000 0.000000 0.000000 0.036318
#
#
# Mechanical properties :
#
#
# Convention : Reuss Voigt Hill
#
# Bulk Modulus (GPa) = 32.55077 51.78077 42.16577
# Shear Modulus (GPa) = 18.40352 23.46700 20.93526
#
# Velocity S-wave (km/s) = 3.14442 3.55074 3.35374
# Velocity P-wave (km/s) = 5.53816 6.68056 6.13601
#
# Compressibility (1/GPa) = 0.03072124
#
# Stress axis : x y z
#
# Youngs Moduli (GPa) = 94.74114 94.74114 24.57358
#
# Poissons Ratio (x) = 0.21375 0.16323
# Poissons Ratio (y) = 0.21375 0.16323
# Poissons Ratio (z) = 0.62933 0.62933
#
# Static dielectric constant tensor:
#      x y z
#    x 1.681390 0.000000 0.000000 
#    y 0.000000 1.681390 0.000000 
#    z 0.000000 0.000000 1.649180 
# 
# From -- ./inp_files/7844.got.cif
#   From: 2010.05.17/outbox.cif.g08.bks.cpg/sg137_4_cif.got.tgz:7844.got - 2010.05.20 13:01:12.
