data_PCOD9570506
_publ_section_title
;
Structure prediction by ZEFSAII (Michael W. Deem and Ramdas Pophale) SiO2 
 PCOD9570506
Probable space group: P 42/N M C
;
_chemical_formula_sum "Si O2"
_cell_formula_units_Z 64
_cell_length_a 19.498185
_cell_length_b 19.498185
_cell_length_c 8.910330
_cell_angle_alpha 90.000000
_cell_angle_beta 90.000000
_cell_angle_gamma 90.000000
_cell_volume 3387.522294
_symmetry_space_group_name_H-M "P 42/N M C"
_symmetry_group_IT_number 137
_space_group.IT_coordinate_system_code '2'
_symmetry_cell_setting 'tetragonal'
loop_
_space_group_symop_operation_xyz
x,y,z
1/2-y,x,1/2+z
1/2-x,1/2-y,z
y,1/2-x,1/2+z
1/2+x,-y,-z
-x,1/2+y,-z
1/2+y,1/2+x,1/2-z
-y,-x,1/2-z
-x,-y,-z
1/2+y,-x,1/2-z
1/2+x,1/2+y,-z
-y,1/2+x,1/2-z
1/2-x,y,z
x,1/2-y,z
1/2-y,1/2-x,1/2+z
y,x,1/2+z
loop_
_atom_site_type_symbol
_atom_site_label
_atom_site_fract_x
_atom_site_fract_y
_atom_site_fract_z
Si Si1 0.573827 0.860771 0.314997
Si Si2 0.176735 0.325747 0.937684
Si Si3 0.068395 0.668139 0.170790
Si Si4 0.570204 0.484645 0.404642
O O1 0.610869 0.823757 0.450796
O O2 0.612803 0.835030 0.168960
O O3 0.494269 0.847238 0.286459
O O4 0.589920 0.940312 0.344290
O O5 0.250000 0.326827 0.855901
O O6 0.171622 0.250000 0.009022
O O7 0.135032 0.635032 0.250000
O O8 0.073277 0.750000 0.145177
O O9 0.048453 0.625154 0.019501
O O10 0.556851 0.443150 0.250000
O O11 0.500000 0.500000 0.500000
#
# Coordination Sequence:
#
# PCOD9570506 Si02
#       4
#    16  16  16  16
#     4  12  21  37  63  91 127 168 220 266 319 392
#     4  11  23  36  52  86 137 181 212 254 317 390
#     4  12  26  45  70 100 131 176 230 283 343 405
#     4  12  21  42  68  97 133 168 213 275 342 400
#
# _framework density 18.892865
#
# number of rings (size 3 to 8) (size 9 to 14) (size 15 to 20)
#    0.000    0.250    7.500    3.000    0.000    3.250 
#    0.000    1.250    0.000    0.000    0.000    0.000 
#    0.000    0.000    0.000    0.000    0.000    0.000 
#
# Total GULP energy -357010.503682 kJ/mol
# GULP energy per Si atom -5578.289120 kJ/mol
# Density = 1.884986 g / cm^3
# Si number density = 18.892865 Si / 1000 Ang^3
#
#
#
# Elastic Constant Matrix: (Units=GPa)
#
#
# Indices 1 2 3 4 5 6 
#
# 1 127.1940 33.4266 39.3030 0.0000 0.0000 0.0000
# 2 33.4266 127.1948 39.3031 0.0000 0.0000 0.0000
# 3 39.3030 39.3031 82.9155 0.0000 0.0000 0.0000
# 4 0.0000 0.0000 0.0000 32.8514 0.0000 0.0000
# 5 0.0000 0.0000 0.0000 0.0000 32.8514 0.0000
# 6 0.0000 0.0000 0.0000 0.0000 0.0000 28.8506
#
#
#
# Elastic Compliance Matrix: (Units=1/GPa)
#
#
# Indices 1 2 3 4 5 6 
#
# 1 0.009386 -0.001279 -0.003843 0.000000 0.000000 0.000000
# 2 -0.001279 0.009385 -0.003842 0.000000 0.000000 0.000000
# 3 -0.003843 -0.003842 0.015703 0.000000 0.000000 0.000000
# 4 0.000000 0.000000 0.000000 0.030440 0.000000 0.000000
# 5 0.000000 0.000000 0.000000 0.000000 0.030440 0.000000
# 6 0.000000 0.000000 0.000000 0.000000 0.000000 0.034661
#
#
# Mechanical properties :
#
#
# Convention : Reuss Voigt Hill
#
# Bulk Modulus (GPa) = 60.43796 62.37440 61.40618
# Shear Modulus (GPa) = 32.58193 33.92880 33.25536
#
# Velocity S-wave (km/s) = 4.15729 4.24235 4.20003
# Velocity P-wave (km/s) = 7.42316 7.55534 7.48954
#
# Compressibility (1/GPa) = 0.01654589
#
# Stress axis : x y z
#
# Youngs Moduli (GPa) = 106.54726 106.54795 63.68103
#
# Poissons Ratio (x) = 0.13629 0.24469
# Poissons Ratio (y) = 0.13629 0.24469
# Poissons Ratio (z) = 0.40941 0.40941
#
# Static dielectric constant tensor:
#      x y z
#    x 1.686740 0.000000 0.000000 
#    y 0.000000 1.686760 0.000000 
#    z 0.000000 0.000000 1.685600 
# 
# From -- ./inp_files/1797.got.cif
#   From: 2010.05.17/outbox.cif.g08.bks.cpg/sg137_1_cif.got.tgz:1797.got - 2010.05.20 13:01:12.
