data_PCOD9570423
_publ_section_title
;
Structure prediction by ZEFSAII (Michael W. Deem and Ramdas Pophale) SiO2 
 PCOD9570423
Probable space group: P 42/N M C
;
_chemical_formula_sum "Si O2"
_cell_formula_units_Z 84
_cell_length_a 21.634760
_cell_length_b 21.634760
_cell_length_c 9.181172
_cell_angle_alpha 90.000000
_cell_angle_beta 90.000000
_cell_angle_gamma 90.000000
_cell_volume 4297.365443
_symmetry_space_group_name_H-M "P 42/N M C"
_symmetry_group_IT_number 137
_space_group.IT_coordinate_system_code '2'
_symmetry_cell_setting 'tetragonal'
loop_
_space_group_symop_operation_xyz
x,y,z
1/2-y,x,1/2+z
1/2-x,1/2-y,z
y,1/2-x,1/2+z
1/2+x,-y,-z
-x,1/2+y,-z
1/2+y,1/2+x,1/2-z
-y,-x,1/2-z
-x,-y,-z
1/2+y,-x,1/2-z
1/2+x,1/2+y,-z
-y,1/2+x,1/2-z
1/2-x,y,z
x,1/2-y,z
1/2-y,1/2-x,1/2+z
y,x,1/2+z
loop_
_atom_site_type_symbol
_atom_site_label
_atom_site_fract_x
_atom_site_fract_y
_atom_site_fract_z
Si Si1 0.750000 0.645825 0.531252
Si Si2 0.413073 0.488960 0.797135
Si Si3 0.678306 0.321695 0.750000
Si Si4 0.939230 0.318499 0.932839
Si Si5 0.088821 0.682779 0.727553
Si Si6 0.561418 0.626292 0.013448
Si Si7 0.750000 0.750000 0.281073
O O1 0.812501 0.603945 0.529189
O O2 0.750000 0.690532 0.388746
O O3 0.750000 0.690455 0.673505
O O4 0.477149 0.522852 0.750000
O O5 0.368632 0.545696 0.845316
O O6 0.385718 0.455157 0.654730
O O7 0.413961 0.437251 0.920278
O O8 0.750000 0.328641 0.796024
O O9 0.664833 0.371958 0.626187
O O10 0.953647 0.250000 0.875141
O O11 0.996721 0.361937 0.901570
O O12 0.935611 0.314131 0.106906
O O13 0.157573 0.657573 0.750000
O O14 0.085434 0.750000 0.659310
#
# Coordination Sequence:
#
# PCOD9570423 Si02
#       7
#     8  16   8  16  16  16   4
#     4  11  22  42  64  94 119 164 200 256 307 374
#     4  10  22  38  59  87 119 156 199 245 295 355
#     4   9  18  32  52  80 110 144 188 238 295 336
#     4   9  18  34  54  77 107 148 185 230 279 350
#     4   9  19  36  56  80 113 149 192 233 289 347
#     4  11  21  38  62  85 117 157 201 237 303 357
#     4  10  24  42  64  90 128 150 204 258 312 362
#
# _framework density 19.546861
#
# number of rings (size 3 to 8) (size 9 to 14) (size 15 to 20)
#    0.000    2.190    0.952    1.714    2.667    0.952 
#    3.429    1.905    0.000    0.000    0.000    0.000 
#    0.000    0.000    0.000    0.000    0.000    0.000 
#
# Total GULP energy -467942.791436 kJ/mol
# GULP energy per Si atom -5570.747517 kJ/mol
# Density = 1.950237 g / cm^3
# Si number density = 19.546861 Si / 1000 Ang^3
#
#
#
# Elastic Constant Matrix: (Units=GPa)
#
#
# Indices 1 2 3 4 5 6 
#
# 1 91.6604 41.6824 12.1244 0.0000 0.0000 0.0000
# 2 41.6824 91.6599 12.1243 0.0000 0.0000 0.0000
# 3 12.1244 12.1243 31.8788 0.0000 0.0000 0.0000
# 4 0.0000 0.0000 0.0000 21.4911 0.0000 0.0000
# 5 0.0000 0.0000 0.0000 0.0000 21.4903 0.0000
# 6 0.0000 0.0000 0.0000 0.0000 0.0000 26.4918
#
#
#
# Elastic Compliance Matrix: (Units=1/GPa)
#
#
# Indices 1 2 3 4 5 6 
#
# 1 0.014033 -0.005976 -0.003064 0.000000 0.000000 0.000000
# 2 -0.005976 0.014033 -0.003064 0.000000 0.000000 0.000000
# 3 -0.003064 -0.003064 0.033700 0.000000 0.000000 0.000000
# 4 0.000000 0.000000 0.000000 0.046531 0.000000 0.000000
# 5 0.000000 0.000000 0.000000 0.000000 0.046533 0.000000
# 6 0.000000 0.000000 0.000000 0.000000 0.000000 0.037748
#
#
# Mechanical properties :
#
#
# Convention : Reuss Voigt Hill
#
# Bulk Modulus (GPa) = 26.62672 38.56237 32.59454
# Shear Modulus (GPa) = 21.80512 23.84583 22.82547
#
# Velocity S-wave (km/s) = 3.34358 3.49654 3.42091
# Velocity P-wave (km/s) = 5.34393 6.00600 5.68461
#
# Compressibility (1/GPa) = 0.03755626
#
# Stress axis : x y z
#
# Youngs Moduli (GPa) = 71.26178 71.26135 29.67401
#
# Poissons Ratio (x) = 0.42587 0.09093
# Poissons Ratio (y) = 0.42587 0.09093
# Poissons Ratio (z) = 0.21836 0.21836
#
# Static dielectric constant tensor:
#      x y z
#    x 1.718300 0.000000 0.000000 
#    y 0.000000 1.718300 0.000000 
#    z 0.000000 0.000000 1.678150 
# 
# From -- ./inp_files/3702.got.cif
#   From: 2010.05.17/outbox.cif.g08.bks.cpg/sg137_2_cif.got.tgz:3702.got - 2010.05.20 13:01:12.
