data_PCOD9570383
_publ_section_title
;
Structure prediction by ZEFSAII (Michael W. Deem and Ramdas Pophale) SiO2 
 PCOD9570383
Probable space group: P 42/N M C
;
_chemical_formula_sum "Si O2"
_cell_formula_units_Z 96
_cell_length_a 14.076728
_cell_length_b 14.076728
_cell_length_c 26.609721
_cell_angle_alpha 90.000000
_cell_angle_beta 90.000000
_cell_angle_gamma 90.000000
_cell_volume 5272.829871
_symmetry_space_group_name_H-M "P 42/N M C"
_symmetry_group_IT_number 137
_space_group.IT_coordinate_system_code '2'
_symmetry_cell_setting 'tetragonal'
loop_
_space_group_symop_operation_xyz
x,y,z
1/2-y,x,1/2+z
1/2-x,1/2-y,z
y,1/2-x,1/2+z
1/2+x,-y,-z
-x,1/2+y,-z
1/2+y,1/2+x,1/2-z
-y,-x,1/2-z
-x,-y,-z
1/2+y,-x,1/2-z
1/2+x,1/2+y,-z
-y,1/2+x,1/2-z
1/2-x,y,z
x,1/2-y,z
1/2-y,1/2-x,1/2+z
y,x,1/2+z
loop_
_atom_site_type_symbol
_atom_site_label
_atom_site_fract_x
_atom_site_fract_y
_atom_site_fract_z
Si Si1 0.073203 0.635993 0.694250
Si Si2 0.979140 0.010369 0.625413
Si Si3 0.364013 0.641069 0.194654
Si Si4 0.518927 0.602172 0.022836
Si Si5 0.750000 0.134435 0.494308
Si Si6 0.250000 0.637398 0.621847
Si Si7 0.858561 0.637394 0.428322
O O1 0.103564 0.603564 0.750000
O O2 0.053894 0.750000 0.694514
O O3 0.996213 0.567678 0.668803
O O4 0.159681 0.616624 0.655731
O O5 0.071449 0.065029 0.601603
O O6 0.919865 0.093856 0.650582
O O7 0.918948 0.961347 0.580869
O O8 0.394047 0.605954 0.250000
O O9 0.250000 0.639556 0.194456
O O10 0.394734 0.750000 0.189022
O O11 0.500000 0.500000 0.000000
O O12 0.420928 0.661056 0.018069
O O13 0.600636 0.642307 0.986370
O O14 0.750000 0.250000 0.499387
O O15 0.750000 0.102959 0.435351
O O16 0.250000 0.750000 0.614845
O O17 0.750000 0.629430 0.409133
O O18 0.885963 0.750000 0.425533
#
# Coordination Sequence:
#
# PCOD9570383 Si02
#       7
#    16  16  16  16   8   8  16
#     4  11  22  37  60  91 126 162 201 248 310 383
#     4  11  23  36  59  89 118 154 200 260 303 367
#     4   9  19  37  59  82 112 150 196 251 310 360
#     4  10  22  37  56  84 122 157 204 253 309 376
#     4  11  22  38  61  93 129 171 212 270 322 379
#     4   9  18  32  56  83 119 159 195 238 295 359
#     4  10  21  38  59  81 115 158 199 242 298 368
#
# _framework density 18.206543
#
# number of rings (size 3 to 8) (size 9 to 14) (size 15 to 20)
#    0.000    1.833    1.667    3.500    2.333    4.000 
#    0.000    0.000    0.000    0.500    0.000    0.000 
#    0.000    0.000    0.000    0.000    0.000    0.000 
#
# Total GULP energy -534539.969309 kJ/mol
# GULP energy per Si atom -5568.124680 kJ/mol
# Density = 1.816510 g / cm^3
# Si number density = 18.206543 Si / 1000 Ang^3
#
#
#
# Elastic Constant Matrix: (Units=GPa)
#
#
# Indices 1 2 3 4 5 6 
#
# 1 75.5238 30.6323 32.9479 0.0000 0.0000 0.0000
# 2 30.6323 75.5238 32.9479 0.0000 0.0000 0.0000
# 3 32.9479 32.9479 88.0369 0.0000 0.0000 0.0000
# 4 0.0000 0.0000 0.0000 28.9971 0.0000 0.0000
# 5 0.0000 0.0000 0.0000 0.0000 28.9972 0.0000
# 6 0.0000 0.0000 0.0000 0.0000 0.0000 24.9680
#
#
#
# Elastic Compliance Matrix: (Units=1/GPa)
#
#
# Indices 1 2 3 4 5 6 
#
# 1 0.017273 -0.005003 -0.004592 0.000000 0.000000 0.000000
# 2 -0.005003 0.017273 -0.004592 0.000000 0.000000 0.000000
# 3 -0.004592 -0.004592 0.014796 0.000000 0.000000 0.000000
# 4 0.000000 0.000000 0.000000 0.034486 0.000000 0.000000
# 5 0.000000 0.000000 0.000000 0.000000 0.034486 0.000000
# 6 0.000000 0.000000 0.000000 0.000000 0.000000 0.040051
#
#
# Mechanical properties :
#
#
# Convention : Reuss Voigt Hill
#
# Bulk Modulus (GPa) = 47.69084 48.01565 47.85324
# Shear Modulus (GPa) = 25.80906 26.09623 25.95265
#
# Velocity S-wave (km/s) = 3.76915 3.79006 3.77962
# Velocity P-wave (km/s) = 6.72259 6.75150 6.73706
#
# Compressibility (1/GPa) = 0.02096839
#
# Stress axis : x y z
#
# Youngs Moduli (GPa) = 57.89269 57.89270 67.58460
#
# Poissons Ratio (x) = 0.28961 0.31037
# Poissons Ratio (y) = 0.28961 0.31037
# Poissons Ratio (z) = 0.26586 0.26586
#
# Static dielectric constant tensor:
#      x y z
#    x 1.721350 0.000000 0.000000 
#    y 0.000000 1.721350 0.000000 
#    z 0.000000 0.000000 1.699340 
# 
# From -- ./inp_files/8867.got.cif
#   From: 2010.05.17/outbox.cif.g08.bks.cpg/sg137_5_cif.got.tgz:8867.got - 2010.05.20 13:01:12.
