data_PCOD9570241
_publ_section_title
;
Structure prediction by ZEFSAII (Michael W. Deem and Ramdas Pophale) SiO2 
 PCOD9570241
Probable space group: P 42/N M C
;
_chemical_formula_sum "Si O2"
_cell_formula_units_Z 64
_cell_length_a 17.749896
_cell_length_b 17.749896
_cell_length_c 10.758998
_cell_angle_alpha 90.000000
_cell_angle_beta 90.000000
_cell_angle_gamma 90.000000
_cell_volume 3389.717085
_symmetry_space_group_name_H-M "P 42/N M C"
_symmetry_group_IT_number 137
_space_group.IT_coordinate_system_code '2'
_symmetry_cell_setting 'tetragonal'
loop_
_space_group_symop_operation_xyz
x,y,z
1/2-y,x,1/2+z
1/2-x,1/2-y,z
y,1/2-x,1/2+z
1/2+x,-y,-z
-x,1/2+y,-z
1/2+y,1/2+x,1/2-z
-y,-x,1/2-z
-x,-y,-z
1/2+y,-x,1/2-z
1/2+x,1/2+y,-z
-y,1/2+x,1/2-z
1/2-x,y,z
x,1/2-y,z
1/2-y,1/2-x,1/2+z
y,x,1/2+z
loop_
_atom_site_type_symbol
_atom_site_label
_atom_site_fract_x
_atom_site_fract_y
_atom_site_fract_z
Si Si1 0.572610 0.662427 0.776530
Si Si2 0.660150 0.339851 0.750000
Si Si3 0.340088 0.573374 0.004274
Si Si4 0.584835 0.415166 0.250000
Si Si5 0.660981 0.604607 0.006303
O O1 0.547023 0.750000 0.763793
O O2 0.501832 0.606504 0.772260
O O3 0.616258 0.651123 0.904328
O O4 0.621118 0.646256 0.651919
O O5 0.750000 0.351758 0.734642
O O6 0.633836 0.383480 0.872757
O O7 0.250000 0.579597 0.999260
O O8 0.358126 0.484317 0.010453
O O9 0.372961 0.606352 0.876987
O O10 0.750000 0.613869 0.984684
#
# Coordination Sequence:
#
# PCOD9570241 Si02
#       5
#    16   8  16   8  16
#     4  10  22  38  57  84 113 144 186 229 273 330
#     4   9  18  31  48  75 110 145 186 234 276 322
#     4   9  19  35  53  76 108 144 182 225 275 327
#     4  10  20  35  56  80 112 143 178 226 272 322
#     4   9  20  38  56  78 110 143 178 226 276 324
#
# _framework density 18.880631000000001
#
# number of rings (size 3 to 8) (size 9 to 14) (size 15 to 20)
#    0.000    2.625    0.000    2.250    0.000   10.500 
#    0.000    5.000    0.000    3.375    0.000    0.000 
#    0.000    0.000    0.000    0.000    0.000    0.000 
#
# Total GULP energy -356834.501252 kJ/mol
# GULP energy per Si atom -5575.539082 kJ/mol
# Density = 1.883766 g / cm^3
# Si number density = 18.880631 Si / 1000 Ang^3
#
#
#
# Elastic Constant Matrix: (Units=GPa)
#
#
# Indices 1 2 3 4 5 6 
#
# 1 23.0538 27.0287 31.2502 0.0000 0.0000 0.0000
# 2 27.0287 23.0546 31.2501 0.0000 0.0000 0.0000
# 3 31.2502 31.2501 139.9989 0.0000 0.0000 0.0000
# 4 0.0000 0.0000 0.0000 37.6491 0.0000 0.0000
# 5 0.0000 0.0000 0.0000 0.0000 37.6486 0.0000
# 6 0.0000 0.0000 0.0000 0.0000 0.0000 13.3900
#
#
#
# Elastic Compliance Matrix: (Units=1/GPa)
#
#
# Indices 1 2 3 4 5 6 
#
# 1 -0.111966 0.139640 -0.006177 0.000000 0.000000 0.000000
# 2 0.139640 -0.111960 -0.006179 0.000000 0.000000 0.000000
# 3 -0.006177 -0.006179 0.009901 0.000000 0.000000 0.000000
# 4 0.000000 0.000000 0.000000 0.026561 0.000000 0.000000
# 5 0.000000 0.000000 0.000000 0.000000 0.026561 0.000000
# 6 0.000000 0.000000 0.000000 0.000000 0.000000 0.074683
#
#
# Mechanical properties :
#
#
# Convention : Reuss Voigt Hill
#
# Bulk Modulus (GPa) = 24.66556 40.57395 32.61975
# Shear Modulus (GPa) = -15.27772 24.17608 4.44918
#
# Velocity S-wave (km/s) = -2.84769 3.58225 1.53675
# Velocity P-wave (km/s) = 1.50993 6.21662 4.52362
#
# Compressibility (1/GPa) = 0.04054236
#
# Stress axis : x y z
#
# Youngs Moduli (GPa) = -8.93126 -8.93175 101.00072
#
# Poissons Ratio (x) = 1.24723 0.62389
# Poissons Ratio (y) = 1.24716 0.62405
# Poissons Ratio (z) = -0.05517 -0.05519
#
# Static dielectric constant tensor:
#      x y z
#    x 1.646700 0.000000 0.000000 
#    y 0.000000 1.646700 0.000000 
#    z 0.000000 0.000000 1.666570 
# 
# From -- ./inp_files/3370.got.cif
#   From: 2010.05.17/outbox.cif.g08.bks.cpg/sg137_2_cif.got.tgz:3370.got - 2010.05.20 13:01:12.
