data_PCOD9570713
_publ_section_title
;
Structure prediction by ZEFSAII (Michael W. Deem and Ramdas Pophale) SiO2 
 PCOD9570713
Probable space group: P 42/N C M
;
_chemical_formula_sum "Si O2"
_cell_formula_units_Z 112
_cell_length_a 15.359365
_cell_length_b 15.359365
_cell_length_c 25.878767
_cell_angle_alpha 90.000000
_cell_angle_beta 90.000000
_cell_angle_gamma 90.000000
_cell_volume 6105.062335
_symmetry_space_group_name_H-M "P 42/N C M"
_symmetry_group_IT_number 138
_space_group.IT_coordinate_system_code '2'
_symmetry_cell_setting 'tetragonal'
loop_
_space_group_symop_operation_xyz
x,y,z
1/2-y,x,1/2+z
1/2-x,1/2-y,z
y,1/2-x,1/2+z
1/2+x,-y,1/2-z
-x,1/2+y,1/2-z
1/2+y,1/2+x,-z
-y,-x,-z
-x,-y,-z
1/2+y,-x,1/2-z
1/2+x,1/2+y,-z
-y,1/2+x,1/2-z
1/2-x,y,1/2+z
x,1/2-y,1/2+z
1/2-y,1/2-x,z
y,x,z
loop_
_atom_site_type_symbol
_atom_site_label
_atom_site_fract_x
_atom_site_fract_y
_atom_site_fract_z
Si Si1 0.974089 0.116158 0.048454
Si Si2 0.516496 0.130799 0.745684
Si Si3 0.222030 0.081653 0.574785
Si Si4 0.629777 0.166791 0.650084
Si Si5 0.608789 0.755688 0.803921
Si Si6 0.935964 0.423512 0.057723
Si Si7 0.869422 0.166849 0.345221
O O1 0.911948 0.144733 0.095048
O O2 0.043402 0.196484 0.042406
O O3 0.915496 0.084505 0.000000
O O4 0.033397 0.033397 0.063087
O O5 0.575904 0.120438 0.695178
O O6 0.466105 0.221647 0.733534
O O7 0.574795 0.136566 0.796389
O O8 0.445542 0.054459 0.749727
O O9 0.174544 0.174544 0.562363
O O10 0.249017 0.084916 0.635271
O O11 0.146507 0.010549 0.569755
O O12 0.629350 0.271368 0.657786
O O13 0.729542 0.138616 0.653717
O O14 0.649258 0.850743 0.794000
O O15 0.685757 0.685757 0.797294
O O16 0.865609 0.413427 0.102073
O O17 0.981932 0.518069 0.057588
O O18 0.903971 0.403971 0.000000
#
# Coordination Sequence:
#
# PCOD9570713 Si02
#       7
#    16  16  16  16  16  16  16
#     4  11  23  39  61  92 126 160 203 254 314 377
#     4  11  21  37  60  85 118 152 194 252 309 359
#     4  10  19  35  61  90 119 154 201 253 305 363
#     4  11  23  39  58  82 119 157 195 243 299 362
#     4   9  17  31  56  87 116 149 190 240 297 355
#     4  10  21  37  57  84 116 149 193 250 302 349
#     4  11  23  38  59  85 113 156 204 240 293 373
#
# _framework density 18.345431000000001
#
# number of rings (size 3 to 8) (size 9 to 14) (size 15 to 20)
#    0.000    1.571    2.857    2.143    2.000    2.000 
#    0.000    6.429    0.000    0.000    0.000    0.000 
#    0.000    0.000    0.000    0.000    0.000    0.000 
#
# Total GULP energy -624931.642810 kJ/mol
# GULP energy per Si atom -5579.746811 kJ/mol
# Density = 1.830368 g / cm^3
# Si number density = 18.345431 Si / 1000 Ang^3
#
#
#
# Elastic Constant Matrix: (Units=GPa)
#
#
# Indices 1 2 3 4 5 6 
#
# 1 91.6867 56.8585 63.0229 0.0000 0.0000 0.0000
# 2 56.8585 91.6870 63.0232 0.0000 0.0000 0.0000
# 3 63.0229 63.0232 127.4595 0.0000 0.0000 0.0000
# 4 0.0000 0.0000 0.0000 39.3543 0.0000 0.0000
# 5 0.0000 0.0000 0.0000 0.0000 39.3541 0.0000
# 6 0.0000 0.0000 0.0000 0.0000 0.0000 26.5009
#
#
#
# Elastic Compliance Matrix: (Units=1/GPa)
#
#
# Indices 1 2 3 4 5 6 
#
# 1 0.020155 -0.008557 -0.005735 0.000000 0.000000 0.000000
# 2 -0.008557 0.020155 -0.005735 0.000000 0.000000 0.000000
# 3 -0.005735 -0.005735 0.013517 0.000000 0.000000 0.000000
# 4 0.000000 0.000000 0.000000 0.025410 0.000000 0.000000
# 5 0.000000 0.000000 0.000000 0.000000 0.025410 0.000000
# 6 0.000000 0.000000 0.000000 0.000000 0.000000 0.037734
#
#
# Mechanical properties :
#
#
# Convention : Reuss Voigt Hill
#
# Bulk Modulus (GPa) = 72.60060 75.18250 73.89155
# Shear Modulus (GPa) = 26.73417 29.57045 28.15231
#
# Velocity S-wave (km/s) = 3.82156 4.01917 3.92161
# Velocity P-wave (km/s) = 7.68977 7.91257 7.80197
#
# Compressibility (1/GPa) = 0.01377399
#
# Stress axis : x y z
#
# Youngs Moduli (GPa) = 49.61507 49.61503 73.98213
#
# Poissons Ratio (x) = 0.42456 0.42427
# Poissons Ratio (y) = 0.42456 0.42427
# Poissons Ratio (z) = 0.28453 0.28453
#
# Static dielectric constant tensor:
#      x y z
#    x 1.655720 0.000000 0.000000 
#    y 0.000000 1.655720 0.000000 
#    z 0.000000 0.000000 1.597060 
# 
# From -- ./inp_files/7079.got.cif
#   From: 2010.05.17/outbox.cif.g08.bks.cpg/sg138_4_cif.got.tgz:7079.got - 2010.05.20 13:08:53.
