data_PCOD9570752
_publ_section_title
;
Structure prediction by ZEFSAII (Michael W. Deem and Ramdas Pophale) SiO2 
 PCOD9570752
Probable space group: P 42/N C M
;
_chemical_formula_sum "Si O2"
_cell_formula_units_Z 96
_cell_length_a 13.506718
_cell_length_b 13.506718
_cell_length_c 30.365926
_cell_angle_alpha 90.000000
_cell_angle_beta 90.000000
_cell_angle_gamma 90.000000
_cell_volume 5539.699338
_symmetry_space_group_name_H-M "P 42/N C M"
_symmetry_group_IT_number 138
_space_group.IT_coordinate_system_code '2'
_symmetry_cell_setting 'tetragonal'
loop_
_space_group_symop_operation_xyz
x,y,z
1/2-y,x,1/2+z
1/2-x,1/2-y,z
y,1/2-x,1/2+z
1/2+x,-y,1/2-z
-x,1/2+y,1/2-z
1/2+y,1/2+x,-z
-y,-x,-z
-x,-y,-z
1/2+y,-x,1/2-z
1/2+x,1/2+y,-z
-y,1/2+x,1/2-z
1/2-x,y,1/2+z
x,1/2-y,1/2+z
1/2-y,1/2-x,z
y,x,z
loop_
_atom_site_type_symbol
_atom_site_label
_atom_site_fract_x
_atom_site_fract_y
_atom_site_fract_z
Si Si1 0.244640 0.415026 0.852259
Si Si2 0.084208 0.244835 0.526250
Si Si3 0.353584 0.976434 0.597315
Si Si4 0.998741 0.672027 0.560719
Si Si5 0.017044 0.650715 0.299983
Si Si6 0.328974 0.004445 0.264381
O O1 0.140914 0.359087 0.850826
O O2 0.329938 0.329938 0.852751
O O3 0.260917 0.474827 0.896994
O O4 0.265028 0.477054 0.808559
O O5 0.170652 0.329349 0.525537
O O6 0.141226 0.141226 0.523255
O O7 0.015307 0.268638 0.484348
O O8 0.023307 0.262442 0.570917
O O9 0.399257 0.884624 0.570317
O O10 0.337375 0.954599 0.648644
O O11 0.440100 0.059901 0.596856
O O12 0.914168 0.585833 0.559527
O O13 0.101405 0.589060 0.274449
O O14 0.917585 0.582416 0.298155
O O15 0.003696 0.755004 0.276221
O O16 0.402070 0.097931 0.258902
#
# Coordination Sequence:
#
# PCOD9570752 Si02
#       6
#    16  16  16  16  16  16
#     4   9  15  24  41  64  90 121 160 206 251 297
#     4   9  16  23  34  58  91 128 171 211 248 301
#     4   9  16  27  41  58  88 130 169 207 255 310
#     4   9  14  23  38  58  87 126 166 204 251 304
#     4  10  20  34  51  71  98 133 173 216 261 312
#     4  10  20  34  50  71  98 129 169 212 260 314
#
# _framework density 17.329460000000001
#
# number of rings (size 3 to 8) (size 9 to 14) (size 15 to 20)
#    0.000    2.667    1.667    1.500    0.000    6.000 
#    0.000    1.667    0.000    0.000    0.000    0.000 
#    0.000    1.333    1.000    7.000    2.333    6.333 
#
# Total GULP energy -534871.651927 kJ/mol
# GULP energy per Si atom -5571.579708 kJ/mol
# Density = 1.729002 g / cm^3
# Si number density = 17.329460 Si / 1000 Ang^3
#
#
#
# Elastic Constant Matrix: (Units=GPa)
#
#
# Indices 1 2 3 4 5 6 
#
# 1 54.0973 32.7227 50.9950 0.0000 0.0000 0.0000
# 2 32.7227 54.0973 50.9950 0.0000 0.0000 0.0000
# 3 50.9950 50.9950 100.4109 0.0000 0.0000 0.0000
# 4 0.0000 0.0000 0.0000 9.0146 0.0000 0.0000
# 5 0.0000 0.0000 0.0000 0.0000 9.0146 0.0000
# 6 0.0000 0.0000 0.0000 0.0000 0.0000 16.5471
#
#
#
# Elastic Compliance Matrix: (Units=1/GPa)
#
#
# Indices 1 2 3 4 5 6 
#
# 1 0.037669 -0.009116 -0.014501 0.000000 0.000000 0.000000
# 2 -0.009116 0.037669 -0.014501 0.000000 0.000000 0.000000
# 3 -0.014501 -0.014501 0.024688 0.000000 0.000000 0.000000
# 4 0.000000 0.000000 0.000000 0.110931 0.000000 0.000000
# 5 0.000000 0.000000 0.000000 0.000000 0.110931 0.000000
# 6 0.000000 0.000000 0.000000 0.000000 0.000000 0.060433
#
#
# Mechanical properties :
#
#
# Convention : Reuss Voigt Hill
#
# Bulk Modulus (GPa) = 42.03462 53.11455 47.57458
# Shear Modulus (GPa) = 10.71843 11.84144 11.27993
#
# Velocity S-wave (km/s) = 2.48968 2.61686 2.55406
# Velocity P-wave (km/s) = 5.70732 6.31245 6.01750
#
# Compressibility (1/GPa) = 0.02378991
#
# Stress axis : x y z
#
# Youngs Moduli (GPa) = 26.54726 26.54726 40.50551
#
# Poissons Ratio (x) = 0.24200 0.58737
# Poissons Ratio (y) = 0.24200 0.58737
# Poissons Ratio (z) = 0.38496 0.38496
#
# Static dielectric constant tensor:
#      x y z
#    x 1.585280 0.000000 0.000000 
#    y 0.000000 1.585280 0.000000 
#    z 0.000000 0.000000 1.583350 
# 
# From -- ./inp_files/8213.got.cif
#   From: 2010.05.17/outbox.cif.g08.bks.cpg/sg138_5_cif.got.tgz:8213.got - 2010.05.20 13:08:53.
