data_PCOD9570692
_publ_section_title
;
Structure prediction by ZEFSAII (Michael W. Deem and Ramdas Pophale) SiO2 
 PCOD9570692
Probable space group: P 42/N C M
;
_chemical_formula_sum "Si O2"
_cell_formula_units_Z 112
_cell_length_a 15.574024
_cell_length_b 15.574024
_cell_length_c 23.203378
_cell_angle_alpha 90.000000
_cell_angle_beta 90.000000
_cell_angle_gamma 90.000000
_cell_volume 5627.984521
_symmetry_space_group_name_H-M "P 42/N C M"
_symmetry_group_IT_number 138
_space_group.IT_coordinate_system_code '2'
_symmetry_cell_setting 'tetragonal'
loop_
_space_group_symop_operation_xyz
x,y,z
1/2-y,x,1/2+z
1/2-x,1/2-y,z
y,1/2-x,1/2+z
1/2+x,-y,1/2-z
-x,1/2+y,1/2-z
1/2+y,1/2+x,-z
-y,-x,-z
-x,-y,-z
1/2+y,-x,1/2-z
1/2+x,1/2+y,-z
-y,1/2+x,1/2-z
1/2-x,y,1/2+z
x,1/2-y,1/2+z
1/2-y,1/2-x,z
y,x,z
loop_
_atom_site_type_symbol
_atom_site_label
_atom_site_fract_x
_atom_site_fract_y
_atom_site_fract_z
Si Si1 0.558171 0.078279 0.568361
Si Si2 0.752608 0.883127 0.672052
Si Si3 0.562957 0.257936 0.885308
Si Si4 0.773875 0.583287 0.421280
Si Si5 0.495663 0.140122 0.986026
Si Si6 0.436083 0.203839 0.705735
Si Si7 0.881437 0.293360 0.765882
O O1 0.573326 0.073326 0.500000
O O2 0.647983 0.097717 0.599394
O O3 0.489755 0.153052 0.577044
O O4 0.511080 0.988921 0.586087
O O5 0.686930 0.813071 0.650705
O O6 0.848120 0.848120 0.659601
O O7 0.748506 0.892246 0.740721
O O8 0.729004 0.971122 0.643829
O O9 0.542205 0.204868 0.942455
O O10 0.610868 0.204547 0.835477
O O11 0.826231 0.673769 0.433908
O O12 0.698423 0.550228 0.463860
O O13 0.746988 0.579489 0.354113
O O14 0.417694 0.082307 0.961274
O O15 0.570002 0.070002 0.000000
O O16 0.386685 0.113316 0.698216
O O17 0.532528 0.188693 0.729275
O O18 0.854401 0.195552 0.752817
#
# Coordination Sequence:
#
# PCOD9570692 Si02
#       7
#    16  16  16  16  16  16  16
#     4  10  19  34  57  89 125 154 196 249 293 347
#     4   9  18  33  56  86 118 151 196 253 303 352
#     4  11  21  38  61  86 116 163 199 245 303 370
#     4  10  21  39  64  90 123 164 202 246 299 362
#     4  11  26  44  60  87 123 160 206 257 305 365
#     4   9  19  36  59  86 121 159 199 244 295 361
#     4  10  22  39  60  90 122 155 197 251 302 358
#
# _framework density 19.900552999999999
#
# number of rings (size 3 to 8) (size 9 to 14) (size 15 to 20)
#    0.000    2.000    1.429    1.714    2.000    2.000 
#    0.000    5.000    0.000    0.000    0.000    0.000 
#    0.000    0.000    0.000    0.000    0.000    0.000 
#
# Total GULP energy -623856.148498 kJ/mol
# GULP energy per Si atom -5570.144183 kJ/mol
# Density = 1.985526 g / cm^3
# Si number density = 19.900553 Si / 1000 Ang^3
#
#
#
# Elastic Constant Matrix: (Units=GPa)
#
#
# Indices 1 2 3 4 5 6 
#
# 1 53.0592 33.1177 21.8671 0.0000 0.0000 0.0000
# 2 33.1177 53.0592 21.8671 0.0000 0.0000 0.0000
# 3 21.8671 21.8671 81.9290 0.0000 0.0000 0.0000
# 4 0.0000 0.0000 0.0000 10.0805 0.0000 0.0000
# 5 0.0000 0.0000 0.0000 0.0000 10.0805 0.0000
# 6 0.0000 0.0000 0.0000 0.0000 0.0000 26.3121
#
#
#
# Elastic Compliance Matrix: (Units=1/GPa)
#
#
# Indices 1 2 3 4 5 6 
#
# 1 0.031784 -0.018362 -0.003582 0.000000 0.000000 0.000000
# 2 -0.018362 0.031784 -0.003582 0.000000 0.000000 0.000000
# 3 -0.003582 -0.003582 0.014118 0.000000 0.000000 0.000000
# 4 0.000000 0.000000 0.000000 0.099201 0.000000 0.000000
# 5 0.000000 0.000000 0.000000 0.000000 0.099201 0.000000
# 6 0.000000 0.000000 0.000000 0.000000 0.000000 0.038005
#
#
# Mechanical properties :
#
#
# Convention : Reuss Voigt Hill
#
# Bulk Modulus (GPa) = 37.54803 37.97238 37.76020
# Shear Modulus (GPa) = 13.36804 16.70766 15.03785
#
# Velocity S-wave (km/s) = 2.59461 2.90066 2.75189
# Velocity P-wave (km/s) = 5.28061 5.50826 5.39563
#
# Compressibility (1/GPa) = 0.02663256
#
# Stress axis : x y z
#
# Youngs Moduli (GPa) = 31.46200 31.46200 70.83166
#
# Poissons Ratio (x) = 0.57772 0.25375
# Poissons Ratio (y) = 0.57772 0.25375
# Poissons Ratio (z) = 0.11271 0.11271
#
# Static dielectric constant tensor:
#      x y z
#    x 1.780240 0.000000 0.000000 
#    y 0.000000 1.780240 0.000000 
#    z 0.000000 0.000000 1.797410 
# 
# From -- ./inp_files/7046.got.cif
#   From: 2010.05.17/outbox.cif.g08.bks.cpg/sg138_4_cif.got.tgz:7046.got - 2010.05.20 13:08:53.
