data_PCOD9570067
_publ_section_title
;
Structure prediction by ZEFSAII (Michael W. Deem and Ramdas Pophale) SiO2 
 PCOD9570067
Probable space group: P 42/N M C
;
_chemical_formula_sum "Si O2"
_cell_formula_units_Z 128
_cell_length_a 16.991942
_cell_length_b 16.991942
_cell_length_c 24.977927
_cell_angle_alpha 90.000000
_cell_angle_beta 90.000000
_cell_angle_gamma 90.000000
_cell_volume 7211.779272
_symmetry_space_group_name_H-M "P 42/N M C"
_symmetry_group_IT_number 137
_space_group.IT_coordinate_system_code '2'
_symmetry_cell_setting 'tetragonal'
loop_
_space_group_symop_operation_xyz
x,y,z
1/2-y,x,1/2+z
1/2-x,1/2-y,z
y,1/2-x,1/2+z
1/2+x,-y,-z
-x,1/2+y,-z
1/2+y,1/2+x,1/2-z
-y,-x,1/2-z
-x,-y,-z
1/2+y,-x,1/2-z
1/2+x,1/2+y,-z
-y,1/2+x,1/2-z
1/2-x,y,z
x,1/2-y,z
1/2-y,1/2-x,1/2+z
y,x,1/2+z
loop_
_atom_site_type_symbol
_atom_site_label
_atom_site_fract_x
_atom_site_fract_y
_atom_site_fract_z
Si Si1 0.411051 0.339393 0.540178
Si Si2 0.915846 0.655703 0.645646
Si Si3 0.414132 0.841038 0.697927
Si Si4 0.157833 0.443890 0.448299
Si Si5 0.162803 0.345221 0.246235
Si Si6 0.573623 0.060077 0.992376
Si Si7 0.415129 0.343943 0.140789
Si Si8 0.658969 0.409805 0.402468
O O1 0.394799 0.250000 0.524745
O O2 0.358580 0.398475 0.504218
O O3 0.502615 0.360367 0.530910
O O4 0.387451 0.356383 0.600964
O O5 0.909641 0.750000 0.634086
O O6 0.894302 0.603898 0.594562
O O7 0.856987 0.632671 0.693448
O O8 0.001649 0.641145 0.670900
O O9 0.391547 0.891547 0.750000
O O10 0.415140 0.750000 0.715290
O O11 0.354982 0.853665 0.648268
O O12 0.250000 0.440602 0.435484
O O13 0.126894 0.532980 0.455899
O O14 0.250000 0.370810 0.230316
O O15 0.161370 0.250000 0.246687
O O16 0.099994 0.369539 0.201673
O O17 0.601293 0.100668 0.047481
O O18 0.500000 0.000000 0.000000
O O19 0.401163 0.250000 0.137438
O O20 0.503182 0.358138 0.120775
O O21 0.750000 0.406653 0.419972
#
# Coordination Sequence:
#
# PCOD9570067 Si02
#       8
#    16  16  16  16  16  16  16  16
#     4  11  22  34  53  81 109 139 177 226 280 331
#     4  10  21  35  52  78 109 143 181 226 284 337
#     4  11  23  38  55  78 110 148 193 239 275 320
#     4  11  21  35  56  81 109 145 186 232 282 339
#     4   9  17  30  47  70 104 139 167 202 256 324
#     4  10  20  36  53  74 108 144 180 218 273 335
#     4  10  19  32  52  78 105 137 175 218 271 328
#     4  11  21  35  55  75 102 141 183 226 272 323
#
# _framework density 17.748740000000002
#
# number of rings (size 3 to 8) (size 9 to 14) (size 15 to 20)
#    0.000    1.625    2.500    4.500    0.000    7.125 
#    0.000    0.000    0.000    1.125    0.000    0.000 
#    0.000    0.000    0.000    0.000    0.000    0.125 
#
# Total GULP energy -714102.674848 kJ/mol
# GULP energy per Si atom -5578.927147 kJ/mol
# Density = 1.770834 g / cm^3
# Si number density = 17.748740 Si / 1000 Ang^3
#
#
#
# Elastic Constant Matrix: (Units=GPa)
#
#
# Indices 1 2 3 4 5 6 
#
# 1 33.1855 12.6360 1.4426 0.0000 0.0000 0.0000
# 2 12.6360 33.1855 1.4426 0.0000 0.0000 0.0000
# 3 1.4426 1.4426 75.2891 0.0000 0.0000 0.0000
# 4 0.0000 0.0000 0.0000 23.3168 0.0000 0.0000
# 5 0.0000 0.0000 0.0000 0.0000 23.3168 0.0000
# 6 0.0000 0.0000 0.0000 0.0000 0.0000 15.4010
#
#
#
# Elastic Compliance Matrix: (Units=1/GPa)
#
#
# Indices 1 2 3 4 5 6 
#
# 1 0.035257 -0.013406 -0.000419 0.000000 0.000000 0.000000
# 2 -0.013406 0.035257 -0.000419 0.000000 0.000000 0.000000
# 3 -0.000419 -0.000419 0.013298 0.000000 0.000000 0.000000
# 4 0.000000 0.000000 0.000000 0.042888 0.000000 0.000000
# 5 0.000000 0.000000 0.000000 0.000000 0.042888 0.000000
# 6 0.000000 0.000000 0.000000 0.000000 0.000000 0.064931
#
#
# Mechanical properties :
#
#
# Convention : Reuss Voigt Hill
#
# Bulk Modulus (GPa) = 18.07540 19.18918 18.63229
# Shear Modulus (GPa) = 17.76539 20.81618 19.29079
#
# Velocity S-wave (km/s) = 3.16719 3.42837 3.30037
# Velocity P-wave (km/s) = 4.85602 5.14846 5.00438
#
# Compressibility (1/GPa) = 0.05532382
#
# Stress axis : x y z
#
# Youngs Moduli (GPa) = 28.36349 28.36349 75.19825
#
# Poissons Ratio (x) = 0.38025 0.03148
# Poissons Ratio (y) = 0.38025 0.03148
# Poissons Ratio (z) = 0.01188 0.01188
#
# Static dielectric constant tensor:
#      x y z
#    x 1.625780 0.000000 0.000000 
#    y 0.000000 1.625780 0.000000 
#    z 0.000000 0.000000 1.621000 
# 
# From -- ./inp_files/9211.got.cif
#   From: 2010.05.17/outbox.cif.g08.bks.cpg/sg137_5_cif.got.tgz:9211.got - 2010.05.20 13:01:12.
