data_PCOD9570759
_publ_section_title
;
Structure prediction by ZEFSAII (Michael W. Deem and Ramdas Pophale) SiO2 
 PCOD9570759
Probable space group: P 42/N C M
;
_chemical_formula_sum "Si O2"
_cell_formula_units_Z 112
_cell_length_a 15.724571
_cell_length_b 15.724571
_cell_length_c 22.943891
_cell_angle_alpha 90.000000
_cell_angle_beta 90.000000
_cell_angle_gamma 90.000000
_cell_volume 5673.155431
_symmetry_space_group_name_H-M "P 42/N C M"
_symmetry_group_IT_number 138
_space_group.IT_coordinate_system_code '2'
_symmetry_cell_setting 'tetragonal'
loop_
_space_group_symop_operation_xyz
x,y,z
1/2-y,x,1/2+z
1/2-x,1/2-y,z
y,1/2-x,1/2+z
1/2+x,-y,1/2-z
-x,1/2+y,1/2-z
1/2+y,1/2+x,-z
-y,-x,-z
-x,-y,-z
1/2+y,-x,1/2-z
1/2+x,1/2+y,-z
-y,1/2+x,1/2-z
1/2-x,y,1/2+z
x,1/2-y,1/2+z
1/2-y,1/2-x,z
y,x,z
loop_
_atom_site_type_symbol
_atom_site_label
_atom_site_fract_x
_atom_site_fract_y
_atom_site_fract_z
Si Si1 0.124616 0.520872 0.044302
Si Si2 0.828536 0.184679 0.845020
Si Si3 0.425792 0.937884 0.569679
Si Si4 0.082523 0.286465 0.572892
Si Si5 0.411428 0.955010 0.170723
Si Si6 0.776385 0.595078 0.796238
Si Si7 0.207813 0.559406 0.754955
O O1 0.211023 0.465526 0.038052
O O2 0.127364 0.564879 0.107620
O O3 0.051021 0.448980 0.044855
O O4 0.093299 0.593299 0.000000
O O5 0.750000 0.250000 0.859665
O O6 0.886973 0.143333 0.895991
O O7 0.787474 0.108067 0.806936
O O8 0.894497 0.228817 0.800051
O O9 0.424527 0.924527 0.500000
O O10 0.518556 0.981445 0.584601
O O11 0.357840 0.011589 0.582310
O O12 0.165035 0.334966 0.546789
O O13 0.107585 0.253497 0.637248
O O14 0.421672 0.881192 0.215590
O O15 0.502338 0.997663 0.159522
O O16 0.350992 0.025620 0.198124
O O17 0.818797 0.681204 0.773945
O O18 0.713411 0.541713 0.756145
#
# Coordination Sequence:
#
# PCOD9570759 Si02
#       7
#    16  16  16  16  16  16  16
#     4   9  19  36  58  84 115 150 198 256 306 364
#     4  12  22  36  60  89 124 161 204 263 316 374
#     4  10  24  44  61  85 125 169 213 256 312 390
#     4  10  20  36  59  83 115 156 197 253 314 362
#     4   9  19  34  54  79 110 150 193 238 298 369
#     4  10  20  34  54  84 115 149 200 250 296 365
#     4  12  20  35  56  85 123 158 195 252 311 376
#
# _framework density 19.742099
#
# number of rings (size 3 to 8) (size 9 to 14) (size 15 to 20)
#    0.000    1.714    4.286    1.286    2.000    4.286 
#    0.000    0.000    0.000    0.857    0.000    2.000 
#    0.000    0.000    0.000    0.000    0.000    0.000 
#
# Total GULP energy -623641.536866 kJ/mol
# GULP energy per Si atom -5568.228008 kJ/mol
# Density = 1.969717 g / cm^3
# Si number density = 19.742099 Si / 1000 Ang^3
#
#
#
# Elastic Constant Matrix: (Units=GPa)
#
#
# Indices 1 2 3 4 5 6 
#
# 1 285.6838 -149.7748 38.4276 0.0000 0.0000 0.0000
# 2 -149.7748 285.6838 38.4276 0.0000 0.0000 0.0000
# 3 38.4276 38.4276 67.2321 0.0000 0.0000 0.0000
# 4 0.0000 0.0000 0.0000 11.2960 0.0000 0.0000
# 5 0.0000 0.0000 0.0000 0.0000 11.2960 0.0000
# 6 0.0000 0.0000 0.0000 0.0000 0.0000 42.1577
#
#
#
# Elastic Compliance Matrix: (Units=1/GPa)
#
#
# Indices 1 2 3 4 5 6 
#
# 1 0.006584 0.004288 -0.006214 0.000000 0.000000 0.000000
# 2 0.004288 0.006584 -0.006214 0.000000 0.000000 0.000000
# 3 -0.006214 -0.006214 0.021977 0.000000 0.000000 0.000000
# 4 0.000000 0.000000 0.000000 0.088527 0.000000 0.000000
# 5 0.000000 0.000000 0.000000 0.000000 0.088527 0.000000
# 6 0.000000 0.000000 0.000000 0.000000 0.000000 0.023720
#
#
# Mechanical properties :
#
#
# Convention : Reuss Voigt Hill
#
# Bulk Modulus (GPa) = 53.00821 54.75116 53.87969
# Shear Modulus (GPa) = 19.34322 60.38455 39.86389
#
# Velocity S-wave (km/s) = 3.13356 5.53652 4.49846
# Velocity P-wave (km/s) = 6.32463 8.28639 7.37106
#
# Compressibility (1/GPa) = 0.01886500
#
# Stress axis : x y z
#
# Youngs Moduli (GPa) = 151.88075 151.88075 45.50167
#
# Poissons Ratio (x) = -0.65122 0.28275
# Poissons Ratio (y) = -0.65122 0.28275
# Poissons Ratio (z) = 0.94378 0.94378
#
# Static dielectric constant tensor:
#      x y z
#    x 1.814610 0.000000 0.000000 
#    y 0.000000 1.814610 0.000000 
#    z 0.000000 0.000000 1.689730 
# 
# From -- ./inp_files/7052.got.cif
#   From: 2010.05.17/outbox.cif.g08.bks.cpg/sg138_4_cif.got.tgz:7052.got - 2010.05.20 13:08:53.
