data_PCOD9570619
_publ_section_title
;
Structure prediction by ZEFSAII (Michael W. Deem and Ramdas Pophale) SiO2 
 PCOD9570619
Probable space group: P 42/N C M
;
_chemical_formula_sum "Si O2"
_cell_formula_units_Z 128
_cell_length_a 21.990672
_cell_length_b 21.990672
_cell_length_c 13.260905
_cell_angle_alpha 90.000000
_cell_angle_beta 90.000000
_cell_angle_gamma 90.000000
_cell_volume 6412.836474
_symmetry_space_group_name_H-M "P 42/N C M"
_symmetry_group_IT_number 138
_space_group.IT_coordinate_system_code '2'
_symmetry_cell_setting 'tetragonal'
loop_
_space_group_symop_operation_xyz
x,y,z
1/2-y,x,1/2+z
1/2-x,1/2-y,z
y,1/2-x,1/2+z
1/2+x,-y,1/2-z
-x,1/2+y,1/2-z
1/2+y,1/2+x,-z
-y,-x,-z
-x,-y,-z
1/2+y,-x,1/2-z
1/2+x,1/2+y,-z
-y,1/2+x,1/2-z
1/2-x,y,1/2+z
x,1/2-y,1/2+z
1/2-y,1/2-x,z
y,x,z
loop_
_atom_site_type_symbol
_atom_site_label
_atom_site_fract_x
_atom_site_fract_y
_atom_site_fract_z
Si Si1 0.112555 0.484085 0.022146
Si Si2 0.852190 0.311290 0.607775
Si Si3 0.306869 0.614185 0.718571
Si Si4 0.520052 0.767448 0.713362
Si Si5 0.437085 0.585750 0.657227
Si Si6 0.145470 0.986043 0.168239
Si Si7 0.675539 0.576387 0.011586
Si Si8 0.392616 0.291441 0.608016
O O1 0.062935 0.437066 0.982104
O O2 0.082150 0.520108 0.114846
O O3 0.170718 0.446169 0.052626
O O4 0.121435 0.531029 0.933372
O O5 0.825390 0.325390 0.500000
O O6 0.805629 0.342087 0.685743
O O7 0.865263 0.242107 0.637487
O O8 0.919357 0.340831 0.622317
O O9 0.298291 0.543833 0.752857
O O10 0.374454 0.619781 0.677487
O O11 0.506313 0.698100 0.751102
O O12 0.538312 0.790981 0.601426
O O13 0.578907 0.783690 0.781263
O O14 0.476545 0.587634 0.758866
O O15 0.147061 0.032108 0.074588
O O16 0.623300 0.623300 0.047783
O O17 0.728401 0.612743 0.951349
O O18 0.332587 0.332587 0.607907
#
# Coordination Sequence:
#
# PCOD9570619 Si02
#       8
#    16  16  16  16  16  16  16  16
#     4  10  20  34  58  88 117 148 194 253 299 352
#     4  10  21  41  60  84 118 158 202 256 298 350
#     4  10  21  38  60  86 116 157 205 243 298 364
#     4  10  19  39  61  86 113 159 204 241 292 368
#     4  10  18  35  56  88 119 148 196 246 298 357
#     4   9  21  37  61  86 118 159 198 249 300 367
#     4  11  23  38  61  92 122 153 200 251 309 375
#     4  10  21  39  61  84 117 156 195 242 300 362
#
# _framework density 19.959966000000001
#
# number of rings (size 3 to 8) (size 9 to 14) (size 15 to 20)
#    0.000    2.000    1.250    2.625    0.000    1.500 
#   13.500    4.375    0.000    6.375    0.000    0.000 
#    0.000    0.000    0.000    0.000    0.000    0.000 
#
# Total GULP energy -713359.070313 kJ/mol
# GULP energy per Si atom -5573.117737 kJ/mol
# Density = 1.991454 g / cm^3
# Si number density = 19.959966 Si / 1000 Ang^3
#
#
#
# Elastic Constant Matrix: (Units=GPa)
#
#
# Indices 1 2 3 4 5 6 
#
# 1 52.0696 21.1570 43.9578 0.0000 0.0000 0.0000
# 2 21.1570 52.0696 43.9578 0.0000 0.0000 0.0000
# 3 43.9578 43.9578 116.6751 0.0000 0.0000 0.0000
# 4 0.0000 0.0000 0.0000 19.3434 0.0000 0.0000
# 5 0.0000 0.0000 0.0000 0.0000 19.3434 0.0000
# 6 0.0000 0.0000 0.0000 0.0000 0.0000 3.3740
#
#
#
# Elastic Compliance Matrix: (Units=1/GPa)
#
#
# Indices 1 2 3 4 5 6 
#
# 1 0.028642 -0.003707 -0.009394 0.000000 0.000000 0.000000
# 2 -0.003707 0.028642 -0.009394 0.000000 0.000000 0.000000
# 3 -0.009394 -0.009394 0.015650 0.000000 0.000000 0.000000
# 4 0.000000 0.000000 0.000000 0.051697 0.000000 0.000000
# 5 0.000000 0.000000 0.000000 0.000000 0.051697 0.000000
# 6 0.000000 0.000000 0.000000 0.000000 0.000000 0.296387
#
#
# Mechanical properties :
#
#
# Convention : Reuss Voigt Hill
#
# Bulk Modulus (GPa) = 35.78820 48.77327 42.28074
# Shear Modulus (GPa) = 9.48729 15.86161 12.67445
#
# Velocity S-wave (km/s) = 2.18254 2.82205 2.52264
# Velocity P-wave (km/s) = 4.93155 5.92513 5.45103
#
# Compressibility (1/GPa) = 0.02794217
#
# Stress axis : x y z
#
# Youngs Moduli (GPa) = 34.91355 34.91355 63.89960
#
# Poissons Ratio (x) = 0.12943 0.60030
# Poissons Ratio (y) = 0.12943 0.60030
# Poissons Ratio (z) = 0.32799 0.32799
#
# Static dielectric constant tensor:
#      x y z
#    x 1.763820 0.000000 0.000000 
#    y 0.000000 1.763820 0.000000 
#    z 0.000000 0.000000 1.831830 
# 
# From -- ./inp_files/3358.got.cif
#   From: 2010.05.17/outbox.cif.g08.bks.cpg/sg138_2_cif.got.tgz:3358.got - 2010.05.20 13:08:53.
