data_PCOD9570117
_publ_section_title
;
Structure prediction by ZEFSAII (Michael W. Deem and Ramdas Pophale) SiO2 
 PCOD9570117
Probable space group: P 42/N M C
;
_chemical_formula_sum "Si O2"
_cell_formula_units_Z 96
_cell_length_a 13.565282
_cell_length_b 13.565282
_cell_length_c 21.634484
_cell_angle_alpha 90.000000
_cell_angle_beta 90.000000
_cell_angle_gamma 90.000000
_cell_volume 3981.110154
_symmetry_space_group_name_H-M "P 42/N M C"
_symmetry_group_IT_number 137
_space_group.IT_coordinate_system_code '2'
_symmetry_cell_setting 'tetragonal'
loop_
_space_group_symop_operation_xyz
x,y,z
1/2-y,x,1/2+z
1/2-x,1/2-y,z
y,1/2-x,1/2+z
1/2+x,-y,-z
-x,1/2+y,-z
1/2+y,1/2+x,1/2-z
-y,-x,1/2-z
-x,-y,-z
1/2+y,-x,1/2-z
1/2+x,1/2+y,-z
-y,1/2+x,1/2-z
1/2-x,y,z
x,1/2-y,z
1/2-y,1/2-x,1/2+z
y,x,1/2+z
loop_
_atom_site_type_symbol
_atom_site_label
_atom_site_fract_x
_atom_site_fract_y
_atom_site_fract_z
Si Si1 0.057885 0.423221 0.377261
Si Si2 0.363821 0.643159 0.530021
Si Si3 0.562576 0.363684 0.188149
Si Si4 0.365612 0.357310 0.748924
Si Si5 0.367971 0.087108 0.517041
Si Si6 0.545930 0.146384 0.599952
O O1 0.120242 0.377791 0.321578
O O2 0.094956 0.395806 0.446175
O O3 0.065326 0.541263 0.369900
O O4 0.943726 0.396820 0.360205
O O5 0.250000 0.647256 0.548136
O O6 0.408858 0.750000 0.549859
O O7 0.390356 0.526622 0.534724
O O8 0.376507 0.649060 0.455882
O O9 0.627184 0.372816 0.250000
O O10 0.558514 0.250000 0.168335
O O11 0.453177 0.397623 0.210265
O O12 0.250000 0.352919 0.735740
O O13 0.408325 0.250000 0.734631
O O14 0.250000 0.105471 0.521699
O O15 0.438779 0.142362 0.565307
O O16 0.554686 0.250000 0.634479
#
# Coordination Sequence:
#
# PCOD9570117 Si02
#       6
#    16  16  16  16  16  16
#     4  10  19  34  55  82 109 140 184 228 270 319
#     4   8  14  27  47  67  90 125 168 214 262 308
#     4   9  19  35  56  82 111 140 172 214 267 328
#     4   9  18  34  57  85 115 144 176 220 275 331
#     4  10  20  34  51  73 105 144 185 228 273 320
#     4  10  21  35  50  74 109 147 186 224 267 319
#
# _framework density 24.113878
#
# number of rings (size 3 to 8) (size 9 to 14) (size 15 to 20)
#    0.000    2.667    0.000    2.500    0.000    3.167 
#    0.000    1.667    0.000    0.000    0.000   11.667 
#    0.000    0.000    0.000    0.000    0.000    0.000 
#
# Total GULP energy -535222.447092 kJ/mol
# GULP energy per Si atom -5575.233824 kJ/mol
# Density = 2.405899 g / cm^3
# Si number density = 24.113878 Si / 1000 Ang^3
#
#
#
# Elastic Constant Matrix: (Units=GPa)
#
#
# Indices 1 2 3 4 5 6 
#
# 1 88.7601 4.8552 2.1065 0.0000 0.0000 0.0000
# 2 4.8552 88.7608 2.1069 0.0000 0.0000 0.0000
# 3 2.1065 2.1069 64.8307 0.0000 0.0000 0.0000
# 4 0.0000 0.0000 0.0000 -1.1956 0.0000 0.0000
# 5 0.0000 0.0000 0.0000 0.0000 -1.1958 0.0000
# 6 0.0000 0.0000 0.0000 0.0000 0.0000 -22.0542
#
#
#
# Elastic Compliance Matrix: (Units=1/GPa)
#
#
# Indices 1 2 3 4 5 6 
#
# 1 0.011308 -0.000610 -0.000348 0.000000 0.000000 0.000000
# 2 -0.000610 0.011308 -0.000348 0.000000 0.000000 0.000000
# 3 -0.000348 -0.000348 0.015447 0.000000 0.000000 0.000000
# 4 0.000000 0.000000 0.000000 -0.836394 0.000000 0.000000
# 5 0.000000 0.000000 0.000000 0.000000 -0.836287 0.000000
# 6 0.000000 0.000000 0.000000 0.000000 0.000000 -0.045343
#
#
# Mechanical properties :
#
#
# Convention : Reuss Voigt Hill
#
# Bulk Modulus (GPa) = 28.20705 28.94319 28.57512
# Shear Modulus (GPa) = -3.00204 10.66310 3.83053
#
# Velocity S-wave (km/s) = -1.11698 2.10513 1.26173
# Velocity P-wave (km/s) = 3.17164 4.23527 3.74145
#
# Compressibility (1/GPa) = 0.03545213
#
# Stress axis : x y z
#
# Youngs Moduli (GPa) = 88.43329 88.43398 64.73592
#
# Poissons Ratio (x) = 0.05397 0.02250
# Poissons Ratio (y) = 0.05397 0.02251
# Poissons Ratio (z) = 0.03074 0.03074
#
# Static dielectric constant tensor:
#      x y z
#    x 1.980460 0.000000 0.000000 
#    y 0.000000 1.980460 0.000000 
#    z 0.000000 0.000000 2.068580 
# 
# From -- ./inp_files/7852.got.cif
#   From: 2010.05.17/outbox.cif.g08.bks.cpg/sg137_4_cif.got.tgz:7852.got - 2010.05.20 13:01:12.
