data_PCOD9570927
_publ_section_title
;
Structure prediction by ZEFSAII (Michael W. Deem and Ramdas Pophale) SiO2 
 PCOD9570927
Probable space group: P 42/N C M
;
_chemical_formula_sum "Si O2"
_cell_formula_units_Z 80
_cell_length_a 11.090030
_cell_length_b 11.090030
_cell_length_c 33.216667
_cell_angle_alpha 90.000000
_cell_angle_beta 90.000000
_cell_angle_gamma 90.000000
_cell_volume 4085.276865
_symmetry_space_group_name_H-M "P 42/N C M"
_symmetry_group_IT_number 138
_space_group.IT_coordinate_system_code '2'
_symmetry_cell_setting 'tetragonal'
loop_
_space_group_symop_operation_xyz
x,y,z
1/2-y,x,1/2+z
1/2-x,1/2-y,z
y,1/2-x,1/2+z
1/2+x,-y,1/2-z
-x,1/2+y,1/2-z
1/2+y,1/2+x,-z
-y,-x,-z
-x,-y,-z
1/2+y,-x,1/2-z
1/2+x,1/2+y,-z
-y,1/2+x,1/2-z
1/2-x,y,1/2+z
x,1/2-y,1/2+z
1/2-y,1/2-x,z
y,x,z
loop_
_atom_site_type_symbol
_atom_site_label
_atom_site_fract_x
_atom_site_fract_y
_atom_site_fract_z
Si Si1 0.822444 0.492367 0.703459
Si Si2 0.098332 0.605035 0.939473
Si Si3 0.898252 0.402124 0.151496
Si Si4 0.977804 0.712227 0.290214
Si Si5 0.299483 0.498511 0.997932
O O1 0.722633 0.435285 0.674996
O O2 0.767177 0.533856 0.745847
O O3 0.895739 0.604262 0.684872
O O4 0.918623 0.388625 0.713077
O O5 0.125381 0.642587 0.893743
O O6 0.214454 0.543251 0.960873
O O7 0.999025 0.500976 0.938972
O O8 0.034851 0.713103 0.964461
O O9 0.976617 0.523384 0.148964
O O10 0.975782 0.308555 0.177715
O O11 0.856017 0.643984 0.302355
O O12 0.365163 0.365163 0.996763
O O13 0.408837 0.591164 0.000000
#
# Coordination Sequence:
#
# PCOD9570927 Si02
#       5
#    16  16  16  16  16
#     4  11  23  39  60  85 115 155 203 253 306 367
#     4  10  22  39  60  88 122 158 200 250 299 363
#     4  11  24  40  59  88 122 158 204 251 304 367
#     4  11  23  39  60  85 115 155 203 253 306 367
#     4  10  21  38  63  91 120 156 199 247 306 373
#
# _framework density 19.582515000000001
#
# number of rings (size 3 to 8) (size 9 to 14) (size 15 to 20)
#    0.000    1.400    2.000    4.200    0.000    9.200 
#    0.000    8.000    0.000    0.000    0.000    0.000 
#    0.000    0.000    0.000    0.000    0.000    0.000 
#
# Total GULP energy -446413.916867 kJ/mol
# GULP energy per Si atom -5580.173961 kJ/mol
# Density = 1.953794 g / cm^3
# Si number density = 19.582515 Si / 1000 Ang^3
#
#
#
# Elastic Constant Matrix: (Units=GPa)
#
#
# Indices 1 2 3 4 5 6 
#
# 1 216.1776 -66.1946 33.7274 0.0000 0.0000 0.0000
# 2 -66.1946 216.1785 33.7259 0.0000 0.0000 0.0000
# 3 33.7274 33.7259 116.4022 0.0000 0.0000 0.0000
# 4 0.0000 0.0000 0.0000 19.4922 0.0000 0.0000
# 5 0.0000 0.0000 0.0000 0.0000 19.4923 0.0000
# 6 0.0000 0.0000 0.0000 0.0000 0.0000 47.4876
#
#
#
# Elastic Compliance Matrix: (Units=1/GPa)
#
#
# Indices 1 2 3 4 5 6 
#
# 1 0.005604 0.002062 -0.002221 0.000000 0.000000 0.000000
# 2 0.002062 0.005604 -0.002221 0.000000 0.000000 0.000000
# 3 -0.002221 -0.002221 0.009878 0.000000 0.000000 0.000000
# 4 0.000000 0.000000 0.000000 0.051302 0.000000 0.000000
# 5 0.000000 0.000000 0.000000 0.000000 0.051302 0.000000
# 6 0.000000 0.000000 0.000000 0.000000 0.000000 0.021058
#
#
# Mechanical properties :
#
#
# Convention : Reuss Voigt Hill
#
# Bulk Modulus (GPa) = 61.25282 61.25284 61.25283
# Shear Modulus (GPa) = 32.26825 53.79438 43.03132
#
# Velocity S-wave (km/s) = 4.06373 5.24693 4.69277
# Velocity P-wave (km/s) = 7.30519 8.24950 7.79166
#
# Compressibility (1/GPa) = 0.01632578
#
# Stress axis : x y z
#
# Youngs Moduli (GPa) = 178.44603 178.44760 101.23398
#
# Poissons Ratio (x) = -0.36805 0.22487
# Poissons Ratio (y) = -0.36804 0.22487
# Poissons Ratio (z) = 0.39638 0.39638
#
# Static dielectric constant tensor:
#      x y z
#    x 1.700540 0.000000 0.000000 
#    y 0.000000 1.700540 0.000000 
#    z 0.000000 0.000000 1.693520 
# 
# From -- ./inp_files/7909.got.cif
#   From: 2010.05.17/outbox.cif.g08.bks.cpg/sg138_4_cif.got.tgz:7909.got - 2010.05.20 13:08:53.
