data_PCOD9570746
_publ_section_title
;
Structure prediction by ZEFSAII (Michael W. Deem and Ramdas Pophale) SiO2 
 PCOD9570746
Probable space group: P 42/N C M
;
_chemical_formula_sum "Si O2"
_cell_formula_units_Z 64
_cell_length_a 13.574178
_cell_length_b 13.574178
_cell_length_c 20.543389
_cell_angle_alpha 90.000000
_cell_angle_beta 90.000000
_cell_angle_gamma 90.000000
_cell_volume 3785.290105
_symmetry_space_group_name_H-M "P 42/N C M"
_symmetry_group_IT_number 138
_space_group.IT_coordinate_system_code '2'
_symmetry_cell_setting 'tetragonal'
loop_
_space_group_symop_operation_xyz
x,y,z
1/2-y,x,1/2+z
1/2-x,1/2-y,z
y,1/2-x,1/2+z
1/2+x,-y,1/2-z
-x,1/2+y,1/2-z
1/2+y,1/2+x,-z
-y,-x,-z
-x,-y,-z
1/2+y,-x,1/2-z
1/2+x,1/2+y,-z
-y,1/2+x,1/2-z
1/2-x,y,1/2+z
x,1/2-y,1/2+z
1/2-y,1/2-x,z
y,x,z
loop_
_atom_site_type_symbol
_atom_site_label
_atom_site_fract_x
_atom_site_fract_y
_atom_site_fract_z
Si Si1 0.656858 0.009899 0.816553
Si Si2 0.512118 0.157441 0.032749
Si Si3 0.505719 0.671589 0.712715
Si Si4 0.913963 0.755542 0.082075
O O1 0.684589 0.025782 0.892199
O O2 0.588146 0.100521 0.794117
O O3 0.587828 0.912173 0.812205
O O4 0.751078 0.001082 0.770817
O O5 0.428521 0.071480 0.033046
O O6 0.607128 0.107128 0.000000
O O7 0.473136 0.241693 0.984764
O O8 0.600046 0.600046 0.721092
O O9 0.521091 0.729486 0.644772
O O10 0.828495 0.671506 0.080947
O O11 0.859033 0.859033 0.088088
#
# Coordination Sequence:
#
# PCOD9570746 Si02
#       4
#    16  16  16  16
#     4  10  20  33  53  78 107 142 177 221 270 316
#     4   9  15  28  49  73 102 135 172 215 265 318
#     4  10  20  34  51  76 108 141 179 221 268 321
#     4   9  16  27  47  75 105 136 172 217 266 315
#
# _framework density 16.907554000000001
#
# number of rings (size 3 to 8) (size 9 to 14) (size 15 to 20)
#    0.000    2.500    2.500    0.750    0.000    3.000 
#    0.000    2.500    0.000    1.500    0.000    5.250 
#    0.000    0.000    0.000    0.000    0.000    0.000 
#
# Total GULP energy -356744.821902 kJ/mol
# GULP energy per Si atom -5574.137842 kJ/mol
# Density = 1.686907 g / cm^3
# Si number density = 16.907554 Si / 1000 Ang^3
#
#
#
# Elastic Constant Matrix: (Units=GPa)
#
#
# Indices 1 2 3 4 5 6 
#
# 1 68.8928 33.2218 63.1481 0.0000 0.0000 0.0000
# 2 33.2218 68.8928 63.1481 0.0000 0.0000 0.0000
# 3 63.1481 63.1481 177.3761 0.0000 0.0000 0.0000
# 4 0.0000 0.0000 0.0000 19.0102 0.0000 0.0000
# 5 0.0000 0.0000 0.0000 0.0000 19.0102 0.0000
# 6 0.0000 0.0000 0.0000 0.0000 0.0000 12.5532
#
#
#
# Elastic Compliance Matrix: (Units=1/GPa)
#
#
# Indices 1 2 3 4 5 6 
#
# 1 0.022766 -0.005268 -0.006229 0.000000 0.000000 0.000000
# 2 -0.005268 0.022766 -0.006229 0.000000 0.000000 0.000000
# 3 -0.006229 -0.006229 0.010073 0.000000 0.000000 0.000000
# 4 0.000000 0.000000 0.000000 0.052603 0.000000 0.000000
# 5 0.000000 0.000000 0.000000 0.000000 0.052603 0.000000
# 6 0.000000 0.000000 0.000000 0.000000 0.000000 0.079661
#
#
# Mechanical properties :
#
#
# Convention : Reuss Voigt Hill
#
# Bulk Modulus (GPa) = 49.62605 70.46642 60.04623
# Shear Modulus (GPa) = 17.69018 20.49096 19.09057
#
# Velocity S-wave (km/s) = 3.23815 3.48507 3.36388
# Velocity P-wave (km/s) = 6.58756 7.61329 7.11892
#
# Compressibility (1/GPa) = 0.02015071
#
# Stress axis : x y z
#
# Youngs Moduli (GPa) = 43.92580 43.92580 99.27400
#
# Poissons Ratio (x) = 0.23142 0.61840
# Poissons Ratio (y) = 0.23142 0.61840
# Poissons Ratio (z) = 0.27363 0.27363
#
# Static dielectric constant tensor:
#      x y z
#    x 1.563160 0.000000 0.000000 
#    y 0.000000 1.563160 0.000000 
#    z 0.000000 0.000000 1.561560 
# 
# From -- ./inp_files/3878.got.cif
#   From: 2010.05.17/outbox.cif.g08.bks.cpg/sg138_2_cif.got.tgz:3878.got - 2010.05.20 13:08:53.
