data_PCOD9570449
_publ_section_title
;
Structure prediction by ZEFSAII (Michael W. Deem and Ramdas Pophale) SiO2 
 PCOD9570449
Probable space group: P 42/N M C
;
_chemical_formula_sum "Si O2"
_cell_formula_units_Z 60
_cell_length_a 12.254386
_cell_length_b 12.254386
_cell_length_c 19.519012
_cell_angle_alpha 90.000000
_cell_angle_beta 90.000000
_cell_angle_gamma 90.000000
_cell_volume 2931.169568
_symmetry_space_group_name_H-M "P 42/N M C"
_symmetry_group_IT_number 137
_space_group.IT_coordinate_system_code '2'
_symmetry_cell_setting 'tetragonal'
loop_
_space_group_symop_operation_xyz
x,y,z
1/2-y,x,1/2+z
1/2-x,1/2-y,z
y,1/2-x,1/2+z
1/2+x,-y,-z
-x,1/2+y,-z
1/2+y,1/2+x,1/2-z
-y,-x,1/2-z
-x,-y,-z
1/2+y,-x,1/2-z
1/2+x,1/2+y,-z
-y,1/2+x,1/2-z
1/2-x,y,z
x,1/2-y,z
1/2-y,1/2-x,1/2+z
y,x,1/2+z
loop_
_atom_site_type_symbol
_atom_site_label
_atom_site_fract_x
_atom_site_fract_y
_atom_site_fract_z
Si Si1 0.878922 0.514023 0.699180
Si Si2 0.750000 0.871146 0.031465
Si Si3 0.947306 0.016620 0.073089
Si Si4 0.250000 0.619756 0.632561
Si Si5 0.426275 0.250000 0.229085
Si Si6 0.250000 0.250000 0.607165
O O1 0.750000 0.508072 0.684266
O O2 0.902513 0.636909 0.730060
O O3 0.919983 0.419983 0.750000
O O4 0.958964 0.492007 0.635307
O O5 0.750000 0.750000 0.060170
O O6 0.750000 0.850342 0.948389
O O7 0.846640 0.938028 0.062244
O O8 0.916170 0.140314 0.092057
O O9 0.000000 0.000000 0.000000
O O10 0.250000 0.750000 0.641697
O O11 0.250000 0.551213 0.703132
O O12 0.352496 0.250000 0.159078
#
# Coordination Sequence:
#
# PCOD9570449 Si02
#       6
#    16   8  16   8   8   4
#     4  12  27  46  74 106 145 193 249 310 368 451
#     4  10  23  40  70 101 145 194 240 295 349 435
#     4  12  26  47  72 106 147 192 245 297 375 443
#     4  12  26  47  72 113 153 186 236 317 385 437
#     4  12  23  48  75 104 147 194 250 304 367 453
#     4  10  22  42  74 110 140 190 258 294 352 416
#
# _framework density 20.469646000000001
#
# number of rings (size 3 to 8) (size 9 to 14) (size 15 to 20)
#    0.400    0.000    5.333    3.200    3.733    0.267 
#    2.400    0.000    0.000    0.000    0.000    0.000 
#    0.000    0.000    0.000    0.000    0.000    0.000 
#
# Total GULP energy -334709.117110 kJ/mol
# GULP energy per Si atom -5578.485285 kJ/mol
# Density = 2.042306 g / cm^3
# Si number density = 20.469646 Si / 1000 Ang^3
#
#
#
# Elastic Constant Matrix: (Units=GPa)
#
#
# Indices 1 2 3 4 5 6 
#
# 1 128.9681 33.4057 27.8934 0.0000 0.0000 0.0000
# 2 33.4057 128.9681 27.8934 0.0000 0.0000 0.0000
# 3 27.8934 27.8934 102.5485 0.0000 0.0000 0.0000
# 4 0.0000 0.0000 0.0000 -5.4076 0.0000 0.0000
# 5 0.0000 0.0000 0.0000 0.0000 -5.4076 0.0000
# 6 0.0000 0.0000 0.0000 0.0000 0.0000 30.3607
#
#
#
# Elastic Compliance Matrix: (Units=1/GPa)
#
#
# Indices 1 2 3 4 5 6 
#
# 1 0.008629 -0.001835 -0.001848 0.000000 0.000000 0.000000
# 2 -0.001835 0.008629 -0.001848 0.000000 0.000000 0.000000
# 3 -0.001848 -0.001848 0.010757 0.000000 0.000000 0.000000
# 4 0.000000 0.000000 0.000000 -0.184924 0.000000 0.000000
# 5 0.000000 0.000000 0.000000 0.000000 -0.184924 0.000000
# 6 0.000000 0.000000 0.000000 0.000000 0.000000 0.032937
#
#
# Mechanical properties :
#
#
# Convention : Reuss Voigt Hill
#
# Bulk Modulus (GPa) = 58.98897 59.87443 59.43170
# Shear Modulus (GPa) = -17.11254 21.99525 2.44135
#
# Velocity S-wave (km/s) = -2.89450 3.28156 1.09328
# Velocity P-wave (km/s) = 4.20827 6.60848 5.53993
#
# Compressibility (1/GPa) = 0.01695232
#
# Stress axis : x y z
#
# Youngs Moduli (GPa) = 115.88924 115.88924 92.96515
#
# Poissons Ratio (x) = 0.21271 0.17179
# Poissons Ratio (y) = 0.21271 0.17179
# Poissons Ratio (z) = 0.21415 0.21415
#
# Static dielectric constant tensor:
#      x y z
#    x 1.820960 0.000000 0.000000 
#    y 0.000000 1.820960 0.000000 
#    z 0.000000 0.000000 2.954820 
# 
# From -- ./inp_files/7399.got.cif
#   From: 2010.05.17/outbox.cif.g08.bks.cpg/sg137_4_cif.got.tgz:7399.got - 2010.05.20 13:01:12.
