data_PCOD9570934
_publ_section_title
;
Structure prediction by ZEFSAII (Michael W. Deem and Ramdas Pophale) SiO2 
 PCOD9570934
Probable space group: P 42/N C M
;
_chemical_formula_sum "Si O2"
_cell_formula_units_Z 80
_cell_length_a 11.291305
_cell_length_b 11.291305
_cell_length_c 31.484422
_cell_angle_alpha 90.000000
_cell_angle_beta 90.000000
_cell_angle_gamma 90.000000
_cell_volume 4014.061316
_symmetry_space_group_name_H-M "P 42/N C M"
_symmetry_group_IT_number 138
_space_group.IT_coordinate_system_code '2'
_symmetry_cell_setting 'tetragonal'
loop_
_space_group_symop_operation_xyz
x,y,z
1/2-y,x,1/2+z
1/2-x,1/2-y,z
y,1/2-x,1/2+z
1/2+x,-y,1/2-z
-x,1/2+y,1/2-z
1/2+y,1/2+x,-z
-y,-x,-z
-x,-y,-z
1/2+y,-x,1/2-z
1/2+x,1/2+y,-z
-y,1/2+x,1/2-z
1/2-x,y,1/2+z
x,1/2-y,1/2+z
1/2-y,1/2-x,z
y,x,z
loop_
_atom_site_type_symbol
_atom_site_label
_atom_site_fract_x
_atom_site_fract_y
_atom_site_fract_z
Si Si1 0.450366 0.251561 0.261733
Si Si2 0.112194 0.582297 0.691671
Si Si3 0.936354 0.747318 0.060269
Si Si4 0.319373 0.988594 0.027693
Si Si5 0.829734 0.357407 0.400112
O O1 0.354286 0.145715 0.253417
O O2 0.366234 0.366234 0.272528
O O3 0.535527 0.281886 0.221630
O O4 0.545930 0.206017 0.296758
O O5 0.140274 0.572386 0.642143
O O6 0.011625 0.488376 0.701525
O O7 0.884201 0.615799 0.069501
O O8 0.838584 0.838584 0.075792
O O9 0.057398 0.791924 0.079798
O O10 0.947665 0.754340 0.009316
O O11 0.239527 0.932051 0.064114
O O12 0.417948 0.082053 0.043583
O O13 0.388280 0.888280 0.000000
O O14 0.750000 0.250000 0.384590
#
# Coordination Sequence:
#
# PCOD9570934 Si02
#       5
#    16  16  16  16  16
#     4   9  20  41  65  87 119 161 199 243 304 373
#     4  10  23  40  60  90 122 155 199 248 301 363
#     4  10  22  40  62  87 120 165 211 254 301 358
#     4  10  21  40  60  83 122 165 208 250 300 366
#     4  12  24  35  59  93 123 160 200 252 310 356
#
# _framework density 19.929940999999999
#
# number of rings (size 3 to 8) (size 9 to 14) (size 15 to 20)
#    0.000    1.800    2.000    1.200    2.800    4.000 
#    0.000    2.000    0.000    0.000    0.000    0.000 
#    0.000    0.000    0.000    0.000    0.000    0.000 
#
# Total GULP energy -445455.944231 kJ/mol
# GULP energy per Si atom -5568.199303 kJ/mol
# Density = 1.988458 g / cm^3
# Si number density = 19.929941 Si / 1000 Ang^3
#
#
#
# Elastic Constant Matrix: (Units=GPa)
#
#
# Indices 1 2 3 4 5 6 
#
# 1 76.7947 39.0510 31.7641 0.0000 0.0000 0.0000
# 2 39.0510 76.7947 31.7641 0.0000 0.0000 0.0000
# 3 31.7641 31.7641 79.5512 0.0000 0.0000 0.0000
# 4 0.0000 0.0000 0.0000 0.4434 0.0000 0.0000
# 5 0.0000 0.0000 0.0000 0.0000 0.4434 0.0000
# 6 0.0000 0.0000 0.0000 0.0000 0.0000 15.5570
#
#
#
# Elastic Compliance Matrix: (Units=1/GPa)
#
#
# Indices 1 2 3 4 5 6 
#
# 1 0.018773 -0.007721 -0.004413 0.000000 0.000000 0.000000
# 2 -0.007721 0.018773 -0.004413 0.000000 0.000000 0.000000
# 3 -0.004413 -0.004413 0.016095 0.000000 0.000000 0.000000
# 4 0.000000 0.000000 0.000000 2.255311 0.000000 0.000000
# 5 0.000000 0.000000 0.000000 0.000000 2.255311 0.000000
# 6 0.000000 0.000000 0.000000 0.000000 0.000000 0.064280
#
#
# Mechanical properties :
#
#
# Convention : Reuss Voigt Hill
#
# Bulk Modulus (GPa) = 48.66905 48.69989 48.68447
# Shear Modulus (GPa) = 1.07101 11.99286 6.53194
#
# Velocity S-wave (km/s) = 0.73386 2.45572 1.81234
# Velocity P-wave (km/s) = 5.01908 5.70345 5.37217
#
# Compressibility (1/GPa) = 0.02054694
#
# Stress axis : x y z
#
# Youngs Moduli (GPa) = 53.26698 53.26698 62.13221
#
# Poissons Ratio (x) = 0.41128 0.27419
# Poissons Ratio (y) = 0.41128 0.27419
# Poissons Ratio (z) = 0.23507 0.23507
#
# Static dielectric constant tensor:
#      x y z
#    x 1.795800 0.000000 0.000000 
#    y 0.000000 1.795800 0.000000 
#    z 0.000000 0.000000 1.672930 
# 
# From -- ./inp_files/7927.got.cif
#   From: 2010.05.17/outbox.cif.g08.bks.cpg/sg138_4_cif.got.tgz:7927.got - 2010.05.20 13:08:53.
