data_PCOD9570020
_publ_section_title
;
Structure prediction by ZEFSAII (Michael W. Deem and Ramdas Pophale) SiO2 
 PCOD9570020
Probable space group: P 42/N M C
;
_chemical_formula_sum "Si O2"
_cell_formula_units_Z 96
_cell_length_a 14.262532
_cell_length_b 14.262532
_cell_length_c 27.181666
_cell_angle_alpha 90.000000
_cell_angle_beta 90.000000
_cell_angle_gamma 90.000000
_cell_volume 5529.289579
_symmetry_space_group_name_H-M "P 42/N M C"
_symmetry_group_IT_number 137
_space_group.IT_coordinate_system_code '2'
_symmetry_cell_setting 'tetragonal'
loop_
_space_group_symop_operation_xyz
x,y,z
1/2-y,x,1/2+z
1/2-x,1/2-y,z
y,1/2-x,1/2+z
1/2+x,-y,-z
-x,1/2+y,-z
1/2+y,1/2+x,1/2-z
-y,-x,1/2-z
-x,-y,-z
1/2+y,-x,1/2-z
1/2+x,1/2+y,-z
-y,1/2+x,1/2-z
1/2-x,y,z
x,1/2-y,z
1/2-y,1/2-x,1/2+z
y,x,1/2+z
loop_
_atom_site_type_symbol
_atom_site_label
_atom_site_fract_x
_atom_site_fract_y
_atom_site_fract_z
Si Si1 0.250000 0.639154 0.549283
Si Si2 0.053567 0.642726 0.594195
Si Si3 0.147126 0.886006 0.692781
Si Si4 0.250000 0.863265 0.431882
Si Si5 0.141711 0.250000 0.844088
Si Si6 0.438821 0.464279 0.202559
Si Si7 0.999885 0.095791 0.885279
Si Si8 0.250000 0.358955 0.226401
O O1 0.250000 0.750000 0.559889
O O2 0.152128 0.606242 0.572279
O O3 0.250000 0.627205 0.490782
O O4 0.033832 0.750000 0.577269
O O5 0.070565 0.648863 0.653587
O O6 0.975499 0.564631 0.583275
O O7 0.142308 0.857693 0.750000
O O8 0.250000 0.860624 0.674505
O O9 0.126037 0.995635 0.693892
O O10 0.250000 0.750000 0.420347
O O11 0.339801 0.921191 0.411099
O O12 0.250000 0.250000 0.862460
O O13 0.079788 0.162116 0.861478
O O14 0.146096 0.250000 0.785450
O O15 0.481223 0.518778 0.250000
O O16 0.449786 0.533991 0.156738
O O17 0.338274 0.420971 0.210818
O O18 0.250000 0.250000 0.208623
#
# Coordination Sequence:
#
# PCOD9570020 Si02
#       8
#     8  16  16   8   8  16  16   8
#     4   9  19  37  59  84 111 141 180 215 269 343
#     4  10  19  33  55  82 114 146 173 215 268 329
#     4  10  19  29  45  75 114 148 178 205 247 315
#     4  10  23  41  60  79 101 136 185 243 286 325
#     4  10  19  33  54  79 111 144 183 219 266 327
#     4  10  20  34  49  72 105 140 184 228 267 319
#     4  10  21  36  55  81 108 138 181 232 280 319
#     4  11  21  33  51  71 102 154 191 219 263 322
#
# _framework density 17.362085
#
# number of rings (size 3 to 8) (size 9 to 14) (size 15 to 20)
#    0.000    2.000    2.500    1.500    1.167    1.500 
#    0.000    0.000    0.000    0.000    0.000    1.167 
#    0.000    0.000    0.000    0.000    0.000    0.000 
#
# Total GULP energy -534471.943900 kJ/mol
# GULP energy per Si atom -5567.416082 kJ/mol
# Density = 1.732257 g / cm^3
# Si number density = 17.362085 Si / 1000 Ang^3
#
#
#
# Elastic Constant Matrix: (Units=GPa)
#
#
# Indices 1 2 3 4 5 6 
#
# 1 135.4630 62.4488 28.8173 0.0000 0.0000 0.0000
# 2 62.4488 135.4633 28.8173 0.0000 0.0000 0.0000
# 3 28.8173 28.8173 49.3895 0.0000 0.0000 0.0000
# 4 0.0000 0.0000 0.0000 18.2218 0.0000 0.0000
# 5 0.0000 0.0000 0.0000 0.0000 18.2219 0.0000
# 6 0.0000 0.0000 0.0000 0.0000 0.0000 20.9526
#
#
#
# Elastic Compliance Matrix: (Units=1/GPa)
#
#
# Indices 1 2 3 4 5 6 
#
# 1 0.009891 -0.003804 -0.003552 0.000000 0.000000 0.000000
# 2 -0.003804 0.009891 -0.003552 0.000000 0.000000 0.000000
# 3 -0.003552 -0.003552 0.024392 0.000000 0.000000 0.000000
# 4 0.000000 0.000000 0.000000 0.054879 0.000000 0.000000
# 5 0.000000 0.000000 0.000000 0.000000 0.054879 0.000000
# 6 0.000000 0.000000 0.000000 0.000000 0.000000 0.047727
#
#
# Mechanical properties :
#
#
# Convention : Reuss Voigt Hill
#
# Bulk Modulus (GPa) = 44.72396 62.27584 53.49990
# Shear Modulus (GPa) = 21.65174 24.82809 23.23991
#
# Velocity S-wave (km/s) = 3.53522 3.78566 3.66258
# Velocity P-wave (km/s) = 6.51761 7.41991 6.98335
#
# Compressibility (1/GPa) = 0.02235938
#
# Stress axis : x y z
#
# Youngs Moduli (GPa) = 101.09702 101.09727 40.99755
#
# Poissons Ratio (x) = 0.38462 0.14561
# Poissons Ratio (y) = 0.38462 0.14561
# Poissons Ratio (z) = 0.35906 0.35906
#
# Static dielectric constant tensor:
#      x y z
#    x 1.622360 0.000000 0.000000 
#    y 0.000000 1.622360 0.000000 
#    z 0.000000 0.000000 1.588440 
# 
# From -- ./inp_files/8914.got.cif
#   From: 2010.05.17/outbox.cif.g08.bks.cpg/sg137_5_cif.got.tgz:8914.got - 2010.05.20 13:01:12.
