data_PCOD9570421
_publ_section_title
;
Structure prediction by ZEFSAII (Michael W. Deem and Ramdas Pophale) SiO2 
 PCOD9570421
Probable space group: P 42/N M C
;
_chemical_formula_sum "Si O2"
_cell_formula_units_Z 64
_cell_length_a 14.743570
_cell_length_b 14.743570
_cell_length_c 14.716583
_cell_angle_alpha 90.000000
_cell_angle_beta 90.000000
_cell_angle_gamma 90.000000
_cell_volume 3198.985682
_symmetry_space_group_name_H-M "P 42/N M C"
_symmetry_group_IT_number 137
_space_group.IT_coordinate_system_code '2'
_symmetry_cell_setting 'tetragonal'
loop_
_space_group_symop_operation_xyz
x,y,z
1/2-y,x,1/2+z
1/2-x,1/2-y,z
y,1/2-x,1/2+z
1/2+x,-y,-z
-x,1/2+y,-z
1/2+y,1/2+x,1/2-z
-y,-x,1/2-z
-x,-y,-z
1/2+y,-x,1/2-z
1/2+x,1/2+y,-z
-y,1/2+x,1/2-z
1/2-x,y,z
x,1/2-y,z
1/2-y,1/2-x,1/2+z
y,x,1/2+z
loop_
_atom_site_type_symbol
_atom_site_label
_atom_site_fract_x
_atom_site_fract_y
_atom_site_fract_z
Si Si1 0.357860 0.145464 0.342966
Si Si2 0.002935 0.360264 0.493283
Si Si3 0.491099 0.859195 0.299315
Si Si4 0.353686 0.639127 0.649494
O O1 0.250000 0.142763 0.356695
O O2 0.384465 0.250000 0.323903
O O3 0.409305 0.115472 0.434007
O O4 0.380297 0.080692 0.259125
O O5 0.001068 0.250000 0.497446
O O6 0.000342 0.391408 0.596802
O O7 0.917556 0.389770 0.432500
O O8 0.408011 0.908011 0.250000
O O9 0.479445 0.750000 0.298802
O O10 0.387746 0.612255 0.750000
O O11 0.250000 0.609301 0.637365
O O12 0.353192 0.750000 0.651360
#
# Coordination Sequence:
#
# PCOD9570421 Si02
#       4
#    16  16  16  16
#     4   9  19  37  59  81 106 139 184 237 284 322
#     4   9  18  33  54  79 106 140 180 220 268 323
#     4  10  22  38  56  82 115 149 185 224 270 331
#     4   8  14  26  46  74 107 139 172 212 257 310
#
# _framework density 20.006342
#
# number of rings (size 3 to 8) (size 9 to 14) (size 15 to 20)
#    0.000    3.000    0.000    0.750    0.000    4.250 
#    0.000    7.500    0.000    6.000    0.000    0.000 
#    0.000    0.000    0.000    0.000    0.000    0.000 
#
# Total GULP energy -357270.380867 kJ/mol
# GULP energy per Si atom -5582.349701 kJ/mol
# Density = 1.996081 g / cm^3
# Si number density = 20.006342 Si / 1000 Ang^3
#
#
#
# Elastic Constant Matrix: (Units=GPa)
#
#
# Indices 1 2 3 4 5 6 
#
# 1 66.8508 28.8917 62.0629 0.0000 0.0000 0.0000
# 2 28.8917 66.8501 62.0628 0.0000 0.0000 0.0000
# 3 62.0629 62.0628 223.4176 0.0000 0.0000 0.0000
# 4 0.0000 0.0000 0.0000 30.7896 0.0000 0.0000
# 5 0.0000 0.0000 0.0000 0.0000 30.7897 0.0000
# 6 0.0000 0.0000 0.0000 0.0000 0.0000 16.9910
#
#
#
# Elastic Compliance Matrix: (Units=1/GPa)
#
#
# Indices 1 2 3 4 5 6 
#
# 1 0.021334 -0.005010 -0.004534 0.000000 0.000000 0.000000
# 2 -0.005010 0.021334 -0.004535 0.000000 0.000000 0.000000
# 3 -0.004534 -0.004535 0.006995 0.000000 0.000000 0.000000
# 4 0.000000 0.000000 0.000000 0.032478 0.000000 0.000000
# 5 0.000000 0.000000 0.000000 0.000000 0.032478 0.000000
# 6 0.000000 0.000000 0.000000 0.000000 0.000000 0.058855
#
#
# Mechanical properties :
#
#
# Convention : Reuss Voigt Hill
#
# Bulk Modulus (GPa) = 46.50246 73.68370 60.09308
# Shear Modulus (GPa) = 23.94618 29.32080 26.63349
#
# Velocity S-wave (km/s) = 3.46342 3.83244 3.65259
# Velocity P-wave (km/s) = 6.26802 7.51622 6.92032
#
# Compressibility (1/GPa) = 0.02150424
#
# Stress axis : x y z
#
# Youngs Moduli (GPa) = 46.87395 46.87332 142.95566
#
# Poissons Ratio (x) = 0.23486 0.64822
# Poissons Ratio (y) = 0.23486 0.64823
# Poissons Ratio (z) = 0.21255 0.21255
#
# Static dielectric constant tensor:
#      x y z
#    x 1.720460 0.000000 0.000000 
#    y 0.000000 1.720460 0.000000 
#    z 0.000000 0.000000 1.676880 
# 
# From -- ./inp_files/3325.got.cif
#   From: 2010.05.17/outbox.cif.g08.bks.cpg/sg137_2_cif.got.tgz:3325.got - 2010.05.20 13:01:12.
