data_PCOD9570407
_publ_section_title
;
Structure prediction by ZEFSAII (Michael W. Deem and Ramdas Pophale) SiO2 
 PCOD9570407
Probable space group: P 42/N M C
;
_chemical_formula_sum "Si O2"
_cell_formula_units_Z 80
_cell_length_a 27.854654
_cell_length_b 27.854654
_cell_length_c 4.896583
_cell_angle_alpha 90.000000
_cell_angle_beta 90.000000
_cell_angle_gamma 90.000000
_cell_volume 3799.169384
_symmetry_space_group_name_H-M "P 42/N M C"
_symmetry_group_IT_number 137
_space_group.IT_coordinate_system_code '2'
_symmetry_cell_setting 'tetragonal'
loop_
_space_group_symop_operation_xyz
x,y,z
1/2-y,x,1/2+z
1/2-x,1/2-y,z
y,1/2-x,1/2+z
1/2+x,-y,-z
-x,1/2+y,-z
1/2+y,1/2+x,1/2-z
-y,-x,1/2-z
-x,-y,-z
1/2+y,-x,1/2-z
1/2+x,1/2+y,-z
-y,1/2+x,1/2-z
1/2-x,y,z
x,1/2-y,z
1/2-y,1/2-x,1/2+z
y,x,1/2+z
loop_
_atom_site_type_symbol
_atom_site_label
_atom_site_fract_x
_atom_site_fract_y
_atom_site_fract_z
Si Si1 0.452348 0.404132 0.846261
Si Si2 0.345600 0.196390 0.467868
Si Si3 0.131036 0.942728 0.375367
Si Si4 0.437655 0.303178 0.101858
Si Si5 0.195116 0.956330 0.860411
O O1 0.438945 0.422788 0.547749
O O2 0.509389 0.401877 0.900222
O O3 0.435743 0.349792 0.910686
O O4 0.327960 0.250000 0.412593
O O5 0.339627 0.185961 0.785732
O O6 0.397987 0.192391 0.338190
O O7 0.099336 0.900665 0.250000
O O8 0.157348 0.930777 0.658504
O O9 0.173416 0.955278 0.162013
O O10 0.432842 0.250000 0.970353
O O11 0.489281 0.304578 0.248381
O O12 0.250000 0.938516 0.851550
#
# Coordination Sequence:
#
# PCOD9570407 Si02
#       5
#    16  16  16  16  16
#     4  11  22  37  56  79 112 155 199 242 291 356
#     4  11  23  37  53  71  95 128 170 225 288 356
#     4  11  23  39  60  90 127 163 199 241 287 342
#     4   9  20  37  57  80 104 137 186 247 305 348
#     4  10  21  39  63  90 121 154 193 242 294 341
#
# _framework density 21.057234999999999
#
# number of rings (size 3 to 8) (size 9 to 14) (size 15 to 20)
#    0.000    1.600    0.000    5.400    0.000    6.000 
#    0.000   13.000    0.000    0.000    0.000    0.000 
#    0.000   28.000    0.000    0.000    0.000    0.000 
#
# Total GULP energy -447699.394046 kJ/mol
# GULP energy per Si atom -5596.242426 kJ/mol
# Density = 2.100931 g / cm^3
# Si number density = 21.057235 Si / 1000 Ang^3
#
#
#
# Elastic Constant Matrix: (Units=GPa)
#
#
# Indices 1 2 3 4 5 6 
#
# 1 49.6747 23.8450 -5.1028 0.0000 0.0000 0.0000
# 2 23.8450 49.6827 -5.1018 0.0000 0.0000 0.0000
# 3 -5.1028 -5.1018 68.3868 0.0000 0.0000 0.0000
# 4 0.0000 0.0000 0.0000 24.9718 0.0000 0.0000
# 5 0.0000 0.0000 0.0000 0.0000 24.9726 0.0000
# 6 0.0000 0.0000 0.0000 0.0000 0.0000 20.6797
#
#
#
# Elastic Compliance Matrix: (Units=1/GPa)
#
#
# Indices 1 2 3 4 5 6 
#
# 1 0.026228 -0.012483 0.001026 0.000000 0.000000 0.000000
# 2 -0.012483 0.026224 0.001025 0.000000 0.000000 0.000000
# 3 0.001026 0.001025 0.014776 0.000000 0.000000 0.000000
# 4 0.000000 0.000000 0.000000 0.040045 0.000000 0.000000
# 5 0.000000 0.000000 0.000000 0.000000 0.040044 0.000000
# 6 0.000000 0.000000 0.000000 0.000000 0.000000 0.048357
#
#
# Mechanical properties :
#
#
# Convention : Reuss Voigt Hill
#
# Bulk Modulus (GPa) = 21.56848 21.66946 21.61897
# Shear Modulus (GPa) = 21.55239 24.39840 22.97540
#
# Velocity S-wave (km/s) = 3.20271 3.40762 3.30675
# Velocity P-wave (km/s) = 4.89301 5.07893 4.98684
#
# Compressibility (1/GPa) = 0.04636396
#
# Stress axis : x y z
#
# Youngs Moduli (GPa) = 38.12657 38.13284 67.67866
#
# Poissons Ratio (x) = 0.47601 -0.06943
# Poissons Ratio (y) = 0.47593 -0.06937
# Poissons Ratio (z) = -0.03911 -0.03908
#
# Static dielectric constant tensor:
#      x y z
#    x 1.771650 0.000000 0.000000 
#    y 0.000000 1.771650 0.000000 
#    z 0.000000 0.000000 1.745860 
# 
# From -- ./inp_files/571.got.cif
#   From: 2010.05.17/outbox.cif.g08.bks.cpg/sg137_1_cif.got.tgz:571.got - 2010.05.20 13:01:12.
