data_PCOD9570620
_publ_section_title
;
Structure prediction by ZEFSAII (Michael W. Deem and Ramdas Pophale) SiO2 
 PCOD9570620
Probable space group: P 42/N C M
;
_chemical_formula_sum "Si O2"
_cell_formula_units_Z 96
_cell_length_a 17.387766
_cell_length_b 17.387766
_cell_length_c 18.266316
_cell_angle_alpha 90.000000
_cell_angle_beta 90.000000
_cell_angle_gamma 90.000000
_cell_volume 5522.535806
_symmetry_space_group_name_H-M "P 42/N C M"
_symmetry_group_IT_number 138
_space_group.IT_coordinate_system_code '2'
_symmetry_cell_setting 'tetragonal'
loop_
_space_group_symop_operation_xyz
x,y,z
1/2-y,x,1/2+z
1/2-x,1/2-y,z
y,1/2-x,1/2+z
1/2+x,-y,1/2-z
-x,1/2+y,1/2-z
1/2+y,1/2+x,-z
-y,-x,-z
-x,-y,-z
1/2+y,-x,1/2-z
1/2+x,1/2+y,-z
-y,1/2+x,1/2-z
1/2-x,y,1/2+z
x,1/2-y,1/2+z
1/2-y,1/2-x,z
y,x,z
loop_
_atom_site_type_symbol
_atom_site_label
_atom_site_fract_x
_atom_site_fract_y
_atom_site_fract_z
Si Si1 0.025417 0.254796 0.851989
Si Si2 0.390515 0.519492 0.763538
Si Si3 0.480084 0.144950 0.706814
Si Si4 0.791880 0.981283 0.371140
Si Si5 0.811721 0.688280 0.811926
Si Si6 0.812032 0.812032 0.135064
Si Si7 0.997722 0.127450 0.476263
O O1 0.041414 0.306492 0.779650
O O2 0.103790 0.219025 0.885589
O O3 0.980774 0.179973 0.821013
O O4 0.987122 0.313421 0.909272
O O5 0.440241 0.440241 0.769438
O O6 0.450630 0.587413 0.774782
O O7 0.352261 0.522565 0.683279
O O8 0.407080 0.092921 0.685044
O O9 0.507691 0.205529 0.645868
O O10 0.791128 0.894139 0.343010
O O11 0.821568 0.984078 0.452769
O O12 0.750000 0.750000 0.835662
O O13 0.813308 0.686692 0.723955
O O14 0.750000 0.750000 0.110043
O O15 0.925886 0.074115 0.500000
O O16 0.068403 0.068403 0.459803
#
# Coordination Sequence:
#
# PCOD9570620 Si02
#       7
#    16  16  16  16   8   8  16
#     4  11  20  35  54  83 115 148 184 229 278 329
#     4  10  18  35  57  80 106 144 187 232 272 325
#     4  10  20  33  57  82 107 142 188 226 273 329
#     4  11  19  35  53  81 112 142 180 226 274 328
#     4  11  18  30  53  79 116 145 170 218 283 340
#     4  11  18  30  54  81 115 142 174 225 291 344
#     4  11  23  38  56  81 113 148 186 224 275 339
#
# _framework density 17.383320000000001
#
# number of rings (size 3 to 8) (size 9 to 14) (size 15 to 20)
#    0.000    1.333    5.833    3.000    0.000    2.667 
#    3.000    0.833    0.000   20.000    0.000    0.000 
#    0.000    0.000    0.000    0.000    0.000    0.000 
#
# Total GULP energy -535461.725264 kJ/mol
# GULP energy per Si atom -5577.726305 kJ/mol
# Density = 1.734375 g / cm^3
# Si number density = 17.383320 Si / 1000 Ang^3
#
#
#
# Elastic Constant Matrix: (Units=GPa)
#
#
# Indices 1 2 3 4 5 6 
#
# 1 69.9153 20.2724 6.9278 0.0000 0.0000 0.0000
# 2 20.2724 69.9141 6.9267 0.0000 0.0000 0.0000
# 3 6.9278 6.9267 54.1798 0.0000 0.0000 0.0000
# 4 0.0000 0.0000 0.0000 18.1979 0.0000 0.0000
# 5 0.0000 0.0000 0.0000 0.0000 18.1971 0.0000
# 6 0.0000 0.0000 0.0000 0.0000 0.0000 26.7506
#
#
#
# Elastic Compliance Matrix: (Units=1/GPa)
#
#
# Indices 1 2 3 4 5 6 
#
# 1 0.015727 -0.004417 -0.001446 0.000000 0.000000 0.000000
# 2 -0.004417 0.015727 -0.001446 0.000000 0.000000 0.000000
# 3 -0.001446 -0.001446 0.018827 0.000000 0.000000 0.000000
# 4 0.000000 0.000000 0.000000 0.054951 0.000000 0.000000
# 5 0.000000 0.000000 0.000000 0.000000 0.054954 0.000000
# 6 0.000000 0.000000 0.000000 0.000000 0.000000 0.037382
#
#
# Mechanical properties :
#
#
# Convention : Reuss Voigt Hill
#
# Bulk Modulus (GPa) = 28.04031 29.14032 28.59032
# Shear Modulus (GPa) = 22.31402 23.28795 22.80098
#
# Velocity S-wave (km/s) = 3.58669 3.66412 3.62561
# Velocity P-wave (km/s) = 5.77218 5.89074 5.83176
#
# Compressibility (1/GPa) = 0.03566294
#
# Stress axis : x y z
#
# Youngs Moduli (GPa) = 63.58476 63.58388 53.11560
#
# Poissons Ratio (x) = 0.28085 0.07682
# Poissons Ratio (y) = 0.28085 0.07680
# Poissons Ratio (z) = 0.09196 0.09194
#
# Static dielectric constant tensor:
#      x y z
#    x 1.813660 0.000000 0.000000 
#    y 0.000000 1.813650 0.000000 
#    z 0.000000 0.000000 1.586130 
# 
# From -- ./inp_files/5268.got.cif
#   From: 2010.05.17/outbox.cif.g08.bks.cpg/sg138_3_cif.got.tgz:5268.got - 2010.05.20 13:08:53.
