data_PCOD9570024
_publ_section_title
;
Structure prediction by ZEFSAII (Michael W. Deem and Ramdas Pophale) SiO2 
 PCOD9570024
Probable space group: P 42/N M C
;
_chemical_formula_sum "Si O2"
_cell_formula_units_Z 64
_cell_length_a 19.708080
_cell_length_b 19.708080
_cell_length_c 7.748535
_cell_angle_alpha 90.000000
_cell_angle_beta 90.000000
_cell_angle_gamma 90.000000
_cell_volume 3009.596216
_symmetry_space_group_name_H-M "P 42/N M C"
_symmetry_group_IT_number 137
_space_group.IT_coordinate_system_code '2'
_symmetry_cell_setting 'tetragonal'
loop_
_space_group_symop_operation_xyz
x,y,z
1/2-y,x,1/2+z
1/2-x,1/2-y,z
y,1/2-x,1/2+z
1/2+x,-y,-z
-x,1/2+y,-z
1/2+y,1/2+x,1/2-z
-y,-x,1/2-z
-x,-y,-z
1/2+y,-x,1/2-z
1/2+x,1/2+y,-z
-y,1/2+x,1/2-z
1/2-x,y,z
x,1/2-y,z
1/2-y,1/2-x,1/2+z
y,x,1/2+z
loop_
_atom_site_type_symbol
_atom_site_label
_atom_site_fract_x
_atom_site_fract_y
_atom_site_fract_z
Si Si1 0.434545 0.330418 0.326655
Si Si2 0.825376 0.332102 0.449889
Si Si3 0.458537 0.668020 0.371705
Si Si4 0.056079 0.331128 0.928850
O O1 0.419584 0.250000 0.339458
O O2 0.492327 0.346496 0.466029
O O3 0.369783 0.375861 0.372459
O O4 0.457585 0.344233 0.130446
O O5 0.843709 0.343709 0.250000
O O6 0.750000 0.360024 0.486372
O O7 0.820994 0.250000 0.465532
O O8 0.884267 0.356427 0.573533
O O9 0.453362 0.750000 0.359511
O O10 0.497034 0.644857 0.200197
O O11 0.064078 0.250000 0.907633
#
# Coordination Sequence:
#
# PCOD9570024 Si02
#       4
#    16  16  16  16
#     4  10  19  30  46  70 100 140 187 229 272 320
#     4   8  14  27  52  83 106 128 165 215 273 335
#     4   9  17  30  48  72 103 137 174 218 271 326
#     4  10  19  30  46  70 100 140 187 229 272 320
#
# _framework density 21.265311000000001
#
# number of rings (size 3 to 8) (size 9 to 14) (size 15 to 20)
#    0.000    2.750    2.500    0.750    0.000    0.500 
#    0.000    2.500    0.000    4.500    0.000   17.500 
#    0.000   12.000    0.000    0.000    0.000    0.000 
#
# Total GULP energy -357575.167530 kJ/mol
# GULP energy per Si atom -5587.111993 kJ/mol
# Density = 2.121691 g / cm^3
# Si number density = 21.265311 Si / 1000 Ang^3
#
#
#
# Elastic Constant Matrix: (Units=GPa)
#
#
# Indices 1 2 3 4 5 6 
#
# 1 61.8392 34.9091 60.2413 0.0000 0.0000 0.0000
# 2 34.9091 61.8392 60.2413 0.0000 0.0000 0.0000
# 3 60.2413 60.2413 174.1209 0.0000 0.0000 0.0000
# 4 0.0000 0.0000 0.0000 31.5184 0.0000 0.0000
# 5 0.0000 0.0000 0.0000 0.0000 31.5184 0.0000
# 6 0.0000 0.0000 0.0000 0.0000 0.0000 2.4385
#
#
#
# Elastic Compliance Matrix: (Units=1/GPa)
#
#
# Indices 1 2 3 4 5 6 
#
# 1 0.027647 -0.009486 -0.006283 0.000000 0.000000 0.000000
# 2 -0.009486 0.027647 -0.006283 0.000000 0.000000 0.000000
# 3 -0.006283 -0.006283 0.010091 0.000000 0.000000 0.000000
# 4 0.000000 0.000000 0.000000 0.031728 0.000000 0.000000
# 5 0.000000 0.000000 0.000000 0.000000 0.031728 0.000000
# 6 0.000000 0.000000 0.000000 0.000000 0.000000 0.410086
#
#
# Mechanical properties :
#
#
# Convention : Reuss Voigt Hill
#
# Bulk Modulus (GPa) = 46.99364 67.62030 57.30697
# Shear Modulus (GPa) = 8.47280 22.58890 15.53085
#
# Velocity S-wave (km/s) = 1.99824 3.26274 2.70541
# Velocity P-wave (km/s) = 5.24125 6.78686 6.06350
#
# Compressibility (1/GPa) = 0.02127947
#
# Stress axis : x y z
#
# Youngs Moduli (GPa) = 36.17046 36.17046 99.10127
#
# Poissons Ratio (x) = 0.34313 0.62266
# Poissons Ratio (y) = 0.34313 0.62266
# Poissons Ratio (z) = 0.22726 0.22726
#
# Static dielectric constant tensor:
#      x y z
#    x 1.756090 0.000000 0.000000 
#    y 0.000000 1.756090 0.000000 
#    z 0.000000 0.000000 1.799420 
# 
# From -- ./inp_files/1802.got.cif
#   From: 2010.05.17/outbox.cif.g08.bks.cpg/sg137_1_cif.got.tgz:1802.got - 2010.05.20 13:01:12.
