data_PCOD9570101
_publ_section_title
;
Structure prediction by ZEFSAII (Michael W. Deem and Ramdas Pophale) SiO2 
 PCOD9570101
Probable space group: P 42/N M C
;
_chemical_formula_sum "Si O2"
_cell_formula_units_Z 48
_cell_length_a 7.802687
_cell_length_b 7.802687
_cell_length_c 39.452615
_cell_angle_alpha 90.000000
_cell_angle_beta 90.000000
_cell_angle_gamma 90.000000
_cell_volume 2401.951125
_symmetry_space_group_name_H-M "P 42/N M C"
_symmetry_group_IT_number 137
_space_group.IT_coordinate_system_code '2'
_symmetry_cell_setting 'tetragonal'
loop_
_space_group_symop_operation_xyz
x,y,z
1/2-y,x,1/2+z
1/2-x,1/2-y,z
y,1/2-x,1/2+z
1/2+x,-y,-z
-x,1/2+y,-z
1/2+y,1/2+x,1/2-z
-y,-x,1/2-z
-x,-y,-z
1/2+y,-x,1/2-z
1/2+x,1/2+y,-z
-y,1/2+x,1/2-z
1/2-x,y,z
x,1/2-y,z
1/2-y,1/2-x,1/2+z
y,x,1/2+z
loop_
_atom_site_type_symbol
_atom_site_label
_atom_site_fract_x
_atom_site_fract_y
_atom_site_fract_z
Si Si1 0.750000 0.453377 0.162880
Si Si2 0.442299 0.043596 0.038043
Si Si3 0.444935 0.955660 0.212658
Si Si4 0.960643 0.250000 0.414148
O O1 0.750000 0.250000 0.160275
O O2 0.580816 0.502664 0.183832
O O3 0.750000 0.521577 0.124528
O O4 0.250000 0.978271 0.044027
O O5 0.437999 0.250000 0.040431
O O6 0.582673 0.982804 0.064978
O O7 0.500000 0.000000 0.000000
O O8 0.510237 0.010237 0.250000
O O9 0.250000 0.020183 0.206623
O O10 0.434370 0.750000 0.215057
O O11 0.750000 0.250000 0.414178
#
# Coordination Sequence:
#
# PCOD9570101 Si02
#       4
#     8  16  16   8
#     4  11  23  35  57  89 119 151 195 243 297 357
#     4  10  19  33  56  80 105 143 189 234 283 341
#     4   9  20  39  60  82 113 154 195 239 295 351
#     4   9  20  37  51  77 119 151 179 233 295 345
#
# _framework density 19.983756
#
# number of rings (size 3 to 8) (size 9 to 14) (size 15 to 20)
#    0.000    2.333    1.667    1.500    2.333    2.000 
#    0.000    6.667    0.000    0.000    0.000    0.000 
#    0.000    0.000    0.000    0.000    0.000    0.000 
#
# Total GULP energy -267947.709099 kJ/mol
# GULP energy per Si atom -5582.243940 kJ/mol
# Density = 1.993827 g / cm^3
# Si number density = 19.983756 Si / 1000 Ang^3
#
#
#
# Elastic Constant Matrix: (Units=GPa)
#
#
# Indices 1 2 3 4 5 6 
#
# 1 94.6168 27.2309 69.7007 0.0000 0.0000 0.0000
# 2 27.2309 94.6168 69.7007 0.0000 0.0000 0.0000
# 3 69.7007 69.7007 216.3718 0.0000 0.0000 0.0000
# 4 0.0000 0.0000 0.0000 25.7215 0.0000 0.0000
# 5 0.0000 0.0000 0.0000 0.0000 25.7215 0.0000
# 6 0.0000 0.0000 0.0000 0.0000 0.0000 21.9561
#
#
#
# Elastic Compliance Matrix: (Units=1/GPa)
#
#
# Indices 1 2 3 4 5 6 
#
# 1 0.013918 -0.000922 -0.004187 0.000000 0.000000 0.000000
# 2 -0.000922 0.013918 -0.004187 0.000000 0.000000 0.000000
# 3 -0.004187 -0.004187 0.007319 0.000000 0.000000 0.000000
# 4 0.000000 0.000000 0.000000 0.038878 0.000000 0.000000
# 5 0.000000 0.000000 0.000000 0.000000 0.038878 0.000000
# 6 0.000000 0.000000 0.000000 0.000000 0.000000 0.045545
#
#
# Mechanical properties :
#
#
# Convention : Reuss Voigt Hill
#
# Bulk Modulus (GPa) = 60.36522 82.09666 71.23094
# Shear Modulus (GPa) = 27.38689 30.61136 28.99913
#
# Velocity S-wave (km/s) = 3.70599 3.91808 3.81351
# Velocity P-wave (km/s) = 6.97031 7.85108 7.42376
#
# Compressibility (1/GPa) = 0.01656583
#
# Stress axis : x y z
#
# Youngs Moduli (GPa) = 71.84753 71.84753 136.62995
#
# Poissons Ratio (x) = 0.06621 0.57203
# Poissons Ratio (y) = 0.06621 0.57203
# Poissons Ratio (z) = 0.30081 0.30081
#
# Static dielectric constant tensor:
#      x y z
#    x 1.706770 0.000000 0.000000 
#    y 0.000000 1.706770 0.000000 
#    z 0.000000 0.000000 1.689110 
# 
# From -- ./inp_files/10052.got.cif
#   From: 2010.05.17/outbox.cif.g08.bks.cpg/sg137_6_cif.got.tgz:10052.got - 2010.05.20 13:01:12.
