data_PCOD9570052
_publ_section_title
;
Structure prediction by ZEFSAII (Michael W. Deem and Ramdas Pophale) SiO2 
 PCOD9570052
Probable space group: P 42/N M C
;
_chemical_formula_sum "Si O2"
_cell_formula_units_Z 112
_cell_length_a 13.998263
_cell_length_b 13.998263
_cell_length_c 27.805838
_cell_angle_alpha 90.000000
_cell_angle_beta 90.000000
_cell_angle_gamma 90.000000
_cell_volume 5448.591967
_symmetry_space_group_name_H-M "P 42/N M C"
_symmetry_group_IT_number 137
_space_group.IT_coordinate_system_code '2'
_symmetry_cell_setting 'tetragonal'
loop_
_space_group_symop_operation_xyz
x,y,z
1/2-y,x,1/2+z
1/2-x,1/2-y,z
y,1/2-x,1/2+z
1/2+x,-y,-z
-x,1/2+y,-z
1/2+y,1/2+x,1/2-z
-y,-x,1/2-z
-x,-y,-z
1/2+y,-x,1/2-z
1/2+x,1/2+y,-z
-y,1/2+x,1/2-z
1/2-x,y,z
x,1/2-y,z
1/2-y,1/2-x,1/2+z
y,x,1/2+z
loop_
_atom_site_type_symbol
_atom_site_label
_atom_site_fract_x
_atom_site_fract_y
_atom_site_fract_z
Si Si1 0.030443 0.363597 0.948128
Si Si2 0.364110 0.519593 0.897117
Si Si3 0.133964 0.359796 0.151564
Si Si4 0.140979 0.134040 0.046582
Si Si5 0.863427 0.023346 0.209634
Si Si6 0.518898 0.863913 0.253425
Si Si7 0.862698 0.361209 0.492253
O O1 0.037137 0.250000 0.940006
O O2 0.077982 0.423085 0.906241
O O3 0.922893 0.392356 0.961776
O O4 0.085369 0.388471 0.998023
O O5 0.250000 0.500214 0.899230
O O6 0.383607 0.560168 0.844283
O O7 0.386753 0.586888 0.942335
O O8 0.250000 0.355073 0.147896
O O9 0.101532 0.250000 0.161090
O O10 0.100810 0.394055 0.098835
O O11 0.113825 0.431625 0.194883
O O12 0.250000 0.099909 0.041419
O O13 0.143346 0.250000 0.049038
O O14 0.909727 0.090274 0.250000
O O15 0.750000 0.016780 0.215973
O O16 0.912139 0.919686 0.216442
O O17 0.514654 0.750000 0.246969
O O18 0.417072 0.917072 0.250000
O O19 0.750000 0.380205 0.485679
O O20 0.876846 0.250000 0.500986
#
# Coordination Sequence:
#
# PCOD9570052 Si02
#       7
#    16  16  16  16  16  16  16
#     4  10  19  31  53  84 116 152 191 231 277 331
#     4  10  21  37  57  84 118 153 188 229 283 344
#     4   8  14  27  49  76 106 139 177 230 296 356
#     4   8  14  25  44  76 113 140 168 216 282 351
#     4  10  23  41  62  90 120 152 193 241 296 360
#     4  10  21  37  57  81 110 147 195 249 301 354
#     4   9  19  36  56  79 111 153 198 237 274 327
#
# _framework density 20.555769000000002
#
# number of rings (size 3 to 8) (size 9 to 14) (size 15 to 20)
#    0.000    2.714    0.000    2.143    0.000    5.429 
#    0.000    4.286    0.000    3.429    0.000    4.000 
#    0.000    0.000    0.000    0.000    0.000    0.000 
#
# Total GULP energy -625404.061683 kJ/mol
# GULP energy per Si atom -5583.964836 kJ/mol
# Density = 2.050898 g / cm^3
# Si number density = 20.555769 Si / 1000 Ang^3
#
#
#
# Elastic Constant Matrix: (Units=GPa)
#
#
# Indices 1 2 3 4 5 6 
#
# 1 74.4878 19.4295 27.5909 0.0000 0.0000 0.0000
# 2 19.4295 74.4826 27.5894 0.0000 0.0000 0.0000
# 3 27.5909 27.5894 87.5585 0.0000 0.0000 0.0000
# 4 0.0000 0.0000 0.0000 26.2766 0.0000 0.0000
# 5 0.0000 0.0000 0.0000 0.0000 26.2765 0.0000
# 6 0.0000 0.0000 0.0000 0.0000 0.0000 20.1500
#
#
#
# Elastic Compliance Matrix: (Units=1/GPa)
#
#
# Indices 1 2 3 4 5 6 
#
# 1 0.015615 -0.002548 -0.004118 0.000000 0.000000 0.000000
# 2 -0.002548 0.015616 -0.004118 0.000000 0.000000 0.000000
# 3 -0.004118 -0.004118 0.014016 0.000000 0.000000 0.000000
# 4 0.000000 0.000000 0.000000 0.038057 0.000000 0.000000
# 5 0.000000 0.000000 0.000000 0.000000 0.038057 0.000000
# 6 0.000000 0.000000 0.000000 0.000000 0.000000 0.049628
#
#
# Mechanical properties :
#
#
# Convention : Reuss Voigt Hill
#
# Bulk Modulus (GPa) = 42.22948 42.86094 42.54521
# Shear Modulus (GPa) = 24.94417 25.33523 25.13970
#
# Velocity S-wave (km/s) = 3.48729 3.51452 3.50094
# Velocity P-wave (km/s) = 6.06658 6.11273 6.08970
#
# Compressibility (1/GPa) = 0.02368014
#
# Stress axis : x y z
#
# Youngs Moduli (GPa) = 64.04169 64.03746 71.34774
#
# Poissons Ratio (x) = 0.16317 0.29378
# Poissons Ratio (y) = 0.16318 0.29378
# Poissons Ratio (z) = 0.26369 0.26368
#
# Static dielectric constant tensor:
#      x y z
#    x 1.759520 0.000000 0.000000 
#    y 0.000000 1.759520 0.000000 
#    z 0.000000 0.000000 1.730720 
# 
# From -- ./inp_files/9829.got.cif
#   From: 2010.05.17/outbox.cif.g08.bks.cpg/sg137_5_cif.got.tgz:9829.got - 2010.05.20 13:01:12.
