data_PCOD9570921
_publ_section_title
;
Structure prediction by ZEFSAII (Michael W. Deem and Ramdas Pophale) SiO2 
 PCOD9570921
Probable space group: P 42/N C M
;
_chemical_formula_sum "Si O2"
_cell_formula_units_Z 84
_cell_length_a 12.644068
_cell_length_b 12.644068
_cell_length_c 27.543789
_cell_angle_alpha 90.000000
_cell_angle_beta 90.000000
_cell_angle_gamma 90.000000
_cell_volume 4403.493184
_symmetry_space_group_name_H-M "P 42/N C M"
_symmetry_group_IT_number 138
_space_group.IT_coordinate_system_code '2'
_symmetry_cell_setting 'tetragonal'
loop_
_space_group_symop_operation_xyz
x,y,z
1/2-y,x,1/2+z
1/2-x,1/2-y,z
y,1/2-x,1/2+z
1/2+x,-y,1/2-z
-x,1/2+y,1/2-z
1/2+y,1/2+x,-z
-y,-x,-z
-x,-y,-z
1/2+y,-x,1/2-z
1/2+x,1/2+y,-z
-y,1/2+x,1/2-z
1/2-x,y,1/2+z
x,1/2-y,1/2+z
1/2-y,1/2-x,z
y,x,z
loop_
_atom_site_type_symbol
_atom_site_label
_atom_site_fract_x
_atom_site_fract_y
_atom_site_fract_z
Si Si1 0.750000 0.750000 0.781240
Si Si2 0.853892 0.474130 0.410447
Si Si3 0.246312 0.623978 0.875891
Si Si4 0.873854 0.048448 0.708706
Si Si5 0.502392 0.738046 0.803014
Si Si6 0.375314 0.549170 0.552689
O O1 0.620406 0.749914 0.783983
O O2 0.942883 0.557118 0.425454
O O3 0.897182 0.354942 0.404257
O O4 0.812157 0.503290 0.356409
O O5 0.749466 0.475567 0.443844
O O6 0.250000 0.750000 0.863736
O O7 0.225981 0.556754 0.827514
O O8 0.144911 0.605829 0.909902
O O9 0.945130 0.149305 0.695492
O O10 0.836180 0.055874 0.764095
O O11 0.943259 0.943259 0.701714
O O12 0.410010 0.589991 0.500000
O O13 0.447553 0.447553 0.565179
#
# Coordination Sequence:
#
# PCOD9570921 Si02
#       6
#     4  16  16  16  16  16
#     4  12  24  40  52  92 126 160 218 270 320 360
#     4  11  23  40  63  97 125 161 204 262 317 367
#     4  10  21  38  59  88 122 161 207 250 311 371
#     4  12  23  37  57  84 122 173 213 254 315 370
#     4  12  24  37  59  87 125 164 214 266 307 373
#     4  10  22  41  67  95 123 159 209 259 312 379
#
# _framework density 19.075766000000002
#
# number of rings (size 3 to 8) (size 9 to 14) (size 15 to 20)
#    0.000    0.952    6.667    1.714    1.333    3.810 
#    1.714    1.905    0.000    2.857    0.000    0.000 
#    0.000    0.000    0.000    0.000    0.000    0.000 
#
# Total GULP energy -468250.129547 kJ/mol
# GULP energy per Si atom -5574.406304 kJ/mol
# Density = 1.903235 g / cm^3
# Si number density = 19.075766 Si / 1000 Ang^3
#
#
#
# Elastic Constant Matrix: (Units=GPa)
#
#
# Indices 1 2 3 4 5 6 
#
# 1 105.3853 52.2872 18.4037 0.0000 0.0000 0.0000
# 2 52.2872 105.3849 18.4031 0.0000 0.0000 0.0000
# 3 18.4037 18.4031 49.1540 0.0000 0.0000 0.0000
# 4 0.0000 0.0000 0.0000 10.5386 0.0000 0.0000
# 5 0.0000 0.0000 0.0000 0.0000 10.5392 0.0000
# 6 0.0000 0.0000 0.0000 0.0000 0.0000 28.6531
#
#
#
# Elastic Compliance Matrix: (Units=1/GPa)
#
#
# Indices 1 2 3 4 5 6 
#
# 1 0.012891 -0.005942 -0.002602 0.000000 0.000000 0.000000
# 2 -0.005942 0.012891 -0.002602 0.000000 0.000000 0.000000
# 3 -0.002602 -0.002602 0.022293 0.000000 0.000000 0.000000
# 4 0.000000 0.000000 0.000000 0.094889 0.000000 0.000000
# 5 0.000000 0.000000 0.000000 0.000000 0.094884 0.000000
# 6 0.000000 0.000000 0.000000 0.000000 0.000000 0.034900
#
#
# Mechanical properties :
#
#
# Convention : Reuss Voigt Hill
#
# Bulk Modulus (GPa) = 38.78370 48.67914 43.73142
# Shear Modulus (GPa) = 16.46713 21.33485 18.90099
#
# Velocity S-wave (km/s) = 2.94130 3.34792 3.15117
# Velocity P-wave (km/s) = 5.64894 6.36545 6.01787
#
# Compressibility (1/GPa) = 0.02578403
#
# Stress axis : x y z
#
# Youngs Moduli (GPa) = 77.57111 77.57110 44.85795
#
# Poissons Ratio (x) = 0.46091 0.11672
# Poissons Ratio (y) = 0.46091 0.11671
# Poissons Ratio (z) = 0.20185 0.20183
#
# Static dielectric constant tensor:
#      x y z
#    x 1.672550 0.000000 0.000000 
#    y 0.000000 1.672550 0.000000 
#    z 0.000000 0.000000 1.677630 
# 
# From -- ./inp_files/8078.got.cif
#   From: 2010.05.17/outbox.cif.g08.bks.cpg/sg138_5_cif.got.tgz:8078.got - 2010.05.20 13:08:53.
