data_PCOD9570495
_publ_section_title
;
Structure prediction by ZEFSAII (Michael W. Deem and Ramdas Pophale) SiO2 
 PCOD9570495
Probable space group: P 42/N M C
;
_chemical_formula_sum "Si O2"
_cell_formula_units_Z 96
_cell_length_a 14.820743
_cell_length_b 14.820743
_cell_length_c 23.590101
_cell_angle_alpha 90.000000
_cell_angle_beta 90.000000
_cell_angle_gamma 90.000000
_cell_volume 5181.670025
_symmetry_space_group_name_H-M "P 42/N M C"
_symmetry_group_IT_number 137
_space_group.IT_coordinate_system_code '2'
_symmetry_cell_setting 'tetragonal'
loop_
_space_group_symop_operation_xyz
x,y,z
1/2-y,x,1/2+z
1/2-x,1/2-y,z
y,1/2-x,1/2+z
1/2+x,-y,-z
-x,1/2+y,-z
1/2+y,1/2+x,1/2-z
-y,-x,1/2-z
-x,-y,-z
1/2+y,-x,1/2-z
1/2+x,1/2+y,-z
-y,1/2+x,1/2-z
1/2-x,y,z
x,1/2-y,z
1/2-y,1/2-x,1/2+z
y,x,1/2+z
loop_
_atom_site_type_symbol
_atom_site_label
_atom_site_fract_x
_atom_site_fract_y
_atom_site_fract_z
Si Si1 0.555873 0.651804 0.342768
Si Si2 0.856879 0.490850 0.413454
Si Si3 0.080276 0.439776 0.275235
Si Si4 0.526556 0.852417 0.045988
Si Si5 0.400404 0.649685 0.150523
Si Si6 0.645488 0.993592 0.113886
O O1 0.583206 0.750000 0.363360
O O2 0.592652 0.573785 0.383015
O O3 0.593695 0.632535 0.279851
O O4 0.445843 0.648641 0.338943
O O5 0.750000 0.489991 0.400996
O O6 0.868475 0.501430 0.481016
O O7 0.910018 0.402995 0.392256
O O8 0.141271 0.513058 0.308200
O O9 0.994749 0.494749 0.250000
O O10 0.045630 0.372020 0.323016
O O11 0.563337 0.750000 0.050948
O O12 0.439040 0.855482 0.086682
O O13 0.594819 0.925673 0.070931
O O14 0.359271 0.750000 0.158922
O O15 0.750000 0.998737 0.101315
#
# Coordination Sequence:
#
# PCOD9570495 Si02
#       6
#    16  16  16  16  16  16
#     4  11  22  36  58  86 117 155 197 240 295 357
#     4  11  23  41  60  82 122 161 195 240 290 345
#     4   9  17  37  56  82 114 152 188 237 291 347
#     4   9  19  38  62  86 117 155 189 232 290 345
#     4   9  17  33  59  85 115 150 187 234 288 346
#     4  11  22  38  65  91 114 151 199 246 293 343
#
# _framework density 18.526845999999999
#
# number of rings (size 3 to 8) (size 9 to 14) (size 15 to 20)
#    0.000    2.000    5.000    1.000    0.000    3.333 
#    0.000    1.667    0.000    6.000    0.000    0.000 
#    0.000    0.000    0.000    0.000    0.000    0.000 
#
# Total GULP energy -535214.914538 kJ/mol
# GULP energy per Si atom -5575.155360 kJ/mol
# Density = 1.848468 g / cm^3
# Si number density = 18.526846 Si / 1000 Ang^3
#
#
#
# Elastic Constant Matrix: (Units=GPa)
#
#
# Indices 1 2 3 4 5 6 
#
# 1 79.4107 27.9930 9.7851 0.0000 0.0000 0.0000
# 2 27.9930 79.4107 9.7851 0.0000 0.0000 0.0000
# 3 9.7851 9.7851 86.2709 0.0000 0.0000 0.0000
# 4 0.0000 0.0000 0.0000 2.8594 0.0000 0.0000
# 5 0.0000 0.0000 0.0000 0.0000 2.8594 0.0000
# 6 0.0000 0.0000 0.0000 0.0000 0.0000 1.2699
#
#
#
# Elastic Compliance Matrix: (Units=1/GPa)
#
#
# Indices 1 2 3 4 5 6 
#
# 1 0.014478 -0.004971 -0.001078 0.000000 0.000000 0.000000
# 2 -0.004971 0.014478 -0.001078 0.000000 0.000000 0.000000
# 3 -0.001078 -0.001078 0.011836 0.000000 0.000000 0.000000
# 4 0.000000 0.000000 0.000000 0.349729 0.000000 0.000000
# 5 0.000000 0.000000 0.000000 0.000000 0.349729 0.000000
# 6 0.000000 0.000000 0.000000 0.000000 0.000000 0.787477
#
#
# Mechanical properties :
#
#
# Convention : Reuss Voigt Hill
#
# Bulk Modulus (GPa) = 37.68328 37.80211 37.74269
# Shear Modulus (GPa) = 3.22409 14.56632 8.89520
#
# Velocity S-wave (km/s) = 1.32061 2.80702 2.19355
# Velocity P-wave (km/s) = 4.76543 5.56364 5.17993
#
# Compressibility (1/GPa) = 0.02653697
#
# Stress axis : x y z
#
# Youngs Moduli (GPa) = 69.07100 69.07100 84.48789
#
# Poissons Ratio (x) = 0.34333 0.09111
# Poissons Ratio (y) = 0.34333 0.09111
# Poissons Ratio (z) = 0.07448 0.07448
#
# Static dielectric constant tensor:
#      x y z
#    x 1.669500 0.000000 0.000000 
#    y 0.000000 1.669500 0.000000 
#    z 0.000000 0.000000 1.644480 
# 
# From -- ./inp_files/7801.got.cif
#   From: 2010.05.17/outbox.cif.g08.bks.cpg/sg137_4_cif.got.tgz:7801.got - 2010.05.20 13:01:12.
