data_PCOD9570531
_publ_section_title
;
Structure prediction by ZEFSAII (Michael W. Deem and Ramdas Pophale) SiO2 
 PCOD9570531
Probable space group: P 42/N M C
;
_chemical_formula_sum "Si O2"
_cell_formula_units_Z 34
_cell_length_a 13.253903
_cell_length_b 13.253903
_cell_length_c 10.063865
_cell_angle_alpha 90.000000
_cell_angle_beta 90.000000
_cell_angle_gamma 90.000000
_cell_volume 1767.878353
_symmetry_space_group_name_H-M "P 42/N M C"
_symmetry_group_IT_number 137
_space_group.IT_coordinate_system_code '2'
_symmetry_cell_setting 'tetragonal'
loop_
_space_group_symop_operation_xyz
x,y,z
1/2-y,x,1/2+z
1/2-x,1/2-y,z
y,1/2-x,1/2+z
1/2+x,-y,-z
-x,1/2+y,-z
1/2+y,1/2+x,1/2-z
-y,-x,1/2-z
-x,-y,-z
1/2+y,-x,1/2-z
1/2+x,1/2+y,-z
-y,1/2+x,1/2-z
1/2-x,y,z
x,1/2-y,z
1/2-y,1/2-x,1/2+z
y,x,1/2+z
loop_
_atom_site_type_symbol
_atom_site_label
_atom_site_fract_x
_atom_site_fract_y
_atom_site_fract_z
Si Si1 0.250000 0.750000 0.250000
Si Si2 0.250000 0.128067 0.985842
Si Si3 0.750000 0.471413 0.770044
Si Si4 0.956539 0.948265 0.131222
O O1 0.142782 0.750000 0.327013
O O2 0.250000 0.250000 0.008356
O O3 0.346498 0.092649 0.902657
O O4 0.250000 0.060745 0.120697
O O5 0.651436 0.485016 0.679694
O O6 0.971638 0.028363 0.250000
O O7 0.000000 0.000000 0.000000
#
# Coordination Sequence:
#
# PCOD9570531 Si02
#       4
#     2   8   8  16
#     4  12  20  44  64  88 154 192 248 280 386 444
#     4  12  26  43  74 109 145 190 249 312 374 437
#     4  12  24  41  69 102 136 199 237 297 367 447
#     4  12  25  44  68 104 144 185 244 300 367 438
#
# _framework density 19.232092999999999
#
# number of rings (size 3 to 8) (size 9 to 14) (size 15 to 20)
#    0.000    0.000    9.412    0.000    3.294    1.882 
#    0.000    2.353    0.000    0.000    0.000    0.000 
#    0.000    0.000    0.000    0.000    0.000    0.000 
#
# Total GULP energy -189702.890442 kJ/mol
# GULP energy per Si atom -5579.496778 kJ/mol
# Density = 1.918832 g / cm^3
# Si number density = 19.232093 Si / 1000 Ang^3
#
#
#
# Elastic Constant Matrix: (Units=GPa)
#
#
# Indices 1 2 3 4 5 6 
#
# 1 170.5180 75.0994 63.7401 0.0000 0.0000 0.0000
# 2 75.0994 170.5158 63.7393 0.0000 0.0000 0.0000
# 3 63.7401 63.7393 139.0133 0.0000 0.0000 0.0000
# 4 0.0000 0.0000 0.0000 38.4483 0.0000 0.0000
# 5 0.0000 0.0000 0.0000 0.0000 38.4486 0.0000
# 6 0.0000 0.0000 0.0000 0.0000 0.0000 32.8444
#
#
#
# Elastic Compliance Matrix: (Units=1/GPa)
#
#
# Indices 1 2 3 4 5 6 
#
# 1 0.007912 -0.002569 -0.002450 0.000000 0.000000 0.000000
# 2 -0.002569 0.007912 -0.002450 0.000000 0.000000 0.000000
# 3 -0.002450 -0.002450 0.009440 0.000000 0.000000 0.000000
# 4 0.000000 0.000000 0.000000 0.026009 0.000000 0.000000
# 5 0.000000 0.000000 0.000000 0.000000 0.026009 0.000000
# 6 0.000000 0.000000 0.000000 0.000000 0.000000 0.030447
#
#
# Mechanical properties :
#
#
# Convention : Reuss Voigt Hill
#
# Bulk Modulus (GPa) = 96.83654 98.35610 97.59632
# Shear Modulus (GPa) = 39.64911 40.44616 40.04763
#
# Velocity S-wave (km/s) = 4.54542 4.59088 4.56821
# Velocity P-wave (km/s) = 8.83225 8.90810 8.87026
#
# Compressibility (1/GPa) = 0.01032668
#
# Stress axis : x y z
#
# Youngs Moduli (GPa) = 126.39788 126.39653 105.93124
#
# Poissons Ratio (x) = 0.32467 0.25951
# Poissons Ratio (y) = 0.32468 0.25951
# Poissons Ratio (z) = 0.30965 0.30964
#
# Static dielectric constant tensor:
#      x y z
#    x 1.967160 0.000000 0.000000 
#    y 0.000000 1.964750 0.000000 
#    z 0.000000 0.000000 1.668640 
# 
# From -- ./inp_files/2654.got.cif
#   From: 2010.05.17/outbox.cif.g08.bks.cpg/sg137_2_cif.got.tgz:2654.got - 2010.05.20 13:01:12.
