data_PCOD9570250
_publ_section_title
;
Structure prediction by ZEFSAII (Michael W. Deem and Ramdas Pophale) SiO2 
 PCOD9570250
Probable space group: P 42/N M C
;
_chemical_formula_sum "Si O2"
_cell_formula_units_Z 112
_cell_length_a 14.501919
_cell_length_b 14.501919
_cell_length_c 29.984872
_cell_angle_alpha 90.000000
_cell_angle_beta 90.000000
_cell_angle_gamma 90.000000
_cell_volume 6305.988137
_symmetry_space_group_name_H-M "P 42/N M C"
_symmetry_group_IT_number 137
_space_group.IT_coordinate_system_code '2'
_symmetry_cell_setting 'tetragonal'
loop_
_space_group_symop_operation_xyz
x,y,z
1/2-y,x,1/2+z
1/2-x,1/2-y,z
y,1/2-x,1/2+z
1/2+x,-y,-z
-x,1/2+y,-z
1/2+y,1/2+x,1/2-z
-y,-x,1/2-z
-x,-y,-z
1/2+y,-x,1/2-z
1/2+x,1/2+y,-z
-y,1/2+x,1/2-z
1/2-x,y,z
x,1/2-y,z
1/2-y,1/2-x,1/2+z
y,x,1/2+z
loop_
_atom_site_type_symbol
_atom_site_label
_atom_site_fract_x
_atom_site_fract_y
_atom_site_fract_z
Si Si1 0.041023 0.358835 0.361246
Si Si2 0.641298 0.508422 0.240804
Si Si3 0.147608 0.991775 0.418023
Si Si4 0.140603 0.356954 0.176536
Si Si5 0.603738 0.984842 0.483580
Si Si6 0.647032 0.142187 0.413442
Si Si7 0.359619 0.472034 0.088479
O O1 0.060649 0.250000 0.367983
O O2 0.108537 0.423932 0.388921
O O3 0.044911 0.379309 0.308800
O O4 0.936786 0.375514 0.379516
O O5 0.581002 0.418999 0.250000
O O6 0.750000 0.487116 0.241900
O O7 0.621902 0.582815 0.279291
O O8 0.250000 0.962997 0.403475
O O9 0.070183 0.911607 0.414994
O O10 0.153730 0.023778 0.469531
O O11 0.250000 0.364281 0.185347
O O12 0.121839 0.250000 0.163895
O O13 0.118016 0.424257 0.135726
O O14 0.595833 0.899440 0.449794
O O15 0.500000 0.000000 0.500000
O O16 0.635652 0.072913 0.454841
O O17 0.750000 0.128910 0.394177
O O18 0.639933 0.250000 0.427242
O O19 0.250000 0.482398 0.084273
#
# Coordination Sequence:
#
# PCOD9570250 Si02
#       7
#    16  16  16  16  16  16  16
#     4  10  21  38  56  82 116 148 187 228 272 332
#     4  10  21  35  55  82 113 147 182 221 272 328
#     4  11  23  39  56  81 113 150 191 229 277 332
#     4   9  19  37  60  83 107 139 183 231 279 332
#     4  10  20  36  54  81 111 146 183 230 275 326
#     4  10  20  35  58  83 110 147 185 225 277 335
#     4  10  21  38  59  84 112 144 184 237 288 327
#
# _framework density 17.760895000000001
#
# number of rings (size 3 to 8) (size 9 to 14) (size 15 to 20)
#    0.000    2.000    2.857    1.286    0.000    5.857 
#    0.000    2.857    0.000    0.000    0.000    0.000 
#    0.000    3.429    0.000    0.000    0.000    0.000 
#
# Total GULP energy -624655.484988 kJ/mol
# GULP energy per Si atom -5577.281116 kJ/mol
# Density = 1.772047 g / cm^3
# Si number density = 17.760895 Si / 1000 Ang^3
#
#
#
# Elastic Constant Matrix: (Units=GPa)
#
#
# Indices 1 2 3 4 5 6 
#
# 1 94.8446 51.7127 66.9411 0.0000 0.0000 0.0000
# 2 51.7127 94.8475 66.9401 0.0000 0.0000 0.0000
# 3 66.9411 66.9401 145.3291 0.0000 0.0000 0.0000
# 4 0.0000 0.0000 0.0000 15.6677 0.0000 0.0000
# 5 0.0000 0.0000 0.0000 0.0000 15.6675 0.0000
# 6 0.0000 0.0000 0.0000 0.0000 0.0000 19.2882
#
#
#
# Elastic Compliance Matrix: (Units=1/GPa)
#
#
# Indices 1 2 3 4 5 6 
#
# 1 0.017482 -0.005702 -0.005426 0.000000 0.000000 0.000000
# 2 -0.005702 0.017481 -0.005426 0.000000 0.000000 0.000000
# 3 -0.005426 -0.005426 0.011879 0.000000 0.000000 0.000000
# 4 0.000000 0.000000 0.000000 0.063826 0.000000 0.000000
# 5 0.000000 0.000000 0.000000 0.000000 0.063826 0.000000
# 6 0.000000 0.000000 0.000000 0.000000 0.000000 0.051845
#
#
# Mechanical properties :
#
#
# Convention : Reuss Voigt Hill
#
# Bulk Modulus (GPa) = 72.80514 78.46766 75.63640
# Shear Modulus (GPa) = 18.93748 20.08649 19.51199
#
# Velocity S-wave (km/s) = 3.26888 3.36659 3.31810
# Velocity P-wave (km/s) = 7.43830 7.70635 7.57351
#
# Compressibility (1/GPa) = 0.01373529
#
# Stress axis : x y z
#
# Youngs Moduli (GPa) = 57.20049 57.20386 84.17897
#
# Poissons Ratio (x) = 0.32618 0.45678
# Poissons Ratio (y) = 0.32616 0.45672
# Poissons Ratio (z) = 0.31038 0.31037
#
# Static dielectric constant tensor:
#      x y z
#    x 1.605490 0.000000 0.000000 
#    y 0.000000 1.605490 0.000000 
#    z 0.000000 0.000000 1.607000 
# 
# From -- ./inp_files/9834.got.cif
#   From: 2010.05.17/outbox.cif.g08.bks.cpg/sg137_5_cif.got.tgz:9834.got - 2010.05.20 13:01:12.
