data_PCOD9570246
_publ_section_title
;
Structure prediction by ZEFSAII (Michael W. Deem and Ramdas Pophale) SiO2 
 PCOD9570246
Probable space group: P 42/N M C
;
_chemical_formula_sum "Si O2"
_cell_formula_units_Z 80
_cell_length_a 15.188355
_cell_length_b 15.188355
_cell_length_c 19.082706
_cell_angle_alpha 90.000000
_cell_angle_beta 90.000000
_cell_angle_gamma 90.000000
_cell_volume 4402.115551
_symmetry_space_group_name_H-M "P 42/N M C"
_symmetry_group_IT_number 137
_space_group.IT_coordinate_system_code '2'
_symmetry_cell_setting 'tetragonal'
loop_
_space_group_symop_operation_xyz
x,y,z
1/2-y,x,1/2+z
1/2-x,1/2-y,z
y,1/2-x,1/2+z
1/2+x,-y,-z
-x,1/2+y,-z
1/2+y,1/2+x,1/2-z
-y,-x,1/2-z
-x,-y,-z
1/2+y,-x,1/2-z
1/2+x,1/2+y,-z
-y,1/2+x,1/2-z
1/2-x,y,z
x,1/2-y,z
1/2-y,1/2-x,1/2+z
y,x,1/2+z
loop_
_atom_site_type_symbol
_atom_site_label
_atom_site_fract_x
_atom_site_fract_y
_atom_site_fract_z
Si Si1 0.349698 0.036135 0.206187
Si Si2 0.644700 0.845101 0.915761
Si Si3 0.472389 0.354725 0.457764
Si Si4 0.993274 0.403861 0.857246
Si Si5 0.851367 0.346501 0.968109
O O1 0.250000 0.008953 0.185201
O O2 0.367840 0.126452 0.164609
O O3 0.425189 0.973879 0.175618
O O4 0.354047 0.032688 0.289814
O O5 0.750000 0.839439 0.924864
O O6 0.605098 0.750000 0.931614
O O7 0.618302 0.918815 0.971718
O O8 0.455305 0.250000 0.442471
O O9 0.443961 0.424177 0.399125
O O10 0.574418 0.363698 0.477762
O O11 0.927849 0.352753 0.909909
O O12 0.750000 0.356498 0.939685
O O13 0.855794 0.250000 0.000879
#
# Coordination Sequence:
#
# PCOD9570246 Si02
#       5
#    16  16  16  16  16
#     4  10  21  36  53  78 115 147 179 228 280 335
#     4   9  18  34  55  77 107 148 185 223 280 338
#     4  10  21  38  57  82 116 146 188 243 279 327
#     4  11  21  35  56  82 110 149 188 229 281 335
#     4  10  20  35  57  84 114 148 184 228 286 343
#
# _framework density 18.173081
#
# number of rings (size 3 to 8) (size 9 to 14) (size 15 to 20)
#    0.000    2.000    2.000    1.800    0.000    2.400 
#    0.000    0.000    0.000    6.000    0.000    0.000 
#    0.000    0.000    0.000    0.000    0.000    0.000 
#
# Total GULP energy -445364.295984 kJ/mol
# GULP energy per Si atom -5567.053700 kJ/mol
# Density = 1.813172 g / cm^3
# Si number density = 18.173081 Si / 1000 Ang^3
#
#
#
# Elastic Constant Matrix: (Units=GPa)
#
#
# Indices 1 2 3 4 5 6 
#
# 1 107.2158 39.8531 48.5630 0.0000 0.0000 0.0000
# 2 39.8531 107.2158 48.5630 0.0000 0.0000 0.0000
# 3 48.5630 48.5630 82.5057 0.0000 0.0000 0.0000
# 4 0.0000 0.0000 0.0000 8.8394 0.0000 0.0000
# 5 0.0000 0.0000 0.0000 0.0000 8.8394 0.0000
# 6 0.0000 0.0000 0.0000 0.0000 0.0000 9.7187
#
#
#
# Elastic Compliance Matrix: (Units=1/GPa)
#
#
# Indices 1 2 3 4 5 6 
#
# 1 0.012984 -0.001861 -0.006547 0.000000 0.000000 0.000000
# 2 -0.001861 0.012984 -0.006547 0.000000 0.000000 0.000000
# 3 -0.006547 -0.006547 0.019828 0.000000 0.000000 0.000000
# 4 0.000000 0.000000 0.000000 0.113130 0.000000 0.000000
# 5 0.000000 0.000000 0.000000 0.000000 0.113130 0.000000
# 6 0.000000 0.000000 0.000000 0.000000 0.000000 0.102894
#
#
# Mechanical properties :
#
#
# Convention : Reuss Voigt Hill
#
# Bulk Modulus (GPa) = 62.95001 63.43283 63.19142
# Shear Modulus (GPa) = 12.19050 16.14339 14.16694
#
# Velocity S-wave (km/s) = 2.59279 2.98369 2.79508
# Velocity P-wave (km/s) = 6.60892 6.84474 6.72786
#
# Compressibility (1/GPa) = 0.01588562
#
# Stress axis : x y z
#
# Youngs Moduli (GPa) = 77.01659 77.01659 50.43423
#
# Poissons Ratio (x) = 0.14331 0.33021
# Poissons Ratio (y) = 0.14331 0.33021
# Poissons Ratio (z) = 0.50425 0.50425
#
# Static dielectric constant tensor:
#      x y z
#    x 1.650970 0.000000 0.000000 
#    y 0.000000 1.650970 0.000000 
#    z 0.000000 0.000000 1.621830 
# 
# From -- ./inp_files/7592.got.cif
#   From: 2010.05.17/outbox.cif.g08.bks.cpg/sg137_4_cif.got.tgz:7592.got - 2010.05.20 13:01:12.
