data_PCOD9570504
_publ_section_title
;
Structure prediction by ZEFSAII (Michael W. Deem and Ramdas Pophale) SiO2 
 PCOD9570504
Probable space group: P 42/N M C
;
_chemical_formula_sum "Si O2"
_cell_formula_units_Z 48
_cell_length_a 9.494206
_cell_length_b 9.494206
_cell_length_c 26.884920
_cell_angle_alpha 90.000000
_cell_angle_beta 90.000000
_cell_angle_gamma 90.000000
_cell_volume 2423.405279
_symmetry_space_group_name_H-M "P 42/N M C"
_symmetry_group_IT_number 137
_space_group.IT_coordinate_system_code '2'
_symmetry_cell_setting 'tetragonal'
loop_
_space_group_symop_operation_xyz
x,y,z
1/2-y,x,1/2+z
1/2-x,1/2-y,z
y,1/2-x,1/2+z
1/2+x,-y,-z
-x,1/2+y,-z
1/2+y,1/2+x,1/2-z
-y,-x,1/2-z
-x,-y,-z
1/2+y,-x,1/2-z
1/2+x,1/2+y,-z
-y,1/2+x,1/2-z
1/2-x,y,z
x,1/2-y,z
1/2-y,1/2-x,1/2+z
y,x,1/2+z
loop_
_atom_site_type_symbol
_atom_site_label
_atom_site_fract_x
_atom_site_fract_y
_atom_site_fract_z
Si Si1 0.250000 0.578795 0.082352
Si Si2 0.407303 0.414886 0.787038
Si Si3 0.975438 0.420723 0.114998
Si Si4 0.750000 0.081325 0.032606
O O1 0.250000 0.750000 0.085863
O O2 0.381799 0.505771 0.108062
O O3 0.250000 0.533261 0.024073
O O4 0.523526 0.476475 0.750000
O O5 0.250000 0.424245 0.764177
O O6 0.431924 0.250000 0.799215
O O7 0.408343 0.513117 0.835680
O O8 0.988601 0.250000 0.118206
O O9 0.883425 0.457118 0.066208
O O10 0.750000 0.250000 0.029782
#
# Coordination Sequence:
#
# PCOD9570504 Si02
#       4
#     8  16  16   8
#     4  11  23  39  61  95 137 175 215 265 322 375
#     4  11  25  44  67  95 125 164 212 266 328 390
#     4  11  22  41  66  94 129 170 219 266 321 385
#     4   9  20  39  65  95 129 171 219 267 314 381
#
# _framework density 19.806840000000001
#
# number of rings (size 3 to 8) (size 9 to 14) (size 15 to 20)
#    0.000    1.333    1.667    3.500    2.333    2.000 
#    0.000    5.000    0.000    0.000    0.000    0.000 
#    0.000    0.000    0.000    0.000    0.000    0.000 
#
# Total GULP energy -267885.134239 kJ/mol
# GULP energy per Si atom -5580.940297 kJ/mol
# Density = 1.976176 g / cm^3
# Si number density = 19.806840 Si / 1000 Ang^3
#
#
#
# Elastic Constant Matrix: (Units=GPa)
#
#
# Indices 1 2 3 4 5 6 
#
# 1 133.4960 50.0422 22.4005 0.0000 0.0000 0.0000
# 2 50.0422 133.4977 22.4018 0.0000 0.0000 0.0000
# 3 22.4005 22.4018 57.5740 0.0000 0.0000 0.0000
# 4 0.0000 0.0000 0.0000 29.4932 0.0000 0.0000
# 5 0.0000 0.0000 0.0000 0.0000 29.4930 0.0000
# 6 0.0000 0.0000 0.0000 0.0000 0.0000 -29.6825
#
#
#
# Elastic Compliance Matrix: (Units=1/GPa)
#
#
# Indices 1 2 3 4 5 6 
#
# 1 0.009001 -0.002981 -0.002342 0.000000 0.000000 0.000000
# 2 -0.002981 0.009001 -0.002342 0.000000 0.000000 0.000000
# 3 -0.002342 -0.002342 0.019192 0.000000 0.000000 0.000000
# 4 0.000000 0.000000 0.000000 0.033906 0.000000 0.000000
# 5 0.000000 0.000000 0.000000 0.000000 0.033906 0.000000
# 6 0.000000 0.000000 0.000000 0.000000 0.000000 -0.033690
#
#
# Mechanical properties :
#
#
# Convention : Reuss Voigt Hill
#
# Bulk Modulus (GPa) = 45.74012 57.13964 51.43988
# Shear Modulus (GPa) = 53.22752 21.17563 37.20157
#
# Velocity S-wave (km/s) = 5.18957 3.27327 4.33854
# Velocity P-wave (km/s) = 7.68453 6.57242 7.15013
#
# Compressibility (1/GPa) = 0.02186265
#
# Stress axis : x y z
#
# Youngs Moduli (GPa) = 111.09368 111.09438 52.10587
#
# Poissons Ratio (x) = 0.33119 0.12204
# Poissons Ratio (y) = 0.33119 0.12206
# Poissons Ratio (z) = 0.26021 0.26024
#
# Static dielectric constant tensor:
#      x y z
#    x 1.789640 0.000000 0.000000 
#    y 0.000000 1.789640 0.000000 
#    z 0.000000 0.000000 1.699420 
# 
# From -- ./inp_files/10029.got.cif
#   From: 2010.05.17/outbox.cif.g08.bks.cpg/sg137_6_cif.got.tgz:10029.got - 2010.05.20 13:01:12.
