data_PCOD9570626
_publ_section_title
;
Structure prediction by ZEFSAII (Michael W. Deem and Ramdas Pophale) SiO2 
 PCOD9570626
Probable space group: P 42/N C M
;
_chemical_formula_sum "Si O2"
_cell_formula_units_Z 72
_cell_length_a 19.230997
_cell_length_b 19.230997
_cell_length_c 9.717536
_cell_angle_alpha 90.000000
_cell_angle_beta 90.000000
_cell_angle_gamma 90.000000
_cell_volume 3593.848443
_symmetry_space_group_name_H-M "P 42/N C M"
_symmetry_group_IT_number 138
_space_group.IT_coordinate_system_code '2'
_symmetry_cell_setting 'tetragonal'
loop_
_space_group_symop_operation_xyz
x,y,z
1/2-y,x,1/2+z
1/2-x,1/2-y,z
y,1/2-x,1/2+z
1/2+x,-y,1/2-z
-x,1/2+y,1/2-z
1/2+y,1/2+x,-z
-y,-x,-z
-x,-y,-z
1/2+y,-x,1/2-z
1/2+x,1/2+y,-z
-y,1/2+x,1/2-z
1/2-x,y,1/2+z
x,1/2-y,1/2+z
1/2-y,1/2-x,z
y,x,z
loop_
_atom_site_type_symbol
_atom_site_label
_atom_site_fract_x
_atom_site_fract_y
_atom_site_fract_z
Si Si1 0.890263 0.110433 0.832844
Si Si2 0.617634 0.617634 0.872797
Si Si3 0.456375 0.758728 0.788221
Si Si4 0.492332 0.492332 0.165494
Si Si5 0.690499 0.690499 0.619328
Si Si6 0.550913 0.741349 0.031394
O O1 0.901088 0.185309 0.764790
O O2 0.818640 0.074803 0.787552
O O3 0.957967 0.064739 0.789980
O O4 0.887124 0.112877 0.000000
O O5 0.565489 0.565489 0.797278
O O6 0.663317 0.663317 0.767866
O O7 0.570157 0.666973 0.966576
O O8 0.490151 0.772886 0.936925
O O9 0.520620 0.763470 0.683203
O O10 0.500000 0.500000 0.000000
O O11 0.750000 0.750000 0.630767
O O12 0.718844 0.623483 0.539434
#
# Coordination Sequence:
#
# PCOD9570626 Si02
#       6
#    16   8  16   8   8  16
#     4  11  23  44  72 102 139 184 236 288 355 420
#     4  12  22  41  65  96 142 186 231 285 348 414
#     4  12  25  45  70 103 137 180 237 296 352 413
#     4  10  18  39  69  93 126 184 235 276 341 421
#     4  12  26  38  64 102 145 187 232 280 349 434
#     4  12  24  42  67  99 141 181 230 287 349 417
#
# _framework density 20.034233
#
# number of rings (size 3 to 8) (size 9 to 14) (size 15 to 20)
#    0.000    0.444    7.778    1.333    1.556    3.111 
#    0.000    1.111    0.000    4.000    0.000    0.000 
#    0.000    0.000    0.000    0.000    0.000    0.000 
#
# Total GULP energy -402241.808761 kJ/mol
# GULP energy per Si atom -5586.691788 kJ/mol
# Density = 1.998863 g / cm^3
# Si number density = 20.034233 Si / 1000 Ang^3
#
#
#
# Elastic Constant Matrix: (Units=GPa)
#
#
# Indices 1 2 3 4 5 6 
#
# 1 87.1351 36.8180 8.9274 0.0000 0.0000 0.0000
# 2 36.8180 87.1345 8.9272 0.0000 0.0000 0.0000
# 3 8.9274 8.9272 26.3933 0.0000 0.0000 0.0000
# 4 0.0000 0.0000 0.0000 33.8001 0.0000 0.0000
# 5 0.0000 0.0000 0.0000 0.0000 33.8000 0.0000
# 6 0.0000 0.0000 0.0000 0.0000 0.0000 40.3320
#
#
#
# Elastic Compliance Matrix: (Units=1/GPa)
#
#
# Indices 1 2 3 4 5 6 
#
# 1 0.014177 -0.005697 -0.002869 0.000000 0.000000 0.000000
# 2 -0.005697 0.014177 -0.002868 0.000000 0.000000 0.000000
# 3 -0.002869 -0.002868 0.039829 0.000000 0.000000 0.000000
# 4 0.000000 0.000000 0.000000 0.029586 0.000000 0.000000
# 5 0.000000 0.000000 0.000000 0.000000 0.029586 0.000000
# 6 0.000000 0.000000 0.000000 0.000000 0.000000 0.024794
#
#
# Mechanical properties :
#
#
# Convention : Reuss Voigt Hill
#
# Bulk Modulus (GPa) = 22.06711 34.44536 28.25623
# Shear Modulus (GPa) = 26.29884 31.31911 28.80897
#
# Velocity S-wave (km/s) = 3.62704 3.95812 3.79619
# Velocity P-wave (km/s) = 5.34595 6.17410 5.77489
#
# Compressibility (1/GPa) = 0.04531631
#
# Stress axis : x y z
#
# Youngs Moduli (GPa) = 70.53482 70.53441 25.10735
#
# Poissons Ratio (x) = 0.40181 0.07202
# Poissons Ratio (y) = 0.40181 0.07202
# Poissons Ratio (z) = 0.20234 0.20233
#
# Static dielectric constant tensor:
#      x y z
#    x 1.726460 0.000000 0.000000 
#    y 0.000000 1.726460 0.000000 
#    z 0.000000 0.000000 1.686170 
# 
# From -- ./inp_files/1555.got.cif
#   From: 2010.05.17/outbox.cif.g08.bks.cpg/sg138_1_cif.got.tgz:1555.got - 2010.05.20 13:08:53.
