data_PCOD9570204
_publ_section_title
;
Structure prediction by ZEFSAII (Michael W. Deem and Ramdas Pophale) SiO2 
 PCOD9570204
Probable space group: P 42/N M C
;
_chemical_formula_sum "Si O2"
_cell_formula_units_Z 112
_cell_length_a 14.383747
_cell_length_b 14.383747
_cell_length_c 28.968420
_cell_angle_alpha 90.000000
_cell_angle_beta 90.000000
_cell_angle_gamma 90.000000
_cell_volume 5993.339500
_symmetry_space_group_name_H-M "P 42/N M C"
_symmetry_group_IT_number 137
_space_group.IT_coordinate_system_code '2'
_symmetry_cell_setting 'tetragonal'
loop_
_space_group_symop_operation_xyz
x,y,z
1/2-y,x,1/2+z
1/2-x,1/2-y,z
y,1/2-x,1/2+z
1/2+x,-y,-z
-x,1/2+y,-z
1/2+y,1/2+x,1/2-z
-y,-x,1/2-z
-x,-y,-z
1/2+y,-x,1/2-z
1/2+x,1/2+y,-z
-y,1/2+x,1/2-z
1/2-x,y,z
x,1/2-y,z
1/2-y,1/2-x,1/2+z
y,x,1/2+z
loop_
_atom_site_type_symbol
_atom_site_label
_atom_site_fract_x
_atom_site_fract_y
_atom_site_fract_z
Si Si1 0.040187 0.356228 0.339718
Si Si2 0.645033 0.505600 0.263925
Si Si3 0.141948 0.036656 0.412172
Si Si4 0.140000 0.141051 0.150757
Si Si5 0.494930 0.898301 0.521421
Si Si6 0.642875 0.138433 0.395530
Si Si7 0.351646 0.523444 0.080163
O O1 0.048798 0.250000 0.356800
O O2 0.056827 0.353796 0.285354
O O3 0.935244 0.387105 0.356652
O O4 0.114665 0.422504 0.362842
O O5 0.578634 0.421367 0.250000
O O6 0.750000 0.471878 0.273684
O O7 0.618183 0.574059 0.305633
O O8 0.250000 0.034946 0.421922
O O9 0.085773 0.105180 0.446683
O O10 0.097608 0.933923 0.414676
O O11 0.250000 0.132543 0.162560
O O12 0.124522 0.250000 0.138544
O O13 0.122052 0.069967 0.108599
O O14 0.406833 0.885906 0.555557
O O15 0.494558 0.842106 0.474418
O O16 0.500000 0.000000 0.500000
O O17 0.750000 0.102775 0.390839
O O18 0.649694 0.250000 0.393588
O O19 0.250000 0.554484 0.097519
#
# Coordination Sequence:
#
# PCOD9570204 Si02
#       7
#    16  16  16  16  16  16  16
#     4   9  19  35  53  77 108 140 177 218 262 319
#     4  10  20  34  53  77 107 140 174 216 267 325
#     4  10  21  36  53  77 108 140 177 217 261 317
#     4   9  19  36  57  80 104 135 180 230 279 330
#     4   9  19  33  47  71 104 135 172 214 255 309
#     4   9  17  31  52  75 101 135 172 211 259 318
#     4  10  20  36  57  79 107 140 177 226 275 319
#
# _framework density 18.687411999999998
#
# number of rings (size 3 to 8) (size 9 to 14) (size 15 to 20)
#    0.000    2.571    0.000    1.286    0.000    5.286 
#    0.000   11.429    0.000    0.000    0.000    0.000 
#    0.000    3.429    0.000    0.000    0.000    0.000 
#
# Total GULP energy -623474.519645 kJ/mol
# GULP energy per Si atom -5566.736783 kJ/mol
# Density = 1.864488 g / cm^3
# Si number density = 18.687412 Si / 1000 Ang^3
#
#
#
# Elastic Constant Matrix: (Units=GPa)
#
#
# Indices 1 2 3 4 5 6 
#
# 1 85.4507 25.0252 22.7018 0.0000 0.0000 0.0000
# 2 25.0252 85.4512 22.7008 0.0000 0.0000 0.0000
# 3 22.7018 22.7008 84.7263 0.0000 0.0000 0.0000
# 4 0.0000 0.0000 0.0000 16.5733 0.0000 0.0000
# 5 0.0000 0.0000 0.0000 0.0000 16.5731 0.0000
# 6 0.0000 0.0000 0.0000 0.0000 0.0000 24.2084
#
#
#
# Elastic Compliance Matrix: (Units=1/GPa)
#
#
# Indices 1 2 3 4 5 6 
#
# 1 0.013361 -0.003189 -0.002726 0.000000 0.000000 0.000000
# 2 -0.003189 0.013360 -0.002725 0.000000 0.000000 0.000000
# 3 -0.002726 -0.002725 0.013263 0.000000 0.000000 0.000000
# 4 0.000000 0.000000 0.000000 0.060338 0.000000 0.000000
# 5 0.000000 0.000000 0.000000 0.000000 0.060339 0.000000
# 6 0.000000 0.000000 0.000000 0.000000 0.000000 0.041308
#
#
# Mechanical properties :
#
#
# Convention : Reuss Voigt Hill
#
# Bulk Modulus (GPa) = 44.04286 44.05378 44.04832
# Shear Modulus (GPa) = 22.04427 23.81766 22.93096
#
# Velocity S-wave (km/s) = 3.43830 3.57393 3.50677
# Velocity P-wave (km/s) = 6.27550 6.37619 6.32605
#
# Compressibility (1/GPa) = 0.02270516
#
# Stress axis : x y z
#
# Youngs Moduli (GPa) = 74.84697 74.84792 75.39675
#
# Poissons Ratio (x) = 0.23867 0.20549
# Poissons Ratio (y) = 0.23867 0.20548
# Poissons Ratio (z) = 0.20400 0.20398
#
# Static dielectric constant tensor:
#      x y z
#    x 1.667730 0.000000 0.000000 
#    y 0.000000 1.667730 0.000000 
#    z 0.000000 0.000000 1.700040 
# 
# From -- ./inp_files/9833.got.cif
#   From: 2010.05.17/outbox.cif.g08.bks.cpg/sg137_5_cif.got.tgz:9833.got - 2010.05.20 13:01:12.
