data_PCOD9570489
_publ_section_title
;
Structure prediction by ZEFSAII (Michael W. Deem and Ramdas Pophale) SiO2 
 PCOD9570489
Probable space group: P 42/N M C
;
_chemical_formula_sum "Si O2"
_cell_formula_units_Z 128
_cell_length_a 19.493739
_cell_length_b 19.493739
_cell_length_c 20.132498
_cell_angle_alpha 90.000000
_cell_angle_beta 90.000000
_cell_angle_gamma 90.000000
_cell_volume 7650.467220
_symmetry_space_group_name_H-M "P 42/N M C"
_symmetry_group_IT_number 137
_space_group.IT_coordinate_system_code '2'
_symmetry_cell_setting 'tetragonal'
loop_
_space_group_symop_operation_xyz
x,y,z
1/2-y,x,1/2+z
1/2-x,1/2-y,z
y,1/2-x,1/2+z
1/2+x,-y,-z
-x,1/2+y,-z
1/2+y,1/2+x,1/2-z
-y,-x,1/2-z
-x,-y,-z
1/2+y,-x,1/2-z
1/2+x,1/2+y,-z
-y,1/2+x,1/2-z
1/2-x,y,z
x,1/2-y,z
1/2-y,1/2-x,1/2+z
y,x,1/2+z
loop_
_atom_site_type_symbol
_atom_site_label
_atom_site_fract_x
_atom_site_fract_y
_atom_site_fract_z
Si Si1 0.419130 0.668533 0.057863
Si Si2 0.564542 0.828676 0.237909
Si Si3 0.923612 0.827011 0.076335
Si Si4 0.832253 0.406145 0.310945
Si Si5 0.450628 0.329118 0.403551
Si Si6 0.831714 0.106818 0.059658
Si Si7 0.168587 0.445618 0.745400
Si Si8 0.082399 0.668603 0.208012
O O1 0.404802 0.750000 0.056099
O O2 0.500908 0.661363 0.045861
O O3 0.410178 0.642415 0.133126
O O4 0.369193 0.633097 0.006167
O O5 0.571644 0.750000 0.261852
O O6 0.571265 0.825729 0.157203
O O7 0.620506 0.880101 0.267615
O O8 0.486742 0.855773 0.245168
O O9 0.900311 0.750000 0.056747
O O10 0.874849 0.891285 0.064315
O O11 0.863832 0.363832 0.250000
O O12 0.750000 0.400932 0.310408
O O13 0.860906 0.372712 0.378132
O O14 0.848981 0.486460 0.296937
O O15 0.429454 0.250000 0.408866
O O16 0.524785 0.338009 0.435656
O O17 0.460176 0.342560 0.324303
O O18 0.750000 0.123761 0.062486
O O19 0.250000 0.431318 0.736675
O O20 0.147159 0.647159 0.250000
O O21 0.073911 0.750000 0.202891
#
# Coordination Sequence:
#
# PCOD9570489 Si02
#       8
#    16  16  16  16  16  16  16  16
#     4   9  19  35  52  73 100 130 167 209 251 303
#     4   8  15  29  49  74 102 128 159 203 255 308
#     4   8  15  30  51  73  99 129 160 203 254 304
#     4  11  21  33  48  69  98 136 180 219 255 296
#     4   9  17  30  48  73 104 131 162 208 254 298
#     4  11  22  35  50  72 104 139 173 216 260 299
#     4   9  17  30  47  71 101 131 168 212 253 296
#     4   9  18  33  52  76 103 128 160 202 251 308
#
# _framework density 16.731003999999999
#
# number of rings (size 3 to 8) (size 9 to 14) (size 15 to 20)
#    0.000    2.750    1.250    2.250    0.000    3.750 
#    2.250    3.750    0.000    0.000    0.000    0.000 
#    0.000    4.000    0.000    0.250    0.000    0.000 
#
# Total GULP energy -712562.713462 kJ/mol
# GULP energy per Si atom -5566.896199 kJ/mol
# Density = 1.669292 g / cm^3
# Si number density = 16.731004 Si / 1000 Ang^3
#
#
#
# Elastic Constant Matrix: (Units=GPa)
#
#
# Indices 1 2 3 4 5 6 
#
# 1 78.7007 63.3788 42.9124 0.0000 0.0000 0.0000
# 2 63.3788 78.7007 42.9124 0.0000 0.0000 0.0000
# 3 42.9124 42.9124 52.1082 0.0000 0.0000 0.0000
# 4 0.0000 0.0000 0.0000 18.3873 0.0000 0.0000
# 5 0.0000 0.0000 0.0000 0.0000 18.3873 0.0000
# 6 0.0000 0.0000 0.0000 0.0000 0.0000 37.9564
#
#
#
# Elastic Compliance Matrix: (Units=1/GPa)
#
#
# Indices 1 2 3 4 5 6 
#
# 1 0.039636 -0.025630 -0.011534 0.000000 0.000000 0.000000
# 2 -0.025630 0.039636 -0.011534 0.000000 0.000000 0.000000
# 3 -0.011534 -0.011534 0.038188 0.000000 0.000000 0.000000
# 4 0.000000 0.000000 0.000000 0.054385 0.000000 0.000000
# 5 0.000000 0.000000 0.000000 0.000000 0.054385 0.000000
# 6 0.000000 0.000000 0.000000 0.000000 0.000000 0.026346
#
#
# Mechanical properties :
#
#
# Convention : Reuss Voigt Hill
#
# Bulk Modulus (GPa) = 49.84250 56.43522 53.13886
# Shear Modulus (GPa) = 14.01897 18.96661 16.49279
#
# Velocity S-wave (km/s) = 2.89780 3.37058 3.14309
# Velocity P-wave (km/s) = 6.40714 6.99656 6.70833
#
# Compressibility (1/GPa) = 0.02006320
#
# Stress axis : x y z
#
# Youngs Moduli (GPa) = 25.22977 25.22977 26.18638
#
# Poissons Ratio (x) = 0.64664 0.30203
# Poissons Ratio (y) = 0.64664 0.30203
# Poissons Ratio (z) = 0.29100 0.29100
#
# Static dielectric constant tensor:
#      x y z
#    x 1.571880 0.000000 0.000000 
#    y 0.000000 1.571880 0.000000 
#    z 0.000000 0.000000 1.558730 
# 
# From -- ./inp_files/6850.got.cif
#   From: 2010.05.17/outbox.cif.g08.bks.cpg/sg137_4_cif.got.tgz:6850.got - 2010.05.20 13:01:12.
