data_PCOD9570371
_publ_section_title
;
Structure prediction by ZEFSAII (Michael W. Deem and Ramdas Pophale) SiO2 
 PCOD9570371
Probable space group: P 42/N M C
;
_chemical_formula_sum "Si O2"
_cell_formula_units_Z 72
_cell_length_a 18.480346
_cell_length_b 18.480346
_cell_length_c 10.899891
_cell_angle_alpha 90.000000
_cell_angle_beta 90.000000
_cell_angle_gamma 90.000000
_cell_volume 3722.565526
_symmetry_space_group_name_H-M "P 42/N M C"
_symmetry_group_IT_number 137
_space_group.IT_coordinate_system_code '2'
_symmetry_cell_setting 'tetragonal'
loop_
_space_group_symop_operation_xyz
x,y,z
1/2-y,x,1/2+z
1/2-x,1/2-y,z
y,1/2-x,1/2+z
1/2+x,-y,-z
-x,1/2+y,-z
1/2+y,1/2+x,1/2-z
-y,-x,1/2-z
-x,-y,-z
1/2+y,-x,1/2-z
1/2+x,1/2+y,-z
-y,1/2+x,1/2-z
1/2-x,y,z
x,1/2-y,z
1/2-y,1/2-x,1/2+z
y,x,1/2+z
loop_
_atom_site_type_symbol
_atom_site_label
_atom_site_fract_x
_atom_site_fract_y
_atom_site_fract_z
Si Si1 0.833248 0.459962 0.132879
Si Si2 0.442469 0.335299 0.135680
Si Si3 0.166132 0.584556 0.506720
Si Si4 0.165959 0.461437 0.129124
Si Si5 0.401960 0.598041 0.250000
O O1 0.750000 0.439863 0.157341
O O2 0.857022 0.510215 0.245081
O O3 0.877345 0.388105 0.101192
O O4 0.835606 0.507434 0.008931
O O5 0.426128 0.250000 0.144539
O O6 0.371799 0.383888 0.129470
O O7 0.498203 0.346231 0.022465
O O8 0.250000 0.598173 0.534292
O O9 0.146367 0.611672 0.370629
O O10 0.250000 0.461457 0.170171
O O11 0.117334 0.516944 0.208132
#
# Coordination Sequence:
#
# PCOD9570371 Si02
#       5
#    16  16  16  16   8
#     4   9  20  38  57  85 119 153 199 248 295 353
#     4  10  22  38  59  86 120 158 202 252 298 355
#     4  10  21  37  59  88 120 156 198 245 299 359
#     4  10  22  38  59  85 117 158 201 248 303 363
#     4  10  22  36  60  87 122 150 197 250 300 360
#
# _framework density 19.3415
#
# number of rings (size 3 to 8) (size 9 to 14) (size 15 to 20)
#    0.000    2.222    0.000    1.333    6.222    3.556 
#    0.000    0.000    0.000   12.333    0.000    0.000 
#    0.000    0.000    0.000    0.000    0.000    0.000 
#
# Total GULP energy -401740.735365 kJ/mol
# GULP energy per Si atom -5579.732436 kJ/mol
# Density = 1.929748 g / cm^3
# Si number density = 19.341500 Si / 1000 Ang^3
#
#
#
# Elastic Constant Matrix: (Units=GPa)
#
#
# Indices 1 2 3 4 5 6 
#
# 1 101.4844 80.4152 24.6291 0.0000 0.0000 0.0000
# 2 80.4152 101.4833 24.6290 0.0000 0.0000 0.0000
# 3 24.6291 24.6290 75.8541 0.0000 0.0000 0.0000
# 4 0.0000 0.0000 0.0000 15.0755 0.0000 0.0000
# 5 0.0000 0.0000 0.0000 0.0000 15.0761 0.0000
# 6 0.0000 0.0000 0.0000 0.0000 0.0000 20.9753
#
#
#
# Elastic Compliance Matrix: (Units=1/GPa)
#
#
# Indices 1 2 3 4 5 6 
#
# 1 0.026746 -0.020718 -0.001957 0.000000 0.000000 0.000000
# 2 -0.020718 0.026746 -0.001957 0.000000 0.000000 0.000000
# 3 -0.001957 -0.001957 0.014454 0.000000 0.000000 0.000000
# 4 0.000000 0.000000 0.000000 0.066333 0.000000 0.000000
# 5 0.000000 0.000000 0.000000 0.000000 0.066330 0.000000
# 6 0.000000 0.000000 0.000000 0.000000 0.000000 0.047675
#
#
# Mechanical properties :
#
#
# Convention : Reuss Voigt Hill
#
# Bulk Modulus (GPa) = 53.53082 59.79651 56.66367
# Shear Modulus (GPa) = 16.45954 20.16862 18.31408
#
# Velocity S-wave (km/s) = 2.92035 3.23269 3.08048
# Velocity P-wave (km/s) = 6.25364 6.70201 6.48170
#
# Compressibility (1/GPa) = 0.01868083
#
# Stress axis : x y z
#
# Youngs Moduli (GPa) = 37.38933 37.38891 69.18461
#
# Poissons Ratio (x) = 0.77463 0.13540
# Poissons Ratio (y) = 0.77464 0.13540
# Poissons Ratio (z) = 0.07317 0.07317
#
# Static dielectric constant tensor:
#      x y z
#    x 1.655030 0.000000 0.000000 
#    y 0.000000 1.655040 0.000000 
#    z 0.000000 0.000000 1.706820 
# 
# From -- ./inp_files/3481.got.cif
#   From: 2010.05.17/outbox.cif.g08.bks.cpg/sg137_2_cif.got.tgz:3481.got - 2010.05.20 13:01:12.
