data_PCOD9570837
_publ_section_title
;
Structure prediction by ZEFSAII (Michael W. Deem and Ramdas Pophale) SiO2 
 PCOD9570837
Probable space group: P 42/N C M
;
_chemical_formula_sum "Si O2"
_cell_formula_units_Z 64
_cell_length_a 12.495647
_cell_length_b 12.495647
_cell_length_c 18.636044
_cell_angle_alpha 90.000000
_cell_angle_beta 90.000000
_cell_angle_gamma 90.000000
_cell_volume 2909.854161
_symmetry_space_group_name_H-M "P 42/N C M"
_symmetry_group_IT_number 138
_space_group.IT_coordinate_system_code '2'
_symmetry_cell_setting 'tetragonal'
loop_
_space_group_symop_operation_xyz
x,y,z
1/2-y,x,1/2+z
1/2-x,1/2-y,z
y,1/2-x,1/2+z
1/2+x,-y,1/2-z
-x,1/2+y,1/2-z
1/2+y,1/2+x,-z
-y,-x,-z
-x,-y,-z
1/2+y,-x,1/2-z
1/2+x,1/2+y,-z
-y,1/2+x,1/2-z
1/2-x,y,1/2+z
x,1/2-y,1/2+z
1/2-y,1/2-x,z
y,x,z
loop_
_atom_site_type_symbol
_atom_site_label
_atom_site_fract_x
_atom_site_fract_y
_atom_site_fract_z
Si Si1 0.425618 0.243644 0.353840
Si Si2 0.820882 0.996396 0.495687
Si Si3 0.240443 0.627033 0.628671
Si Si4 0.565257 0.387220 0.260498
O O1 0.371285 0.128716 0.345602
O O2 0.329414 0.329414 0.360440
O O3 0.487116 0.259778 0.428876
O O4 0.491246 0.287945 0.286569
O O5 0.913083 0.086918 0.500000
O O6 0.743926 0.039635 0.433643
O O7 0.885467 0.885467 0.480702
O O8 0.250000 0.750000 0.602777
O O9 0.141552 0.611920 0.682784
O O10 0.343713 0.607832 0.679259
O O11 0.490988 0.490988 0.261671
#
# Coordination Sequence:
#
# PCOD9570837 Si02
#       4
#    16  16  16  16
#     4   9  19  37  61  90 123 159 201 250 306 369
#     4  10  20  37  63  88 116 161 205 245 300 366
#     4  12  23  41  60  91 124 159 206 254 305 366
#     4  11  22  40  64  89 123 165 204 251 312 370
#
# _framework density 21.994229000000001
#
# number of rings (size 3 to 8) (size 9 to 14) (size 15 to 20)
#    0.000    1.500    5.000    0.750    0.000    3.500 
#    0.000    0.000    0.000    1.500    0.000    0.000 
#    0.000    0.000    0.000    0.000    0.000    0.000 
#
# Total GULP energy -357851.728135 kJ/mol
# GULP energy per Si atom -5591.433252 kJ/mol
# Density = 2.194417 g / cm^3
# Si number density = 21.994229 Si / 1000 Ang^3
#
#
#
# Elastic Constant Matrix: (Units=GPa)
#
#
# Indices 1 2 3 4 5 6 
#
# 1 68.0051 24.0928 15.3853 0.0000 0.0000 0.0000
# 2 24.0928 68.0055 15.3855 0.0000 0.0000 0.0000
# 3 15.3853 15.3855 84.8980 0.0000 0.0000 0.0000
# 4 0.0000 0.0000 0.0000 36.4366 0.0000 0.0000
# 5 0.0000 0.0000 0.0000 0.0000 36.4366 0.0000
# 6 0.0000 0.0000 0.0000 0.0000 0.0000 50.0890
#
#
#
# Elastic Compliance Matrix: (Units=1/GPa)
#
#
# Indices 1 2 3 4 5 6 
#
# 1 0.017165 -0.005607 -0.002095 0.000000 0.000000 0.000000
# 2 -0.005607 0.017165 -0.002095 0.000000 0.000000 0.000000
# 3 -0.002095 -0.002095 0.012538 0.000000 0.000000 0.000000
# 4 0.000000 0.000000 0.000000 0.027445 0.000000 0.000000
# 5 0.000000 0.000000 0.000000 0.000000 0.027445 0.000000
# 6 0.000000 0.000000 0.000000 0.000000 0.000000 0.019964
#
#
# Mechanical properties :
#
#
# Convention : Reuss Voigt Hill
#
# Bulk Modulus (GPa) = 36.66299 36.73730 36.70014
# Shear Modulus (GPa) = 33.24306 35.66211 34.45259
#
# Velocity S-wave (km/s) = 3.89195 4.03107 3.96212
# Velocity P-wave (km/s) = 6.07469 6.19721 6.13626
#
# Compressibility (1/GPa) = 0.02727546
#
# Stress axis : x y z
#
# Youngs Moduli (GPa) = 58.25736 58.25770 79.75763
#
# Poissons Ratio (x) = 0.32667 0.16705
# Poissons Ratio (y) = 0.32667 0.16706
# Poissons Ratio (z) = 0.12202 0.12202
#
# Static dielectric constant tensor:
#      x y z
#    x 1.834020 0.000000 0.000000 
#    y 0.000000 1.834020 0.000000 
#    z 0.000000 0.000000 1.784550 
# 
# From -- ./inp_files/5827.got.cif
#   From: 2010.05.17/outbox.cif.g08.bks.cpg/sg138_3_cif.got.tgz:5827.got - 2010.05.20 13:08:53.
