data_PCOD9570095
_publ_section_title
;
Structure prediction by ZEFSAII (Michael W. Deem and Ramdas Pophale) SiO2 
 PCOD9570095
Probable space group: P 42/N M C
;
_chemical_formula_sum "Si O2"
_cell_formula_units_Z 96
_cell_length_a 14.729547
_cell_length_b 14.729547
_cell_length_c 24.663806
_cell_angle_alpha 90.000000
_cell_angle_beta 90.000000
_cell_angle_gamma 90.000000
_cell_volume 5351.048370
_symmetry_space_group_name_H-M "P 42/N M C"
_symmetry_group_IT_number 137
_space_group.IT_coordinate_system_code '2'
_symmetry_cell_setting 'tetragonal'
loop_
_space_group_symop_operation_xyz
x,y,z
1/2-y,x,1/2+z
1/2-x,1/2-y,z
y,1/2-x,1/2+z
1/2+x,-y,-z
-x,1/2+y,-z
1/2+y,1/2+x,1/2-z
-y,-x,1/2-z
-x,-y,-z
1/2+y,-x,1/2-z
1/2+x,1/2+y,-z
-y,1/2+x,1/2-z
1/2-x,y,z
x,1/2-y,z
1/2-y,1/2-x,1/2+z
y,x,1/2+z
loop_
_atom_site_type_symbol
_atom_site_label
_atom_site_fract_x
_atom_site_fract_y
_atom_site_fract_z
Si Si1 0.354562 0.096991 0.315554
Si Si2 0.093334 0.508564 0.034017
Si Si3 0.355424 0.750000 0.473263
Si Si4 0.357707 0.250000 0.394019
Si Si5 0.639828 0.750000 0.476761
Si Si6 0.964643 0.072939 0.659287
Si Si7 0.750000 0.145562 0.840989
Si Si8 0.145599 0.150468 0.192875
O O1 0.250000 0.069846 0.327569
O O2 0.391439 0.161023 0.363332
O O3 0.353771 0.147463 0.258174
O O4 0.417366 0.010509 0.312303
O O5 0.159210 0.418346 0.039894
O O6 0.066144 0.540654 0.094250
O O7 0.161252 0.586149 0.010515
O O8 0.000000 0.500000 0.000000
O O9 0.250000 0.750000 0.490712
O O10 0.355093 0.750000 0.407118
O O11 0.250000 0.250000 0.381818
O O12 0.367854 0.250000 0.457819
O O13 0.750000 0.750000 0.463353
O O14 0.910089 0.162428 0.676839
O O15 0.069389 0.084352 0.673059
O O16 0.750000 0.250000 0.823376
O O17 0.250000 0.134304 0.174750
O O18 0.118039 0.250000 0.173991
#
# Coordination Sequence:
#
# PCOD9570095 Si02
#       8
#    16  16   8   8   8  16   8  16
#     4  10  19  33  55  79 106 136 178 229 270 321
#     4  10  21  35  51  78 111 141 183 231 275 323
#     4   8  17  33  52  69  97 140 181 217 264 329
#     4   9  17  33  55  80 103 137 184 229 279 313
#     4  10  21  35  54  79 111 146 187 231 276 334
#     4  11  20  33  52  78 106 145 181 213 272 332
#     4   9  17  31  48  74 107 139 171 201 254 326
#     4  10  20  35  53  74 106 142 178 223 266 315
#
# _framework density 17.94041
#
# number of rings (size 3 to 8) (size 9 to 14) (size 15 to 20)
#    0.000    2.167    1.667    2.500    0.000    2.000 
#    0.000    0.000    0.000    0.000    0.000    0.583 
#    0.000    0.000    0.000    0.000    0.000    0.000 
#
# Total GULP energy -535255.262721 kJ/mol
# GULP energy per Si atom -5575.575653 kJ/mol
# Density = 1.789958 g / cm^3
# Si number density = 17.940410 Si / 1000 Ang^3
#
#
#
# Elastic Constant Matrix: (Units=GPa)
#
#
# Indices 1 2 3 4 5 6 
#
# 1 114.7406 56.3101 -0.6196 0.0000 0.0000 0.0000
# 2 56.3101 114.7406 -0.6196 0.0000 0.0000 0.0000
# 3 -0.6196 -0.6196 16.4538 0.0000 0.0000 0.0000
# 4 0.0000 0.0000 0.0000 22.1605 0.0000 0.0000
# 5 0.0000 0.0000 0.0000 0.0000 22.1605 0.0000
# 6 0.0000 0.0000 0.0000 0.0000 0.0000 16.1587
#
#
#
# Elastic Compliance Matrix: (Units=1/GPa)
#
#
# Indices 1 2 3 4 5 6 
#
# 1 0.011481 -0.005633 0.000220 0.000000 0.000000 0.000000
# 2 -0.005633 0.011481 0.000220 0.000000 0.000000 0.000000
# 3 0.000220 0.000220 0.060793 0.000000 0.000000 0.000000
# 4 0.000000 0.000000 0.000000 0.045125 0.000000 0.000000
# 5 0.000000 0.000000 0.000000 0.000000 0.045125 0.000000
# 6 0.000000 0.000000 0.000000 0.000000 0.000000 0.061886
#
#
# Mechanical properties :
#
#
# Convention : Reuss Voigt Hill
#
# Bulk Modulus (GPa) = 13.62968 39.56411 26.59690
# Shear Modulus (GPa) = 18.46832 24.82022 21.64427
#
# Velocity S-wave (km/s) = 3.21195 3.72355 3.47717
# Velocity P-wave (km/s) = 4.62268 6.37082 5.56581
#
# Compressibility (1/GPa) = 0.07336927
#
# Stress axis : x y z
#
# Youngs Moduli (GPa) = 87.09987 87.09987 16.44931
#
# Poissons Ratio (x) = 0.49066 -0.00362
# Poissons Ratio (y) = 0.49066 -0.00362
# Poissons Ratio (z) = -0.01918 -0.01918
#
# Static dielectric constant tensor:
#      x y z
#    x 1.624370 0.000000 0.000000 
#    y 0.000000 1.624370 0.000000 
#    z 0.000000 0.000000 1.634460 
# 
# From -- ./inp_files/8906.got.cif
#   From: 2010.05.17/outbox.cif.g08.bks.cpg/sg137_5_cif.got.tgz:8906.got - 2010.05.20 13:01:12.
