data_PCOD9570719
_publ_section_title
;
Structure prediction by ZEFSAII (Michael W. Deem and Ramdas Pophale) SiO2 
 PCOD9570719
Probable space group: P 42/N C M
;
_chemical_formula_sum "Si O2"
_cell_formula_units_Z 104
_cell_length_a 16.516105
_cell_length_b 16.516105
_cell_length_c 17.368387
_cell_angle_alpha 90.000000
_cell_angle_beta 90.000000
_cell_angle_gamma 90.000000
_cell_volume 4737.778555
_symmetry_space_group_name_H-M "P 42/N C M"
_symmetry_group_IT_number 138
_space_group.IT_coordinate_system_code '2'
_symmetry_cell_setting 'tetragonal'
loop_
_space_group_symop_operation_xyz
x,y,z
1/2-y,x,1/2+z
1/2-x,1/2-y,z
y,1/2-x,1/2+z
1/2+x,-y,1/2-z
-x,1/2+y,1/2-z
1/2+y,1/2+x,-z
-y,-x,-z
-x,-y,-z
1/2+y,-x,1/2-z
1/2+x,1/2+y,-z
-y,1/2+x,1/2-z
1/2-x,y,1/2+z
x,1/2-y,1/2+z
1/2-y,1/2-x,z
y,x,z
loop_
_atom_site_type_symbol
_atom_site_label
_atom_site_fract_x
_atom_site_fract_y
_atom_site_fract_z
Si Si1 0.674413 0.021630 0.774866
Si Si2 0.058325 0.778949 0.915149
Si Si3 0.908388 0.466078 0.128217
Si Si4 0.845738 0.345738 0.000000
Si Si5 0.090064 0.542247 0.375564
Si Si6 0.796327 0.575155 0.526643
Si Si7 0.216338 0.088707 0.310599
O O1 0.742900 0.058452 0.829507
O O2 0.594568 0.032725 0.826152
O O3 0.649371 0.063496 0.694993
O O4 0.709200 0.936344 0.743592
O O5 0.059326 0.874936 0.910461
O O6 0.132745 0.739593 0.961627
O O7 0.975271 0.753295 0.959220
O O8 0.845020 0.511953 0.183845
O O9 0.962967 0.537034 0.092165
O O10 0.861514 0.412763 0.066041
O O11 0.142059 0.489755 0.435070
O O12 0.015967 0.484034 0.349925
O O13 0.849048 0.650953 0.498287
O O14 0.743823 0.600971 0.600719
O O15 0.165660 0.165660 0.283745
#
# Coordination Sequence:
#
# PCOD9570719 Si02
#       7
#    16  16  16   8  16  16  16
#     4  10  22  35  59  93 128 162 221 273 314 387
#     4  11  21  38  63  92 130 162 213 272 328 384
#     4  10  19  36  61  85 116 167 217 260 311 384
#     4  10  21  36  59  92 124 156 197 269 330 386
#     4  10  21  40  65  89 120 172 225 268 316 389
#     4  10  21  39  64  93 126 168 220 271 324 399
#     4  10  21  39  63  91 130 174 216 273 339 394
#
# _framework density 21.951215999999999
#
# number of rings (size 3 to 8) (size 9 to 14) (size 15 to 20)
#    0.000    1.846    1.538    2.538    0.000    4.615 
#    0.000    2.308    0.000    6.000    0.000    2.154 
#    0.000    0.000    0.000    0.000    0.000    0.000 
#
# Total GULP energy -580442.573878 kJ/mol
# GULP energy per Si atom -5581.178595 kJ/mol
# Density = 2.190125 g / cm^3
# Si number density = 21.951216 Si / 1000 Ang^3
#
#
#
# Elastic Constant Matrix: (Units=GPa)
#
#
# Indices 1 2 3 4 5 6 
#
# 1 30.9427 63.8475 21.6802 0.0000 0.0000 0.0000
# 2 63.8475 30.9427 21.6802 0.0000 0.0000 0.0000
# 3 21.6802 21.6802 88.1608 0.0000 0.0000 0.0000
# 4 0.0000 0.0000 0.0000 15.3712 0.0000 0.0000
# 5 0.0000 0.0000 0.0000 0.0000 15.3712 0.0000
# 6 0.0000 0.0000 0.0000 0.0000 0.0000 32.1352
#
#
#
# Elastic Compliance Matrix: (Units=1/GPa)
#
#
# Indices 1 2 3 4 5 6 
#
# 1 -0.009252 0.021139 -0.002923 0.000000 0.000000 0.000000
# 2 0.021139 -0.009252 -0.002923 0.000000 0.000000 0.000000
# 3 -0.002923 -0.002923 0.012781 0.000000 0.000000 0.000000
# 4 0.000000 0.000000 0.000000 0.065057 0.000000 0.000000
# 5 0.000000 0.000000 0.000000 0.000000 0.065057 0.000000
# 6 0.000000 0.000000 0.000000 0.000000 0.000000 0.031118
#
#
# Mechanical properties :
#
#
# Convention : Reuss Voigt Hill
#
# Bulk Modulus (GPa) = 40.22278 40.49577 40.35928
# Shear Modulus (GPa) = 37.53451 15.43143 26.48297
#
# Velocity S-wave (km/s) = 4.13959 2.65427 3.47716
# Velocity P-wave (km/s) = 6.41964 5.28031 5.87764
#
# Compressibility (1/GPa) = 0.02486154
#
# Stress axis : x y z
#
# Youngs Moduli (GPa) = -108.08522 -108.08522 78.24350
#
# Poissons Ratio (x) = 2.28478 0.22872
# Poissons Ratio (y) = 2.28478 0.22872
# Poissons Ratio (z) = -0.31595 -0.31595
#
# Static dielectric constant tensor:
#      x y z
#    x 1.808950 0.000000 0.000000 
#    y 0.000000 1.808950 0.000000 
#    z 0.000000 0.000000 1.809780 
# 
# From -- ./inp_files/5300.got.cif
#   From: 2010.05.17/outbox.cif.g08.bks.cpg/sg138_3_cif.got.tgz:5300.got - 2010.05.20 13:08:53.
