data_PCOD9570069
_publ_section_title
;
Structure prediction by ZEFSAII (Michael W. Deem and Ramdas Pophale) SiO2 
 PCOD9570069
Probable space group: P 42/N M C
;
_chemical_formula_sum "Si O2"
_cell_formula_units_Z 96
_cell_length_a 15.763548
_cell_length_b 15.763548
_cell_length_c 18.669245
_cell_angle_alpha 90.000000
_cell_angle_beta 90.000000
_cell_angle_gamma 90.000000
_cell_volume 4639.110339
_symmetry_space_group_name_H-M "P 42/N M C"
_symmetry_group_IT_number 137
_space_group.IT_coordinate_system_code '2'
_symmetry_cell_setting 'tetragonal'
loop_
_space_group_symop_operation_xyz
x,y,z
1/2-y,x,1/2+z
1/2-x,1/2-y,z
y,1/2-x,1/2+z
1/2+x,-y,-z
-x,1/2+y,-z
1/2+y,1/2+x,1/2-z
-y,-x,1/2-z
-x,-y,-z
1/2+y,-x,1/2-z
1/2+x,1/2+y,-z
-y,1/2+x,1/2-z
1/2-x,y,z
x,1/2-y,z
1/2-y,1/2-x,1/2+z
y,x,1/2+z
loop_
_atom_site_type_symbol
_atom_site_label
_atom_site_fract_x
_atom_site_fract_y
_atom_site_fract_z
Si Si1 0.591205 0.158495 0.584511
Si Si2 0.649349 0.971249 0.375857
Si Si3 0.458131 0.346205 0.713395
Si Si4 0.088983 0.047941 0.993364
Si Si5 0.155406 0.851168 0.835801
Si Si6 0.345806 0.478213 0.379175
O O1 0.635706 0.250000 0.582187
O O2 0.536154 0.153163 0.657693
O O3 0.521347 0.154623 0.521194
O O4 0.644059 0.071689 0.585219
O O5 0.750000 0.972460 0.368274
O O6 0.605647 0.918618 0.312374
O O7 0.621706 0.921442 0.447285
O O8 0.617933 0.069551 0.374410
O O9 0.421839 0.250000 0.709309
O O10 0.485854 0.361157 0.794691
O O11 0.087608 0.090299 0.916122
O O12 0.000000 0.000000 0.000000
O O13 0.141062 0.858939 0.750000
O O14 0.250000 0.886026 0.852806
O O15 0.159722 0.750000 0.850410
O O16 0.250000 0.449318 0.390340
#
# Coordination Sequence:
#
# PCOD9570069 Si02
#       6
#    16  16  16  16  16  16
#     4   9  18  34  54  77 105 139 179 219 264 323
#     4  10  19  32  53  76  99 136 182 221 264 323
#     4   9  19  34  52  76 105 137 178 227 275 325
#     4   9  19  34  51  73 104 142 177 213 260 324
#     4   8  15  28  45  69 101 130 159 204 260 315
#     4  10  19  33  54  79 107 137 171 219 275 324
#
# _framework density 20.693622000000001
#
# number of rings (size 3 to 8) (size 9 to 14) (size 15 to 20)
#    0.000    2.833    0.000    1.500    0.000    4.667 
#    0.000    4.167    0.000    9.500    0.000    0.000 
#    0.000    0.000    0.000    0.000    0.000    0.167 
#
# Total GULP energy -535003.047126 kJ/mol
# GULP energy per Si atom -5572.948408 kJ/mol
# Density = 2.064652 g / cm^3
# Si number density = 20.693622 Si / 1000 Ang^3
#
#
#
# Elastic Constant Matrix: (Units=GPa)
#
#
# Indices 1 2 3 4 5 6 
#
# 1 54.0859 13.3980 9.1445 0.0000 0.0000 0.0000
# 2 13.3980 54.0857 9.1445 0.0000 0.0000 0.0000
# 3 9.1445 9.1445 49.6730 0.0000 0.0000 0.0000
# 4 0.0000 0.0000 0.0000 11.6888 0.0000 0.0000
# 5 0.0000 0.0000 0.0000 0.0000 11.6886 0.0000
# 6 0.0000 0.0000 0.0000 0.0000 0.0000 20.3051
#
#
#
# Elastic Compliance Matrix: (Units=1/GPa)
#
#
# Indices 1 2 3 4 5 6 
#
# 1 0.020087 -0.004490 -0.002871 0.000000 0.000000 0.000000
# 2 -0.004490 0.020087 -0.002871 0.000000 0.000000 0.000000
# 3 -0.002871 -0.002871 0.021189 0.000000 0.000000 0.000000
# 4 0.000000 0.000000 0.000000 0.085552 0.000000 0.000000
# 5 0.000000 0.000000 0.000000 0.000000 0.085553 0.000000
# 6 0.000000 0.000000 0.000000 0.000000 0.000000 0.049249
#
#
# Mechanical properties :
#
#
# Convention : Reuss Voigt Hill
#
# Bulk Modulus (GPa) = 24.45172 24.57986 24.51579
# Shear Modulus (GPa) = 15.83206 17.14701 16.48954
#
# Velocity S-wave (km/s) = 2.76899 2.88169 2.82590
# Velocity P-wave (km/s) = 4.69732 4.79332 4.74556
#
# Compressibility (1/GPa) = 0.04089692
#
# Stress axis : x y z
#
# Youngs Moduli (GPa) = 49.78367 49.78350 47.19476
#
# Poissons Ratio (x) = 0.22355 0.13551
# Poissons Ratio (y) = 0.22355 0.13551
# Poissons Ratio (z) = 0.14294 0.14294
#
# Static dielectric constant tensor:
#      x y z
#    x 1.747300 0.000000 0.000000 
#    y 0.000000 1.747300 0.000000 
#    z 0.000000 0.000000 1.796550 
# 
# From -- ./inp_files/7876.got.cif
#   From: 2010.05.17/outbox.cif.g08.bks.cpg/sg137_4_cif.got.tgz:7876.got - 2010.05.20 13:01:12.
