data_PCOD9570674
_publ_section_title
;
Structure prediction by ZEFSAII (Michael W. Deem and Ramdas Pophale) SiO2 
 PCOD9570674
Probable space group: P 42/N C M
;
_chemical_formula_sum "Si O2"
_cell_formula_units_Z 112
_cell_length_a 17.324681
_cell_length_b 17.324681
_cell_length_c 22.535334
_cell_angle_alpha 90.000000
_cell_angle_beta 90.000000
_cell_angle_gamma 90.000000
_cell_volume 6763.858173
_symmetry_space_group_name_H-M "P 42/N C M"
_symmetry_group_IT_number 138
_space_group.IT_coordinate_system_code '2'
_symmetry_cell_setting 'tetragonal'
loop_
_space_group_symop_operation_xyz
x,y,z
1/2-y,x,1/2+z
1/2-x,1/2-y,z
y,1/2-x,1/2+z
1/2+x,-y,1/2-z
-x,1/2+y,1/2-z
1/2+y,1/2+x,-z
-y,-x,-z
-x,-y,-z
1/2+y,-x,1/2-z
1/2+x,1/2+y,-z
-y,1/2+x,1/2-z
1/2-x,y,1/2+z
x,1/2-y,1/2+z
1/2-y,1/2-x,z
y,x,z
loop_
_atom_site_type_symbol
_atom_site_label
_atom_site_fract_x
_atom_site_fract_y
_atom_site_fract_z
Si Si1 0.998981 0.125998 0.522903
Si Si2 0.878240 0.139434 0.194082
Si Si3 0.346005 0.468656 0.392272
Si Si4 0.139797 0.487541 0.241202
Si Si5 0.931397 0.279789 0.131123
Si Si6 0.374168 0.245253 0.802316
Si Si7 0.798417 0.126056 0.671557
O O1 0.930275 0.069726 0.500000
O O2 0.968365 0.187249 0.570925
O O3 0.025170 0.166554 0.462191
O O4 0.068549 0.068549 0.543865
O O5 0.932508 0.189895 0.150739
O O6 0.874186 0.184268 0.257587
O O7 0.793006 0.132646 0.166407
O O8 0.895056 0.051534 0.214051
O O9 0.431517 0.431517 0.383662
O O10 0.287017 0.409669 0.362460
O O11 0.333195 0.548950 0.358454
O O12 0.075955 0.424046 0.228062
O O13 0.169600 0.529028 0.182656
O O14 0.214822 0.443598 0.267136
O O15 0.842144 0.304619 0.138684
O O16 0.326979 0.173022 0.773840
O O17 0.311737 0.311737 0.812248
#
# Coordination Sequence:
#
# PCOD9570674 Si02
#       7
#    16  16  16  16  16  16  16
#     4  10  20  34  51  75 104 134 171 217 261 302
#     4  11  20  32  49  73 103 140 169 206 254 318
#     4  10  19  33  54  77 103 132 171 218 260 304
#     4  10  20  33  53  80 106 134 174 220 267 319
#     4  11  21  32  51  71 106 143 175 203 256 313
#     4   9  17  32  55  80 103 129 167 220 271 309
#     4  11  19  31  50  73 101 136 172 205 252 303
#
# _framework density 16.558596999999999
#
# number of rings (size 3 to 8) (size 9 to 14) (size 15 to 20)
#    0.000    1.714    5.714    0.857    0.000    2.286 
#    0.000    1.429    0.000    1.714    0.000    6.000 
#    0.000    0.000    0.000    0.000    0.000    0.000 
#
# Total GULP energy -623617.847415 kJ/mol
# GULP energy per Si atom -5568.016495 kJ/mol
# Density = 1.652091 g / cm^3
# Si number density = 16.558597 Si / 1000 Ang^3
#
#
#
# Elastic Constant Matrix: (Units=GPa)
#
#
# Indices 1 2 3 4 5 6 
#
# 1 69.3521 15.8327 33.1048 0.0000 0.0000 0.0000
# 2 15.8327 69.3521 33.1050 0.0000 0.0000 0.0000
# 3 33.1048 33.1050 66.9514 0.0000 0.0000 0.0000
# 4 0.0000 0.0000 0.0000 20.4626 0.0000 0.0000
# 5 0.0000 0.0000 0.0000 0.0000 20.4625 0.0000
# 6 0.0000 0.0000 0.0000 0.0000 0.0000 14.5145
#
#
#
# Elastic Compliance Matrix: (Units=1/GPa)
#
#
# Indices 1 2 3 4 5 6 
#
# 1 0.018876 0.000191 -0.009428 0.000000 0.000000 0.000000
# 2 0.000191 0.018876 -0.009428 0.000000 0.000000 0.000000
# 3 -0.009428 -0.009428 0.024260 0.000000 0.000000 0.000000
# 4 0.000000 0.000000 0.000000 0.048870 0.000000 0.000000
# 5 0.000000 0.000000 0.000000 0.000000 0.048870 0.000000
# 6 0.000000 0.000000 0.000000 0.000000 0.000000 0.068897
#
#
# Mechanical properties :
#
#
# Convention : Reuss Voigt Hill
#
# Bulk Modulus (GPa) = 40.51523 41.08230 40.79876
# Shear Modulus (GPa) = 18.23457 19.32879 18.78168
#
# Velocity S-wave (km/s) = 3.32206 3.42028 3.37152
# Velocity P-wave (km/s) = 6.26384 6.36096 6.31259
#
# Compressibility (1/GPa) = 0.02468208
#
# Stress axis : x y z
#
# Youngs Moduli (GPa) = 52.97762 52.97756 41.22068
#
# Poissons Ratio (x) = -0.01012 0.38862
# Poissons Ratio (y) = -0.01012 0.38863
# Poissons Ratio (z) = 0.49947 0.49947
#
# Static dielectric constant tensor:
#      x y z
#    x 1.607210 0.000000 0.000000 
#    y 0.000000 1.607210 0.000000 
#    z 0.000000 0.000000 1.539360 
# 
# From -- ./inp_files/6435.got.cif
#   From: 2010.05.17/outbox.cif.g08.bks.cpg/sg138_4_cif.got.tgz:6435.got - 2010.05.20 13:08:53.
