data_PCOD9570821
_publ_section_title
;
Structure prediction by ZEFSAII (Michael W. Deem and Ramdas Pophale) SiO2 
 PCOD9570821
Probable space group: P 42/N C M
;
_chemical_formula_sum "Si O2"
_cell_formula_units_Z 40
_cell_length_a 19.779142
_cell_length_b 19.779142
_cell_length_c 4.964974
_cell_angle_alpha 90.000000
_cell_angle_beta 90.000000
_cell_angle_gamma 90.000000
_cell_volume 1942.369614
_symmetry_space_group_name_H-M "P 42/N C M"
_symmetry_group_IT_number 138
_space_group.IT_coordinate_system_code '2'
_symmetry_cell_setting 'tetragonal'
loop_
_space_group_symop_operation_xyz
x,y,z
1/2-y,x,1/2+z
1/2-x,1/2-y,z
y,1/2-x,1/2+z
1/2+x,-y,1/2-z
-x,1/2+y,1/2-z
1/2+y,1/2+x,-z
-y,-x,-z
-x,-y,-z
1/2+y,-x,1/2-z
1/2+x,1/2+y,-z
-y,1/2+x,1/2-z
1/2-x,y,1/2+z
x,1/2-y,1/2+z
1/2-y,1/2-x,z
y,x,z
loop_
_atom_site_type_symbol
_atom_site_label
_atom_site_fract_x
_atom_site_fract_y
_atom_site_fract_z
Si Si1 0.889194 0.889194 0.348778
Si Si2 0.447956 0.052045 0.662122
Si Si3 0.506052 0.293252 0.744392
Si Si4 0.920557 0.420557 0.000000
O O1 0.899105 0.899105 0.666875
O O2 0.927991 0.819301 0.288830
O O3 0.936015 0.936015 0.150652
O O4 0.428958 0.979005 0.775245
O O5 0.515771 0.229206 0.549868
O O6 0.559332 0.350091 0.643203
#
# Coordination Sequence:
#
# PCOD9570821 Si02
#       4
#     8   8  16   8
#     4  10  20  37  56  85 117 140 189 243 292 351
#     4   9  18  32  60  84 105 142 175 250 326 330
#     4  11  23  36  58  86 113 151 188 233 292 344
#     4   9  20  36  56  85 118 142 190 245 294 353
#
# _framework density 20.593402000000001
#
# number of rings (size 3 to 8) (size 9 to 14) (size 15 to 20)
#    0.000    2.000    0.000    6.000    0.000   20.800 
#    0.000    0.000    0.000    7.200    0.000    0.000 
#    0.000    0.000    0.000    0.000    0.000    0.000 
#
# Total GULP energy -222679.670300 kJ/mol
# GULP energy per Si atom -5566.991758 kJ/mol
# Density = 2.054653 g / cm^3
# Si number density = 20.593402 Si / 1000 Ang^3
#
#
#
# Elastic Constant Matrix: (Units=GPa)
#
#
# Indices 1 2 3 4 5 6 
#
# 1 94.1409 -9.3464 5.4948 0.0000 0.0000 0.0000
# 2 -9.3464 94.1409 5.4948 0.0000 0.0000 0.0000
# 3 5.4948 5.4948 69.0609 0.0000 0.0000 0.0000
# 4 0.0000 0.0000 0.0000 34.3184 0.0000 0.0000
# 5 0.0000 0.0000 0.0000 0.0000 34.3184 0.0000
# 6 0.0000 0.0000 0.0000 0.0000 0.0000 35.8500
#
#
#
# Elastic Compliance Matrix: (Units=1/GPa)
#
#
# Indices 1 2 3 4 5 6 
#
# 1 0.010790 0.001127 -0.000948 0.000000 0.000000 0.000000
# 2 0.001127 0.010790 -0.000948 0.000000 0.000000 0.000000
# 3 -0.000948 -0.000948 0.014631 0.000000 0.000000 0.000000
# 4 0.000000 0.000000 0.000000 0.029139 0.000000 0.000000
# 5 0.000000 0.000000 0.000000 0.000000 0.029139 0.000000
# 6 0.000000 0.000000 0.000000 0.000000 0.000000 0.027894
#
#
# Mechanical properties :
#
#
# Convention : Reuss Voigt Hill
#
# Bulk Modulus (GPa) = 28.84281 28.95875 28.90078
# Shear Modulus (GPa) = 36.90638 37.94399 37.42519
#
# Velocity S-wave (km/s) = 4.23797 4.29713 4.26765
# Velocity P-wave (km/s) = 6.16307 6.22199 6.19260
#
# Compressibility (1/GPa) = 0.03467068
#
# Stress axis : x y z
#
# Youngs Moduli (GPa) = 92.68216 92.68216 68.34873
#
# Poissons Ratio (x) = -0.10441 0.06480
# Poissons Ratio (y) = -0.10441 0.06480
# Poissons Ratio (z) = 0.08787 0.08787
#
# Static dielectric constant tensor:
#      x y z
#    x 1.801990 0.000000 0.000000 
#    y 0.000000 1.801990 0.000000 
#    z 0.000000 0.000000 1.737560 
# 
# From -- ./inp_files/163.got.cif
#   From: 2010.05.17/outbox.cif.g08.bks.cpg/sg138_1_cif.got.tgz:163.got - 2010.05.20 13:08:53.
