data_PCOD9570838
_publ_section_title
;
Structure prediction by ZEFSAII (Michael W. Deem and Ramdas Pophale) SiO2 
 PCOD9570838
Probable space group: P 42/N C M
;
_chemical_formula_sum "Si O2"
_cell_formula_units_Z 56
_cell_length_a 17.368344
_cell_length_b 17.368344
_cell_length_c 10.065149
_cell_angle_alpha 90.000000
_cell_angle_beta 90.000000
_cell_angle_gamma 90.000000
_cell_volume 3036.246540
_symmetry_space_group_name_H-M "P 42/N C M"
_symmetry_group_IT_number 138
_space_group.IT_coordinate_system_code '2'
_symmetry_cell_setting 'tetragonal'
loop_
_space_group_symop_operation_xyz
x,y,z
1/2-y,x,1/2+z
1/2-x,1/2-y,z
y,1/2-x,1/2+z
1/2+x,-y,1/2-z
-x,1/2+y,1/2-z
1/2+y,1/2+x,-z
-y,-x,-z
-x,-y,-z
1/2+y,-x,1/2-z
1/2+x,1/2+y,-z
-y,1/2+x,1/2-z
1/2-x,y,1/2+z
x,1/2-y,1/2+z
1/2-y,1/2-x,z
y,x,z
loop_
_atom_site_type_symbol
_atom_site_label
_atom_site_fract_x
_atom_site_fract_y
_atom_site_fract_z
Si Si1 0.980523 0.247000 0.581789
Si Si2 0.960490 0.416082 0.215888
Si Si3 0.110298 0.610298 0.500000
Si Si4 0.542228 0.832449 0.167878
O O1 0.955784 0.166844 0.648600
O O2 0.909607 0.302777 0.543362
O O3 0.027995 0.227180 0.449979
O O4 0.030920 0.292134 0.690411
O O5 0.942634 0.408736 0.372818
O O6 0.895843 0.473740 0.159161
O O7 0.042411 0.457590 0.193883
O O8 0.621288 0.878713 0.157292
#
# Coordination Sequence:
#
# PCOD9570838 Si02
#       4
#    16  16   8  16
#     4  11  20  39  61  90 122 155 198 251 305 356
#     4  10  20  37  64  89 116 157 209 253 292 354
#     4  10  21  36  59  92 124 154 193 254 309 362
#     4  10  22  39  62  90 119 160 208 250 295 359
#
# _framework density 18.443825
#
# number of rings (size 3 to 8) (size 9 to 14) (size 15 to 20)
#    0.000    1.714    2.857    2.143    0.000    3.429 
#    0.000    2.857    0.000    6.857    0.000    0.000 
#    0.000    0.000    0.000    0.000    0.000    0.000 
#
# Total GULP energy -312648.246028 kJ/mol
# GULP energy per Si atom -5583.004393 kJ/mol
# Density = 1.840185 g / cm^3
# Si number density = 18.443825 Si / 1000 Ang^3
#
#
#
# Elastic Constant Matrix: (Units=GPa)
#
#
# Indices 1 2 3 4 5 6 
#
# 1 0.4023 161.9201 50.0359 0.0000 0.0000 0.0000
# 2 161.9201 0.4023 50.0359 0.0000 0.0000 0.0000
# 3 50.0359 50.0359 118.9666 0.0000 0.0000 0.0000
# 4 0.0000 0.0000 0.0000 12.7927 0.0000 0.0000
# 5 0.0000 0.0000 0.0000 0.0000 12.7927 0.0000
# 6 0.0000 0.0000 0.0000 0.0000 0.0000 15.4679
#
#
#
# Elastic Compliance Matrix: (Units=1/GPa)
#
#
# Indices 1 2 3 4 5 6 
#
# 1 0.001063 0.007254 -0.003498 0.000000 0.000000 0.000000
# 2 0.007254 0.001063 -0.003498 0.000000 0.000000 0.000000
# 3 -0.003498 -0.003498 0.011348 0.000000 0.000000 0.000000
# 4 0.000000 0.000000 0.000000 0.078170 0.000000 0.000000
# 5 0.000000 0.000000 0.000000 0.000000 0.078170 0.000000
# 6 0.000000 0.000000 0.000000 0.000000 0.000000 0.064650
#
#
# Mechanical properties :
#
#
# Convention : Reuss Voigt Hill
#
# Bulk Modulus (GPa) = 71.47882 71.52838 71.50360
# Shear Modulus (GPa) = 20.95464 -1.27072 9.84196
#
# Velocity S-wave (km/s) = 3.37431 -0.83094 2.31252
# Velocity P-wave (km/s) = 7.34985 6.15998 6.78106
#
# Compressibility (1/GPa) = 0.01399016
#
# Stress axis : x y z
#
# Youngs Moduli (GPa) = 940.78353 940.78353 88.11944
#
# Poissons Ratio (x) = -6.82464 0.30825
# Poissons Ratio (y) = -6.82464 0.30825
# Poissons Ratio (z) = 3.29095 3.29095
#
# Static dielectric constant tensor:
#      x y z
#    x 1.616230 0.000000 0.000000 
#    y 0.000000 1.616230 0.000000 
#    z 0.000000 0.000000 1.662890 
# 
# From -- ./inp_files/1173.got.cif
#   From: 2010.05.17/outbox.cif.g08.bks.cpg/sg138_1_cif.got.tgz:1173.got - 2010.05.20 13:08:53.
