data_PCOD9570376
_publ_section_title
;
Structure prediction by ZEFSAII (Michael W. Deem and Ramdas Pophale) SiO2 
 PCOD9570376
Probable space group: P 42/N M C
;
_chemical_formula_sum "Si O2"
_cell_formula_units_Z 72
_cell_length_a 19.034813
_cell_length_b 19.034813
_cell_length_c 10.437189
_cell_angle_alpha 90.000000
_cell_angle_beta 90.000000
_cell_angle_gamma 90.000000
_cell_volume 3781.645173
_symmetry_space_group_name_H-M "P 42/N M C"
_symmetry_group_IT_number 137
_space_group.IT_coordinate_system_code '2'
_symmetry_cell_setting 'tetragonal'
loop_
_space_group_symop_operation_xyz
x,y,z
1/2-y,x,1/2+z
1/2-x,1/2-y,z
y,1/2-x,1/2+z
1/2+x,-y,-z
-x,1/2+y,-z
1/2+y,1/2+x,1/2-z
-y,-x,1/2-z
-x,-y,-z
1/2+y,-x,1/2-z
1/2+x,1/2+y,-z
-y,1/2+x,1/2-z
1/2-x,y,z
x,1/2-y,z
1/2-y,1/2-x,1/2+z
y,x,1/2+z
loop_
_atom_site_type_symbol
_atom_site_label
_atom_site_fract_x
_atom_site_fract_y
_atom_site_fract_z
Si Si1 0.447847 0.667689 0.468981
Si Si2 0.471988 0.946469 0.891783
Si Si3 0.168975 0.331733 0.815798
Si Si4 0.830526 0.169475 0.750000
Si Si5 0.603994 0.886231 0.434692
O O1 0.450264 0.750000 0.508491
O O2 0.430302 0.608887 0.576248
O O3 0.388931 0.660577 0.359236
O O4 0.524801 0.643986 0.418466
O O5 0.477183 0.977183 0.750000
O O6 0.531573 0.887532 0.901147
O O7 0.500000 0.000000 0.000000
O O8 0.250000 0.349513 0.838419
O O9 0.158034 0.250000 0.844448
O O10 0.150293 0.345327 0.668483
O O11 0.124925 0.376118 0.917688
O O12 0.750000 0.162615 0.700676
#
# Coordination Sequence:
#
# PCOD9570376 Si02
#       5
#    16  16  16   8  16
#     4  10  21  37  61  86 118 156 201 252 310 373
#     4  10  22  38  60  87 122 158 195 254 311 354
#     4  11  23  39  57  83 122 160 195 241 295 351
#     4   9  20  38  60  88 120 154 198 258 320 375
#     4  11  22  36  60  87 114 157 203 245 292 358
#
# _framework density 19.039334
#
# number of rings (size 3 to 8) (size 9 to 14) (size 15 to 20)
#    0.000    1.667    0.000    5.333    9.333    1.778 
#    0.000    3.333    0.000    0.000    0.000    0.000 
#    0.000    0.000    0.000    0.000    0.000    0.000 
#
# Total GULP energy -401373.632577 kJ/mol
# GULP energy per Si atom -5574.633786 kJ/mol
# Density = 1.899600 g / cm^3
# Si number density = 19.039334 Si / 1000 Ang^3
#
#
#
# Elastic Constant Matrix: (Units=GPa)
#
#
# Indices 1 2 3 4 5 6 
#
# 1 253.5681 -165.4141 13.4779 0.0000 0.0000 0.0000
# 2 -165.4141 253.5781 13.4726 0.0000 0.0000 0.0000
# 3 13.4779 13.4726 74.1434 0.0000 0.0000 0.0000
# 4 0.0000 0.0000 0.0000 24.9243 0.0000 0.0000
# 5 0.0000 0.0000 0.0000 0.0000 24.9247 0.0000
# 6 0.0000 0.0000 0.0000 0.0000 0.0000 19.3883
#
#
#
# Elastic Compliance Matrix: (Units=1/GPa)
#
#
# Indices 1 2 3 4 5 6 
#
# 1 0.007199 0.004812 -0.002183 0.000000 0.000000 0.000000
# 2 0.004812 0.007198 -0.002183 0.000000 0.000000 0.000000
# 3 -0.002183 -0.002183 0.014281 0.000000 0.000000 0.000000
# 4 0.000000 0.000000 0.000000 0.040122 0.000000 0.000000
# 5 0.000000 0.000000 0.000000 0.000000 0.040121 0.000000
# 6 0.000000 0.000000 0.000000 0.000000 0.000000 0.051577
#
#
# Mechanical properties :
#
#
# Convention : Reuss Voigt Hill
#
# Bulk Modulus (GPa) = 33.81767 33.81802 33.81785
# Shear Modulus (GPa) = 29.50510 61.83101 45.66805
#
# Velocity S-wave (km/s) = 3.94088 5.70490 4.90288
# Velocity P-wave (km/s) = 6.20548 7.82274 7.06057
#
# Compressibility (1/GPa) = 0.02957034
#
# Stress axis : x y z
#
# Youngs Moduli (GPa) = 138.91304 138.91958 70.02396
#
# Poissons Ratio (x) = -0.66846 0.15286
# Poissons Ratio (y) = -0.66843 0.15284
# Poissons Ratio (z) = 0.30324 0.30322
#
# Static dielectric constant tensor:
#      x y z
#    x 1.736840 0.000000 0.000000 
#    y 0.000000 1.736840 0.000000 
#    z 0.000000 0.000000 1.579690 
# 
# From -- ./inp_files/1962.got.cif
#   From: 2010.05.17/outbox.cif.g08.bks.cpg/sg137_1_cif.got.tgz:1962.got - 2010.05.20 13:01:12.
