data_PCOD9570098
_publ_section_title
;
Structure prediction by ZEFSAII (Michael W. Deem and Ramdas Pophale) SiO2 
 PCOD9570098
Probable space group: P 42/N M C
;
_chemical_formula_sum "Si O2"
_cell_formula_units_Z 112
_cell_length_a 15.055933
_cell_length_b 15.055933
_cell_length_c 24.217231
_cell_angle_alpha 90.000000
_cell_angle_beta 90.000000
_cell_angle_gamma 90.000000
_cell_volume 5489.589010
_symmetry_space_group_name_H-M "P 42/N M C"
_symmetry_group_IT_number 137
_space_group.IT_coordinate_system_code '2'
_symmetry_cell_setting 'tetragonal'
loop_
_space_group_symop_operation_xyz
x,y,z
1/2-y,x,1/2+z
1/2-x,1/2-y,z
y,1/2-x,1/2+z
1/2+x,-y,-z
-x,1/2+y,-z
1/2+y,1/2+x,1/2-z
-y,-x,1/2-z
-x,-y,-z
1/2+y,-x,1/2-z
1/2+x,1/2+y,-z
-y,1/2+x,1/2-z
1/2-x,y,z
x,1/2-y,z
1/2-y,1/2-x,1/2+z
y,x,1/2+z
loop_
_atom_site_type_symbol
_atom_site_label
_atom_site_fract_x
_atom_site_fract_y
_atom_site_fract_z
Si Si1 0.593833 0.530221 0.688501
Si Si2 0.147257 0.483488 0.513753
Si Si3 0.646619 0.417005 0.192984
Si Si4 0.353319 0.120521 0.911220
Si Si5 0.150209 0.590818 0.927786
Si Si6 0.353907 0.350038 0.605794
Si Si7 0.491023 0.651316 0.311338
O O1 0.501441 0.582159 0.698997
O O2 0.642734 0.594671 0.645399
O O3 0.567985 0.431268 0.667545
O O4 0.640389 0.510238 0.746438
O O5 0.250000 0.500761 0.525335
O O6 0.144728 0.422412 0.459605
O O7 0.103713 0.579156 0.523509
O O8 0.111169 0.420434 0.562115
O O9 0.636501 0.363500 0.250000
O O10 0.750000 0.444154 0.188167
O O11 0.624541 0.371171 0.133485
O O12 0.250000 0.151697 0.915090
O O13 0.347830 0.014007 0.915539
O O14 0.250000 0.621131 0.941896
O O15 0.250000 0.364980 0.617354
O O16 0.361525 0.250000 0.582319
O O17 0.414043 0.355249 0.659223
O O18 0.454029 0.750000 0.322510
#
# Coordination Sequence:
#
# PCOD9570098 Si02
#       7
#    16  16  16  16  16  16  16
#     4  10  20  38  56  82 113 148 191 242 304 356
#     4  11  22  35  55  81 114 154 191 241 302 351
#     4  10  19  33  55  84 119 157 195 240 295 358
#     4  10  21  38  60  84 113 152 200 250 300 362
#     4   9  20  37  55  79 110 152 202 246 290 351
#     4   9  18  31  48  76 111 143 180 224 279 351
#     4  10  20  35  57  82 110 146 189 236 294 361
#
# _framework density 20.402255
#
# number of rings (size 3 to 8) (size 9 to 14) (size 15 to 20)
#    0.000    2.143    1.429    3.857    0.000    3.571 
#    0.000    3.571    0.000    3.429    0.000    0.000 
#    0.000    0.000    0.000    0.000    0.000    0.000 
#
# Total GULP energy -623890.192275 kJ/mol
# GULP energy per Si atom -5570.448145 kJ/mol
# Density = 2.035582 g / cm^3
# Si number density = 20.402255 Si / 1000 Ang^3
#
#
#
# Elastic Constant Matrix: (Units=GPa)
#
#
# Indices 1 2 3 4 5 6 
#
# 1 80.3957 28.1264 25.4104 0.0000 0.0000 0.0000
# 2 28.1264 80.3958 25.4107 0.0000 0.0000 0.0000
# 3 25.4104 25.4107 57.8763 0.0000 0.0000 0.0000
# 4 0.0000 0.0000 0.0000 17.5719 0.0000 0.0000
# 5 0.0000 0.0000 0.0000 0.0000 17.5719 0.0000
# 6 0.0000 0.0000 0.0000 0.0000 0.0000 4.5168
#
#
#
# Elastic Compliance Matrix: (Units=1/GPa)
#
#
# Indices 1 2 3 4 5 6 
#
# 1 0.015366 -0.003766 -0.005093 0.000000 0.000000 0.000000
# 2 -0.003766 0.015366 -0.005093 0.000000 0.000000 0.000000
# 3 -0.005093 -0.005093 0.021750 0.000000 0.000000 0.000000
# 4 0.000000 0.000000 0.000000 0.056909 0.000000 0.000000
# 5 0.000000 0.000000 0.000000 0.000000 0.056909 0.000000
# 6 0.000000 0.000000 0.000000 0.000000 0.000000 0.221396
#
#
# Mechanical properties :
#
#
# Convention : Reuss Voigt Hill
#
# Bulk Modulus (GPa) = 40.68634 41.84032 41.26333
# Shear Modulus (GPa) = 11.79824 17.24679 14.52252
#
# Velocity S-wave (km/s) = 2.40736 2.91062 2.67087
# Velocity P-wave (km/s) = 5.26427 5.64339 5.45712
#
# Compressibility (1/GPa) = 0.02457828
#
# Stress axis : x y z
#
# Youngs Moduli (GPa) = 65.08013 65.07999 45.97648
#
# Poissons Ratio (x) = 0.24509 0.23415
# Poissons Ratio (y) = 0.24509 0.23415
# Poissons Ratio (z) = 0.33144 0.33145
#
# Static dielectric constant tensor:
#      x y z
#    x 1.748420 0.000000 0.000000 
#    y 0.000000 1.748420 0.000000 
#    z 0.000000 0.000000 1.765590 
# 
# From -- ./inp_files/9788.got.cif
#   From: 2010.05.17/outbox.cif.g08.bks.cpg/sg137_5_cif.got.tgz:9788.got - 2010.05.20 13:01:12.
