data_PCOD9570431
_publ_section_title
;
Structure prediction by ZEFSAII (Michael W. Deem and Ramdas Pophale) SiO2 
 PCOD9570431
Probable space group: P 42/N M C
;
_chemical_formula_sum "Si O2"
_cell_formula_units_Z 112
_cell_length_a 14.394009
_cell_length_b 14.394009
_cell_length_c 26.263147
_cell_angle_alpha 90.000000
_cell_angle_beta 90.000000
_cell_angle_gamma 90.000000
_cell_volume 5441.395640
_symmetry_space_group_name_H-M "P 42/N M C"
_symmetry_group_IT_number 137
_space_group.IT_coordinate_system_code '2'
_symmetry_cell_setting 'tetragonal'
loop_
_space_group_symop_operation_xyz
x,y,z
1/2-y,x,1/2+z
1/2-x,1/2-y,z
y,1/2-x,1/2+z
1/2+x,-y,-z
-x,1/2+y,-z
1/2+y,1/2+x,1/2-z
-y,-x,1/2-z
-x,-y,-z
1/2+y,-x,1/2-z
1/2+x,1/2+y,-z
-y,1/2+x,1/2-z
1/2-x,y,z
x,1/2-y,z
1/2-y,1/2-x,1/2+z
y,x,1/2+z
loop_
_atom_site_type_symbol
_atom_site_label
_atom_site_fract_x
_atom_site_fract_y
_atom_site_fract_z
Si Si1 0.347927 0.589670 0.301984
Si Si2 0.145191 0.382734 0.257938
Si Si3 0.964476 0.861658 0.462217
Si Si4 0.531651 0.140692 0.996352
Si Si5 0.542624 0.860673 0.346949
Si Si6 0.859063 0.142764 0.102377
Si Si7 0.951320 0.146769 0.296296
O O1 0.351861 0.648140 0.250000
O O2 0.250000 0.607080 0.329295
O O3 0.349149 0.487088 0.278709
O O4 0.440302 0.600966 0.334731
O O5 0.250000 0.345884 0.261472
O O6 0.113919 0.387617 0.198726
O O7 0.061307 0.343779 0.290454
O O8 0.963704 0.750000 0.472727
O O9 0.928140 0.877415 0.404624
O O10 0.068875 0.904555 0.464440
O O11 0.902285 0.927590 0.498780
O O12 0.531621 0.250000 0.981448
O O13 0.579313 0.134119 0.052211
O O14 0.532388 0.750000 0.341340
O O15 0.750000 0.122308 0.090487
O O16 0.863789 0.250000 0.119587
O O17 0.890922 0.078105 0.148712
O O18 0.914889 0.085112 0.250000
O O19 0.908793 0.250000 0.292323
#
# Coordination Sequence:
#
# PCOD9570431 Si02
#       7
#    16  16  16  16  16  16  16
#     4   9  16  26  43  68 101 143 187 228 271 325
#     4   9  19  34  51  75 109 153 194 228 277 343
#     4  10  22  39  61  90 121 151 192 247 298 355
#     4  10  22  40  64  90 119 157 199 243 302 369
#     4   9  18  32  50  76 111 146 184 233 285 338
#     4   9  19  36  58  85 116 150 194 247 300 354
#     4  11  22  34  54  81 111 150 196 249 296 339
#
# _framework density 20.582953
#
# number of rings (size 3 to 8) (size 9 to 14) (size 15 to 20)
#    0.000    2.429    0.000    3.429    4.000    3.714 
#    0.000    1.429    0.000    2.571    0.000    2.000 
#    0.000    0.000    0.000    0.000    0.000    0.000 
#
# Total GULP energy -624280.151097 kJ/mol
# GULP energy per Si atom -5573.929921 kJ/mol
# Density = 2.053611 g / cm^3
# Si number density = 20.582953 Si / 1000 Ang^3
#
#
#
# Elastic Constant Matrix: (Units=GPa)
#
#
# Indices 1 2 3 4 5 6 
#
# 1 76.3968 9.6885 7.2561 0.0000 0.0000 0.0000
# 2 9.6885 76.3955 7.2564 0.0000 0.0000 0.0000
# 3 7.2561 7.2564 45.2173 0.0000 0.0000 0.0000
# 4 0.0000 0.0000 0.0000 17.7340 0.0000 0.0000
# 5 0.0000 0.0000 0.0000 0.0000 17.7346 0.0000
# 6 0.0000 0.0000 0.0000 0.0000 0.0000 -1.1350
#
#
#
# Elastic Compliance Matrix: (Units=1/GPa)
#
#
# Indices 1 2 3 4 5 6 
#
# 1 0.013465 -0.001526 -0.001916 0.000000 0.000000 0.000000
# 2 -0.001526 0.013465 -0.001916 0.000000 0.000000 0.000000
# 3 -0.001916 -0.001916 0.022730 0.000000 0.000000 0.000000
# 4 0.000000 0.000000 0.000000 0.056389 0.000000 0.000000
# 5 0.000000 0.000000 0.000000 0.000000 0.056387 0.000000
# 6 0.000000 0.000000 0.000000 0.000000 0.000000 -0.881046
#
#
# Mechanical properties :
#
#
# Convention : Reuss Voigt Hill
#
# Bulk Modulus (GPa) = 25.67701 27.37908 26.52804
# Shear Modulus (GPa) = -7.19515 18.45395 5.62940
#
# Velocity S-wave (km/s) = -1.87170 2.99752 1.65557
# Velocity P-wave (km/s) = 2.79838 5.03099 4.07074
#
# Compressibility (1/GPa) = 0.03894535
#
# Stress axis : x y z
#
# Youngs Moduli (GPa) = 74.26657 74.26515 43.99399
#
# Poissons Ratio (x) = 0.11330 0.08429
# Poissons Ratio (y) = 0.11331 0.08430
# Poissons Ratio (z) = 0.14229 0.14230
#
# Static dielectric constant tensor:
#      x y z
#    x 2.015180 0.000000 0.000000 
#    y 0.000000 2.015220 0.000000 
#    z 0.000000 0.000000 1.735830 
# 
# From -- ./inp_files/8987.got.cif
#   From: 2010.05.17/outbox.cif.g08.bks.cpg/sg137_5_cif.got.tgz:8987.got - 2010.05.20 13:01:12.
