data_PCOD9570106
_publ_section_title
;
Structure prediction by ZEFSAII (Michael W. Deem and Ramdas Pophale) SiO2 
 PCOD9570106
Probable space group: P 42/N M C
;
_chemical_formula_sum "Si O2"
_cell_formula_units_Z 80
_cell_length_a 15.071341
_cell_length_b 15.071341
_cell_length_c 18.868480
_cell_angle_alpha 90.000000
_cell_angle_beta 90.000000
_cell_angle_gamma 90.000000
_cell_volume 4285.886919
_symmetry_space_group_name_H-M "P 42/N M C"
_symmetry_group_IT_number 137
_space_group.IT_coordinate_system_code '2'
_symmetry_cell_setting 'tetragonal'
loop_
_space_group_symop_operation_xyz
x,y,z
1/2-y,x,1/2+z
1/2-x,1/2-y,z
y,1/2-x,1/2+z
1/2+x,-y,-z
-x,1/2+y,-z
1/2+y,1/2+x,1/2-z
-y,-x,1/2-z
-x,-y,-z
1/2+y,-x,1/2-z
1/2+x,1/2+y,-z
-y,1/2+x,1/2-z
1/2-x,y,z
x,1/2-y,z
1/2-y,1/2-x,1/2+z
y,x,1/2+z
loop_
_atom_site_type_symbol
_atom_site_label
_atom_site_fract_x
_atom_site_fract_y
_atom_site_fract_z
Si Si1 0.346228 0.874309 0.014607
Si Si2 0.538801 0.846642 0.071357
Si Si3 0.998296 0.989021 0.830130
Si Si4 0.348204 0.850843 0.848248
Si Si5 0.575000 0.646973 0.442160
O O1 0.250000 0.847305 0.044286
O O2 0.434349 0.843125 0.052799
O O3 0.348405 0.980450 0.018491
O O4 0.351204 0.847320 0.933406
O O5 0.566105 0.750000 0.100161
O O6 0.541495 0.930167 0.124543
O O7 0.593574 0.864586 0.998593
O O8 0.071664 0.912304 0.825964
O O9 0.978978 0.021023 0.750000
O O10 0.913931 0.947772 0.873203
O O11 0.250000 0.886081 0.830605
O O12 0.355695 0.750000 0.822470
O O13 0.602728 0.750000 0.427976
#
# Coordination Sequence:
#
# PCOD9570106 Si02
#       5
#    16  16  16  16  16
#     4   9  16  31  57  85 111 136 174 237 297 334
#     4  11  21  36  59  86 115 152 201 244 282 334
#     4  11  23  39  57  84 122 156 189 235 293 358
#     4  10  19  33  57  86 112 138 174 230 299 353
#     4  10  20  37  59  82 112 152 198 242 283 330
#
# _framework density 18.665914999999998
#
# number of rings (size 3 to 8) (size 9 to 14) (size 15 to 20)
#    0.000    1.800    4.000    1.800    0.000    3.200 
#    0.000    1.000    0.000    0.000    0.000    8.400 
#    0.000    0.000    0.000    0.000    0.000    0.000 
#
# Total GULP energy -445601.056786 kJ/mol
# GULP energy per Si atom -5570.013210 kJ/mol
# Density = 1.862343 g / cm^3
# Si number density = 18.665915 Si / 1000 Ang^3
#
#
#
# Elastic Constant Matrix: (Units=GPa)
#
#
# Indices 1 2 3 4 5 6 
#
# 1 95.1070 46.7561 24.7216 0.0000 0.0000 0.0000
# 2 46.7561 95.1069 24.7215 0.0000 0.0000 0.0000
# 3 24.7216 24.7215 99.1007 0.0000 0.0000 0.0000
# 4 0.0000 0.0000 0.0000 -19.0000 0.0000 0.0000
# 5 0.0000 0.0000 0.0000 0.0000 -19.0001 0.0000
# 6 0.0000 0.0000 0.0000 0.0000 0.0000 11.4904
#
#
#
# Elastic Compliance Matrix: (Units=1/GPa)
#
#
# Indices 1 2 3 4 5 6 
#
# 1 0.014201 -0.006481 -0.001926 0.000000 0.000000 0.000000
# 2 -0.006481 0.014201 -0.001926 0.000000 0.000000 0.000000
# 3 -0.001926 -0.001926 0.011052 0.000000 0.000000 0.000000
# 4 0.000000 0.000000 0.000000 -0.052632 0.000000 0.000000
# 5 0.000000 0.000000 0.000000 0.000000 -0.052631 0.000000
# 6 0.000000 0.000000 0.000000 0.000000 0.000000 0.087029
#
#
# Mechanical properties :
#
#
# Convention : Reuss Voigt Hill
#
# Bulk Modulus (GPa) = 53.22376 53.52365 53.37371
# Shear Modulus (GPa) = 103.84557 7.57242 55.70900
#
# Velocity S-wave (km/s) = 7.46690 2.01634 5.46901
# Velocity P-wave (km/s) = 10.14471 5.84445 8.27867
#
# Compressibility (1/GPa) = 0.01878860
#
# Stress axis : x y z
#
# Youngs Moduli (GPa) = 70.41655 70.41649 90.48453
#
# Poissons Ratio (x) = 0.45636 0.17426
# Poissons Ratio (y) = 0.45637 0.17426
# Poissons Ratio (z) = 0.13562 0.13561
#
# Static dielectric constant tensor:
#      x y z
#    x 1.672920 0.000000 0.000000 
#    y 0.000000 1.672920 0.000000 
#    z 0.000000 0.000000 1.651860 
# 
# From -- ./inp_files/7595.got.cif
#   From: 2010.05.17/outbox.cif.g08.bks.cpg/sg137_4_cif.got.tgz:7595.got - 2010.05.20 13:01:12.
