data_PCOD9570584
_publ_section_title
;
Structure prediction by ZEFSAII (Michael W. Deem and Ramdas Pophale) SiO2 
 PCOD9570584
Probable space group: P 42/N C M
;
_chemical_formula_sum "Si O2"
_cell_formula_units_Z 80
_cell_length_a 30.600230
_cell_length_b 30.600230
_cell_length_c 5.365546
_cell_angle_alpha 90.000000
_cell_angle_beta 90.000000
_cell_angle_gamma 90.000000
_cell_volume 5024.158178
_symmetry_space_group_name_H-M "P 42/N C M"
_symmetry_group_IT_number 138
_space_group.IT_coordinate_system_code '2'
_symmetry_cell_setting 'tetragonal'
loop_
_space_group_symop_operation_xyz
x,y,z
1/2-y,x,1/2+z
1/2-x,1/2-y,z
y,1/2-x,1/2+z
1/2+x,-y,1/2-z
-x,1/2+y,1/2-z
1/2+y,1/2+x,-z
-y,-x,-z
-x,-y,-z
1/2+y,-x,1/2-z
1/2+x,1/2+y,-z
-y,1/2+x,1/2-z
1/2-x,y,1/2+z
x,1/2-y,1/2+z
1/2-y,1/2-x,z
y,x,z
loop_
_atom_site_type_symbol
_atom_site_label
_atom_site_fract_x
_atom_site_fract_y
_atom_site_fract_z
Si Si1 0.802273 0.438471 0.348076
Si Si2 0.844596 0.468469 0.847586
Si Si3 0.737727 0.975742 0.847890
Si Si4 0.225850 0.659842 0.599047
Si Si5 0.944944 0.485440 0.748716
O O1 0.829884 0.442914 0.600279
O O2 0.767781 0.479192 0.340141
O O3 0.778041 0.392454 0.371318
O O4 0.832632 0.442365 0.101701
O O5 0.812091 0.509710 0.858483
O O6 0.893789 0.483107 0.804280
O O7 0.748276 0.951764 0.595059
O O8 0.180738 0.680738 0.500000
O O9 0.241268 0.673464 0.875470
O O10 0.958271 0.458271 0.500000
O O11 0.966916 0.533085 0.711612
O O12 0.965998 0.465998 0.000000
#
# Coordination Sequence:
#
# PCOD9570584 Si02
#       5
#    16  16  16  16  16
#     4  10  19  33  51  71  90 105 131 180 232 266
#     4  10  18  30  49  68  86 111 138 165 213 270
#     4   8  14  25  42  62  84 102 121 159 211 255
#     4  12  25  40  54  67  86 112 141 177 222 277
#     4  10  21  35  47  63  91 122 150 182 214 249
#
# _framework density 15.923067
#
# number of rings (size 3 to 8) (size 9 to 14) (size 15 to 20)
#    0.000    2.000    0.000    6.600    0.000    3.600 
#    0.000    0.000    0.000    0.000    0.000    0.000 
#    0.000    0.000    0.000    0.000    0.000    0.000 
#
# Total GULP energy -445588.340904 kJ/mol
# GULP energy per Si atom -5569.854261 kJ/mol
# Density = 1.588683 g / cm^3
# Si number density = 15.923067 Si / 1000 Ang^3
#
#
#
# Elastic Constant Matrix: (Units=GPa)
#
#
# Indices 1 2 3 4 5 6 
#
# 1 35.2109 32.9930 23.3747 0.0000 0.0000 0.0000
# 2 32.9930 35.2109 23.3747 0.0000 0.0000 0.0000
# 3 23.3747 23.3747 161.6904 0.0000 0.0000 0.0000
# 4 0.0000 0.0000 0.0000 18.7061 0.0000 0.0000
# 5 0.0000 0.0000 0.0000 0.0000 18.7061 0.0000
# 6 0.0000 0.0000 0.0000 0.0000 0.0000 15.3709
#
#
#
# Elastic Compliance Matrix: (Units=1/GPa)
#
#
# Indices 1 2 3 4 5 6 
#
# 1 0.233579 -0.217304 -0.002353 0.000000 0.000000 0.000000
# 2 -0.217304 0.233579 -0.002353 0.000000 0.000000 0.000000
# 3 -0.002353 -0.002353 0.006865 0.000000 0.000000 0.000000
# 4 0.000000 0.000000 0.000000 0.053458 0.000000 0.000000
# 5 0.000000 0.000000 0.000000 0.000000 0.053458 0.000000
# 6 0.000000 0.000000 0.000000 0.000000 0.000000 0.065058
#
#
# Mechanical properties :
#
#
# Convention : Reuss Voigt Hill
#
# Bulk Modulus (GPa) = 33.32987 43.51080 38.42034
# Shear Modulus (GPa) = 4.54538 20.71461 12.63000
#
# Velocity S-wave (km/s) = 1.69139 3.61074 2.81942
# Velocity P-wave (km/s) = 4.97912 6.69090 5.89745
#
# Compressibility (1/GPa) = 0.03000312
#
# Stress axis : x y z
#
# Youngs Moduli (GPa) = 4.28121 4.28121 145.66852
#
# Poissons Ratio (x) = 0.93033 0.34272
# Poissons Ratio (y) = 0.93033 0.34272
# Poissons Ratio (z) = 0.01007 0.01007
#
# Static dielectric constant tensor:
#      x y z
#    x 1.528230 0.000000 0.000000 
#    y 0.000000 1.528230 0.000000 
#    z 0.000000 0.000000 1.620920 
# 
# From -- ./inp_files/456.got.cif
#   From: 2010.05.17/outbox.cif.g08.bks.cpg/sg138_1_cif.got.tgz:456.got - 2010.05.20 13:08:53.
