data_PCOD9570694
_publ_section_title
;
Structure prediction by ZEFSAII (Michael W. Deem and Ramdas Pophale) SiO2 
 PCOD9570694
Probable space group: P 42/N C M
;
_chemical_formula_sum "Si O2"
_cell_formula_units_Z 60
_cell_length_a 10.510175
_cell_length_b 10.510175
_cell_length_c 24.751494
_cell_angle_alpha 90.000000
_cell_angle_beta 90.000000
_cell_angle_gamma 90.000000
_cell_volume 2734.143552
_symmetry_space_group_name_H-M "P 42/N C M"
_symmetry_group_IT_number 138
_space_group.IT_coordinate_system_code '2'
_symmetry_cell_setting 'tetragonal'
loop_
_space_group_symop_operation_xyz
x,y,z
1/2-y,x,1/2+z
1/2-x,1/2-y,z
y,1/2-x,1/2+z
1/2+x,-y,1/2-z
-x,1/2+y,1/2-z
1/2+y,1/2+x,-z
-y,-x,-z
-x,-y,-z
1/2+y,-x,1/2-z
1/2+x,1/2+y,-z
-y,1/2+x,1/2-z
1/2-x,y,1/2+z
x,1/2-y,1/2+z
1/2-y,1/2-x,z
y,x,z
loop_
_atom_site_type_symbol
_atom_site_label
_atom_site_fract_x
_atom_site_fract_y
_atom_site_fract_z
Si Si1 0.350716 0.149285 0.285715
Si Si2 0.429811 0.429811 0.112588
Si Si3 0.645328 0.645328 0.003512
Si Si4 0.382341 0.792465 0.659627
Si Si5 0.449719 0.661621 0.551999
Si Si6 0.250000 0.250000 0.679798
O O1 0.250000 0.250000 0.310789
O O2 0.490685 0.195754 0.303667
O O3 0.333752 0.166248 0.221553
O O4 0.416787 0.416787 0.048656
O O5 0.568929 0.387355 0.131917
O O6 0.335392 0.335392 0.142451
O O7 0.750000 0.750000 0.985257
O O8 0.721980 0.543155 0.037986
O O9 0.250000 0.750000 0.686904
O O10 0.392798 0.692813 0.609998
O O11 0.359472 0.640529 0.500000
O O12 0.534710 0.534710 0.556421
#
# Coordination Sequence:
#
# PCOD9570694 Si02
#       6
#     8   8   8  16  16   4
#     4   9  22  48  72  92 127 180 226 285 352 415
#     4  11  23  42  65  92 136 170 222 287 353 395
#     4  10  19  34  58  87 124 182 218 254 305 403
#     4  11  23  41  66 105 134 170 225 283 335 413
#     4  10  21  36  60  95 142 185 220 256 328 411
#     4  10  24  52  68  88 120 176 228 290 356 420
#
# _framework density 21.944716
#
# number of rings (size 3 to 8) (size 9 to 14) (size 15 to 20)
#    0.400    1.333    0.667    4.000    0.000    5.867 
#   14.400    0.000    0.000    0.000    0.000    0.000 
#    0.000    0.000    0.000    0.000    0.000    0.000 
#
# Total GULP energy -335222.475559 kJ/mol
# GULP energy per Si atom -5587.041259 kJ/mol
# Density = 2.189477 g / cm^3
# Si number density = 21.944716 Si / 1000 Ang^3
#
#
#
# Elastic Constant Matrix: (Units=GPa)
#
#
# Indices 1 2 3 4 5 6 
#
# 1 88.6262 46.7705 15.0171 0.0000 0.0000 0.0000
# 2 46.7705 88.6215 15.0161 0.0000 0.0000 0.0000
# 3 15.0171 15.0161 78.3542 0.0000 0.0000 0.0000
# 4 0.0000 0.0000 0.0000 7.3310 0.0000 0.0000
# 5 0.0000 0.0000 0.0000 0.0000 7.2885 0.0000
# 6 0.0000 0.0000 0.0000 0.0000 0.0000 41.0492
#
#
#
# Elastic Compliance Matrix: (Units=1/GPa)
#
#
# Indices 1 2 3 4 5 6 
#
# 1 0.015803 -0.008090 -0.001478 0.000000 0.000000 0.000000
# 2 -0.008090 0.015804 -0.001478 0.000000 0.000000 0.000000
# 3 -0.001478 -0.001478 0.013329 0.000000 0.000000 0.000000
# 4 0.000000 0.000000 0.000000 0.136408 0.000000 0.000000
# 5 0.000000 0.000000 0.000000 0.000000 0.137203 0.000000
# 6 0.000000 0.000000 0.000000 0.000000 0.000000 0.024361
#
#
# Mechanical properties :
#
#
# Convention : Reuss Voigt Hill
#
# Bulk Modulus (GPa) = 43.77643 45.46771 44.62207
# Shear Modulus (GPa) = 13.41868 23.05361 18.23614
#
# Velocity S-wave (km/s) = 2.47549 3.24471 2.88584
# Velocity P-wave (km/s) = 5.30684 5.89929 5.61089
#
# Compressibility (1/GPa) = 0.02284334
#
# Stress axis : x y z
#
# Youngs Moduli (GPa) = 63.27937 63.27612 75.02324
#
# Poissons Ratio (x) = 0.51188 0.11092
# Poissons Ratio (y) = 0.51190 0.11090
# Poissons Ratio (z) = 0.09355 0.09354
#
# Static dielectric constant tensor:
#      x y z
#    x 1.818390 0.000000 0.000000 
#    y 0.000000 1.818390 0.000000 
#    z 0.000000 0.000000 1.768090 
# 
# From -- ./inp_files/6810.got.cif
#   From: 2010.05.17/outbox.cif.g08.bks.cpg/sg138_4_cif.got.tgz:6810.got - 2010.05.20 13:08:53.
