data_PCOD9570274
_publ_section_title
;
Structure prediction by ZEFSAII (Michael W. Deem and Ramdas Pophale) SiO2 
 PCOD9570274
Probable space group: P 42/N M C
;
_chemical_formula_sum "Si O2"
_cell_formula_units_Z 80
_cell_length_a 11.716749
_cell_length_b 11.716749
_cell_length_c 31.610368
_cell_angle_alpha 90.000000
_cell_angle_beta 90.000000
_cell_angle_gamma 90.000000
_cell_volume 4339.541087
_symmetry_space_group_name_H-M "P 42/N M C"
_symmetry_group_IT_number 137
_space_group.IT_coordinate_system_code '2'
_symmetry_cell_setting 'tetragonal'
loop_
_space_group_symop_operation_xyz
x,y,z
1/2-y,x,1/2+z
1/2-x,1/2-y,z
y,1/2-x,1/2+z
1/2+x,-y,-z
-x,1/2+y,-z
1/2+y,1/2+x,1/2-z
-y,-x,1/2-z
-x,-y,-z
1/2+y,-x,1/2-z
1/2+x,1/2+y,-z
-y,1/2+x,1/2-z
1/2-x,y,z
x,1/2-y,z
1/2-y,1/2-x,1/2+z
y,x,1/2+z
loop_
_atom_site_type_symbol
_atom_site_label
_atom_site_fract_x
_atom_site_fract_y
_atom_site_fract_z
Si Si1 0.117200 0.750000 0.583354
Si Si2 0.480190 0.615122 0.971923
Si Si3 0.383713 0.122280 0.611050
Si Si4 0.448989 0.499195 0.692458
Si Si5 0.383080 0.250000 0.246249
Si Si6 0.250000 0.529368 0.823714
Si Si7 0.615694 0.115694 0.750000
O O1 0.250000 0.750000 0.598644
O O2 0.102682 0.861244 0.553910
O O3 0.038018 0.750000 0.625254
O O4 0.481076 0.750000 0.988909
O O5 0.578284 0.610065 0.936446
O O6 0.500000 0.500000 0.000000
O O7 0.250000 0.121535 0.622936
O O8 0.428124 0.250000 0.615223
O O9 0.443374 0.041013 0.644320
O O10 0.358482 0.435139 0.721981
O O11 0.417670 0.631897 0.692088
O O12 0.570486 0.460623 0.711104
O O13 0.250000 0.250000 0.239719
O O14 0.412603 0.250000 0.296196
O O15 0.597239 0.250000 0.742018
#
# Coordination Sequence:
#
# PCOD9570274 Si02
#       7
#     8  16  16  16   8   8   8
#     4  10  22  42  66  90 135 173 205 269 336 388
#     4  10  22  41  65  93 125 164 207 259 322 393
#     4  10  20  36  61  89 117 156 207 259 307 374
#     4  12  23  38  60  90 121 162 211 262 317 376
#     4  12  24  41  61  86 128 172 215 269 314 374
#     4  12  24  38  60  95 128 166 213 264 328 384
#     4  11  24  42  62  83 118 168 218 265 308 368
#
# _framework density 18.435129
#
# number of rings (size 3 to 8) (size 9 to 14) (size 15 to 20)
#    0.000    1.100    5.000    1.800    2.800    0.000 
#    1.800    2.000    0.000    1.200    0.000    0.000 
#    0.000    0.000    0.000    0.000    0.000    0.000 
#
# Total GULP energy -445658.444769 kJ/mol
# GULP energy per Si atom -5570.730560 kJ/mol
# Density = 1.839317 g / cm^3
# Si number density = 18.435129 Si / 1000 Ang^3
#
#
#
# Elastic Constant Matrix: (Units=GPa)
#
#
# Indices 1 2 3 4 5 6 
#
# 1 118.6225 32.5398 38.7558 0.0000 0.0000 0.0000
# 2 32.5398 118.6225 38.7558 0.0000 0.0000 0.0000
# 3 38.7558 38.7558 77.8442 0.0000 0.0000 0.0000
# 4 0.0000 0.0000 0.0000 24.7249 0.0000 0.0000
# 5 0.0000 0.0000 0.0000 0.0000 24.7249 0.0000
# 6 0.0000 0.0000 0.0000 0.0000 0.0000 20.9076
#
#
#
# Elastic Compliance Matrix: (Units=1/GPa)
#
#
# Indices 1 2 3 4 5 6 
#
# 1 0.010250 -0.001367 -0.004423 0.000000 0.000000 0.000000
# 2 -0.001367 0.010250 -0.004423 0.000000 0.000000 0.000000
# 3 -0.004423 -0.004423 0.017250 0.000000 0.000000 0.000000
# 4 0.000000 0.000000 0.000000 0.040445 0.000000 0.000000
# 5 0.000000 0.000000 0.000000 0.000000 0.040445 0.000000
# 6 0.000000 0.000000 0.000000 0.000000 0.000000 0.047829
#
#
# Mechanical properties :
#
#
# Convention : Reuss Voigt Hill
#
# Bulk Modulus (GPa) = 57.71740 59.46579 58.59160
# Shear Modulus (GPa) = 25.95131 27.74069 26.84600
#
# Velocity S-wave (km/s) = 3.75602 3.88335 3.82021
# Velocity P-wave (km/s) = 7.08425 7.24113 7.16312
#
# Compressibility (1/GPa) = 0.01732580
#
# Stress axis : x y z
#
# Youngs Moduli (GPa) = 97.56129 97.56129 57.97137
#
# Poissons Ratio (x) = 0.13334 0.25639
# Poissons Ratio (y) = 0.13334 0.25639
# Poissons Ratio (z) = 0.43148 0.43148
#
# Static dielectric constant tensor:
#      x y z
#    x 1.671530 0.000000 0.000000 
#    y 0.000000 1.671530 0.000000 
#    z 0.000000 0.000000 1.632920 
# 
# From -- ./inp_files/10392.got.cif
#   From: 2010.05.17/outbox.cif.g08.bks.cpg/sg137_6_cif.got.tgz:10392.got - 2010.05.20 13:01:12.
