data_PCOD9570214
_publ_section_title
;
Structure prediction by ZEFSAII (Michael W. Deem and Ramdas Pophale) SiO2 
 PCOD9570214
Probable space group: P 42/N M C
;
_chemical_formula_sum "Si O2"
_cell_formula_units_Z 64
_cell_length_a 13.883276
_cell_length_b 13.883276
_cell_length_c 12.821487
_cell_angle_alpha 90.000000
_cell_angle_beta 90.000000
_cell_angle_gamma 90.000000
_cell_volume 2471.282031
_symmetry_space_group_name_H-M "P 42/N M C"
_symmetry_group_IT_number 137
_space_group.IT_coordinate_system_code '2'
_symmetry_cell_setting 'tetragonal'
loop_
_space_group_symop_operation_xyz
x,y,z
1/2-y,x,1/2+z
1/2-x,1/2-y,z
y,1/2-x,1/2+z
1/2+x,-y,-z
-x,1/2+y,-z
1/2+y,1/2+x,1/2-z
-y,-x,1/2-z
-x,-y,-z
1/2+y,-x,1/2-z
1/2+x,1/2+y,-z
-y,1/2+x,1/2-z
1/2-x,y,z
x,1/2-y,z
1/2-y,1/2-x,1/2+z
y,x,1/2+z
loop_
_atom_site_type_symbol
_atom_site_label
_atom_site_fract_x
_atom_site_fract_y
_atom_site_fract_z
Si Si1 0.357851 0.060546 0.647588
Si Si2 0.149587 0.638235 0.915985
Si Si3 0.857544 0.635039 0.118574
Si Si4 0.425166 0.567037 0.124660
O O1 0.250000 0.073372 0.599574
O O2 0.348889 0.096561 0.764146
O O3 0.456194 0.107853 0.607187
O O4 0.388392 0.948831 0.640020
O O5 0.250000 0.591405 0.881308
O O6 0.156303 0.750000 0.892649
O O7 0.135709 0.625446 0.039881
O O8 0.750000 0.618397 0.069105
O O9 0.869284 0.750000 0.121441
O O10 0.963745 0.591860 0.090524
O O11 0.414512 0.585489 0.250000
#
# Coordination Sequence:
#
# PCOD9570214 Si02
#       4
#    16  16  16  16
#     4   9  19  36  55  76 105 142 182 222 268 322
#     4  10  21  36  54  78 109 144 182 224 270 324
#     4   9  18  34  55  78 106 140 179 226 277 327
#     4  10  20  34  54  80 108 140 177 220 271 327
#
# _framework density 25.897487999999999
#
# number of rings (size 3 to 8) (size 9 to 14) (size 15 to 20)
#    0.000    2.500    0.000    1.500    0.000    6.000 
#    0.000    6.250    0.000    6.000    0.000    0.000 
#    0.000    0.000    0.000    0.000    0.000    0.000 
#
# Total GULP energy -356850.620715 kJ/mol
# GULP energy per Si atom -5575.790949 kJ/mol
# Density = 2.583854 g / cm^3
# Si number density = 25.897488 Si / 1000 Ang^3
#
#
#
# Elastic Constant Matrix: (Units=GPa)
#
#
# Indices 1 2 3 4 5 6 
#
# 1 134.8373 13.7436 6.9113 0.0000 0.0000 0.0000
# 2 13.7436 134.8369 6.9113 0.0000 0.0000 0.0000
# 3 6.9113 6.9113 120.9075 0.0000 0.0000 0.0000
# 4 0.0000 0.0000 0.0000 -33.3706 0.0000 0.0000
# 5 0.0000 0.0000 0.0000 0.0000 -33.3892 0.0000
# 6 0.0000 0.0000 0.0000 0.0000 0.0000 21.8320
#
#
#
# Elastic Compliance Matrix: (Units=1/GPa)
#
#
# Indices 1 2 3 4 5 6 
#
# 1 0.007512 -0.000746 -0.000387 0.000000 0.000000 0.000000
# 2 -0.000746 0.007512 -0.000387 0.000000 0.000000 0.000000
# 3 -0.000387 -0.000387 0.008315 0.000000 0.000000 0.000000
# 4 0.000000 0.000000 0.000000 -0.029966 0.000000 0.000000
# 5 0.000000 0.000000 0.000000 0.000000 -0.029950 0.000000
# 6 0.000000 0.000000 0.000000 0.000000 0.000000 0.045804
#
#
# Mechanical properties :
#
#
# Convention : Reuss Voigt Hill
#
# Bulk Modulus (GPa) = 49.25973 49.52380 49.39177
# Shear Modulus (GPa) = 262.69857 15.21546 138.95701
#
# Velocity S-wave (km/s) = 10.08256 2.42652 7.33301
# Velocity P-wave (km/s) = 12.43408 5.19762 9.52947
#
# Compressibility (1/GPa) = 0.02030056
#
# Stress axis : x y z
#
# Youngs Moduli (GPa) = 133.11682 133.11650 120.26453
#
# Poissons Ratio (x) = 0.09929 0.04652
# Poissons Ratio (y) = 0.09929 0.04652
# Poissons Ratio (z) = 0.05149 0.05149
#
# Static dielectric constant tensor:
#      x y z
#    x 1.915810 0.000000 0.000000 
#    y 0.000000 1.915810 0.000000 
#    z 0.000000 0.000000 2.007580 
# 
# From -- ./inp_files/4718.got.cif
#   From: 2010.05.17/outbox.cif.g08.bks.cpg/sg137_3_cif.got.tgz:4718.got - 2010.05.20 13:01:12.
