data_PCOD9570572
_publ_section_title
;
Structure prediction by ZEFSAII (Michael W. Deem and Ramdas Pophale) SiO2 
 PCOD9570572
Probable space group: P 42/N C M
;
_chemical_formula_sum "Si O2"
_cell_formula_units_Z 96
_cell_length_a 23.012093
_cell_length_b 23.012093
_cell_length_c 9.831233
_cell_angle_alpha 90.000000
_cell_angle_beta 90.000000
_cell_angle_gamma 90.000000
_cell_volume 5206.192593
_symmetry_space_group_name_H-M "P 42/N C M"
_symmetry_group_IT_number 138
_space_group.IT_coordinate_system_code '2'
_symmetry_cell_setting 'tetragonal'
loop_
_space_group_symop_operation_xyz
x,y,z
1/2-y,x,1/2+z
1/2-x,1/2-y,z
y,1/2-x,1/2+z
1/2+x,-y,1/2-z
-x,1/2+y,1/2-z
1/2+y,1/2+x,-z
-y,-x,-z
-x,-y,-z
1/2+y,-x,1/2-z
1/2+x,1/2+y,-z
-y,1/2+x,1/2-z
1/2-x,y,1/2+z
x,1/2-y,1/2+z
1/2-y,1/2-x,z
y,x,z
loop_
_atom_site_type_symbol
_atom_site_label
_atom_site_fract_x
_atom_site_fract_y
_atom_site_fract_z
Si Si1 0.962572 0.353696 0.093275
Si Si2 0.254236 0.418484 0.407837
Si Si3 0.154601 0.154601 0.569348
Si Si4 0.723482 0.501940 0.852731
Si Si5 0.572134 0.927867 0.826216
Si Si6 0.297916 0.297916 0.812787
Si Si7 0.504803 0.995197 0.339023
Si Si8 0.942238 0.381985 0.778737
O O1 0.915382 0.380879 0.198095
O O2 0.974426 0.287524 0.132991
O O3 0.018377 0.396126 0.102381
O O4 0.949454 0.357865 0.932664
O O5 0.310831 0.393126 0.484398
O O6 0.218054 0.459470 0.510333
O O7 0.273057 0.454324 0.275462
O O8 0.221119 0.360261 0.367065
O O9 0.120552 0.120552 0.687671
O O10 0.197236 0.197236 0.648783
O O11 0.672065 0.456149 0.821115
O O12 0.543214 0.956787 0.698719
O O13 0.250000 0.250000 0.848247
O O14 0.500000 0.000000 0.500000
O O15 0.566255 0.014696 0.272300
#
# Coordination Sequence:
#
# PCOD9570572 Si02
#       8
#    16  16   8  16   8   8   8  16
#     4  10  20  39  65  93 125 166 214 258 332 395
#     4  12  25  39  61  87 123 168 218 271 314 377
#     4  12  22  38  57  85 116 169 214 267 322 368
#     4  12  23  41  63  97 126 163 220 266 327 389
#     4  10  17  36  62  81 122 158 204 265 323 382
#     4  12  26  39  55  78 121 170 218 267 307 363
#     4  10  23  39  60  98 128 165 213 275 336 389
#     4  10  22  39  65  93 127 169 208 268 326 398
#
# _framework density 18.439578999999998
#
# number of rings (size 3 to 8) (size 9 to 14) (size 15 to 20)
#    0.000    1.000    5.833    0.500    1.167    8.000 
#    0.000    0.000    0.000    0.500    0.000    2.333 
#    0.000    0.000    0.000    0.000    0.000    0.000 
#
# Total GULP energy -534842.838368 kJ/mol
# GULP energy per Si atom -5571.279566 kJ/mol
# Density = 1.839761 g / cm^3
# Si number density = 18.439579 Si / 1000 Ang^3
#
#
#
# Elastic Constant Matrix: (Units=GPa)
#
#
# Indices 1 2 3 4 5 6 
#
# 1 77.9764 44.3254 12.0553 0.0000 0.0000 0.0000
# 2 44.3254 77.9764 12.0553 0.0000 0.0000 0.0000
# 3 12.0553 12.0553 55.7628 0.0000 0.0000 0.0000
# 4 0.0000 0.0000 0.0000 20.6186 0.0000 0.0000
# 5 0.0000 0.0000 0.0000 0.0000 20.6186 0.0000
# 6 0.0000 0.0000 0.0000 0.0000 0.0000 40.4139
#
#
#
# Elastic Compliance Matrix: (Units=1/GPa)
#
#
# Indices 1 2 3 4 5 6 
#
# 1 0.019129 -0.010588 -0.001846 0.000000 0.000000 0.000000
# 2 -0.010588 0.019129 -0.001846 0.000000 0.000000 0.000000
# 3 -0.001846 -0.001846 0.018731 0.000000 0.000000 0.000000
# 4 0.000000 0.000000 0.000000 0.048500 0.000000 0.000000
# 5 0.000000 0.000000 0.000000 0.000000 0.048500 0.000000
# 6 0.000000 0.000000 0.000000 0.000000 0.000000 0.024744
#
#
# Mechanical properties :
#
#
# Convention : Reuss Voigt Hill
#
# Bulk Modulus (GPa) = 35.17789 38.73198 36.95493
# Shear Modulus (GPa) = 23.06594 25.88218 24.47406
#
# Velocity S-wave (km/s) = 3.54063 3.75056 3.64711
# Velocity P-wave (km/s) = 5.98612 6.30920 6.14978
#
# Compressibility (1/GPa) = 0.02842695
#
# Stress axis : x y z
#
# Youngs Moduli (GPa) = 52.27768 52.27768 53.38621
#
# Poissons Ratio (x) = 0.55352 0.09857
# Poissons Ratio (y) = 0.55352 0.09857
# Poissons Ratio (z) = 0.09652 0.09652
#
# Static dielectric constant tensor:
#      x y z
#    x 1.670580 0.000000 0.000000 
#    y 0.000000 1.670580 0.000000 
#    z 0.000000 0.000000 1.661770 
# 
# From -- ./inp_files/1792.got.cif
#   From: 2010.05.17/outbox.cif.g08.bks.cpg/sg138_1_cif.got.tgz:1792.got - 2010.05.20 13:08:53.
