data_PCOD9570264
_publ_section_title
;
Structure prediction by ZEFSAII (Michael W. Deem and Ramdas Pophale) SiO2 
 PCOD9570264
Probable space group: P 42/N M C
;
_chemical_formula_sum "Si O2"
_cell_formula_units_Z 72
_cell_length_a 18.067007
_cell_length_b 18.067007
_cell_length_c 11.768213
_cell_angle_alpha 90.000000
_cell_angle_beta 90.000000
_cell_angle_gamma 90.000000
_cell_volume 3841.341746
_symmetry_space_group_name_H-M "P 42/N M C"
_symmetry_group_IT_number 137
_space_group.IT_coordinate_system_code '2'
_symmetry_cell_setting 'tetragonal'
loop_
_space_group_symop_operation_xyz
x,y,z
1/2-y,x,1/2+z
1/2-x,1/2-y,z
y,1/2-x,1/2+z
1/2+x,-y,-z
-x,1/2+y,-z
1/2+y,1/2+x,1/2-z
-y,-x,1/2-z
-x,-y,-z
1/2+y,-x,1/2-z
1/2+x,1/2+y,-z
-y,1/2+x,1/2-z
1/2-x,y,z
x,1/2-y,z
1/2-y,1/2-x,1/2+z
y,x,1/2+z
loop_
_atom_site_type_symbol
_atom_site_label
_atom_site_fract_x
_atom_site_fract_y
_atom_site_fract_z
Si Si1 0.911885 0.431764 0.051975
Si Si2 0.477975 0.335496 0.643320
Si Si3 0.163602 0.335575 0.997307
Si Si4 0.534694 0.910758 0.126758
Si Si5 0.838164 0.161837 0.250000
O O1 0.945781 0.502511 0.118233
O O2 0.873910 0.376589 0.139402
O O3 0.855864 0.468656 0.961264
O O4 0.976506 0.396570 0.974840
O O5 0.486211 0.250000 0.674105
O O6 0.394143 0.348263 0.598943
O O7 0.493382 0.386034 0.751188
O O8 0.250000 0.342449 0.963593
O O9 0.149865 0.250000 0.026968
O O10 0.108123 0.363147 0.900207
O O11 0.750000 0.148837 0.251332
#
# Coordination Sequence:
#
# PCOD9570264 Si02
#       5
#    16  16  16  16   8
#     4  10  23  39  61  86 118 152 195 252 303 353
#     4  10  20  36  58  85 118 156 194 239 294 352
#     4   9  19  34  51  81 124 163 198 235 281 347
#     4  10  21  36  60  88 120 156 198 242 298 362
#     4  11  26  46  66  88 116 156 206 257 306 356
#
# _framework density 18.743452000000001
#
# number of rings (size 3 to 8) (size 9 to 14) (size 15 to 20)
#    0.000    2.111    0.000    2.000    9.333    3.556 
#    0.000    2.222    0.000    0.000    0.000    3.111 
#    0.000    0.000    0.000    0.000    0.000    0.000 
#
# Total GULP energy -402055.541557 kJ/mol
# GULP energy per Si atom -5584.104744 kJ/mol
# Density = 1.870079 g / cm^3
# Si number density = 18.743452 Si / 1000 Ang^3
#
#
#
# Elastic Constant Matrix: (Units=GPa)
#
#
# Indices 1 2 3 4 5 6 
#
# 1 86.8316 54.1983 60.7137 0.0000 0.0000 0.0000
# 2 54.1983 86.8332 60.7142 0.0000 0.0000 0.0000
# 3 60.7137 60.7142 122.5782 0.0000 0.0000 0.0000
# 4 0.0000 0.0000 0.0000 19.4922 0.0000 0.0000
# 5 0.0000 0.0000 0.0000 0.0000 19.4929 0.0000
# 6 0.0000 0.0000 0.0000 0.0000 0.0000 29.5034
#
#
#
# Elastic Compliance Matrix: (Units=1/GPa)
#
#
# Indices 1 2 3 4 5 6 
#
# 1 0.021503 -0.009140 -0.006124 0.000000 0.000000 0.000000
# 2 -0.009140 0.021503 -0.006123 0.000000 0.000000 0.000000
# 3 -0.006124 -0.006123 0.014224 0.000000 0.000000 0.000000
# 4 0.000000 0.000000 0.000000 0.051303 0.000000 0.000000
# 5 0.000000 0.000000 0.000000 0.000000 0.051301 0.000000
# 6 0.000000 0.000000 0.000000 0.000000 0.000000 0.033894
#
#
# Mechanical properties :
#
#
# Convention : Reuss Voigt Hill
#
# Bulk Modulus (GPa) = 69.17486 71.94394 70.55940
# Shear Modulus (GPa) = 20.71934 21.73879 21.22906
#
# Velocity S-wave (km/s) = 3.32839 3.40929 3.36908
# Velocity P-wave (km/s) = 7.19425 7.34605 7.27055
#
# Compressibility (1/GPa) = 0.01445612
#
# Stress axis : x y z
#
# Youngs Moduli (GPa) = 46.50481 46.50576 70.30327
#
# Poissons Ratio (x) = 0.42506 0.43051
# Poissons Ratio (y) = 0.42505 0.43050
# Poissons Ratio (z) = 0.28477 0.28478
#
# Static dielectric constant tensor:
#      x y z
#    x 1.650910 0.000000 0.000000 
#    y 0.000000 1.650910 0.000000 
#    z 0.000000 0.000000 1.639370 
# 
# From -- ./inp_files/3470.got.cif
#   From: 2010.05.17/outbox.cif.g08.bks.cpg/sg137_2_cif.got.tgz:3470.got - 2010.05.20 13:01:12.
