data_PCOD9570486
_publ_section_title
;
Structure prediction by ZEFSAII (Michael W. Deem and Ramdas Pophale) SiO2 
 PCOD9570486
Probable space group: P 42/N M C
;
_chemical_formula_sum "Si O2"
_cell_formula_units_Z 96
_cell_length_a 24.279691
_cell_length_b 24.279691
_cell_length_c 9.822372
_cell_angle_alpha 90.000000
_cell_angle_beta 90.000000
_cell_angle_gamma 90.000000
_cell_volume 5790.321641
_symmetry_space_group_name_H-M "P 42/N M C"
_symmetry_group_IT_number 137
_space_group.IT_coordinate_system_code '2'
_symmetry_cell_setting 'tetragonal'
loop_
_space_group_symop_operation_xyz
x,y,z
1/2-y,x,1/2+z
1/2-x,1/2-y,z
y,1/2-x,1/2+z
1/2+x,-y,-z
-x,1/2+y,-z
1/2+y,1/2+x,1/2-z
-y,-x,1/2-z
-x,-y,-z
1/2+y,-x,1/2-z
1/2+x,1/2+y,-z
-y,1/2+x,1/2-z
1/2-x,y,z
x,1/2-y,z
1/2-y,1/2-x,1/2+z
y,x,1/2+z
loop_
_atom_site_type_symbol
_atom_site_label
_atom_site_fract_x
_atom_site_fract_y
_atom_site_fract_z
Si Si1 0.464775 0.688247 0.920841
Si Si2 0.492984 0.080487 0.198351
Si Si3 0.185371 0.902466 0.301279
Si Si4 0.190468 0.082032 0.422672
Si Si5 0.187345 0.017241 0.144688
Si Si6 0.904264 0.928647 0.030564
O O1 0.453761 0.750000 0.864767
O O2 0.471932 0.636595 0.821557
O O3 0.421145 0.676553 0.041705
O O4 0.524583 0.691389 0.993849
O O5 0.447427 0.087354 0.315208
O O6 0.532595 0.032595 0.250000
O O7 0.460324 0.067205 0.058563
O O8 0.144930 0.855071 0.250000
O O9 0.250000 0.887612 0.288006
O O10 0.176322 0.957814 0.212362
O O11 0.250000 0.109397 0.442027
O O12 0.185130 0.061783 0.267058
O O13 0.135622 0.112651 0.468831
O O14 0.250000 0.016876 0.091292
O O15 0.141947 0.033488 0.036248
#
# Coordination Sequence:
#
# PCOD9570486 Si02
#       6
#    16  16  16  16  16  16
#     4   8  17  34  52  70  97 138 179 210 252 311
#     4  11  23  33  48  77 110 138 171 215 269 319
#     4   9  18  32  54  79 105 140 179 223 273 317
#     4   8  15  32  52  70  97 133 169 205 251 307
#     4   9  18  32  50  75 104 135 172 213 258 315
#     4  11  20  34  51  77 103 138 175 213 266 323
#
# _framework density 16.57939
#
# number of rings (size 3 to 8) (size 9 to 14) (size 15 to 20)
#    0.000    2.667    1.667    2.500    2.333    1.500 
#    0.000    0.000    0.000    0.500    0.000    2.333 
#    0.000    0.000    0.000    0.000    0.000    0.000 
#
# Total GULP energy -534535.445325 kJ/mol
# GULP energy per Si atom -5568.077555 kJ/mol
# Density = 1.654165 g / cm^3
# Si number density = 16.579390 Si / 1000 Ang^3
#
#
#
# Elastic Constant Matrix: (Units=GPa)
#
#
# Indices 1 2 3 4 5 6 
#
# 1 76.9209 51.8539 22.8626 0.0000 0.0000 0.0000
# 2 51.8539 76.9228 22.8602 0.0000 0.0000 0.0000
# 3 22.8626 22.8602 35.6277 0.0000 0.0000 0.0000
# 4 0.0000 0.0000 0.0000 18.7653 0.0000 0.0000
# 5 0.0000 0.0000 0.0000 0.0000 18.7646 0.0000
# 6 0.0000 0.0000 0.0000 0.0000 0.0000 23.6674
#
#
#
# Elastic Compliance Matrix: (Units=1/GPa)
#
#
# Indices 1 2 3 4 5 6 
#
# 1 0.024975 -0.014918 -0.006455 0.000000 0.000000 0.000000
# 2 -0.014918 0.024973 -0.006451 0.000000 0.000000 0.000000
# 3 -0.006455 -0.006451 0.036350 0.000000 0.000000 0.000000
# 4 0.000000 0.000000 0.000000 0.053290 0.000000 0.000000
# 5 0.000000 0.000000 0.000000 0.000000 0.053292 0.000000
# 6 0.000000 0.000000 0.000000 0.000000 0.000000 0.042252
#
#
# Mechanical properties :
#
#
# Convention : Reuss Voigt Hill
#
# Bulk Modulus (GPa) = 32.62583 42.73608 37.68096
# Shear Modulus (GPa) = 16.61151 18.36577 17.48864
#
# Velocity S-wave (km/s) = 3.16877 3.33189 3.25136
# Velocity P-wave (km/s) = 5.75408 6.37453 6.07223
#
# Compressibility (1/GPa) = 0.03065056
#
# Stress axis : x y z
#
# Youngs Moduli (GPa) = 40.03980 40.04296 27.51056
#
# Poissons Ratio (x) = 0.59734 0.17758
# Poissons Ratio (y) = 0.59729 0.17747
# Poissons Ratio (z) = 0.25846 0.25832
#
# Static dielectric constant tensor:
#      x y z
#    x 1.562770 0.000000 0.000000 
#    y 0.000000 1.562770 0.000000 
#    z 0.000000 0.000000 1.570210 
# 
# From -- ./inp_files/2138.got.cif
#   From: 2010.05.17/outbox.cif.g08.bks.cpg/sg137_2_cif.got.tgz:2138.got - 2010.05.20 13:01:12.
