data_PCOD9570936
_publ_section_title
;
Structure prediction by ZEFSAII (Michael W. Deem and Ramdas Pophale) SiO2 
 PCOD9570936
Probable space group: P 42/N C M
;
_chemical_formula_sum "Si O2"
_cell_formula_units_Z 96
_cell_length_a 13.852592
_cell_length_b 13.852592
_cell_length_c 23.399257
_cell_angle_alpha 90.000000
_cell_angle_beta 90.000000
_cell_angle_gamma 90.000000
_cell_volume 4490.184162
_symmetry_space_group_name_H-M "P 42/N C M"
_symmetry_group_IT_number 138
_space_group.IT_coordinate_system_code '2'
_symmetry_cell_setting 'tetragonal'
loop_
_space_group_symop_operation_xyz
x,y,z
1/2-y,x,1/2+z
1/2-x,1/2-y,z
y,1/2-x,1/2+z
1/2+x,-y,1/2-z
-x,1/2+y,1/2-z
1/2+y,1/2+x,-z
-y,-x,-z
-x,-y,-z
1/2+y,-x,1/2-z
1/2+x,1/2+y,-z
-y,1/2+x,1/2-z
1/2-x,y,1/2+z
x,1/2-y,1/2+z
1/2-y,1/2-x,z
y,x,z
loop_
_atom_site_type_symbol
_atom_site_label
_atom_site_fract_x
_atom_site_fract_y
_atom_site_fract_z
Si Si1 0.596064 0.447339 0.643947
Si Si2 0.726300 0.577782 0.125054
Si Si3 0.568669 0.090103 0.620839
Si Si4 0.886402 0.281128 0.051829
Si Si5 0.852158 0.129718 0.757552
Si Si6 0.599404 0.751935 0.491176
O O1 0.502107 0.502107 0.620621
O O2 0.679335 0.528259 0.650336
O O3 0.625913 0.359493 0.602528
O O4 0.579471 0.407194 0.707282
O O5 0.672140 0.672140 0.150077
O O6 0.646445 0.494694 0.122968
O O7 0.751434 0.600067 0.059551
O O8 0.613210 0.172096 0.578285
O O9 0.570678 0.136974 0.684066
O O10 0.467146 0.032855 0.609245
O O11 0.818357 0.318357 0.000000
O O12 0.995231 0.279764 0.028720
O O13 0.742915 0.126239 0.733556
O O14 0.642198 0.857803 0.476528
O O15 0.675411 0.675411 0.467991
#
# Coordination Sequence:
#
# PCOD9570936 Si02
#       6
#    16  16  16  16  16  16
#     4  12  24  41  67  96 128 173 220 274 337 400
#     4  10  22  40  62  91 123 165 220 268 323 397
#     4  11  24  45  68  93 134 182 223 279 346 406
#     4  12  25  41  63  99 138 171 224 275 335 412
#     4  11  22  42  69  97 131 168 225 286 340 395
#     4  10  21  40  62  87 129 177 216 264 324 392
#
# _framework density 21.379968000000002
#
# number of rings (size 3 to 8) (size 9 to 14) (size 15 to 20)
#    0.000    1.000    5.000    2.000    0.000    3.000 
#    3.000    2.500    0.000    0.000    0.000    0.000 
#    0.000    0.000    0.000    0.000    0.000    0.000 
#
# Total GULP energy -535344.542365 kJ/mol
# GULP energy per Si atom -5576.505650 kJ/mol
# Density = 2.133131 g / cm^3
# Si number density = 21.379968 Si / 1000 Ang^3
#
#
#
# Elastic Constant Matrix: (Units=GPa)
#
#
# Indices 1 2 3 4 5 6 
#
# 1 77.4891 65.3718 20.3038 0.0000 0.0000 0.0000
# 2 65.3718 77.4891 20.3038 0.0000 0.0000 0.0000
# 3 20.3038 20.3038 70.8795 0.0000 0.0000 0.0000
# 4 0.0000 0.0000 0.0000 19.7144 0.0000 0.0000
# 5 0.0000 0.0000 0.0000 0.0000 19.7144 0.0000
# 6 0.0000 0.0000 0.0000 0.0000 0.0000 39.7364
#
#
#
# Elastic Compliance Matrix: (Units=1/GPa)
#
#
# Indices 1 2 3 4 5 6 
#
# 1 0.045074 -0.037453 -0.002183 0.000000 0.000000 0.000000
# 2 -0.037453 0.045074 -0.002183 0.000000 0.000000 0.000000
# 3 -0.002183 -0.002183 0.015359 0.000000 0.000000 0.000000
# 4 0.000000 0.000000 0.000000 0.050724 0.000000 0.000000
# 5 0.000000 0.000000 0.000000 0.000000 0.050724 0.000000
# 6 0.000000 0.000000 0.000000 0.000000 0.000000 0.025166
#
#
# Mechanical properties :
#
#
# Convention : Reuss Voigt Hill
#
# Bulk Modulus (GPa) = 45.72866 48.64630 47.18748
# Shear Modulus (GPa) = 15.47757 23.82492 19.65125
#
# Velocity S-wave (km/s) = 2.69351 3.34182 3.03503
# Velocity P-wave (km/s) = 5.57748 6.13946 5.86521
#
# Compressibility (1/GPa) = 0.02186813
#
# Stress axis : x y z
#
# Youngs Moduli (GPa) = 22.18596 22.18596 65.10822
#
# Poissons Ratio (x) = 0.83094 0.14212
# Poissons Ratio (y) = 0.83094 0.14212
# Poissons Ratio (z) = 0.04843 0.04843
#
# Static dielectric constant tensor:
#      x y z
#    x 1.829140 0.000000 0.000000 
#    y 0.000000 1.829140 0.000000 
#    z 0.000000 0.000000 1.780580 
# 
# From -- ./inp_files/6242.got.cif
#   From: 2010.05.17/outbox.cif.g08.bks.cpg/sg138_4_cif.got.tgz:6242.got - 2010.05.20 13:08:53.
