data_PCOD9570272
_publ_section_title
;
Structure prediction by ZEFSAII (Michael W. Deem and Ramdas Pophale) SiO2 
 PCOD9570272
Probable space group: P 42/N M C
;
_chemical_formula_sum "Si O2"
_cell_formula_units_Z 128
_cell_length_a 23.682315
_cell_length_b 23.682315
_cell_length_c 12.818234
_cell_angle_alpha 90.000000
_cell_angle_beta 90.000000
_cell_angle_gamma 90.000000
_cell_volume 7189.132736
_symmetry_space_group_name_H-M "P 42/N M C"
_symmetry_group_IT_number 137
_space_group.IT_coordinate_system_code '2'
_symmetry_cell_setting 'tetragonal'
loop_
_space_group_symop_operation_xyz
x,y,z
1/2-y,x,1/2+z
1/2-x,1/2-y,z
y,1/2-x,1/2+z
1/2+x,-y,-z
-x,1/2+y,-z
1/2+y,1/2+x,1/2-z
-y,-x,1/2-z
-x,-y,-z
1/2+y,-x,1/2-z
1/2+x,1/2+y,-z
-y,1/2+x,1/2-z
1/2-x,y,z
x,1/2-y,z
1/2-y,1/2-x,1/2+z
y,x,1/2+z
loop_
_atom_site_type_symbol
_atom_site_label
_atom_site_fract_x
_atom_site_fract_y
_atom_site_fract_z
Si Si1 0.814678 0.609969 0.021757
Si Si2 0.986169 0.312058 0.571910
Si Si3 0.684117 0.593094 0.417821
Si Si4 0.062611 0.849400 0.647203
Si Si5 0.512997 0.312875 0.940007
Si Si6 0.102052 0.509888 0.256975
Si Si7 0.811904 0.096674 0.363907
Si Si8 0.557956 0.616297 0.713844
O O1 0.750000 0.626178 0.045835
O O2 0.812887 0.552620 0.954341
O O3 0.848896 0.656201 0.956303
O O4 0.849044 0.591770 0.125107
O O5 0.970962 0.250000 0.612707
O O6 0.954601 0.321677 0.462051
O O7 0.976798 0.360737 0.655255
O O8 0.750000 0.599276 0.391381
O O9 0.679457 0.549548 0.513983
O O10 0.650893 0.565762 0.320884
O O11 0.126664 0.872884 0.634282
O O12 0.066763 0.811611 0.750966
O O13 0.007892 0.888487 0.676597
O O14 0.516905 0.250000 0.892967
O O15 0.526238 0.360662 0.857069
O O16 0.553578 0.314203 0.040157
O O17 0.085394 0.444540 0.267867
O O18 0.045760 0.545760 0.250000
O O19 0.750000 0.127034 0.372549
#
# Coordination Sequence:
#
# PCOD9570272 Si02
#       8
#    16  16  16  16  16  16  16  16
#     4  10  21  39  60  83 115 153 200 249 292 343
#     4  10  21  39  60  82 115 160 199 236 287 358
#     4  11  21  37  60  84 116 157 202 245 289 342
#     4  10  21  36  60  88 116 153 197 238 297 357
#     4  10  21  38  58  81 117 161 197 233 287 354
#     4  12  24  36  58  88 122 152 188 247 304 349
#     4  10  20  36  60  88 117 149 194 242 290 356
#     4  11  22  38  56  87 120 153 191 247 304 359
#
# _framework density 17.804652000000001
#
# number of rings (size 3 to 8) (size 9 to 14) (size 15 to 20)
#    0.000    1.500    3.750    1.875    1.750    1.250 
#    0.000    3.125    0.000    7.875    0.000    0.000 
#    0.000    3.250    0.000    0.000    0.000    0.000 
#
# Total GULP energy -713286.151316 kJ/mol
# GULP energy per Si atom -5572.548057 kJ/mol
# Density = 1.776413 g / cm^3
# Si number density = 17.804652 Si / 1000 Ang^3
#
#
#
# Elastic Constant Matrix: (Units=GPa)
#
#
# Indices 1 2 3 4 5 6 
#
# 1 100.1331 35.1255 36.5389 0.0000 0.0000 0.0000
# 2 35.1255 100.1331 36.5389 0.0000 0.0000 0.0000
# 3 36.5389 36.5389 78.9538 0.0000 0.0000 0.0000
# 4 0.0000 0.0000 0.0000 84.4416 0.0000 0.0000
# 5 0.0000 0.0000 0.0000 0.0000 84.4416 0.0000
# 6 0.0000 0.0000 0.0000 0.0000 0.0000 13.3482
#
#
#
# Elastic Compliance Matrix: (Units=1/GPa)
#
#
# Indices 1 2 3 4 5 6 
#
# 1 0.012620 -0.002762 -0.004562 0.000000 0.000000 0.000000
# 2 -0.002762 0.012620 -0.004562 0.000000 0.000000 0.000000
# 3 -0.004562 -0.004562 0.016888 0.000000 0.000000 0.000000
# 4 0.000000 0.000000 0.000000 0.011843 0.000000 0.000000
# 5 0.000000 0.000000 0.000000 0.000000 0.011843 0.000000
# 6 0.000000 0.000000 0.000000 0.000000 0.000000 0.074916
#
#
# Mechanical properties :
#
#
# Convention : Reuss Voigt Hill
#
# Bulk Modulus (GPa) = 54.47907 55.06964 54.77435
# Shear Modulus (GPa) = 29.30442 47.84740 38.57591
#
# Velocity S-wave (km/s) = 4.06135 5.18959 4.65975
# Velocity P-wave (km/s) = 7.25654 8.17962 7.73187
#
# Compressibility (1/GPa) = 0.01835567
#
# Stress axis : x y z
#
# Youngs Moduli (GPa) = 79.23630 79.23630 59.21241
#
# Poissons Ratio (x) = 0.21888 0.27014
# Poissons Ratio (y) = 0.21888 0.27014
# Poissons Ratio (z) = 0.36150 0.36150
#
# Static dielectric constant tensor:
#      x y z
#    x 1.610230 0.000000 0.000000 
#    y 0.000000 1.610230 0.000000 
#    z 0.000000 0.000000 1.593500 
# 
# From -- ./inp_files/4041.got.cif
#   From: 2010.05.17/outbox.cif.g08.bks.cpg/sg137_3_cif.got.tgz:4041.got - 2010.05.20 13:01:12.
