data_PCOD9570609
_publ_section_title
;
Structure prediction by ZEFSAII (Michael W. Deem and Ramdas Pophale) SiO2 
 PCOD9570609
Probable space group: P 42/N C M
;
_chemical_formula_sum "Si O2"
_cell_formula_units_Z 112
_cell_length_a 19.586602
_cell_length_b 19.586602
_cell_length_c 18.844687
_cell_angle_alpha 90.000000
_cell_angle_beta 90.000000
_cell_angle_gamma 90.000000
_cell_volume 7229.481081
_symmetry_space_group_name_H-M "P 42/N C M"
_symmetry_group_IT_number 138
_space_group.IT_coordinate_system_code '2'
_symmetry_cell_setting 'tetragonal'
loop_
_space_group_symop_operation_xyz
x,y,z
1/2-y,x,1/2+z
1/2-x,1/2-y,z
y,1/2-x,1/2+z
1/2+x,-y,1/2-z
-x,1/2+y,1/2-z
1/2+y,1/2+x,-z
-y,-x,-z
-x,-y,-z
1/2+y,-x,1/2-z
1/2+x,1/2+y,-z
-y,1/2+x,1/2-z
1/2-x,y,1/2+z
x,1/2-y,1/2+z
1/2-y,1/2-x,z
y,x,z
loop_
_atom_site_type_symbol
_atom_site_label
_atom_site_fract_x
_atom_site_fract_y
_atom_site_fract_z
Si Si1 0.188619 0.614483 0.301161
Si Si2 0.526002 0.224604 0.043667
Si Si3 0.260876 0.855054 0.145542
Si Si4 0.570240 0.458973 0.117939
Si Si5 0.901882 0.312457 0.895800
Si Si6 0.864794 0.974814 0.978280
Si Si7 0.964820 0.073459 0.581269
O O1 0.201634 0.622463 0.218019
O O2 0.181544 0.691591 0.331686
O O3 0.121392 0.573311 0.324739
O O4 0.256038 0.582031 0.336827
O O5 0.580237 0.256553 0.097955
O O6 0.471554 0.283829 0.031346
O O7 0.506794 0.150768 0.075613
O O8 0.564751 0.209888 0.969694
O O9 0.319354 0.816364 0.100921
O O10 0.519828 0.519828 0.143002
O O11 0.521665 0.402180 0.081184
O O12 0.615698 0.489377 0.053154
O O13 0.924952 0.390603 0.881588
O O14 0.902593 0.902593 0.976783
O O15 0.947753 0.052248 0.500000
O O16 0.019445 0.019445 0.609857
#
# Coordination Sequence:
#
# PCOD9570609 Si02
#       7
#    16  16  16  16  16  16  16
#     4  12  20  32  46  65 104 134 157 197 243 289
#     4  10  18  33  50  71  89 124 169 205 235 292
#     4  11  22  31  44  65  99 136 162 196 238 281
#     4   9  18  31  48  69  96 131 166 198 236 284
#     4  10  20  31  48  68  90 126 170 191 237 291
#     4   9  16  29  48  73  96 122 159 201 247 287
#     4   8  16  31  48  67  92 119 159 207 240 276
#
# _framework density 15.492120999999999
#
# number of rings (size 3 to 8) (size 9 to 14) (size 15 to 20)
#    0.000    2.143    4.286    2.571    0.000    0.571 
#    0.000    7.143    0.000    1.286    0.000    0.000 
#    0.000    0.571    0.000    0.143    0.000    0.000 
#
# Total GULP energy -623601.843860 kJ/mol
# GULP energy per Si atom -5567.873606 kJ/mol
# Density = 1.545686 g / cm^3
# Si number density = 15.492121 Si / 1000 Ang^3
#
#
#
# Elastic Constant Matrix: (Units=GPa)
#
#
# Indices 1 2 3 4 5 6 
#
# 1 78.3042 55.2310 23.1692 0.0000 0.0000 0.0000
# 2 55.2310 78.3044 23.1691 0.0000 0.0000 0.0000
# 3 23.1692 23.1691 30.9835 0.0000 0.0000 0.0000
# 4 0.0000 0.0000 0.0000 12.5453 0.0000 0.0000
# 5 0.0000 0.0000 0.0000 0.0000 12.5453 0.0000
# 6 0.0000 0.0000 0.0000 0.0000 0.0000 32.5048
#
#
#
# Elastic Compliance Matrix: (Units=1/GPa)
#
#
# Indices 1 2 3 4 5 6 
#
# 1 0.026727 -0.016614 -0.007562 0.000000 0.000000 0.000000
# 2 -0.016614 0.026726 -0.007562 0.000000 0.000000 0.000000
# 3 -0.007562 -0.007562 0.043585 0.000000 0.000000 0.000000
# 4 0.000000 0.000000 0.000000 0.079711 0.000000 0.000000
# 5 0.000000 0.000000 0.000000 0.000000 0.079711 0.000000
# 6 0.000000 0.000000 0.000000 0.000000 0.000000 0.030765
#
#
# Mechanical properties :
#
#
# Convention : Reuss Voigt Hill
#
# Bulk Modulus (GPa) = 29.79576 43.41454 36.60515
# Shear Modulus (GPa) = 13.81640 17.25394 15.53517
#
# Velocity S-wave (km/s) = 2.98960 3.34087 3.17010
# Velocity P-wave (km/s) = 5.58494 6.55487 6.08925
#
# Compressibility (1/GPa) = 0.03356183
#
# Stress axis : x y z
#
# Youngs Moduli (GPa) = 37.41594 37.41615 22.94346
#
# Poissons Ratio (x) = 0.62162 0.17351
# Poissons Ratio (y) = 0.62161 0.17350
# Poissons Ratio (z) = 0.28296 0.28295
#
# Static dielectric constant tensor:
#      x y z
#    x 1.530170 0.000000 0.000000 
#    y 0.000000 1.530170 0.000000 
#    z 0.000000 0.000000 1.512510 
# 
# From -- ./inp_files/5408.got.cif
#   From: 2010.05.17/outbox.cif.g08.bks.cpg/sg138_3_cif.got.tgz:5408.got - 2010.05.20 13:08:53.
