data_PCOD9570403
_publ_section_title
;
Structure prediction by ZEFSAII (Michael W. Deem and Ramdas Pophale) SiO2 
 PCOD9570403
Probable space group: P 42/N M C
;
_chemical_formula_sum "Si O2"
_cell_formula_units_Z 112
_cell_length_a 15.433082
_cell_length_b 15.433082
_cell_length_c 23.662832
_cell_angle_alpha 90.000000
_cell_angle_beta 90.000000
_cell_angle_gamma 90.000000
_cell_volume 5636.013799
_symmetry_space_group_name_H-M "P 42/N M C"
_symmetry_group_IT_number 137
_space_group.IT_coordinate_system_code '2'
_symmetry_cell_setting 'tetragonal'
loop_
_space_group_symop_operation_xyz
x,y,z
1/2-y,x,1/2+z
1/2-x,1/2-y,z
y,1/2-x,1/2+z
1/2+x,-y,-z
-x,1/2+y,-z
1/2+y,1/2+x,1/2-z
-y,-x,1/2-z
-x,-y,-z
1/2+y,-x,1/2-z
1/2+x,1/2+y,-z
-y,1/2+x,1/2-z
1/2-x,y,z
x,1/2-y,z
1/2-y,1/2-x,1/2+z
y,x,1/2+z
loop_
_atom_site_type_symbol
_atom_site_label
_atom_site_fract_x
_atom_site_fract_y
_atom_site_fract_z
Si Si1 0.155020 0.958713 0.375708
Si Si2 0.149355 0.850184 0.902911
Si Si3 0.346907 0.396672 0.286363
Si Si4 0.651632 0.851391 0.419965
Si Si5 0.153793 0.541258 0.790210
Si Si6 0.896610 0.007215 0.496402
Si Si7 0.995758 0.850660 0.329953
O O1 0.250000 0.918647 0.366342
O O2 0.138693 0.970624 0.441891
O O3 0.078314 0.905735 0.346848
O O4 0.155450 0.050946 0.344672
O O5 0.250000 0.857598 0.921480
O O6 0.136396 0.750000 0.883837
O O7 0.136778 0.918373 0.852124
O O8 0.082359 0.870012 0.952657
O O9 0.250000 0.356358 0.278240
O O10 0.437133 0.345919 0.287977
O O11 0.357503 0.463901 0.234290
O O12 0.750000 0.860198 0.398795
O O13 0.638359 0.750000 0.435030
O O14 0.584055 0.875378 0.370938
O O15 0.638142 0.916495 0.471706
O O16 0.080797 0.580797 0.750000
O O17 0.250000 0.572382 0.772933
O O18 0.000000 0.000000 0.500000
O O19 0.015011 0.750000 0.340848
#
# Coordination Sequence:
#
# PCOD9570403 Si02
#       7
#    16  16  16  16  16  16  16
#     4  11  22  38  60  89 122 163 211 257 310 376
#     4  10  23  42  62  92 132 169 212 264 318 382
#     4  10  23  42  63  89 127 165 210 264 316 378
#     4  10  22  40  62  90 124 163 211 263 314 373
#     4  11  23  39  64  94 126 167 211 258 319 382
#     4  12  23  39  65  90 126 169 208 258 315 374
#     4  10  21  39  61  88 121 160 205 264 322 371
#
# _framework density 19.872202000000001
#
# number of rings (size 3 to 8) (size 9 to 14) (size 15 to 20)
#    0.000    1.429    1.429    3.857    2.000    3.000 
#    0.000    2.143    0.000    3.429    0.000    0.000 
#    0.000    0.000    0.000    0.000    0.000    0.000 
#
# Total GULP energy -625492.675569 kJ/mol
# GULP energy per Si atom -5584.756032 kJ/mol
# Density = 1.982697 g / cm^3
# Si number density = 19.872202 Si / 1000 Ang^3
#
#
#
# Elastic Constant Matrix: (Units=GPa)
#
#
# Indices 1 2 3 4 5 6 
#
# 1 112.0229 49.5508 37.5968 0.0000 0.0000 0.0000
# 2 49.5508 112.0229 37.5968 0.0000 0.0000 0.0000
# 3 37.5968 37.5968 79.7531 0.0000 0.0000 0.0000
# 4 0.0000 0.0000 0.0000 17.5495 0.0000 0.0000
# 5 0.0000 0.0000 0.0000 0.0000 17.5495 0.0000
# 6 0.0000 0.0000 0.0000 0.0000 0.0000 28.7133
#
#
#
# Elastic Compliance Matrix: (Units=1/GPa)
#
#
# Indices 1 2 3 4 5 6 
#
# 1 0.011968 -0.004039 -0.003738 0.000000 0.000000 0.000000
# 2 -0.004039 0.011968 -0.003738 0.000000 0.000000 0.000000
# 3 -0.003738 -0.003738 0.016063 0.000000 0.000000 0.000000
# 4 0.000000 0.000000 0.000000 0.056982 0.000000 0.000000
# 5 0.000000 0.000000 0.000000 0.000000 0.056982 0.000000
# 6 0.000000 0.000000 0.000000 0.000000 0.000000 0.034827
#
#
# Mechanical properties :
#
#
# Convention : Reuss Voigt Hill
#
# Bulk Modulus (GPa) = 58.93026 61.47640 60.20333
# Shear Modulus (GPa) = 22.99120 24.69941 23.84531
#
# Velocity S-wave (km/s) = 3.40509 3.52932 3.46776
# Velocity P-wave (km/s) = 6.72150 6.90009 6.81138
#
# Compressibility (1/GPa) = 0.01696921
#
# Stress axis : x y z
#
# Youngs Moduli (GPa) = 83.55713 83.55713 62.25614
#
# Poissons Ratio (x) = 0.33751 0.23269
# Poissons Ratio (y) = 0.33751 0.23269
# Poissons Ratio (z) = 0.31231 0.31231
#
# Static dielectric constant tensor:
#      x y z
#    x 1.701510 0.000000 0.000000 
#    y 0.000000 1.701510 0.000000 
#    z 0.000000 0.000000 1.668000 
# 
# From -- ./inp_files/8993.got.cif
#   From: 2010.05.17/outbox.cif.g08.bks.cpg/sg137_5_cif.got.tgz:8993.got - 2010.05.20 13:01:12.
