data_PCOD9570770
_publ_section_title
;
Structure prediction by ZEFSAII (Michael W. Deem and Ramdas Pophale) SiO2 
 PCOD9570770
Probable space group: P 42/N C M
;
_chemical_formula_sum "Si O2"
_cell_formula_units_Z 96
_cell_length_a 15.571953
_cell_length_b 15.571953
_cell_length_c 18.317265
_cell_angle_alpha 90.000000
_cell_angle_beta 90.000000
_cell_angle_gamma 90.000000
_cell_volume 4441.675196
_symmetry_space_group_name_H-M "P 42/N C M"
_symmetry_group_IT_number 138
_space_group.IT_coordinate_system_code '2'
_symmetry_cell_setting 'tetragonal'
loop_
_space_group_symop_operation_xyz
x,y,z
1/2-y,x,1/2+z
1/2-x,1/2-y,z
y,1/2-x,1/2+z
1/2+x,-y,1/2-z
-x,1/2+y,1/2-z
1/2+y,1/2+x,-z
-y,-x,-z
-x,-y,-z
1/2+y,-x,1/2-z
1/2+x,1/2+y,-z
-y,1/2+x,1/2-z
1/2-x,y,1/2+z
x,1/2-y,1/2+z
1/2-y,1/2-x,z
y,x,z
loop_
_atom_site_type_symbol
_atom_site_label
_atom_site_fract_x
_atom_site_fract_y
_atom_site_fract_z
Si Si1 0.305570 0.666861 0.587218
Si Si2 0.990470 0.771762 0.858119
Si Si3 0.496936 0.869110 0.116289
Si Si4 0.913248 0.586753 0.548517
Si Si5 0.089191 0.224316 0.495268
Si Si6 0.389621 0.250154 0.778284
Si Si7 0.963436 0.536565 0.382009
O O1 0.250000 0.750000 0.610366
O O2 0.321466 0.678535 0.500000
O O3 0.253563 0.581593 0.608103
O O4 0.397705 0.652287 0.625709
O O5 0.957348 0.727374 0.784865
O O6 0.991853 0.874333 0.846358
O O7 0.921883 0.747081 0.920516
O O8 0.535687 0.964314 0.130306
O O9 0.519879 0.844378 0.032579
O O10 0.556487 0.804152 0.162750
O O11 0.812108 0.572152 0.547061
O O12 0.942621 0.557380 0.467197
O O13 0.964235 0.535766 0.610278
O O14 0.180342 0.180342 0.480186
O O15 0.319050 0.180951 0.749163
O O16 0.332108 0.332108 0.801992
#
# Coordination Sequence:
#
# PCOD9570770 Si02
#       7
#    16  16  16   8  16  16   8
#     4  11  25  44  71  98 136 181 227 284 347 413
#     4  11  21  41  66  96 129 172 228 282 338 408
#     4  10  23  43  63  95 136 175 225 279 338 411
#     4   9  19  30  52  88 131 157 199 257 340 398
#     4  10  20  34  60  94 127 164 217 279 333 400
#     4  10  22  43  69  98 138 179 221 281 349 408
#     4   9  20  34  58  92 126 164 208 278 326 398
#
# _framework density 21.613468000000001
#
# number of rings (size 3 to 8) (size 9 to 14) (size 15 to 20)
#    0.000    1.833    2.500    0.750    3.500    3.000 
#    3.000    0.000    0.000    0.000    0.000    0.000 
#    0.000    0.000    0.000    0.000    0.000    0.000 
#
# Total GULP energy -535511.488636 kJ/mol
# GULP energy per Si atom -5578.244673 kJ/mol
# Density = 2.156428 g / cm^3
# Si number density = 21.613468 Si / 1000 Ang^3
#
#
#
# Elastic Constant Matrix: (Units=GPa)
#
#
# Indices 1 2 3 4 5 6 
#
# 1 143.7122 53.0565 8.8227 0.0000 0.0000 0.0000
# 2 53.0565 143.7116 8.8225 0.0000 0.0000 0.0000
# 3 8.8227 8.8225 42.6435 0.0000 0.0000 0.0000
# 4 0.0000 0.0000 0.0000 23.0613 0.0000 0.0000
# 5 0.0000 0.0000 0.0000 0.0000 23.0613 0.0000
# 6 0.0000 0.0000 0.0000 0.0000 0.0000 40.0239
#
#
#
# Elastic Compliance Matrix: (Units=1/GPa)
#
#
# Indices 1 2 3 4 5 6 
#
# 1 0.008104 -0.002926 -0.001071 0.000000 0.000000 0.000000
# 2 -0.002926 0.008104 -0.001071 0.000000 0.000000 0.000000
# 3 -0.001071 -0.001071 0.023894 0.000000 0.000000 0.000000
# 4 0.000000 0.000000 0.000000 0.043363 0.000000 0.000000
# 5 0.000000 0.000000 0.000000 0.000000 0.043363 0.000000
# 6 0.000000 0.000000 0.000000 0.000000 0.000000 0.024985
#
#
# Mechanical properties :
#
#
# Convention : Reuss Voigt Hill
#
# Bulk Modulus (GPa) = 33.37274 52.38566 42.87920
# Shear Modulus (GPa) = 29.08007 34.52034 31.80021
#
# Velocity S-wave (km/s) = 3.67203 4.00079 3.83993
# Velocity P-wave (km/s) = 5.78383 6.75514 6.28827
#
# Compressibility (1/GPa) = 0.02996457
#
# Stress axis : x y z
#
# Youngs Moduli (GPa) = 123.38870 123.38826 41.85238
#
# Poissons Ratio (x) = 0.36107 0.04484
# Poissons Ratio (y) = 0.36107 0.04484
# Poissons Ratio (z) = 0.13219 0.13219
#
# Static dielectric constant tensor:
#      x y z
#    x 1.807360 0.000000 0.000000 
#    y 0.000000 1.807360 0.000000 
#    z 0.000000 0.000000 1.823620 
# 
# From -- ./inp_files/6298.got.cif
#   From: 2010.05.17/outbox.cif.g08.bks.cpg/sg138_4_cif.got.tgz:6298.got - 2010.05.20 13:08:53.
