data_PCOD9570595
_publ_section_title
;
Structure prediction by ZEFSAII (Michael W. Deem and Ramdas Pophale) SiO2 
 PCOD9570595
Probable space group: P 42/N C M
;
_chemical_formula_sum "Si O2"
_cell_formula_units_Z 64
_cell_length_a 13.642442
_cell_length_b 13.642442
_cell_length_c 20.375941
_cell_angle_alpha 90.000000
_cell_angle_beta 90.000000
_cell_angle_gamma 90.000000
_cell_volume 3792.293194
_symmetry_space_group_name_H-M "P 42/N C M"
_symmetry_group_IT_number 138
_space_group.IT_coordinate_system_code '2'
_symmetry_cell_setting 'tetragonal'
loop_
_space_group_symop_operation_xyz
x,y,z
1/2-y,x,1/2+z
1/2-x,1/2-y,z
y,1/2-x,1/2+z
1/2+x,-y,1/2-z
-x,1/2+y,1/2-z
1/2+y,1/2+x,-z
-y,-x,-z
-x,-y,-z
1/2+y,-x,1/2-z
1/2+x,1/2+y,-z
-y,1/2+x,1/2-z
1/2-x,y,1/2+z
x,1/2-y,1/2+z
1/2-y,1/2-x,z
y,x,z
loop_
_atom_site_type_symbol
_atom_site_label
_atom_site_fract_x
_atom_site_fract_y
_atom_site_fract_z
Si Si1 0.125927 0.538156 0.311211
Si Si2 0.511229 0.147707 0.803071
Si Si3 0.193972 0.646996 0.574675
Si Si4 0.046849 0.608611 0.926738
O O1 0.236393 0.504880 0.296882
O O2 0.084148 0.602898 0.251276
O O3 0.129855 0.606511 0.375243
O O4 0.052859 0.447142 0.319778
O O5 0.554904 0.115927 0.873656
O O6 0.408362 0.091639 0.795265
O O7 0.250000 0.750000 0.589646
O O8 0.157107 0.657107 0.500000
O O9 0.275883 0.562382 0.581150
O O10 0.939537 0.560464 0.917719
O O11 0.082272 0.582272 0.000000
#
# Coordination Sequence:
#
# PCOD9570595 Si02
#       4
#    16  16  16  16
#     4  11  23  36  55  82 110 145 183 224 280 336
#     4  10  21  35  53  80 109 142 184 227 272 326
#     4  11  19  34  56  83 110 142 186 234 275 319
#     4  10  18  31  53  80 108 139 181 230 275 318
#
# _framework density 16.876332999999999
#
# number of rings (size 3 to 8) (size 9 to 14) (size 15 to 20)
#    0.000    1.500    5.000    1.500    0.000    1.000 
#    0.000    0.000    0.000    2.250    0.000    0.000 
#    0.000    0.000    0.000    0.000    0.000    0.000 
#
# Total GULP energy -357189.414152 kJ/mol
# GULP energy per Si atom -5581.084596 kJ/mol
# Density = 1.683792 g / cm^3
# Si number density = 16.876333 Si / 1000 Ang^3
#
#
#
# Elastic Constant Matrix: (Units=GPa)
#
#
# Indices 1 2 3 4 5 6 
#
# 1 118.0753 97.7793 61.2711 0.0000 0.0000 0.0000
# 2 97.7793 118.0753 61.2711 0.0000 0.0000 0.0000
# 3 61.2711 61.2711 105.4576 0.0000 0.0000 0.0000
# 4 0.0000 0.0000 0.0000 21.0031 0.0000 0.0000
# 5 0.0000 0.0000 0.0000 0.0000 21.0031 0.0000
# 6 0.0000 0.0000 0.0000 0.0000 0.0000 20.2682
#
#
#
# Elastic Compliance Matrix: (Units=1/GPa)
#
#
# Indices 1 2 3 4 5 6 
#
# 1 0.028092 -0.021179 -0.004016 0.000000 0.000000 0.000000
# 2 -0.021179 0.028092 -0.004016 0.000000 0.000000 0.000000
# 3 -0.004016 -0.004016 0.014150 0.000000 0.000000 0.000000
# 4 0.000000 0.000000 0.000000 0.047612 0.000000 0.000000
# 5 0.000000 0.000000 0.000000 0.000000 0.047612 0.000000
# 6 0.000000 0.000000 0.000000 0.000000 0.000000 0.049338
#
#
# Mechanical properties :
#
#
# Convention : Reuss Voigt Hill
#
# Bulk Modulus (GPa) = 83.96498 86.91679 85.44088
# Shear Modulus (GPa) = 18.03170 20.54064 19.28617
#
# Velocity S-wave (km/s) = 3.27228 3.49252 3.38419
# Velocity P-wave (km/s) = 8.00863 8.23878 8.12452
#
# Compressibility (1/GPa) = 0.01190973
#
# Stress axis : x y z
#
# Youngs Moduli (GPa) = 35.59748 35.59748 70.67360
#
# Poissons Ratio (x) = 0.75392 0.28385
# Poissons Ratio (y) = 0.75392 0.28385
# Poissons Ratio (z) = 0.14297 0.14297
#
# Static dielectric constant tensor:
#      x y z
#    x 1.562810 0.000000 0.000000 
#    y 0.000000 1.562810 0.000000 
#    z 0.000000 0.000000 1.569210 
# 
# From -- ./inp_files/4882.got.cif
#   From: 2010.05.17/outbox.cif.g08.bks.cpg/sg138_3_cif.got.tgz:4882.got - 2010.05.20 13:08:53.
