data_PCOD9570186
_publ_section_title
;
Structure prediction by ZEFSAII (Michael W. Deem and Ramdas Pophale) SiO2 
 PCOD9570186
Probable space group: P 42/N M C
;
_chemical_formula_sum "Si O2"
_cell_formula_units_Z 96
_cell_length_a 18.329272
_cell_length_b 18.329272
_cell_length_c 17.851634
_cell_angle_alpha 90.000000
_cell_angle_beta 90.000000
_cell_angle_gamma 90.000000
_cell_volume 5997.474447
_symmetry_space_group_name_H-M "P 42/N M C"
_symmetry_group_IT_number 137
_space_group.IT_coordinate_system_code '2'
_symmetry_cell_setting 'tetragonal'
loop_
_space_group_symop_operation_xyz
x,y,z
1/2-y,x,1/2+z
1/2-x,1/2-y,z
y,1/2-x,1/2+z
1/2+x,-y,-z
-x,1/2+y,-z
1/2+y,1/2+x,1/2-z
-y,-x,1/2-z
-x,-y,-z
1/2+y,-x,1/2-z
1/2+x,1/2+y,-z
-y,1/2+x,1/2-z
1/2-x,y,z
x,1/2-y,z
1/2-y,1/2-x,1/2+z
y,x,1/2+z
loop_
_atom_site_type_symbol
_atom_site_label
_atom_site_fract_x
_atom_site_fract_y
_atom_site_fract_z
Si Si1 0.165374 0.115977 0.499915
Si Si2 0.165927 0.934680 0.960268
Si Si3 0.428500 0.458148 0.715050
Si Si4 0.921502 0.664152 0.641652
Si Si5 0.664471 0.466584 0.414960
Si Si6 0.167200 0.035930 0.102424
O O1 0.250000 0.136021 0.508908
O O2 0.136997 0.132067 0.416717
O O3 0.111686 0.158938 0.556066
O O4 0.157072 0.031283 0.523666
O O5 0.250000 0.909457 0.956689
O O6 0.106854 0.873418 0.943378
O O7 0.157235 0.000109 0.899992
O O8 0.153923 0.972904 0.040824
O O9 0.489426 0.510575 0.750000
O O10 0.379244 0.425534 0.781288
O O11 0.377661 0.504442 0.658416
O O12 0.463292 0.393167 0.666416
O O13 0.907531 0.750000 0.653057
O O14 0.750000 0.456633 0.399411
O O15 0.250000 0.029495 0.130127
#
# Coordination Sequence:
#
# PCOD9570186 Si02
#       6
#    16  16  16  16  16  16
#     4   9  19  33  53  78 103 133 172 214 252 293
#     4   9  18  34  54  74 100 132 170 216 258 298
#     4  11  21  33  53  76 104 142 171 205 255 308
#     4  10  20  33  50  75 105 137 169 205 249 302
#     4  10  20  34  53  77 105 133 171 216 255 304
#     4   9  20  35  53  75 102 133 172 213 254 304
#
# _framework density 16.006737999999999
#
# number of rings (size 3 to 8) (size 9 to 14) (size 15 to 20)
#    0.000    2.333    1.667    2.000    2.333    5.000 
#    0.000    0.000    0.000    0.000    0.000    0.000 
#    0.000    0.000    0.000    0.000    0.000    0.000 
#
# Total GULP energy -535437.251773 kJ/mol
# GULP energy per Si atom -5577.471373 kJ/mol
# Density = 1.597031 g / cm^3
# Si number density = 16.006738 Si / 1000 Ang^3
#
#
#
# Elastic Constant Matrix: (Units=GPa)
#
#
# Indices 1 2 3 4 5 6 
#
# 1 81.0503 54.0918 47.5136 0.0000 0.0000 0.0000
# 2 54.0918 81.0474 47.5117 0.0000 0.0000 0.0000
# 3 47.5136 47.5117 99.1295 0.0000 0.0000 0.0000
# 4 0.0000 0.0000 0.0000 16.7760 0.0000 0.0000
# 5 0.0000 0.0000 0.0000 0.0000 16.7752 0.0000
# 6 0.0000 0.0000 0.0000 0.0000 0.0000 22.2201
#
#
#
# Elastic Compliance Matrix: (Units=1/GPa)
#
#
# Indices 1 2 3 4 5 6 
#
# 1 0.024128 -0.012967 -0.005350 0.000000 0.000000 0.000000
# 2 -0.012967 0.024129 -0.005349 0.000000 0.000000 0.000000
# 3 -0.005350 -0.005349 0.015216 0.000000 0.000000 0.000000
# 4 0.000000 0.000000 0.000000 0.059609 0.000000 0.000000
# 5 0.000000 0.000000 0.000000 0.000000 0.059612 0.000000
# 6 0.000000 0.000000 0.000000 0.000000 0.000000 0.045004
#
#
# Mechanical properties :
#
#
# Convention : Reuss Voigt Hill
#
# Bulk Modulus (GPa) = 61.95731 62.16238 62.05985
# Shear Modulus (GPa) = 17.83093 18.62826 18.22960
#
# Velocity S-wave (km/s) = 3.34123 3.41512 3.37838
# Velocity P-wave (km/s) = 7.32640 7.38039 7.35344
#
# Compressibility (1/GPa) = 0.01614015
#
# Stress axis : x y z
#
# Youngs Moduli (GPa) = 41.44480 41.44403 65.72054
#
# Poissons Ratio (x) = 0.53742 0.35160
# Poissons Ratio (y) = 0.53743 0.35156
# Poissons Ratio (z) = 0.22172 0.22170
#
# Static dielectric constant tensor:
#      x y z
#    x 1.522090 0.000000 0.000000 
#    y 0.000000 1.522090 0.000000 
#    z 0.000000 0.000000 1.518650 
# 
# From -- ./inp_files/6458.got.cif
#   From: 2010.05.17/outbox.cif.g08.bks.cpg/sg137_4_cif.got.tgz:6458.got - 2010.05.20 13:01:12.
