data_PCOD9570815
_publ_section_title
;
Structure prediction by ZEFSAII (Michael W. Deem and Ramdas Pophale) SiO2 
 PCOD9570815
Probable space group: P 42/N C M
;
_chemical_formula_sum "Si O2"
_cell_formula_units_Z 64
_cell_length_a 16.887618
_cell_length_b 16.887618
_cell_length_c 10.265490
_cell_angle_alpha 90.000000
_cell_angle_beta 90.000000
_cell_angle_gamma 90.000000
_cell_volume 2927.631946
_symmetry_space_group_name_H-M "P 42/N C M"
_symmetry_group_IT_number 138
_space_group.IT_coordinate_system_code '2'
_symmetry_cell_setting 'tetragonal'
loop_
_space_group_symop_operation_xyz
x,y,z
1/2-y,x,1/2+z
1/2-x,1/2-y,z
y,1/2-x,1/2+z
1/2+x,-y,1/2-z
-x,1/2+y,1/2-z
1/2+y,1/2+x,-z
-y,-x,-z
-x,-y,-z
1/2+y,-x,1/2-z
1/2+x,1/2+y,-z
-y,1/2+x,1/2-z
1/2-x,y,1/2+z
x,1/2-y,1/2+z
1/2-y,1/2-x,z
y,x,z
loop_
_atom_site_type_symbol
_atom_site_label
_atom_site_fract_x
_atom_site_fract_y
_atom_site_fract_z
Si Si1 0.541046 0.077745 0.648129
Si Si2 0.695630 0.360017 0.280376
Si Si3 0.381336 0.248174 0.350419
Si Si4 0.249287 0.015958 0.104869
O O1 0.556026 0.056026 0.500000
O O2 0.625266 0.095973 0.708169
O O3 0.489365 0.156738 0.641600
O O4 0.492372 0.007629 0.715079
O O5 0.772798 0.340107 0.191416
O O6 0.722287 0.424244 0.387269
O O7 0.322124 0.177877 0.392881
O O8 0.324433 0.324433 0.326322
O O9 0.443503 0.263751 0.466415
O O10 0.428474 0.219892 0.221942
#
# Coordination Sequence:
#
# PCOD9570815 Si02
#       4
#    16  16  16  16
#     4  10  20  36  60  88 119 160 209 259 316 384
#     4   9  20  39  59  85 121 163 209 258 312 372
#     4  11  23  39  61  91 127 166 210 261 319 385
#     4  11  22  39  62  89 123 163 209 261 319 382
#
# _framework density 21.860671
#
# number of rings (size 3 to 8) (size 9 to 14) (size 15 to 20)
#    0.000    1.750    0.000    4.500    0.000    6.000 
#    0.000   27.500    0.000    7.500    0.000    0.000 
#    0.000    0.000    0.000    0.000    0.000    0.000 
#
# Total GULP energy -357107.263296 kJ/mol
# GULP energy per Si atom -5579.800989 kJ/mol
# Density = 2.181092 g / cm^3
# Si number density = 21.860671 Si / 1000 Ang^3
#
#
#
# Elastic Constant Matrix: (Units=GPa)
#
#
# Indices 1 2 3 4 5 6 
#
# 1 97.5152 41.9763 -7.0053 0.0000 0.0000 0.0000
# 2 41.9763 97.5152 -7.0053 0.0000 0.0000 0.0000
# 3 -7.0053 -7.0053 34.2630 0.0000 0.0000 0.0000
# 4 0.0000 0.0000 0.0000 -29.5726 0.0000 0.0000
# 5 0.0000 0.0000 0.0000 0.0000 -29.5726 0.0000
# 6 0.0000 0.0000 0.0000 0.0000 0.0000 44.6234
#
#
#
# Elastic Compliance Matrix: (Units=1/GPa)
#
#
# Indices 1 2 3 4 5 6 
#
# 1 0.012662 -0.005343 0.001496 0.000000 0.000000 0.000000
# 2 -0.005343 0.012662 0.001496 0.000000 0.000000 0.000000
# 3 0.001496 0.001496 0.029798 0.000000 0.000000 0.000000
# 4 0.000000 0.000000 0.000000 -0.033815 0.000000 0.000000
# 5 0.000000 0.000000 0.000000 0.000000 -0.033815 0.000000
# 6 0.000000 0.000000 0.000000 0.000000 0.000000 0.022410
#
#
# Mechanical properties :
#
#
# Convention : Reuss Voigt Hill
#
# Bulk Modulus (GPa) = 19.83256 31.69163 25.76209
# Shear Modulus (GPa) = 159.18655 10.51751 84.85203
#
# Velocity S-wave (km/s) = 8.54264 2.19581 6.23692
# Velocity P-wave (km/s) = 10.31476 4.57792 7.97971
#
# Compressibility (1/GPa) = 0.05042214
#
# Stress axis : x y z
#
# Youngs Moduli (GPa) = 78.97467 78.97467 33.55943
#
# Poissons Ratio (x) = 0.42197 -0.05022
# Poissons Ratio (y) = 0.42197 -0.05022
# Poissons Ratio (z) = -0.11818 -0.11818
#
# Static dielectric constant tensor:
#      x y z
#    x 1.809840 0.000000 0.000000 
#    y 0.000000 1.809840 0.000000 
#    z 0.000000 0.000000 2.961860 
# 
# From -- ./inp_files/2712.got.cif
#   From: 2010.05.17/outbox.cif.g08.bks.cpg/sg138_2_cif.got.tgz:2712.got - 2010.05.20 13:08:53.
