data_PCOD9570271
_publ_section_title
;
Structure prediction by ZEFSAII (Michael W. Deem and Ramdas Pophale) SiO2 
 PCOD9570271
Probable space group: P 42/N M C
;
_chemical_formula_sum "Si O2"
_cell_formula_units_Z 48
_cell_length_a 7.826798
_cell_length_b 7.826798
_cell_length_c 38.272284
_cell_angle_alpha 90.000000
_cell_angle_beta 90.000000
_cell_angle_gamma 90.000000
_cell_volume 2344.512926
_symmetry_space_group_name_H-M "P 42/N M C"
_symmetry_group_IT_number 137
_space_group.IT_coordinate_system_code '2'
_symmetry_cell_setting 'tetragonal'
loop_
_space_group_symop_operation_xyz
x,y,z
1/2-y,x,1/2+z
1/2-x,1/2-y,z
y,1/2-x,1/2+z
1/2+x,-y,-z
-x,1/2+y,-z
1/2+y,1/2+x,1/2-z
-y,-x,1/2-z
-x,-y,-z
1/2+y,-x,1/2-z
1/2+x,1/2+y,-z
-y,1/2+x,1/2-z
1/2-x,y,z
x,1/2-y,z
1/2-y,1/2-x,1/2+z
y,x,1/2+z
loop_
_atom_site_type_symbol
_atom_site_label
_atom_site_fract_x
_atom_site_fract_y
_atom_site_fract_z
Si Si1 0.442585 0.546120 0.038857
Si Si2 0.750000 0.966674 0.762170
Si Si3 0.456312 0.250000 0.654769
Si Si4 0.930073 0.452894 0.112647
O O1 0.250000 0.481973 0.043678
O O2 0.444933 0.750000 0.041530
O O3 0.548222 0.475968 0.071207
O O4 0.500000 0.500000 0.000000
O O5 0.750000 0.750000 0.754892
O O6 0.750000 0.983779 0.804135
O O7 0.579839 0.079839 0.750000
O O8 0.250000 0.250000 0.649942
O O9 0.526037 0.414108 0.634468
O O10 0.750000 0.528142 0.123774
O O11 0.926810 0.250000 0.119088
#
# Coordination Sequence:
#
# PCOD9570271 Si02
#       4
#    16   8   8  16
#     4  11  23  37  53  77 112 155 203 257 315 377
#     4  10  23  45  72 107 147 188 237 287 358 435
#     4   9  19  39  65  90 127 167 206 267 327 396
#     4  10  20  36  60  88 116 155 207 256 316 383
#
# _framework density 20.473337999999998
#
# number of rings (size 3 to 8) (size 9 to 14) (size 15 to 20)
#    0.000    1.833    1.667    2.000    0.000    8.333 
#    6.000    3.333    0.000    0.000    0.000    0.000 
#    0.000    0.000    0.000    0.000    0.000    0.000 
#
# Total GULP energy -267476.064483 kJ/mol
# GULP energy per Si atom -5572.418010 kJ/mol
# Density = 2.042674 g / cm^3
# Si number density = 20.473338 Si / 1000 Ang^3
#
#
#
# Elastic Constant Matrix: (Units=GPa)
#
#
# Indices 1 2 3 4 5 6 
#
# 1 118.4359 43.2304 42.6400 0.0000 0.0000 0.0000
# 2 43.2304 118.4359 42.6400 0.0000 0.0000 0.0000
# 3 42.6400 42.6400 109.4285 0.0000 0.0000 0.0000
# 4 0.0000 0.0000 0.0000 24.9661 0.0000 0.0000
# 5 0.0000 0.0000 0.0000 0.0000 24.9661 0.0000
# 6 0.0000 0.0000 0.0000 0.0000 0.0000 11.3393
#
#
#
# Elastic Compliance Matrix: (Units=1/GPa)
#
#
# Indices 1 2 3 4 5 6 
#
# 1 0.010541 -0.002755 -0.003034 0.000000 0.000000 0.000000
# 2 -0.002755 0.010541 -0.003034 0.000000 0.000000 0.000000
# 3 -0.003034 -0.003034 0.011503 0.000000 0.000000 0.000000
# 4 0.000000 0.000000 0.000000 0.040054 0.000000 0.000000
# 5 0.000000 0.000000 0.000000 0.000000 0.040054 0.000000
# 6 0.000000 0.000000 0.000000 0.000000 0.000000 0.088189
#
#
# Mechanical properties :
#
#
# Convention : Reuss Voigt Hill
#
# Bulk Modulus (GPa) = 66.93817 67.03567 66.98692
# Shear Modulus (GPa) = 22.37048 26.77365 24.57206
#
# Velocity S-wave (km/s) = 3.30913 3.62018 3.46815
# Velocity P-wave (km/s) = 6.88235 7.09142 6.98767
#
# Compressibility (1/GPa) = 0.01493916
#
# Stress axis : x y z
#
# Youngs Moduli (GPa) = 94.86370 94.86370 86.93567
#
# Poissons Ratio (x) = 0.26139 0.26375
# Poissons Ratio (y) = 0.26139 0.26375
# Poissons Ratio (z) = 0.28781 0.28781
#
# Static dielectric constant tensor:
#      x y z
#    x 1.760230 0.000000 0.000000 
#    y 0.000000 1.760230 0.000000 
#    z 0.000000 0.000000 1.710740 
# 
# From -- ./inp_files/10050.got.cif
#   From: 2010.05.17/outbox.cif.g08.bks.cpg/sg137_6_cif.got.tgz:10050.got - 2010.05.20 13:01:12.
