data_PCOD9570090
_publ_section_title
;
Structure prediction by ZEFSAII (Michael W. Deem and Ramdas Pophale) SiO2 
 PCOD9570090
Probable space group: P 42/N M C
;
_chemical_formula_sum "Si O2"
_cell_formula_units_Z 112
_cell_length_a 14.341187
_cell_length_b 14.341187
_cell_length_c 30.766408
_cell_angle_alpha 90.000000
_cell_angle_beta 90.000000
_cell_angle_gamma 90.000000
_cell_volume 6327.716198
_symmetry_space_group_name_H-M "P 42/N M C"
_symmetry_group_IT_number 137
_space_group.IT_coordinate_system_code '2'
_symmetry_cell_setting 'tetragonal'
loop_
_space_group_symop_operation_xyz
x,y,z
1/2-y,x,1/2+z
1/2-x,1/2-y,z
y,1/2-x,1/2+z
1/2+x,-y,-z
-x,1/2+y,-z
1/2+y,1/2+x,1/2-z
-y,-x,1/2-z
-x,-y,-z
1/2+y,-x,1/2-z
1/2+x,1/2+y,-z
-y,1/2+x,1/2-z
1/2-x,y,z
x,1/2-y,z
1/2-y,1/2-x,1/2+z
y,x,1/2+z
loop_
_atom_site_type_symbol
_atom_site_label
_atom_site_fract_x
_atom_site_fract_y
_atom_site_fract_z
Si Si1 0.861631 0.645238 0.089693
Si Si2 0.466784 0.861560 0.712497
Si Si3 0.141484 0.041749 0.315758
Si Si4 0.863765 0.035981 0.040104
Si Si5 0.855892 0.136730 0.373868
Si Si6 0.144267 0.636641 0.142475
Si Si7 0.357694 0.863704 0.455189
O O1 0.750000 0.634417 0.096925
O O2 0.879313 0.750000 0.073860
O O3 0.910301 0.635756 0.136433
O O4 0.891243 0.567285 0.055322
O O5 0.401978 0.901978 0.750000
O O6 0.470185 0.750000 0.714332
O O7 0.569764 0.904513 0.714507
O O8 0.421904 0.889930 0.666063
O O9 0.250000 0.045732 0.302447
O O10 0.111386 0.934560 0.323098
O O11 0.750000 0.036918 0.038629
O O12 0.892575 0.103299 0.079735
O O13 0.895928 0.075961 0.994040
O O14 0.750000 0.104783 0.367436
O O15 0.854802 0.250000 0.374261
O O16 0.250000 0.604805 0.151086
O O17 0.146142 0.750000 0.141289
O O18 0.113621 0.609511 0.093594
O O19 0.250000 0.894201 0.461300
O O20 0.355351 0.750000 0.456154
#
# Coordination Sequence:
#
# PCOD9570090 Si02
#       7
#    16  16  16  16  16  16  16
#     4   9  16  26  41  62  90 127 169 208 245 289
#     4  11  22  36  53  76 103 131 163 201 250 311
#     4  10  19  33  54  75  98 131 169 209 252 298
#     4   9  14  22  38  64  95 128 166 205 248 295
#     4   9  16  26  42  65  94 128 162 195 240 299
#     4   8  15  29  49  73  99 129 167 210 255 298
#     4   8  13  22  39  65  97 130 164 204 249 296
#
# _framework density 17.699908000000001
#
# number of rings (size 3 to 8) (size 9 to 14) (size 15 to 20)
#    0.000    2.857    1.429    2.143    0.000    3.286 
#    0.000    1.429    0.000    0.000    0.000    1.000 
#    0.000    1.143    0.000    0.000    0.000    0.000 
#
# Total GULP energy -624323.095385 kJ/mol
# GULP energy per Si atom -5574.313352 kJ/mol
# Density = 1.765962 g / cm^3
# Si number density = 17.699908 Si / 1000 Ang^3
#
#
#
# Elastic Constant Matrix: (Units=GPa)
#
#
# Indices 1 2 3 4 5 6 
#
# 1 66.1460 19.8270 13.0855 0.0000 0.0000 0.0000
# 2 19.8270 66.1460 13.0855 0.0000 0.0000 0.0000
# 3 13.0855 13.0855 21.6053 0.0000 0.0000 0.0000
# 4 0.0000 0.0000 0.0000 11.6194 0.0000 0.0000
# 5 0.0000 0.0000 0.0000 0.0000 11.6194 0.0000
# 6 0.0000 0.0000 0.0000 0.0000 0.0000 11.8415
#
#
#
# Elastic Compliance Matrix: (Units=1/GPa)
#
#
# Indices 1 2 3 4 5 6 
#
# 1 0.017925 -0.003664 -0.008637 0.000000 0.000000 0.000000
# 2 -0.003664 0.017925 -0.008637 0.000000 0.000000 0.000000
# 3 -0.008637 -0.008637 0.056748 0.000000 0.000000 0.000000
# 4 0.000000 0.000000 0.000000 0.086063 0.000000 0.000000
# 5 0.000000 0.000000 0.000000 0.000000 0.086063 0.000000
# 6 0.000000 0.000000 0.000000 0.000000 0.000000 0.084449
#
#
# Mechanical properties :
#
#
# Convention : Reuss Voigt Hill
#
# Bulk Modulus (GPa) = 19.71603 27.32150 23.51876
# Shear Modulus (GPa) = 12.25621 14.20935 13.23278
#
# Velocity S-wave (km/s) = 2.63429 2.83643 2.73723
# Velocity P-wave (km/s) = 4.51839 5.11826 4.82765
#
# Compressibility (1/GPa) = 0.05072015
#
# Stress axis : x y z
#
# Youngs Moduli (GPa) = 55.78765 55.78765 17.62190
#
# Poissons Ratio (x) = 0.20442 0.15221
# Poissons Ratio (y) = 0.20442 0.15221
# Poissons Ratio (z) = 0.48185 0.48185
#
# Static dielectric constant tensor:
#      x y z
#    x 1.624220 0.000000 0.000000 
#    y 0.000000 1.624220 0.000000 
#    z 0.000000 0.000000 1.598670 
# 
# From -- ./inp_files/10725.got.cif
#   From: 2010.05.17/outbox.cif.g08.bks.cpg/sg137_6_cif.got.tgz:10725.got - 2010.05.20 13:01:12.
