data_PCOD9570338
_publ_section_title
;
Structure prediction by ZEFSAII (Michael W. Deem and Ramdas Pophale) SiO2 
 PCOD9570338
Probable space group: P 42/N M C
;
_chemical_formula_sum "Si O2"
_cell_formula_units_Z 96
_cell_length_a 14.046655
_cell_length_b 14.046655
_cell_length_c 21.975407
_cell_angle_alpha 90.000000
_cell_angle_beta 90.000000
_cell_angle_gamma 90.000000
_cell_volume 4335.934959
_symmetry_space_group_name_H-M "P 42/N M C"
_symmetry_group_IT_number 137
_space_group.IT_coordinate_system_code '2'
_symmetry_cell_setting 'tetragonal'
loop_
_space_group_symop_operation_xyz
x,y,z
1/2-y,x,1/2+z
1/2-x,1/2-y,z
y,1/2-x,1/2+z
1/2+x,-y,-z
-x,1/2+y,-z
1/2+y,1/2+x,1/2-z
-y,-x,1/2-z
-x,-y,-z
1/2+y,-x,1/2-z
1/2+x,1/2+y,-z
-y,1/2+x,1/2-z
1/2-x,y,z
x,1/2-y,z
1/2-y,1/2-x,1/2+z
y,x,1/2+z
loop_
_atom_site_type_symbol
_atom_site_label
_atom_site_fract_x
_atom_site_fract_y
_atom_site_fract_z
Si Si1 0.635507 0.452774 0.560701
Si Si2 0.861917 0.459081 0.193152
Si Si3 0.945070 0.453181 0.813981
Si Si4 0.134597 0.144220 0.494477
Si Si5 0.641898 0.363014 0.435922
Si Si6 0.135364 0.358939 0.134895
O O1 0.750000 0.445728 0.560842
O O2 0.598370 0.414914 0.624482
O O3 0.606700 0.563025 0.552281
O O4 0.600093 0.402937 0.498886
O O5 0.891255 0.391255 0.250000
O O6 0.750000 0.484126 0.197110
O O7 0.879784 0.407854 0.128303
O O8 0.940017 0.542886 0.192487
O O9 0.910776 0.410776 0.750000
O O10 0.911262 0.561934 0.823317
O O11 0.250000 0.150228 0.491964
O O12 0.096078 0.250000 0.482356
O O13 0.115781 0.114273 0.564216
O O14 0.750000 0.401187 0.431288
O O15 0.646401 0.250000 0.443438
O O16 0.250000 0.361964 0.140200
O O17 0.105315 0.250000 0.147030
#
# Coordination Sequence:
#
# PCOD9570338 Si02
#       6
#    16  16  16  16  16  16
#     4  10  21  38  57  78 111 151 188 235 290 334
#     4  10  21  36  55  83 121 157 184 216 269 340
#     4  11  25  39  55  81 112 150 197 243 284 332
#     4   8  15  30  55  86 114 141 179 228 283 344
#     4   9  18  33  55  83 111 142 183 227 275 339
#     4   9  19  38  63  87 111 142 183 234 288 339
#
# _framework density 22.140554000000002
#
# number of rings (size 3 to 8) (size 9 to 14) (size 15 to 20)
#    0.000    2.500    0.000    2.500    0.000   10.167 
#    0.000    3.333    0.000    2.000    0.000    1.167 
#    0.000    0.000    0.000    0.000    0.000    0.000 
#
# Total GULP energy -536298.367391 kJ/mol
# GULP energy per Si atom -5586.441327 kJ/mol
# Density = 2.209016 g / cm^3
# Si number density = 22.140554 Si / 1000 Ang^3
#
#
#
# Elastic Constant Matrix: (Units=GPa)
#
#
# Indices 1 2 3 4 5 6 
#
# 1 42.1143 3.8785 36.2975 0.0000 0.0000 0.0000
# 2 3.8785 42.1143 36.2975 0.0000 0.0000 0.0000
# 3 36.2975 36.2975 178.0714 0.0000 0.0000 0.0000
# 4 0.0000 0.0000 0.0000 13.3722 0.0000 0.0000
# 5 0.0000 0.0000 0.0000 0.0000 13.3722 0.0000
# 6 0.0000 0.0000 0.0000 0.0000 0.0000 12.7525
#
#
#
# Elastic Compliance Matrix: (Units=1/GPa)
#
#
# Indices 1 2 3 4 5 6 
#
# 1 0.029105 0.002951 -0.006534 0.000000 0.000000 0.000000
# 2 0.002951 0.029105 -0.006534 0.000000 0.000000 0.000000
# 3 -0.006534 -0.006534 0.008280 0.000000 0.000000 0.000000
# 4 0.000000 0.000000 0.000000 0.074782 0.000000 0.000000
# 5 0.000000 0.000000 0.000000 0.000000 0.074782 0.000000
# 6 0.000000 0.000000 0.000000 0.000000 0.000000 0.078416
#
#
# Mechanical properties :
#
#
# Convention : Reuss Voigt Hill
#
# Bulk Modulus (GPa) = 21.61929 46.13855 33.87892
# Shear Modulus (GPa) = 15.14596 20.28784 17.71690
#
# Velocity S-wave (km/s) = 2.61833 3.03036 2.83185
# Velocity P-wave (km/s) = 4.35048 5.75572 5.10171
#
# Compressibility (1/GPa) = 0.04625499
#
# Stress axis : x y z
#
# Youngs Moduli (GPa) = 34.35856 34.35856 120.77942
#
# Poissons Ratio (x) = -0.10140 0.78920
# Poissons Ratio (y) = -0.10140 0.78920
# Poissons Ratio (z) = 0.22451 0.22451
#
# Static dielectric constant tensor:
#      x y z
#    x 1.839430 0.000000 0.000000 
#    y 0.000000 1.839430 0.000000 
#    z 0.000000 0.000000 1.816050 
# 
# From -- ./inp_files/7819.got.cif
#   From: 2010.05.17/outbox.cif.g08.bks.cpg/sg137_4_cif.got.tgz:7819.got - 2010.05.20 13:01:12.
