data_PCOD9570769
_publ_section_title
;
Structure prediction by ZEFSAII (Michael W. Deem and Ramdas Pophale) SiO2 
 PCOD9570769
Probable space group: P 42/N C M
;
_chemical_formula_sum "Si O2"
_cell_formula_units_Z 48
_cell_length_a 11.890323
_cell_length_b 11.890323
_cell_length_c 14.062013
_cell_angle_alpha 90.000000
_cell_angle_beta 90.000000
_cell_angle_gamma 90.000000
_cell_volume 1988.084319
_symmetry_space_group_name_H-M "P 42/N C M"
_symmetry_group_IT_number 138
_space_group.IT_coordinate_system_code '2'
_symmetry_cell_setting 'tetragonal'
loop_
_space_group_symop_operation_xyz
x,y,z
1/2-y,x,1/2+z
1/2-x,1/2-y,z
y,1/2-x,1/2+z
1/2+x,-y,1/2-z
-x,1/2+y,1/2-z
1/2+y,1/2+x,-z
-y,-x,-z
-x,-y,-z
1/2+y,-x,1/2-z
1/2+x,1/2+y,-z
-y,1/2+x,1/2-z
1/2-x,y,1/2+z
x,1/2-y,1/2+z
1/2-y,1/2-x,z
y,x,z
loop_
_atom_site_type_symbol
_atom_site_label
_atom_site_fract_x
_atom_site_fract_y
_atom_site_fract_z
Si Si1 0.509753 0.324135 0.033012
Si Si2 0.153555 0.346446 0.249684
Si Si3 0.071017 0.751532 0.759858
Si Si4 0.909554 0.909554 0.469531
O O1 0.417920 0.417920 0.011423
O O2 0.523076 0.310799 0.146412
O O3 0.459624 0.208045 0.995325
O O4 0.630688 0.369313 0.000000
O O5 0.250000 0.250000 0.245897
O O6 0.201252 0.462402 0.292838
O O7 0.114690 0.385311 0.142908
O O8 0.149660 0.844970 0.710977
O O9 0.000000 0.000000 0.500000
#
# Coordination Sequence:
#
# PCOD9570769 Si02
#       4
#    16   8  16   8
#     4  10  22  42  69  91 128 172 215 266 323 384
#     4  10  22  40  64  85 124 171 208 259 317 379
#     4  10  22  38  64  95 125 165 214 264 318 382
#     4  10  20  34  60  94 120 162 209 255 314 385
#
# _framework density 24.143844999999999
#
# number of rings (size 3 to 8) (size 9 to 14) (size 15 to 20)
#    0.000    2.000    0.000    4.500    4.667   11.333 
#    0.000    0.000    7.333    0.000    0.000    0.000 
#    0.000    0.000    0.000    0.000    0.000    0.000 
#
# Total GULP energy -268176.513219 kJ/mol
# GULP energy per Si atom -5587.010692 kJ/mol
# Density = 2.408889 g / cm^3
# Si number density = 24.143845 Si / 1000 Ang^3
#
#
#
# Elastic Constant Matrix: (Units=GPa)
#
#
# Indices 1 2 3 4 5 6 
#
# 1 234.1890 37.4089 3.8464 0.0000 0.0000 0.0000
# 2 37.4089 234.1780 3.8504 0.0000 0.0000 0.0000
# 3 3.8464 3.8504 41.9758 0.0000 0.0000 0.0000
# 4 0.0000 0.0000 0.0000 -890.0267 0.0000 0.0000
# 5 0.0000 0.0000 0.0000 0.0000 -892.1057 0.0000
# 6 0.0000 0.0000 0.0000 0.0000 0.0000 64.4010
#
#
#
# Elastic Compliance Matrix: (Units=1/GPa)
#
#
# Indices 1 2 3 4 5 6 
#
# 1 0.004387 -0.000695 -0.000338 0.000000 0.000000 0.000000
# 2 -0.000695 0.004387 -0.000339 0.000000 0.000000 0.000000
# 3 -0.000338 -0.000339 0.023885 0.000000 0.000000 0.000000
# 4 0.000000 0.000000 0.000000 -0.001124 0.000000 0.000000
# 5 0.000000 0.000000 0.000000 0.000000 -0.001121 0.000000
# 6 0.000000 0.000000 0.000000 0.000000 0.000000 0.015528
#
#
# Mechanical properties :
#
#
# Convention : Reuss Voigt Hill
#
# Bulk Modulus (GPa) = 33.42843 66.72825 50.07834
# Shear Modulus (GPa) = 85.24022 -312.53047 -113.64513
#
# Velocity S-wave (km/s) = 5.94826 -11.38974 -6.86820
# Velocity P-wave (km/s) = 7.81353 12.05282 6.48919
#
# Compressibility (1/GPa) = 0.02991466
#
# Stress axis : x y z
#
# Youngs Moduli (GPa) = 227.96397 227.95253 41.86677
#
# Poissons Ratio (x) = 0.15847 0.01416
# Poissons Ratio (y) = 0.15848 0.01418
# Poissons Ratio (z) = 0.07710 0.07721
#
# Static dielectric constant tensor:
#      x y z
#    x 1.968530 0.000000 0.000000 
#    y 0.000000 1.968530 0.000000 
#    z 0.000000 0.000000 1.971980 
# 
# From -- ./inp_files/4768.got.cif
#   From: 2010.05.17/outbox.cif.g08.bks.cpg/sg138_3_cif.got.tgz:4768.got - 2010.05.20 13:08:53.
