data_PCOD9570107
_publ_section_title
;
Structure prediction by ZEFSAII (Michael W. Deem and Ramdas Pophale) SiO2 
 PCOD9570107
Probable space group: P 42/N M C
;
_chemical_formula_sum "Si O2"
_cell_formula_units_Z 72
_cell_length_a 14.250618
_cell_length_b 14.250618
_cell_length_c 19.608683
_cell_angle_alpha 90.000000
_cell_angle_beta 90.000000
_cell_angle_gamma 90.000000
_cell_volume 3982.133567
_symmetry_space_group_name_H-M "P 42/N M C"
_symmetry_group_IT_number 137
_space_group.IT_coordinate_system_code '2'
_symmetry_cell_setting 'tetragonal'
loop_
_space_group_symop_operation_xyz
x,y,z
1/2-y,x,1/2+z
1/2-x,1/2-y,z
y,1/2-x,1/2+z
1/2+x,-y,-z
-x,1/2+y,-z
1/2+y,1/2+x,1/2-z
-y,-x,1/2-z
-x,-y,-z
1/2+y,-x,1/2-z
1/2+x,1/2+y,-z
-y,1/2+x,1/2-z
1/2-x,y,z
x,1/2-y,z
1/2-y,1/2-x,1/2+z
y,x,1/2+z
loop_
_atom_site_type_symbol
_atom_site_label
_atom_site_fract_x
_atom_site_fract_y
_atom_site_fract_z
Si Si1 0.361883 0.355531 0.457244
Si Si2 0.637452 0.137452 0.750000
Si Si3 0.357341 0.351763 0.753025
Si Si4 0.143120 0.429147 0.608046
Si Si5 0.046444 0.488293 0.346751
O O1 0.250000 0.352840 0.448128
O O2 0.398279 0.250000 0.442350
O O3 0.379222 0.380893 0.536261
O O4 0.400945 0.437045 0.409004
O O5 0.621692 0.250000 0.747301
O O6 0.592346 0.084233 0.683852
O O7 0.250000 0.357869 0.776244
O O8 0.395416 0.250000 0.774766
O O9 0.357053 0.358051 0.671680
O O10 0.416941 0.435021 0.784535
O O11 0.250000 0.467717 0.604075
O O12 0.059619 0.498563 0.628575
#
# Coordination Sequence:
#
# PCOD9570107 Si02
#       5
#    16   8  16  16  16
#     4  10  21  37  59  87 115 143 186 245 297 337
#     4  11  24  38  54  82 120 155 186 226 284 355
#     4  10  19  33  57  86 113 144 190 246 295 338
#     4  10  21  36  54  81 117 154 190 235 292 341
#     4  12  21  36  58  84 113 152 192 231 283 343
#
# _framework density 18.080759
#
# number of rings (size 3 to 8) (size 9 to 14) (size 15 to 20)
#    0.000    1.444    2.222    4.000    0.000    5.333 
#    0.000    0.000    0.000    2.667    0.000    9.333 
#    0.000    0.000    0.000    0.000    0.000    0.000 
#
# Total GULP energy -401304.696993 kJ/mol
# GULP energy per Si atom -5573.676347 kJ/mol
# Density = 1.803961 g / cm^3
# Si number density = 18.080759 Si / 1000 Ang^3
#
#
#
# Elastic Constant Matrix: (Units=GPa)
#
#
# Indices 1 2 3 4 5 6 
#
# 1 107.9821 51.9228 40.8273 0.0000 0.0000 0.0000
# 2 51.9228 107.9821 40.8273 0.0000 0.0000 0.0000
# 3 40.8273 40.8273 121.1035 0.0000 0.0000 0.0000
# 4 0.0000 0.0000 0.0000 24.6489 0.0000 0.0000
# 5 0.0000 0.0000 0.0000 0.0000 24.6489 0.0000
# 6 0.0000 0.0000 0.0000 0.0000 0.0000 20.5387
#
#
#
# Elastic Compliance Matrix: (Units=1/GPa)
#
#
# Indices 1 2 3 4 5 6 
#
# 1 0.012696 -0.005142 -0.002547 0.000000 0.000000 0.000000
# 2 -0.005142 0.012696 -0.002547 0.000000 0.000000 0.000000
# 3 -0.002547 -0.002547 0.009975 0.000000 0.000000 0.000000
# 4 0.000000 0.000000 0.000000 0.040570 0.000000 0.000000
# 5 0.000000 0.000000 0.000000 0.000000 0.040570 0.000000
# 6 0.000000 0.000000 0.000000 0.000000 0.000000 0.048689
#
#
# Mechanical properties :
#
#
# Convention : Reuss Voigt Hill
#
# Bulk Modulus (GPa) = 67.13202 67.13584 67.13393
# Shear Modulus (GPa) = 26.22864 27.53334 26.88099
#
# Velocity S-wave (km/s) = 3.81286 3.90654 3.85998
# Velocity P-wave (km/s) = 7.52286 7.58681 7.55490
#
# Compressibility (1/GPa) = 0.01489602
#
# Stress axis : x y z
#
# Youngs Moduli (GPa) = 78.76362 78.76362 100.25534
#
# Poissons Ratio (x) = 0.40501 0.25532
# Poissons Ratio (y) = 0.40501 0.25532
# Poissons Ratio (z) = 0.20059 0.20059
#
# Static dielectric constant tensor:
#      x y z
#    x 1.642200 0.000000 0.000000 
#    y 0.000000 1.642200 0.000000 
#    z 0.000000 0.000000 1.659380 
# 
# From -- ./inp_files/6179.got.cif
#   From: 2010.05.17/outbox.cif.g08.bks.cpg/sg137_4_cif.got.tgz:6179.got - 2010.05.20 13:01:12.
