data_PCOD9570771
_publ_section_title
;
Structure prediction by ZEFSAII (Michael W. Deem and Ramdas Pophale) SiO2 
 PCOD9570771
Probable space group: P 42/N C M
;
_chemical_formula_sum "Si O2"
_cell_formula_units_Z 96
_cell_length_a 22.861174
_cell_length_b 22.861174
_cell_length_c 8.785728
_cell_angle_alpha 90.000000
_cell_angle_beta 90.000000
_cell_angle_gamma 90.000000
_cell_volume 4591.713812
_symmetry_space_group_name_H-M "P 42/N C M"
_symmetry_group_IT_number 138
_space_group.IT_coordinate_system_code '2'
_symmetry_cell_setting 'tetragonal'
loop_
_space_group_symop_operation_xyz
x,y,z
1/2-y,x,1/2+z
1/2-x,1/2-y,z
y,1/2-x,1/2+z
1/2+x,-y,1/2-z
-x,1/2+y,1/2-z
1/2+y,1/2+x,-z
-y,-x,-z
-x,-y,-z
1/2+y,-x,1/2-z
1/2+x,1/2+y,-z
-y,1/2+x,1/2-z
1/2-x,y,1/2+z
x,1/2-y,1/2+z
1/2-y,1/2-x,z
y,x,z
loop_
_atom_site_type_symbol
_atom_site_label
_atom_site_fract_x
_atom_site_fract_y
_atom_site_fract_z
Si Si1 0.454996 0.752419 0.947999
Si Si2 0.521936 0.823760 0.701815
Si Si3 0.674520 0.583852 0.699180
Si Si4 0.054880 0.539025 0.318439
Si Si5 0.371687 0.281387 0.971918
Si Si6 0.332765 0.557280 0.304259
O O1 0.485231 0.708452 0.067521
O O2 0.420953 0.802189 0.041669
O O3 0.502569 0.788975 0.851376
O O4 0.422062 0.709731 0.831932
O O5 0.503214 0.890503 0.710625
O O6 0.588201 0.815474 0.651105
O O7 0.609840 0.609840 0.687967
O O8 0.714983 0.614593 0.572346
O O9 0.674055 0.513984 0.691371
O O10 0.700294 0.604739 0.861981
O O11 0.051614 0.551614 0.500000
O O12 0.066709 0.599560 0.230814
O O13 0.995336 0.504665 0.276732
O O14 0.305975 0.305975 0.960258
#
# Coordination Sequence:
#
# PCOD9570771 Si02
#       6
#    16  16  16  16  16  16
#     4  10  20  34  62  76 111 149 194 230 268 338
#     4  11  19  38  56  84 110 152 190 231 280 347
#     4  11  21  35  53  73 100 140 184 230 277 326
#     4  11  22  35  57  89 125 156 190 243 304 363
#     4  11  21  35  53  73 100 140 184 230 277 326
#     4  11  19  38  56  84 110 152 190 231 280 347
#
# _framework density 20.907226000000001
#
# number of rings (size 3 to 8) (size 9 to 14) (size 15 to 20)
#    0.000    1.167    6.667    1.000    0.000    4.333 
#    0.000    5.000    0.000    0.000    0.000    0.000 
#    0.000   46.667    0.000    0.000    0.000    0.000 
#
# Total GULP energy -535938.755413 kJ/mol
# GULP energy per Si atom -5582.695369 kJ/mol
# Density = 2.085964 g / cm^3
# Si number density = 20.907226 Si / 1000 Ang^3
#
#
#
# Elastic Constant Matrix: (Units=GPa)
#
#
# Indices 1 2 3 4 5 6 
#
# 1 25.6229 42.4681 -2.7515 0.0000 0.0000 0.0000
# 2 42.4681 25.6229 -2.7515 0.0000 0.0000 0.0000
# 3 -2.7515 -2.7515 57.4108 0.0000 0.0000 0.0000
# 4 0.0000 0.0000 0.0000 9.7775 0.0000 0.0000
# 5 0.0000 0.0000 0.0000 0.0000 9.7775 0.0000
# 6 0.0000 0.0000 0.0000 0.0000 0.0000 31.9368
#
#
#
# Elastic Compliance Matrix: (Units=1/GPa)
#
#
# Indices 1 2 3 4 5 6 
#
# 1 -0.022310 0.037054 0.000707 0.000000 0.000000 0.000000
# 2 0.037054 -0.022310 0.000707 0.000000 0.000000 0.000000
# 3 0.000707 0.000707 0.017486 0.000000 0.000000 0.000000
# 4 0.000000 0.000000 0.000000 0.102275 0.000000 0.000000
# 5 0.000000 0.000000 0.000000 0.000000 0.102275 0.000000
# 6 0.000000 0.000000 0.000000 0.000000 0.000000 0.031312
#
#
# Mechanical properties :
#
#
# Convention : Reuss Voigt Hill
#
# Bulk Modulus (GPa) = 20.08065 20.28739 20.18402
# Shear Modulus (GPa) = 33.69406 15.07780 24.38593
#
# Velocity S-wave (km/s) = 4.01883 2.68839 3.41895
# Velocity P-wave (km/s) = 5.58213 4.40013 5.02600
#
# Compressibility (1/GPa) = 0.04979918
#
# Stress axis : x y z
#
# Youngs Moduli (GPa) = -44.82230 -44.82230 57.18839
#
# Poissons Ratio (x) = 1.66083 -0.04041
# Poissons Ratio (y) = 1.66083 -0.04041
# Poissons Ratio (z) = 0.03167 0.03167
#
# Static dielectric constant tensor:
#      x y z
#    x 1.749640 0.000000 0.000000 
#    y 0.000000 1.749640 0.000000 
#    z 0.000000 0.000000 1.828310 
# 
# From -- ./inp_files/1712.got.cif
#   From: 2010.05.17/outbox.cif.g08.bks.cpg/sg138_1_cif.got.tgz:1712.got - 2010.05.20 13:08:53.
