data_PCOD9570461
_publ_section_title
;
Structure prediction by ZEFSAII (Michael W. Deem and Ramdas Pophale) SiO2 
 PCOD9570461
Probable space group: P 42/N M C
;
_chemical_formula_sum "Si O2"
_cell_formula_units_Z 48
_cell_length_a 16.665288
_cell_length_b 16.665288
_cell_length_c 7.883083
_cell_angle_alpha 90.000000
_cell_angle_beta 90.000000
_cell_angle_gamma 90.000000
_cell_volume 2189.383021
_symmetry_space_group_name_H-M "P 42/N M C"
_symmetry_group_IT_number 137
_space_group.IT_coordinate_system_code '2'
_symmetry_cell_setting 'tetragonal'
loop_
_space_group_symop_operation_xyz
x,y,z
1/2-y,x,1/2+z
1/2-x,1/2-y,z
y,1/2-x,1/2+z
1/2+x,-y,-z
-x,1/2+y,-z
1/2+y,1/2+x,1/2-z
-y,-x,1/2-z
-x,-y,-z
1/2+y,-x,1/2-z
1/2+x,1/2+y,-z
-y,1/2+x,1/2-z
1/2-x,y,z
x,1/2-y,z
1/2-y,1/2-x,1/2+z
y,x,1/2+z
loop_
_atom_site_type_symbol
_atom_site_label
_atom_site_fract_x
_atom_site_fract_y
_atom_site_fract_z
Si Si1 0.159225 0.008131 0.581839
Si Si2 0.338903 0.441166 0.972728
Si Si3 0.838077 0.113498 0.931571
O O1 0.250000 0.016765 0.521956
O O2 0.157157 0.022325 0.783782
O O3 0.109628 0.081624 0.503072
O O4 0.133173 0.917991 0.536430
O O5 0.250000 0.401603 0.990577
O O6 0.340733 0.517642 0.096368
O O7 0.844880 0.155121 0.750000
O O8 0.750000 0.131857 0.008910
#
# Coordination Sequence:
#
# PCOD9570461 Si02
#       3
#    16  16  16
#     4  11  23  40  64  92 126 166 206 257 316 372
#     4  10  23  42  64  92 125 165 211 257 310 371
#     4  11  23  40  63  90 122 161 208 259 310 371
#
# _framework density 21.923984000000001
#
# number of rings (size 3 to 8) (size 9 to 14) (size 15 to 20)
#    0.000    1.333    0.000    5.000    0.000    7.000 
#    0.000    5.000    0.000   12.000    0.000    0.000 
#    0.000    0.000    0.000    0.000    0.000    0.000 
#
# Total GULP energy -268144.968993 kJ/mol
# GULP energy per Si atom -5586.353521 kJ/mol
# Density = 2.187408 g / cm^3
# Si number density = 21.923984 Si / 1000 Ang^3
#
#
#
# Elastic Constant Matrix: (Units=GPa)
#
#
# Indices 1 2 3 4 5 6 
#
# 1 156.8864 124.1498 34.5082 0.0000 0.0000 0.0000
# 2 124.1498 156.8855 34.5092 0.0000 0.0000 0.0000
# 3 34.5082 34.5092 36.2115 0.0000 0.0000 0.0000
# 4 0.0000 0.0000 0.0000 -16.2031 0.0000 0.0000
# 5 0.0000 0.0000 0.0000 0.0000 -16.2003 0.0000
# 6 0.0000 0.0000 0.0000 0.0000 0.0000 -68.6266
#
#
#
# Elastic Compliance Matrix: (Units=1/GPa)
#
#
# Indices 1 2 3 4 5 6 
#
# 1 0.017596 -0.012951 -0.004426 0.000000 0.000000 0.000000
# 2 -0.012951 0.017597 -0.004428 0.000000 0.000000 0.000000
# 3 -0.004426 -0.004428 0.036053 0.000000 0.000000 0.000000
# 4 0.000000 0.000000 0.000000 -0.061716 0.000000 0.000000
# 5 0.000000 0.000000 0.000000 0.000000 -0.061727 0.000000
# 6 0.000000 0.000000 0.000000 0.000000 0.000000 -0.014572
#
#
# Mechanical properties :
#
#
# Convention : Reuss Voigt Hill
#
# Bulk Modulus (GPa) = 36.18454 81.81307 58.99880
# Shear Modulus (GPa) = -358.49450 -9.75160 -184.12305
#
# Velocity S-wave (km/s) = -12.80125 -2.11130 -9.17414
# Velocity P-wave (km/s) = 14.21111 5.60841 9.23313
#
# Compressibility (1/GPa) = 0.02763612
#
# Stress axis : x y z
#
# Youngs Moduli (GPa) = 56.83052 56.82926 27.73674
#
# Poissons Ratio (x) = 0.73599 0.12277
# Poissons Ratio (y) = 0.73601 0.12281
# Poissons Ratio (z) = 0.25156 0.25162
#
# Static dielectric constant tensor:
#      x y z
#    x 1.821490 0.000000 0.000000 
#    y 0.000000 1.821490 0.000000 
#    z 0.000000 0.000000 1.836240 
# 
# From -- ./inp_files/1261.got.cif
#   From: 2010.05.17/outbox.cif.g08.bks.cpg/sg137_1_cif.got.tgz:1261.got - 2010.05.20 13:01:12.
