data_PCOD9570627
_publ_section_title
;
Structure prediction by ZEFSAII (Michael W. Deem and Ramdas Pophale) SiO2 
 PCOD9570627
Probable space group: P 42/N C M
;
_chemical_formula_sum "Si O2"
_cell_formula_units_Z 60
_cell_length_a 13.555384
_cell_length_b 13.555384
_cell_length_c 15.052193
_cell_angle_alpha 90.000000
_cell_angle_beta 90.000000
_cell_angle_gamma 90.000000
_cell_volume 2765.816913
_symmetry_space_group_name_H-M "P 42/N C M"
_symmetry_group_IT_number 138
_space_group.IT_coordinate_system_code '2'
_symmetry_cell_setting 'tetragonal'
loop_
_space_group_symop_operation_xyz
x,y,z
1/2-y,x,1/2+z
1/2-x,1/2-y,z
y,1/2-x,1/2+z
1/2+x,-y,1/2-z
-x,1/2+y,1/2-z
1/2+y,1/2+x,-z
-y,-x,-z
-x,-y,-z
1/2+y,-x,1/2-z
1/2+x,1/2+y,-z
-y,1/2+x,1/2-z
1/2-x,y,1/2+z
x,1/2-y,1/2+z
1/2-y,1/2-x,z
y,x,z
loop_
_atom_site_type_symbol
_atom_site_label
_atom_site_fract_x
_atom_site_fract_y
_atom_site_fract_z
Si Si1 0.912611 0.587390 0.760322
Si Si2 0.962914 0.537087 0.094109
Si Si3 0.969448 0.264802 0.678929
Si Si4 0.980293 0.980293 0.896650
Si Si5 0.750000 0.250000 0.500000
Si Si6 0.393175 0.816328 0.132214
O O1 0.800556 0.560046 0.783607
O O2 0.981133 0.518868 0.825155
O O3 0.949058 0.550943 0.663803
O O4 0.851675 0.501260 0.103145
O O5 0.000000 0.500000 0.000000
O O6 0.906136 0.185765 0.622737
O O7 0.903406 0.288739 0.765675
O O8 0.997273 0.366662 0.631949
O O9 0.000000 0.000000 0.000000
O O10 0.758770 0.343859 0.565480
#
# Coordination Sequence:
#
# PCOD9570627 Si02
#       6
#     8   8  16   8   4  16
#     4  10  24  45  67  96 145 194 233 300 384 448
#     4  10  18  40  58  89 125 181 216 278 350 434
#     4  11  22  46  67  95 140 190 236 304 383 445
#     4  12  26  45  73 109 148 193 254 326 378 459
#     4  12  24  28  60 110 126 174 236 306 346 438
#     4  11  22  36  63  93 135 171 234 288 364 429
#
# _framework density 21.69341
#
# number of rings (size 3 to 8) (size 9 to 14) (size 15 to 20)
#    0.000    1.067    6.667    1.600    1.867    0.533 
#    0.000    0.000    0.000    1.600    0.000    0.000 
#    0.000    0.000    0.000    0.000    0.000    0.000 
#
# Total GULP energy -334845.787812 kJ/mol
# GULP energy per Si atom -5580.763130 kJ/mol
# Density = 2.164403 g / cm^3
# Si number density = 21.693410 Si / 1000 Ang^3
#
#
#
# Elastic Constant Matrix: (Units=GPa)
#
#
# Indices 1 2 3 4 5 6 
#
# 1 105.0278 52.0747 34.6670 0.0000 0.0000 0.0000
# 2 52.0747 105.0278 34.6670 0.0000 0.0000 0.0000
# 3 34.6670 34.6670 146.8187 0.0000 0.0000 0.0000
# 4 0.0000 0.0000 0.0000 23.8486 0.0000 0.0000
# 5 0.0000 0.0000 0.0000 0.0000 23.8486 0.0000
# 6 0.0000 0.0000 0.0000 0.0000 0.0000 49.8756
#
#
#
# Elastic Compliance Matrix: (Units=1/GPa)
#
#
# Indices 1 2 3 4 5 6 
#
# 1 0.012995 -0.005889 -0.001678 0.000000 0.000000 0.000000
# 2 -0.005889 0.012995 -0.001678 0.000000 0.000000 0.000000
# 3 -0.001678 -0.001678 0.007603 0.000000 0.000000 0.000000
# 4 0.000000 0.000000 0.000000 0.041931 0.000000 0.000000
# 5 0.000000 0.000000 0.000000 0.000000 0.041931 0.000000
# 6 0.000000 0.000000 0.000000 0.000000 0.000000 0.020050
#
#
# Mechanical properties :
#
#
# Convention : Reuss Voigt Hill
#
# Bulk Modulus (GPa) = 66.20907 66.63243 66.42075
# Shear Modulus (GPa) = 31.04997 35.21226 33.13111
#
# Velocity S-wave (km/s) = 3.78737 4.03324 3.91224
# Velocity P-wave (km/s) = 7.05069 7.24373 7.14786
#
# Compressibility (1/GPa) = 0.01510367
#
# Stress axis : x y z
#
# Youngs Moduli (GPa) = 76.95158 76.95158 131.51906
#
# Poissons Ratio (x) = 0.45320 0.22066
# Poissons Ratio (y) = 0.45320 0.22066
# Poissons Ratio (z) = 0.12911 0.12911
#
# Static dielectric constant tensor:
#      x y z
#    x 1.889680 0.000000 0.000000 
#    y 0.000000 1.889680 0.000000 
#    z 0.000000 0.000000 1.828990 
# 
# From -- ./inp_files/3952.got.cif
#   From: 2010.05.17/outbox.cif.g08.bks.cpg/sg138_2_cif.got.tgz:3952.got - 2010.05.20 13:08:53.
