data_PCOD9570065
_publ_section_title
;
Structure prediction by ZEFSAII (Michael W. Deem and Ramdas Pophale) SiO2 
 PCOD9570065
Probable space group: P 42/N M C
;
_chemical_formula_sum "Si O2"
_cell_formula_units_Z 128
_cell_length_a 23.541484
_cell_length_b 23.541484
_cell_length_c 13.926741
_cell_angle_alpha 90.000000
_cell_angle_beta 90.000000
_cell_angle_gamma 90.000000
_cell_volume 7718.220319
_symmetry_space_group_name_H-M "P 42/N M C"
_symmetry_group_IT_number 137
_space_group.IT_coordinate_system_code '2'
_symmetry_cell_setting 'tetragonal'
loop_
_space_group_symop_operation_xyz
x,y,z
1/2-y,x,1/2+z
1/2-x,1/2-y,z
y,1/2-x,1/2+z
1/2+x,-y,-z
-x,1/2+y,-z
1/2+y,1/2+x,1/2-z
-y,-x,1/2-z
-x,-y,-z
1/2+y,-x,1/2-z
1/2+x,1/2+y,-z
-y,1/2+x,1/2-z
1/2-x,y,z
x,1/2-y,z
1/2-y,1/2-x,1/2+z
y,x,1/2+z
loop_
_atom_site_type_symbol
_atom_site_label
_atom_site_fract_x
_atom_site_fract_y
_atom_site_fract_z
Si Si1 0.817194 0.912657 0.893944
Si Si2 0.315951 0.021408 0.759157
Si Si3 0.569842 0.069084 0.511030
Si Si4 0.476869 0.684637 0.527026
Si Si5 0.516886 0.983374 0.145495
Si Si6 0.901894 0.881344 0.200776
Si Si7 0.315749 0.514260 0.552121
Si Si8 0.618011 0.815738 0.009056
O O1 0.750000 0.904472 0.879622
O O2 0.847391 0.925290 0.792444
O O3 0.845109 0.857412 0.942843
O O4 0.824823 0.964766 0.968082
O O5 0.250000 0.036752 0.751110
O O6 0.352022 0.078413 0.760501
O O7 0.329155 0.983886 0.666011
O O8 0.324118 0.990068 0.860284
O O9 0.566161 0.136648 0.506835
O O10 0.530556 0.043973 0.424434
O O11 0.538006 0.042866 0.603043
O O12 0.634025 0.046986 0.501570
O O13 0.459402 0.750000 0.512615
O O14 0.555018 0.926777 0.153679
O O15 0.509415 0.009415 0.250000
O O16 0.880707 0.839299 0.117773
O O17 0.250000 0.532549 0.535697
O O18 0.318973 0.447834 0.523688
O O19 0.635816 0.750000 0.003386
#
# Coordination Sequence:
#
# PCOD9570065 Si02
#       8
#    16  16  16  16  16  16  16  16
#     4  11  23  37  54  76 108 147 186 227 272 321
#     4  10  19  32  52  76 103 138 176 217 268 316
#     4  11  21  35  55  82 106 142 179 214 275 333
#     4  10  21  37  55  78 109 141 175 216 266 323
#     4  11  22  31  52  84 113 135 170 226 274 328
#     4  12  20  35  53  77 106 142 178 225 271 322
#     4  10  21  36  54  77 109 142 176 221 271 326
#     4  11  22  36  52  73 104 142 184 229 268 309
#
# _framework density 16.584133999999999
#
# number of rings (size 3 to 8) (size 9 to 14) (size 15 to 20)
#    0.000    1.250    5.000    1.875    1.750    0.250 
#    0.000    0.000    0.000    2.625    0.000    0.000 
#    0.000    3.000    0.000    1.500    0.000    0.000 
#
# Total GULP energy -714429.458889 kJ/mol
# GULP energy per Si atom -5581.480148 kJ/mol
# Density = 1.654639 g / cm^3
# Si number density = 16.584134 Si / 1000 Ang^3
#
#
#
# Elastic Constant Matrix: (Units=GPa)
#
#
# Indices 1 2 3 4 5 6 
#
# 1 51.6298 21.1795 -18.2475 0.0000 0.0000 0.0000
# 2 21.1795 51.6298 -18.2475 0.0000 0.0000 0.0000
# 3 -18.2475 -18.2475 23.1798 0.0000 0.0000 0.0000
# 4 0.0000 0.0000 0.0000 15.6270 0.0000 0.0000
# 5 0.0000 0.0000 0.0000 0.0000 15.6270 0.0000
# 6 0.0000 0.0000 0.0000 0.0000 0.0000 21.7391
#
#
#
# Elastic Compliance Matrix: (Units=1/GPa)
#
#
# Indices 1 2 3 4 5 6 
#
# 1 0.027763 -0.005077 0.017859 0.000000 0.000000 0.000000
# 2 -0.005077 0.027763 0.017859 0.000000 0.000000 0.000000
# 3 0.017859 0.017859 0.071258 0.000000 0.000000 0.000000
# 4 0.000000 0.000000 0.000000 0.063992 0.000000 0.000000
# 5 0.000000 0.000000 0.000000 0.000000 0.063992 0.000000
# 6 0.000000 0.000000 0.000000 0.000000 0.000000 0.046000
#
#
# Mechanical properties :
#
#
# Convention : Reuss Voigt Hill
#
# Bulk Modulus (GPa) = 5.31730 10.64540 7.98135
# Shear Modulus (GPa) = 16.54665 20.04895 18.29780
#
# Velocity S-wave (km/s) = 3.16213 3.48073 3.32525
# Velocity P-wave (km/s) = 4.06759 4.75257 4.42336
#
# Compressibility (1/GPa) = 0.18806530
#
# Stress axis : x y z
#
# Youngs Moduli (GPa) = 36.01887 36.01887 14.03346
#
# Poissons Ratio (x) = 0.18288 -0.25062
# Poissons Ratio (y) = 0.18288 -0.25062
# Poissons Ratio (z) = -0.64325 -0.64325
#
# Static dielectric constant tensor:
#      x y z
#    x 1.560600 0.000000 0.000000 
#    y 0.000000 1.560600 0.000000 
#    z 0.000000 0.000000 1.589710 
# 
# From -- ./inp_files/4027.got.cif
#   From: 2010.05.17/outbox.cif.g08.bks.cpg/sg137_3_cif.got.tgz:4027.got - 2010.05.20 13:01:12.
