data_PCOD9570445
_publ_section_title
;
Structure prediction by ZEFSAII (Michael W. Deem and Ramdas Pophale) SiO2 
 PCOD9570445
Probable space group: P 42/N M C
;
_chemical_formula_sum "Si O2"
_cell_formula_units_Z 48
_cell_length_a 13.597138
_cell_length_b 13.597138
_cell_length_c 10.857137
_cell_angle_alpha 90.000000
_cell_angle_beta 90.000000
_cell_angle_gamma 90.000000
_cell_volume 2007.290959
_symmetry_space_group_name_H-M "P 42/N M C"
_symmetry_group_IT_number 137
_space_group.IT_coordinate_system_code '2'
_symmetry_cell_setting 'tetragonal'
loop_
_space_group_symop_operation_xyz
x,y,z
1/2-y,x,1/2+z
1/2-x,1/2-y,z
y,1/2-x,1/2+z
1/2+x,-y,-z
-x,1/2+y,-z
1/2+y,1/2+x,1/2-z
-y,-x,1/2-z
-x,-y,-z
1/2+y,-x,1/2-z
1/2+x,1/2+y,-z
-y,1/2+x,1/2-z
1/2-x,y,z
x,1/2-y,z
1/2-y,1/2-x,1/2+z
y,x,1/2+z
loop_
_atom_site_type_symbol
_atom_site_label
_atom_site_fract_x
_atom_site_fract_y
_atom_site_fract_z
Si Si1 0.868436 0.140372 0.606651
Si Si2 0.526692 0.862707 0.745091
Si Si3 0.867512 0.932355 0.506846
O O1 0.885751 0.114250 0.750000
O O2 0.750000 0.146932 0.595715
O O3 0.907419 0.250000 0.578175
O O4 0.897818 0.047193 0.526077
O O5 0.495301 0.750000 0.762370
O O6 0.582636 0.874014 0.616886
O O7 0.434531 0.934531 0.750000
O O8 0.593414 0.889069 0.864947
O O9 0.750000 0.925357 0.524136
#
# Coordination Sequence:
#
# PCOD9570445 Si02
#       3
#    16  16  16
#     4   8  14  27  52  87 122 155 195 246 306 375
#     4  11  25  44  66  95 133 175 220 270 326 390
#     4  10  22  41  66  96 129 167 214 268 327 392
#
# _framework density 23.912828000000001
#
# number of rings (size 3 to 8) (size 9 to 14) (size 15 to 20)
#    0.000    2.333    0.000    3.000    0.000    3.667 
#    0.000   10.000    0.000    0.000    0.000    0.000 
#    0.000    0.000    0.000    0.000    0.000    0.000 
#
# Total GULP energy -268618.251206 kJ/mol
# GULP energy per Si atom -5596.213567 kJ/mol
# Density = 2.385840 g / cm^3
# Si number density = 23.912828 Si / 1000 Ang^3
#
#
#
# Elastic Constant Matrix: (Units=GPa)
#
#
# Indices 1 2 3 4 5 6 
#
# 1 81.8367 19.9286 45.0281 0.0000 0.0000 0.0000
# 2 19.9286 81.8364 45.0280 0.0000 0.0000 0.0000
# 3 45.0281 45.0280 155.3943 0.0000 0.0000 0.0000
# 4 0.0000 0.0000 0.0000 25.3132 0.0000 0.0000
# 5 0.0000 0.0000 0.0000 0.0000 25.3132 0.0000
# 6 0.0000 0.0000 0.0000 0.0000 0.0000 15.9639
#
#
#
# Elastic Compliance Matrix: (Units=1/GPa)
#
#
# Indices 1 2 3 4 5 6 
#
# 1 0.014684 -0.001469 -0.003829 0.000000 0.000000 0.000000
# 2 -0.001469 0.014684 -0.003829 0.000000 0.000000 0.000000
# 3 -0.003829 -0.003829 0.008654 0.000000 0.000000 0.000000
# 4 0.000000 0.000000 0.000000 0.039505 0.000000 0.000000
# 5 0.000000 0.000000 0.000000 0.000000 0.039505 0.000000
# 6 0.000000 0.000000 0.000000 0.000000 0.000000 0.062641
#
#
# Mechanical properties :
#
#
# Convention : Reuss Voigt Hill
#
# Bulk Modulus (GPa) = 50.58764 59.89297 55.24031
# Shear Modulus (GPa) = 24.44764 27.25691 25.85227
#
# Velocity S-wave (km/s) = 3.20091 3.37982 3.29158
# Velocity P-wave (km/s) = 5.90441 6.35072 6.13163
#
# Compressibility (1/GPa) = 0.01976768
#
# Stress axis : x y z
#
# Youngs Moduli (GPa) = 68.10073 68.10048 115.54713
#
# Poissons Ratio (x) = 0.10003 0.44247
# Poissons Ratio (y) = 0.10003 0.44247
# Poissons Ratio (z) = 0.26078 0.26078
#
# Static dielectric constant tensor:
#      x y z
#    x 1.922950 0.000000 0.000000 
#    y 0.000000 1.922950 0.000000 
#    z 0.000000 0.000000 1.943490 
# 
# From -- ./inp_files/2898.got.cif
#   From: 2010.05.17/outbox.cif.g08.bks.cpg/sg137_2_cif.got.tgz:2898.got - 2010.05.20 13:01:12.
