data_PCOD9570460
_publ_section_title
;
Structure prediction by ZEFSAII (Michael W. Deem and Ramdas Pophale) SiO2 
 PCOD9570460
Probable space group: P 42/N M C
;
_chemical_formula_sum "Si O2"
_cell_formula_units_Z 112
_cell_length_a 14.513756
_cell_length_b 14.513756
_cell_length_c 25.578564
_cell_angle_alpha 90.000000
_cell_angle_beta 90.000000
_cell_angle_gamma 90.000000
_cell_volume 5388.101824
_symmetry_space_group_name_H-M "P 42/N M C"
_symmetry_group_IT_number 137
_space_group.IT_coordinate_system_code '2'
_symmetry_cell_setting 'tetragonal'
loop_
_space_group_symop_operation_xyz
x,y,z
1/2-y,x,1/2+z
1/2-x,1/2-y,z
y,1/2-x,1/2+z
1/2+x,-y,-z
-x,1/2+y,-z
1/2+y,1/2+x,1/2-z
-y,-x,1/2-z
-x,-y,-z
1/2+y,-x,1/2-z
1/2+x,1/2+y,-z
-y,1/2+x,1/2-z
1/2-x,y,z
x,1/2-y,z
1/2-y,1/2-x,1/2+z
y,x,1/2+z
loop_
_atom_site_type_symbol
_atom_site_label
_atom_site_fract_x
_atom_site_fract_y
_atom_site_fract_z
Si Si1 0.349645 0.554868 0.157300
Si Si2 0.905653 0.643485 0.871105
Si Si3 0.644719 0.998095 0.265559
Si Si4 0.861899 0.646195 0.589754
Si Si5 0.860950 0.966016 0.694787
Si Si6 0.035828 0.361736 0.011403
Si Si7 0.138544 0.648564 0.458580
O O1 0.250000 0.583003 0.178705
O O2 0.349284 0.444853 0.148509
O O3 0.434064 0.592275 0.191019
O O4 0.361164 0.600099 0.099887
O O5 0.867938 0.750000 0.871392
O O6 0.986644 0.645094 0.828210
O O7 0.935624 0.617926 0.929694
O O8 0.750000 0.001674 0.247629
O O9 0.595218 0.909963 0.238957
O O10 0.586316 0.086316 0.250000
O O11 0.750000 0.648930 0.588139
O O12 0.895485 0.750000 0.597374
O O13 0.883927 0.582363 0.639093
O O14 0.892627 0.604612 0.534406
O O15 0.750000 0.970292 0.700594
O O16 0.034625 0.250000 0.009184
O O17 0.934521 0.393980 0.994803
O O18 0.250000 0.644216 0.455204
O O19 0.112533 0.750000 0.478176
#
# Coordination Sequence:
#
# PCOD9570460 Si02
#       7
#    16  16  16  16  16  16  16
#     4  11  22  37  62  96 131 167 206 255 320 395
#     4  10  23  42  63  86 121 167 217 267 322 384
#     4  11  24  46  71  97 127 167 219 273 326 377
#     4   9  17  31  55  89 125 163 208 255 306 364
#     4  11  22  41  68  98 131 167 211 266 323 384
#     4   9  17  33  58  86 121 166 209 258 312 374
#     4   9  17  32  56  89 130 172 207 244 306 388
#
# _framework density 20.786542000000001
#
# number of rings (size 3 to 8) (size 9 to 14) (size 15 to 20)
#    0.000    2.000    2.857    0.857    0.000    3.857 
#    0.000    3.571    0.000    2.571    0.000    0.000 
#    0.000    0.000    0.000    0.000    0.000    0.143 
#
# Total GULP energy -625278.773220 kJ/mol
# GULP energy per Si atom -5582.846189 kJ/mol
# Density = 2.073923 g / cm^3
# Si number density = 20.786542 Si / 1000 Ang^3
#
#
#
# Elastic Constant Matrix: (Units=GPa)
#
#
# Indices 1 2 3 4 5 6 
#
# 1 118.0422 44.5417 45.0543 0.0000 0.0000 0.0000
# 2 44.5417 118.0422 45.0543 0.0000 0.0000 0.0000
# 3 45.0543 45.0543 132.2483 0.0000 0.0000 0.0000
# 4 0.0000 0.0000 0.0000 9.8397 0.0000 0.0000
# 5 0.0000 0.0000 0.0000 0.0000 9.8397 0.0000
# 6 0.0000 0.0000 0.0000 0.0000 0.0000 15.8897
#
#
#
# Elastic Compliance Matrix: (Units=1/GPa)
#
#
# Indices 1 2 3 4 5 6 
#
# 1 0.010594 -0.003012 -0.002583 0.000000 0.000000 0.000000
# 2 -0.003012 0.010594 -0.002583 0.000000 0.000000 0.000000
# 3 -0.002583 -0.002583 0.009322 0.000000 0.000000 0.000000
# 4 0.000000 0.000000 0.000000 0.101629 0.000000 0.000000
# 5 0.000000 0.000000 0.000000 0.000000 0.101629 0.000000
# 6 0.000000 0.000000 0.000000 0.000000 0.000000 0.062934
#
#
# Mechanical properties :
#
#
# Convention : Reuss Voigt Hill
#
# Bulk Modulus (GPa) = 70.65313 70.84814 70.75064
# Shear Modulus (GPa) = 15.73446 22.69266 19.21356
#
# Velocity S-wave (km/s) = 2.75426 3.30767 3.04357
# Velocity P-wave (km/s) = 6.64667 6.98178 6.81629
#
# Compressibility (1/GPa) = 0.01415366
#
# Stress axis : x y z
#
# Youngs Moduli (GPa) = 94.39445 94.39445 107.27797
#
# Poissons Ratio (x) = 0.28427 0.27711
# Poissons Ratio (y) = 0.28427 0.27711
# Poissons Ratio (z) = 0.24383 0.24383
#
# Static dielectric constant tensor:
#      x y z
#    x 1.748610 0.000000 0.000000 
#    y 0.000000 1.748610 0.000000 
#    z 0.000000 0.000000 1.737320 
# 
# From -- ./inp_files/8930.got.cif
#   From: 2010.05.17/outbox.cif.g08.bks.cpg/sg137_5_cif.got.tgz:8930.got - 2010.05.20 13:01:12.
