data_PCOD9570926
_publ_section_title
;
Structure prediction by ZEFSAII (Michael W. Deem and Ramdas Pophale) SiO2 
 PCOD9570926
Probable space group: P 42/N C M
;
_chemical_formula_sum "Si O2"
_cell_formula_units_Z 96
_cell_length_a 21.749834
_cell_length_b 21.749834
_cell_length_c 8.847030
_cell_angle_alpha 90.000000
_cell_angle_beta 90.000000
_cell_angle_gamma 90.000000
_cell_volume 4185.134245
_symmetry_space_group_name_H-M "P 42/N C M"
_symmetry_group_IT_number 138
_space_group.IT_coordinate_system_code '2'
_symmetry_cell_setting 'tetragonal'
loop_
_space_group_symop_operation_xyz
x,y,z
1/2-y,x,1/2+z
1/2-x,1/2-y,z
y,1/2-x,1/2+z
1/2+x,-y,1/2-z
-x,1/2+y,1/2-z
1/2+y,1/2+x,-z
-y,-x,-z
-x,-y,-z
1/2+y,-x,1/2-z
1/2+x,1/2+y,-z
-y,1/2+x,1/2-z
1/2-x,y,1/2+z
x,1/2-y,1/2+z
1/2-y,1/2-x,z
y,x,z
loop_
_atom_site_type_symbol
_atom_site_label
_atom_site_fract_x
_atom_site_fract_y
_atom_site_fract_z
Si Si1 0.611844 0.513553 0.930467
Si Si2 0.956044 0.704081 0.923535
Si Si3 0.989520 0.408783 0.909780
Si Si4 0.298495 0.396180 0.905311
Si Si5 0.346905 0.745675 0.778409
Si Si6 0.432347 0.706934 0.032112
O O1 0.545812 0.545812 0.954427
O O2 0.617962 0.487344 0.760217
O O3 0.638472 0.460424 0.038082
O O4 0.659193 0.568551 0.970313
O O5 0.935763 0.702637 0.749357
O O6 0.014514 0.747371 0.967883
O O7 0.974162 0.637619 0.983307
O O8 0.899646 0.731583 0.021430
O O9 0.030253 0.469748 0.887652
O O10 0.928248 0.428248 0.000000
O O11 0.331251 0.331251 0.877205
O O12 0.303914 0.696989 0.690780
O O13 0.374334 0.712179 0.922339
O O14 0.405974 0.768623 0.687541
#
# Coordination Sequence:
#
# PCOD9570926 Si02
#       6
#    16  16  16  16  16  16
#     4   9  19  38  61  90 128 165 208 262 325 401
#     4  11  21  38  62  93 129 165 218 275 331 402
#     4  10  21  38  62  92 129 172 213 262 333 410
#     4  10  21  39  66  94 127 176 221 270 339 404
#     4  11  24  41  60  84 121 170 221 271 325 387
#     4  11  21  37  62  91 120 161 213 269 330 387
#
# _framework density 22.938331000000002
#
# number of rings (size 3 to 8) (size 9 to 14) (size 15 to 20)
#    0.000    1.667    0.000    6.500    0.000    4.000 
#    0.000    5.000    0.000   12.000    0.000    0.000 
#    0.000    0.000    0.000    0.000    0.000    0.000 
#
# Total GULP energy -535758.955250 kJ/mol
# GULP energy per Si atom -5580.822451 kJ/mol
# Density = 2.288612 g / cm^3
# Si number density = 22.938331 Si / 1000 Ang^3
#
#
#
# Elastic Constant Matrix: (Units=GPa)
#
#
# Indices 1 2 3 4 5 6 
#
# 1 39.8261 27.7487 21.8056 0.0000 0.0000 0.0000
# 2 27.7487 39.8261 21.8056 0.0000 0.0000 0.0000
# 3 21.8056 21.8056 114.0167 0.0000 0.0000 0.0000
# 4 0.0000 0.0000 0.0000 27.5624 0.0000 0.0000
# 5 0.0000 0.0000 0.0000 0.0000 27.5624 0.0000
# 6 0.0000 0.0000 0.0000 0.0000 0.0000 66.6522
#
#
#
# Elastic Compliance Matrix: (Units=1/GPa)
#
#
# Indices 1 2 3 4 5 6 
#
# 1 0.049841 -0.032959 -0.003229 0.000000 0.000000 0.000000
# 2 -0.032959 0.049841 -0.003229 0.000000 0.000000 0.000000
# 3 -0.003229 -0.003229 0.010006 0.000000 0.000000 0.000000
# 4 0.000000 0.000000 0.000000 0.036281 0.000000 0.000000
# 5 0.000000 0.000000 0.000000 0.000000 0.036281 0.000000
# 6 0.000000 0.000000 0.000000 0.000000 0.000000 0.015003
#
#
# Mechanical properties :
#
#
# Convention : Reuss Voigt Hill
#
# Bulk Modulus (GPa) = 32.40955 37.37653 34.89304
# Shear Modulus (GPa) = 17.45994 32.50934 24.98464
#
# Velocity S-wave (km/s) = 2.76192 3.76872 3.30390
# Velocity P-wave (km/s) = 4.93261 5.93864 5.45885
#
# Compressibility (1/GPa) = 0.03085511
#
# Stress axis : x y z
#
# Youngs Moduli (GPa) = 20.06392 20.06392 99.94394
#
# Poissons Ratio (x) = 0.66128 0.32269
# Poissons Ratio (y) = 0.66128 0.32269
# Poissons Ratio (z) = 0.06478 0.06478
#
# Static dielectric constant tensor:
#      x y z
#    x 1.915190 0.000000 0.000000 
#    y 0.000000 1.915190 0.000000 
#    z 0.000000 0.000000 1.852770 
# 
# From -- ./inp_files/1705.got.cif
#   From: 2010.05.17/outbox.cif.g08.bks.cpg/sg138_1_cif.got.tgz:1705.got - 2010.05.20 13:08:53.
