data_PCOD9570455
_publ_section_title
;
Structure prediction by ZEFSAII (Michael W. Deem and Ramdas Pophale) SiO2 
 PCOD9570455
Probable space group: P 42/N M C
;
_chemical_formula_sum "Si O2"
_cell_formula_units_Z 72
_cell_length_a 15.079183
_cell_length_b 15.079183
_cell_length_c 17.440213
_cell_angle_alpha 90.000000
_cell_angle_beta 90.000000
_cell_angle_gamma 90.000000
_cell_volume 3965.586326
_symmetry_space_group_name_H-M "P 42/N M C"
_symmetry_group_IT_number 137
_space_group.IT_coordinate_system_code '2'
_symmetry_cell_setting 'tetragonal'
loop_
_space_group_symop_operation_xyz
x,y,z
1/2-y,x,1/2+z
1/2-x,1/2-y,z
y,1/2-x,1/2+z
1/2+x,-y,-z
-x,1/2+y,-z
1/2+y,1/2+x,1/2-z
-y,-x,1/2-z
-x,-y,-z
1/2+y,-x,1/2-z
1/2+x,1/2+y,-z
-y,1/2+x,1/2-z
1/2-x,y,z
x,1/2-y,z
1/2-y,1/2-x,1/2+z
y,x,1/2+z
loop_
_atom_site_type_symbol
_atom_site_label
_atom_site_fract_x
_atom_site_fract_y
_atom_site_fract_z
Si Si1 0.081576 0.250000 0.260224
Si Si2 0.644845 0.613487 0.862749
Si Si3 0.750000 0.750000 0.126758
Si Si4 0.592078 0.250000 0.943895
Si Si5 0.589245 0.356797 0.665366
Si Si6 0.750000 0.605388 0.495067
Si Si7 0.250000 0.750000 0.564672
Si Si8 0.750000 0.377359 0.205245
O O1 0.094442 0.334719 0.204669
O O2 0.161639 0.250000 0.321173
O O3 0.982908 0.250000 0.294023
O O4 0.750000 0.622401 0.846842
O O5 0.622871 0.509876 0.863306
O O6 0.626044 0.665039 0.941588
O O7 0.834067 0.750000 0.070201
O O8 0.606351 0.336092 0.891068
O O9 0.495892 0.250000 0.980645
O O10 0.665029 0.250000 0.010477
O O11 0.604852 0.395149 0.750000
O O12 0.599225 0.250000 0.669188
O O13 0.165332 0.750000 0.620980
O O14 0.834364 0.334364 0.250000
#
# Coordination Sequence:
#
# PCOD9570455 Si02
#       8
#     8  16   4   8  16   8   4   8
#     4  11  22  40  67  91 127 165 210 269 310 371
#     4  10  22  44  65  89 125 172 209 254 321 377
#     4  12  24  40  62  96 128 164 216 258 310 374
#     4  12  25  41  67  94 130 170 203 263 317 368
#     4  11  23  40  66  94 127 166 213 258 310 374
#     4  11  25  43  64  89 133 166 207 261 316 370
#     4  10  23  44  59  90 124 168 212 244 319 384
#     4   9  23  43  64  91 122 163 216 262 311 375
#
# _framework density 18.156205
#
# number of rings (size 3 to 8) (size 9 to 14) (size 15 to 20)
#    0.000    1.444    4.444    0.667    9.333    3.556 
#    0.000    0.000    0.000    0.000    0.000    0.000 
#    0.000    0.000    0.000    0.000    0.000    0.000 
#
# Total GULP energy -402303.618223 kJ/mol
# GULP energy per Si atom -5587.550253 kJ/mol
# Density = 1.811488 g / cm^3
# Si number density = 18.156205 Si / 1000 Ang^3
#
#
#
# Elastic Constant Matrix: (Units=GPa)
#
#
# Indices 1 2 3 4 5 6 
#
# 1 135.8409 40.7340 44.8762 0.0000 0.0000 0.0000
# 2 40.7340 135.8434 44.8762 0.0000 0.0000 0.0000
# 3 44.8762 44.8762 104.7604 0.0000 0.0000 0.0000
# 4 0.0000 0.0000 0.0000 36.1036 0.0000 0.0000
# 5 0.0000 0.0000 0.0000 0.0000 36.1033 0.0000
# 6 0.0000 0.0000 0.0000 0.0000 0.0000 12.4151
#
#
#
# Elastic Compliance Matrix: (Units=1/GPa)
#
#
# Indices 1 2 3 4 5 6 
#
# 1 0.008877 -0.001637 -0.003101 0.000000 0.000000 0.000000
# 2 -0.001637 0.008877 -0.003101 0.000000 0.000000 0.000000
# 3 -0.003101 -0.003101 0.012203 0.000000 0.000000 0.000000
# 4 0.000000 0.000000 0.000000 0.027698 0.000000 0.000000
# 5 0.000000 0.000000 0.000000 0.000000 0.027698 0.000000
# 6 0.000000 0.000000 0.000000 0.000000 0.000000 0.080547
#
#
# Mechanical properties :
#
#
# Convention : Reuss Voigt Hill
#
# Bulk Modulus (GPa) = 70.04351 70.82416 70.43383
# Shear Modulus (GPa) = 26.83290 33.32163 30.07726
#
# Velocity S-wave (km/s) = 3.84851 4.28866 4.07453
# Velocity P-wave (km/s) = 7.64265 7.97599 7.81109
#
# Compressibility (1/GPa) = 0.01427684
#
# Stress axis : x y z
#
# Youngs Moduli (GPa) = 112.64973 112.65216 81.95012
#
# Poissons Ratio (x) = 0.18445 0.25415
# Poissons Ratio (y) = 0.18445 0.25414
# Poissons Ratio (z) = 0.34936 0.34936
#
# Static dielectric constant tensor:
#      x y z
#    x 1.609320 0.000000 0.000000 
#    y 0.000000 1.609320 0.000000 
#    z 0.000000 0.000000 1.596640 
# 
# From -- ./inp_files/6316.got.cif
#   From: 2010.05.17/outbox.cif.g08.bks.cpg/sg137_4_cif.got.tgz:6316.got - 2010.05.20 13:01:12.
