data_PCOD9570225
_publ_section_title
;
Structure prediction by ZEFSAII (Michael W. Deem and Ramdas Pophale) SiO2 
 PCOD9570225
Probable space group: P 42/N M C
;
_chemical_formula_sum "Si O2"
_cell_formula_units_Z 96
_cell_length_a 24.228288
_cell_length_b 24.228288
_cell_length_c 8.991267
_cell_angle_alpha 90.000000
_cell_angle_beta 90.000000
_cell_angle_gamma 90.000000
_cell_volume 5277.963097
_symmetry_space_group_name_H-M "P 42/N M C"
_symmetry_group_IT_number 137
_space_group.IT_coordinate_system_code '2'
_symmetry_cell_setting 'tetragonal'
loop_
_space_group_symop_operation_xyz
x,y,z
1/2-y,x,1/2+z
1/2-x,1/2-y,z
y,1/2-x,1/2+z
1/2+x,-y,-z
-x,1/2+y,-z
1/2+y,1/2+x,1/2-z
-y,-x,1/2-z
-x,-y,-z
1/2+y,-x,1/2-z
1/2+x,1/2+y,-z
-y,1/2+x,1/2-z
1/2-x,y,z
x,1/2-y,z
1/2-y,1/2-x,1/2+z
y,x,1/2+z
loop_
_atom_site_type_symbol
_atom_site_label
_atom_site_fract_x
_atom_site_fract_y
_atom_site_fract_z
Si Si1 0.860304 0.543870 0.945229
Si Si2 0.913205 0.372561 0.602217
Si Si3 0.750000 0.538807 0.756979
Si Si4 0.568037 0.750000 0.909300
Si Si5 0.250000 0.926225 0.119412
Si Si6 0.364761 0.066028 0.702533
Si Si7 0.750000 0.046321 0.218736
Si Si8 0.634959 0.438025 0.343971
O O1 0.871729 0.477842 0.944225
O O2 0.803680 0.553747 0.854074
O O3 0.904148 0.580701 0.855916
O O4 0.859844 0.561695 0.118453
O O5 0.907476 0.407476 0.750000
O O6 0.896355 0.308591 0.624363
O O7 0.872240 0.403004 0.491049
O O8 0.750000 0.559389 0.587240
O O9 0.750000 0.472024 0.751972
O O10 0.593790 0.808630 0.861195
O O11 0.511095 0.750000 0.810402
O O12 0.250000 0.958482 0.959272
O O13 0.366857 0.003584 0.638703
O O14 0.807184 0.075121 0.263282
O O15 0.582914 0.417087 0.250000
#
# Coordination Sequence:
#
# PCOD9570225 Si02
#       8
#    16  16   8   8   8  16   8  16
#     4  11  23  39  57  87 119 155 188 238 281 340
#     4  11  24  36  58  82 117 149 192 235 296 342
#     4  10  20  36  58  81 116 149 198 229 278 329
#     4  10  20  36  58  85 110 153 194 233 272 339
#     4  10  20  38  54  79 108 152 191 241 281 340
#     4  11  23  37  60  85 121 151 194 231 287 335
#     4  10  20  34  60  77 110 146 199 235 281 340
#     4  11  20  38  56  84 112 152 189 238 287 346
#
# _framework density 18.188835999999998
#
# number of rings (size 3 to 8) (size 9 to 14) (size 15 to 20)
#    0.000    1.333    3.333    4.500   11.667    1.333 
#    0.000    0.000    0.000    3.500    0.000    3.500 
#    0.000    0.000    0.000    0.000    0.000    0.000 
#
# Total GULP energy -534998.607371 kJ/mol
# GULP energy per Si atom -5572.902160 kJ/mol
# Density = 1.814744 g / cm^3
# Si number density = 18.188836 Si / 1000 Ang^3
#
#
#
# Elastic Constant Matrix: (Units=GPa)
#
#
# Indices 1 2 3 4 5 6 
#
# 1 68.5200 35.7632 12.8708 0.0000 0.0000 0.0000
# 2 35.7632 68.5203 12.8717 0.0000 0.0000 0.0000
# 3 12.8708 12.8717 93.7970 0.0000 0.0000 0.0000
# 4 0.0000 0.0000 0.0000 28.5396 0.0000 0.0000
# 5 0.0000 0.0000 0.0000 0.0000 28.5398 0.0000
# 6 0.0000 0.0000 0.0000 0.0000 0.0000 -3.4912
#
#
#
# Elastic Compliance Matrix: (Units=1/GPa)
#
#
# Indices 1 2 3 4 5 6 
#
# 1 0.020227 -0.010301 -0.001362 0.000000 0.000000 0.000000
# 2 -0.010301 0.020227 -0.001362 0.000000 0.000000 0.000000
# 3 -0.001362 -0.001362 0.011035 0.000000 0.000000 0.000000
# 4 0.000000 0.000000 0.000000 0.035039 0.000000 0.000000
# 5 0.000000 0.000000 0.000000 0.000000 0.035039 0.000000
# 6 0.000000 0.000000 0.000000 0.000000 0.000000 -0.286431
#
#
# Mechanical properties :
#
#
# Convention : Reuss Voigt Hill
#
# Bulk Modulus (GPa) = 39.31128 39.31654 39.31391
# Shear Modulus (GPa) = -38.36259 22.00641 -8.17809
#
# Velocity S-wave (km/s) = -4.59751 3.48211 -2.12273
# Velocity P-wave (km/s) = 2.55401 6.15057 3.95642
#
# Compressibility (1/GPa) = 0.02543799
#
# Stress axis : x y z
#
# Youngs Moduli (GPa) = 49.43967 49.43971 90.61976
#
# Poissons Ratio (x) = 0.50929 0.12341
# Poissons Ratio (y) = 0.50929 0.12344
# Poissons Ratio (z) = 0.06733 0.06734
#
# Static dielectric constant tensor:
#      x y z
#    x 1.640870 0.000000 0.000000 
#    y 0.000000 1.640870 0.000000 
#    z 0.000000 0.000000 1.774190 
# 
# From -- ./inp_files/2229.got.cif
#   From: 2010.05.17/outbox.cif.g08.bks.cpg/sg137_2_cif.got.tgz:2229.got - 2010.05.20 13:01:12.
