data_PCOD9570128
_publ_section_title
;
Structure prediction by ZEFSAII (Michael W. Deem and Ramdas Pophale) SiO2 
 PCOD9570128
Probable space group: P 42/N M C
;
_chemical_formula_sum "Si O2"
_cell_formula_units_Z 96
_cell_length_a 18.489654
_cell_length_b 18.489654
_cell_length_c 16.570156
_cell_angle_alpha 90.000000
_cell_angle_beta 90.000000
_cell_angle_gamma 90.000000
_cell_volume 5664.794576
_symmetry_space_group_name_H-M "P 42/N M C"
_symmetry_group_IT_number 137
_space_group.IT_coordinate_system_code '2'
_symmetry_cell_setting 'tetragonal'
loop_
_space_group_symop_operation_xyz
x,y,z
1/2-y,x,1/2+z
1/2-x,1/2-y,z
y,1/2-x,1/2+z
1/2+x,-y,-z
-x,1/2+y,-z
1/2+y,1/2+x,1/2-z
-y,-x,1/2-z
-x,-y,-z
1/2+y,-x,1/2-z
1/2+x,1/2+y,-z
-y,1/2+x,1/2-z
1/2-x,y,z
x,1/2-y,z
1/2-y,1/2-x,1/2+z
y,x,1/2+z
loop_
_atom_site_type_symbol
_atom_site_label
_atom_site_fract_x
_atom_site_fract_y
_atom_site_fract_z
Si Si1 0.169574 0.031570 0.593748
Si Si2 0.164535 0.943549 0.003529
Si Si3 0.482381 0.406555 0.779145
Si Si4 0.058769 0.582281 0.664662
Si Si5 0.669444 0.448054 0.573214
Si Si6 0.164788 0.081099 0.118085
O O1 0.250000 0.017616 0.628735
O O2 0.149591 0.115388 0.597269
O O3 0.103521 0.987854 0.634558
O O4 0.170030 0.000840 0.503695
O O5 0.250000 0.928219 0.007017
O O6 0.116188 0.885616 0.051744
O O7 0.151917 0.019881 0.049226
O O8 0.137252 0.942034 0.910404
O O9 0.556352 0.443649 0.750000
O O10 0.436632 0.475708 0.812144
O O11 0.504307 0.355020 0.851643
O O12 0.447464 0.364273 0.704515
O O13 0.098701 0.598701 0.750000
O O14 0.750000 0.418815 0.585265
O O15 0.250000 0.095209 0.121807
#
# Coordination Sequence:
#
# PCOD9570128 Si02
#       6
#    16  16  16  16  16  16
#     4  10  20  35  54  77 104 141 184 221 265 321
#     4  10  21  35  54  80 109 141 182 226 269 318
#     4  11  18  33  56  82 108 136 177 227 268 319
#     4  10  19  35  56  79 105 140 180 230 270 311
#     4  10  20  34  55  78 107 144 179 218 268 325
#     4  11  21  35  55  82 112 144 178 221 275 327
#
# _framework density 16.946774999999999
#
# number of rings (size 3 to 8) (size 9 to 14) (size 15 to 20)
#    0.000    1.667    5.000    1.500    0.000    4.000 
#    0.000    0.000    0.000    0.000    0.000    4.667 
#    0.000    0.000    0.000    0.000    0.000    0.000 
#
# Total GULP energy -534749.913365 kJ/mol
# GULP energy per Si atom -5570.311598 kJ/mol
# Density = 1.690820 g / cm^3
# Si number density = 16.946775 Si / 1000 Ang^3
#
#
#
# Elastic Constant Matrix: (Units=GPa)
#
#
# Indices 1 2 3 4 5 6 
#
# 1 66.4437 25.2960 18.4344 0.0000 0.0000 0.0000
# 2 25.2960 66.4454 18.4355 0.0000 0.0000 0.0000
# 3 18.4344 18.4355 80.3361 0.0000 0.0000 0.0000
# 4 0.0000 0.0000 0.0000 20.2311 0.0000 0.0000
# 5 0.0000 0.0000 0.0000 0.0000 20.2310 0.0000
# 6 0.0000 0.0000 0.0000 0.0000 0.0000 14.7667
#
#
#
# Elastic Compliance Matrix: (Units=1/GPa)
#
#
# Indices 1 2 3 4 5 6 
#
# 1 0.018155 -0.006147 -0.002755 0.000000 0.000000 0.000000
# 2 -0.006147 0.018155 -0.002756 0.000000 0.000000 0.000000
# 3 -0.002755 -0.002756 0.013712 0.000000 0.000000 0.000000
# 4 0.000000 0.000000 0.000000 0.049429 0.000000 0.000000
# 5 0.000000 0.000000 0.000000 0.000000 0.049429 0.000000
# 6 0.000000 0.000000 0.000000 0.000000 0.000000 0.067720
#
#
# Mechanical properties :
#
#
# Convention : Reuss Voigt Hill
#
# Bulk Modulus (GPa) = 37.44487 37.50634 37.47560
# Shear Modulus (GPa) = 20.09497 21.11637 20.60567
#
# Velocity S-wave (km/s) = 3.44724 3.53376 3.49077
# Velocity P-wave (km/s) = 6.16345 6.23136 6.19750
#
# Compressibility (1/GPa) = 0.02670593
#
# Stress axis : x y z
#
# Youngs Moduli (GPa) = 55.08091 55.08198 72.92726
#
# Poissons Ratio (x) = 0.33860 0.20094
# Poissons Ratio (y) = 0.33860 0.20096
# Poissons Ratio (z) = 0.15177 0.15178
#
# Static dielectric constant tensor:
#      x y z
#    x 1.573500 0.000000 0.000000 
#    y 0.000000 1.573500 0.000000 
#    z 0.000000 0.000000 1.601080 
# 
# From -- ./inp_files/6459.got.cif
#   From: 2010.05.17/outbox.cif.g08.bks.cpg/sg137_4_cif.got.tgz:6459.got - 2010.05.20 13:01:12.
