data_PCOD9570072
_publ_section_title
;
Structure prediction by ZEFSAII (Michael W. Deem and Ramdas Pophale) SiO2 
 PCOD9570072
Probable space group: P 42/N M C
;
_chemical_formula_sum "Si O2"
_cell_formula_units_Z 112
_cell_length_a 18.807464
_cell_length_b 18.807464
_cell_length_c 15.792065
_cell_angle_alpha 90.000000
_cell_angle_beta 90.000000
_cell_angle_gamma 90.000000
_cell_volume 5585.980320
_symmetry_space_group_name_H-M "P 42/N M C"
_symmetry_group_IT_number 137
_space_group.IT_coordinate_system_code '2'
_symmetry_cell_setting 'tetragonal'
loop_
_space_group_symop_operation_xyz
x,y,z
1/2-y,x,1/2+z
1/2-x,1/2-y,z
y,1/2-x,1/2+z
1/2+x,-y,-z
-x,1/2+y,-z
1/2+y,1/2+x,1/2-z
-y,-x,1/2-z
-x,-y,-z
1/2+y,-x,1/2-z
1/2+x,1/2+y,-z
-y,1/2+x,1/2-z
1/2-x,y,z
x,1/2-y,z
1/2-y,1/2-x,1/2+z
y,x,1/2+z
loop_
_atom_site_type_symbol
_atom_site_label
_atom_site_fract_x
_atom_site_fract_y
_atom_site_fract_z
Si Si1 0.611293 0.674190 0.379716
Si Si2 0.667724 0.449495 0.928368
Si Si3 0.671120 0.528558 0.401354
Si Si4 0.670148 0.892857 0.679376
Si Si5 0.538032 0.434173 0.415720
Si Si6 0.476365 0.171405 0.302921
Si Si7 0.468547 0.919281 0.158368
O O1 0.633624 0.750000 0.416173
O O2 0.526334 0.668626 0.383711
O O3 0.647256 0.607919 0.424950
O O4 0.626021 0.674308 0.279392
O O5 0.750000 0.425032 0.934717
O O6 0.610043 0.402418 0.877129
O O7 0.628766 0.466885 0.016403
O O8 0.750000 0.512224 0.431759
O O9 0.611919 0.473554 0.428988
O O10 0.670946 0.529097 0.298690
O O11 0.750000 0.881544 0.644556
O O12 0.600021 0.847835 0.654084
O O13 0.644445 0.974794 0.667622
O O14 0.529876 0.390196 0.329157
O O15 0.476642 0.494069 0.405073
O O16 0.498451 0.250000 0.329560
O O17 0.456402 0.956402 0.250000
#
# Coordination Sequence:
#
# PCOD9570072 Si02
#       7
#    16  16  16  16  16  16  16
#     4   9  17  31  51  79 111 140 176 219 270 336
#     4  11  22  35  56  81 108 145 185 228 281 333
#     4  10  19  32  53  79 109 146 184 228 278 327
#     4   9  17  30  51  80 110 140 176 223 275 320
#     4  11  20  34  54  81 111 145 183 233 276 330
#     4   9  18  32  53  80 110 145 183 225 275 332
#     4  11  19  33  57  81 109 142 186 238 276 320
#
# _framework density 20.050197000000001
#
# number of rings (size 3 to 8) (size 9 to 14) (size 15 to 20)
#    0.000    2.000    2.857    3.000    0.000    0.571 
#    0.000    3.571    0.000    3.000    0.000    7.000 
#    0.000    0.000    0.000    0.000    0.000    0.000 
#
# Total GULP energy -624185.449670 kJ/mol
# GULP energy per Si atom -5573.084372 kJ/mol
# Density = 2.000456 g / cm^3
# Si number density = 20.050197 Si / 1000 Ang^3
#
#
#
# Elastic Constant Matrix: (Units=GPa)
#
#
# Indices 1 2 3 4 5 6 
#
# 1 89.2112 19.3245 5.4867 0.0000 0.0000 0.0000
# 2 19.3245 89.2112 5.4867 0.0000 0.0000 0.0000
# 3 5.4867 5.4867 28.6032 0.0000 0.0000 0.0000
# 4 0.0000 0.0000 0.0000 11.5407 0.0000 0.0000
# 5 0.0000 0.0000 0.0000 0.0000 11.5407 0.0000
# 6 0.0000 0.0000 0.0000 0.0000 0.0000 17.9920
#
#
#
# Elastic Compliance Matrix: (Units=1/GPa)
#
#
# Indices 1 2 3 4 5 6 
#
# 1 0.011852 -0.002457 -0.001802 0.000000 0.000000 0.000000
# 2 -0.002457 0.011852 -0.001802 0.000000 0.000000 0.000000
# 3 -0.001802 -0.001802 0.035653 0.000000 0.000000 0.000000
# 4 0.000000 0.000000 0.000000 0.086650 0.000000 0.000000
# 5 0.000000 0.000000 0.000000 0.000000 0.086650 0.000000
# 6 0.000000 0.000000 0.000000 0.000000 0.000000 0.055580
#
#
# Mechanical properties :
#
#
# Convention : Reuss Voigt Hill
#
# Bulk Modulus (GPa) = 21.17078 29.73570 25.45324
# Shear Modulus (GPa) = 15.81755 19.99653 17.90704
#
# Velocity S-wave (km/s) = 2.81178 3.16147 2.99174
# Velocity P-wave (km/s) = 4.59601 5.30936 4.96551
#
# Compressibility (1/GPa) = 0.04723492
#
# Stress axis : x y z
#
# Youngs Moduli (GPa) = 84.37168 84.37168 28.04847
#
# Poissons Ratio (x) = 0.20726 0.05055
# Poissons Ratio (y) = 0.20726 0.05055
# Poissons Ratio (z) = 0.15206 0.15206
#
# Static dielectric constant tensor:
#      x y z
#    x 1.719170 0.000000 0.000000 
#    y 0.000000 1.719170 0.000000 
#    z 0.000000 0.000000 1.791300 
# 
# From -- ./inp_files/8069.got.cif
#   From: 2010.05.17/outbox.cif.g08.bks.cpg/sg137_5_cif.got.tgz:8069.got - 2010.05.20 13:01:12.
