data_PCOD9570329
_publ_section_title
;
Structure prediction by ZEFSAII (Michael W. Deem and Ramdas Pophale) SiO2 
 PCOD9570329
Probable space group: P 42/N M C
;
_chemical_formula_sum "Si O2"
_cell_formula_units_Z 96
_cell_length_a 14.672913
_cell_length_b 14.672913
_cell_length_c 21.871823
_cell_angle_alpha 90.000000
_cell_angle_beta 90.000000
_cell_angle_gamma 90.000000
_cell_volume 4708.880483
_symmetry_space_group_name_H-M "P 42/N M C"
_symmetry_group_IT_number 137
_space_group.IT_coordinate_system_code '2'
_symmetry_cell_setting 'tetragonal'
loop_
_space_group_symop_operation_xyz
x,y,z
1/2-y,x,1/2+z
1/2-x,1/2-y,z
y,1/2-x,1/2+z
1/2+x,-y,-z
-x,1/2+y,-z
1/2+y,1/2+x,1/2-z
-y,-x,1/2-z
-x,-y,-z
1/2+y,-x,1/2-z
1/2+x,1/2+y,-z
-y,1/2+x,1/2-z
1/2-x,y,z
x,1/2-y,z
1/2-y,1/2-x,1/2+z
y,x,1/2+z
loop_
_atom_site_type_symbol
_atom_site_label
_atom_site_fract_x
_atom_site_fract_y
_atom_site_fract_z
Si Si1 0.597675 0.351005 0.456068
Si Si2 0.644400 0.465689 0.904244
Si Si3 0.045905 0.642531 0.199911
Si Si4 0.650298 0.646295 0.208818
Si Si5 0.113513 0.351617 0.433688
Si Si6 0.347993 0.447256 0.556493
O O1 0.635467 0.250000 0.441327
O O2 0.581831 0.354957 0.529208
O O3 0.495551 0.356394 0.429268
O O4 0.645495 0.443805 0.436327
O O5 0.750000 0.468627 0.882842
O O6 0.578497 0.410210 0.859935
O O7 0.604050 0.566741 0.913620
O O8 0.121922 0.621922 0.250000
O O9 0.037624 0.750000 0.188100
O O10 0.948309 0.607589 0.226426
O O11 0.750000 0.603942 0.222649
O O12 0.653210 0.750000 0.232149
O O13 0.642163 0.649762 0.134732
O O14 0.136267 0.250000 0.457795
O O15 0.144900 0.423370 0.484017
O O16 0.250000 0.414712 0.579259
#
# Coordination Sequence:
#
# PCOD9570329 Si02
#       6
#    16  16  16  16  16  16
#     4   9  18  31  47  70 103 141 178 216 257 304
#     4  10  21  36  52  74 106 140 177 221 265 312
#     4  11  23  39  59  80 102 131 172 222 271 317
#     4   9  17  30  51  79 106 131 163 206 255 306
#     4   9  16  28  49  74 101 135 173 210 247 297
#     4  11  20  30  48  74 108 147 179 209 252 309
#
# _framework density 20.387013
#
# number of rings (size 3 to 8) (size 9 to 14) (size 15 to 20)
#    0.000    2.167    0.000    6.500    0.000    5.500 
#    0.000    2.500    0.000    2.000    0.000    0.000 
#    0.000    1.667    0.000    0.000    0.000    0.000 
#
# Total GULP energy -535365.223431 kJ/mol
# GULP energy per Si atom -5576.721077 kJ/mol
# Density = 2.034061 g / cm^3
# Si number density = 20.387013 Si / 1000 Ang^3
#
#
#
# Elastic Constant Matrix: (Units=GPa)
#
#
# Indices 1 2 3 4 5 6 
#
# 1 97.1126 33.1378 -1.4896 0.0000 0.0000 0.0000
# 2 33.1378 97.1126 -1.4896 0.0000 0.0000 0.0000
# 3 -1.4896 -1.4896 3.9875 0.0000 0.0000 0.0000
# 4 0.0000 0.0000 0.0000 23.8640 0.0000 0.0000
# 5 0.0000 0.0000 0.0000 0.0000 23.8640 0.0000
# 6 0.0000 0.0000 0.0000 0.0000 0.0000 -9.4356
#
#
#
# Elastic Compliance Matrix: (Units=1/GPa)
#
#
# Indices 1 2 3 4 5 6 
#
# 1 0.011687 -0.003944 0.002893 0.000000 0.000000 0.000000
# 2 -0.003944 0.011687 0.002893 0.000000 0.000000 0.000000
# 3 0.002893 0.002893 0.252946 0.000000 0.000000 0.000000
# 4 0.000000 0.000000 0.000000 0.041904 0.000000 0.000000
# 5 0.000000 0.000000 0.000000 0.000000 0.041904 0.000000
# 6 0.000000 0.000000 0.000000 0.000000 0.000000 -0.105982
#
#
# Mechanical properties :
#
#
# Convention : Reuss Voigt Hill
#
# Bulk Modulus (GPa) = 3.57137 28.72555 16.14846
# Shear Modulus (GPa) = 14.54339 18.86209 16.70274
#
# Velocity S-wave (km/s) = 2.67379 3.04501 2.86542
# Velocity P-wave (km/s) = 3.35973 5.14621 4.34576
#
# Compressibility (1/GPa) = 0.28000465
#
# Stress axis : x y z
#
# Youngs Moduli (GPa) = 85.56205 85.56205 3.95341
#
# Poissons Ratio (x) = 0.33743 -0.01144
# Poissons Ratio (y) = 0.33743 -0.01144
# Poissons Ratio (z) = -0.24751 -0.24751
#
# Static dielectric constant tensor:
#      x y z
#    x 1.762120 0.000000 0.000000 
#    y 0.000000 1.762120 0.000000 
#    z 0.000000 0.000000 1.717770 
# 
# From -- ./inp_files/7835.got.cif
#   From: 2010.05.17/outbox.cif.g08.bks.cpg/sg137_4_cif.got.tgz:7835.got - 2010.05.20 13:01:12.
