data_PCOD9570808
_publ_section_title
;
Structure prediction by ZEFSAII (Michael W. Deem and Ramdas Pophale) SiO2 
 PCOD9570808
Probable space group: P 42/N C M
;
_chemical_formula_sum "Si O2"
_cell_formula_units_Z 64
_cell_length_a 11.576823
_cell_length_b 11.576823
_cell_length_c 22.549348
_cell_angle_alpha 90.000000
_cell_angle_beta 90.000000
_cell_angle_gamma 90.000000
_cell_volume 3022.127451
_symmetry_space_group_name_H-M "P 42/N C M"
_symmetry_group_IT_number 138
_space_group.IT_coordinate_system_code '2'
_symmetry_cell_setting 'tetragonal'
loop_
_space_group_symop_operation_xyz
x,y,z
1/2-y,x,1/2+z
1/2-x,1/2-y,z
y,1/2-x,1/2+z
1/2+x,-y,1/2-z
-x,1/2+y,1/2-z
1/2+y,1/2+x,-z
-y,-x,-z
-x,-y,-z
1/2+y,-x,1/2-z
1/2+x,1/2+y,-z
-y,1/2+x,1/2-z
1/2-x,y,1/2+z
x,1/2-y,1/2+z
1/2-y,1/2-x,z
y,x,z
loop_
_atom_site_type_symbol
_atom_site_label
_atom_site_fract_x
_atom_site_fract_y
_atom_site_fract_z
Si Si1 0.296103 0.933372 0.759286
Si Si2 0.545008 0.134584 0.437023
Si Si3 0.885958 0.436165 0.108627
Si Si4 0.707687 0.529751 0.864532
O O1 0.377578 0.830328 0.735296
O O2 0.344776 0.962573 0.823711
O O3 0.288231 0.026009 0.707014
O O4 0.593145 0.093145 0.500000
O O5 0.573986 0.268186 0.427644
O O6 0.615255 0.063192 0.387962
O O7 0.412428 0.087573 0.433368
O O8 0.974125 0.327593 0.112482
O O9 0.957363 0.542638 0.084258
O O10 0.653308 0.653308 0.883420
#
# Coordination Sequence:
#
# PCOD9570808 Si02
#       4
#    16  16  16  16
#     4   9  16  31  57  88 123 163 210 260 305 360
#     4  10  22  42  66  88 114 157 210 263 316 377
#     4  11  22  36  59  93 128 161 205 262 319 378
#     4  10  20  36  58  85 124 172 214 252 302 371
#
# _framework density 21.177133000000001
#
# number of rings (size 3 to 8) (size 9 to 14) (size 15 to 20)
#    0.000    2.000    2.500    1.500    0.000    3.000 
#    0.000    2.500    0.000    7.500    0.000    0.000 
#    0.000    0.000    0.000    0.000    0.000    0.000 
#
# Total GULP energy -356676.989202 kJ/mol
# GULP energy per Si atom -5573.077956 kJ/mol
# Density = 2.112893 g / cm^3
# Si number density = 21.177133 Si / 1000 Ang^3
#
#
#
# Elastic Constant Matrix: (Units=GPa)
#
#
# Indices 1 2 3 4 5 6 
#
# 1 63.1982 74.0537 19.4863 0.0000 0.0000 0.0000
# 2 74.0537 63.1982 19.4863 0.0000 0.0000 0.0000
# 3 19.4863 19.4863 62.2807 0.0000 0.0000 0.0000
# 4 0.0000 0.0000 0.0000 -7.9974 0.0000 0.0000
# 5 0.0000 0.0000 0.0000 0.0000 -7.9974 0.0000
# 6 0.0000 0.0000 0.0000 0.0000 0.0000 7.5761
#
#
#
# Elastic Compliance Matrix: (Units=1/GPa)
#
#
# Indices 1 2 3 4 5 6 
#
# 1 -0.042061 0.050058 -0.002502 0.000000 0.000000 0.000000
# 2 0.050058 -0.042061 -0.002502 0.000000 0.000000 0.000000
# 3 -0.002502 -0.002502 0.017622 0.000000 0.000000 0.000000
# 4 0.000000 0.000000 0.000000 -0.125041 0.000000 0.000000
# 5 0.000000 0.000000 0.000000 0.000000 -0.125041 0.000000
# 6 0.000000 0.000000 0.000000 0.000000 0.000000 0.131994
#
#
# Mechanical properties :
#
#
# Convention : Reuss Voigt Hill
#
# Bulk Modulus (GPa) = 42.36032 46.08107 44.22069
# Shear Modulus (GPa) = -18.73860 3.35967 -7.68946
#
# Velocity S-wave (km/s) = -2.97787 1.26091 -1.90759
# Velocity P-wave (km/s) = 2.86752 4.89152 4.00934
#
# Compressibility (1/GPa) = 0.02360700
#
# Stress axis : x y z
#
# Youngs Moduli (GPa) = -23.77478 -23.77478 56.74758
#
# Poissons Ratio (x) = 1.19011 0.14197
# Poissons Ratio (y) = 1.19011 0.14197
# Poissons Ratio (z) = -0.05948 -0.05948
#
# Static dielectric constant tensor:
#      x y z
#    x 1.775090 0.000000 0.000000 
#    y 0.000000 1.775090 0.000000 
#    z 0.000000 0.000000 1.818460 
# 
# From -- ./inp_files/5860.got.cif
#   From: 2010.05.17/outbox.cif.g08.bks.cpg/sg138_3_cif.got.tgz:5860.got - 2010.05.20 13:08:53.
