data_PCOD9570269
_publ_section_title
;
Structure prediction by ZEFSAII (Michael W. Deem and Ramdas Pophale) SiO2 
 PCOD9570269
Probable space group: P 42/N M C
;
_chemical_formula_sum "Si O2"
_cell_formula_units_Z 80
_cell_length_a 24.329423
_cell_length_b 24.329423
_cell_length_c 7.839765
_cell_angle_alpha 90.000000
_cell_angle_beta 90.000000
_cell_angle_gamma 90.000000
_cell_volume 4640.520155
_symmetry_space_group_name_H-M "P 42/N M C"
_symmetry_group_IT_number 137
_space_group.IT_coordinate_system_code '2'
_symmetry_cell_setting 'tetragonal'
loop_
_space_group_symop_operation_xyz
x,y,z
1/2-y,x,1/2+z
1/2-x,1/2-y,z
y,1/2-x,1/2+z
1/2+x,-y,-z
-x,1/2+y,-z
1/2+y,1/2+x,1/2-z
-y,-x,1/2-z
-x,-y,-z
1/2+y,-x,1/2-z
1/2+x,1/2+y,-z
-y,1/2+x,1/2-z
1/2-x,y,z
x,1/2-y,z
1/2-y,1/2-x,1/2+z
y,x,1/2+z
loop_
_atom_site_type_symbol
_atom_site_label
_atom_site_fract_x
_atom_site_fract_y
_atom_site_fract_z
Si Si1 0.750000 0.063878 0.468597
Si Si2 0.996383 0.750000 0.637251
Si Si3 0.870085 0.542824 0.741192
Si Si4 0.632071 0.420588 0.586495
Si Si5 0.429589 0.929589 0.750000
Si Si6 0.250000 0.028451 0.248837
Si Si7 0.462266 0.375941 0.364081
O O1 0.805943 0.091637 0.528607
O O2 0.750000 0.047241 0.269429
O O3 0.750000 0.008423 0.582534
O O4 0.005804 0.750000 0.431155
O O5 0.967246 0.690070 0.670750
O O6 0.874186 0.485914 0.633817
O O7 0.806537 0.560596 0.747768
O O8 0.905744 0.593500 0.677088
O O9 0.884950 0.527569 0.935102
O O10 0.612871 0.387130 0.750000
O O11 0.595635 0.406576 0.423348
O O12 0.492650 0.910981 0.740220
#
# Coordination Sequence:
#
# PCOD9570269 Si02
#       7
#     8   8  16  16   8   8  16
#     4  10  20  36  60  75 109 150 184 222 274 333
#     4  10  20  38  52  77 109 149 191 220 273 336
#     4  10  21  36  53  81 113 147 185 229 280 331
#     4  11  22  37  55  87 112 144 186 226 278 337
#     4  12  22  34  54  80 116 147 176 224 279 332
#     4   8  20  36  54  75 106 146 193 230 263 329
#     4  11  22  34  55  80 114 149 183 231 279 339
#
# _framework density 17.239446999999998
#
# number of rings (size 3 to 8) (size 9 to 14) (size 15 to 20)
#    0.000    1.600    4.000    1.200    4.200    1.600 
#    0.000    0.000    0.000    0.900    0.000    4.200 
#    0.000    0.400    0.000    0.000    0.000    0.000 
#
# Total GULP energy -445418.133525 kJ/mol
# GULP energy per Si atom -5567.726669 kJ/mol
# Density = 1.720021 g / cm^3
# Si number density = 17.239447 Si / 1000 Ang^3
#
#
#
# Elastic Constant Matrix: (Units=GPa)
#
#
# Indices 1 2 3 4 5 6 
#
# 1 69.8744 34.8543 23.6489 0.0000 0.0000 0.0000
# 2 34.8543 69.8737 23.6487 0.0000 0.0000 0.0000
# 3 23.6489 23.6487 97.0134 0.0000 0.0000 0.0000
# 4 0.0000 0.0000 0.0000 20.8110 0.0000 0.0000
# 5 0.0000 0.0000 0.0000 0.0000 20.8110 0.0000
# 6 0.0000 0.0000 0.0000 0.0000 0.0000 0.7596
#
#
#
# Elastic Compliance Matrix: (Units=1/GPa)
#
#
# Indices 1 2 3 4 5 6 
#
# 1 0.019642 -0.008913 -0.002616 0.000000 0.000000 0.000000
# 2 -0.008913 0.019643 -0.002616 0.000000 0.000000 0.000000
# 3 -0.002616 -0.002616 0.011583 0.000000 0.000000 0.000000
# 4 0.000000 0.000000 0.000000 0.048052 0.000000 0.000000
# 5 0.000000 0.000000 0.000000 0.000000 0.048052 0.000000
# 6 0.000000 0.000000 0.000000 0.000000 0.000000 1.316482
#
#
# Mechanical properties :
#
#
# Convention : Reuss Voigt Hill
#
# Bulk Modulus (GPa) = 44.28645 44.56280 44.42462
# Shear Modulus (GPa) = 3.33496 18.78362 11.05929
#
# Velocity S-wave (km/s) = 1.39237 3.30445 2.53555
# Velocity P-wave (km/s) = 5.32257 6.36118 5.86491
#
# Compressibility (1/GPa) = 0.02258027
#
# Stress axis : x y z
#
# Youngs Moduli (GPa) = 50.91014 50.90968 86.33310
#
# Poissons Ratio (x) = 0.45375 0.22581
# Poissons Ratio (y) = 0.45375 0.22581
# Poissons Ratio (z) = 0.13316 0.13316
#
# Static dielectric constant tensor:
#      x y z
#    x 1.604160 0.000000 0.000000 
#    y 0.000000 1.604160 0.000000 
#    z 0.000000 0.000000 1.619510 
# 
# From -- ./inp_files/2106.got.cif
#   From: 2010.05.17/outbox.cif.g08.bks.cpg/sg137_2_cif.got.tgz:2106.got - 2010.05.20 13:01:12.
