data_PCOD9570200
_publ_section_title
;
Structure prediction by ZEFSAII (Michael W. Deem and Ramdas Pophale) SiO2 
 PCOD9570200
Probable space group: P 42/N M C
;
_chemical_formula_sum "Si O2"
_cell_formula_units_Z 56
_cell_length_a 10.227700
_cell_length_b 10.227700
_cell_length_c 33.523469
_cell_angle_alpha 90.000000
_cell_angle_beta 90.000000
_cell_angle_gamma 90.000000
_cell_volume 3506.750879
_symmetry_space_group_name_H-M "P 42/N M C"
_symmetry_group_IT_number 137
_space_group.IT_coordinate_system_code '2'
_symmetry_cell_setting 'tetragonal'
loop_
_space_group_symop_operation_xyz
x,y,z
1/2-y,x,1/2+z
1/2-x,1/2-y,z
y,1/2-x,1/2+z
1/2+x,-y,-z
-x,1/2+y,-z
1/2+y,1/2+x,1/2-z
-y,-x,1/2-z
-x,-y,-z
1/2+y,-x,1/2-z
1/2+x,1/2+y,-z
-y,1/2+x,1/2-z
1/2-x,y,z
x,1/2-y,z
1/2-y,1/2-x,1/2+z
y,x,1/2+z
loop_
_atom_site_type_symbol
_atom_site_label
_atom_site_fract_x
_atom_site_fract_y
_atom_site_fract_z
Si Si1 0.750000 0.902278 0.530443
Si Si2 0.406237 0.906237 0.250000
Si Si3 0.598090 0.985186 0.092283
Si Si4 0.591229 0.404531 0.662200
Si Si5 0.099156 0.750000 0.956784
O O1 0.750000 0.750000 0.517477
O O2 0.625108 0.923638 0.558707
O O3 0.750000 0.999276 0.493334
O O4 0.426717 0.750000 0.250233
O O5 0.450705 0.953579 0.206514
O O6 0.750000 0.972746 0.105743
O O7 0.581293 0.123239 0.070639
O O8 0.496969 0.964669 0.128038
O O9 0.750000 0.412410 0.660985
O O10 0.558706 0.250000 0.657035
O O11 0.250000 0.750000 0.971507
#
# Coordination Sequence:
#
# PCOD9570200 Si02
#       5
#     8   8  16  16   8
#     4  10  20  34  52  74  98 126 170 212 244 290
#     4   7  12  24  44  72 101 122 150 202 249 288
#     4  10  20  34  51  73 100 133 165 202 249 296
#     4   9  16  28  50  77  99 124 162 202 247 293
#     4  10  22  36  50  70 100 138 166 202 250 292
#
# _framework density 15.969200000000001
#
# number of rings (size 3 to 8) (size 9 to 14) (size 15 to 20)
#    0.000    2.714    1.429    2.571    0.000    2.286 
#    0.000    0.000    3.143    0.000    0.000    0.000 
#    0.000    0.000    0.000    0.000    0.000    0.000 
#
# Total GULP energy -311853.198079 kJ/mol
# GULP energy per Si atom -5568.807109 kJ/mol
# Density = 1.593285 g / cm^3
# Si number density = 15.969200 Si / 1000 Ang^3
#
#
#
# Elastic Constant Matrix: (Units=GPa)
#
#
# Indices 1 2 3 4 5 6 
#
# 1 89.1533 44.7787 77.1281 0.0000 0.0000 0.0000
# 2 44.7787 89.1533 77.1281 0.0000 0.0000 0.0000
# 3 77.1281 77.1281 154.2297 0.0000 0.0000 0.0000
# 4 0.0000 0.0000 0.0000 6.4922 0.0000 0.0000
# 5 0.0000 0.0000 0.0000 0.0000 6.4922 0.0000
# 6 0.0000 0.0000 0.0000 0.0000 0.0000 23.3425
#
#
#
# Elastic Compliance Matrix: (Units=1/GPa)
#
#
# Indices 1 2 3 4 5 6 
#
# 1 0.020072 -0.002463 -0.008806 0.000000 0.000000 0.000000
# 2 -0.002463 0.020072 -0.008806 0.000000 0.000000 0.000000
# 3 -0.008806 -0.008806 0.015291 0.000000 0.000000 0.000000
# 4 0.000000 0.000000 0.000000 0.154032 0.000000 0.000000
# 5 0.000000 0.000000 0.000000 0.000000 0.154032 0.000000
# 6 0.000000 0.000000 0.000000 0.000000 0.000000 0.042840
#
#
# Mechanical properties :
#
#
# Convention : Reuss Voigt Hill
#
# Bulk Modulus (GPa) = 65.42330 81.17843 73.30087
# Shear Modulus (GPa) = 11.07215 16.16546 13.61880
#
# Velocity S-wave (km/s) = 2.63600 3.18510 2.92347
# Velocity P-wave (km/s) = 7.09380 8.02940 7.57606
#
# Compressibility (1/GPa) = 0.01528507
#
# Stress axis : x y z
#
# Youngs Moduli (GPa) = 49.82073 49.82073 65.39746
#
# Poissons Ratio (x) = 0.12273 0.57587
# Poissons Ratio (y) = 0.12273 0.57587
# Poissons Ratio (z) = 0.43871 0.43871
#
# Static dielectric constant tensor:
#      x y z
#    x 1.501540 0.000000 0.000000 
#    y 0.000000 1.501540 0.000000 
#    z 0.000000 0.000000 1.532470 
# 
# From -- ./inp_files/9396.got.cif
#   From: 2010.05.17/outbox.cif.g08.bks.cpg/sg137_5_cif.got.tgz:9396.got - 2010.05.20 13:01:12.
