data_PCOD9570360
_publ_section_title
;
Structure prediction by ZEFSAII (Michael W. Deem and Ramdas Pophale) SiO2 
 PCOD9570360
Probable space group: P 42/N M C
;
_chemical_formula_sum "Si O2"
_cell_formula_units_Z 56
_cell_length_a 23.399163
_cell_length_b 23.399163
_cell_length_c 5.084404
_cell_angle_alpha 90.000000
_cell_angle_beta 90.000000
_cell_angle_gamma 90.000000
_cell_volume 2783.817094
_symmetry_space_group_name_H-M "P 42/N M C"
_symmetry_group_IT_number 137
_space_group.IT_coordinate_system_code '2'
_symmetry_cell_setting 'tetragonal'
loop_
_space_group_symop_operation_xyz
x,y,z
1/2-y,x,1/2+z
1/2-x,1/2-y,z
y,1/2-x,1/2+z
1/2+x,-y,-z
-x,1/2+y,-z
1/2+y,1/2+x,1/2-z
-y,-x,1/2-z
-x,-y,-z
1/2+y,-x,1/2-z
1/2+x,1/2+y,-z
-y,1/2+x,1/2-z
1/2-x,y,z
x,1/2-y,z
1/2-y,1/2-x,1/2+z
y,x,1/2+z
loop_
_atom_site_type_symbol
_atom_site_label
_atom_site_fract_x
_atom_site_fract_y
_atom_site_fract_z
Si Si1 0.125135 0.317818 0.509754
Si Si2 0.418600 0.581401 0.250000
Si Si3 0.867530 0.185193 0.989717
Si Si4 0.587409 0.965237 0.054956
O O1 0.119613 0.250000 0.484333
O O2 0.164362 0.345027 0.281804
O O3 0.064684 0.351220 0.488618
O O4 0.417365 0.641098 0.089707
O O5 0.470831 0.583043 0.450664
O O6 0.823092 0.176909 0.750000
O O7 0.886295 0.250000 0.015915
O O8 0.837376 0.162625 0.250000
O O9 0.545074 0.930890 0.855424
#
# Coordination Sequence:
#
# PCOD9570360 Si02
#       4
#    16   8  16  16
#     4  10  21  37  57  85 117 153 191 235 287 340
#     4  10  24  38  65  86 118 150 208 232 299 354
#     4  10  23  39  59  85 115 150 192 240 294 347
#     4  10  22  38  61  86 119 154 193 243 293 341
#
# _framework density 20.116264000000001
#
# number of rings (size 3 to 8) (size 9 to 14) (size 15 to 20)
#    0.857    1.143    0.000    2.571    4.000    4.571 
#    0.000    0.000    0.000    0.000    0.000    0.000 
#    0.000    0.000    0.000    0.000    0.000    0.000 
#
# Total GULP energy -312656.159602 kJ/mol
# GULP energy per Si atom -5583.145707 kJ/mol
# Density = 2.007048 g / cm^3
# Si number density = 20.116264 Si / 1000 Ang^3
#
#
#
# Elastic Constant Matrix: (Units=GPa)
#
#
# Indices 1 2 3 4 5 6 
#
# 1 7.4377 122.8159 -14.8040 0.0000 0.0000 0.0000
# 2 122.8159 7.4312 -14.8075 0.0000 0.0000 0.0000
# 3 -14.8040 -14.8075 76.6457 0.0000 0.0000 0.0000
# 4 0.0000 0.0000 0.0000 39.4980 0.0000 0.0000
# 5 0.0000 0.0000 0.0000 0.0000 39.5100 0.0000
# 6 0.0000 0.0000 0.0000 0.0000 0.0000 8.0550
#
#
#
# Elastic Compliance Matrix: (Units=1/GPa)
#
#
# Indices 1 2 3 4 5 6 
#
# 1 -0.000318 0.008349 0.001551 0.000000 0.000000 0.000000
# 2 0.008349 -0.000319 0.001551 0.000000 0.000000 0.000000
# 3 0.001551 0.001551 0.013646 0.000000 0.000000 0.000000
# 4 0.000000 0.000000 0.000000 0.025318 0.000000 0.000000
# 5 0.000000 0.000000 0.000000 0.000000 0.025310 0.000000
# 6 0.000000 0.000000 0.000000 0.000000 0.000000 0.124147
#
#
# Mechanical properties :
#
#
# Convention : Reuss Voigt Hill
#
# Bulk Modulus (GPa) = 27.84623 30.88037 29.36330
# Shear Modulus (GPa) = 28.27215 17.29996 22.78605
#
# Velocity S-wave (km/s) = 3.75298 2.93575 3.36924
# Velocity P-wave (km/s) = 5.71424 5.18419 5.45566
#
# Compressibility (1/GPa) = 0.03591150
#
# Stress axis : x y z
#
# Youngs Moduli (GPa) = -3143.73718 -3138.38958 73.27971
#
# Poissons Ratio (x) = 26.20097 -0.11369
# Poissons Ratio (y) = 26.24562 -0.11365
# Poissons Ratio (z) = 4.87735 4.86749
#
# Static dielectric constant tensor:
#      x y z
#    x 1.702660 0.000000 0.000000 
#    y 0.000000 1.702660 0.000000 
#    z 0.000000 0.000000 1.711710 
# 
# From -- ./inp_files/416.got.cif
#   From: 2010.05.17/outbox.cif.g08.bks.cpg/sg137_1_cif.got.tgz:416.got - 2010.05.20 13:01:12.
