data_PCOD9570728
_publ_section_title
;
Structure prediction by ZEFSAII (Michael W. Deem and Ramdas Pophale) SiO2 
 PCOD9570728
Probable space group: P 42/N C M
;
_chemical_formula_sum "Si O2"
_cell_formula_units_Z 56
_cell_length_a 22.616140
_cell_length_b 22.616140
_cell_length_c 5.548932
_cell_angle_alpha 90.000000
_cell_angle_beta 90.000000
_cell_angle_gamma 90.000000
_cell_volume 2838.222055
_symmetry_space_group_name_H-M "P 42/N C M"
_symmetry_group_IT_number 138
_space_group.IT_coordinate_system_code '2'
_symmetry_cell_setting 'tetragonal'
loop_
_space_group_symop_operation_xyz
x,y,z
1/2-y,x,1/2+z
1/2-x,1/2-y,z
y,1/2-x,1/2+z
1/2+x,-y,1/2-z
-x,1/2+y,1/2-z
1/2+y,1/2+x,-z
-y,-x,-z
-x,-y,-z
1/2+y,-x,1/2-z
1/2+x,1/2+y,-z
-y,1/2+x,1/2-z
1/2-x,y,1/2+z
x,1/2-y,1/2+z
1/2-y,1/2-x,z
y,x,z
loop_
_atom_site_type_symbol
_atom_site_label
_atom_site_fract_x
_atom_site_fract_y
_atom_site_fract_z
Si Si1 0.005282 0.591500 0.151136
Si Si2 0.231543 0.868596 0.848610
Si Si3 0.892916 0.392916 0.500000
Si Si4 0.997768 0.777559 0.573426
O O1 0.043277 0.611049 0.381835
O O2 0.949280 0.550721 0.207861
O O3 0.988523 0.652966 0.027698
O O4 0.050651 0.550651 0.000000
O O5 0.256803 0.839403 0.609175
O O6 0.264946 0.931614 0.893180
O O7 0.162325 0.884116 0.821656
O O8 0.974966 0.742753 0.337364
#
# Coordination Sequence:
#
# PCOD9570728 Si02
#       4
#    16  16   8  16
#     4  11  23  35  54  88 121 148 183 239 298 348
#     4  10  20  34  54  77  97 146 194 231 270 333
#     4  12  21  34  60  75 114 150 192 230 291 350
#     4  10  19  38  56  75 106 153 193 224 268 346
#
# _framework density 19.730663
#
# number of rings (size 3 to 8) (size 9 to 14) (size 15 to 20)
#    0.000    1.429    5.714    3.857    0.000    0.000 
#    0.000    0.000    0.000    2.571    0.000    0.000 
#    0.000    3.429    0.000    0.000    0.000    0.000 
#
# Total GULP energy -312581.766575 kJ/mol
# GULP energy per Si atom -5581.817260 kJ/mol
# Density = 1.968576 g / cm^3
# Si number density = 19.730663 Si / 1000 Ang^3
#
#
#
# Elastic Constant Matrix: (Units=GPa)
#
#
# Indices 1 2 3 4 5 6 
#
# 1 75.3534 56.5081 18.9056 0.0000 0.0000 0.0000
# 2 56.5081 75.3534 18.9056 0.0000 0.0000 0.0000
# 3 18.9056 18.9056 130.3442 0.0000 0.0000 0.0000
# 4 0.0000 0.0000 0.0000 15.2575 0.0000 0.0000
# 5 0.0000 0.0000 0.0000 0.0000 15.2575 0.0000
# 6 0.0000 0.0000 0.0000 0.0000 0.0000 21.0031
#
#
#
# Elastic Compliance Matrix: (Units=1/GPa)
#
#
# Indices 1 2 3 4 5 6 
#
# 1 0.030488 -0.022575 -0.001148 0.000000 0.000000 0.000000
# 2 -0.022575 0.030488 -0.001148 0.000000 0.000000 0.000000
# 3 -0.001148 -0.001148 0.008005 0.000000 0.000000 0.000000
# 4 0.000000 0.000000 0.000000 0.065542 0.000000 0.000000
# 5 0.000000 0.000000 0.000000 0.000000 0.065542 0.000000
# 6 0.000000 0.000000 0.000000 0.000000 0.000000 0.047612
#
#
# Mechanical properties :
#
#
# Convention : Reuss Voigt Hill
#
# Bulk Modulus (GPa) = 51.97574 52.18774 52.08174
# Shear Modulus (GPa) = 16.45649 22.75240 19.60445
#
# Velocity S-wave (km/s) = 2.89114 3.39949 3.15557
# Velocity P-wave (km/s) = 6.12737 6.47427 6.30321
#
# Compressibility (1/GPa) = 0.01923975
#
# Stress axis : x y z
#
# Youngs Moduli (GPa) = 32.79955 32.79955 124.92308
#
# Poissons Ratio (x) = 0.74046 0.14337
# Poissons Ratio (y) = 0.74046 0.14337
# Poissons Ratio (z) = 0.03764 0.03764
#
# Static dielectric constant tensor:
#      x y z
#    x 1.698620 0.000000 0.000000 
#    y 0.000000 1.698620 0.000000 
#    z 0.000000 0.000000 1.860250 
# 
# From -- ./inp_files/327.got.cif
#   From: 2010.05.17/outbox.cif.g08.bks.cpg/sg138_1_cif.got.tgz:327.got - 2010.05.20 13:08:53.
