data_PCOD9570483
_publ_section_title
;
Structure prediction by ZEFSAII (Michael W. Deem and Ramdas Pophale) SiO2 
 PCOD9570483
Probable space group: P 42/N M C
;
_chemical_formula_sum "Si O2"
_cell_formula_units_Z 96
_cell_length_a 24.442080
_cell_length_b 24.442080
_cell_length_c 7.946510
_cell_angle_alpha 90.000000
_cell_angle_beta 90.000000
_cell_angle_gamma 90.000000
_cell_volume 4747.366455
_symmetry_space_group_name_H-M "P 42/N M C"
_symmetry_group_IT_number 137
_space_group.IT_coordinate_system_code '2'
_symmetry_cell_setting 'tetragonal'
loop_
_space_group_symop_operation_xyz
x,y,z
1/2-y,x,1/2+z
1/2-x,1/2-y,z
y,1/2-x,1/2+z
1/2+x,-y,-z
-x,1/2+y,-z
1/2+y,1/2+x,1/2-z
-y,-x,1/2-z
-x,-y,-z
1/2+y,-x,1/2-z
1/2+x,1/2+y,-z
-y,1/2+x,1/2-z
1/2-x,y,z
x,1/2-y,z
1/2-y,1/2-x,1/2+z
y,x,1/2+z
loop_
_atom_site_type_symbol
_atom_site_label
_atom_site_fract_x
_atom_site_fract_y
_atom_site_fract_z
Si Si1 0.686152 0.931383 0.156292
Si Si2 0.556463 0.486700 0.418497
Si Si3 0.586224 0.872676 0.976474
Si Si4 0.898056 0.129140 0.933906
Si Si5 0.186271 0.949105 0.951888
Si Si6 0.005884 0.812114 0.169668
O O1 0.750000 0.925489 0.104970
O O2 0.675092 0.906237 0.340183
O O3 0.641319 0.901516 0.038783
O O4 0.675237 0.997335 0.161837
O O5 0.547131 0.452870 0.250000
O O6 0.500000 0.500000 0.500000
O O7 0.585058 0.544677 0.386442
O O8 0.585652 0.447126 0.550976
O O9 0.546108 0.848967 0.121156
O O10 0.870627 0.129374 0.750000
O O11 0.852288 0.104301 0.058332
O O12 0.938667 0.181165 0.945152
O O13 0.250000 0.934383 0.934653
O O14 0.177218 0.973669 0.140350
O O15 0.987475 0.750000 0.157660
#
# Coordination Sequence:
#
# PCOD9570483 Si02
#       6
#    16  16  16  16  16  16
#     4  11  23  38  57  78 102 132 168 211 256 311
#     4  11  20  29  46  74 107 134 160 198 249 310
#     4  11  21  35  55  77 103 135 169 208 258 309
#     4   9  17  29  46  70 100 134 171 208 248 297
#     4   9  17  31  50  74 105 140 175 208 249 300
#     4   9  18  32  52  75 101 135 173 215 258 303
#
# _framework density 20.221737000000001
#
# number of rings (size 3 to 8) (size 9 to 14) (size 15 to 20)
#    0.000    2.000    0.000    5.000    0.000    2.667 
#    0.000    0.833    0.000    4.500    0.000    3.500 
#    0.000    0.000    0.000    8.000    0.000   11.000 
#
# Total GULP energy -534663.528685 kJ/mol
# GULP energy per Si atom -5569.411757 kJ/mol
# Density = 2.017571 g / cm^3
# Si number density = 20.221737 Si / 1000 Ang^3
#
#
#
# Elastic Constant Matrix: (Units=GPa)
#
#
# Indices 1 2 3 4 5 6 
#
# 1 73.8667 18.0628 14.3948 0.0000 0.0000 0.0000
# 2 18.0628 73.8655 14.3947 0.0000 0.0000 0.0000
# 3 14.3948 14.3947 40.6038 0.0000 0.0000 0.0000
# 4 0.0000 0.0000 0.0000 19.7644 0.0000 0.0000
# 5 0.0000 0.0000 0.0000 0.0000 19.7642 0.0000
# 6 0.0000 0.0000 0.0000 0.0000 0.0000 28.2565
#
#
#
# Elastic Compliance Matrix: (Units=1/GPa)
#
#
# Indices 1 2 3 4 5 6 
#
# 1 0.015078 -0.002842 -0.004338 0.000000 0.000000 0.000000
# 2 -0.002842 0.015078 -0.004338 0.000000 0.000000 0.000000
# 3 -0.004338 -0.004338 0.027704 0.000000 0.000000 0.000000
# 4 0.000000 0.000000 0.000000 0.050596 0.000000 0.000000
# 5 0.000000 0.000000 0.000000 0.000000 0.050596 0.000000
# 6 0.000000 0.000000 0.000000 0.000000 0.000000 0.035390
#
#
# Mechanical properties :
#
#
# Convention : Reuss Voigt Hill
#
# Bulk Modulus (GPa) = 28.71512 31.33786 30.02649
# Shear Modulus (GPa) = 21.82575 22.98928 22.40751
#
# Velocity S-wave (km/s) = 3.28887 3.37539 3.33241
# Velocity P-wave (km/s) = 5.35286 5.54272 5.44862
#
# Compressibility (1/GPa) = 0.03482486
#
# Stress axis : x y z
#
# Youngs Moduli (GPa) = 66.32099 66.31988 36.09579
#
# Poissons Ratio (x) = 0.18847 0.15659
# Poissons Ratio (y) = 0.18847 0.15659
# Poissons Ratio (z) = 0.28770 0.28770
#
# Static dielectric constant tensor:
#      x y z
#    x 1.565800 0.000000 0.000000 
#    y 0.000000 1.565920 0.000000 
#    z 0.000000 0.000000 -1.960860 
# 
# From -- ./inp_files/2121.got.cif
#   From: 2010.05.17/outbox.cif.g08.bks.cpg/sg137_2_cif.got.tgz:2121.got - 2010.05.20 13:01:12.
