data_PCOD9570801
_publ_section_title
;
Structure prediction by ZEFSAII (Michael W. Deem and Ramdas Pophale) SiO2 
 PCOD9570801
Probable space group: P 42/N C M
;
_chemical_formula_sum "Si O2"
_cell_formula_units_Z 96
_cell_length_a 20.950005
_cell_length_b 20.950005
_cell_length_c 10.697059
_cell_angle_alpha 90.000000
_cell_angle_beta 90.000000
_cell_angle_gamma 90.000000
_cell_volume 4694.968179
_symmetry_space_group_name_H-M "P 42/N C M"
_symmetry_group_IT_number 138
_space_group.IT_coordinate_system_code '2'
_symmetry_cell_setting 'tetragonal'
loop_
_space_group_symop_operation_xyz
x,y,z
1/2-y,x,1/2+z
1/2-x,1/2-y,z
y,1/2-x,1/2+z
1/2+x,-y,1/2-z
-x,1/2+y,1/2-z
1/2+y,1/2+x,-z
-y,-x,-z
-x,-y,-z
1/2+y,-x,1/2-z
1/2+x,1/2+y,-z
-y,1/2+x,1/2-z
1/2-x,y,1/2+z
x,1/2-y,1/2+z
1/2-y,1/2-x,z
y,x,z
loop_
_atom_site_type_symbol
_atom_site_label
_atom_site_fract_x
_atom_site_fract_y
_atom_site_fract_z
Si Si1 0.807831 0.495016 0.729070
Si Si2 0.085337 0.085337 0.460435
Si Si3 0.000170 0.301892 0.977258
Si Si4 0.105804 0.915292 0.144767
Si Si5 0.628607 0.371394 0.500000
Si Si6 0.580451 0.919550 0.743470
Si Si7 0.475575 0.024426 0.726160
Si Si8 0.805966 0.169539 0.733841
O O1 0.784848 0.498915 0.874119
O O2 0.754845 0.487943 0.621138
O O3 0.863738 0.441026 0.714028
O O4 0.849112 0.559333 0.706375
O O5 0.073033 0.073033 0.606760
O O6 0.042621 0.042621 0.367287
O O7 0.064162 0.158782 0.443088
O O8 0.943315 0.354448 0.965497
O O9 0.175279 0.893356 0.191040
O O10 0.086624 0.988220 0.172692
O O11 0.097370 0.902631 0.000000
O O12 0.650975 0.327630 0.612421
O O13 0.529053 0.970948 0.695598
O O14 0.733168 0.175631 0.691879
#
# Coordination Sequence:
#
# PCOD9570801 Si02
#       8
#    16   8  16  16   8   8   8  16
#     4  10  22  42  61  92 121 161 203 254 311 375
#     4  10  21  35  63  89 126 155 203 252 309 379
#     4  11  24  40  64  93 126 163 206 258 313 373
#     4  11  23  38  58  81 117 156 197 254 308 364
#     4  12  24  38  60  86 114 162 214 247 313 358
#     4   8  19  37  63  87 118 160 195 253 313 366
#     4  10  20  36  56  88 114 152 198 248 309 371
#     4  11  26  40  56  80 112 160 210 255 300 354
#
# _framework density 20.447424000000002
#
# number of rings (size 3 to 8) (size 9 to 14) (size 15 to 20)
#    0.000    1.500    1.667    2.500    9.333    2.000 
#    0.000    0.833    0.000    0.500    0.000    3.500 
#    0.000    0.000    0.000    0.000    0.000    0.000 
#
# Total GULP energy -535337.948251 kJ/mol
# GULP energy per Si atom -5576.436961 kJ/mol
# Density = 2.040088 g / cm^3
# Si number density = 20.447424 Si / 1000 Ang^3
#
#
#
# Elastic Constant Matrix: (Units=GPa)
#
#
# Indices 1 2 3 4 5 6 
#
# 1 63.4211 41.9950 24.1637 0.0000 0.0000 0.0000
# 2 41.9950 63.4217 24.1638 0.0000 0.0000 0.0000
# 3 24.1637 24.1638 88.1174 0.0000 0.0000 0.0000
# 4 0.0000 0.0000 0.0000 25.4223 0.0000 0.0000
# 5 0.0000 0.0000 0.0000 0.0000 25.4220 0.0000
# 6 0.0000 0.0000 0.0000 0.0000 0.0000 38.0469
#
#
#
# Elastic Compliance Matrix: (Units=1/GPa)
#
#
# Indices 1 2 3 4 5 6 
#
# 1 0.028761 -0.017911 -0.002975 0.000000 0.000000 0.000000
# 2 -0.017911 0.028761 -0.002975 0.000000 0.000000 0.000000
# 3 -0.002975 -0.002975 0.012980 0.000000 0.000000 0.000000
# 4 0.000000 0.000000 0.000000 0.039336 0.000000 0.000000
# 5 0.000000 0.000000 0.000000 0.000000 0.039336 0.000000
# 6 0.000000 0.000000 0.000000 0.000000 0.000000 0.026283
#
#
# Mechanical properties :
#
#
# Convention : Reuss Voigt Hill
#
# Bulk Modulus (GPa) = 43.89953 43.95614 43.92783
# Shear Modulus (GPa) = 21.66637 26.08742 23.87689
#
# Velocity S-wave (km/s) = 3.25870 3.57575 3.42090
# Velocity P-wave (km/s) = 5.97285 6.21223 6.09372
#
# Compressibility (1/GPa) = 0.02277929
#
# Stress axis : x y z
#
# Youngs Moduli (GPa) = 34.76946 34.76976 77.03972
#
# Poissons Ratio (x) = 0.62274 0.22922
# Poissons Ratio (y) = 0.62274 0.22922
# Poissons Ratio (z) = 0.10345 0.10345
#
# Static dielectric constant tensor:
#      x y z
#    x 1.811950 0.000000 0.000000 
#    y 0.000000 1.811950 0.000000 
#    z 0.000000 0.000000 1.745890 
# 
# From -- ./inp_files/3195.got.cif
#   From: 2010.05.17/outbox.cif.g08.bks.cpg/sg138_2_cif.got.tgz:3195.got - 2010.05.20 13:08:53.
