data_PCOD9570218
_publ_section_title
;
Structure prediction by ZEFSAII (Michael W. Deem and Ramdas Pophale) SiO2 
 PCOD9570218
Probable space group: P 42/N M C
;
_chemical_formula_sum "Si O2"
_cell_formula_units_Z 64
_cell_length_a 14.491189
_cell_length_b 14.491189
_cell_length_c 15.515071
_cell_angle_alpha 90.000000
_cell_angle_beta 90.000000
_cell_angle_gamma 90.000000
_cell_volume 3258.080487
_symmetry_space_group_name_H-M "P 42/N M C"
_symmetry_group_IT_number 137
_space_group.IT_coordinate_system_code '2'
_symmetry_cell_setting 'tetragonal'
loop_
_space_group_symop_operation_xyz
x,y,z
1/2-y,x,1/2+z
1/2-x,1/2-y,z
y,1/2-x,1/2+z
1/2+x,-y,-z
-x,1/2+y,-z
1/2+y,1/2+x,1/2-z
-y,-x,1/2-z
-x,-y,-z
1/2+y,-x,1/2-z
1/2+x,1/2+y,-z
-y,1/2+x,1/2-z
1/2-x,y,z
x,1/2-y,z
1/2-y,1/2-x,1/2+z
y,x,1/2+z
loop_
_atom_site_type_symbol
_atom_site_label
_atom_site_fract_x
_atom_site_fract_y
_atom_site_fract_z
Si Si1 0.050721 0.360776 0.668221
Si Si2 0.857379 0.150878 0.906498
Si Si3 0.646604 0.859674 0.158372
Si Si4 0.527694 0.605313 0.990712
O O1 0.066906 0.250000 0.657114
O O2 0.081581 0.390718 0.763341
O O3 0.111309 0.419504 0.599883
O O4 0.941924 0.375039 0.648020
O O5 0.750000 0.145902 0.934221
O O6 0.869600 0.250000 0.859102
O O7 0.930868 0.152630 0.984548
O O8 0.750000 0.899466 0.162196
O O9 0.654100 0.750000 0.169597
O O10 0.599525 0.873850 0.066616
O O11 0.500000 0.500000 0.000000
#
# Coordination Sequence:
#
# PCOD9570218 Si02
#       4
#    16  16  16  16
#     4   9  19  36  57  83 113 146 186 229 281 345
#     4   9  18  33  53  78 109 146 189 237 284 331
#     4  10  21  36  55  82 114 144 179 226 277 333
#     4  10  20  34  55  79 109 146 185 229 278 330
#
# _framework density 19.643467999999999
#
# number of rings (size 3 to 8) (size 9 to 14) (size 15 to 20)
#    0.000    2.500    0.000    1.500    0.000    7.000 
#    0.000    6.250    0.000    7.500    0.000    1.750 
#    0.000   26.000    0.000    0.000    0.000    0.000 
#
# Total GULP energy -356472.356317 kJ/mol
# GULP energy per Si atom -5569.880567 kJ/mol
# Density = 1.959876 g / cm^3
# Si number density = 19.643468 Si / 1000 Ang^3
#
#
#
# Elastic Constant Matrix: (Units=GPa)
#
#
# Indices 1 2 3 4 5 6 
#
# 1 94.0889 26.6002 22.1546 0.0000 0.0000 0.0000
# 2 26.6002 94.0889 22.1546 0.0000 0.0000 0.0000
# 3 22.1546 22.1546 86.4224 0.0000 0.0000 0.0000
# 4 0.0000 0.0000 0.0000 18.8076 0.0000 0.0000
# 5 0.0000 0.0000 0.0000 0.0000 18.8076 0.0000
# 6 0.0000 0.0000 0.0000 0.0000 0.0000 22.8107
#
#
#
# Elastic Compliance Matrix: (Units=1/GPa)
#
#
# Indices 1 2 3 4 5 6 
#
# 1 0.011982 -0.002835 -0.002345 0.000000 0.000000 0.000000
# 2 -0.002835 0.011982 -0.002345 0.000000 0.000000 0.000000
# 3 -0.002345 -0.002345 0.012773 0.000000 0.000000 0.000000
# 4 0.000000 0.000000 0.000000 0.053170 0.000000 0.000000
# 5 0.000000 0.000000 0.000000 0.000000 0.053170 0.000000
# 6 0.000000 0.000000 0.000000 0.000000 0.000000 0.043839
#
#
# Mechanical properties :
#
#
# Convention : Reuss Voigt Hill
#
# Bulk Modulus (GPa) = 46.10968 46.26877 46.18923
# Shear Modulus (GPa) = 23.90116 25.66458 24.78287
#
# Velocity S-wave (km/s) = 3.49198 3.61850 3.55580
# Velocity P-wave (km/s) = 6.30736 6.40808 6.35792
#
# Compressibility (1/GPa) = 0.02168742
#
# Stress axis : x y z
#
# Youngs Moduli (GPa) = 83.45894 83.45894 78.28870
#
# Poissons Ratio (x) = 0.23663 0.18357
# Poissons Ratio (y) = 0.23663 0.18357
# Poissons Ratio (z) = 0.19569 0.19569
#
# Static dielectric constant tensor:
#      x y z
#    x 1.726250 0.000000 0.000000 
#    y 0.000000 1.726250 0.000000 
#    z 0.000000 0.000000 1.648930 
# 
# From -- ./inp_files/4720.got.cif
#   From: 2010.05.17/outbox.cif.g08.bks.cpg/sg137_3_cif.got.tgz:4720.got - 2010.05.20 13:01:12.
