data_PCOD9570843
_publ_section_title
;
Structure prediction by ZEFSAII (Michael W. Deem and Ramdas Pophale) SiO2 
 PCOD9570843
Probable space group: P 42/N C M
;
_chemical_formula_sum "Si O2"
_cell_formula_units_Z 112
_cell_length_a 14.448834
_cell_length_b 14.448834
_cell_length_c 27.781132
_cell_angle_alpha 90.000000
_cell_angle_beta 90.000000
_cell_angle_gamma 90.000000
_cell_volume 5799.833700
_symmetry_space_group_name_H-M "P 42/N C M"
_symmetry_group_IT_number 138
_space_group.IT_coordinate_system_code '2'
_symmetry_cell_setting 'tetragonal'
loop_
_space_group_symop_operation_xyz
x,y,z
1/2-y,x,1/2+z
1/2-x,1/2-y,z
y,1/2-x,1/2+z
1/2+x,-y,1/2-z
-x,1/2+y,1/2-z
1/2+y,1/2+x,-z
-y,-x,-z
-x,-y,-z
1/2+y,-x,1/2-z
1/2+x,1/2+y,-z
-y,1/2+x,1/2-z
1/2-x,y,1/2+z
x,1/2-y,1/2+z
1/2-y,1/2-x,z
y,x,z
loop_
_atom_site_type_symbol
_atom_site_label
_atom_site_fract_x
_atom_site_fract_y
_atom_site_fract_z
Si Si1 0.545795 0.107990 0.273736
Si Si2 0.011052 0.862157 0.465675
Si Si3 0.326232 0.173768 0.691680
Si Si4 0.746714 0.006564 0.642327
Si Si5 0.326690 0.173311 0.807856
Si Si6 0.267995 0.530007 0.198128
Si Si7 0.097089 0.248751 0.956324
Si Si8 0.695166 0.343218 0.385596
O O1 0.533744 0.159647 0.324832
O O2 0.649704 0.071417 0.269585
O O3 0.519735 0.178763 0.231709
O O4 0.477929 0.022072 0.272178
O O5 0.073025 0.926976 0.500000
O O6 0.080707 0.820666 0.426797
O O7 0.963571 0.784840 0.499209
O O8 0.929175 0.929175 0.445553
O O9 0.250000 0.250000 0.676723
O O10 0.327842 0.172159 0.750140
O O11 0.430268 0.201965 0.677385
O O12 0.810173 0.095505 0.633678
O O13 0.797549 0.925089 0.671332
O O14 0.724136 0.964542 0.589917
O O15 0.250000 0.250000 0.822948
O O16 0.247920 0.604492 0.157054
O O17 0.164822 0.335179 0.942953
O O18 0.163801 0.163801 0.968951
O O19 0.750000 0.250000 0.400644
#
# Coordination Sequence:
#
# PCOD9570843 Si02
#       8
#    16  16   8  16   8  16  16  16
#     4  12  25  43  66  96 134 174 216 276 329 387
#     4  10  22  43  69  97 129 165 215 275 331 395
#     4  11  24  46  62  90 133 174 226 276 323 385
#     4  12  22  39  68  99 136 171 216 272 333 393
#     4  11  22  38  64 105 133 163 218 279 335 384
#     4  12  26  43  65  93 129 175 223 266 326 391
#     4  10  20  38  67 102 133 165 213 277 340 392
#     4  12  27  45  65  96 131 178 224 269 326 399
#
# _framework density 19.310898999999999
#
# number of rings (size 3 to 8) (size 9 to 14) (size 15 to 20)
#    0.000    0.714    5.714    2.571    1.000    1.429 
#    1.286    0.000    0.000    0.857    0.000    0.000 
#    0.000    0.000    0.000    0.000    0.000    0.000 
#
# Total GULP energy -626252.096914 kJ/mol
# GULP energy per Si atom -5591.536580 kJ/mol
# Density = 1.926695 g / cm^3
# Si number density = 19.310899 Si / 1000 Ang^3
#
#
#
# Elastic Constant Matrix: (Units=GPa)
#
#
# Indices 1 2 3 4 5 6 
#
# 1 70.8339 24.7508 19.5645 0.0000 0.0000 0.0000
# 2 24.7508 70.8304 19.5642 0.0000 0.0000 0.0000
# 3 19.5645 19.5642 57.9196 0.0000 0.0000 0.0000
# 4 0.0000 0.0000 0.0000 21.7299 0.0000 0.0000
# 5 0.0000 0.0000 0.0000 0.0000 21.7283 0.0000
# 6 0.0000 0.0000 0.0000 0.0000 0.0000 40.6424
#
#
#
# Elastic Compliance Matrix: (Units=1/GPa)
#
#
# Indices 1 2 3 4 5 6 
#
# 1 0.016920 -0.004780 -0.004101 0.000000 0.000000 0.000000
# 2 -0.004780 0.016921 -0.004101 0.000000 0.000000 0.000000
# 3 -0.004101 -0.004101 0.020036 0.000000 0.000000 0.000000
# 4 0.000000 0.000000 0.000000 0.046020 0.000000 0.000000
# 5 0.000000 0.000000 0.000000 0.000000 0.046023 0.000000
# 6 0.000000 0.000000 0.000000 0.000000 0.000000 0.024605
#
#
# Mechanical properties :
#
#
# Convention : Reuss Voigt Hill
#
# Bulk Modulus (GPa) = 35.82479 36.37143 36.09811
# Shear Modulus (GPa) = 24.29622 25.86708 25.08165
#
# Velocity S-wave (km/s) = 3.55090 3.66390 3.60784
# Velocity P-wave (km/s) = 5.95011 6.06419 6.00742
#
# Compressibility (1/GPa) = 0.02791364
#
# Stress axis : x y z
#
# Youngs Moduli (GPa) = 59.10017 59.09719 49.91061
#
# Poissons Ratio (x) = 0.28248 0.20468
# Poissons Ratio (y) = 0.28249 0.20469
# Poissons Ratio (z) = 0.24237 0.24236
#
# Static dielectric constant tensor:
#      x y z
#    x 1.669190 0.000000 0.000000 
#    y 0.000000 1.669190 0.000000 
#    z 0.000000 0.000000 1.660670 
# 
# From -- ./inp_files/7622.got.cif
#   From: 2010.05.17/outbox.cif.g08.bks.cpg/sg138_4_cif.got.tgz:7622.got - 2010.05.20 13:08:53.
