data_PCOD9570902
_publ_section_title
;
Structure prediction by ZEFSAII (Michael W. Deem and Ramdas Pophale) SiO2 
 PCOD9570902
Probable space group: P 42/N C M
;
_chemical_formula_sum "Si O2"
_cell_formula_units_Z 80
_cell_length_a 12.391371
_cell_length_b 12.391371
_cell_length_c 28.935856
_cell_angle_alpha 90.000000
_cell_angle_beta 90.000000
_cell_angle_gamma 90.000000
_cell_volume 4442.987123
_symmetry_space_group_name_H-M "P 42/N C M"
_symmetry_group_IT_number 138
_space_group.IT_coordinate_system_code '2'
_symmetry_cell_setting 'tetragonal'
loop_
_space_group_symop_operation_xyz
x,y,z
1/2-y,x,1/2+z
1/2-x,1/2-y,z
y,1/2-x,1/2+z
1/2+x,-y,1/2-z
-x,1/2+y,1/2-z
1/2+y,1/2+x,-z
-y,-x,-z
-x,-y,-z
1/2+y,-x,1/2-z
1/2+x,1/2+y,-z
-y,1/2+x,1/2-z
1/2-x,y,1/2+z
x,1/2-y,1/2+z
1/2-y,1/2-x,z
y,x,z
loop_
_atom_site_type_symbol
_atom_site_label
_atom_site_fract_x
_atom_site_fract_y
_atom_site_fract_z
Si Si1 0.851639 0.471337 0.705521
Si Si2 0.241609 0.425516 0.603733
Si Si3 0.654998 0.028747 0.144872
Si Si4 0.263480 0.554653 0.695272
Si Si5 0.423231 0.608941 0.448409
O O1 0.768952 0.505477 0.665548
O O2 0.796819 0.491794 0.755193
O O3 0.873874 0.343388 0.701652
O O4 0.961956 0.538045 0.702794
O O5 0.130702 0.369299 0.589794
O O6 0.334503 0.334503 0.601868
O O7 0.236726 0.467223 0.656098
O O8 0.282957 0.521702 0.571315
O O9 0.616931 0.132242 0.175005
O O10 0.656734 0.066658 0.091526
O O11 0.564122 0.935879 0.149420
O O12 0.379402 0.620599 0.500000
O O13 0.518154 0.518154 0.450103
#
# Coordination Sequence:
#
# PCOD9570902 Si02
#       5
#    16  16  16  16  16
#     4  12  24  36  55  81 111 149 186 225 278 335
#     4   9  17  30  51  79 107 137 181 236 281 320
#     4  10  21  37  57  82 112 146 186 231 276 326
#     4  11  21  36  54  75 106 148 190 224 265 328
#     4   8  15  31  55  80 107 141 181 227 280 335
#
# _framework density 18.005904000000001
#
# number of rings (size 3 to 8) (size 9 to 14) (size 15 to 20)
#    0.000    2.000    2.000    4.200    0.000    1.200 
#    0.000    1.000    0.000   13.200    0.000    7.000 
#    0.000    0.000    0.000    0.000    0.000    0.000 
#
# Total GULP energy -446174.459872 kJ/mol
# GULP energy per Si atom -5577.180748 kJ/mol
# Density = 1.796492 g / cm^3
# Si number density = 18.005904 Si / 1000 Ang^3
#
#
#
# Elastic Constant Matrix: (Units=GPa)
#
#
# Indices 1 2 3 4 5 6 
#
# 1 46.4779 -1.6054 12.2160 0.0000 0.0000 0.0000
# 2 -1.6054 46.4780 12.2159 0.0000 0.0000 0.0000
# 3 12.2160 12.2159 116.4287 0.0000 0.0000 0.0000
# 4 0.0000 0.0000 0.0000 14.8492 0.0000 0.0000
# 5 0.0000 0.0000 0.0000 0.0000 14.8491 0.0000
# 6 0.0000 0.0000 0.0000 0.0000 0.0000 13.9144
#
#
#
# Elastic Compliance Matrix: (Units=1/GPa)
#
#
# Indices 1 2 3 4 5 6 
#
# 1 0.022216 0.001419 -0.002480 0.000000 0.000000 0.000000
# 2 0.001419 0.022216 -0.002480 0.000000 0.000000 0.000000
# 3 -0.002480 -0.002480 0.009109 0.000000 0.000000 0.000000
# 4 0.000000 0.000000 0.000000 0.067344 0.000000 0.000000
# 5 0.000000 0.000000 0.000000 0.000000 0.067344 0.000000
# 6 0.000000 0.000000 0.000000 0.000000 0.000000 0.071868
#
#
# Mechanical properties :
#
#
# Convention : Reuss Voigt Hill
#
# Bulk Modulus (GPa) = 21.52349 28.33752 24.93050
# Shear Modulus (GPa) = 17.68872 21.15976 19.42424
#
# Velocity S-wave (km/s) = 3.13770 3.43178 3.28803
# Velocity P-wave (km/s) = 5.01063 5.61024 5.31889
#
# Compressibility (1/GPa) = 0.04646086
#
# Stress axis : x y z
#
# Youngs Moduli (GPa) = 45.01179 45.01187 109.77753
#
# Poissons Ratio (x) = -0.06388 0.27224
# Poissons Ratio (y) = -0.06388 0.27223
# Poissons Ratio (z) = 0.11162 0.11162
#
# Static dielectric constant tensor:
#      x y z
#    x 1.626780 0.000000 0.000000 
#    y 0.000000 1.626780 0.000000 
#    z 0.000000 0.000000 1.605360 
# 
# From -- ./inp_files/7862.got.cif
#   From: 2010.05.17/outbox.cif.g08.bks.cpg/sg138_4_cif.got.tgz:7862.got - 2010.05.20 13:08:53.
