data_PCOD9570915
_publ_section_title
;
Structure prediction by ZEFSAII (Michael W. Deem and Ramdas Pophale) SiO2 
 PCOD9570915
Probable space group: P 42/N C M
;
_chemical_formula_sum "Si O2"
_cell_formula_units_Z 116
_cell_length_a 18.792447
_cell_length_b 18.792447
_cell_length_c 17.925024
_cell_angle_alpha 90.000000
_cell_angle_beta 90.000000
_cell_angle_gamma 90.000000
_cell_volume 6330.330927
_symmetry_space_group_name_H-M "P 42/N C M"
_symmetry_group_IT_number 138
_space_group.IT_coordinate_system_code '2'
_symmetry_cell_setting 'tetragonal'
loop_
_space_group_symop_operation_xyz
x,y,z
1/2-y,x,1/2+z
1/2-x,1/2-y,z
y,1/2-x,1/2+z
1/2+x,-y,1/2-z
-x,1/2+y,1/2-z
1/2+y,1/2+x,-z
-y,-x,-z
-x,-y,-z
1/2+y,-x,1/2-z
1/2+x,1/2+y,-z
-y,1/2+x,1/2-z
1/2-x,y,1/2+z
x,1/2-y,1/2+z
1/2-y,1/2-x,z
y,x,z
loop_
_atom_site_type_symbol
_atom_site_label
_atom_site_fract_x
_atom_site_fract_y
_atom_site_fract_z
Si Si1 0.680446 0.202060 0.857283
Si Si2 0.537080 0.244118 0.436964
Si Si3 0.746636 0.053642 0.387500
Si Si4 0.750000 0.750000 0.820820
Si Si5 0.395774 0.635744 0.770433
Si Si6 0.470591 0.143038 0.832685
Si Si7 0.368007 0.018275 0.327453
Si Si8 0.257949 0.083032 0.216757
O O1 0.750000 0.250000 0.866291
O O2 0.615968 0.239089 0.903210
O O3 0.699010 0.120527 0.880367
O O4 0.654163 0.191728 0.772351
O O5 0.539972 0.239075 0.525221
O O6 0.490795 0.309021 0.403397
O O7 0.499438 0.174143 0.403163
O O8 0.674486 0.078695 0.345539
O O9 0.765229 0.980479 0.344039
O O10 0.661391 0.751387 0.816601
O O11 0.458125 0.622730 0.710919
O O12 0.366204 0.558708 0.788326
O O13 0.423669 0.076332 0.853914
O O14 0.430817 0.190377 0.770444
O O15 0.444686 0.055315 0.337607
O O16 0.321995 0.069839 0.274873
#
# Coordination Sequence:
#
# PCOD9570915 Si02
#       8
#    16  16  16   4  16  16  16  16
#     4  11  23  37  66  93 128 172 217 266 323 393
#     4  10  24  40  57  91 131 168 209 259 327 403
#     4  11  23  41  60  91 136 165 204 267 326 396
#     4  12  20  40  68  98 114 160 226 286 338 366
#     4  10  22  35  61  88 120 161 212 261 314 376
#     4   9  18  38  60  84 112 158 205 253 312 378
#     4  11  21  40  61  91 121 163 213 266 319 382
#     4  10  21  37  66  90 119 155 212 276 317 371
#
# _framework density 18.324476000000001
#
# number of rings (size 3 to 8) (size 9 to 14) (size 15 to 20)
#    0.000    1.655    2.759    2.483    1.931    2.759 
#    2.483    0.690    0.000    4.966    0.000    0.000 
#    0.000    0.000    0.000    0.000    0.000    0.000 
#
# Total GULP energy -645753.975106 kJ/mol
# GULP energy per Si atom -5566.844613 kJ/mol
# Density = 1.828277 g / cm^3
# Si number density = 18.324476 Si / 1000 Ang^3
#
#
#
# Elastic Constant Matrix: (Units=GPa)
#
#
# Indices 1 2 3 4 5 6 
#
# 1 89.1498 28.3522 37.3127 0.0000 0.0000 0.0000
# 2 28.3522 89.1498 37.3127 0.0000 0.0000 0.0000
# 3 37.3127 37.3127 131.2351 0.0000 0.0000 0.0000
# 4 0.0000 0.0000 0.0000 3.7564 0.0000 0.0000
# 5 0.0000 0.0000 0.0000 0.0000 3.7564 0.0000
# 6 0.0000 0.0000 0.0000 0.0000 0.0000 38.3293
#
#
#
# Elastic Compliance Matrix: (Units=1/GPa)
#
#
# Indices 1 2 3 4 5 6 
#
# 1 0.013417 -0.003031 -0.002953 0.000000 0.000000 0.000000
# 2 -0.003031 0.013417 -0.002953 0.000000 0.000000 0.000000
# 3 -0.002953 -0.002953 0.009299 0.000000 0.000000 0.000000
# 4 0.000000 0.000000 0.000000 0.266212 0.000000 0.000000
# 5 0.000000 0.000000 0.000000 0.000000 0.266212 0.000000
# 6 0.000000 0.000000 0.000000 0.000000 0.000000 0.026090
#
#
# Mechanical properties :
#
#
# Convention : Reuss Voigt Hill
#
# Bulk Modulus (GPa) = 54.76694 57.27663 56.02179
# Shear Modulus (GPa) = 8.08267 22.93889 15.51078
#
# Velocity S-wave (km/s) = 2.10248 3.54194 2.91254
# Velocity P-wave (km/s) = 5.98716 6.93195 6.47680
#
# Compressibility (1/GPa) = 0.01825919
#
# Stress axis : x y z
#
# Youngs Moduli (GPa) = 74.53255 74.53255 107.53781
#
# Poissons Ratio (x) = 0.22591 0.31755
# Poissons Ratio (y) = 0.22591 0.31755
# Poissons Ratio (z) = 0.22009 0.22009
#
# Static dielectric constant tensor:
#      x y z
#    x 1.663420 0.000000 0.000000 
#    y 0.000000 1.663420 0.000000 
#    z 0.000000 0.000000 1.606630 
# 
# From -- ./inp_files/5346.got.cif
#   From: 2010.05.17/outbox.cif.g08.bks.cpg/sg138_3_cif.got.tgz:5346.got - 2010.05.20 13:08:53.
