data_PCOD9570080
_publ_section_title
;
Structure prediction by ZEFSAII (Michael W. Deem and Ramdas Pophale) SiO2 
 PCOD9570080
Probable space group: P 42/N M C
;
_chemical_formula_sum "Si O2"
_cell_formula_units_Z 112
_cell_length_a 32.093702
_cell_length_b 32.093702
_cell_length_c 5.450347
_cell_angle_alpha 90.000000
_cell_angle_beta 90.000000
_cell_angle_gamma 90.000000
_cell_volume 5613.888521
_symmetry_space_group_name_H-M "P 42/N M C"
_symmetry_group_IT_number 137
_space_group.IT_coordinate_system_code '2'
_symmetry_cell_setting 'tetragonal'
loop_
_space_group_symop_operation_xyz
x,y,z
1/2-y,x,1/2+z
1/2-x,1/2-y,z
y,1/2-x,1/2+z
1/2+x,-y,-z
-x,1/2+y,-z
1/2+y,1/2+x,1/2-z
-y,-x,1/2-z
-x,-y,-z
1/2+y,-x,1/2-z
1/2+x,1/2+y,-z
-y,1/2+x,1/2-z
1/2-x,y,z
x,1/2-y,z
1/2-y,1/2-x,1/2+z
y,x,1/2+z
loop_
_atom_site_type_symbol
_atom_site_label
_atom_site_fract_x
_atom_site_fract_y
_atom_site_fract_z
Si Si1 0.525721 0.702015 0.351164
Si Si2 0.426797 0.448587 0.913034
Si Si3 0.157342 0.587689 0.752878
Si Si4 0.084126 0.353506 0.918891
Si Si5 0.432892 0.701039 0.231144
Si Si6 0.799666 0.663371 0.443606
Si Si7 0.004212 0.145042 0.259208
O O1 0.535881 0.750000 0.318541
O O2 0.567442 0.675591 0.301973
O O3 0.482941 0.692841 0.200722
O O4 0.509448 0.690447 0.621320
O O5 0.448010 0.456044 0.649875
O O6 0.407230 0.401943 0.864132
O O7 0.389912 0.481177 0.955806
O O8 0.125187 0.625187 0.750000
O O9 0.188350 0.590079 0.520012
O O10 0.135575 0.543078 0.700685
O O11 0.177559 0.582966 0.023898
O O12 0.121570 0.328350 0.044341
O O13 0.040882 0.357342 0.065562
O O14 0.428833 0.750000 0.275131
O O15 0.750000 0.654610 0.444794
O O16 0.811822 0.687699 0.193014
#
# Coordination Sequence:
#
# PCOD9570080 Si02
#       7
#    16  16  16  16  16  16  16
#     4  10  20  33  54  84 117 152 189 241 313 379
#     4  10  19  32  55  75 104 146 192 238 293 356
#     4  11  22  38  62  93 130 174 217 254 303 367
#     4  11  21  38  57  86 114 148 196 252 307 379
#     4  10  21  39  60  91 130 169 209 251 303 361
#     4  12  28  47  67  88 112 148 199 256 320 394
#     4  10  21  36  55  82 121 159 199 247 313 358
#
# _framework density 19.950520999999998
#
# number of rings (size 3 to 8) (size 9 to 14) (size 15 to 20)
#    0.000    1.429    2.857    3.429    2.000    2.571 
#    0.000    0.000    0.000    3.429    0.000    0.000 
#    0.000   20.000    0.000    0.000    0.000    0.000 
#
# Total GULP energy -623904.884135 kJ/mol
# GULP energy per Si atom -5570.579323 kJ/mol
# Density = 1.990511 g / cm^3
# Si number density = 19.950521 Si / 1000 Ang^3
#
#
#
# Elastic Constant Matrix: (Units=GPa)
#
#
# Indices 1 2 3 4 5 6 
#
# 1 56.6604 31.7509 11.8412 0.0000 0.0000 0.0000
# 2 31.7509 56.6604 11.8412 0.0000 0.0000 0.0000
# 3 11.8412 11.8412 97.0639 0.0000 0.0000 0.0000
# 4 0.0000 0.0000 0.0000 21.7516 0.0000 0.0000
# 5 0.0000 0.0000 0.0000 0.0000 21.7516 0.0000
# 6 0.0000 0.0000 0.0000 0.0000 0.0000 23.2500
#
#
#
# Elastic Compliance Matrix: (Units=1/GPa)
#
#
# Indices 1 2 3 4 5 6 
#
# 1 0.025919 -0.014226 -0.001426 0.000000 0.000000 0.000000
# 2 -0.014226 0.025919 -0.001426 0.000000 0.000000 0.000000
# 3 -0.001426 -0.001426 0.010651 0.000000 0.000000 0.000000
# 4 0.000000 0.000000 0.000000 0.045974 0.000000 0.000000
# 5 0.000000 0.000000 0.000000 0.000000 0.045974 0.000000
# 6 0.000000 0.000000 0.000000 0.000000 0.000000 0.043011
#
#
# Mechanical properties :
#
#
# Convention : Reuss Voigt Hill
#
# Bulk Modulus (GPa) = 35.29772 35.69459 35.49615
# Shear Modulus (GPa) = 20.74270 23.68072 22.21171
#
# Velocity S-wave (km/s) = 3.22795 3.44898 3.34029
# Velocity P-wave (km/s) = 5.62351 5.81301 5.71905
#
# Compressibility (1/GPa) = 0.02833044
#
# Stress axis : x y z
#
# Youngs Moduli (GPa) = 38.58153 38.58153 93.89200
#
# Poissons Ratio (x) = 0.54887 0.13393
# Poissons Ratio (y) = 0.54887 0.13393
# Poissons Ratio (z) = 0.05504 0.05504
#
# Static dielectric constant tensor:
#      x y z
#    x 1.732220 0.000000 0.000000 
#    y 0.000000 1.732220 0.000000 
#    z 0.000000 0.000000 1.873020 
# 
# From -- ./inp_files/692.got.cif
#   From: 2010.05.17/outbox.cif.g08.bks.cpg/sg137_1_cif.got.tgz:692.got - 2010.05.20 13:01:12.
