data_PCOD9570335
_publ_section_title
;
Structure prediction by ZEFSAII (Michael W. Deem and Ramdas Pophale) SiO2 
 PCOD9570335
Probable space group: P 42/N M C
;
_chemical_formula_sum "Si O2"
_cell_formula_units_Z 112
_cell_length_a 15.397768
_cell_length_b 15.397768
_cell_length_c 26.720855
_cell_angle_alpha 90.000000
_cell_angle_beta 90.000000
_cell_angle_gamma 90.000000
_cell_volume 6335.281164
_symmetry_space_group_name_H-M "P 42/N M C"
_symmetry_group_IT_number 137
_space_group.IT_coordinate_system_code '2'
_symmetry_cell_setting 'tetragonal'
loop_
_space_group_symop_operation_xyz
x,y,z
1/2-y,x,1/2+z
1/2-x,1/2-y,z
y,1/2-x,1/2+z
1/2+x,-y,-z
-x,1/2+y,-z
1/2+y,1/2+x,1/2-z
-y,-x,1/2-z
-x,-y,-z
1/2+y,-x,1/2-z
1/2+x,1/2+y,-z
-y,1/2+x,1/2-z
1/2-x,y,z
x,1/2-y,z
1/2-y,1/2-x,1/2+z
y,x,1/2+z
loop_
_atom_site_type_symbol
_atom_site_label
_atom_site_fract_x
_atom_site_fract_y
_atom_site_fract_z
Si Si1 0.151833 0.847855 0.189938
Si Si2 0.556130 0.989990 0.450537
Si Si3 0.922914 0.148856 0.198857
Si Si4 0.021410 0.503529 0.342650
Si Si5 0.354063 0.146378 0.375004
Si Si6 0.353606 0.346154 0.491368
Si Si7 0.648406 0.156526 0.409876
O O1 0.155247 0.844754 0.250000
O O2 0.250000 0.867711 0.172155
O O3 0.128824 0.750000 0.172224
O O4 0.080992 0.918498 0.176089
O O5 0.618615 0.911754 0.465819
O O6 0.500000 0.000000 0.500000
O O7 0.504850 0.973904 0.399524
O O8 0.605635 0.079126 0.439719
O O9 0.872709 0.127292 0.250000
O O10 0.955124 0.250000 0.200299
O O11 0.862637 0.142461 0.149442
O O12 0.989118 0.068370 0.188298
O O13 0.080728 0.415590 0.344251
O O14 0.250000 0.128546 0.367276
O O15 0.366568 0.250000 0.365994
O O16 0.375665 0.129440 0.433810
O O17 0.250000 0.341448 0.491099
O O18 0.389845 0.250000 0.500539
O O19 0.750000 0.158218 0.422027
O O20 0.608237 0.250000 0.420899
#
# Coordination Sequence:
#
# PCOD9570335 Si02
#       7
#    16  16  16  16  16  16  16
#     4   9  19  38  62  85 110 142 182 229 284 343
#     4  11  21  32  47  75 106 139 172 217 268 318
#     4  10  21  36  55  81 112 148 187 226 273 333
#     4  11  21  34  57  82 113 142 185 227 277 325
#     4   9  18  33  53  77 104 136 177 225 272 320
#     4   9  18  34  53  69  93 136 184 222 261 314
#     4   9  19  35  53  72  99 138 179 220 265 317
#
# _framework density 17.678774000000001
#
# number of rings (size 3 to 8) (size 9 to 14) (size 15 to 20)
#    0.000    2.286    1.429    3.000    0.000    5.286 
#    0.000    0.000    0.000    2.143    0.000    0.000 
#    0.000    0.000    0.000    0.000    0.000    0.000 
#
# Total GULP energy -623926.663879 kJ/mol
# GULP energy per Si atom -5570.773785 kJ/mol
# Density = 1.763854 g / cm^3
# Si number density = 17.678774 Si / 1000 Ang^3
#
#
#
# Elastic Constant Matrix: (Units=GPa)
#
#
# Indices 1 2 3 4 5 6 
#
# 1 110.5729 72.9008 37.2691 0.0000 0.0000 0.0000
# 2 72.9008 110.5727 37.2690 0.0000 0.0000 0.0000
# 3 37.2691 37.2690 61.9484 0.0000 0.0000 0.0000
# 4 0.0000 0.0000 0.0000 6.8837 0.0000 0.0000
# 5 0.0000 0.0000 0.0000 0.0000 6.8829 0.0000
# 6 0.0000 0.0000 0.0000 0.0000 0.0000 -749.8308
#
#
#
# Elastic Compliance Matrix: (Units=1/GPa)
#
#
# Indices 1 2 3 4 5 6 
#
# 1 0.016879 -0.009666 -0.004340 0.000000 0.000000 0.000000
# 2 -0.009666 0.016879 -0.004340 0.000000 0.000000 0.000000
# 3 -0.004340 -0.004340 0.021364 0.000000 0.000000 0.000000
# 4 0.000000 0.000000 0.000000 0.145271 0.000000 0.000000
# 5 0.000000 0.000000 0.000000 0.000000 0.145287 0.000000
# 6 0.000000 0.000000 0.000000 0.000000 0.000000 -0.001334
#
#
# Mechanical properties :
#
#
# Convention : Reuss Voigt Hill
#
# Bulk Modulus (GPa) = 54.25297 64.21908 59.23602
# Shear Modulus (GPa) = 12.91383 -138.16916 -62.62766
#
# Velocity S-wave (km/s) = 2.70566 -8.85014 -5.95838
# Velocity P-wave (km/s) = 6.36518 8.24797 3.70901
#
# Compressibility (1/GPa) = 0.01843217
#
# Stress axis : x y z
#
# Youngs Moduli (GPa) = 59.24469 59.24467 46.80743
#
# Poissons Ratio (x) = 0.57264 0.20313
# Poissons Ratio (y) = 0.57264 0.20313
# Poissons Ratio (z) = 0.25711 0.25710
#
# Static dielectric constant tensor:
#      x y z
#    x 1.865920 0.000000 0.000000 
#    y 0.000000 1.865320 0.000000 
#    z 0.000000 0.000000 1.582990 
# 
# From -- ./inp_files/9749.got.cif
#   From: 2010.05.17/outbox.cif.g08.bks.cpg/sg137_5_cif.got.tgz:9749.got - 2010.05.20 13:01:12.
