data_PCOD9570799
_publ_section_title
;
Structure prediction by ZEFSAII (Michael W. Deem and Ramdas Pophale) SiO2 
 PCOD9570799
Probable space group: P 42/N C M
;
_chemical_formula_sum "Si O2"
_cell_formula_units_Z 64
_cell_length_a 12.377250
_cell_length_b 12.377250
_cell_length_c 26.405530
_cell_angle_alpha 90.000000
_cell_angle_beta 90.000000
_cell_angle_gamma 90.000000
_cell_volume 4045.229959
_symmetry_space_group_name_H-M "P 42/N C M"
_symmetry_group_IT_number 138
_space_group.IT_coordinate_system_code '2'
_symmetry_cell_setting 'tetragonal'
loop_
_space_group_symop_operation_xyz
x,y,z
1/2-y,x,1/2+z
1/2-x,1/2-y,z
y,1/2-x,1/2+z
1/2+x,-y,1/2-z
-x,1/2+y,1/2-z
1/2+y,1/2+x,-z
-y,-x,-z
-x,-y,-z
1/2+y,-x,1/2-z
1/2+x,1/2+y,-z
-y,1/2+x,1/2-z
1/2-x,y,1/2+z
x,1/2-y,1/2+z
1/2-y,1/2-x,z
y,x,z
loop_
_atom_site_type_symbol
_atom_site_label
_atom_site_fract_x
_atom_site_fract_y
_atom_site_fract_z
Si Si1 0.661697 0.838304 0.627242
Si Si2 0.348923 0.521719 0.141962
Si Si3 0.013073 0.013073 0.940682
Si Si4 0.042571 0.635882 0.808359
Si Si5 0.538608 0.279734 0.803470
O O1 0.750000 0.750000 0.611604
O O2 0.599552 0.900449 0.581448
O O3 0.569309 0.784151 0.662548
O O4 0.413908 0.413908 0.159120
O O5 0.398823 0.542126 0.086384
O O6 0.221930 0.515302 0.148069
O O7 0.389278 0.620833 0.176358
O O8 0.000000 0.000000 0.000000
O O9 0.016336 0.695256 0.755218
O O10 0.167412 0.601135 0.808732
O O11 0.969418 0.530583 0.812073
#
# Coordination Sequence:
#
# PCOD9570799 Si02
#       5
#     8  16   8  16  16
#     4  10  20  36  54  84 110 146 194 239 276 342
#     4   9  20  36  54  80 106 139 192 222 285 336
#     4   8  18  40  64  80 106 140 194 248 282 336
#     4  12  22  32  50  78 115 158 184 226 277 335
#     4  11  20  33  50  75 113 154 192 215 271 340
#
# _framework density 15.821102
#
# number of rings (size 3 to 8) (size 9 to 14) (size 15 to 20)
#    0.750    1.000    5.000    1.500    0.000    1.500 
#    0.000    1.250    0.000   12.000    0.000    8.750 
#    0.000    0.000    0.000    0.000    0.000    0.000 
#
# Total GULP energy -356463.413294 kJ/mol
# GULP energy per Si atom -5569.740833 kJ/mol
# Density = 1.578509 g / cm^3
# Si number density = 15.821102 Si / 1000 Ang^3
#
#
#
# Elastic Constant Matrix: (Units=GPa)
#
#
# Indices 1 2 3 4 5 6 
#
# 1 56.0509 8.2582 16.9483 0.0000 0.0000 0.0000
# 2 8.2582 56.0509 16.9483 0.0000 0.0000 0.0000
# 3 16.9483 16.9483 94.3562 0.0000 0.0000 0.0000
# 4 0.0000 0.0000 0.0000 12.4264 0.0000 0.0000
# 5 0.0000 0.0000 0.0000 0.0000 12.4264 0.0000
# 6 0.0000 0.0000 0.0000 0.0000 0.0000 16.1026
#
#
#
# Elastic Compliance Matrix: (Units=1/GPa)
#
#
# Indices 1 2 3 4 5 6 
#
# 1 0.019050 -0.001874 -0.003085 0.000000 0.000000 0.000000
# 2 -0.001874 0.019050 -0.003085 0.000000 0.000000 0.000000
# 3 -0.003085 -0.003085 0.011706 0.000000 0.000000 0.000000
# 4 0.000000 0.000000 0.000000 0.080474 0.000000 0.000000
# 5 0.000000 0.000000 0.000000 0.000000 0.080474 0.000000
# 6 0.000000 0.000000 0.000000 0.000000 0.000000 0.062102
#
#
# Mechanical properties :
#
#
# Convention : Reuss Voigt Hill
#
# Bulk Modulus (GPa) = 29.65785 32.30753 30.98269
# Shear Modulus (GPa) = 16.65652 19.14465 17.90058
#
# Velocity S-wave (km/s) = 3.24821 3.48238 3.36733
# Velocity P-wave (km/s) = 5.73187 6.05262 5.89442
#
# Compressibility (1/GPa) = 0.03371788
#
# Stress axis : x y z
#
# Youngs Moduli (GPa) = 52.49381 52.49381 85.42295
#
# Poissons Ratio (x) = 0.09836 0.26355
# Poissons Ratio (y) = 0.09836 0.26355
# Poissons Ratio (z) = 0.16195 0.16195
#
# Static dielectric constant tensor:
#      x y z
#    x 1.542680 0.000000 0.000000 
#    y 0.000000 1.542680 0.000000 
#    z 0.000000 0.000000 1.507610 
# 
# From -- ./inp_files/6801.got.cif
#   From: 2010.05.17/outbox.cif.g08.bks.cpg/sg138_4_cif.got.tgz:6801.got - 2010.05.20 13:08:53.
