data_PCOD9570337
_publ_section_title
;
Structure prediction by ZEFSAII (Michael W. Deem and Ramdas Pophale) SiO2 
 PCOD9570337
Probable space group: P 42/N M C
;
_chemical_formula_sum "Si O2"
_cell_formula_units_Z 96
_cell_length_a 19.445803
_cell_length_b 19.445803
_cell_length_c 12.970794
_cell_angle_alpha 90.000000
_cell_angle_beta 90.000000
_cell_angle_gamma 90.000000
_cell_volume 4904.766371
_symmetry_space_group_name_H-M "P 42/N M C"
_symmetry_group_IT_number 137
_space_group.IT_coordinate_system_code '2'
_symmetry_cell_setting 'tetragonal'
loop_
_space_group_symop_operation_xyz
x,y,z
1/2-y,x,1/2+z
1/2-x,1/2-y,z
y,1/2-x,1/2+z
1/2+x,-y,-z
-x,1/2+y,-z
1/2+y,1/2+x,1/2-z
-y,-x,1/2-z
-x,-y,-z
1/2+y,-x,1/2-z
1/2+x,1/2+y,-z
-y,1/2+x,1/2-z
1/2-x,y,z
x,1/2-y,z
1/2-y,1/2-x,1/2+z
y,x,1/2+z
loop_
_atom_site_type_symbol
_atom_site_label
_atom_site_fract_x
_atom_site_fract_y
_atom_site_fract_z
Si Si1 0.526188 0.382669 0.958206
Si Si2 0.396376 0.441717 0.874953
Si Si3 0.440329 0.675429 0.247023
Si Si4 0.331314 0.327812 0.501572
Si Si5 0.329019 0.953677 0.029218
Si Si6 0.945774 0.831786 0.843022
O O1 0.475204 0.443452 0.916046
O O2 0.521401 0.331659 0.860681
O O3 0.606391 0.401237 0.973244
O O4 0.496884 0.352742 0.064158
O O5 0.380136 0.455401 0.756120
O O6 0.367551 0.367531 0.908415
O O7 0.350045 0.491931 0.943861
O O8 0.384707 0.615294 0.250000
O O9 0.406024 0.750000 0.251271
O O10 0.482497 0.668821 0.353231
O O11 0.250000 0.326802 0.484887
O O12 0.357066 0.250000 0.508686
O O13 0.343119 0.371120 0.605520
O O14 0.250000 0.929131 0.012874
O O15 0.953005 0.750000 0.817907
#
# Coordination Sequence:
#
# PCOD9570337 Si02
#       6
#    16  16  16  16  16  16
#     4  10  22  37  58  86 119 152 196 248 301 361
#     4  11  22  36  56  83 116 155 198 241 298 359
#     4   9  19  36  59  85 114 148 187 239 295 351
#     4   9  19  35  53  77 112 156 206 251 293 350
#     4  10  21  39  60  83 114 152 195 245 301 363
#     4  10  21  36  55  83 119 160 200 252 306 361
#
# _framework density 19.572797999999999
#
# number of rings (size 3 to 8) (size 9 to 14) (size 15 to 20)
#    0.000    2.167    0.000    2.500    4.667    2.167 
#    3.000    1.667    0.000    1.500    0.000    0.000 
#    0.000   13.333    0.000    0.000    0.000    0.000 
#
# Total GULP energy -534724.956012 kJ/mol
# GULP energy per Si atom -5570.051625 kJ/mol
# Density = 1.952825 g / cm^3
# Si number density = 19.572798 Si / 1000 Ang^3
#
#
#
# Elastic Constant Matrix: (Units=GPa)
#
#
# Indices 1 2 3 4 5 6 
#
# 1 70.6255 10.7212 19.8885 0.0000 0.0000 0.0000
# 2 10.7212 70.6288 19.8904 0.0000 0.0000 0.0000
# 3 19.8885 19.8904 117.6028 0.0000 0.0000 0.0000
# 4 0.0000 0.0000 0.0000 18.0577 0.0000 0.0000
# 5 0.0000 0.0000 0.0000 0.0000 18.0578 0.0000
# 6 0.0000 0.0000 0.0000 0.0000 0.0000 270.1956
#
#
#
# Elastic Compliance Matrix: (Units=1/GPa)
#
#
# Indices 1 2 3 4 5 6 
#
# 1 0.015047 -0.001646 -0.002266 0.000000 0.000000 0.000000
# 2 -0.001646 0.015047 -0.002267 0.000000 0.000000 0.000000
# 3 -0.002266 -0.002267 0.009270 0.000000 0.000000 0.000000
# 4 0.000000 0.000000 0.000000 0.055378 0.000000 0.000000
# 5 0.000000 0.000000 0.000000 0.000000 0.055378 0.000000
# 6 0.000000 0.000000 0.000000 0.000000 0.000000 0.003701
#
#
# Mechanical properties :
#
#
# Convention : Reuss Voigt Hill
#
# Bulk Modulus (GPa) = 37.02853 39.98416 38.50634
# Shear Modulus (GPa) = 28.54203 75.15268 51.84735
#
# Velocity S-wave (km/s) = 3.82285 6.20321 5.15238
# Velocity P-wave (km/s) = 6.20040 8.47226 7.42375
#
# Compressibility (1/GPa) = 0.02700620
#
# Stress axis : x y z
#
# Youngs Moduli (GPa) = 66.45730 66.45994 107.87695
#
# Poissons Ratio (x) = 0.10938 0.24449
# Poissons Ratio (y) = 0.10938 0.24451
# Poissons Ratio (z) = 0.15062 0.15063
#
# Static dielectric constant tensor:
#      x y z
#    x 1.735930 0.000000 0.000000 
#    y 0.000000 1.735930 0.000000 
#    z 0.000000 0.000000 1.686280 
# 
# From -- ./inp_files/3755.got.cif
#   From: 2010.05.17/outbox.cif.g08.bks.cpg/sg137_2_cif.got.tgz:3755.got - 2010.05.20 13:01:12.
