data_PCOD9570695
_publ_section_title
;
Structure prediction by ZEFSAII (Michael W. Deem and Ramdas Pophale) SiO2 
 PCOD9570695
Probable space group: P 42/N C M
;
_chemical_formula_sum "Si O2"
_cell_formula_units_Z 48
_cell_length_a 12.153068
_cell_length_b 12.153068
_cell_length_c 15.850159
_cell_angle_alpha 90.000000
_cell_angle_beta 90.000000
_cell_angle_gamma 90.000000
_cell_volume 2341.021914
_symmetry_space_group_name_H-M "P 42/N C M"
_symmetry_group_IT_number 138
_space_group.IT_coordinate_system_code '2'
_symmetry_cell_setting 'tetragonal'
loop_
_space_group_symop_operation_xyz
x,y,z
1/2-y,x,1/2+z
1/2-x,1/2-y,z
y,1/2-x,1/2+z
1/2+x,-y,1/2-z
-x,1/2+y,1/2-z
1/2+y,1/2+x,-z
-y,-x,-z
-x,-y,-z
1/2+y,-x,1/2-z
1/2+x,1/2+y,-z
-y,1/2+x,1/2-z
1/2-x,y,1/2+z
x,1/2-y,1/2+z
1/2-y,1/2-x,z
y,x,z
loop_
_atom_site_type_symbol
_atom_site_label
_atom_site_fract_x
_atom_site_fract_y
_atom_site_fract_z
Si Si1 0.159561 0.340440 0.270993
Si Si2 0.839967 0.660034 0.522887
Si Si3 0.921895 0.269795 0.275816
Si Si4 0.425155 0.744195 0.525955
O O1 0.250000 0.250000 0.248726
O O2 0.153801 0.346200 0.374052
O O3 0.194216 0.460868 0.240756
O O4 0.750000 0.750000 0.500238
O O5 0.793223 0.541491 0.493825
O O6 0.868024 0.166354 0.229209
O O7 0.934269 0.238544 0.373226
O O8 0.334053 0.834053 0.500000
O O9 0.374107 0.625894 0.500000
#
# Coordination Sequence:
#
# PCOD9570695 Si02
#       4
#     8   8  16  16
#     4   9  20  35  55  80 109 144 177 228 272 320
#     4   9  19  35  53  81 108 141 180 218 276 329
#     4  10  20  35  58  81 107 143 187 221 270 329
#     4  10  19  34  59  78 107 144 181 225 271 325
#
# _framework density 20.503865999999999
#
# number of rings (size 3 to 8) (size 9 to 14) (size 15 to 20)
#    0.000    2.333    0.000    4.500    2.333    0.667 
#    0.000    0.000   14.667    0.000    0.000    0.000 
#    0.000    0.000    0.000    0.000    0.000    0.000 
#
# Total GULP energy -267769.759724 kJ/mol
# GULP energy per Si atom -5578.536661 kJ/mol
# Density = 2.045720 g / cm^3
# Si number density = 20.503866 Si / 1000 Ang^3
#
#
#
# Elastic Constant Matrix: (Units=GPa)
#
#
# Indices 1 2 3 4 5 6 
#
# 1 156.2150 130.4494 3.7542 0.0000 0.0000 0.0000
# 2 130.4494 156.2203 3.7530 0.0000 0.0000 0.0000
# 3 3.7542 3.7530 23.1893 0.0000 0.0000 0.0000
# 4 0.0000 0.0000 0.0000 3.7223 0.0000 0.0000
# 5 0.0000 0.0000 0.0000 0.0000 3.7225 0.0000
# 6 0.0000 0.0000 0.0000 0.0000 0.0000 20.4749
#
#
#
# Elastic Compliance Matrix: (Units=1/GPa)
#
#
# Indices 1 2 3 4 5 6 
#
# 1 0.021156 -0.017652 -0.000568 0.000000 0.000000 0.000000
# 2 -0.017652 0.021155 -0.000566 0.000000 0.000000 0.000000
# 3 -0.000568 -0.000566 0.043307 0.000000 0.000000 0.000000
# 4 0.000000 0.000000 0.000000 0.268651 0.000000 0.000000
# 5 0.000000 0.000000 0.000000 0.000000 0.268635 0.000000
# 6 0.000000 0.000000 0.000000 0.000000 0.000000 0.048840
#
#
# Mechanical properties :
#
#
# Convention : Reuss Voigt Hill
#
# Bulk Modulus (GPa) = 20.81378 67.94865 44.38122
# Shear Modulus (GPa) = 6.89340 18.76182 12.82761
#
# Velocity S-wave (km/s) = 1.83557 3.02824 2.50395
# Velocity P-wave (km/s) = 3.82957 6.74080 5.48197
#
# Compressibility (1/GPa) = 0.04804508
#
# Stress axis : x y z
#
# Youngs Moduli (GPa) = 47.26848 47.27022 23.09102
#
# Poissons Ratio (x) = 0.83442 0.01312
# Poissons Ratio (y) = 0.83439 0.01307
# Poissons Ratio (z) = 0.02685 0.02676
#
# Static dielectric constant tensor:
#      x y z
#    x 1.728880 0.000000 0.000000 
#    y 0.000000 1.728880 0.000000 
#    z 0.000000 0.000000 1.746650 
# 
# From -- ./inp_files/4752.got.cif
#   From: 2010.05.17/outbox.cif.g08.bks.cpg/sg138_3_cif.got.tgz:4752.got - 2010.05.20 13:08:53.
