data_PCOD9570647
_publ_section_title
;
Structure prediction by ZEFSAII (Michael W. Deem and Ramdas Pophale) SiO2 
 PCOD9570647
Probable space group: P 42/N C M
;
_chemical_formula_sum "Si O2"
_cell_formula_units_Z 96
_cell_length_a 23.528527
_cell_length_b 23.528527
_cell_length_c 11.317303
_cell_angle_alpha 90.000000
_cell_angle_beta 90.000000
_cell_angle_gamma 90.000000
_cell_volume 6265.163681
_symmetry_space_group_name_H-M "P 42/N C M"
_symmetry_group_IT_number 138
_space_group.IT_coordinate_system_code '2'
_symmetry_cell_setting 'tetragonal'
loop_
_space_group_symop_operation_xyz
x,y,z
1/2-y,x,1/2+z
1/2-x,1/2-y,z
y,1/2-x,1/2+z
1/2+x,-y,1/2-z
-x,1/2+y,1/2-z
1/2+y,1/2+x,-z
-y,-x,-z
-x,-y,-z
1/2+y,-x,1/2-z
1/2+x,1/2+y,-z
-y,1/2+x,1/2-z
1/2-x,y,1/2+z
x,1/2-y,1/2+z
1/2-y,1/2-x,z
y,x,z
loop_
_atom_site_type_symbol
_atom_site_label
_atom_site_fract_x
_atom_site_fract_y
_atom_site_fract_z
Si Si1 0.043899 0.947417 0.136637
Si Si2 0.590028 0.001913 0.013029
Si Si3 0.962135 0.869522 0.258627
Si Si4 0.587012 0.746303 0.786986
Si Si5 0.844958 0.751099 0.037300
Si Si6 0.468206 0.128984 0.752947
O O1 0.016009 0.889329 0.181717
O O2 0.097374 0.976980 0.198547
O O3 0.056673 0.943327 0.000000
O O4 0.993244 0.993244 0.155338
O O5 0.535844 0.964157 0.055085
O O6 0.609735 0.979183 0.888597
O O7 0.565291 0.065291 0.000000
O O8 0.635936 0.986452 0.110637
O O9 0.905952 0.905952 0.222081
O O10 0.948318 0.803651 0.264937
O O11 0.623795 0.741812 0.664363
O O12 0.549695 0.689362 0.797204
O O13 0.619972 0.751297 0.913332
O O14 0.798687 0.701314 0.028230
O O15 0.810810 0.810810 0.041877
O O16 0.413922 0.086079 0.739752
#
# Coordination Sequence:
#
# PCOD9570647 Si02
#       6
#    16  16  16  16  16  16
#     4   9  18  31  49  69  93 127 163 202 254 317
#     4   9  15  29  51  71  90 120 161 201 247 304
#     4  10  19  32  50  72  98 129 166 208 256 304
#     4  12  24  35  52  78 104 133 176 226 260 298
#     4  11  23  39  53  67  97 144 188 220 252 288
#     4  10  19  32  50  72  98 129 166 208 256 304
#
# _framework density 15.322824000000001
#
# number of rings (size 3 to 8) (size 9 to 14) (size 15 to 20)
#    0.000    1.833    1.667    4.000    2.333    2.667 
#    0.000    0.000    0.000    0.000    0.000    0.000 
#    0.000    0.667    0.000    3.000    0.000    0.000 
#
# Total GULP energy -534411.706439 kJ/mol
# GULP energy per Si atom -5566.788609 kJ/mol
# Density = 1.528795 g / cm^3
# Si number density = 15.322824 Si / 1000 Ang^3
#
#
#
# Elastic Constant Matrix: (Units=GPa)
#
#
# Indices 1 2 3 4 5 6 
#
# 1 125.0048 -34.1958 -1.4104 0.0000 0.0000 0.0000
# 2 -34.1958 124.9952 -1.4047 0.0000 0.0000 0.0000
# 3 -1.4104 -1.4047 75.2352 0.0000 0.0000 0.0000
# 4 0.0000 0.0000 0.0000 30.8287 0.0000 0.0000
# 5 0.0000 0.0000 0.0000 0.0000 30.8312 0.0000
# 6 0.0000 0.0000 0.0000 0.0000 0.0000 28.4453
#
#
#
# Elastic Compliance Matrix: (Units=1/GPa)
#
#
# Indices 1 2 3 4 5 6 
#
# 1 0.008650 0.002369 0.000206 0.000000 0.000000 0.000000
# 2 0.002369 0.008651 0.000206 0.000000 0.000000 0.000000
# 3 0.000206 0.000206 0.013299 0.000000 0.000000 0.000000
# 4 0.000000 0.000000 0.000000 0.032437 0.000000 0.000000
# 5 0.000000 0.000000 0.000000 0.000000 0.032435 0.000000
# 6 0.000000 0.000000 0.000000 0.000000 0.000000 0.035155
#
#
# Mechanical properties :
#
#
# Convention : Reuss Voigt Hill
#
# Bulk Modulus (GPa) = 27.65321 27.91261 27.78291
# Shear Modulus (GPa) = 36.46463 42.17077 39.31770
#
# Velocity S-wave (km/s) = 4.88357 5.25179 5.07102
# Velocity P-wave (km/s) = 7.06295 7.41829 7.24280
#
# Compressibility (1/GPa) = 0.03616216
#
# Stress axis : x y z
#
# Youngs Moduli (GPa) = 115.60678 115.59815 75.19158
#
# Poissons Ratio (x) = -0.27382 -0.01552
# Poissons Ratio (y) = -0.27384 -0.01548
# Poissons Ratio (z) = -0.02386 -0.02380
#
# Static dielectric constant tensor:
#      x y z
#    x 1.533940 0.000000 0.000000 
#    y 0.000000 1.533940 0.000000 
#    z 0.000000 0.000000 1.593750 
# 
# From -- ./inp_files/3120.got.cif
#   From: 2010.05.17/outbox.cif.g08.bks.cpg/sg138_2_cif.got.tgz:3120.got - 2010.05.20 13:08:53.
