data_PCOD9570796
_publ_section_title
;
Structure prediction by ZEFSAII (Michael W. Deem and Ramdas Pophale) SiO2 
 PCOD9570796
Probable space group: P 42/N C M
;
_chemical_formula_sum "Si O2"
_cell_formula_units_Z 96
_cell_length_a 15.168647
_cell_length_b 15.168647
_cell_length_c 19.678094
_cell_angle_alpha 90.000000
_cell_angle_beta 90.000000
_cell_angle_gamma 90.000000
_cell_volume 4527.690376
_symmetry_space_group_name_H-M "P 42/N C M"
_symmetry_group_IT_number 138
_space_group.IT_coordinate_system_code '2'
_symmetry_cell_setting 'tetragonal'
loop_
_space_group_symop_operation_xyz
x,y,z
1/2-y,x,1/2+z
1/2-x,1/2-y,z
y,1/2-x,1/2+z
1/2+x,-y,1/2-z
-x,1/2+y,1/2-z
1/2+y,1/2+x,-z
-y,-x,-z
-x,-y,-z
1/2+y,-x,1/2-z
1/2+x,1/2+y,-z
-y,1/2+x,1/2-z
1/2-x,y,1/2+z
x,1/2-y,1/2+z
1/2-y,1/2-x,z
y,x,z
loop_
_atom_site_type_symbol
_atom_site_label
_atom_site_fract_x
_atom_site_fract_y
_atom_site_fract_z
Si Si1 0.191564 0.865665 0.714906
Si Si2 0.487555 0.634283 0.182378
Si Si3 0.692697 0.553128 0.609152
Si Si4 0.608635 0.132132 0.073694
Si Si5 0.110920 0.538519 0.568317
Si Si6 0.927153 0.787964 0.452378
O O1 0.282564 0.861112 0.755622
O O2 0.144142 0.952693 0.741324
O O3 0.196012 0.861679 0.634306
O O4 0.562067 0.562067 0.178713
O O5 0.527317 0.724884 0.154574
O O6 0.408706 0.601564 0.132566
O O7 0.630682 0.630682 0.636533
O O8 0.635824 0.464874 0.597507
O O9 0.724783 0.580730 0.533696
O O10 0.504671 0.141837 0.061971
O O11 0.650640 0.150640 0.000000
O O12 0.098345 0.598345 0.500000
O O13 0.197713 0.475831 0.572453
O O14 0.030865 0.469136 0.566322
O O15 0.834839 0.834839 0.429314
#
# Coordination Sequence:
#
# PCOD9570796 Si02
#       6
#    16  16  16  16  16  16
#     4  11  23  42  64  94 132 167 213 269 323 392
#     4  11  23  40  62  90 127 176 220 266 336 400
#     4  10  20  37  61  91 127 166 217 274 326 386
#     4  10  21  40  65  96 128 167 212 268 330 388
#     4  10  20  36  57  84 126 174 219 268 326 395
#     4  10  20  35  61  93 124 166 220 275 328 387
#
# _framework density 21.202863000000001
#
# number of rings (size 3 to 8) (size 9 to 14) (size 15 to 20)
#    0.000    1.667    3.333    1.500    0.000    4.000 
#    0.000    3.333    0.000    0.000    0.000    2.333 
#    0.000    0.000    0.000    0.000    0.000    0.000 
#
# Total GULP energy -535348.889998 kJ/mol
# GULP energy per Si atom -5576.550937 kJ/mol
# Density = 2.115460 g / cm^3
# Si number density = 21.202863 Si / 1000 Ang^3
#
#
#
# Elastic Constant Matrix: (Units=GPa)
#
#
# Indices 1 2 3 4 5 6 
#
# 1 73.8333 54.8656 30.2868 0.0000 0.0000 0.0000
# 2 54.8656 73.8333 30.2868 0.0000 0.0000 0.0000
# 3 30.2868 30.2868 111.7066 0.0000 0.0000 0.0000
# 4 0.0000 0.0000 0.0000 15.7125 0.0000 0.0000
# 5 0.0000 0.0000 0.0000 0.0000 15.7125 0.0000
# 6 0.0000 0.0000 0.0000 0.0000 0.0000 35.9568
#
#
#
# Elastic Compliance Matrix: (Units=1/GPa)
#
#
# Indices 1 2 3 4 5 6 
#
# 1 0.030814 -0.021907 -0.002415 0.000000 0.000000 0.000000
# 2 -0.021907 0.030814 -0.002415 0.000000 0.000000 0.000000
# 3 -0.002415 -0.002415 0.010261 0.000000 0.000000 0.000000
# 4 0.000000 0.000000 0.000000 0.063643 0.000000 0.000000
# 5 0.000000 0.000000 0.000000 0.000000 0.063643 0.000000
# 6 0.000000 0.000000 0.000000 0.000000 0.000000 0.027811
#
#
# Mechanical properties :
#
#
# Convention : Reuss Voigt Hill
#
# Bulk Modulus (GPa) = 54.30237 54.47242 54.38740
# Shear Modulus (GPa) = 17.44592 23.07197 20.25895
#
# Velocity S-wave (km/s) = 2.87158 3.30230 3.09444
# Velocity P-wave (km/s) = 6.05484 6.34721 6.20275
#
# Compressibility (1/GPa) = 0.01841540
#
# Stress axis : x y z
#
# Youngs Moduli (GPa) = 32.45282 32.45282 97.45178
#
# Poissons Ratio (x) = 0.71095 0.23533
# Poissons Ratio (y) = 0.71095 0.23533
# Poissons Ratio (z) = 0.07837 0.07837
#
# Static dielectric constant tensor:
#      x y z
#    x 1.783730 0.000000 0.000000 
#    y 0.000000 1.783730 0.000000 
#    z 0.000000 0.000000 1.805690 
# 
# From -- ./inp_files/6204.got.cif
#   From: 2010.05.17/outbox.cif.g08.bks.cpg/sg138_4_cif.got.tgz:6204.got - 2010.05.20 13:08:53.
