data_PCOD9570082
_publ_section_title
;
Structure prediction by ZEFSAII (Michael W. Deem and Ramdas Pophale) SiO2 
 PCOD9570082
Probable space group: P 42/N M C
;
_chemical_formula_sum "Si O2"
_cell_formula_units_Z 96
_cell_length_a 24.153662
_cell_length_b 24.153662
_cell_length_c 10.239767
_cell_angle_alpha 90.000000
_cell_angle_beta 90.000000
_cell_angle_gamma 90.000000
_cell_volume 5973.873801
_symmetry_space_group_name_H-M "P 42/N M C"
_symmetry_group_IT_number 137
_space_group.IT_coordinate_system_code '2'
_symmetry_cell_setting 'tetragonal'
loop_
_space_group_symop_operation_xyz
x,y,z
1/2-y,x,1/2+z
1/2-x,1/2-y,z
y,1/2-x,1/2+z
1/2+x,-y,-z
-x,1/2+y,-z
1/2+y,1/2+x,1/2-z
-y,-x,1/2-z
-x,-y,-z
1/2+y,-x,1/2-z
1/2+x,1/2+y,-z
-y,1/2+x,1/2-z
1/2-x,y,z
x,1/2-y,z
1/2-y,1/2-x,1/2+z
y,x,1/2+z
loop_
_atom_site_type_symbol
_atom_site_label
_atom_site_fract_x
_atom_site_fract_y
_atom_site_fract_z
Si Si1 0.975831 0.912437 0.965631
Si Si2 0.928788 0.028417 0.887458
Si Si3 0.184883 0.470420 0.739869
Si Si4 0.514782 0.310970 0.519225
Si Si5 0.614028 0.689423 0.392971
Si Si6 0.630473 0.620031 0.629629
O O1 0.983498 0.858688 0.874783
O O2 0.895077 0.939582 0.592133
O O3 0.033170 0.940821 0.005688
O O4 0.940845 0.962339 0.898723
O O5 0.949347 0.050654 0.750000
O O6 0.864699 0.040194 0.914510
O O7 0.250000 0.465461 0.702649
O O8 0.160852 0.414210 0.803840
O O9 0.181995 0.512814 0.862149
O O10 0.537612 0.250000 0.550639
O O11 0.450534 0.311072 0.565730
O O12 0.636853 0.750000 0.420435
O O13 0.644099 0.645789 0.487954
O O14 0.615906 0.676446 0.239984
#
# Coordination Sequence:
#
# PCOD9570082 Si02
#       6
#    16  16  16  16  16  16
#     4  11  21  30  52  80 107 133 171 215 266 323
#     4  11  21  31  49  78 111 136 165 212 268 317
#     4  10  19  33  51  72  99 138 180 216 258 316
#     4   9  18  34  51  70 103 144 177 203 251 317
#     4  10  20  33  53  71  92 131 179 221 260 315
#     4  11  18  36  51  71 101 131 176 216 267 319
#
# _framework density 16.069973999999998
#
# number of rings (size 3 to 8) (size 9 to 14) (size 15 to 20)
#    0.000    1.667    5.000    3.500    2.333    0.667 
#    0.000    0.833    0.000    4.000    0.000    0.000 
#    0.000    2.333    0.000    7.333    0.000    0.167 
#
# Total GULP energy -534720.760077 kJ/mol
# GULP energy per Si atom -5570.007917 kJ/mol
# Density = 1.603340 g / cm^3
# Si number density = 16.069974 Si / 1000 Ang^3
#
#
#
# Elastic Constant Matrix: (Units=GPa)
#
#
# Indices 1 2 3 4 5 6 
#
# 1 58.5322 13.1424 22.0539 0.0000 0.0000 0.0000
# 2 13.1424 58.5387 22.0552 0.0000 0.0000 0.0000
# 3 22.0539 22.0552 75.0403 0.0000 0.0000 0.0000
# 4 0.0000 0.0000 0.0000 19.8353 0.0000 0.0000
# 5 0.0000 0.0000 0.0000 0.0000 19.8349 0.0000
# 6 0.0000 0.0000 0.0000 0.0000 0.0000 6.7651
#
#
#
# Elastic Compliance Matrix: (Units=1/GPa)
#
#
# Indices 1 2 3 4 5 6 
#
# 1 0.019532 -0.002499 -0.005006 0.000000 0.000000 0.000000
# 2 -0.002499 0.019530 -0.005006 0.000000 0.000000 0.000000
# 3 -0.005006 -0.005006 0.016269 0.000000 0.000000 0.000000
# 4 0.000000 0.000000 0.000000 0.050415 0.000000 0.000000
# 5 0.000000 0.000000 0.000000 0.000000 0.050416 0.000000
# 6 0.000000 0.000000 0.000000 0.000000 0.000000 0.147818
#
#
# Mechanical properties :
#
#
# Convention : Reuss Voigt Hill
#
# Bulk Modulus (GPa) = 32.99322 34.06826 33.53074
# Shear Modulus (GPa) = 14.74478 18.27769 16.51124
#
# Velocity S-wave (km/s) = 3.03237 3.37617 3.20888
# Velocity P-wave (km/s) = 5.73026 6.03689 5.88557
#
# Compressibility (1/GPa) = 0.03030926
#
# Stress axis : x y z
#
# Youngs Moduli (GPa) = 51.19847 51.20409 61.46839
#
# Poissons Ratio (x) = 0.12796 0.30770
# Poissons Ratio (y) = 0.12795 0.30768
# Poissons Ratio (z) = 0.25629 0.25630
#
# Static dielectric constant tensor:
#      x y z
#    x 1.545900 0.000000 0.000000 
#    y 0.000000 1.545910 0.000000 
#    z 0.000000 0.000000 1.584920 
# 
# From -- ./inp_files/3845.got.cif
#   From: 2010.05.17/outbox.cif.g08.bks.cpg/sg137_2_cif.got.tgz:3845.got - 2010.05.20 13:01:12.
