data_PCOD9570386
_publ_section_title
;
Structure prediction by ZEFSAII (Michael W. Deem and Ramdas Pophale) SiO2 
 PCOD9570386
Probable space group: P 42/N M C
;
_chemical_formula_sum "Si O2"
_cell_formula_units_Z 112
_cell_length_a 14.381789
_cell_length_b 14.381789
_cell_length_c 26.659958
_cell_angle_alpha 90.000000
_cell_angle_beta 90.000000
_cell_angle_gamma 90.000000
_cell_volume 5514.235203
_symmetry_space_group_name_H-M "P 42/N M C"
_symmetry_group_IT_number 137
_space_group.IT_coordinate_system_code '2'
_symmetry_cell_setting 'tetragonal'
loop_
_space_group_symop_operation_xyz
x,y,z
1/2-y,x,1/2+z
1/2-x,1/2-y,z
y,1/2-x,1/2+z
1/2+x,-y,-z
-x,1/2+y,-z
1/2+y,1/2+x,1/2-z
-y,-x,1/2-z
-x,-y,-z
1/2+y,-x,1/2-z
1/2+x,1/2+y,-z
-y,1/2+x,1/2-z
1/2-x,y,z
x,1/2-y,z
1/2-y,1/2-x,1/2+z
y,x,1/2+z
loop_
_atom_site_type_symbol
_atom_site_label
_atom_site_fract_x
_atom_site_fract_y
_atom_site_fract_z
Si Si1 0.015445 0.639400 0.445967
Si Si2 0.361445 0.142005 0.879420
Si Si3 0.033225 0.639958 0.559085
Si Si4 0.350603 0.358192 0.193984
Si Si5 0.359763 0.022864 0.600709
Si Si6 0.971121 0.581807 0.216842
Si Si7 0.142398 0.639642 0.151316
O O1 0.999730 0.750000 0.445483
O O2 0.920057 0.585627 0.436741
O O3 0.052686 0.616175 0.501145
O O4 0.084660 0.618080 0.399796
O O5 0.250000 0.145275 0.873799
O O6 0.394259 0.250000 0.882718
O O7 0.405880 0.089805 0.831679
O O8 0.381954 0.074090 0.926262
O O9 0.046448 0.750000 0.566100
O O10 0.100023 0.579763 0.594058
O O11 0.250000 0.369075 0.168062
O O12 0.359055 0.250000 0.209151
O O13 0.431714 0.379505 0.154921
O O14 0.353322 0.422879 0.242077
O O15 0.250000 0.027484 0.592070
O O16 0.989117 0.489117 0.250000
O O17 0.071147 0.611235 0.194731
O O18 0.250000 0.617718 0.164127
O O19 0.135791 0.750000 0.143022
#
# Coordination Sequence:
#
# PCOD9570386 Si02
#       7
#    16  16  16  16  16  16  16
#     4  10  21  39  62  86 117 155 194 239 290 344
#     4  10  21  38  61  89 118 149 190 242 298 350
#     4  10  22  40  61  87 120 156 195 239 287 345
#     4  10  21  38  60  85 112 145 189 240 293 345
#     4  11  23  38  58  85 117 152 195 245 291 340
#     4  12  23  35  56  82 114 155 191 230 283 345
#     4  10  22  38  56  83 118 154 193 235 283 347
#
# _framework density 20.311067000000001
#
# number of rings (size 3 to 8) (size 9 to 14) (size 15 to 20)
#    0.000    1.571    0.000    5.143    0.000    6.286 
#    0.000    3.571    0.000    0.000    0.000    0.000 
#    0.000   19.429    0.000    0.000    0.000    0.000 
#
# Total GULP energy -625378.344037 kJ/mol
# GULP energy per Si atom -5583.735215 kJ/mol
# Density = 2.026484 g / cm^3
# Si number density = 20.311067 Si / 1000 Ang^3
#
#
#
# Elastic Constant Matrix: (Units=GPa)
#
#
# Indices 1 2 3 4 5 6 
#
# 1 75.0042 34.4337 57.2092 0.0000 0.0000 0.0000
# 2 34.4337 75.0042 57.2092 0.0000 0.0000 0.0000
# 3 57.2092 57.2092 115.0673 0.0000 0.0000 0.0000
# 4 0.0000 0.0000 0.0000 28.3354 0.0000 0.0000
# 5 0.0000 0.0000 0.0000 0.0000 28.3354 0.0000
# 6 0.0000 0.0000 0.0000 0.0000 0.0000 24.2406
#
#
#
# Elastic Compliance Matrix: (Units=1/GPa)
#
#
# Indices 1 2 3 4 5 6 
#
# 1 0.021839 -0.002810 -0.009461 0.000000 0.000000 0.000000
# 2 -0.002810 0.021839 -0.009461 0.000000 0.000000 0.000000
# 3 -0.009461 -0.009461 0.018098 0.000000 0.000000 0.000000
# 4 0.000000 0.000000 0.000000 0.035291 0.000000 0.000000
# 5 0.000000 0.000000 0.000000 0.000000 0.035291 0.000000
# 6 0.000000 0.000000 0.000000 0.000000 0.000000 0.041253
#
#
# Mechanical properties :
#
#
# Convention : Reuss Voigt Hill
#
# Bulk Modulus (GPa) = 54.60694 62.53109 58.56902
# Shear Modulus (GPa) = 22.40357 23.93053 23.16705
#
# Velocity S-wave (km/s) = 3.32478 3.43622 3.38096
# Velocity P-wave (km/s) = 6.45620 6.82620 6.64378
#
# Compressibility (1/GPa) = 0.01831269
#
# Stress axis : x y z
#
# Youngs Moduli (GPa) = 45.79020 45.79020 55.25454
#
# Poissons Ratio (x) = 0.12866 0.52275
# Poissons Ratio (y) = 0.12866 0.52275
# Poissons Ratio (z) = 0.43321 0.43321
#
# Static dielectric constant tensor:
#      x y z
#    x 1.739410 0.000000 0.000000 
#    y 0.000000 1.739410 0.000000 
#    z 0.000000 0.000000 1.716880 
# 
# From -- ./inp_files/8988.got.cif
#   From: 2010.05.17/outbox.cif.g08.bks.cpg/sg137_5_cif.got.tgz:8988.got - 2010.05.20 13:01:12.
