data_PCOD9570199
_publ_section_title
;
Structure prediction by ZEFSAII (Michael W. Deem and Ramdas Pophale) SiO2 
 PCOD9570199
Probable space group: P 42/N M C
;
_chemical_formula_sum "Si O2"
_cell_formula_units_Z 112
_cell_length_a 15.180107
_cell_length_b 15.180107
_cell_length_c 25.797733
_cell_angle_alpha 90.000000
_cell_angle_beta 90.000000
_cell_angle_gamma 90.000000
_cell_volume 5944.717334
_symmetry_space_group_name_H-M "P 42/N M C"
_symmetry_group_IT_number 137
_space_group.IT_coordinate_system_code '2'
_symmetry_cell_setting 'tetragonal'
loop_
_space_group_symop_operation_xyz
x,y,z
1/2-y,x,1/2+z
1/2-x,1/2-y,z
y,1/2-x,1/2+z
1/2+x,-y,-z
-x,1/2+y,-z
1/2+y,1/2+x,1/2-z
-y,-x,1/2-z
-x,-y,-z
1/2+y,-x,1/2-z
1/2+x,1/2+y,-z
-y,1/2+x,1/2-z
1/2-x,y,z
x,1/2-y,z
1/2-y,1/2-x,1/2+z
y,x,1/2+z
loop_
_atom_site_type_symbol
_atom_site_label
_atom_site_fract_x
_atom_site_fract_y
_atom_site_fract_z
Si Si1 0.350866 0.113886 0.081496
Si Si2 0.142361 0.467376 0.293640
Si Si3 0.346072 0.647801 0.168244
Si Si4 0.652677 0.409892 0.947489
Si Si5 0.643228 0.651122 0.800013
Si Si6 0.974435 0.851081 0.013185
Si Si7 0.351399 0.357319 0.893445
O O1 0.250000 0.147468 0.073390
O O2 0.378544 0.133287 0.140216
O O3 0.346856 0.009862 0.072092
O O4 0.421029 0.147642 0.040123
O O5 0.250000 0.470799 0.293390
O O6 0.110964 0.566274 0.305800
O O7 0.112394 0.421463 0.240793
O O8 0.118159 0.403416 0.341433
O O9 0.250000 0.605781 0.180290
O O10 0.340601 0.750000 0.183777
O O11 0.358274 0.643980 0.106147
O O12 0.750000 0.389048 0.969326
O O13 0.569127 0.397190 0.984330
O O14 0.750000 0.649977 0.797896
O O15 0.615004 0.750000 0.785195
O O16 0.993163 0.750000 0.027224
O O17 0.908475 0.887730 0.057258
O O18 0.250000 0.387508 0.894811
O O19 0.348681 0.250000 0.895285
#
# Coordination Sequence:
#
# PCOD9570199 Si02
#       7
#    16  16  16  16  16  16  16
#     4  10  21  35  50  72 103 139 176 218 275 339
#     4   9  15  26  45  71  99 129 169 216 262 310
#     4   9  16  28  48  72 101 138 179 221 264 316
#     4  10  20  34  51  72 102 138 178 221 269 326
#     4   9  17  30  49  71  98 133 172 216 267 327
#     4  11  20  32  52  75 101 134 174 222 271 326
#     4   9  16  25  41  69 100 128 163 213 269 317
#
# _framework density 18.840256
#
# number of rings (size 3 to 8) (size 9 to 14) (size 15 to 20)
#    0.000    2.429    1.429    2.143    0.000    4.000 
#    0.000    0.714    0.000    3.429    0.000   12.000 
#    0.000    0.000    0.000    0.000    0.000    0.000 
#
# Total GULP energy -624944.176853 kJ/mol
# GULP energy per Si atom -5579.858722 kJ/mol
# Density = 1.879737 g / cm^3
# Si number density = 18.840256 Si / 1000 Ang^3
#
#
#
# Elastic Constant Matrix: (Units=GPa)
#
#
# Indices 1 2 3 4 5 6 
#
# 1 98.6382 24.3905 42.2909 0.0000 0.0000 0.0000
# 2 24.3905 98.6382 42.2909 0.0000 0.0000 0.0000
# 3 42.2909 42.2909 106.0006 0.0000 0.0000 0.0000
# 4 0.0000 0.0000 0.0000 24.1587 0.0000 0.0000
# 5 0.0000 0.0000 0.0000 0.0000 24.1587 0.0000
# 6 0.0000 0.0000 0.0000 0.0000 0.0000 16.4393
#
#
#
# Elastic Compliance Matrix: (Units=1/GPa)
#
#
# Indices 1 2 3 4 5 6 
#
# 1 0.012334 -0.001134 -0.004469 0.000000 0.000000 0.000000
# 2 -0.001134 0.012334 -0.004469 0.000000 0.000000 0.000000
# 3 -0.004469 -0.004469 0.013000 0.000000 0.000000 0.000000
# 4 0.000000 0.000000 0.000000 0.041393 0.000000 0.000000
# 5 0.000000 0.000000 0.000000 0.000000 0.041393 0.000000
# 6 0.000000 0.000000 0.000000 0.000000 0.000000 0.060830
#
#
# Mechanical properties :
#
#
# Convention : Reuss Voigt Hill
#
# Bulk Modulus (GPa) = 57.05847 57.91352 57.48600
# Shear Modulus (GPa) = 24.12333 25.90501 25.01417
#
# Velocity S-wave (km/s) = 3.58217 3.71210 3.64771
# Velocity P-wave (km/s) = 6.88915 7.01276 6.95123
#
# Compressibility (1/GPa) = 0.01752588
#
# Stress axis : x y z
#
# Youngs Moduli (GPa) = 81.07426 81.07426 76.92575
#
# Poissons Ratio (x) = 0.09194 0.34375
# Poissons Ratio (y) = 0.09194 0.34375
# Poissons Ratio (z) = 0.36229 0.36229
#
# Static dielectric constant tensor:
#      x y z
#    x 1.683650 0.000000 0.000000 
#    y 0.000000 1.683650 0.000000 
#    z 0.000000 0.000000 1.663270 
# 
# From -- ./inp_files/9746.got.cif
#   From: 2010.05.17/outbox.cif.g08.bks.cpg/sg137_5_cif.got.tgz:9746.got - 2010.05.20 13:01:12.
