data_PCOD9570033
_publ_section_title
;
Structure prediction by ZEFSAII (Michael W. Deem and Ramdas Pophale) SiO2 
 PCOD9570033
Probable space group: P 42/N M C
;
_chemical_formula_sum "Si O2"
_cell_formula_units_Z 96
_cell_length_a 23.448553
_cell_length_b 23.448553
_cell_length_c 10.563269
_cell_angle_alpha 90.000000
_cell_angle_beta 90.000000
_cell_angle_gamma 90.000000
_cell_volume 5808.051185
_symmetry_space_group_name_H-M "P 42/N M C"
_symmetry_group_IT_number 137
_space_group.IT_coordinate_system_code '2'
_symmetry_cell_setting 'tetragonal'
loop_
_space_group_symop_operation_xyz
x,y,z
1/2-y,x,1/2+z
1/2-x,1/2-y,z
y,1/2-x,1/2+z
1/2+x,-y,-z
-x,1/2+y,-z
1/2+y,1/2+x,1/2-z
-y,-x,1/2-z
-x,-y,-z
1/2+y,-x,1/2-z
1/2+x,1/2+y,-z
-y,1/2+x,1/2-z
1/2-x,y,z
x,1/2-y,z
1/2-y,1/2-x,1/2+z
y,x,1/2+z
loop_
_atom_site_type_symbol
_atom_site_label
_atom_site_fract_x
_atom_site_fract_y
_atom_site_fract_z
Si Si1 0.493179 0.419731 0.898931
Si Si2 0.470530 0.424513 0.618101
Si Si3 0.087956 0.816499 0.740136
Si Si4 0.313888 0.937204 0.480220
Si Si5 0.184653 0.530346 0.027179
Si Si6 0.842433 0.186647 0.609027
O O1 0.458612 0.425751 0.767870
O O2 0.539220 0.470958 0.900026
O O3 0.529057 0.361584 0.903868
O O4 0.454026 0.426494 0.022702
O O5 0.485394 0.360713 0.575746
O O6 0.141198 0.858803 0.750000
O O7 0.105422 0.750000 0.729966
O O8 0.051554 0.830023 0.615093
O O9 0.052893 0.822373 0.870030
O O10 0.250000 0.953280 0.442097
O O11 0.320137 0.868804 0.463437
O O12 0.250000 0.510470 0.028752
O O13 0.181778 0.588862 0.108653
O O14 0.818729 0.181272 0.750000
O O15 0.828637 0.250000 0.557575
#
# Coordination Sequence:
#
# PCOD9570033 Si02
#       6
#    16  16  16  16  16  16
#     4  10  21  35  52  76  98 131 170 209 261 304
#     4  10  20  35  54  73 100 128 169 213 254 312
#     4  10  19  31  47  67  93 131 171 210 254 298
#     4  11  22  34  51  72 101 133 171 217 261 307
#     4  10  20  34  53  72  97 130 167 214 262 308
#     4  11  21  33  47  66  94 131 176 219 258 299
#
# _framework density 16.528779
#
# number of rings (size 3 to 8) (size 9 to 14) (size 15 to 20)
#    0.000    1.667    3.333    1.500    2.333    3.333 
#    0.000    1.667    0.000    0.000    0.000    0.000 
#    0.000    0.667    0.000    3.000    0.000    0.000 
#
# Total GULP energy -535783.861565 kJ/mol
# GULP energy per Si atom -5581.081891 kJ/mol
# Density = 1.649116 g / cm^3
# Si number density = 16.528779 Si / 1000 Ang^3
#
#
#
# Elastic Constant Matrix: (Units=GPa)
#
#
# Indices 1 2 3 4 5 6 
#
# 1 47.2644 21.1139 25.0659 0.0000 0.0000 0.0000
# 2 21.1139 47.2659 25.0653 0.0000 0.0000 0.0000
# 3 25.0659 25.0653 86.3342 0.0000 0.0000 0.0000
# 4 0.0000 0.0000 0.0000 18.0174 0.0000 0.0000
# 5 0.0000 0.0000 0.0000 0.0000 18.0173 0.0000
# 6 0.0000 0.0000 0.0000 0.0000 0.0000 14.7147
#
#
#
# Elastic Compliance Matrix: (Units=1/GPa)
#
#
# Indices 1 2 3 4 5 6 
#
# 1 0.028410 -0.009830 -0.005394 0.000000 0.000000 0.000000
# 2 -0.009830 0.028408 -0.005394 0.000000 0.000000 0.000000
# 3 -0.005394 -0.005394 0.014715 0.000000 0.000000 0.000000
# 4 0.000000 0.000000 0.000000 0.055502 0.000000 0.000000
# 5 0.000000 0.000000 0.000000 0.000000 0.055502 0.000000
# 6 0.000000 0.000000 0.000000 0.000000 0.000000 0.067959
#
#
# Mechanical properties :
#
#
# Convention : Reuss Voigt Hill
#
# Bulk Modulus (GPa) = 33.00694 35.92829 34.46762
# Shear Modulus (GPa) = 16.56551 17.45783 17.01167
#
# Velocity S-wave (km/s) = 3.16922 3.25346 3.21162
# Velocity P-wave (km/s) = 5.77968 5.99144 5.88651
#
# Compressibility (1/GPa) = 0.03029666
#
# Stress axis : x y z
#
# Youngs Moduli (GPa) = 35.19923 35.20091 67.95769
#
# Poissons Ratio (x) = 0.34603 0.36659
# Poissons Ratio (y) = 0.34601 0.36655
# Poissons Ratio (z) = 0.18988 0.18986
#
# Static dielectric constant tensor:
#      x y z
#    x 1.545110 0.000000 0.000000 
#    y 0.000000 1.545110 0.000000 
#    z 0.000000 0.000000 1.625590 
# 
# From -- ./inp_files/3878.got.cif
#   From: 2010.05.17/outbox.cif.g08.bks.cpg/sg137_2_cif.got.tgz:3878.got - 2010.05.20 13:01:12.
