data_PCOD9570425
_publ_section_title
;
Structure prediction by ZEFSAII (Michael W. Deem and Ramdas Pophale) SiO2 
 PCOD9570425
Probable space group: P 42/N M C
;
_chemical_formula_sum "Si O2"
_cell_formula_units_Z 64
_cell_length_a 22.424448
_cell_length_b 22.424448
_cell_length_c 5.247696
_cell_angle_alpha 90.000000
_cell_angle_beta 90.000000
_cell_angle_gamma 90.000000
_cell_volume 2638.834728
_symmetry_space_group_name_H-M "P 42/N M C"
_symmetry_group_IT_number 137
_space_group.IT_coordinate_system_code '2'
_symmetry_cell_setting 'tetragonal'
loop_
_space_group_symop_operation_xyz
x,y,z
1/2-y,x,1/2+z
1/2-x,1/2-y,z
y,1/2-x,1/2+z
1/2+x,-y,-z
-x,1/2+y,-z
1/2+y,1/2+x,1/2-z
-y,-x,1/2-z
-x,-y,-z
1/2+y,-x,1/2-z
1/2+x,1/2+y,-z
-y,1/2+x,1/2-z
1/2-x,y,z
x,1/2-y,z
1/2-y,1/2-x,1/2+z
y,x,1/2+z
loop_
_atom_site_type_symbol
_atom_site_label
_atom_site_fract_x
_atom_site_fract_y
_atom_site_fract_z
Si Si1 0.626892 0.182368 0.500037
Si Si2 0.483924 0.316314 0.594488
Si Si3 0.319989 0.122075 0.436367
Si Si4 0.566358 0.474069 0.003131
O O1 0.647434 0.147434 0.250000
O O2 0.643471 0.250000 0.448167
O O3 0.555586 0.183381 0.566356
O O4 0.659620 0.159620 0.750000
O O5 0.464474 0.250000 0.493778
O O6 0.448893 0.321353 0.864510
O O7 0.475336 0.382993 0.480614
O O8 0.250000 0.139044 0.425912
O O9 0.355619 0.153710 0.203946
O O10 0.565909 0.434092 0.750000
O O11 0.566048 0.433953 0.250000
O O12 0.500000 0.500000 0.000000
#
# Coordination Sequence:
#
# PCOD9570425 Si02
#       4
#    16  16  16  16
#     4  11  24  43  68  97 137 181 229 283 339 404
#     4  10  24  44  66  99 140 179 220 278 348 408
#     4  11  26  45  71  99 133 177 224 279 341 408
#     4  10  22  38  64  95 125 167 217 273 323 390
#
# _framework density 24.253129000000001
#
# number of rings (size 3 to 8) (size 9 to 14) (size 15 to 20)
#    0.000    1.500    0.000    3.000    7.000    5.000 
#    0.000   13.750    0.000    0.000    0.000    0.000 
#    0.000    0.000    0.000    0.000    0.000    0.000 
#
# Total GULP energy -356620.009125 kJ/mol
# GULP energy per Si atom -5572.187643 kJ/mol
# Density = 2.419793 g / cm^3
# Si number density = 24.253129 Si / 1000 Ang^3
#
#
#
# Elastic Constant Matrix: (Units=GPa)
#
#
# Indices 1 2 3 4 5 6 
#
# 1 171.4714 20.8189 40.9427 0.0000 0.0000 0.0000
# 2 20.8189 171.4697 40.9423 0.0000 0.0000 0.0000
# 3 40.9427 40.9423 171.7392 0.0000 0.0000 0.0000
# 4 0.0000 0.0000 0.0000 17.7548 0.0000 0.0000
# 5 0.0000 0.0000 0.0000 0.0000 17.7545 0.0000
# 6 0.0000 0.0000 0.0000 0.0000 0.0000 34.7394
#
#
#
# Elastic Compliance Matrix: (Units=1/GPa)
#
#
# Indices 1 2 3 4 5 6 
#
# 1 0.006213 -0.000425 -0.001380 0.000000 0.000000 0.000000
# 2 -0.000425 0.006213 -0.001380 0.000000 0.000000 0.000000
# 3 -0.001380 -0.001380 0.006481 0.000000 0.000000 0.000000
# 4 0.000000 0.000000 0.000000 0.056323 0.000000 0.000000
# 5 0.000000 0.000000 0.000000 0.000000 0.056324 0.000000
# 6 0.000000 0.000000 0.000000 0.000000 0.000000 0.028786
#
#
# Mechanical properties :
#
#
# Convention : Reuss Voigt Hill
#
# Bulk Modulus (GPa) = 79.76138 80.00979 79.88559
# Shear Modulus (GPa) = 29.25901 41.51482 35.38691
#
# Velocity S-wave (km/s) = 3.47710 4.14179 3.82392
# Velocity P-wave (km/s) = 7.00562 7.47888 7.24612
#
# Compressibility (1/GPa) = 0.01253740
#
# Stress axis : x y z
#
# Youngs Moduli (GPa) = 160.95437 160.95296 154.30414
#
# Poissons Ratio (x) = 0.06838 0.21292
# Poissons Ratio (y) = 0.06838 0.21292
# Poissons Ratio (z) = 0.22210 0.22210
#
# Static dielectric constant tensor:
#      x y z
#    x 2.727450 0.000000 0.000000 
#    y 0.000000 2.727100 0.000000 
#    z 0.000000 0.000000 1.956160 
# 
# From -- ./inp_files/452.got.cif
#   From: 2010.05.17/outbox.cif.g08.bks.cpg/sg137_1_cif.got.tgz:452.got - 2010.05.20 13:01:12.
