data_PCOD9570632
_publ_section_title
;
Structure prediction by ZEFSAII (Michael W. Deem and Ramdas Pophale) SiO2 
 PCOD9570632
Probable space group: P 42/N C M
;
_chemical_formula_sum "Si O2"
_cell_formula_units_Z 112
_cell_length_a 31.382327
_cell_length_b 31.382327
_cell_length_c 4.979053
_cell_angle_alpha 90.000000
_cell_angle_beta 90.000000
_cell_angle_gamma 90.000000
_cell_volume 4903.622577
_symmetry_space_group_name_H-M "P 42/N C M"
_symmetry_group_IT_number 138
_space_group.IT_coordinate_system_code '2'
_symmetry_cell_setting 'tetragonal'
loop_
_space_group_symop_operation_xyz
x,y,z
1/2-y,x,1/2+z
1/2-x,1/2-y,z
y,1/2-x,1/2+z
1/2+x,-y,1/2-z
-x,1/2+y,1/2-z
1/2+y,1/2+x,-z
-y,-x,-z
-x,-y,-z
1/2+y,-x,1/2-z
1/2+x,1/2+y,-z
-y,1/2+x,1/2-z
1/2-x,y,1/2+z
x,1/2-y,1/2+z
1/2-y,1/2-x,z
y,x,z
loop_
_atom_site_type_symbol
_atom_site_label
_atom_site_fract_x
_atom_site_fract_y
_atom_site_fract_z
Si Si1 0.029236 0.219591 0.187198
Si Si2 0.220157 0.845958 0.374056
Si Si3 0.564034 0.009143 0.308528
Si Si4 0.402111 0.474531 0.698801
Si Si5 0.160579 0.091687 0.456592
Si Si6 0.721095 0.442094 0.612424
Si Si7 0.846159 0.777610 0.234561
O O1 0.031092 0.259363 0.396168
O O2 0.068898 0.189431 0.237336
O O3 0.984214 0.197864 0.277912
O O4 0.185258 0.814743 0.500000
O O5 0.260556 0.840117 0.576426
O O6 0.202931 0.894658 0.365093
O O7 0.523956 0.976044 0.286891
O O8 0.583701 0.011277 0.011710
O O9 0.546639 0.046639 0.500000
O O10 0.600419 0.988798 0.495797
O O11 0.441550 0.441550 0.693197
O O12 0.362517 0.447207 0.605737
O O13 0.124214 0.124214 0.352224
O O14 0.190085 0.118081 0.659829
O O15 0.737007 0.443796 0.305981
O O16 0.849125 0.763225 0.927963
O O17 0.801579 0.801579 0.278252
#
# Coordination Sequence:
#
# PCOD9570632 Si02
#       7
#    16  16  16  16  16  16  16
#     4  10  20  37  60  81 103 137 182 226 269 325
#     4  10  19  30  46  73 111 151 189 228 271 320
#     4   9  16  28  47  69  94 129 171 206 237 287
#     4   9  18  30  46  71 102 134 166 204 255 312
#     4  10  22  38  57  85 117 143 173 224 291 352
#     4   8  16  31  51  74  98 132 179 225 263 302
#     4  11  24  41  61  84 112 147 186 228 277 342
#
# _framework density 22.840257000000001
#
# number of rings (size 3 to 8) (size 9 to 14) (size 15 to 20)
#    0.000    2.429    0.000    2.143    0.000    5.714 
#    0.000    7.857    0.000    1.714    0.000    0.000 
#    0.000    0.000    0.000    0.000    0.000    0.000 
#
# Total GULP energy -625157.562999 kJ/mol
# GULP energy per Si atom -5581.763955 kJ/mol
# Density = 2.278827 g / cm^3
# Si number density = 22.840257 Si / 1000 Ang^3
#
#
#
# Elastic Constant Matrix: (Units=GPa)
#
#
# Indices 1 2 3 4 5 6 
#
# 1 65.7627 43.7817 -1.9283 0.0000 0.0000 0.0000
# 2 43.7817 65.7623 -1.9283 0.0000 0.0000 0.0000
# 3 -1.9283 -1.9283 84.6229 0.0000 0.0000 0.0000
# 4 0.0000 0.0000 0.0000 13.7106 0.0000 0.0000
# 5 0.0000 0.0000 0.0000 0.0000 13.7103 0.0000
# 6 0.0000 0.0000 0.0000 0.0000 0.0000 20.3532
#
#
#
# Elastic Compliance Matrix: (Units=1/GPa)
#
#
# Indices 1 2 3 4 5 6 
#
# 1 0.027315 -0.018179 0.000208 0.000000 0.000000 0.000000
# 2 -0.018179 0.027315 0.000208 0.000000 0.000000 0.000000
# 3 0.000208 0.000208 0.011827 0.000000 0.000000 0.000000
# 4 0.000000 0.000000 0.000000 0.072936 0.000000 0.000000
# 5 0.000000 0.000000 0.000000 0.000000 0.072938 0.000000
# 6 0.000000 0.000000 0.000000 0.000000 0.000000 0.049132
#
#
# Mechanical properties :
#
#
# Convention : Reuss Voigt Hill
#
# Bulk Modulus (GPa) = 32.32952 32.88867 32.60910
# Shear Modulus (GPa) = 16.27079 21.30301 18.78690
#
# Velocity S-wave (km/s) = 2.67193 3.05732 2.87110
# Velocity P-wave (km/s) = 4.86870 5.18591 5.02981
#
# Compressibility (1/GPa) = 0.03093149
#
# Stress axis : x y z
#
# Youngs Moduli (GPa) = 36.60982 36.60958 84.55498
#
# Poissons Ratio (x) = 0.66553 -0.01760
# Poissons Ratio (y) = 0.66553 -0.01760
# Poissons Ratio (z) = -0.00762 -0.00762
#
# Static dielectric constant tensor:
#      x y z
#    x 1.888900 0.000000 0.000000 
#    y 0.000000 1.888900 0.000000 
#    z 0.000000 0.000000 1.831370 
# 
# From -- ./inp_files/558.got.cif
#   From: 2010.05.17/outbox.cif.g08.bks.cpg/sg138_1_cif.got.tgz:558.got - 2010.05.20 13:08:53.
