data_PCOD9570212
_publ_section_title
;
Structure prediction by ZEFSAII (Michael W. Deem and Ramdas Pophale) SiO2 
 PCOD9570212
Probable space group: P 42/N M C
;
_chemical_formula_sum "Si O2"
_cell_formula_units_Z 64
_cell_length_a 23.887314
_cell_length_b 23.887314
_cell_length_c 5.250751
_cell_angle_alpha 90.000000
_cell_angle_beta 90.000000
_cell_angle_gamma 90.000000
_cell_volume 2996.098317
_symmetry_space_group_name_H-M "P 42/N M C"
_symmetry_group_IT_number 137
_space_group.IT_coordinate_system_code '2'
_symmetry_cell_setting 'tetragonal'
loop_
_space_group_symop_operation_xyz
x,y,z
1/2-y,x,1/2+z
1/2-x,1/2-y,z
y,1/2-x,1/2+z
1/2+x,-y,-z
-x,1/2+y,-z
1/2+y,1/2+x,1/2-z
-y,-x,1/2-z
-x,-y,-z
1/2+y,-x,1/2-z
1/2+x,1/2+y,-z
-y,1/2+x,1/2-z
1/2-x,y,z
x,1/2-y,z
1/2-y,1/2-x,1/2+z
y,x,1/2+z
loop_
_atom_site_type_symbol
_atom_site_label
_atom_site_fract_x
_atom_site_fract_y
_atom_site_fract_z
Si Si1 0.898369 0.313654 0.665240
Si Si2 0.309648 0.495298 0.507583
Si Si3 0.979083 0.401284 0.396431
Si Si4 0.579494 0.626165 0.318154
O O1 0.839193 0.339193 0.750000
O O2 0.894977 0.250000 0.560654
O O3 0.928609 0.361247 0.494396
O O4 0.941701 0.310654 0.900876
O O5 0.250000 0.485003 0.634304
O O6 0.318212 0.453614 0.269098
O O7 0.361898 0.489379 0.692889
O O8 0.953027 0.453027 0.250000
O O9 0.023831 0.412533 0.620920
O O10 0.613084 0.618915 0.578114
#
# Coordination Sequence:
#
# PCOD9570212 Si02
#       4
#    16  16  16  16
#     4  10  20  34  54  79 110 153 205 265 315 363
#     4  10  21  39  62  84 116 161 206 247 299 366
#     4  11  21  36  59  83 117 161 207 253 306 369
#     4  11  23  41  59  90 126 158 197 250 303 364
#
# _framework density 21.361115000000002
#
# number of rings (size 3 to 8) (size 9 to 14) (size 15 to 20)
#    0.000    1.500    5.000    0.750    0.000    2.250 
#    0.000    0.000    0.000    0.000    0.000    0.000 
#    0.000    3.000    0.000    0.000    0.000    0.000 
#
# Total GULP energy -356522.314146 kJ/mol
# GULP energy per Si atom -5570.661159 kJ/mol
# Density = 2.131250 g / cm^3
# Si number density = 21.361115 Si / 1000 Ang^3
#
#
#
# Elastic Constant Matrix: (Units=GPa)
#
#
# Indices 1 2 3 4 5 6 
#
# 1 41.6313 18.9130 19.7983 0.0000 0.0000 0.0000
# 2 18.9130 41.6313 19.7983 0.0000 0.0000 0.0000
# 3 19.7983 19.7983 95.8697 0.0000 0.0000 0.0000
# 4 0.0000 0.0000 0.0000 23.1242 0.0000 0.0000
# 5 0.0000 0.0000 0.0000 0.0000 23.1242 0.0000
# 6 0.0000 0.0000 0.0000 0.0000 0.0000 5.3089
#
#
#
# Elastic Compliance Matrix: (Units=1/GPa)
#
#
# Indices 1 2 3 4 5 6 
#
# 1 0.031557 -0.012461 -0.003944 0.000000 0.000000 0.000000
# 2 -0.012461 0.031557 -0.003944 0.000000 0.000000 0.000000
# 3 -0.003944 -0.003944 0.012060 0.000000 0.000000 0.000000
# 4 0.000000 0.000000 0.000000 0.043245 0.000000 0.000000
# 5 0.000000 0.000000 0.000000 0.000000 0.043245 0.000000
# 6 0.000000 0.000000 0.000000 0.000000 0.000000 0.188364
#
#
# Mechanical properties :
#
#
# Convention : Reuss Voigt Hill
#
# Bulk Modulus (GPa) = 29.00457 32.90571 30.95514
# Shear Modulus (GPa) = 12.43116 18.35295 15.39205
#
# Velocity S-wave (km/s) = 2.41499 2.93435 2.68724
# Velocity P-wave (km/s) = 4.62427 5.18830 4.91439
#
# Compressibility (1/GPa) = 0.03447733
#
# Stress axis : x y z
#
# Youngs Moduli (GPa) = 31.68902 31.68902 82.92134
#
# Poissons Ratio (x) = 0.39487 0.32701
# Poissons Ratio (y) = 0.39487 0.32701
# Poissons Ratio (z) = 0.12497 0.12497
#
# Static dielectric constant tensor:
#      x y z
#    x 1.812350 0.000000 0.000000 
#    y 0.000000 1.812350 0.000000 
#    z 0.000000 0.000000 1.912350 
# 
# From -- ./inp_files/460.got.cif
#   From: 2010.05.17/outbox.cif.g08.bks.cpg/sg137_1_cif.got.tgz:460.got - 2010.05.20 13:01:12.
