data_PCOD9570989
_publ_section_title
;
Structure prediction by ZEFSAII (Michael W. Deem and Ramdas Pophale) SiO2 
 PCOD9570989
Probable space group: P 42/N C M
;
_chemical_formula_sum "Si O2"
_cell_formula_units_Z 96
_cell_length_a 22.039780
_cell_length_b 22.039780
_cell_length_c 8.803005
_cell_angle_alpha 90.000000
_cell_angle_beta 90.000000
_cell_angle_gamma 90.000000
_cell_volume 4276.076426
_symmetry_space_group_name_H-M "P 42/N C M"
_symmetry_group_IT_number 138
_space_group.IT_coordinate_system_code '2'
_symmetry_cell_setting 'tetragonal'
loop_
_space_group_symop_operation_xyz
x,y,z
1/2-y,x,1/2+z
1/2-x,1/2-y,z
y,1/2-x,1/2+z
1/2+x,-y,1/2-z
-x,1/2+y,1/2-z
1/2+y,1/2+x,-z
-y,-x,-z
-x,-y,-z
1/2+y,-x,1/2-z
1/2+x,1/2+y,-z
-y,1/2+x,1/2-z
1/2-x,y,1/2+z
x,1/2-y,1/2+z
1/2-y,1/2-x,z
y,x,z
loop_
_atom_site_type_symbol
_atom_site_label
_atom_site_fract_x
_atom_site_fract_y
_atom_site_fract_z
Si Si1 0.752547 0.428880 0.303556
Si Si2 0.252210 0.654395 0.955619
Si Si3 0.089719 0.993264 0.425048
Si Si4 0.972798 0.383381 0.588944
Si Si5 0.315014 0.413670 0.528668
Si Si6 0.954839 0.804777 0.137469
O O1 0.729877 0.408492 0.468374
O O2 0.821299 0.446259 0.340369
O O3 0.718981 0.482108 0.215028
O O4 0.746991 0.364946 0.217782
O O5 0.204515 0.704515 0.000000
O O6 0.317739 0.682262 0.000000
O O7 0.070475 0.929526 0.500000
O O8 0.083368 0.991181 0.243795
O O9 0.152243 0.025225 0.468374
O O10 0.042265 0.042265 0.491270
O O11 0.924255 0.424255 0.500000
O O12 0.024959 0.360141 0.472329
O O13 0.355247 0.355247 0.477264
O O14 0.316856 0.415893 0.711624
O O15 0.247029 0.421452 0.462852
#
# Coordination Sequence:
#
# PCOD9570989 Si02
#       6
#    16  16  16  16  16  16
#     4  12  22  38  57  83 122 165 211 278 325 384
#     4  11  24  38  54  78 117 168 227 277 325 385
#     4  10  22  42  64  94 133 173 221 275 334 404
#     4  12  25  39  64  98 132 174 218 272 344 403
#     4  11  23  44  73  99 134 182 220 276 352 404
#     4  12  23  44  65 100 136 168 226 284 327 416
#
# _framework density 22.450488
#
# number of rings (size 3 to 8) (size 9 to 14) (size 15 to 20)
#    0.000    0.667    5.000    2.500    2.333    3.000 
#    0.000    0.833    0.000    1.500    0.000    0.000 
#    0.000    0.000    0.000    0.000    0.000    0.000 
#
# Total GULP energy -535615.192606 kJ/mol
# GULP energy per Si atom -5579.324923 kJ/mol
# Density = 2.239939 g / cm^3
# Si number density = 22.450488 Si / 1000 Ang^3
#
#
#
# Elastic Constant Matrix: (Units=GPa)
#
#
# Indices 1 2 3 4 5 6 
#
# 1 29.4869 53.8522 21.3463 0.0000 0.0000 0.0000
# 2 53.8522 29.4904 21.3482 0.0000 0.0000 0.0000
# 3 21.3463 21.3482 115.5175 0.0000 0.0000 0.0000
# 4 0.0000 0.0000 0.0000 18.2692 0.0000 0.0000
# 5 0.0000 0.0000 0.0000 0.0000 18.2692 0.0000
# 6 0.0000 0.0000 0.0000 0.0000 0.0000 39.8131
#
#
#
# Elastic Compliance Matrix: (Units=1/GPa)
#
#
# Indices 1 2 3 4 5 6 
#
# 1 -0.013896 0.027149 -0.002449 0.000000 0.000000 0.000000
# 2 0.027149 -0.013895 -0.002449 0.000000 0.000000 0.000000
# 3 -0.002449 -0.002449 0.009562 0.000000 0.000000 0.000000
# 4 0.000000 0.000000 0.000000 0.054737 0.000000 0.000000
# 5 0.000000 0.000000 0.000000 0.000000 0.054737 0.000000
# 6 0.000000 0.000000 0.000000 0.000000 0.000000 0.025117
#
#
# Mechanical properties :
#
#
# Convention : Reuss Voigt Hill
#
# Bulk Modulus (GPa) = 38.06296 40.84313 39.45305
# Shear Modulus (GPa) = 62.02119 20.46684 41.24402
#
# Velocity S-wave (km/s) = 5.26172 3.02262 4.29080
# Velocity P-wave (km/s) = 7.34202 5.51486 6.49303
#
# Compressibility (1/GPa) = 0.02627226
#
# Stress axis : x y z
#
# Youngs Moduli (GPa) = -71.96118 -71.96887 104.58160
#
# Poissons Ratio (x) = 1.95390 0.25616
# Poissons Ratio (y) = 1.95369 0.25612
# Poissons Ratio (z) = -0.17626 -0.17625
#
# Static dielectric constant tensor:
#      x y z
#    x 1.880240 0.000000 0.000000 
#    y 0.000000 1.880240 0.000000 
#    z 0.000000 0.000000 1.843890 
# 
# From -- ./inp_files/1744.got.cif
#   From: 2010.05.17/outbox.cif.g08.bks.cpg/sg138_1_cif.got.tgz:1744.got - 2010.05.20 13:08:53.
