data_PCOD9570852
_publ_section_title
;
Structure prediction by ZEFSAII (Michael W. Deem and Ramdas Pophale) SiO2 
 PCOD9570852
Probable space group: P 42/N C M
;
_chemical_formula_sum "Si O2"
_cell_formula_units_Z 64
_cell_length_a 12.511939
_cell_length_b 12.511939
_cell_length_c 20.136489
_cell_angle_alpha 90.000000
_cell_angle_beta 90.000000
_cell_angle_gamma 90.000000
_cell_volume 3152.339515
_symmetry_space_group_name_H-M "P 42/N C M"
_symmetry_group_IT_number 138
_space_group.IT_coordinate_system_code '2'
_symmetry_cell_setting 'tetragonal'
loop_
_space_group_symop_operation_xyz
x,y,z
1/2-y,x,1/2+z
1/2-x,1/2-y,z
y,1/2-x,1/2+z
1/2+x,-y,1/2-z
-x,1/2+y,1/2-z
1/2+y,1/2+x,-z
-y,-x,-z
-x,-y,-z
1/2+y,-x,1/2-z
1/2+x,1/2+y,-z
-y,1/2+x,1/2-z
1/2-x,y,1/2+z
x,1/2-y,1/2+z
1/2-y,1/2-x,z
y,x,z
loop_
_atom_site_type_symbol
_atom_site_label
_atom_site_fract_x
_atom_site_fract_y
_atom_site_fract_z
Si Si1 0.668725 0.668725 0.139772
Si Si2 0.034730 0.857166 0.342261
Si Si3 0.688003 0.518074 0.731884
Si Si4 0.137535 0.700461 0.424743
Si Si5 0.486003 0.486003 0.922235
O O1 0.750000 0.750000 0.106712
O O2 0.589536 0.735092 0.186437
O O3 0.602642 0.602642 0.088419
O O4 0.060149 0.801404 0.412344
O O5 0.029239 0.761286 0.289152
O O6 0.127669 0.934430 0.315135
O O7 0.926880 0.926880 0.342701
O O8 0.596308 0.596308 0.760316
O O9 0.250000 0.750000 0.395760
O O10 0.167638 0.667638 0.500000
O O11 0.071407 0.596539 0.396996
O O12 0.500000 0.500000 0.000000
#
# Coordination Sequence:
#
# PCOD9570852 Si02
#       5
#     8  16  16  16   8
#     4  10  20  40  60  84 130 165 203 266 329 386
#     4  11  24  39  62  96 129 170 212 263 329 399
#     4  10  23  38  58  95 129 164 209 262 329 395
#     4  10  23  43  63  91 127 170 220 270 319 380
#     4  10  22  40  64  94 122 170 223 270 313 374
#
# _framework density 20.302382999999999
#
# number of rings (size 3 to 8) (size 9 to 14) (size 15 to 20)
#    0.000    1.750    1.250    1.500    8.750    0.000 
#    0.000    7.500    0.000    0.000    0.000    0.000 
#    0.000    0.000    0.000    0.000    0.000    0.000 
#
# Total GULP energy -356463.807509 kJ/mol
# GULP energy per Si atom -5569.746992 kJ/mol
# Density = 2.025617 g / cm^3
# Si number density = 20.302383 Si / 1000 Ang^3
#
#
#
# Elastic Constant Matrix: (Units=GPa)
#
#
# Indices 1 2 3 4 5 6 
#
# 1 135.0951 60.4176 37.6000 0.0000 0.0000 0.0000
# 2 60.4176 135.0951 37.6000 0.0000 0.0000 0.0000
# 3 37.6000 37.6000 50.5702 0.0000 0.0000 0.0000
# 4 0.0000 0.0000 0.0000 3.3400 0.0000 0.0000
# 5 0.0000 0.0000 0.0000 0.0000 3.3400 0.0000
# 6 0.0000 0.0000 0.0000 0.0000 0.0000 43.4852
#
#
#
# Elastic Compliance Matrix: (Units=1/GPa)
#
#
# Indices 1 2 3 4 5 6 
#
# 1 0.010277 -0.003114 -0.005326 0.000000 0.000000 0.000000
# 2 -0.003114 0.010277 -0.005326 0.000000 0.000000 0.000000
# 3 -0.005326 -0.005326 0.027695 0.000000 0.000000 0.000000
# 4 0.000000 0.000000 0.000000 0.299400 0.000000 0.000000
# 5 0.000000 0.000000 0.000000 0.000000 0.299400 0.000000
# 6 0.000000 0.000000 0.000000 0.000000 0.000000 0.022996
#
#
# Mechanical properties :
#
#
# Convention : Reuss Voigt Hill
#
# Bulk Modulus (GPa) = 48.26971 65.77728 57.02350
# Shear Modulus (GPa) = 7.09741 22.37590 14.73665
#
# Velocity S-wave (km/s) = 1.87175 3.32344 2.69710
# Velocity P-wave (km/s) = 5.33838 6.86994 6.15201
#
# Compressibility (1/GPa) = 0.02071692
#
# Stress axis : x y z
#
# Youngs Moduli (GPa) = 97.30351 97.30351 36.10811
#
# Poissons Ratio (x) = 0.30298 0.19231
# Poissons Ratio (y) = 0.30298 0.19231
# Poissons Ratio (z) = 0.51825 0.51825
#
# Static dielectric constant tensor:
#      x y z
#    x 1.763060 0.000000 0.000000 
#    y 0.000000 1.763060 0.000000 
#    z 0.000000 0.000000 1.722970 
# 
# From -- ./inp_files/6787.got.cif
#   From: 2010.05.17/outbox.cif.g08.bks.cpg/sg138_4_cif.got.tgz:6787.got - 2010.05.20 13:08:53.
