data_PCOD9570922
_publ_section_title
;
Structure prediction by ZEFSAII (Michael W. Deem and Ramdas Pophale) SiO2 
 PCOD9570922
Probable space group: P 42/N C M
;
_chemical_formula_sum "Si O2"
_cell_formula_units_Z 48
_cell_length_a 15.868691
_cell_length_b 15.868691
_cell_length_c 7.894954
_cell_angle_alpha 90.000000
_cell_angle_beta 90.000000
_cell_angle_gamma 90.000000
_cell_volume 1988.070637
_symmetry_space_group_name_H-M "P 42/N C M"
_symmetry_group_IT_number 138
_space_group.IT_coordinate_system_code '2'
_symmetry_cell_setting 'tetragonal'
loop_
_space_group_symop_operation_xyz
x,y,z
1/2-y,x,1/2+z
1/2-x,1/2-y,z
y,1/2-x,1/2+z
1/2+x,-y,1/2-z
-x,1/2+y,1/2-z
1/2+y,1/2+x,-z
-y,-x,-z
-x,-y,-z
1/2+y,-x,1/2-z
1/2+x,1/2+y,-z
-y,1/2+x,1/2-z
1/2-x,y,1/2+z
x,1/2-y,1/2+z
1/2-y,1/2-x,z
y,x,z
loop_
_atom_site_type_symbol
_atom_site_label
_atom_site_fract_x
_atom_site_fract_y
_atom_site_fract_z
Si Si1 0.523399 0.842833 0.328398
Si Si2 0.653940 0.340809 0.766221
Si Si3 0.475950 0.158902 0.077728
O O1 0.580991 0.919010 0.393027
O O2 0.425458 0.842977 0.378794
O O3 0.558386 0.751752 0.379397
O O4 0.520478 0.848036 0.124628
O O5 0.744270 0.346177 0.667368
O O6 0.567719 0.348692 0.661149
O O7 0.414837 0.085164 0.141659
#
# Coordination Sequence:
#
# PCOD9570922 Si02
#       3
#    16  16  16
#     4  10  21  38  60  84 113 151 192 234 282 337
#     4   9  18  35  59  85 112 144 185 228 276 335
#     4  10  21  38  60  84 113 151 192 234 282 337
#
# _framework density 24.144010999999999
#
# number of rings (size 3 to 8) (size 9 to 14) (size 15 to 20)
#    0.000    2.333    0.000    2.000    0.000    4.667 
#    0.000   71.667    0.000   16.000    0.000    0.000 
#    0.000    0.000    0.000    0.000    0.000    0.000 
#
# Total GULP energy -268279.304955 kJ/mol
# GULP energy per Si atom -5589.152187 kJ/mol
# Density = 2.408906 g / cm^3
# Si number density = 24.144011 Si / 1000 Ang^3
#
#
#
# Elastic Constant Matrix: (Units=GPa)
#
#
# Indices 1 2 3 4 5 6 
#
# 1 181.2278 127.1892 21.0845 0.0000 0.0000 0.0000
# 2 127.1892 181.2278 21.0845 0.0000 0.0000 0.0000
# 3 21.0845 21.0845 27.5057 0.0000 0.0000 0.0000
# 4 0.0000 0.0000 0.0000 26.4613 0.0000 0.0000
# 5 0.0000 0.0000 0.0000 0.0000 26.4613 0.0000
# 6 0.0000 0.0000 0.0000 0.0000 0.0000 60.8925
#
#
#
# Elastic Compliance Matrix: (Units=1/GPa)
#
#
# Indices 1 2 3 4 5 6 
#
# 1 0.011064 -0.007442 -0.002776 0.000000 0.000000 0.000000
# 2 -0.007442 0.011064 -0.002776 0.000000 0.000000 0.000000
# 3 -0.002776 -0.002776 0.040613 0.000000 0.000000 0.000000
# 4 0.000000 0.000000 0.000000 0.037791 0.000000 0.000000
# 5 0.000000 0.000000 0.000000 0.000000 0.037791 0.000000
# 6 0.000000 0.000000 0.000000 0.000000 0.000000 0.016422
#
#
# Mechanical properties :
#
#
# Convention : Reuss Voigt Hill
#
# Bulk Modulus (GPa) = 27.21019 80.96420 54.08719
# Shear Modulus (GPa) = 25.90892 37.46990 31.68941
#
# Velocity S-wave (km/s) = 3.27937 3.94373 3.62680
# Velocity P-wave (km/s) = 5.06295 7.37184 6.32367
#
# Compressibility (1/GPa) = 0.03675094
#
# Stress axis : x y z
#
# Youngs Moduli (GPa) = 90.38622 90.38622 24.62283
#
# Poissons Ratio (x) = 0.67262 0.06836
# Poissons Ratio (y) = 0.67262 0.06836
# Poissons Ratio (z) = 0.25095 0.25095
#
# Static dielectric constant tensor:
#      x y z
#    x 1.916210 0.000000 0.000000 
#    y 0.000000 1.916210 0.000000 
#    z 0.000000 0.000000 2.000640 
# 
# From -- ./inp_files/2288.got.cif
#   From: 2010.05.17/outbox.cif.g08.bks.cpg/sg138_2_cif.got.tgz:2288.got - 2010.05.20 13:08:53.
