data_PCOD9570091
_publ_section_title
;
Structure prediction by ZEFSAII (Michael W. Deem and Ramdas Pophale) SiO2 
 PCOD9570091
Probable space group: P 42/N M C
;
_chemical_formula_sum "Si O2"
_cell_formula_units_Z 112
_cell_length_a 15.446801
_cell_length_b 15.446801
_cell_length_c 26.204833
_cell_angle_alpha 90.000000
_cell_angle_beta 90.000000
_cell_angle_gamma 90.000000
_cell_volume 6252.569093
_symmetry_space_group_name_H-M "P 42/N M C"
_symmetry_group_IT_number 137
_space_group.IT_coordinate_system_code '2'
_symmetry_cell_setting 'tetragonal'
loop_
_space_group_symop_operation_xyz
x,y,z
1/2-y,x,1/2+z
1/2-x,1/2-y,z
y,1/2-x,1/2+z
1/2+x,-y,-z
-x,1/2+y,-z
1/2+y,1/2+x,1/2-z
-y,-x,1/2-z
-x,-y,-z
1/2+y,-x,1/2-z
1/2+x,1/2+y,-z
-y,1/2+x,1/2-z
1/2-x,y,z
x,1/2-y,z
1/2-y,1/2-x,1/2+z
y,x,1/2+z
loop_
_atom_site_type_symbol
_atom_site_label
_atom_site_fract_x
_atom_site_fract_y
_atom_site_fract_z
Si Si1 0.010672 0.346139 0.939951
Si Si2 0.430996 0.527663 0.893241
Si Si3 0.089907 0.347280 0.130393
Si Si4 0.344294 0.119572 0.022241
Si Si5 0.852259 0.026313 0.215933
Si Si6 0.343326 0.145820 0.241060
Si Si7 0.918180 0.349654 0.500997
O O1 0.013307 0.250000 0.916223
O O2 0.039570 0.428947 0.906060
O O3 0.079048 0.347814 0.986664
O O4 0.916913 0.363734 0.965328
O O5 0.514251 0.584680 0.879312
O O6 0.369465 0.534185 0.844252
O O7 0.386620 0.567943 0.943769
O O8 0.054163 0.250000 0.138362
O O9 0.146048 0.347385 0.079352
O O10 0.143071 0.369830 0.180901
O O11 0.250000 0.142122 0.000658
O O12 0.350607 0.015534 0.023493
O O13 0.905367 0.094634 0.250000
O O14 0.750000 0.033908 0.226816
O O15 0.884206 0.930084 0.231348
O O16 0.250000 0.111189 0.258095
O O17 0.341228 0.250000 0.247983
O O18 0.887419 0.250000 0.500464
#
# Coordination Sequence:
#
# PCOD9570091 Si02
#       7
#    16  16  16  16  16  16  16
#     4  11  22  37  56  81 116 154 193 234 276 336
#     4  11  21  38  56  83 115 150 191 235 283 337
#     4  11  19  31  55  82 109 140 180 232 287 335
#     4  10  19  33  54  80 110 143 182 233 288 337
#     4  11  23  39  61  85 115 152 190 236 288 345
#     4   9  19  35  55  82 111 140 181 233 287 341
#     4  10  20  36  56  79 112 154 194 233 278 331
#
# _framework density 17.912637
#
# number of rings (size 3 to 8) (size 9 to 14) (size 15 to 20)
#    0.000    1.571    4.286    2.143    0.000    3.286 
#    0.000    0.000    0.000    2.571    0.000    0.000 
#    0.000    0.286    0.000    0.000    0.000    0.000 
#
# Total GULP energy -624714.008465 kJ/mol
# GULP energy per Si atom -5577.803647 kJ/mol
# Density = 1.787187 g / cm^3
# Si number density = 17.912637 Si / 1000 Ang^3
#
#
#
# Elastic Constant Matrix: (Units=GPa)
#
#
# Indices 1 2 3 4 5 6 
#
# 1 88.5626 25.5738 2.0833 0.0000 0.0000 0.0000
# 2 25.5738 88.5635 2.0838 0.0000 0.0000 0.0000
# 3 2.0833 2.0838 47.8453 0.0000 0.0000 0.0000
# 4 0.0000 0.0000 0.0000 12.9920 0.0000 0.0000
# 5 0.0000 0.0000 0.0000 0.0000 12.9918 0.0000
# 6 0.0000 0.0000 0.0000 0.0000 0.0000 2.1393
#
#
#
# Elastic Compliance Matrix: (Units=1/GPa)
#
#
# Indices 1 2 3 4 5 6 
#
# 1 0.012326 -0.003550 -0.000382 0.000000 0.000000 0.000000
# 2 -0.003550 0.012325 -0.000382 0.000000 0.000000 0.000000
# 3 -0.000382 -0.000382 0.020934 0.000000 0.000000 0.000000
# 4 0.000000 0.000000 0.000000 0.076970 0.000000 0.000000
# 5 0.000000 0.000000 0.000000 0.000000 0.076971 0.000000
# 6 0.000000 0.000000 0.000000 0.000000 0.000000 0.467434
#
#
# Mechanical properties :
#
#
# Convention : Reuss Voigt Hill
#
# Bulk Modulus (GPa) = 27.05911 31.60591 29.33251
# Shear Modulus (GPa) = 7.26841 18.64001 12.95421
#
# Velocity S-wave (km/s) = 2.01656 3.22934 2.69213
# Velocity P-wave (km/s) = 4.53442 5.62029 5.10630
#
# Compressibility (1/GPa) = 0.03695613
#
# Stress axis : x y z
#
# Youngs Moduli (GPa) = 81.13194 81.13275 47.76921
#
# Poissons Ratio (x) = 0.28804 0.01825
# Poissons Ratio (y) = 0.28803 0.01826
# Poissons Ratio (z) = 0.03100 0.03101
#
# Static dielectric constant tensor:
#      x y z
#    x 1.639350 0.000000 0.000000 
#    y 0.000000 1.639350 0.000000 
#    z 0.000000 0.000000 1.603720 
# 
# From -- ./inp_files/9832.got.cif
#   From: 2010.05.17/outbox.cif.g08.bks.cpg/sg137_5_cif.got.tgz:9832.got - 2010.05.20 13:01:12.
