data_PCOD9570303
_publ_section_title
;
Structure prediction by ZEFSAII (Michael W. Deem and Ramdas Pophale) SiO2 
 PCOD9570303
Probable space group: P 42/N M C
;
_chemical_formula_sum "Si O2"
_cell_formula_units_Z 96
_cell_length_a 22.063609
_cell_length_b 22.063609
_cell_length_c 9.146257
_cell_angle_alpha 90.000000
_cell_angle_beta 90.000000
_cell_angle_gamma 90.000000
_cell_volume 4452.423902
_symmetry_space_group_name_H-M "P 42/N M C"
_symmetry_group_IT_number 137
_space_group.IT_coordinate_system_code '2'
_symmetry_cell_setting 'tetragonal'
loop_
_space_group_symop_operation_xyz
x,y,z
1/2-y,x,1/2+z
1/2-x,1/2-y,z
y,1/2-x,1/2+z
1/2+x,-y,-z
-x,1/2+y,-z
1/2+y,1/2+x,1/2-z
-y,-x,1/2-z
-x,-y,-z
1/2+y,-x,1/2-z
1/2+x,1/2+y,-z
-y,1/2+x,1/2-z
1/2-x,y,z
x,1/2-y,z
1/2-y,1/2-x,1/2+z
y,x,1/2+z
loop_
_atom_site_type_symbol
_atom_site_label
_atom_site_fract_x
_atom_site_fract_y
_atom_site_fract_z
Si Si1 0.180966 0.364202 0.220646
Si Si2 0.023245 0.180853 0.502373
Si Si3 0.681604 0.577486 0.458730
Si Si4 0.816989 0.139589 0.389203
Si Si5 0.481425 0.885343 0.784656
Si Si6 0.898621 0.319008 0.649285
O O1 0.250000 0.340084 0.218528
O O2 0.176238 0.416185 0.096333
O O3 0.171311 0.392956 0.381300
O O4 0.129436 0.318946 0.166321
O O5 0.017886 0.250000 0.446568
O O6 0.012001 0.137641 0.365368
O O7 0.968833 0.171676 0.617213
O O8 0.750000 0.550038 0.462052
O O9 0.628898 0.530682 0.410734
O O10 0.817625 0.182376 0.250000
O O11 0.750000 0.132300 0.450938
O O12 0.843322 0.075384 0.333301
O O13 0.863281 0.170395 0.499241
O O14 0.450655 0.950655 0.750000
O O15 0.869461 0.369461 0.750000
O O16 0.888865 0.250000 0.700490
#
# Coordination Sequence:
#
# PCOD9570303 Si02
#       6
#    16  16  16  16  16  16
#     4  10  24  44  71 104 135 172 217 268 333 407
#     4  10  20  39  61  84 121 167 216 267 325 390
#     4  11  24  44  71 103 137 174 216 268 332 398
#     4  11  21  34  54  80 114 159 217 276 335 394
#     4  11  22  39  62  92 127 171 226 268 324 382
#     4  11  23  36  52  79 116 165 216 275 342 400
#
# _framework density 21.561288999999999
#
# number of rings (size 3 to 8) (size 9 to 14) (size 15 to 20)
#    0.000    1.333    3.333    3.500    2.333    4.333 
#    0.000    5.833    0.000    0.000    0.000    0.000 
#    0.000    0.000    0.000    0.000    0.000    0.000 
#
# Total GULP energy -535938.174415 kJ/mol
# GULP energy per Si atom -5582.689317 kJ/mol
# Density = 2.151221 g / cm^3
# Si number density = 21.561289 Si / 1000 Ang^3
#
#
#
# Elastic Constant Matrix: (Units=GPa)
#
#
# Indices 1 2 3 4 5 6 
#
# 1 60.9694 2.9891 1.5516 0.0000 0.0000 0.0000
# 2 2.9891 60.9682 1.5510 0.0000 0.0000 0.0000
# 3 1.5516 1.5510 67.9894 0.0000 0.0000 0.0000
# 4 0.0000 0.0000 0.0000 1.0284 0.0000 0.0000
# 5 0.0000 0.0000 0.0000 0.0000 1.0155 0.0000
# 6 0.0000 0.0000 0.0000 0.0000 0.0000 17.2139
#
#
#
# Elastic Compliance Matrix: (Units=1/GPa)
#
#
# Indices 1 2 3 4 5 6 
#
# 1 0.016450 -0.000797 -0.000357 0.000000 0.000000 0.000000
# 2 -0.000797 0.016450 -0.000357 0.000000 0.000000 0.000000
# 3 -0.000357 -0.000357 0.014724 0.000000 0.000000 0.000000
# 4 0.000000 0.000000 0.000000 0.972400 0.000000 0.000000
# 5 0.000000 0.000000 0.000000 0.000000 0.984735 0.000000
# 6 0.000000 0.000000 0.000000 0.000000 0.000000 0.058093
#
#
# Mechanical properties :
#
#
# Convention : Reuss Voigt Hill
#
# Bulk Modulus (GPa) = 22.42093 22.45669 22.43881
# Shear Modulus (GPa) = 2.40299 16.10724 9.25511
#
# Velocity S-wave (km/s) = 1.05684 2.73618 2.07407
# Velocity P-wave (km/s) = 3.45116 4.51886 4.02061
#
# Compressibility (1/GPa) = 0.04460118
#
# Stress axis : x y z
#
# Youngs Moduli (GPa) = 60.79077 60.78961 67.91415
#
# Poissons Ratio (x) = 0.04847 0.02426
# Poissons Ratio (y) = 0.04847 0.02425
# Poissons Ratio (z) = 0.02172 0.02171
#
# Static dielectric constant tensor:
#      x y z
#    x 1.799480 0.000000 0.000000 
#    y 0.000000 1.799460 0.000000 
#    z 0.000000 0.000000 1.661460 
# 
# From -- ./inp_files/2191.got.cif
#   From: 2010.05.17/outbox.cif.g08.bks.cpg/sg137_2_cif.got.tgz:2191.got - 2010.05.20 13:01:12.
