data_PCOD9570284
_publ_section_title
;
Structure prediction by ZEFSAII (Michael W. Deem and Ramdas Pophale) SiO2 
 PCOD9570284
Probable space group: P 42/N M C
;
_chemical_formula_sum "Si O2"
_cell_formula_units_Z 80
_cell_length_a 28.505342
_cell_length_b 28.505342
_cell_length_c 5.185365
_cell_angle_alpha 90.000000
_cell_angle_beta 90.000000
_cell_angle_gamma 90.000000
_cell_volume 4213.391782
_symmetry_space_group_name_H-M "P 42/N M C"
_symmetry_group_IT_number 137
_space_group.IT_coordinate_system_code '2'
_symmetry_cell_setting 'tetragonal'
loop_
_space_group_symop_operation_xyz
x,y,z
1/2-y,x,1/2+z
1/2-x,1/2-y,z
y,1/2-x,1/2+z
1/2+x,-y,-z
-x,1/2+y,-z
1/2+y,1/2+x,1/2-z
-y,-x,1/2-z
-x,-y,-z
1/2+y,-x,1/2-z
1/2+x,1/2+y,-z
-y,1/2+x,1/2-z
1/2-x,y,z
x,1/2-y,z
1/2-y,1/2-x,1/2+z
y,x,1/2+z
loop_
_atom_site_type_symbol
_atom_site_label
_atom_site_fract_x
_atom_site_fract_y
_atom_site_fract_z
Si Si1 0.066055 0.609558 0.992055
Si Si2 0.193541 0.045516 0.869601
Si Si3 0.052319 0.475906 0.692206
Si Si4 0.488606 0.805860 0.139038
Si Si5 0.848741 0.805918 0.530685
O O1 0.083949 0.583949 0.250000
O O2 0.055792 0.663348 0.057926
O O3 0.099790 0.599790 0.750000
O O4 0.016216 0.586858 0.905421
O O5 0.250000 0.046789 0.901864
O O6 0.185148 0.027855 0.580718
O O7 0.177261 0.097909 0.925765
O O8 0.177435 0.008460 0.085367
O O9 0.045625 0.437482 0.470868
O O10 0.003018 0.503018 0.750000
O O11 0.479502 0.750000 0.144378
O O12 0.846632 0.750000 0.574085
O O13 0.831533 0.817267 0.243974
#
# Coordination Sequence:
#
# PCOD9570284 Si02
#       5
#    16  16  16  16  16
#     4  11  21  33  52  79 109 137 169 210 256 307
#     4   9  19  36  55  72  95 133 176 217 259 305
#     4   9  16  28  44  62  91 131 164 190 232 290
#     4  10  20  37  58  77 102 138 178 215 259 309
#     4  11  22  36  54  76 105 137 174 226 282 332
#
# _framework density 18.987079000000001
#
# number of rings (size 3 to 8) (size 9 to 14) (size 15 to 20)
#    0.000    2.000    0.000    6.000    0.000    4.400 
#    0.000    6.000    0.000    2.400    0.000    0.000 
#    0.000    2.400    0.000    0.000    0.000    0.000 
#
# Total GULP energy -446681.577721 kJ/mol
# GULP energy per Si atom -5583.519722 kJ/mol
# Density = 1.894386 g / cm^3
# Si number density = 18.987079 Si / 1000 Ang^3
#
#
#
# Elastic Constant Matrix: (Units=GPa)
#
#
# Indices 1 2 3 4 5 6 
#
# 1 46.0192 18.3768 -0.8704 0.0000 0.0000 0.0000
# 2 18.3768 46.0192 -0.8704 0.0000 0.0000 0.0000
# 3 -0.8704 -0.8704 76.2965 0.0000 0.0000 0.0000
# 4 0.0000 0.0000 0.0000 12.9853 0.0000 0.0000
# 5 0.0000 0.0000 0.0000 0.0000 12.9853 0.0000
# 6 0.0000 0.0000 0.0000 0.0000 0.0000 14.1008
#
#
#
# Elastic Compliance Matrix: (Units=1/GPa)
#
#
# Indices 1 2 3 4 5 6 
#
# 1 0.025855 -0.010321 0.000177 0.000000 0.000000 0.000000
# 2 -0.010321 0.025855 0.000177 0.000000 0.000000 0.000000
# 3 0.000177 0.000177 0.013111 0.000000 0.000000 0.000000
# 4 0.000000 0.000000 0.000000 0.077010 0.000000 0.000000
# 5 0.000000 0.000000 0.000000 0.000000 0.077010 0.000000
# 6 0.000000 0.000000 0.000000 0.000000 0.000000 0.070918
#
#
# Mechanical properties :
#
#
# Convention : Reuss Voigt Hill
#
# Bulk Modulus (GPa) = 22.27813 22.40076 22.33944
# Shear Modulus (GPa) = 15.40094 18.12754 16.76424
#
# Velocity S-wave (km/s) = 2.85112 3.09322 2.97464
# Velocity P-wave (km/s) = 4.75366 4.95791 4.85686
#
# Compressibility (1/GPa) = 0.04488708
#
# Stress axis : x y z
#
# Youngs Moduli (GPa) = 38.67715 38.67715 76.27300
#
# Poissons Ratio (x) = 0.39920 -0.01352
# Poissons Ratio (y) = 0.39920 -0.01352
# Poissons Ratio (z) = -0.00685 -0.00685
#
# Static dielectric constant tensor:
#      x y z
#    x 1.673150 0.000000 0.000000 
#    y 0.000000 1.673150 0.000000 
#    z 0.000000 0.000000 1.709120 
# 
# From -- ./inp_files/573.got.cif
#   From: 2010.05.17/outbox.cif.g08.bks.cpg/sg137_1_cif.got.tgz:573.got - 2010.05.20 13:01:12.
