data_PCOD9570790
_publ_section_title
;
Structure prediction by ZEFSAII (Michael W. Deem and Ramdas Pophale) SiO2 
 PCOD9570790
Probable space group: P 42/N C M
;
_chemical_formula_sum "Si O2"
_cell_formula_units_Z 128
_cell_length_a 22.779992
_cell_length_b 22.779992
_cell_length_c 12.877000
_cell_angle_alpha 90.000000
_cell_angle_beta 90.000000
_cell_angle_gamma 90.000000
_cell_volume 6682.236313
_symmetry_space_group_name_H-M "P 42/N C M"
_symmetry_group_IT_number 138
_space_group.IT_coordinate_system_code '2'
_symmetry_cell_setting 'tetragonal'
loop_
_space_group_symop_operation_xyz
x,y,z
1/2-y,x,1/2+z
1/2-x,1/2-y,z
y,1/2-x,1/2+z
1/2+x,-y,1/2-z
-x,1/2+y,1/2-z
1/2+y,1/2+x,-z
-y,-x,-z
-x,-y,-z
1/2+y,-x,1/2-z
1/2+x,1/2+y,-z
-y,1/2+x,1/2-z
1/2-x,y,1/2+z
x,1/2-y,1/2+z
1/2-y,1/2-x,z
y,x,z
loop_
_atom_site_type_symbol
_atom_site_label
_atom_site_fract_x
_atom_site_fract_y
_atom_site_fract_z
Si Si1 0.805877 0.172898 0.277618
Si Si2 0.015673 0.391321 0.728274
Si Si3 0.922456 0.484383 0.644795
Si Si4 0.687719 0.421279 0.120100
Si Si5 0.887097 0.020645 0.533783
Si Si6 0.551367 0.642482 0.332594
Si Si7 0.507980 0.244549 0.709564
Si Si8 0.783123 0.398359 0.966068
O O1 0.737566 0.171528 0.244151
O O2 0.836758 0.124681 0.205563
O O3 0.807107 0.155311 0.397442
O O4 0.078093 0.421908 0.705334
O O5 0.966934 0.432359 0.673671
O O6 0.004069 0.394419 0.851862
O O7 0.008342 0.323056 0.702210
O O8 0.867400 0.459115 0.580461
O O9 0.891676 0.508780 0.750730
O O10 0.961921 0.538080 0.601441
O O11 0.733652 0.463149 0.181870
O O12 0.725773 0.387476 0.034965
O O13 0.945604 0.054397 0.500000
O O14 0.834392 0.068246 0.527603
O O15 0.871660 0.972706 0.446984
O O16 0.614869 0.614869 0.318859
O O17 0.545521 0.710985 0.309997
O O18 0.555639 0.261593 0.622351
#
# Coordination Sequence:
#
# PCOD9570790 Si02
#       8
#    16  16  16  16  16  16  16  16
#     4  10  24  39  51  75 108 146 198 245 277 315
#     4  11  21  34  55  80 116 147 174 230 289 340
#     4   9  19  33  52  80 111 145 180 227 284 337
#     4  10  20  35  58  76 103 146 187 233 276 337
#     4  11  20  29  53  86 115 140 179 229 285 343
#     4   9  17  32  52  79 110 143 183 220 270 333
#     4   9  20  36  51  78 111 141 182 217 275 332
#     4  10  22  35  56  77 103 153 189 232 274 333
#
# _framework density 19.155263000000001
#
# number of rings (size 3 to 8) (size 9 to 14) (size 15 to 20)
#    0.000    2.125    2.500    1.125    5.250    1.000 
#    0.000    1.875    0.000    1.875    0.000    0.000 
#    0.000    2.250    0.000    0.000    0.000    0.000 
#
# Total GULP energy -715062.619730 kJ/mol
# GULP energy per Si atom -5586.426717 kJ/mol
# Density = 1.911166 g / cm^3
# Si number density = 19.155263 Si / 1000 Ang^3
#
#
#
# Elastic Constant Matrix: (Units=GPa)
#
#
# Indices 1 2 3 4 5 6 
#
# 1 82.0025 31.1187 -1.7598 0.0000 0.0000 0.0000
# 2 31.1187 82.0042 -1.7597 0.0000 0.0000 0.0000
# 3 -1.7598 -1.7597 35.0409 0.0000 0.0000 0.0000
# 4 0.0000 0.0000 0.0000 18.4626 0.0000 0.0000
# 5 0.0000 0.0000 0.0000 0.0000 18.4624 0.0000
# 6 0.0000 0.0000 0.0000 0.0000 0.0000 22.8175
#
#
#
# Elastic Compliance Matrix: (Units=1/GPa)
#
#
# Indices 1 2 3 4 5 6 
#
# 1 0.014253 -0.005399 0.000445 0.000000 0.000000 0.000000
# 2 -0.005399 0.014253 0.000445 0.000000 0.000000 0.000000
# 3 0.000445 0.000445 0.028583 0.000000 0.000000 0.000000
# 4 0.000000 0.000000 0.000000 0.054164 0.000000 0.000000
# 5 0.000000 0.000000 0.000000 0.000000 0.054164 0.000000
# 6 0.000000 0.000000 0.000000 0.000000 0.000000 0.043826
#
#
# Mechanical properties :
#
#
# Convention : Reuss Voigt Hill
#
# Bulk Modulus (GPa) = 20.80345 28.24957 24.52651
# Shear Modulus (GPa) = 21.34147 23.37838 22.35992
#
# Velocity S-wave (km/s) = 3.34148 3.49731 3.42028
# Velocity P-wave (km/s) = 5.07655 5.57565 5.33194
#
# Compressibility (1/GPa) = 0.04806894
#
# Stress axis : x y z
#
# Youngs Moduli (GPa) = 70.15964 70.16106 34.98619
#
# Poissons Ratio (x) = 0.37882 -0.01556
# Poissons Ratio (y) = 0.37881 -0.01555
# Poissons Ratio (z) = -0.03120 -0.03119
#
# Static dielectric constant tensor:
#      x y z
#    x 1.671760 0.000000 0.000000 
#    y 0.000000 1.671760 0.000000 
#    z 0.000000 0.000000 1.720950 
# 
# From -- ./inp_files/3354.got.cif
#   From: 2010.05.17/outbox.cif.g08.bks.cpg/sg138_2_cif.got.tgz:3354.got - 2010.05.20 13:08:53.
