data_PCOD9570382
_publ_section_title
;
Structure prediction by ZEFSAII (Michael W. Deem and Ramdas Pophale) SiO2 
 PCOD9570382
Probable space group: P 42/N M C
;
_chemical_formula_sum "Si O2"
_cell_formula_units_Z 96
_cell_length_a 24.247874
_cell_length_b 24.247874
_cell_length_c 9.263740
_cell_angle_alpha 90.000000
_cell_angle_beta 90.000000
_cell_angle_gamma 90.000000
_cell_volume 5446.702952
_symmetry_space_group_name_H-M "P 42/N M C"
_symmetry_group_IT_number 137
_space_group.IT_coordinate_system_code '2'
_symmetry_cell_setting 'tetragonal'
loop_
_space_group_symop_operation_xyz
x,y,z
1/2-y,x,1/2+z
1/2-x,1/2-y,z
y,1/2-x,1/2+z
1/2+x,-y,-z
-x,1/2+y,-z
1/2+y,1/2+x,1/2-z
-y,-x,1/2-z
-x,-y,-z
1/2+y,-x,1/2-z
1/2+x,1/2+y,-z
-y,1/2+x,1/2-z
1/2-x,y,z
x,1/2-y,z
1/2-y,1/2-x,1/2+z
y,x,1/2+z
loop_
_atom_site_type_symbol
_atom_site_label
_atom_site_fract_x
_atom_site_fract_y
_atom_site_fract_z
Si Si1 0.186505 0.022694 0.339136
Si Si2 0.314782 0.602098 0.828169
Si Si3 0.986356 0.685267 0.824046
Si Si4 0.989503 0.942439 0.427204
Si Si5 0.144765 0.922348 0.143403
Si Si6 0.920013 0.591525 0.687189
O O1 0.250000 0.039681 0.324002
O O2 0.176727 0.004692 0.505184
O O3 0.143356 0.072209 0.313189
O O4 0.175164 0.970985 0.233089
O O5 0.352638 0.647363 0.750000
O O6 0.250000 0.611834 0.799579
O O7 0.329465 0.542147 0.761434
O O8 0.324827 0.598433 0.000217
O O9 0.975328 0.750000 0.800471
O O10 0.936927 0.647441 0.766669
O O11 0.958069 0.948393 0.276716
O O12 0.947483 0.908428 0.529603
O O13 0.046623 0.910610 0.409361
O O14 0.000000 0.000000 0.500000
O O15 0.126446 0.873555 0.250000
#
# Coordination Sequence:
#
# PCOD9570382 Si02
#       6
#    16  16  16  16  16  16
#     4  10  21  38  57  80 118 157 194 233 282 348
#     4  11  24  40  62  86 113 151 195 248 293 345
#     4  10  21  38  59  83 112 149 190 236 290 343
#     4  11  21  31  49  80 120 149 182 221 285 354
#     4  11  22  36  56  86 117 154 190 235 290 348
#     4  11  20  34  53  81 113 152 187 229 286 347
#
# _framework density 17.625340999999999
#
# number of rings (size 3 to 8) (size 9 to 14) (size 15 to 20)
#    0.000    1.333    3.333    4.000    2.333    0.167 
#    0.000    0.833    0.000    0.500    0.000    2.333 
#    0.000    0.000    0.000    0.000    0.000    0.000 
#
# Total GULP energy -535998.489247 kJ/mol
# GULP energy per Si atom -5583.317596 kJ/mol
# Density = 1.758523 g / cm^3
# Si number density = 17.625341 Si / 1000 Ang^3
#
#
#
# Elastic Constant Matrix: (Units=GPa)
#
#
# Indices 1 2 3 4 5 6 
#
# 1 83.0830 43.6551 39.4778 0.0000 0.0000 0.0000
# 2 43.6551 83.0826 39.4770 0.0000 0.0000 0.0000
# 3 39.4778 39.4770 104.5057 0.0000 0.0000 0.0000
# 4 0.0000 0.0000 0.0000 27.2693 0.0000 0.0000
# 5 0.0000 0.0000 0.0000 0.0000 27.2691 0.0000
# 6 0.0000 0.0000 0.0000 0.0000 0.0000 24.4269
#
#
#
# Elastic Compliance Matrix: (Units=1/GPa)
#
#
# Indices 1 2 3 4 5 6 
#
# 1 0.017841 -0.007522 -0.003898 0.000000 0.000000 0.000000
# 2 -0.007522 0.017841 -0.003898 0.000000 0.000000 0.000000
# 3 -0.003898 -0.003898 0.012514 0.000000 0.000000 0.000000
# 4 0.000000 0.000000 0.000000 0.036671 0.000000 0.000000
# 5 0.000000 0.000000 0.000000 0.000000 0.036672 0.000000
# 6 0.000000 0.000000 0.000000 0.000000 0.000000 0.040938
#
#
# Mechanical properties :
#
#
# Convention : Reuss Voigt Hill
#
# Bulk Modulus (GPa) = 56.94962 57.32123 57.13542
# Shear Modulus (GPa) = 25.13000 25.66383 25.39692
#
# Velocity S-wave (km/s) = 3.78006 3.82000 3.80008
# Velocity P-wave (km/s) = 7.17169 7.21451 7.19313
#
# Compressibility (1/GPa) = 0.01755938
#
# Stress axis : x y z
#
# Youngs Moduli (GPa) = 56.05142 56.05159 79.91216
#
# Poissons Ratio (x) = 0.42163 0.31150
# Poissons Ratio (y) = 0.42163 0.31148
# Poissons Ratio (z) = 0.21849 0.21848
#
# Static dielectric constant tensor:
#      x y z
#    x 1.592940 0.000000 0.000000 
#    y 0.000000 1.592940 0.000000 
#    z 0.000000 0.000000 1.637440 
# 
# From -- ./inp_files/2153.got.cif
#   From: 2010.05.17/outbox.cif.g08.bks.cpg/sg137_2_cif.got.tgz:2153.got - 2010.05.20 13:01:12.
