data_PCOD9570450
_publ_section_title
;
Structure prediction by ZEFSAII (Michael W. Deem and Ramdas Pophale) SiO2 
 PCOD9570450
Probable space group: P 42/N M C
;
_chemical_formula_sum "Si O2"
_cell_formula_units_Z 120
_cell_length_a 26.423601
_cell_length_b 26.423601
_cell_length_c 8.366898
_cell_angle_alpha 90.000000
_cell_angle_beta 90.000000
_cell_angle_gamma 90.000000
_cell_volume 5841.824157
_symmetry_space_group_name_H-M "P 42/N M C"
_symmetry_group_IT_number 137
_space_group.IT_coordinate_system_code '2'
_symmetry_cell_setting 'tetragonal'
loop_
_space_group_symop_operation_xyz
x,y,z
1/2-y,x,1/2+z
1/2-x,1/2-y,z
y,1/2-x,1/2+z
1/2+x,-y,-z
-x,1/2+y,-z
1/2+y,1/2+x,1/2-z
-y,-x,1/2-z
-x,-y,-z
1/2+y,-x,1/2-z
1/2+x,1/2+y,-z
-y,1/2+x,1/2-z
1/2-x,y,z
x,1/2-y,z
1/2-y,1/2-x,1/2+z
y,x,1/2+z
loop_
_atom_site_type_symbol
_atom_site_label
_atom_site_fract_x
_atom_site_fract_y
_atom_site_fract_z
Si Si1 0.250000 0.533157 0.833473
Si Si2 0.190037 0.101516 0.643395
Si Si3 0.150942 0.920076 0.677507
Si Si4 0.022035 0.114122 0.295167
Si Si5 0.122074 0.191195 0.766977
Si Si6 0.537572 0.953207 0.979820
Si Si7 0.986402 0.805271 0.367040
Si Si8 0.385202 0.541391 0.346302
O O1 0.293956 0.561374 0.727666
O O2 0.293524 0.506279 0.954159
O O3 0.250000 0.095583 0.677635
O O4 0.158900 0.054768 0.717276
O O5 0.165724 0.151904 0.719803
O O6 0.183596 0.105465 0.451726
O O7 0.133197 0.866804 0.750000
O O8 0.138788 0.925142 0.489561
O O9 0.117109 0.962926 0.764645
O O10 0.035219 0.095152 0.470809
O O11 0.039537 0.063558 0.202422
O O12 0.138198 0.250000 0.750160
O O13 0.073003 0.183098 0.655074
O O14 0.508214 0.907116 0.065273
O O15 0.500000 0.000000 0.000000
O O16 0.991083 0.750000 0.282479
O O17 0.022692 0.843248 0.276650
O O18 0.428008 0.571993 0.250000
#
# Coordination Sequence:
#
# PCOD9570450 Si02
#       8
#     8  16  16  16  16  16  16  16
#     4  10  24  40  66  93 127 166 206 280 320 394
#     4  11  24  40  62  89 123 167 223 284 344 411
#     4  11  24  40  60  95 131 165 212 266 330 389
#     4  11  22  37  59  86 129 164 214 260 329 397
#     4  10  22  43  62  86 123 166 223 286 350 400
#     4  11  22  37  57  92 128 174 213 265 324 403
#     4   9  21  41  63  88 124 168 221 270 333 403
#     4  11  21  36  64  90 129 177 216 261 325 406
#
# _framework density 20.541529000000001
#
# number of rings (size 3 to 8) (size 9 to 14) (size 15 to 20)
#    0.400    1.067    0.000    6.800    1.867    4.000 
#    0.000    1.333    0.000    0.200    0.000    0.000 
#    0.000    0.267    0.000    0.000    0.000    0.000 
#
# Total GULP energy -668530.481246 kJ/mol
# GULP energy per Si atom -5571.087344 kJ/mol
# Density = 2.049478 g / cm^3
# Si number density = 20.541529 Si / 1000 Ang^3
#
#
#
# Elastic Constant Matrix: (Units=GPa)
#
#
# Indices 1 2 3 4 5 6 
#
# 1 83.0026 42.3080 26.6722 0.0000 0.0000 0.0000
# 2 42.3080 83.0107 26.6744 0.0000 0.0000 0.0000
# 3 26.6722 26.6744 68.7201 0.0000 0.0000 0.0000
# 4 0.0000 0.0000 0.0000 31.8046 0.0000 0.0000
# 5 0.0000 0.0000 0.0000 0.0000 31.8037 0.0000
# 6 0.0000 0.0000 0.0000 0.0000 0.0000 36.5307
#
#
#
# Elastic Compliance Matrix: (Units=1/GPa)
#
#
# Indices 1 2 3 4 5 6 
#
# 1 0.017066 -0.007506 -0.003710 0.000000 0.000000 0.000000
# 2 -0.007506 0.017064 -0.003711 0.000000 0.000000 0.000000
# 3 -0.003710 -0.003711 0.017432 0.000000 0.000000 0.000000
# 4 0.000000 0.000000 0.000000 0.031442 0.000000 0.000000
# 5 0.000000 0.000000 0.000000 0.000000 0.031443 0.000000
# 6 0.000000 0.000000 0.000000 0.000000 0.000000 0.027374
#
#
# Mechanical properties :
#
#
# Convention : Reuss Voigt Hill
#
# Bulk Modulus (GPa) = 46.06324 47.33807 46.70066
# Shear Modulus (GPa) = 27.94683 29.29971 28.62327
#
# Velocity S-wave (km/s) = 3.69250 3.78082 3.73692
# Velocity P-wave (km/s) = 6.37594 6.49266 6.43456
#
# Compressibility (1/GPa) = 0.02170928
#
# Stress axis : x y z
#
# Youngs Moduli (GPa) = 58.59637 58.60153 57.36526
#
# Poissons Ratio (x) = 0.43985 0.21284
# Poissons Ratio (y) = 0.43981 0.21286
# Poissons Ratio (z) = 0.21741 0.21744
#
# Static dielectric constant tensor:
#      x y z
#    x 1.763160 0.000000 0.000000 
#    y 0.000000 1.763160 0.000000 
#    z 0.000000 0.000000 1.878930 
# 
# From -- ./inp_files/2366.got.cif
#   From: 2010.05.17/outbox.cif.g08.bks.cpg/sg137_2_cif.got.tgz:2366.got - 2010.05.20 13:01:12.
