data_PCOD9570643
_publ_section_title
;
Structure prediction by ZEFSAII (Michael W. Deem and Ramdas Pophale) SiO2 
 PCOD9570643
Probable space group: P 42/N C M
;
_chemical_formula_sum "Si O2"
_cell_formula_units_Z 48
_cell_length_a 16.525686
_cell_length_b 16.525686
_cell_length_c 9.303714
_cell_angle_alpha 90.000000
_cell_angle_beta 90.000000
_cell_angle_gamma 90.000000
_cell_volume 2540.828456
_symmetry_space_group_name_H-M "P 42/N C M"
_symmetry_group_IT_number 138
_space_group.IT_coordinate_system_code '2'
_symmetry_cell_setting 'tetragonal'
loop_
_space_group_symop_operation_xyz
x,y,z
1/2-y,x,1/2+z
1/2-x,1/2-y,z
y,1/2-x,1/2+z
1/2+x,-y,1/2-z
-x,1/2+y,1/2-z
1/2+y,1/2+x,-z
-y,-x,-z
-x,-y,-z
1/2+y,-x,1/2-z
1/2+x,1/2+y,-z
-y,1/2+x,1/2-z
1/2-x,y,1/2+z
x,1/2-y,1/2+z
1/2-y,1/2-x,z
y,x,z
loop_
_atom_site_type_symbol
_atom_site_label
_atom_site_fract_x
_atom_site_fract_y
_atom_site_fract_z
Si Si1 0.156169 0.343832 0.293494
Si Si2 0.186775 0.904937 0.164827
Si Si3 0.750000 0.250000 0.000000
Si Si4 0.525958 0.190183 0.367322
Si Si5 0.750000 0.750000 0.455773
O O1 0.172158 0.439345 0.302711
O O2 0.195638 0.304363 0.151600
O O3 0.196336 0.303664 0.435438
O O4 0.239640 0.829115 0.101130
O O5 0.095335 0.873979 0.177601
O O6 0.225587 0.939237 0.307582
O O7 0.190068 0.971945 0.039554
#
# Coordination Sequence:
#
# PCOD9570643 Si02
#       5
#     8  16   4  16   4
#     4  11  22  41  61  79 104 140 187 229 268 319
#     4  10  19  31  53  82 113 145 176 217 267 323
#     4   8  16  30  52  78 116 150 172 198 260 342
#     4  10  20  34  55  81 111 143 180 223 269 321
#     4  10  24  42  62  76 100 148 186 218 268 330
#
# _framework density 18.891477999999999
#
# number of rings (size 3 to 8) (size 9 to 14) (size 15 to 20)
#    0.000    2.333    0.000    6.000    0.000    4.000 
#    0.000    3.333    0.000    9.000    0.000    0.000 
#    0.000    0.000    0.000    0.000    0.000    0.000 
#
# Total GULP energy -267838.528997 kJ/mol
# GULP energy per Si atom -5579.969354 kJ/mol
# Density = 1.884848 g / cm^3
# Si number density = 18.891478 Si / 1000 Ang^3
#
#
#
# Elastic Constant Matrix: (Units=GPa)
#
#
# Indices 1 2 3 4 5 6 
#
# 1 88.4289 47.6975 32.4288 0.0000 0.0000 0.0000
# 2 47.6975 88.4289 32.4288 0.0000 0.0000 0.0000
# 3 32.4288 32.4288 80.7954 0.0000 0.0000 0.0000
# 4 0.0000 0.0000 0.0000 17.4394 0.0000 0.0000
# 5 0.0000 0.0000 0.0000 0.0000 17.4394 0.0000
# 6 0.0000 0.0000 0.0000 0.0000 0.0000 15.3399
#
#
#
# Elastic Compliance Matrix: (Units=1/GPa)
#
#
# Indices 1 2 3 4 5 6 
#
# 1 0.016817 -0.007734 -0.003646 0.000000 0.000000 0.000000
# 2 -0.007734 0.016817 -0.003646 0.000000 0.000000 0.000000
# 3 -0.003646 -0.003646 0.015303 0.000000 0.000000 0.000000
# 4 0.000000 0.000000 0.000000 0.057341 0.000000 0.000000
# 5 0.000000 0.000000 0.000000 0.000000 0.057341 0.000000
# 6 0.000000 0.000000 0.000000 0.000000 0.000000 0.065189
#
#
# Mechanical properties :
#
#
# Convention : Reuss Voigt Hill
#
# Bulk Modulus (GPa) = 52.94660 53.64039 53.29349
# Shear Modulus (GPa) = 18.85681 19.71695 19.28688
#
# Velocity S-wave (km/s) = 3.16280 3.23413 3.19867
# Velocity P-wave (km/s) = 6.43625 6.51166 6.47407
#
# Compressibility (1/GPa) = 0.01888696
#
# Stress axis : x y z
#
# Youngs Moduli (GPa) = 59.46333 59.46333 65.34469
#
# Poissons Ratio (x) = 0.45989 0.23823
# Poissons Ratio (y) = 0.45989 0.23823
# Poissons Ratio (z) = 0.21678 0.21678
#
# Static dielectric constant tensor:
#      x y z
#    x 1.657650 0.000000 0.000000 
#    y 0.000000 1.657650 0.000000 
#    z 0.000000 0.000000 1.678830 
# 
# From -- ./inp_files/1055.got.cif
#   From: 2010.05.17/outbox.cif.g08.bks.cpg/sg138_1_cif.got.tgz:1055.got - 2010.05.20 13:08:53.
