data_PCOD9570970
_publ_section_title
;
Structure prediction by ZEFSAII (Michael W. Deem and Ramdas Pophale) SiO2 
 PCOD9570970
Probable space group: P 42/N C M
;
_chemical_formula_sum "Si O2"
_cell_formula_units_Z 64
_cell_length_a 11.325522
_cell_length_b 11.325522
_cell_length_c 24.244857
_cell_angle_alpha 90.000000
_cell_angle_beta 90.000000
_cell_angle_gamma 90.000000
_cell_volume 3109.825948
_symmetry_space_group_name_H-M "P 42/N C M"
_symmetry_group_IT_number 138
_space_group.IT_coordinate_system_code '2'
_symmetry_cell_setting 'tetragonal'
loop_
_space_group_symop_operation_xyz
x,y,z
1/2-y,x,1/2+z
1/2-x,1/2-y,z
y,1/2-x,1/2+z
1/2+x,-y,1/2-z
-x,1/2+y,1/2-z
1/2+y,1/2+x,-z
-y,-x,-z
-x,-y,-z
1/2+y,-x,1/2-z
1/2+x,1/2+y,-z
-y,1/2+x,1/2-z
1/2-x,y,1/2+z
x,1/2-y,1/2+z
1/2-y,1/2-x,z
y,x,z
loop_
_atom_site_type_symbol
_atom_site_label
_atom_site_fract_x
_atom_site_fract_y
_atom_site_fract_z
Si Si1 0.915227 0.584774 0.071306
Si Si2 0.714827 0.444263 0.252909
Si Si3 0.005763 0.817398 0.130581
Si Si4 0.504257 0.698755 0.867055
Si Si5 0.387025 0.112976 0.053020
O O1 0.977525 0.692528 0.103278
O O2 0.013607 0.486394 0.061137
O O3 0.869773 0.630228 0.011962
O O4 0.841842 0.382333 0.246058
O O5 0.695097 0.512809 0.196427
O O6 0.719487 0.502504 0.312740
O O7 0.911462 0.911462 0.108136
O O8 0.136466 0.876182 0.122928
O O9 0.589785 0.589785 0.853710
O O10 0.560806 0.771472 0.916954
#
# Coordination Sequence:
#
# PCOD9570970 Si02
#       5
#     8  16  16  16   8
#     4  11  25  43  63  87 119 163 211 258 303 360
#     4   9  18  34  57  86 122 160 197 243 298 360
#     4  10  22  39  61  91 124 160 201 252 314 372
#     4  10  22  39  61  91 124 160 201 252 314 372
#     4  11  25  43  63  87 119 163 211 258 303 360
#
# _framework density 20.579930999999998
#
# number of rings (size 3 to 8) (size 9 to 14) (size 15 to 20)
#    0.000    2.000    0.000    2.250    3.500    6.000 
#    0.000    5.000    0.000    0.000    0.000    0.000 
#    0.000    0.000    0.000    0.000    0.000    0.000 
#
# Total GULP energy -357165.139461 kJ/mol
# GULP energy per Si atom -5580.705304 kJ/mol
# Density = 2.053309 g / cm^3
# Si number density = 20.579931 Si / 1000 Ang^3
#
#
#
# Elastic Constant Matrix: (Units=GPa)
#
#
# Indices 1 2 3 4 5 6 
#
# 1 69.8666 24.7404 34.4974 0.0000 0.0000 0.0000
# 2 24.7404 69.8666 34.4974 0.0000 0.0000 0.0000
# 3 34.4974 34.4974 104.6476 0.0000 0.0000 0.0000
# 4 0.0000 0.0000 0.0000 37.0556 0.0000 0.0000
# 5 0.0000 0.0000 0.0000 0.0000 37.0556 0.0000
# 6 0.0000 0.0000 0.0000 0.0000 0.0000 31.9458
#
#
#
# Elastic Compliance Matrix: (Units=1/GPa)
#
#
# Indices 1 2 3 4 5 6 
#
# 1 0.018038 -0.004122 -0.004587 0.000000 0.000000 0.000000
# 2 -0.004122 0.018038 -0.004587 0.000000 0.000000 0.000000
# 3 -0.004587 -0.004587 0.012580 0.000000 0.000000 0.000000
# 4 0.000000 0.000000 0.000000 0.026986 0.000000 0.000000
# 5 0.000000 0.000000 0.000000 0.000000 0.026986 0.000000
# 6 0.000000 0.000000 0.000000 0.000000 0.000000 0.031303
#
#
# Mechanical properties :
#
#
# Convention : Reuss Voigt Hill
#
# Bulk Modulus (GPa) = 45.32659 47.98347 46.65503
# Shear Modulus (GPa) = 29.78325 31.25443 30.51884
#
# Velocity S-wave (km/s) = 3.80833 3.90126 3.85508
# Velocity P-wave (km/s) = 6.43509 6.60752 6.52188
#
# Compressibility (1/GPa) = 0.02206210
#
# Stress axis : x y z
#
# Youngs Moduli (GPa) = 55.43921 55.43921 79.48932
#
# Poissons Ratio (x) = 0.22854 0.36464
# Poissons Ratio (y) = 0.22854 0.36464
# Poissons Ratio (z) = 0.25431 0.25431
#
# Static dielectric constant tensor:
#      x y z
#    x 1.740150 0.000000 0.000000 
#    y 0.000000 1.740150 0.000000 
#    z 0.000000 0.000000 1.720370 
# 
# From -- ./inp_files/5825.got.cif
#   From: 2010.05.17/outbox.cif.g08.bks.cpg/sg138_3_cif.got.tgz:5825.got - 2010.05.20 13:08:53.
