data_PCOD9570721
_publ_section_title
;
Structure prediction by ZEFSAII (Michael W. Deem and Ramdas Pophale) SiO2 
 PCOD9570721
Probable space group: P 42/N C M
;
_chemical_formula_sum "Si O2"
_cell_formula_units_Z 112
_cell_length_a 14.842945
_cell_length_b 14.842945
_cell_length_c 25.874459
_cell_angle_alpha 90.000000
_cell_angle_beta 90.000000
_cell_angle_gamma 90.000000
_cell_volume 5700.480107
_symmetry_space_group_name_H-M "P 42/N C M"
_symmetry_group_IT_number 138
_space_group.IT_coordinate_system_code '2'
_symmetry_cell_setting 'tetragonal'
loop_
_space_group_symop_operation_xyz
x,y,z
1/2-y,x,1/2+z
1/2-x,1/2-y,z
y,1/2-x,1/2+z
1/2+x,-y,1/2-z
-x,1/2+y,1/2-z
1/2+y,1/2+x,-z
-y,-x,-z
-x,-y,-z
1/2+y,-x,1/2-z
1/2+x,1/2+y,-z
-y,1/2+x,1/2-z
1/2-x,y,1/2+z
x,1/2-y,1/2+z
1/2-y,1/2-x,z
y,x,z
loop_
_atom_site_type_symbol
_atom_site_label
_atom_site_fract_x
_atom_site_fract_y
_atom_site_fract_z
Si Si1 0.110320 0.962006 0.051819
Si Si2 0.614978 0.033464 0.751881
Si Si3 0.224614 0.078163 0.586647
Si Si4 0.637593 0.152568 0.656965
Si Si5 0.601323 0.744666 0.791379
Si Si6 0.930943 0.424872 0.058087
Si Si7 0.866395 0.155556 0.345520
O O1 0.120208 0.900037 0.102259
O O2 0.192638 0.035464 0.053907
O O3 0.097899 0.902102 0.000000
O O4 0.020127 0.020127 0.056778
O O5 0.594658 0.102727 0.705588
O O6 0.593898 0.086763 0.804459
O O7 0.548092 0.951909 0.744777
O O8 0.713310 0.984402 0.760656
O O9 0.174703 0.174703 0.575152
O O10 0.255463 0.080608 0.646721
O O11 0.145450 0.005873 0.577888
O O12 0.632670 0.260205 0.653850
O O13 0.741027 0.128928 0.668449
O O14 0.679876 0.820125 0.785698
O O15 0.649300 0.649300 0.777361
O O16 0.853755 0.413565 0.099409
O O17 0.977333 0.522668 0.057322
O O18 0.902868 0.402868 0.000000
#
# Coordination Sequence:
#
# PCOD9570721 Si02
#       7
#    16  16  16  16  16  16  16
#     4  11  24  41  60  86 121 160 205 251 301 370
#     4  11  21  38  61  84 118 156 197 254 313 367
#     4  10  19  36  62  92 122 152 198 259 313 362
#     4  11  24  39  58  83 117 157 200 244 303 365
#     4   9  17  31  57  89 117 150 198 254 308 362
#     4  10  20  35  59  91 123 155 195 250 310 364
#     4  11  22  38  59  85 116 156 197 243 296 368
#
# _framework density 19.647466999999999
#
# number of rings (size 3 to 8) (size 9 to 14) (size 15 to 20)
#    0.000    1.571    2.857    2.143    2.000    2.000 
#    0.000    6.429    0.000    0.857    0.000    2.000 
#    0.000    0.000    0.000    0.000    0.000    0.000 
#
# Total GULP energy -624244.137948 kJ/mol
# GULP energy per Si atom -5573.608375 kJ/mol
# Density = 1.960275 g / cm^3
# Si number density = 19.647467 Si / 1000 Ang^3
#
#
#
# Elastic Constant Matrix: (Units=GPa)
#
#
# Indices 1 2 3 4 5 6 
#
# 1 101.4374 -48.1666 18.0902 0.0000 0.0000 0.0000
# 2 -48.1666 101.4364 18.0898 0.0000 0.0000 0.0000
# 3 18.0902 18.0898 102.5104 0.0000 0.0000 0.0000
# 4 0.0000 0.0000 0.0000 24.2326 0.0000 0.0000
# 5 0.0000 0.0000 0.0000 0.0000 24.2326 0.0000
# 6 0.0000 0.0000 0.0000 0.0000 0.0000 17.2077
#
#
#
# Elastic Compliance Matrix: (Units=1/GPa)
#
#
# Indices 1 2 3 4 5 6 
#
# 1 0.014006 0.007322 -0.003764 0.000000 0.000000 0.000000
# 2 0.007322 0.014006 -0.003764 0.000000 0.000000 0.000000
# 3 -0.003764 -0.003764 0.011084 0.000000 0.000000 0.000000
# 4 0.000000 0.000000 0.000000 0.041267 0.000000 0.000000
# 5 0.000000 0.000000 0.000000 0.000000 0.041267 0.000000
# 6 0.000000 0.000000 0.000000 0.000000 0.000000 0.058113
#
#
# Mechanical properties :
#
#
# Convention : Reuss Voigt Hill
#
# Bulk Modulus (GPa) = 25.84971 31.26789 28.55880
# Shear Modulus (GPa) = 25.90010 34.29264 30.09637
#
# Velocity S-wave (km/s) = 3.63470 4.18233 3.91809
# Velocity P-wave (km/s) = 5.54978 6.26670 5.91910
#
# Compressibility (1/GPa) = 0.03868515
#
# Stress axis : x y z
#
# Youngs Moduli (GPa) = 71.39617 71.39561 90.22415
#
# Poissons Ratio (x) = -0.52276 0.33959
# Poissons Ratio (y) = -0.52277 0.33959
# Poissons Ratio (z) = 0.26872 0.26872
#
# Static dielectric constant tensor:
#      x y z
#    x 1.733760 0.000000 0.000000 
#    y 0.000000 1.733760 0.000000 
#    z 0.000000 0.000000 1.679680 
# 
# From -- ./inp_files/7080.got.cif
#   From: 2010.05.17/outbox.cif.g08.bks.cpg/sg138_4_cif.got.tgz:7080.got - 2010.05.20 13:08:53.
